 14
 0.000000
  C 0.957221 0.139289 0.398343
  C 2.413762 0.110415 0.328566
  H 2.987082 0.451925 1.180004
  C 3.076539 -0.339815 -0.792454
  C 4.469589 -0.379073 -0.891354
  C 5.135680 -0.830006 -2.015178
  H 4.625085 -1.187552 -2.903848
  O 6.421636 -0.879294 -2.141357
  H 0.586358 0.519373 1.344878
  H 0.553451 -0.862098 0.227337
  H 0.554622 0.745485 -0.417451
  H 2.489340 -0.678588 -1.636124
  H 5.052371 -0.038355 -0.044302
  H 6.927418 -0.565235 -1.361984
 14
 9.194463
  C 0.907789 0.147295 0.418012
  C 2.364935 0.110346 0.328763
  H 2.949578 0.448996 1.173838
  C 3.005889 -0.338115 -0.788088
  C 4.557743 -0.382310 -0.899177
  C 5.199597 -0.833594 -2.023508
  H 4.666708 -1.186912 -2.900494
  O 6.484382 -0.891548 -2.172174
  H 0.554119 0.529182 1.369642
  H 0.495082 -0.851222 0.251310
  H 0.496603 0.754987 -0.392423
  H 2.425840 -0.676611 -1.631479
  H 5.136131 -0.042242 -0.054102
  H 7.006791 -0.580839 -1.403137
 14
 28.119524
  C 0.873889 0.154035 0.435320
  C 2.326441 0.105301 0.315390
  H 2.921905 0.440225 1.150861
  C 2.935256 -0.344095 -0.804229
  C 4.648885 -0.376045 -0.884575
  C 5.246071 -0.830269 -2.015573
  H 4.671868 -1.173111 -2.866491
  O 6.513790 -0.905235 -2.204873
  H 0.552017 0.539167 1.395723
  H 0.447417 -0.838819 0.276155
  H 0.448438 0.762691 -0.365596
  H 2.416699 -0.693920 -1.675855
  H 5.176246 -0.027141 -0.017219
  H 7.064304 -0.602622 -1.455734
 14
 49.271557
  C 0.843031 0.160144 0.450979
  C 2.285763 0.099111 0.299918
  H 2.890921 0.429479 1.124839
  C 2.856197 -0.347530 -0.814041
  C 4.730836 -0.363647 -0.855253
  C 5.289650 -0.828637 -2.010989
  H 4.675988 -1.161964 -2.836849
  O 6.549425 -0.923517 -2.248694
  H 0.555362 0.547821 1.419120
  H 0.404380 -0.826769 0.302339
  H 0.405446 0.772547 -0.337643
  H 2.423894 -0.710801 -1.719681
  H 5.189000 -0.002840 0.040737
  H 7.129982 -0.628434 -1.519933
 14
 70.695072
  C 0.780272 0.171609 0.479043
  C 2.232920 0.100534 0.304076
  H 2.849544 0.428174 1.123352
  C 2.785869 -0.349867 -0.819861
  C 4.819758 -0.368688 -0.866357
  C 5.350408 -0.832013 -2.017323
  H 4.718557 -1.162646 -2.833393
  O 6.621446 -0.937036 -2.283496
  H 0.513059 0.560977 1.452933
  H 0.333252 -0.812961 0.339332
  H 0.335060 0.789866 -0.300873
  H 2.388231 -0.716841 -1.736510
  H 5.259596 -0.005851 0.033799
  H 7.224040 -0.642962 -1.562122
 14
 90.341959
  C 0.713468 0.182668 0.506637
  C 2.176782 0.104889 0.314091
  H 2.804767 0.431064 1.129514
  C 2.715198 -0.346170 -0.811605
  C 4.907852 -0.374131 -0.878425
  C 5.427639 -0.840068 -2.036380
  H 4.788239 -1.168594 -2.846767
  O 6.695975 -0.949482 -2.315514
  H 0.458346 0.574163 1.486123
  H 0.259533 -0.802279 0.372522
  H 0.261179 0.805010 -0.269384
  H 2.314875 -0.714026 -1.731088
  H 5.355700 -0.010956 0.023058
  H 7.302944 -0.659193 -1.604683
 14
 99.930479
  C 0.675761 0.196012 0.532628
  C 2.156889 0.066523 0.227629
  H 2.795581 0.393900 1.043070
  C 2.625146 -0.378904 -0.868121
  C 4.978313 -0.370989 -0.853928
  C 5.433544 -0.821092 -1.989938
  H 4.775551 -1.130774 -2.796164
  O 6.715700 -0.949547 -2.337129
  H 0.542249 0.599997 1.529840
  H 0.204714 -0.782729 0.460385
  H 0.212982 0.853213 -0.201333
  H 2.417855 -0.769542 -1.831186
  H 5.263849 0.015337 0.092249
  H 7.338972 -0.674953 -1.636992
 14
 106.046772
  C 0.625395 0.208594 0.558955
  C 2.101952 0.057989 0.225892
  H 2.751010 0.378190 1.035491
  C 2.549411 -0.387197 -0.871026
  C 5.061803 -0.362116 -0.854310
  C 5.492907 -0.815925 -1.989885
  H 4.816744 -1.125234 -2.783878
  O 6.769335 -0.965708 -2.364354
  H 0.518452 0.610120 1.555593
  H 0.142291 -0.761383 0.494483
  H 0.162382 0.874530 -0.162458
  H 2.382942 -0.780384 -1.839392
  H 5.314075 0.031190 0.096246
  H 7.407856 -0.694132 -1.679035
 14
 110.754992
  C 0.574671 0.221589 0.586511
  C 2.044912 0.050337 0.225406
  H 2.705404 0.362950 1.028618
  C 2.472727 -0.395452 -0.875503
  C 5.144182 -0.351188 -0.852402
  C 5.553404 -0.811871 -1.991201
  H 4.860151 -1.120516 -2.769958
  O 6.820340 -0.983284 -2.393106
  H 0.493003 0.622287 1.588222
  H 0.078174 -0.742663 0.528872
  H 0.109861 0.898005 -0.124662
  H 2.348368 -0.790531 -1.848573
  H 5.362340 0.049224 0.102550
  H 7.476262 -0.713175 -1.722195
 14
 114.186106
  C 0.524221 0.234546 0.615757
  C 1.985911 0.045646 0.224107
  H 2.659627 0.352427 1.019933
  C 2.394522 -0.401673 -0.881243
  C 5.224967 -0.341783 -0.848114
  C 5.612835 -0.808377 -1.989505
  H 4.901250 -1.115290 -2.754167
  O 6.869913 -0.998505 -2.420535
  H 0.468389 0.633681 1.618165
  H 0.016877 -0.723659 0.567131
  H 0.055484 0.918509 -0.084330
  H 2.313867 -0.798336 -1.857350
  H 5.408167 0.063889 0.110507
  H 7.541434 -0.731849 -1.766173
 14
 116.602721
  C 0.472714 0.247473 0.646592
  C 1.924516 0.044213 0.223611
  H 2.611817 0.346391 1.009819
  C 2.314929 -0.405198 -0.885777
  C 5.304431 -0.334928 -0.844000
  C 5.672698 -0.806497 -1.988360
  H 4.944599 -1.110243 -2.738901
  O 6.918819 -1.011611 -2.447211
  H 0.441397 0.646943 1.651498
  H -0.043669 -0.706735 0.608203
  H -0.002664 0.937301 -0.043739
  H 2.272872 -0.803413 -1.863838
  H 5.457399 0.074346 0.117952
  H 7.605933 -0.748882 -1.807327
 14
 118.290853
  C 0.418778 0.261022 0.679417
  C 1.859756 0.044948 0.226947
  H 2.561373 0.342876 1.003204
  C 2.234046 -0.406982 -0.886832
  C 5.382725 -0.329078 -0.841648
  C 5.733856 -0.805176 -1.988461
  H 4.990568 -1.105501 -2.726861
  O 6.969760 -1.023498 -2.471558
  H 0.409537 0.660154 1.684012
  H -0.105479 -0.688732 0.651012
  H -0.063212 0.955059 -0.001381
  H 2.222171 -0.806227 -1.865197
  H 5.512408 0.082851 0.121883
  H 7.669300 -0.765553 -1.845704
 14
 119.434648
  C 0.363505 0.275109 0.713644
  C 1.792635 0.046650 0.232361
  H 2.508626 0.340063 0.997761
  C 2.151245 -0.407507 -0.884769
  C 5.459180 -0.323244 -0.839859
  C 5.793373 -0.803752 -1.988643
  H 5.035629 -1.100027 -2.714496
  O 7.018444 -1.034955 -2.494514
  H 0.375775 0.674602 1.719270
  H -0.168721 -0.670935 0.695211
  H -0.125445 0.973564 0.041652
  H 2.165616 -0.807609 -1.863037
  H 5.569430 0.091186 0.124872
  H 7.730998 -0.781789 -1.881353
 14
 120.146226
  C 0.305650 0.290354 0.750426
  C 1.722323 0.049845 0.241376
  H 2.453218 0.338601 0.995583
  C 2.066144 -0.406834 -0.879282
  C 5.533399 -0.317267 -0.837950
  C 5.851432 -0.802168 -1.988638
  H 5.079596 -1.094198 -2.702573
  O 7.065860 -1.045574 -2.515565
  H 0.338508 0.689585 1.755112
  H -0.234060 -0.651266 0.741923
  H -0.189837 0.992473 0.087532
  H 2.102335 -0.807470 -1.856499
  H 5.627750 0.099288 0.126920
  H 7.789678 -0.797730 -1.915258
