 32
 0.000000
  C 0.974207 0.139661 0.400006
  C 2.453703 0.138582 0.396402
  C 3.237667 0.608754 1.565702
  C 2.458306 1.098111 2.783709
  C 3.405770 1.544111 3.892873
  C 3.063474 -0.326113 -0.760314
  C 4.442460 -0.412792 -0.976741
  C 5.119133 -0.863303 -2.099995
  C 4.623831 -1.386278 -3.404250
  C 3.132570 -1.503681 -3.698104
  C 2.906243 -2.065373 -5.098947
  O 6.444509 -0.858392 -2.087761
  H 0.527037 0.508474 1.317867
  H 0.606077 -0.873661 0.232479
  H 0.605575 0.754993 -0.422124
  H 3.893295 1.421734 1.233051
  H 3.893699 -0.208006 1.888093
  H 1.820295 0.300663 3.169794
  H 1.819930 1.940714 2.510661
  H 4.041911 0.723031 4.217349
  H 2.838610 1.890078 4.754076
  H 4.041517 2.361621 3.558765
  H 2.402873 -0.643203 -1.549309
  H 5.060443 -0.080937 -0.150238
  H 5.079178 -2.375373 -3.530286
  H 5.079665 -0.758648 -4.178750
  H 2.657664 -0.523043 -3.644102
  H 2.657151 -2.175048 -2.981605
  H 3.344076 -1.418155 -5.855822
  H 1.840559 -2.145811 -5.300380
  H 3.343580 -3.056439 -5.198848
  H 6.815713 -0.523022 -1.250133
 32
 4.122468
  C 0.951600 0.129251 0.375524
  C 2.397644 0.132927 0.383427
  C 3.201536 0.599105 1.541796
  C 2.460754 1.097357 2.781004
  C 3.453609 1.529583 3.855325
  C 3.029622 -0.329470 -0.766943
  C 4.395297 -0.405860 -0.958279
  C 5.093025 -0.851299 -2.069462
  C 4.615340 -1.375527 -3.377582
  C 3.130517 -1.500845 -3.691523
  C 2.943457 -2.064341 -5.097880
  O 6.411627 -0.838543 -2.037875
  H 0.739321 0.513530 1.331065
  H 0.535326 -0.872281 0.234826
  H 0.534633 0.754088 -0.419365
  H 3.858526 1.404666 1.196158
  H 3.858979 -0.221131 1.850043
  H 1.827352 0.307815 3.190908
  H 1.827064 1.950631 2.530153
  H 4.088406 0.699221 4.155951
  H 2.925550 1.883991 4.736827
  H 4.088185 2.337017 3.497249
  H 2.380503 -0.648778 -1.560686
  H 5.013074 -0.074445 -0.133470
  H 5.083405 -2.359333 -3.496909
  H 5.084015 -0.746827 -4.143302
  H 2.649134 -0.523651 -3.646672
  H 2.648603 -2.176371 -2.984425
  H 3.394899 -1.412955 -5.842356
  H 1.885442 -2.156530 -5.328877
  H 3.394377 -3.049803 -5.186414
  H 6.792860 -0.505524 -1.204876
 32
 13.114913
  C 0.893123 0.132635 0.384310
  C 2.342624 0.133755 0.386450
  C 3.157969 0.600023 1.544665
  C 2.456932 1.105631 2.800845
  C 3.491868 1.523477 3.839801
  C 2.997373 -0.327433 -0.760239
  C 4.370228 -0.400997 -0.945505
  C 5.086478 -0.851159 -2.069447
  C 4.622120 -1.377472 -3.382756
  C 3.143800 -1.511396 -3.717299
  C 2.986965 -2.075647 -5.126704
  O 6.406238 -0.834703 -2.029983
  H 0.915870 0.527209 1.364876
  H 0.442478 -0.874851 0.286050
  H 0.442354 0.791137 -0.384298
  H 3.818310 1.397987 1.188626
  H 3.818351 -0.222075 1.840607
  H 1.830455 0.324651 3.237922
  H 1.830868 1.971875 2.575051
  H 4.124256 0.684290 4.118724
  H 2.999652 1.885103 4.737986
  H 4.124862 2.321651 3.459700
  H 2.354876 -0.648345 -1.557235
  H 4.991488 -0.069262 -0.120986
  H 5.099771 -2.356652 -3.498063
  H 5.099861 -0.748981 -4.142381
  H 2.656796 -0.536784 -3.681479
  H 2.656747 -2.191939 -3.018880
  H 3.448231 -1.421090 -5.861554
  H 1.935275 -2.176325 -5.378563
  H 3.448012 -3.056506 -5.206787
  H 6.789920 -0.502044 -1.196019
 32
 25.723892
  C 0.870111 0.123616 0.356516
  C 2.334696 0.129101 0.371687
  C 3.148732 0.592414 1.525687
  C 2.448346 1.101369 2.792179
  C 3.489129 1.517474 3.829989
  C 3.006815 -0.329620 -0.769683
  C 4.392316 -0.401369 -0.950845
  C 5.101001 -0.847179 -2.063018
  C 4.630021 -1.373425 -3.372916
  C 3.148963 -1.503784 -3.696223
  C 2.977262 -2.068239 -5.103013
  O 6.418605 -0.830871 -2.025567
  H 1.068888 0.509483 1.317707
  H 0.419773 -0.858174 0.289083
  H 0.420538 0.786673 -0.371316
  H 3.810790 1.390893 1.166986
  H 3.810214 -0.232802 1.819069
  H 1.822766 0.323669 3.231989
  H 1.823750 1.967923 2.571772
  H 4.121065 0.677078 4.106612
  H 2.999732 1.879417 4.730402
  H 4.122187 2.315024 3.448762
  H 2.367207 -0.654321 -1.576659
  H 5.011663 -0.069837 -0.128192
  H 5.105072 -2.353889 -3.490691
  H 5.104375 -0.746564 -4.136263
  H 2.665491 -0.528285 -3.656950
  H 2.666161 -2.181951 -2.993493
  H 3.434146 -1.415280 -5.842984
  H 1.922172 -2.165542 -5.344987
  H 3.434478 -3.051335 -5.186579
  H 6.804741 -0.495743 -1.187466
 32
 40.377849
  C 0.836885 0.124426 0.358465
  C 2.318527 0.127598 0.367994
  C 3.148808 0.588987 1.517236
  C 2.453047 1.098487 2.784998
  C 3.498514 1.513105 3.819034
  C 3.001228 -0.328730 -0.767399
  C 4.397829 -0.400915 -0.949608
  C 5.105584 -0.845080 -2.057700
  C 4.636028 -1.371046 -3.366922
  C 3.155050 -1.502572 -3.693075
  C 2.986879 -2.066858 -5.099598
  O 6.427614 -0.827869 -2.018054
  H 1.179103 0.491032 1.271910
  H 0.373295 -0.852017 0.317992
  H 0.373999 0.802398 -0.346081
  H 3.810551 1.386395 1.154117
  H 3.809983 -0.238495 1.806670
  H 1.826475 0.321953 3.226902
  H 1.827448 1.965653 2.566833
  H 4.130327 0.671665 4.093363
  H 3.012572 1.875913 4.721499
  H 4.131387 2.309718 3.435412
  H 2.360995 -0.655121 -1.578517
  H 5.018824 -0.069261 -0.126584
  H 5.111847 -2.351804 -3.483702
  H 5.111119 -0.743195 -4.129746
  H 2.670845 -0.528256 -3.654639
  H 2.671538 -2.180550 -2.991780
  H 3.444860 -1.413352 -5.838641
  H 1.932036 -2.165028 -5.343716
  H 3.445196 -3.049667 -5.182174
  H 6.815179 -0.491073 -1.175640
 32
 53.246255
  C 0.845128 0.119157 0.345114
  C 2.336914 0.133072 0.382246
  C 3.158549 0.595066 1.532757
  C 2.456211 1.096204 2.778875
  C 3.487873 1.514728 3.822878
  C 3.022411 -0.327532 -0.763229
  C 4.403042 -0.399793 -0.946229
  C 5.105659 -0.842660 -2.051558
  C 4.633115 -1.370300 -3.365020
  C 3.145612 -1.503768 -3.695980
  C 2.979276 -2.070442 -5.108693
  O 6.431933 -0.825059 -2.011475
  H 1.278123 0.476129 1.235129
  H 0.392327 -0.861056 0.310566
  H 0.393180 0.804209 -0.357077
  H 3.815319 1.390491 1.177362
  H 3.814462 -0.225801 1.826633
  H 1.823440 0.311047 3.213721
  H 1.824749 1.964928 2.549375
  H 4.121391 0.674042 4.104799
  H 2.990265 1.875941 4.720805
  H 4.122759 2.315624 3.445266
  H 2.390755 -0.649359 -1.562799
  H 5.030343 -0.066435 -0.119513
  H 5.110811 -2.353052 -3.482188
  H 5.110174 -0.741024 -4.129691
  H 2.658782 -0.527538 -3.658450
  H 2.659450 -2.183885 -2.994046
  H 3.438023 -1.416468 -5.847679
  H 1.924420 -2.169489 -5.355156
  H 3.438373 -3.053646 -5.191053
  H 6.811438 -0.497289 -1.191883
 32
 63.681618
  C 0.828431 0.112867 0.324443
  C 2.347318 0.126925 0.377192
  C 3.176518 0.591161 1.530397
  C 2.460418 1.100169 2.783152
  C 3.484990 1.521425 3.837079
  C 3.022024 -0.335506 -0.764909
  C 4.403093 -0.402116 -0.947108
  C 5.110324 -0.846106 -2.063917
  C 4.637845 -1.370617 -3.370132
  C 3.153992 -1.502806 -3.691302
  C 2.979860 -2.066979 -5.100682
  O 6.424717 -0.829472 -2.030630
  H 1.348414 0.457834 1.197646
  H 0.387610 -0.867228 0.292476
  H 0.387388 0.810692 -0.363575
  H 3.835722 1.387370 1.172748
  H 3.829684 -0.234362 1.826936
  H 1.824223 0.316878 3.213314
  H 1.830965 1.966870 2.547283
  H 4.115562 0.682367 4.125219
  H 2.981446 1.883942 4.729756
  H 4.122368 2.320733 3.463728
  H 2.390738 -0.660768 -1.567920
  H 5.027006 -0.066387 -0.119680
  H 5.114255 -2.350181 -3.489604
  H 5.110279 -0.742327 -4.133727
  H 2.667757 -0.526752 -3.649775
  H 2.671838 -2.182990 -2.987223
  H 3.434054 -1.413229 -5.840639
  H 1.925362 -2.165215 -5.340561
  H 3.437674 -3.049042 -5.186346
  H 6.815095 -0.494471 -1.192484
 32
 71.492299
  C 0.829384 0.110954 0.287369
  C 2.373037 0.107822 0.373740
  C 3.212243 0.585701 1.546905
  C 2.466909 1.118918 2.791883
  C 3.467930 1.534742 3.867753
  C 3.019895 -0.367408 -0.753938
  C 4.411645 -0.411219 -0.950887
  C 5.109778 -0.838557 -2.069095
  C 4.635391 -1.365986 -3.380357
  C 3.152449 -1.510126 -3.693721
  C 2.975680 -2.070048 -5.102910
  O 6.434984 -0.816693 -2.045392
  H 1.413414 0.428963 1.154757
  H 0.413966 -0.877510 0.217778
  H 0.375463 0.852674 -0.341933
  H 3.891713 1.376361 1.199301
  H 3.850239 -0.253029 1.856737
  H 1.815785 0.350009 3.209521
  H 1.856832 1.986208 2.539897
  H 4.080279 0.692671 4.174693
  H 2.948546 1.907332 4.744325
  H 4.121622 2.322586 3.506364
  H 2.383818 -0.705162 -1.558574
  H 5.029042 -0.068179 -0.136467
  H 5.119591 -2.340915 -3.504942
  H 5.097243 -0.729500 -4.143029
  H 2.658101 -0.538728 -3.645992
  H 2.681199 -2.197515 -2.989891
  H 3.420068 -1.409307 -5.842615
  H 1.920638 -2.177097 -5.337424
  H 3.442311 -3.047426 -5.194483
  H 6.817431 -0.487461 -1.223800
 32
 76.104304
  C 0.827251 0.122068 0.280169
  C 2.394156 0.104734 0.395329
  C 3.237911 0.583947 1.562471
  C 2.482298 1.124537 2.780240
  C 3.465985 1.537318 3.870114
  C 3.013153 -0.385201 -0.735462
  C 4.409448 -0.417703 -0.948985
  C 5.096576 -0.833070 -2.066229
  C 4.630367 -1.362163 -3.382202
  C 3.148393 -1.524115 -3.706368
  C 2.986981 -2.080138 -5.121747
  O 6.423764 -0.801665 -2.047713
  H 1.465934 0.406766 1.144422
  H 0.436898 -0.871551 0.154004
  H 0.346304 0.912809 -0.262912
  H 3.923115 1.364980 1.223187
  H 3.857554 -0.259186 1.877354
  H 1.817962 0.362611 3.188445
  H 1.884284 1.994103 2.511323
  H 4.067586 0.690187 4.191930
  H 2.933479 1.918827 4.735859
  H 4.133866 2.319479 3.516081
  H 2.374817 -0.730029 -1.528966
  H 5.030321 -0.066816 -0.137273
  H 5.127093 -2.332166 -3.507295
  H 5.087900 -0.714739 -4.140067
  H 2.641248 -0.558356 -3.657337
  H 2.681285 -2.222846 -3.009003
  H 3.428058 -1.409744 -5.856565
  H 1.934132 -2.199493 -5.363839
  H 3.467758 -3.051773 -5.214802
  H 6.807903 -0.464874 -1.212155
 32
 79.185549
  C 0.851789 0.105520 0.221247
  C 2.426653 0.084586 0.391444
  C 3.259859 0.575095 1.561982
  C 2.478401 1.121406 2.756746
  C 3.439517 1.546782 3.866826
  C 3.041895 -0.409242 -0.734617
  C 4.438133 -0.428900 -0.947417
  C 5.120645 -0.836812 -2.075130
  C 4.638294 -1.354685 -3.374344
  C 3.148640 -1.511457 -3.661882
  C 2.950248 -2.057485 -5.074946
  O 6.455756 -0.805403 -2.079207
  H 1.512300 0.348205 1.097028
  H 0.475932 -0.882133 0.036427
  H 0.369353 0.942036 -0.247448
  H 3.947013 1.359204 1.224764
  H 3.874479 -0.268805 1.895339
  H 1.805044 0.356928 3.156531
  H 1.881622 1.988985 2.462461
  H 4.035884 0.705492 4.208000
  H 2.888104 1.933185 4.717406
  H 4.111997 2.326864 3.521271
  H 2.403610 -0.765289 -1.538541
  H 5.059942 -0.076883 -0.131712
  H 5.131663 -2.323952 -3.512475
  H 5.080483 -0.701801 -4.136012
  H 2.644886 -0.544931 -3.593127
  H 2.697955 -2.213816 -2.956988
  H 3.373735 -1.383958 -5.814956
  H 1.893211 -2.173267 -5.290777
  H 3.425894 -3.028121 -5.186744
  H 6.846989 -0.476453 -1.257642
 32
 81.362660
  C 0.832094 0.106325 0.227245
  C 2.423928 0.068986 0.420447
  C 3.273303 0.574691 1.582040
  C 2.496684 1.137142 2.776005
  C 3.462922 1.575353 3.878224
  C 3.023821 -0.429195 -0.711679
  C 4.417543 -0.445125 -0.938155
  C 5.095536 -0.839168 -2.062161
  C 4.628385 -1.356240 -3.386030
  C 3.146787 -1.532749 -3.706133
  C 2.986437 -2.064786 -5.130182
  O 6.426157 -0.795783 -2.056889
  H 1.534324 0.300804 1.114600
  H 0.451185 -0.867485 -0.005771
  H 0.350897 0.981121 -0.164631
  H 3.957284 1.355868 1.226618
  H 3.887502 -0.268260 1.921673
  H 1.823256 0.378160 3.186986
  H 1.899832 2.001715 2.472317
  H 4.060140 0.737028 4.227348
  H 2.914906 1.973304 4.727597
  H 4.135413 2.350597 3.520296
  H 2.382689 -0.779853 -1.503930
  H 5.041947 -0.105375 -0.124407
  H 5.136564 -2.317411 -3.524469
  H 5.073561 -0.689633 -4.133926
  H 2.626820 -0.575712 -3.637396
  H 2.693753 -2.250904 -3.020766
  H 3.414747 -1.375213 -5.853172
  H 1.935115 -2.195042 -5.370092
  H 3.480384 -3.026558 -5.243506
  H 6.811234 -0.468215 -1.222878
 32
 83.101651
  C 0.846922 0.105012 0.191967
  C 2.439501 0.054919 0.415187
  C 3.283232 0.570879 1.580918
  C 2.494667 1.133956 2.763049
  C 3.450469 1.582631 3.872786
  C 3.046480 -0.440194 -0.714314
  C 4.441105 -0.452765 -0.933229
  C 5.119648 -0.843243 -2.062293
  C 4.641552 -1.353806 -3.382395
  C 3.147789 -1.528486 -3.681862
  C 2.962076 -2.054364 -5.111625
  O 6.449337 -0.792091 -2.066178
  H 1.568927 0.245421 1.086946
  H 0.464732 -0.851786 -0.093408
  H 0.368043 1.012704 -0.123626
  H 3.965713 1.356077 1.223588
  H 3.899399 -0.271465 1.929628
  H 1.820568 0.374483 3.171021
  H 1.896233 1.993832 2.448138
  H 4.047810 0.750658 4.231262
  H 2.895427 1.981296 4.713016
  H 4.122066 2.357909 3.517741
  H 2.409880 -0.802014 -1.510269
  H 5.062755 -0.108612 -0.121394
  H 5.149108 -2.315482 -3.532660
  H 5.077583 -0.683515 -4.134920
  H 2.627565 -0.567370 -3.598701
  H 2.703226 -2.253250 -2.989853
  H 3.378587 -1.361762 -5.837620
  H 1.908518 -2.182211 -5.334647
  H 3.452794 -3.015519 -5.239053
  H 6.836935 -0.463674 -1.234188
 32
 84.182112
  C 0.837752 0.132814 0.176064
  C 2.443939 0.049344 0.417846
  C 3.290187 0.565443 1.584685
  C 2.501032 1.135651 2.764890
  C 3.455356 1.584108 3.876545
  C 3.044992 -0.451290 -0.714062
  C 4.437489 -0.460521 -0.941245
  C 5.111864 -0.845956 -2.071365
  C 4.634776 -1.355562 -3.389295
  C 3.160378 -1.539608 -3.684633
  C 2.982312 -2.057561 -5.103721
  O 6.445427 -0.778768 -2.084233
  H 1.592609 0.206809 1.087122
  H 0.438013 -0.801695 -0.162399
  H 0.365395 1.061705 -0.055345
  H 3.971672 1.342552 1.228131
  H 3.897907 -0.275503 1.933162
  H 1.823504 0.382986 3.172620
  H 1.909212 1.993603 2.447021
  H 4.049885 0.747748 4.240192
  H 2.897055 1.989208 4.716913
  H 4.133097 2.357740 3.519462
  H 2.410536 -0.829604 -1.489922
  H 5.061798 -0.088717 -0.140558
  H 5.144368 -2.305550 -3.542810
  H 5.060091 -0.684694 -4.134682
  H 2.636844 -0.590630 -3.599131
  H 2.726290 -2.265300 -3.000619
  H 3.393071 -1.358321 -5.826121
  H 1.930455 -2.193806 -5.326825
  H 3.481862 -3.013212 -5.233322
  H 6.832496 -0.443271 -1.259488
 32
 85.283312
  C 0.844926 0.149548 0.159329
  C 2.451877 0.046186 0.427836
  C 3.299374 0.566477 1.591816
  C 2.507122 1.134746 2.767095
  C 3.459308 1.589823 3.881214
  C 3.052115 -0.453736 -0.708599
  C 4.439808 -0.459408 -0.937272
  C 5.115639 -0.841547 -2.067602
  C 4.636880 -1.355802 -3.393788
  C 3.159375 -1.546745 -3.692496
  C 2.985869 -2.065036 -5.113408
  O 6.444549 -0.769259 -2.078444
  H 1.615781 0.160151 1.087263
  H 0.442310 -0.762552 -0.224344
  H 0.376042 1.097672 0.001299
  H 3.982058 1.350767 1.232006
  H 3.911105 -0.275612 1.941279
  H 1.825648 0.375052 3.177616
  H 1.907609 1.996608 2.441086
  H 4.055944 0.756762 4.248034
  H 2.897637 1.995406 4.720095
  H 4.135186 2.364609 3.523887
  H 2.411116 -0.841866 -1.483242
  H 5.064502 -0.080920 -0.139767
  H 5.149685 -2.302936 -3.548754
  H 5.060718 -0.683462 -4.138720
  H 2.632024 -0.600353 -3.608011
  H 2.728469 -2.274717 -3.011186
  H 3.393206 -1.365763 -5.832255
  H 1.937622 -2.205668 -5.337952
  H 3.488569 -3.015577 -5.242428
  H 6.830889 -0.432451 -1.252289
