 20
 0.000000
  C 1.009068 0.117710 0.342043
  C 2.481960 0.115596 0.340945
  C 3.210639 0.593339 1.530541
  H 2.530830 0.908803 2.314119
  C 3.133124 -0.340885 -0.793628
  C 4.517639 -0.400626 -0.943876
  C 5.190075 -0.854153 -2.077464
  C 4.551122 -1.351056 -3.313848
  H 3.472061 -1.335939 -3.272613
  O 6.498082 -0.868894 -2.120600
  H 0.596506 0.492027 1.272337
  H 0.630343 -0.889653 0.163922
  H 0.632372 0.722836 -0.483719
  H 3.858680 1.431581 1.272597
  H 3.857674 -0.190837 1.924883
  H 2.508662 -0.668882 -1.610409
  H 5.129335 -0.068113 -0.115912
  H 4.897319 -2.365974 -3.509141
  H 4.895320 -0.751923 -4.156873
  H 6.942654 -0.544112 -1.314436
 20
 4.042098
  C 0.951395 0.113678 0.329253
  C 2.530729 0.118552 0.349232
  C 3.204156 0.602976 1.557223
  H 2.497209 0.909787 2.319578
  C 3.150141 -0.340219 -0.791115
  C 4.534065 -0.403794 -0.951292
  C 5.197461 -0.859106 -2.090582
  C 4.546008 -1.354364 -3.319766
  H 3.466253 -1.336897 -3.269370
  O 6.505019 -0.875881 -2.142670
  H 0.576725 0.492138 1.270360
  H 0.622974 -0.907066 0.162646
  H 0.626561 0.737559 -0.497078
  H 3.850202 1.448977 1.317693
  H 3.848806 -0.174688 1.969685
  H 2.514142 -0.664546 -1.599568
  H 5.150959 -0.072483 -0.126195
  H 4.888335 -2.370145 -3.518225
  H 4.884402 -0.756814 -4.166378
  H 6.958946 -0.551761 -1.341927
 20
 13.717646
  C 0.896165 0.113337 0.305550
  C 2.567457 0.117771 0.358750
  C 3.189404 0.605257 1.582043
  H 2.462673 0.909232 2.328534
  C 3.156700 -0.347142 -0.791511
  C 4.542509 -0.410384 -0.957242
  C 5.200828 -0.863493 -2.101174
  C 4.541495 -1.362268 -3.323663
  H 3.461971 -1.350449 -3.263808
  O 6.507475 -0.870688 -2.162800
  H 0.585194 0.499930 1.263390
  H 0.626273 -0.923781 0.173517
  H 0.643746 0.777720 -0.507339
  H 3.844569 1.450621 1.358898
  H 3.835282 -0.166247 2.007795
  H 2.510075 -0.667403 -1.593970
  H 5.157778 -0.078647 -0.130826
  H 4.888396 -2.375967 -3.525676
  H 4.870393 -0.764465 -4.174091
  H 6.965938 -0.531350 -1.370691
 20
 29.059519
  C 0.805900 0.107334 0.314764
  C 2.621869 0.127846 0.373920
  C 3.197164 0.622406 1.601079
  H 2.441262 0.914313 2.323338
  C 3.194006 -0.337397 -0.780228
  C 4.583139 -0.411192 -0.967332
  C 5.223948 -0.874010 -2.119945
  C 4.540084 -1.359147 -3.333234
  H 3.461778 -1.326017 -3.259316
  O 6.525993 -0.901192 -2.194624
  H 0.508738 0.493595 1.271605
  H 0.564867 -0.931084 0.172256
  H 0.568188 0.757336 -0.508443
  H 3.834066 1.490505 1.403638
  H 3.828789 -0.143231 2.062446
  H 2.542471 -0.659440 -1.579741
  H 5.215027 -0.084181 -0.150756
  H 4.864268 -2.379256 -3.542170
  H 4.865866 -0.763601 -4.186614
  H 7.001887 -0.574829 -1.407066
 20
 42.940214
  C 0.729643 0.112758 0.320099
  C 2.663106 0.129537 0.397354
  C 3.211589 0.633561 1.640958
  H 2.439503 0.933089 2.343218
  C 3.227220 -0.338630 -0.757333
  C 4.608075 -0.416310 -0.966818
  C 5.227439 -0.877350 -2.132014
  C 4.531352 -1.359522 -3.340581
  H 3.453247 -1.329037 -3.256160
  O 6.531156 -0.910519 -2.229655
  H 0.410990 0.499736 1.270500
  H 0.518240 -0.926334 0.126586
  H 0.530529 0.727285 -0.542861
  H 3.845419 1.500263 1.441959
  H 3.837515 -0.127415 2.111951
  H 2.563876 -0.653691 -1.549971
  H 5.254892 -0.096664 -0.159018
  H 4.852930 -2.379906 -3.550542
  H 4.852724 -0.766894 -4.197453
  H 7.018299 -0.575346 -1.452097
 20
 60.537454
  C 0.646866 0.086226 0.297843
  C 2.733917 0.152811 0.410828
  C 3.205122 0.662637 1.681675
  H 2.386224 0.921409 2.348579
  C 3.260400 -0.304251 -0.753587
  C 4.656806 -0.410762 -0.980830
  C 5.242484 -0.881640 -2.153965
  C 4.507150 -1.359501 -3.344702
  H 3.432360 -1.305993 -3.230168
  O 6.552166 -0.946486 -2.275536
  H 0.373765 0.464735 1.260306
  H 0.522002 -0.964117 0.110029
  H 0.503771 0.720578 -0.557363
  H 3.796095 1.568838 1.526720
  H 3.814632 -0.089480 2.188704
  H 2.587679 -0.609122 -1.541695
  H 5.317477 -0.103982 -0.179211
  H 4.802257 -2.386915 -3.557639
  H 4.811376 -0.772281 -4.210936
  H 7.060441 -0.653728 -1.494879
 20
 76.487901
  C 0.576413 0.093607 0.263693
  C 2.823529 0.161469 0.440537
  C 3.196182 0.668886 1.730921
  H 2.337143 0.906661 2.354172
  C 3.305684 -0.302602 -0.724152
  C 4.697770 -0.418478 -0.988497
  C 5.241171 -0.892674 -2.164874
  C 4.488357 -1.375843 -3.346090
  H 3.416299 -1.328198 -3.212869
  O 6.550964 -0.944877 -2.336871
  H 0.317660 0.476354 1.230608
  H 0.489100 -0.960827 0.090099
  H 0.490031 0.744830 -0.583503
  H 3.782110 1.585135 1.616957
  H 3.775974 -0.085664 2.269869
  H 2.620695 -0.608114 -1.500103
  H 5.372536 -0.114745 -0.200542
  H 4.782931 -2.403324 -3.559462
  H 4.774277 -0.785863 -4.216720
  H 7.069846 -0.612332 -1.582242
 20
 87.549829
  C 0.520956 0.048538 0.251113
  C 2.909901 0.186808 0.461929
  C 3.180390 0.710825 1.762054
  H 2.276212 0.924924 2.335029
  C 3.343732 -0.266736 -0.694818
  C 4.747665 -0.426977 -0.991225
  C 5.242748 -0.908329 -2.172866
  C 4.455859 -1.351721 -3.357135
  H 3.387187 -1.263909 -3.212804
  O 6.559577 -1.017333 -2.376643
  H 0.274364 0.429006 1.219488
  H 0.503284 -1.011214 0.086307
  H 0.464293 0.702175 -0.597436
  H 3.718459 1.658692 1.671891
  H 3.753471 -0.016834 2.341900
  H 2.652985 -0.556373 -1.472526
  H 5.436865 -0.141917 -0.210496
  H 4.708527 -2.386318 -3.582166
  H 4.755531 -0.761790 -4.221626
  H 7.093863 -0.731294 -1.615661
 20
 93.505764
  C 0.451800 0.019318 0.229742
  C 3.003415 0.209733 0.480118
  C 3.179176 0.737327 1.785025
  H 2.232776 0.909130 2.299772
  C 3.399910 -0.237053 -0.667638
  C 4.801433 -0.427198 -0.999385
  C 5.245371 -0.914618 -2.178052
  C 4.422738 -1.333959 -3.347620
  H 3.358114 -1.214873 -3.184519
  O 6.558820 -1.061660 -2.413269
  H 0.205197 0.398910 1.198461
  H 0.468676 -1.039668 0.072022
  H 0.408398 0.675344 -0.615516
  H 3.677552 1.708434 1.733474
  H 3.734750 0.024446 2.399462
  H 2.691010 -0.521425 -1.434478
  H 5.513052 -0.156227 -0.234501
  H 4.639054 -2.376444 -3.575737
  H 4.723378 -0.751393 -4.216834
  H 7.112773 -0.805546 -1.653297
 20
 96.680513
  C 0.381686 0.018216 0.187434
  C 3.080831 0.215559 0.518629
  C 3.176490 0.746307 1.826016
  H 2.198226 0.902712 2.284446
  C 3.449875 -0.236850 -0.626108
  C 4.845608 -0.438360 -0.997022
  C 5.246310 -0.917810 -2.188248
  C 4.385459 -1.338270 -3.330223
  H 3.326286 -1.227183 -3.130791
  O 6.555709 -1.058793 -2.473848
  H 0.130633 0.402006 1.153645
  H 0.425277 -1.040975 0.036552
  H 0.383320 0.676920 -0.656809
  H 3.659894 1.727253 1.804500
  H 3.698417 0.038427 2.477033
  H 2.727121 -0.508807 -1.385031
  H 5.579115 -0.173730 -0.250826
  H 4.600131 -2.378634 -3.568892
  H 4.651325 -0.749267 -4.206318
  H 7.132196 -0.790367 -1.737286
 20
 98.667554
  C 0.307496 0.017978 0.146403
  C 3.153311 0.221502 0.562119
  C 3.178319 0.748201 1.865215
  H 2.171620 0.895593 2.264524
  C 3.501070 -0.235314 -0.579866
  C 4.887437 -0.422178 -1.000365
  C 5.247550 -0.911366 -2.200463
  C 4.345157 -1.339814 -3.313142
  H 3.293353 -1.223504 -3.081987
  O 6.555097 -1.068198 -2.526971
  H 0.043883 0.402783 1.110323
  H 0.366791 -1.040914 -0.001425
  H 0.342148 0.679411 -0.694895
  H 3.648993 1.735058 1.873109
  H 3.661389 0.043304 2.548187
  H 2.761528 -0.522518 -1.316542
  H 5.643509 -0.146662 -0.283108
  H 4.548297 -2.383326 -3.548777
  H 4.584202 -0.759031 -4.202608
  H 7.154039 -0.792968 -1.815029
 20
 99.968625
  C 0.219741 -0.001782 0.119222
  C 3.211083 0.242509 0.603481
  C 3.186354 0.769296 1.897290
  H 2.165636 0.898427 2.261023
  C 3.547341 -0.216746 -0.553750
  C 4.914477 -0.427058 -0.996869
  C 5.244850 -0.919788 -2.210413
  C 4.316356 -1.331886 -3.303344
  H 3.270939 -1.202809 -3.051333
  O 6.530854 -1.090165 -2.562861
  H -0.053708 0.381132 1.079039
  H 0.302207 -1.058431 -0.024386
  H 0.270694 0.660397 -0.719027
  H 3.639535 1.764519 1.918534
  H 3.662782 0.078490 2.598479
  H 2.793960 -0.491946 -1.280678
  H 5.688168 -0.165251 -0.291613
  H 4.501495 -2.377212 -3.545959
  H 4.545442 -0.751643 -4.195898
  H 7.151061 -0.829053 -1.860383
 20
 99.986572
  C 0.180552 -0.017773 0.034855
  C 3.332523 0.307451 0.659299
  C 3.175939 0.783657 1.961553
  H 2.112646 0.829226 2.218623
  C 3.645061 -0.171266 -0.489869
  C 4.975758 -0.408189 -1.004371
  C 5.230342 -0.923919 -2.226020
  C 4.234046 -1.336709 -3.254355
  H 3.206462 -1.186590 -2.944235
  O 6.487815 -1.121593 -2.646967
  H -0.149004 0.347203 0.983464
  H 0.302395 -1.069881 -0.111753
  H 0.252606 0.655696 -0.792447
  H 3.551408 1.806643 2.064409
  H 3.616057 0.092554 2.688275
  H 2.852741 -0.445811 -1.179403
  H 5.792158 -0.147220 -0.347433
  H 4.387663 -2.388967 -3.489636
  H 4.418559 -0.774089 -4.168295
  H 7.151670 -0.861171 -1.986231
 20
 99.988473
  C 0.148230 -0.038714 0.026745
  C 3.347767 0.307449 0.666333
  C 3.193225 0.796317 1.962997
  H 2.127408 0.838306 2.214622
  C 3.664685 -0.166369 -0.480369
  C 4.990820 -0.415372 -1.001907
  C 5.236123 -0.925715 -2.225332
  C 4.229557 -1.322755 -3.251030
  H 3.206118 -1.163156 -2.934183
  O 6.491571 -1.135257 -2.651710
  H -0.190093 0.327418 0.972053
  H 0.278441 -1.090156 -0.114934
  H 0.221514 0.632349 -0.801999
  H 3.561820 1.821440 2.056937
  H 3.628976 0.112237 2.697950
  H 2.864822 -0.426330 -1.167271
  H 5.811916 -0.166209 -0.347939
  H 4.369822 -2.375047 -3.492968
  H 4.414250 -0.757652 -4.163144
  H 7.160427 -0.883533 -1.995387
