 25
 0.000000
  C 0.977438 0.160065 0.451717
  C 2.448555 0.139868 0.399900
  C 3.238470 0.603694 1.552238
  H 2.640809 0.940089 2.389533
  C 3.041676 -0.329757 -0.768612
  C 4.423182 -0.417510 -0.987945
  C 5.085510 -0.866457 -2.107197
  C 4.614781 -1.385156 -3.401108
  C 3.131576 -1.512909 -3.721495
  C 2.936760 -2.076401 -5.127353
  H 6.166310 -0.850743 -2.067725
  H 0.592797 0.538738 1.393472
  H 0.583540 -0.845042 0.292881
  H 0.582701 0.774880 -0.358729
  H 3.893859 1.420168 1.241223
  H 3.894684 -0.200165 1.892913
  H 2.371638 -0.644692 -1.551553
  H 5.054538 -0.089713 -0.171643
  H 5.085908 -2.369746 -3.524979
  H 5.086753 -0.759395 -4.170785
  H 2.649936 -0.535036 -3.675062
  H 2.649153 -2.187527 -3.012606
  H 3.385239 -1.426135 -5.875035
  H 1.877105 -2.166370 -5.353078
  H 3.384516 -3.063412 -5.218696
 25
 13.181259
  C 0.956690 0.229744 0.461783
  C 2.425661 0.151777 0.422437
  C 3.235133 0.562326 1.557842
  H 2.623720 0.893282 2.394400
  C 3.031030 -0.316422 -0.748450
  C 4.413534 -0.444526 -0.967642
  C 4.987793 -0.863857 -2.133470
  C 4.666506 -1.340465 -3.464302
  C 3.167342 -1.489996 -3.751447
  C 2.933500 -2.104900 -5.109955
  H 6.164105 -0.831997 -2.036681
  H 0.564136 0.593569 1.408520
  H 0.538646 -0.767213 0.288809
  H 0.566455 0.820964 -0.366112
  H 3.943025 1.342057 1.248943
  H 3.875620 -0.277316 1.883717
  H 2.373606 -0.619655 -1.578847
  H 5.060380 -0.132932 -0.159351
  H 5.171760 -2.307777 -3.618986
  H 5.101828 -0.692016 -4.240807
  H 2.651763 -0.531351 -3.658109
  H 2.791266 -2.185233 -2.997043
  H 3.308691 -1.483128 -5.912989
  H 1.863560 -2.265452 -5.248087
  H 3.387443 -3.085792 -5.148161
 25
 55.941324
  C 0.941129 0.220171 0.593515
  C 2.426497 0.154206 0.433415
  C 3.278617 0.528920 1.548246
  H 2.687096 0.888623 2.416446
  C 2.911976 -0.276899 -0.769642
  C 4.279492 -0.383496 -0.994290
  C 4.837738 -0.844932 -2.151019
  C 4.637230 -1.422352 -3.472154
  C 3.153574 -1.568026 -3.806194
  C 2.988644 -2.165287 -5.201098
  H 6.512436 -0.635927 -1.967584
  H 0.648541 0.591247 1.559194
  H 0.492369 -0.731084 0.337194
  H 0.567468 0.920764 -0.158951
  H 3.960267 1.335890 1.277319
  H 3.902212 -0.300342 1.869370
  H 2.218504 -0.525270 -1.555051
  H 4.942884 -0.065803 -0.189327
  H 5.121118 -2.408688 -3.511830
  H 5.126600 -0.772427 -4.202894
  H 2.684973 -0.578525 -3.771183
  H 2.690458 -2.223847 -3.067623
  H 3.429351 -1.500595 -5.951242
  H 1.928651 -2.242849 -5.434777
  H 3.439006 -3.136763 -5.296423
 25
 65.879619
  C 0.929491 0.235575 0.667637
  C 2.375510 0.171227 0.485222
  C 3.281145 0.610602 1.542273
  H 2.749930 0.962295 2.419828
  C 2.841075 -0.324860 -0.736871
  C 4.214953 -0.449842 -1.049671
  C 4.710656 -0.903142 -2.177195
  C 4.629498 -1.417804 -3.452643
  C 3.110878 -1.549868 -3.850758
  C 3.033621 -2.122900 -5.253176
  H 6.921819 -0.733312 -1.828216
  H 0.644879 0.631175 1.637505
  H 0.484998 -0.753146 0.527088
  H 0.472019 0.833321 -0.125001
  H 3.939033 1.406792 1.182321
  H 3.957921 -0.196755 1.835583
  H 2.118552 -0.626195 -1.479030
  H 4.921044 -0.142231 -0.288498
  H 5.093349 -2.407046 -3.532278
  H 5.129665 -0.776100 -4.186673
  H 2.649431 -0.565104 -3.825544
  H 2.617829 -2.220876 -3.150654
  H 3.517047 -1.476120 -5.979956
  H 1.984741 -2.215205 -5.527953
  H 3.483904 -3.109727 -5.309909
 25
 64.695237
  C 0.908592 0.279211 0.739790
  C 2.347738 0.189723 0.517307
  C 3.287838 0.603670 1.548303
  H 2.789984 0.959998 2.444814
  C 2.762310 -0.307209 -0.723217
  C 4.125568 -0.457878 -1.088629
  C 4.608717 -0.902543 -2.213208
  C 4.609844 -1.407775 -3.485526
  C 3.088872 -1.589155 -3.906314
  C 3.064461 -2.157409 -5.310163
  H 7.078802 -0.706499 -1.653487
  H 0.664524 0.674440 1.722166
  H 0.446611 -0.709762 0.602890
  H 0.446708 0.897411 -0.043205
  H 3.949234 1.387852 1.175488
  H 3.956777 -0.216474 1.815719
  H 2.009993 -0.592764 -1.446127
  H 4.869004 -0.171808 -0.351213
  H 5.105597 -2.381489 -3.558956
  H 5.088872 -0.742894 -4.213444
  H 2.597940 -0.619335 -3.884493
  H 2.609087 -2.276647 -3.214297
  H 3.538255 -1.493038 -6.025136
  H 2.024116 -2.280641 -5.602125
  H 3.546144 -3.128437 -5.363211
 25
 62.343687
  C 0.916797 0.314123 0.818436
  C 2.344710 0.200973 0.547547
  C 3.332545 0.594891 1.545360
  H 2.875416 0.948000 2.463970
  C 2.717163 -0.299148 -0.704683
  C 4.060721 -0.464068 -1.112503
  C 4.530111 -0.914462 -2.237141
  C 4.596796 -1.423791 -3.500289
  C 3.089010 -1.613668 -3.967733
  C 3.113083 -2.184328 -5.370885
  H 7.223416 -0.573665 -1.416603
  H 0.706954 0.705753 1.807805
  H 0.428061 -0.656865 0.692902
  H 0.435322 0.941703 0.062204
  H 3.989280 1.377005 1.153220
  H 4.005281 -0.235233 1.778795
  H 1.943533 -0.577043 -1.406629
  H 4.838559 -0.181705 -0.404349
  H 5.103142 -2.395452 -3.554890
  H 5.103191 -0.763937 -4.215136
  H 2.590237 -0.647164 -3.961099
  H 2.589786 -2.301233 -3.288741
  H 3.600629 -1.514993 -6.073384
  H 2.081834 -2.319283 -5.691794
  H 3.607358 -3.150513 -5.408207
 25
 58.389496
  C 0.933071 0.405503 0.943364
  C 2.334232 0.220648 0.592628
  C 3.395328 0.555297 1.534820
  H 3.010742 0.869341 2.499828
  C 2.615176 -0.288404 -0.679924
  C 3.916915 -0.503878 -1.174608
  C 4.365590 -0.962605 -2.300693
  C 4.574780 -1.478276 -3.541974
  C 3.076811 -1.679467 -4.063521
  C 3.170759 -2.231071 -5.473593
  H 7.353221 -0.194776 -0.940808
  H 0.796713 0.784187 1.950463
  H 0.379308 -0.530145 0.818407
  H 0.447553 1.077661 0.228134
  H 4.025713 1.354940 1.132945
  H 4.081473 -0.283834 1.677455
  H 1.793191 -0.525776 -1.342147
  H 4.769806 -0.250368 -0.534749
  H 5.090021 -2.445910 -3.555264
  H 5.099965 -0.810513 -4.233841
  H 2.563361 -0.720867 -4.067800
  H 2.560303 -2.381991 -3.414028
  H 3.653257 -1.532642 -6.150606
  H 2.155495 -2.400653 -5.827411
  H 3.702453 -3.177134 -5.505464
 25
 58.273861
  C 0.947081 0.432160 0.975279
  C 2.338582 0.227918 0.603321
  C 3.415952 0.543544 1.530845
  H 3.051314 0.844075 2.504439
  C 2.594846 -0.283666 -0.674803
  C 3.884542 -0.513231 -1.189900
  C 4.329818 -0.975465 -2.313619
  C 4.577604 -1.492862 -3.548277
  C 3.080328 -1.695593 -4.087399
  C 3.193661 -2.241530 -5.494354
  H 7.387336 -0.096634 -0.831283
  H 0.832018 0.804676 1.985580
  H 0.375366 -0.493387 0.850588
  H 0.461925 1.117811 0.272298
  H 4.041429 1.344830 1.130188
  H 4.099312 -0.297861 1.649034
  H 1.760567 -0.505540 -1.329191
  H 4.754570 -0.272745 -0.566473
  H 5.095287 -2.459986 -3.550642
  H 5.115175 -0.822968 -4.233315
  H 2.564753 -0.739907 -4.095448
  H 2.557909 -2.400171 -3.446897
  H 3.673821 -1.537141 -6.163466
  H 2.183664 -2.420944 -5.857210
  H 3.734516 -3.180039 -5.522581
 25
 47.745910
  C 0.809531 0.398449 0.961417
  C 2.217996 0.232431 0.628609
  C 3.259175 0.611319 1.576484
  H 2.855932 0.871514 2.550132
  C 2.519031 -0.291359 -0.633616
  C 3.832765 -0.485419 -1.117473
  C 4.255697 -0.954500 -2.251046
  C 4.522408 -1.463776 -3.480840
  C 3.056026 -1.679469 -4.085011
  C 3.233562 -2.225765 -5.488173
  H 9.125560 -0.527749 -1.539390
  H 0.653590 0.825630 1.945961
  H 0.287304 -0.561553 0.890223
  H 0.304369 1.008328 0.205666
  H 3.808116 1.481529 1.199961
  H 4.013284 -0.169853 1.692771
  H 1.705605 -0.563370 -1.292552
  H 4.657995 -0.201505 -0.449809
  H 5.048945 -2.425998 -3.465182
  H 5.075322 -0.779711 -4.137284
  H 2.531766 -0.727459 -4.114197
  H 2.518656 -2.396986 -3.469524
  H 3.767080 -1.532046 -6.131179
  H 2.239622 -2.377382 -5.906343
  H 3.751980 -3.179806 -5.492797
