 23
 0.000000
  H 1.513806 0.150486 0.425881
  C 2.593968 0.140047 0.399948
  C 3.326526 0.614002 1.579274
  C 2.439840 1.077005 2.731186
  C 3.276709 1.552491 3.914630
  C 3.178118 -0.326020 -0.760030
  C 4.556113 -0.411247 -0.972300
  C 5.186219 -0.874712 -2.128948
  C 4.534677 -1.366247 -3.355311
  H 3.453390 -1.358501 -3.336739
  O 6.493468 -0.900605 -2.194321
  H 3.988599 1.437775 1.286050
  H 3.988622 -0.183571 1.937615
  H 1.796330 0.257801 3.057043
  H 1.796539 1.894021 2.399503
  H 3.909976 0.752175 4.290691
  H 2.632007 1.878907 4.726750
  H 3.910148 2.390362 3.632351
  H 2.517567 -0.644320 -1.553143
  H 5.200609 -0.087679 -0.165155
  H 4.890332 -2.379099 -3.550759
  H 4.890829 -0.769144 -4.196257
  H 6.953995 -0.579953 -1.394776
 23
 0.994267
  H 1.575030 0.095355 0.439518
  C 2.650703 -0.018028 0.441131
  C 3.361192 0.533384 1.601256
  C 2.440286 1.078460 2.689724
  C 3.237902 1.646327 3.858322
  C 3.227854 -0.627167 -0.648148
  C 4.608254 -0.670319 -0.876162
  C 5.212927 -0.910236 -2.111601
  C 4.487695 -1.164983 -3.371243
  H 3.413480 -1.099819 -3.268326
  O 6.511759 -0.889220 -2.242592
  H 4.029637 1.339647 1.272450
  H 4.022712 -0.230017 2.027520
  H 1.791122 0.280112 3.053871
  H 1.802013 1.861352 2.276411
  H 3.862220 0.879781 4.311488
  H 2.568317 2.028954 4.624306
  H 3.876968 2.464066 3.532874
  H 2.565124 -1.025041 -1.402305
  H 5.258990 -0.428512 -0.045422
  H 4.763593 -2.152563 -3.744415
  H 4.828825 -0.459269 -4.128719
  H 7.016773 -0.722689 -1.423559
 23
 4.002892
  H 1.622016 0.229245 0.343547
  C 2.663688 -0.056431 0.432217
  C 3.371410 0.505377 1.590986
  C 2.441814 1.079995 2.658917
  C 3.232360 1.713577 3.797599
  C 3.226250 -0.773228 -0.594048
  C 4.613975 -0.812509 -0.812749
  C 5.199070 -0.883727 -2.072592
  C 4.451016 -1.047689 -3.335933
  H 3.380093 -0.978029 -3.217680
  O 6.484513 -0.718027 -2.246922
  H 4.036996 1.310766 1.253102
  H 4.029204 -0.249029 2.037240
  H 1.812170 0.282891 3.059246
  H 1.785033 1.830395 2.215312
  H 3.874530 0.980256 4.279638
  H 2.557828 2.115100 4.550051
  H 3.853305 2.530413 3.433745
  H 2.567512 -1.151799 -1.359772
  H 5.262027 -0.636456 0.035923
  H 4.709209 -2.015667 -3.769609
  H 4.794402 -0.302738 -4.054644
  H 7.018729 -0.682103 -1.434289
 23
 10.090620
  H 1.751945 0.131717 0.270200
  C 2.787820 -0.140756 0.430413
  C 3.432902 0.476286 1.591486
  C 2.436194 1.107934 2.563479
  C 3.154255 1.760924 3.739738
  C 3.330936 -1.046848 -0.437462
  C 4.711169 -0.988173 -0.745717
  C 5.196475 -0.911647 -2.040047
  C 4.342289 -0.811701 -3.243345
  H 3.296002 -0.694921 -3.012325
  O 6.475739 -0.825429 -2.299495
  H 4.117083 1.266617 1.259586
  H 4.048745 -0.262253 2.112041
  H 1.759143 0.338016 2.939819
  H 1.836190 1.859540 2.046829
  H 3.768783 1.036970 4.267915
  H 2.432114 2.167349 4.444925
  H 3.792757 2.575812 3.403191
  H 2.673997 -1.515253 -1.157197
  H 5.407907 -0.884619 0.077851
  H 4.488917 -1.705435 -3.852515
  H 4.681811 0.023473 -3.854022
  H 7.068710 -0.926313 -1.527189
 23
 20.340136
  H 1.938787 0.170654 0.141347
  C 2.912842 -0.245011 0.403705
  C 3.504748 0.406144 1.588597
  C 2.459512 1.143118 2.430122
  C 3.106882 1.812888 3.635860
  C 3.378163 -1.284756 -0.339166
  C 4.750623 -1.136084 -0.697270
  C 5.155161 -0.855594 -1.979620
  C 4.235818 -0.615173 -3.118158
  H 3.200563 -0.515533 -2.819451
  O 6.428185 -0.774080 -2.313541
  H 4.261979 1.137767 1.289460
  H 4.011740 -0.337415 2.206426
  H 1.707776 0.433193 2.775775
  H 1.957222 1.899300 1.825675
  H 3.627219 1.083878 4.252699
  H 2.350709 2.296026 4.251593
  H 3.821461 2.571992 3.323617
  H 2.722457 -1.704777 -1.077271
  H 5.479771 -1.123628 0.092813
  H 4.337109 -1.436514 -3.829707
  H 4.554391 0.280285 -3.649304
  H 7.052117 -0.934717 -1.601904
 23
 32.869950
  H 2.122927 0.222243 0.026171
  C 3.038460 -0.282525 0.349583
  C 3.583208 0.330017 1.583119
  C 2.520123 1.163396 2.309710
  C 3.100714 1.793601 3.570510
  C 3.351568 -1.434565 -0.312926
  C 4.720558 -1.099608 -0.640115
  C 5.097857 -0.762905 -1.920642
  C 4.148077 -0.543705 -3.036398
  H 3.118390 -0.504090 -2.705595
  O 6.366005 -0.634263 -2.259188
  H 4.423465 0.994691 1.363258
  H 3.950781 -0.454970 2.247497
  H 1.676978 0.527859 2.583847
  H 2.151250 1.952558 1.652930
  H 3.469463 1.029621 4.251314
  H 2.338598 2.367844 4.091004
  H 3.922026 2.463699 3.327813
  H 2.692736 -1.959346 -0.982473
  H 5.460929 -1.154206 0.146595
  H 4.266043 -1.344389 -3.767405
  H 4.408807 0.377533 -3.554905
  H 7.005627 -0.774676 -1.537827
 23
 41.294344
  H 2.297113 0.251955 -0.120239
  C 3.122662 -0.343674 0.281941
  C 3.655953 0.247721 1.552105
  C 2.619839 1.175544 2.199105
  C 3.169051 1.776630 3.488331
  C 3.273060 -1.603670 -0.275711
  C 4.593972 -1.070333 -0.565959
  C 4.994646 -0.665323 -1.842011
  C 4.060378 -0.433917 -2.964306
  H 3.024277 -0.435902 -2.648577
  O 6.262060 -0.498242 -2.140310
  H 4.556747 0.836739 1.375338
  H 3.909766 -0.552065 2.250709
  H 1.710313 0.615423 2.424845
  H 2.360678 1.981944 1.511339
  H 3.433598 0.996036 4.198454
  H 2.423973 2.416590 3.954499
  H 4.054555 2.376870 3.290904
  H 2.625299 -2.139957 -0.941753
  H 5.340466 -1.131221 0.215737
  H 4.209023 -1.205266 -3.721217
  H 4.304766 0.510590 -3.447637
  H 6.891781 -0.651299 -1.411069
 23
 36.778459
  H 2.638595 0.386215 -0.292018
  C 3.322896 -0.288979 0.220522
  C 3.720196 0.235300 1.589256
  C 2.680280 1.224254 2.123558
  C 3.087947 1.749707 3.495142
  C 3.321812 -1.645279 -0.195516
  C 4.589668 -0.973170 -0.523851
  C 4.943667 -0.622051 -1.854034
  C 3.950911 -0.411628 -2.921947
  H 2.931249 -0.390649 -2.553206
  O 6.178126 -0.494730 -2.216311
  H 4.683769 0.747940 1.541969
  H 3.812587 -0.598670 2.289124
  H 1.709070 0.732129 2.202605
  H 2.579049 2.065254 1.434514
  H 3.191838 0.933199 4.207257
  H 2.336895 2.436052 3.876623
  H 4.034659 2.280219 3.440910
  H 2.686121 -2.219834 -0.833406
  H 5.399665 -1.078664 0.189670
  H 4.049954 -1.212324 -3.660430
  H 4.182886 0.510449 -3.458278
  H 6.857932 -0.638288 -1.527453
 23
 36.578230
  H 2.865619 0.462687 -0.365746
  C 3.418639 -0.289344 0.199116
  C 3.736482 0.194514 1.601517
  C 2.682749 1.185945 2.098032
  C 3.086689 1.776670 3.443840
  C 3.258452 -1.649117 -0.189541
  C 4.586216 -1.069655 -0.526069
  C 4.925607 -0.615222 -1.829693
  C 3.921232 -0.375104 -2.876557
  H 2.902912 -0.409686 -2.509560
  O 6.143799 -0.374466 -2.172660
  H 4.709436 0.688279 1.617713
  H 3.782043 -0.659366 2.279694
  H 1.721725 0.679796 2.203057
  H 2.561348 1.994813 1.374766
  H 3.203152 0.993016 4.188724
  H 2.326221 2.468017 3.797528
  H 4.026244 2.317824 3.364882
  H 2.592348 -2.233000 -0.782978
  H 5.408794 -1.319481 0.136652
  H 4.044313 -1.147969 -3.640168
  H 4.121940 0.567727 -3.382666
  H 6.843240 -0.591825 -1.523072
 23
 34.518926
  H 3.023152 0.820495 -0.472225
  C 3.494786 0.044680 0.129462
  C 3.863951 0.554726 1.505758
  C 2.620326 1.104462 2.209725
  C 2.959867 1.575345 3.617739
  C 3.199096 -1.315685 -0.167281
  C 4.578949 -0.902008 -0.531696
  C 4.956355 -0.777489 -1.901117
  C 3.985197 -0.509028 -2.971608
  H 3.023962 -0.179848 -2.598330
  O 6.175334 -0.940045 -2.288078
  H 4.605062 1.350254 1.418563
  H 4.284739 -0.251144 2.106605
  H 1.857481 0.327190 2.262071
  H 2.210932 1.940040 1.641243
  H 3.347887 0.755536 4.216989
  H 2.072722 1.963921 4.110168
  H 3.706821 2.365094 3.591616
  H 2.448383 -1.834590 -0.719821
  H 5.369460 -1.160543 0.165552
  H 3.842791 -1.424602 -3.551003
  H 4.399721 0.216054 -3.670658
  H 6.842228 -1.127762 -1.596864
