 22
 0.000000
  C 0.972917 0.139542 0.438525
  C 2.444422 0.131218 0.395904
  C 3.214036 0.606987 1.556233
  H 2.574809 0.933272 2.368232
  C 3.049470 -0.338121 -0.766640
  C 4.431425 -0.420801 -0.973748
  C 5.083560 -0.870891 -2.097407
  C 4.606264 -1.381722 -3.389334
  C 3.125466 -1.500342 -3.707448
  H 3.011828 -1.896521 -4.712499
  H 6.165907 -0.863087 -2.058106
  H 0.582459 0.522644 1.375337
  H 0.591993 -0.870439 0.274839
  H 0.576937 0.735160 -0.385991
  H 3.866372 1.432049 1.265483
  H 3.875506 -0.180549 1.920906
  H 2.386594 -0.658591 -1.552441
  H 5.069859 -0.096455 -0.162585
  H 5.080604 -2.364405 -3.519743
  H 5.088497 -0.759502 -4.156220
  H 2.636232 -0.530037 -3.676595
  H 2.628600 -2.184357 -3.024095
 22
 0.434619
  C 0.987248 -0.034660 0.529603
  C 2.440575 0.140248 0.391060
  C 3.209124 0.744516 1.489559
  H 2.574289 1.000607 2.331379
  C 3.034899 -0.314240 -0.783645
  C 4.416994 -0.426397 -0.982120
  C 5.063616 -0.990546 -2.056562
  C 4.591409 -1.480840 -3.356241
  C 3.153636 -1.272639 -3.802082
  H 3.059376 -1.571529 -4.840741
  H 6.133873 -1.106286 -1.940798
  H 0.587855 0.447002 1.416484
  H 0.775648 -1.106819 0.585777
  H 0.460377 0.320827 -0.356288
  H 3.715209 1.648530 1.141836
  H 3.997739 0.071689 1.832226
  H 2.372213 -0.662405 -1.554606
  H 5.053434 -0.105449 -0.170949
  H 4.832928 -2.552957 -3.393315
  H 5.268029 -1.048945 -4.106295
  H 2.866579 -0.227669 -3.727771
  H 2.463599 -1.884908 -3.227936
 22
 3.195243
  C 1.056082 -0.210533 0.557624
  C 2.456841 0.196813 0.371525
  C 3.183462 0.842616 1.474468
  H 2.570883 0.934632 2.359039
  C 3.056307 -0.142795 -0.838600
  C 4.425981 -0.382280 -0.998551
  C 5.010012 -1.106166 -2.009717
  C 4.520476 -1.572212 -3.313491
  C 3.171787 -1.119820 -3.853483
  H 3.078263 -1.445366 -4.883961
  H 6.035979 -1.402333 -1.830671
  H 0.604364 0.213297 1.451917
  H 1.066969 -1.301510 0.654262
  H 0.446481 0.008178 -0.316046
  H 3.508411 1.841105 1.164557
  H 4.098898 0.299482 1.725936
  H 2.393385 -0.389972 -1.654630
  H 5.064420 -0.130947 -0.171985
  H 4.562223 -2.668968 -3.303545
  H 5.304368 -1.296571 -4.035114
  H 3.083075 -0.036269 -3.834387
  H 2.345594 -1.566892 -3.302245
 22
 7.914752
  C 1.165939 -0.370833 0.517842
  C 2.492677 0.245380 0.354232
  C 3.157711 0.888081 1.493890
  H 2.564301 0.823000 2.400284
  C 3.106643 0.040326 -0.880511
  C 4.454211 -0.317642 -1.016647
  C 4.937194 -1.174480 -1.970654
  C 4.417879 -1.624370 -3.270583
  C 3.151087 -1.024706 -3.859315
  H 3.036586 -1.378498 -4.881634
  H 5.910353 -1.602544 -1.756190
  H 0.676617 -0.093911 1.445518
  H 1.361335 -1.449716 0.525177
  H 0.511632 -0.182498 -0.331073
  H 3.329689 1.941363 1.259672
  H 4.147025 0.468891 1.675270
  H 2.454752 -0.101222 -1.728226
  H 5.103158 -0.121173 -0.173565
  H 4.325049 -2.717220 -3.232594
  H 5.244509 -1.458586 -3.975630
  H 3.202786 0.060757 -3.885625
  H 2.265648 -1.340238 -3.313424
 22
 14.054412
  C 1.299330 -0.519435 0.443536
  C 2.534048 0.276886 0.337702
  C 3.127009 0.912409 1.518231
  H 2.539861 0.740162 2.413875
  C 3.166730 0.196973 -0.906289
  C 4.491644 -0.255074 -1.032028
  C 4.861997 -1.213894 -1.932860
  C 4.303318 -1.656935 -3.222160
  C 3.103522 -0.954564 -3.839356
  H 2.954617 -1.334878 -4.846931
  H 5.789532 -1.727033 -1.704924
  H 0.774183 -0.379319 1.381744
  H 1.662118 -1.552706 0.376755
  H 0.628605 -0.369209 -0.399433
  H 3.197151 1.988304 1.341887
  H 4.154275 0.585183 1.682504
  H 2.526995 0.131078 -1.771857
  H 5.149581 -0.092507 -0.189088
  H 4.103924 -2.733522 -3.152479
  H 5.145236 -1.584970 -3.924019
  H 3.266189 0.118566 -3.910432
  H 2.190243 -1.157705 -3.285526
 22
 19.792354
  C 1.409176 -0.617677 0.374230
  C 2.571004 0.288982 0.325169
  C 3.097171 0.926021 1.532959
  H 2.520813 0.672869 2.417293
  C 3.228342 0.293846 -0.915201
  C 4.527812 -0.241403 -1.032206
  C 4.816704 -1.243590 -1.911000
  C 4.241767 -1.653944 -3.207416
  C 3.024876 -0.945901 -3.786565
  H 2.816829 -1.357504 -4.772756
  H 5.704253 -1.817924 -1.678287
  H 0.873531 -0.582789 1.316258
  H 1.872819 -1.603625 0.244282
  H 0.727182 -0.480930 -0.463478
  H 3.082183 2.008584 1.393867
  H 4.146164 0.679152 1.693256
  H 2.609183 0.326352 -1.797347
  H 5.186419 -0.117942 -0.182845
  H 4.053597 -2.734409 -3.169037
  H 5.072895 -1.544343 -3.917795
  H 3.205980 0.120035 -3.905670
  H 2.137765 -1.110902 -3.179817
 22
 28.021238
  C 1.574547 -0.774021 0.332631
  C 2.585034 0.294113 0.313049
  C 3.088656 0.909989 1.540007
  H 2.569957 0.553793 2.424375
  C 3.200245 0.412921 -0.940425
  C 4.502719 -0.107914 -1.082380
  C 4.690222 -1.218664 -1.839601
  C 4.095893 -1.703323 -3.106011
  C 3.044386 -0.876375 -3.831293
  H 2.810799 -1.358841 -4.776927
  H 5.566658 -1.801244 -1.577037
  H 1.138270 -0.937577 1.312290
  H 2.158975 -1.656581 0.013150
  H 0.796763 -0.645563 -0.419056
  H 2.968208 1.993975 1.466643
  H 4.162933 0.757804 1.652864
  H 2.559426 0.445930 -1.810385
  H 5.178935 0.044954 -0.250200
  H 3.715848 -2.718427 -2.947514
  H 4.958157 -1.824896 -3.775877
  H 3.410104 0.123937 -4.048113
  H 2.116529 -0.819512 -3.269115
 22
 37.074112
  C 1.698325 -0.798531 0.136903
  C 2.629655 0.338051 0.260435
  C 3.071036 0.851218 1.555382
  H 2.571333 0.364632 2.385885
  C 3.287195 0.587444 -0.964741
  C 4.564156 -0.036667 -1.092827
  C 4.612715 -1.231600 -1.744704
  C 4.013219 -1.726591 -3.010100
  C 2.918208 -0.927571 -3.701270
  H 2.649485 -1.429859 -4.628776
  H 5.464931 -1.844544 -1.465740
  H 1.172971 -1.048151 1.047525
  H 2.406490 -1.596457 -0.157119
  H 1.019293 -0.724973 -0.709265
  H 2.863988 1.922163 1.597989
  H 4.153965 0.771683 1.666346
  H 2.667530 0.623076 -1.847913
  H 5.302048 0.164734 -0.326597
  H 3.668304 -2.755040 -2.858430
  H 4.865887 -1.800256 -3.695216
  H 3.260507 0.070965 -3.954658
  H 2.015779 -0.870614 -3.098937
 22
 45.768162
  C 1.887929 -0.949596 0.170287
  C 2.644943 0.309528 0.261917
  C 2.953575 0.960958 1.524992
  H 2.506036 0.454512 2.372986
  C 3.346311 0.568396 -0.950409
  C 4.589310 -0.132157 -1.065522
  C 4.549387 -1.311689 -1.729976
  C 3.907136 -1.747084 -3.003031
  C 2.924254 -0.827287 -3.716616
  H 2.582770 -1.319681 -4.626963
  H 5.394259 -1.960276 -1.512500
  H 1.497450 -1.302252 1.115283
  H 2.680382 -1.634456 -0.240269
  H 1.132007 -0.983455 -0.609173
  H 2.581607 1.990701 1.490218
  H 4.031361 1.060064 1.664042
  H 2.748958 0.696020 -1.842899
  H 5.308755 -0.007941 -0.266165
  H 3.423856 -2.715575 -2.831193
  H 4.740342 -1.944553 -3.676128
  H 3.399479 0.106560 -4.006671
  H 2.040789 -0.626018 -3.114912
 22
 59.262342
  C 1.965401 -0.923564 0.013389
  C 2.670620 0.322262 0.237259
  C 3.014495 0.855939 1.544992
  H 2.533418 0.306796 2.348619
  C 3.309708 0.705661 -0.985857
  C 4.558568 0.017007 -1.147021
  C 4.431581 -1.262541 -1.608893
  C 3.805747 -1.806632 -2.857971
  C 2.872211 -0.906138 -3.653383
  H 2.664087 -1.377289 -4.614179
  H 5.248428 -1.909317 -1.296961
  H 1.511555 -1.390435 0.872668
  H 2.882596 -1.514886 -0.405980
  H 1.369146 -1.010641 -0.894029
  H 2.709763 1.902424 1.600117
  H 4.096317 0.862023 1.685262
  H 2.681556 0.862873 -1.851895
  H 5.326276 0.218287 -0.411681
  H 3.321674 -2.764031 -2.644122
  H 4.659515 -2.037295 -3.504210
  H 3.339116 0.055411 -3.855086
  H 1.915065 -0.760153 -3.159610
 22
 74.003208
  C 2.030744 -0.910817 0.019755
  C 2.633157 0.309958 0.234653
  C 2.940308 0.912013 1.538814
  H 2.494570 0.349754 2.353124
  C 3.342984 0.691381 -0.981127
  C 4.549483 -0.041045 -1.101861
  C 4.376818 -1.356987 -1.555806
  C 3.763814 -1.836913 -2.863701
  C 2.843269 -0.885822 -3.612012
  H 2.573688 -1.336061 -4.565698
  H 5.204677 -2.004953 -1.281864
  H 1.637361 -1.432564 0.878301
  H 3.276244 -1.555349 -0.651263
  H 1.503102 -1.127582 -0.899146
  H 2.553192 1.930988 1.567651
  H 4.019607 0.992981 1.675950
  H 2.729264 0.853400 -1.859498
  H 5.333920 0.146503 -0.379371
  H 3.251514 -2.785155 -2.689496
  H 4.613180 -2.058236 -3.516878
  H 3.343853 0.054304 -3.826458
  H 1.913304 -0.702547 -3.077919
 22
 59.610969
  C 1.853973 -0.794774 0.168227
  C 2.568752 0.321784 0.317418
  C 2.956152 0.976671 1.591580
  H 2.405904 0.553393 2.425005
  C 3.265435 0.599937 -0.943829
  C 4.459234 -0.099132 -1.072766
  C 4.400745 -1.471224 -1.590396
  C 3.854292 -1.863660 -2.975562
  C 2.868776 -0.926964 -3.648953
  H 2.643872 -1.310745 -4.642282
  H 5.302676 -2.038978 -1.378751
  H 1.437484 -1.269713 1.041370
  H 3.596903 -1.761142 -0.837316
  H 1.402886 -1.090548 -0.763752
  H 2.724351 2.041034 1.523682
  H 4.019511 0.896043 1.775489
  H 2.617350 0.715840 -1.804921
  H 5.266757 0.117116 -0.384351
  H 3.418559 -2.860225 -2.893909
  H 4.727053 -1.950434 -3.631752
  H 3.291825 0.065691 -3.775060
  H 1.922438 -0.870339 -3.112646
 22
 46.193852
  C 1.554903 -0.575159 0.296061
  C 2.482644 0.399751 0.353847
  C 3.030139 1.003896 1.594916
  H 2.572629 0.557334 2.473026
  C 3.190893 0.453755 -0.916706
  C 4.397396 -0.218055 -1.014702
  C 4.463974 -1.555193 -1.635006
  C 4.019590 -1.842676 -3.079185
  C 2.896070 -1.016413 -3.675509
  H 2.738362 -1.333440 -4.704821
  H 5.426180 -2.026527 -1.465123
  H 1.068909 -0.934919 1.187021
  H 3.728462 -2.006723 -0.928150
  H 1.156636 -0.936421 -0.635494
  H 2.808132 2.068729 1.585591
  H 4.108853 0.899433 1.658079
  H 2.577693 0.600028 -1.797676
  H 5.162109 -0.017719 -0.275469
  H 3.750875 -2.900199 -3.126491
  H 4.906251 -1.703557 -3.705551
  H 3.149668 0.038452 -3.701191
  H 1.955842 -1.171185 -3.149110
 22
 37.589396
  C 1.401149 -0.484475 0.467454
  C 2.449596 0.368529 0.413870
  C 3.078633 1.020865 1.588933
  H 2.543304 0.771213 2.500512
  C 3.086462 0.294175 -0.884595
  C 4.322475 -0.305071 -0.996740
  C 4.511768 -1.590027 -1.690525
  C 4.125472 -1.819350 -3.162903
  C 2.977340 -1.014055 -3.744868
  H 2.863623 -1.277787 -4.794194
  H 5.519511 -1.968446 -1.530526
  H 0.929116 -0.746652 1.398125
  H 3.832488 -2.181821 -1.046408
  H 0.959364 -0.893337 -0.422963
  H 3.043000 2.100864 1.443544
  H 4.122883 0.746283 1.704237
  H 2.421512 0.318082 -1.737211
  H 5.100895 -0.030838 -0.292784
  H 3.911291 -2.880813 -3.281535
  H 5.022641 -1.602032 -3.750479
  H 3.175384 0.053675 -3.701574
  H 2.033947 -1.248438 -3.255622
 22
 34.631493
  C 1.388956 -0.463655 0.707963
  C 2.442960 0.368068 0.501113
  C 3.119548 1.146133 1.567993
  H 2.645757 0.974206 2.534641
  C 3.018858 0.159915 -0.829214
  C 4.261515 -0.424261 -0.961085
  C 4.342676 -1.716542 -1.716815
  C 4.226585 -1.729765 -3.251616
  C 3.065245 -0.985935 -3.890482
  H 3.085691 -1.160043 -4.964784
  H 5.261547 -2.222877 -1.454706
  H 0.980483 -0.617786 1.694033
  H 3.494143 -2.256175 -1.258161
  H 0.935719 -1.010627 -0.095489
  H 3.050108 2.204312 1.323420
  H 4.173843 0.905704 1.647012
  H 2.300031 0.005749 -1.618358
  H 5.052030 -0.192117 -0.262516
  H 4.182048 -2.778102 -3.546802
  H 5.160330 -1.308049 -3.635672
  H 3.141183 0.087358 -3.737052
  H 2.102595 -1.354967 -3.529674
