15

H      0.742191    0.567838    0.183723
C     -0.662176   -0.050491    0.270614
C     -1.651790    0.957520   -0.396045
C     -3.034696    0.751420    0.018669
O     -4.419934    2.912614   -1.220189
C     -0.661659   -1.440158   -0.367186
H     -2.011420   -2.146510   -0.448330
H     -0.935073   -0.148232    1.325152
H     -1.346359    1.952275   -0.059280
H     -1.543024    0.917666   -1.480851
H     -3.273074    0.931435    1.055841
H     -3.638072   -0.018834   -0.424224
H     -3.908575    3.676881   -0.904613
H     -0.010558   -2.069567    0.240691
H     -0.244387   -1.385999   -1.374675
