 20
 0.000000
  H 1.423806 0.163008 0.461629
  C 2.503812 0.139874 0.401879
  C 3.245823 0.613514 1.574795
  H 2.572792 0.931497 2.365448
  C 3.055808 -0.333335 -0.774336
  C 4.435007 -0.419115 -0.989478
  C 5.125724 -0.870609 -2.117214
  C 4.620216 -1.389542 -3.413526
  C 3.131112 -1.500444 -3.691712
  H 3.001651 -1.902056 -4.695203
  O 6.438289 -0.862586 -2.097917
  H 3.900428 1.446037 1.310351
  H 3.902358 -0.168215 1.961136
  H 2.374351 -0.644179 -1.546437
  H 5.060552 -0.089387 -0.167761
  H 5.085741 -2.373742 -3.542542
  H 5.086347 -0.766846 -4.186125
  H 2.643972 -0.530101 -3.663361
  H 2.643449 -2.183046 -3.001784
  H 6.839787 -0.531885 -1.269630
 20
 1.715798
  H 1.411296 0.312656 0.414906
  C 2.492782 0.218436 0.381782
  C 3.232741 0.507616 1.610165
  H 2.565688 0.767733 2.432817
  C 3.053151 -0.177843 -0.824588
  C 4.424287 -0.344800 -1.014857
  C 5.117105 -0.836704 -2.117689
  C 4.621099 -1.442829 -3.378306
  C 3.132932 -1.545620 -3.656709
  H 2.994232 -2.031323 -4.625934
  O 6.434992 -0.867901 -2.058137
  H 3.930084 1.332113 1.448468
  H 3.844763 -0.347893 1.904622
  H 2.384753 -0.345337 -1.644449
  H 5.072673 -0.100911 -0.177554
  H 5.067910 -2.441881 -3.429791
  H 5.106876 -0.886658 -4.190961
  H 2.671636 -0.566535 -3.714799
  H 2.629243 -2.150709 -2.911005
  H 6.844613 -0.229944 -1.454923
 20
 5.207397
  H 1.437562 0.510365 0.317239
  C 2.497860 0.302612 0.324969
  C 3.186203 0.379626 1.615998
  H 2.497866 0.607153 2.421982
  C 3.081011 -0.024903 -0.880993
  C 4.443440 -0.300702 -1.022224
  C 5.136098 -0.790907 -2.127840
  C 4.621696 -1.460614 -3.344904
  C 3.127524 -1.614566 -3.572155
  H 2.973037 -2.202165 -4.474058
  O 6.460604 -0.852440 -2.053672
  H 3.962230 1.147402 1.589872
  H 3.703793 -0.554276 1.839956
  H 2.446861 -0.034738 -1.751299
  H 5.063138 -0.178521 -0.141834
  H 5.098523 -2.449748 -3.358736
  H 5.073417 -0.939174 -4.197698
  H 2.645137 -0.653173 -3.725173
  H 2.649606 -2.138829 -2.748300
  H 6.894662 -0.032765 -1.756828
 20
 10.037321
  H 1.420331 0.500816 0.329620
  C 2.481217 0.292418 0.342698
  C 3.166223 0.383383 1.632874
  H 2.476403 0.613035 2.437791
  C 3.066716 -0.049633 -0.857950
  C 4.433732 -0.315717 -0.994450
  C 5.133199 -0.798465 -2.094284
  C 4.634659 -1.455583 -3.319037
  C 3.145403 -1.581764 -3.584057
  H 3.001181 -2.166751 -4.488988
  O 6.470500 -0.870579 -1.968828
  H 3.938943 1.155378 1.600056
  H 3.694270 -0.543929 1.862923
  H 2.432675 -0.080997 -1.726984
  H 5.058170 -0.157630 -0.123365
  H 5.092694 -2.454834 -3.316124
  H 5.117948 -0.955353 -4.167524
  H 2.686519 -0.610846 -3.747607
  H 2.637243 -2.095782 -2.772545
  H 6.950175 -0.037879 -2.099195
 20
 10.001095
  H 1.388369 0.407194 0.371234
  C 2.458131 0.248707 0.375233
  C 3.160989 0.448682 1.642661
  H 2.476361 0.692166 2.448056
  C 3.037435 -0.143516 -0.814110
  C 4.411993 -0.355220 -0.960414
  C 5.125292 -0.828944 -2.056822
  C 4.654475 -1.430793 -3.322367
  C 3.171507 -1.515946 -3.639219
  H 3.046318 -2.053427 -4.576000
  O 6.457078 -0.864121 -1.880041
  H 3.893985 1.253794 1.545992
  H 3.741554 -0.434934 1.914401
  H 2.389124 -0.263399 -1.664342
  H 5.050180 -0.082350 -0.127728
  H 5.084985 -2.442257 -3.330958
  H 5.168598 -0.921958 -4.147458
  H 2.735441 -0.529229 -3.769438
  H 2.629709 -2.060291 -2.870986
  H 6.983598 -0.216209 -2.373064
 20
 5.408297
  H 1.366918 0.423490 0.376516
  C 2.436129 0.260739 0.373158
  C 3.130894 0.318154 1.662087
  H 2.440875 0.470342 2.484939
  C 3.030848 -0.020275 -0.844438
  C 4.412226 -0.224333 -0.992569
  C 5.137951 -0.752866 -2.061415
  C 4.681884 -1.461839 -3.281551
  C 3.194065 -1.550043 -3.583784
  H 3.053145 -2.154746 -4.476158
  O 6.447062 -0.717302 -1.847528
  H 3.860103 1.132057 1.655311
  H 3.713114 -0.586680 1.840076
  H 2.395609 -0.055759 -1.713655
  H 5.075485 0.150885 -0.219062
  H 5.087420 -2.478344 -3.188626
  H 5.192058 -1.030029 -4.149927
  H 2.771983 -0.569336 -3.784819
  H 2.650757 -2.022354 -2.770640
  H 7.010013 -0.534036 -2.621401
 20
 12.490344
  H 1.387014 0.590198 0.290788
  C 2.440723 0.350269 0.275911
  C 3.095884 0.067506 1.555841
  H 2.391311 0.075651 2.380567
  C 3.063055 0.292542 -0.943201
  C 4.420857 -0.026713 -1.095275
  C 5.137516 -0.658520 -2.103030
  C 4.678040 -1.551143 -3.186283
  C 3.172190 -1.629451 -3.391564
  H 2.950953 -2.339312 -4.183568
  O 6.447806 -0.570089 -1.859387
  H 3.872062 0.814209 1.740616
  H 3.615519 -0.890562 1.535869
  H 2.490626 0.535867 -1.825884
  H 5.202571 0.350237 -0.435251
  H 5.079266 -2.545849 -2.959209
  H 5.150467 -1.242348 -4.125353
  H 2.767614 -0.665904 -3.684671
  H 2.669458 -1.961373 -2.487080
  H 7.023802 -0.325039 -2.602940
 20
 26.625603
  H 1.415389 0.759863 0.326835
  C 2.445844 0.441674 0.263615
  C 3.084282 -0.066290 1.480675
  H 2.383617 -0.126927 2.306846
  C 3.058573 0.504298 -0.955465
  C 4.375807 0.079544 -1.176958
  C 5.094168 -0.612203 -2.130036
  C 4.689077 -1.604253 -3.141793
  C 3.177448 -1.715354 -3.304051
  H 2.941550 -2.471816 -4.047191
  O 6.406304 -0.450133 -1.837254
  H 3.910213 0.589480 1.764121
  H 3.528510 -1.047484 1.314073
  H 2.531574 0.963028 -1.781440
  H 5.310838 0.359633 -0.612556
  H 5.113341 -2.570948 -2.852337
  H 5.138583 -1.329933 -4.101935
  H 2.752018 -0.773111 -3.633956
  H 2.706627 -2.003701 -2.368015
  H 6.986533 -0.076684 -2.521124
 20
 47.536915
  H 1.440837 0.882896 0.472429
  C 2.443379 0.503861 0.338387
  C 3.118883 -0.086580 1.499373
  H 2.459087 -0.145351 2.359006
  C 2.993666 0.572304 -0.915628
  C 4.254143 0.078011 -1.233511
  C 5.003025 -0.610092 -2.128218
  C 4.710758 -1.631949 -3.151966
  C 3.213019 -1.789751 -3.393174
  H 3.036214 -2.557051 -4.141121
  O 6.315079 -0.376579 -1.757240
  H 3.991455 0.509925 1.771606
  H 3.494358 -1.082386 1.263063
  H 2.449122 1.091185 -1.696059
  H 5.404179 0.351896 -0.751330
  H 5.143014 -2.583399 -2.829189
  H 5.205200 -1.345304 -4.085006
  H 2.779608 -0.859786 -3.749534
  H 2.703397 -2.080884 -2.478891
  H 6.917477 0.019437 -2.415580
 20
 60.125952
  H 1.464370 0.958372 0.537832
  C 2.439732 0.533075 0.358097
  C 3.120484 -0.138803 1.480036
  H 2.482013 -0.198366 2.354998
  C 2.960262 0.624284 -0.906018
  C 4.168778 0.088354 -1.287708
  C 4.930234 -0.585326 -2.122460
  C 4.706645 -1.643534 -3.134445
  C 3.223512 -1.851443 -3.418926
  H 3.094043 -2.638256 -4.156565
  O 6.282099 -0.304660 -1.704330
  H 4.028638 0.399456 1.753585
  H 3.433429 -1.142700 1.190916
  H 2.429349 1.216502 -1.643795
  H 5.602605 0.331971 -0.838580
  H 5.157801 -2.574688 -2.780991
  H 5.220049 -1.361691 -4.057839
  H 2.774521 -0.941696 -3.808056
  H 2.693696 -2.139484 -2.515384
  H 6.873865 0.100561 -2.375328
 20
 52.053717
  H 1.480563 1.027964 0.568683
  C 2.430327 0.562444 0.358716
  C 3.084270 -0.201147 1.441187
  H 2.449671 -0.266886 2.318559
  C 2.949149 0.687266 -0.905778
  C 4.116423 0.125577 -1.323674
  C 4.888946 -0.542658 -2.119073
  C 4.706195 -1.638100 -3.099835
  C 3.231102 -1.896784 -3.383066
  H 3.127634 -2.710931 -4.094466
  O 6.290488 -0.233675 -1.709449
  H 4.022137 0.272771 1.732700
  H 3.336122 -1.205956 1.101603
  H 2.445983 1.344046 -1.606862
  H 5.838465 0.324428 -0.942781
  H 5.180107 -2.544481 -2.714037
  H 5.215284 -1.370461 -4.029151
  H 2.758282 -1.013258 -3.803517
  H 2.704481 -2.168816 -2.472153
  H 6.858403 0.177500 -2.400761
 20
 44.269008
  H 1.458152 1.023110 0.588342
  C 2.407565 0.558205 0.375021
  C 3.078095 -0.188321 1.463613
  H 2.452016 -0.241125 2.348620
  C 2.913763 0.666175 -0.896803
  C 4.071518 0.104487 -1.327329
  C 4.884248 -0.546387 -2.092340
  C 4.711253 -1.641420 -3.085790
  C 3.240656 -1.892338 -3.396264
  H 3.146030 -2.701860 -4.114423
  O 6.316821 -0.296931 -1.714348
  H 4.017025 0.292997 1.738882
  H 3.324722 -1.199779 1.139104
  H 2.394458 1.304941 -1.603373
  H 6.064943 0.258380 -0.929497
  H 5.173412 -2.552186 -2.696355
  H 5.234540 -1.370084 -4.005560
  H 2.778461 -1.004488 -3.819261
  H 2.696727 -2.167445 -2.496538
  H 6.861562 0.124493 -2.419561
 20
 38.892193
  H 1.475364 1.084038 0.594854
  C 2.394898 0.578264 0.346891
  C 2.991973 -0.323511 1.358382
  H 2.344130 -0.427514 2.223342
  C 2.936627 0.781124 -0.902871
  C 4.066516 0.204706 -1.367447
  C 4.898558 -0.453329 -2.097411
  C 4.710800 -1.606297 -3.028833
  C 3.237127 -1.917756 -3.255717
  H 3.135855 -2.764590 -3.928565
  O 6.353242 -0.198899 -1.854872
  H 3.953405 0.062665 1.698220
  H 3.178698 -1.309815 0.932045
  H 2.460270 1.500982 -1.558391
  H 6.354253 0.355542 -1.043210
  H 5.216318 -2.479947 -2.611094
  H 5.180719 -1.369123 -3.985816
  H 2.726106 -1.066612 -3.697387
  H 2.743965 -2.163670 -2.318824
  H 6.813186 0.232542 -2.612825
 20
 38.634686
  H 1.457216 1.067150 0.553227
  C 2.385001 0.569879 0.319655
  C 2.973517 -0.326776 1.341254
  H 2.330545 -0.404227 2.212521
  C 2.945540 0.781731 -0.920407
  C 4.090175 0.223617 -1.373376
  C 4.923006 -0.440707 -2.097358
  C 4.703042 -1.600079 -3.021610
  C 3.224134 -1.909982 -3.210300
  H 3.104177 -2.751052 -3.887420
  O 6.385455 -0.207262 -1.926402
  H 3.946208 0.044650 1.665267
  H 3.133689 -1.324325 0.930098
  H 2.467443 1.494636 -1.582742
  H 6.524324 0.141342 -1.017090
  H 5.218926 -2.473000 -2.615574
  H 5.149715 -1.365197 -3.989726
  H 2.701002 -1.055223 -3.630679
  H 2.756522 -2.163929 -2.262631
  H 6.752373 0.417550 -2.596234
 20
 36.774481
  H 1.611654 1.264452 0.673660
  C 2.436979 0.656617 0.342499
  C 2.889131 -0.447194 1.219307
  H 2.155359 -0.659944 1.991406
  C 3.010802 0.940852 -0.879272
  C 4.042218 0.272852 -1.432044
  C 4.904655 -0.425051 -2.080884
  C 4.712461 -1.618650 -2.964085
  C 3.240363 -1.989596 -3.104705
  H 3.135414 -2.860017 -3.747201
  O 6.366835 -0.127437 -1.962547
  H 3.826275 -0.183107 1.714748
  H 3.078746 -1.350574 0.640600
  H 2.616038 1.772309 -1.452793
  H 6.567198 0.382309 -1.144834
  H 5.267578 -2.456468 -2.534599
  H 5.127008 -1.410553 -3.952890
  H 2.675746 -1.169577 -3.542443
  H 2.803822 -2.223894 -2.137049
  H 6.703727 0.351468 -2.756403
