 23
 0.000000
  C 0.993551 0.115792 0.338479
  C 2.468792 0.128950 0.372828
  C 3.220402 0.606368 1.560484
  C 2.402664 1.085881 2.752930
  H 3.076357 1.403866 3.545002
  C 3.133795 -0.328699 -0.765311
  C 4.516239 -0.393425 -0.928292
  C 5.173337 -0.849944 -2.067840
  C 4.520917 -1.342911 -3.297259
  H 3.443473 -1.320891 -3.242845
  O 6.483813 -0.871637 -2.123667
  H 0.540679 0.482891 1.250583
  H 0.636826 -0.897665 0.147497
  H 0.637684 0.715278 -0.501036
  H 3.881097 1.420115 1.241908
  H 3.880826 -0.201569 1.893928
  H 1.774906 0.292223 3.151373
  H 1.775657 1.935032 2.491277
  H 2.509677 -0.657553 -1.583513
  H 5.143412 -0.065327 -0.111087
  H 4.858903 -2.359016 -3.496513
  H 4.859222 -0.746239 -4.143347
  H 6.932382 -0.549003 -1.319580
 23
 -0.102301
  C 1.007987 0.163039 0.302468
  C 2.481372 0.140379 0.362100
  C 3.222613 0.596356 1.563150
  C 2.396215 1.095976 2.740800
  H 3.062038 1.394026 3.546720
  C 3.152651 -0.328332 -0.762332
  C 4.537065 -0.412398 -0.907592
  C 5.185413 -0.883546 -2.046299
  C 4.505919 -1.377075 -3.264290
  H 3.510080 -1.752752 -3.066070
  O 6.490924 -0.837617 -2.153394
  H 0.548001 0.531041 1.210610
  H 0.630749 -0.839225 0.093260
  H 0.681730 0.780844 -0.535814
  H 3.910356 1.392589 1.258387
  H 3.853906 -0.229925 1.907924
  H 1.739831 0.318584 3.123691
  H 1.799777 1.963609 2.469783
  H 2.535906 -0.624786 -1.598005
  H 5.154981 -0.111187 -0.073164
  H 5.114083 -2.153173 -3.724147
  H 4.440713 -0.564299 -3.989506
  H 6.969349 -0.561694 -1.348837
 23
 3.086716
  C 1.018701 0.158818 0.284698
  C 2.489854 0.129957 0.359481
  C 3.216301 0.603430 1.567465
  C 2.380431 1.132476 2.724506
  H 3.028718 1.438442 3.532848
  C 3.177401 -0.348341 -0.758944
  C 4.566249 -0.423051 -0.893707
  C 5.201416 -0.923457 -2.015668
  C 4.486892 -1.370308 -3.236138
  H 3.648764 -2.007928 -3.000567
  O 6.487619 -0.764047 -2.198048
  H 0.546592 0.491567 1.198053
  H 0.645507 -0.831492 0.026129
  H 0.703469 0.817666 -0.530690
  H 3.917561 1.393264 1.260783
  H 3.830096 -0.225098 1.935392
  H 1.704377 0.354434 3.103535
  H 1.805394 2.003403 2.439273
  H 2.575784 -0.626852 -1.597898
  H 5.167526 -0.153573 -0.026610
  H 5.173541 -1.876943 -3.902368
  H 4.117385 -0.488687 -3.780713
  H 7.062051 -0.758427 -1.395771
 23
 10.906276
  C 1.020193 0.164691 0.270572
  C 2.497259 0.202793 0.334905
  C 3.211582 0.589027 1.571903
  C 2.362055 1.077471 2.735456
  H 3.010935 1.346397 3.564851
  C 3.187968 -0.182386 -0.807560
  C 4.577813 -0.266024 -0.931218
  C 5.208839 -0.911667 -1.989426
  C 4.478850 -1.467969 -3.149269
  H 3.608208 -2.037785 -2.841826
  O 6.481306 -0.627575 -2.253564
  H 0.544082 0.297369 1.237464
  H 0.690281 -0.779272 -0.169574
  H 0.661639 0.947128 -0.404467
  H 3.940213 1.365551 1.322378
  H 3.794037 -0.277759 1.909493
  H 1.684923 0.302840 3.082813
  H 1.787165 1.958957 2.470217
  H 2.592320 -0.407110 -1.682296
  H 5.152620 0.012446 -0.055642
  H 5.155357 -2.096126 -3.728080
  H 4.144938 -0.660927 -3.803404
  H 7.147178 -0.842874 -1.574039
 23
 23.790119
  C 1.020383 0.192777 0.272534
  C 2.489841 0.212488 0.342585
  C 3.204963 0.598521 1.582674
  C 2.344286 1.061924 2.756476
  H 2.993352 1.392794 3.564692
  C 3.177341 -0.227920 -0.778593
  C 4.583645 -0.261191 -0.917553
  C 5.186661 -0.976925 -1.943179
  C 4.508339 -1.464912 -3.171960
  H 3.664612 -2.121036 -2.952577
  O 6.437790 -0.559483 -2.232943
  H 0.544328 0.462570 1.207371
  H 0.668806 -0.788733 -0.039113
  H 0.692898 0.886180 -0.502327
  H 3.907751 1.400758 1.335681
  H 3.790465 -0.262400 1.908914
  H 1.730175 0.241714 3.151110
  H 1.699148 1.890817 2.481962
  H 2.584993 -0.482176 -1.652884
  H 5.064098 -0.026333 0.017406
  H 5.224257 -2.002594 -3.792667
  H 4.150934 -0.605720 -3.746604
  H 7.156260 -0.955379 -1.717430
 23
 57.500329
  C 1.005095 0.220150 0.317483
  C 2.473038 0.201225 0.369464
  C 3.202246 0.607895 1.597216
  C 2.373305 1.043054 2.796869
  H 3.038876 1.357024 3.595734
  C 3.125891 -0.152817 -0.791518
  C 4.571057 -0.224089 -0.950077
  C 4.995480 -1.080448 -1.940248
  C 4.624088 -1.578473 -3.267059
  H 3.790941 -2.275311 -3.262279
  O 6.278883 -0.494049 -2.198459
  H 0.561361 0.459803 1.273439
  H 0.601368 -0.738343 -0.006542
  H 0.688973 0.968494 -0.411791
  H 3.865677 1.435619 1.329268
  H 3.861692 -0.199928 1.924801
  H 1.743468 0.240517 3.177323
  H 1.751389 1.896511 2.547795
  H 2.523689 -0.374271 -1.660191
  H 4.882988 0.001192 0.053399
  H 5.494431 -2.043004 -3.715413
  H 4.342607 -0.712132 -3.872107
  H 7.009991 -0.954008 -1.737174
 23
 98.822647
  C 0.973789 0.321701 0.354448
  C 2.467134 0.317360 0.344562
  C 3.237320 0.592685 1.597167
  C 2.414375 0.930158 2.842689
  H 3.092652 1.111562 3.675110
  C 3.055963 -0.027038 -0.832484
  C 4.572322 -0.142751 -1.023152
  C 4.794078 -1.046494 -2.011013
  C 4.734638 -1.752788 -3.282469
  H 3.945449 -2.494859 -3.296842
  O 6.104177 -0.250890 -2.248867
  H 0.576145 0.395623 1.357301
  H 0.581517 -0.584446 -0.102153
  H 0.617624 1.173933 -0.226284
  H 3.929887 1.423867 1.424616
  H 3.810133 -0.305486 1.833700
  H 1.743831 0.116586 3.123143
  H 1.836506 1.841860 2.697396
  H 2.474985 -0.179825 -1.730497
  H 4.726197 0.132825 0.000747
  H 5.689056 -2.250996 -3.457205
  H 4.575543 -1.035702 -4.084056
  H 6.850562 -0.686544 -1.796947
 23
 123.693835
  C 0.949594 0.309058 0.354539
  C 2.455422 0.283304 0.320069
  C 3.251397 0.529891 1.571961
  C 2.459955 0.900131 2.825772
  H 3.151023 1.036705 3.652115
  C 2.993649 0.004156 -0.862318
  C 4.652020 -0.126363 -1.061817
  C 4.687025 -0.966718 -2.068997
  C 4.713079 -1.728234 -3.295340
  H 3.825661 -2.366992 -3.365339
  O 6.148388 -0.180824 -2.113629
  H 0.586202 0.526212 1.349199
  H 0.543605 -0.649309 0.036534
  H 0.578058 1.076755 -0.326659
  H 3.933757 1.360026 1.377846
  H 3.836264 -0.366199 1.797635
  H 1.764444 0.114609 3.110915
  H 1.916125 1.829501 2.691323
  H 2.456448 -0.125793 -1.772809
  H 4.707036 0.167654 -0.039718
  H 5.592166 -2.378355 -3.301146
  H 4.758883 -1.061788 -4.158872
  H 6.839045 -0.589350 -1.563781
 23
 139.375619
  C 0.935608 0.295580 0.297794
  C 2.452982 0.233187 0.244276
  C 3.264020 0.501517 1.486966
  C 2.487700 0.853943 2.751527
  H 3.192903 1.035967 3.559761
  C 2.951441 -0.050481 -0.928903
  C 4.994202 -0.058199 -1.095900
  C 4.753290 -0.907658 -2.013163
  C 4.486966 -1.663442 -3.167874
  H 3.471941 -2.062832 -3.112654
  O 6.458917 -0.043415 -1.840583
  H 0.600626 0.502826 1.305658
  H 0.508374 -0.648855 -0.027465
  H 0.570963 1.080613 -0.359585
  H 3.941409 1.333600 1.276739
  H 3.859128 -0.389839 1.702307
  H 1.833496 0.042634 3.061537
  H 1.899826 1.759646 2.620625
  H 2.472015 -0.236316 -1.862728
  H 5.124247 0.265732 -0.092231
  H 5.167009 -2.516022 -3.214470
  H 4.595096 -1.061617 -4.071271
  H 7.117822 -0.467404 -1.267152
 23
 116.460266
  C 1.098062 0.237315 0.097614
  C 2.611041 0.220331 0.107442
  C 3.347565 0.471720 1.392451
  C 2.501849 0.756577 2.635147
  H 3.167027 0.921916 3.481465
  C 3.145790 -0.041214 -1.102387
  C 5.196953 0.034319 -1.053012
  C 4.679598 -0.835206 -1.882720
  C 4.061998 -1.634266 -2.927879
  H 3.005065 -1.803775 -2.755937
  O 6.605007 0.095683 -1.532657
  H 0.711049 0.417989 1.094582
  H 0.702224 -0.708461 -0.263359
  H 0.741892 1.021012 -0.566380
  H 4.005303 1.330616 1.246040
  H 3.963707 -0.409029 1.602546
  H 1.861492 -0.084278 2.889390
  H 1.900401 1.654504 2.514648
  H 2.609962 -0.143184 -2.025180
  H 5.241011 0.293770 -0.017854
  H 4.547336 -2.614755 -2.943134
  H 4.201930 -1.176202 -3.912264
  H 7.206521 -0.229425 -0.837641
 23
 84.389187
  C 1.199358 0.364072 -0.034037
  C 2.681621 0.235146 0.016421
  C 3.386115 0.336988 1.328615
  C 2.520930 0.547048 2.568623
  H 3.170516 0.615150 3.440648
  C 3.246542 -0.049035 -1.202256
  C 5.270488 0.138906 -1.119393
  C 4.565709 -0.839677 -1.723464
  C 3.846270 -1.733270 -2.667366
  H 2.774214 -1.727349 -2.560253
  O 6.580548 0.286048 -1.512496
  H 0.770922 0.552340 0.942579
  H 0.747074 -0.538771 -0.438066
  H 0.926612 1.179107 -0.704190
  H 4.087655 1.172962 1.292556
  H 3.967215 -0.582299 1.475822
  H 1.845497 -0.287938 2.734981
  H 1.951231 1.471387 2.510641
  H 2.597847 -0.015825 -2.060817
  H 5.120937 0.534215 -0.136505
  H 4.186879 -2.756587 -2.493714
  H 4.127027 -1.503592 -3.702176
  H 7.210228 0.198068 -0.779271
 23
 40.441741
  C 1.080214 0.297165 0.149495
  C 2.551652 0.087347 0.122154
  C 3.344824 0.332583 1.351614
  C 2.573936 0.720820 2.614677
  H 3.278317 0.845950 3.437971
  C 3.045209 -0.295957 -1.112598
  C 5.269601 -0.002491 -1.153919
  C 4.324784 -0.875296 -1.602370
  C 4.062916 -1.588169 -2.877875
  H 3.038416 -1.516316 -3.207888
  O 6.518165 0.097072 -1.595091
  H 0.716753 0.612258 1.119633
  H 0.563223 -0.621964 -0.123147
  H 0.796677 1.042306 -0.597033
  H 4.073605 1.125160 1.167325
  H 3.907433 -0.582300 1.571806
  H 1.849311 -0.046901 2.899398
  H 2.054530 1.668248 2.488832
  H 2.283681 -0.321347 -1.881975
  H 5.114134 0.484633 -0.205778
  H 4.294384 -2.648391 -2.740425
  H 4.746422 -1.247336 -3.655676
  H 7.234764 0.027518 -0.944757
 23
 14.163146
  C 0.974614 0.320138 0.205882
  C 2.435565 0.107841 0.124946
  C 3.297460 0.377373 1.305786
  C 2.598725 0.725142 2.617393
  H 3.352607 0.895788 3.385427
  C 2.894978 -0.364357 -1.092924
  C 5.301750 -0.041913 -1.159235
  C 4.184113 -0.750520 -1.556791
  C 4.213104 -1.569648 -2.804035
  H 3.390037 -1.332045 -3.462413
  O 6.463479 -0.142559 -1.754331
  H 0.639840 0.625793 1.186220
  H 0.450506 -0.591745 -0.072769
  H 0.669521 1.071849 -0.522920
  H 3.973242 1.202853 1.066220
  H 3.921723 -0.506404 1.476325
  H 1.961312 -0.086319 2.957838
  H 2.007052 1.634736 2.531148
  H 2.100951 -0.556141 -1.804679
  H 5.255733 0.570105 -0.270451
  H 4.131059 -2.628145 -2.542883
  H 5.158488 -1.445019 -3.326473
  H 7.238646 0.067163 -1.200000
 23
 8.769802
  C 0.939172 0.136573 0.292302
  C 2.409867 0.054538 0.155567
  C 3.291713 0.477226 1.271680
  C 2.617167 0.928737 2.563136
  H 3.382472 1.199207 3.286651
  C 2.865024 -0.438968 -1.057329
  C 5.341799 -0.270678 -1.027235
  C 4.143822 -0.684324 -1.597662
  C 4.209251 -1.321755 -2.946809
  H 3.317745 -1.118468 -3.530812
  O 6.479270 -0.469821 -1.640763
  H 0.617095 0.503172 1.258035
  H 0.493981 -0.843883 0.119678
  H 0.532373 0.786131 -0.484338
  H 3.914971 1.303768 0.915207
  H 3.960910 -0.355600 1.510303
  H 2.017318 0.134526 2.999842
  H 1.991411 1.803175 2.405011
  H 2.068754 -0.715874 -1.738591
  H 5.361633 0.189926 -0.050689
  H 4.298964 -2.403023 -2.835365
  H 5.088329 -0.983784 -3.489167
  H 7.271466 -0.326837 -1.091374
 23
 7.882837
  C 0.927684 0.136694 0.304597
  C 2.394997 0.053189 0.160210
  C 3.286564 0.485262 1.264408
  C 2.623659 0.978903 2.546488
  H 3.394647 1.251472 3.262535
  C 2.846649 -0.447469 -1.052358
  C 5.343092 -0.405221 -0.969226
  C 4.126055 -0.671517 -1.592390
  C 4.216582 -1.241428 -2.971087
  H 3.242618 -1.355859 -3.429318
  O 6.456606 -0.646450 -1.606922
  H 0.610821 0.517806 1.266901
  H 0.482536 -0.847512 0.148313
  H 0.515061 0.773052 -0.480058
  H 3.926881 1.288620 0.883997
  H 3.938010 -0.355199 1.521078
  H 2.009641 0.206497 3.002271
  H 2.013821 1.860637 2.368758
  H 2.050320 -0.724900 -1.731806
  H 5.392870 -0.001832 0.029794
  H 4.708068 -2.213690 -2.936093
  H 4.839327 -0.605346 -3.601258
  H 7.267998 -0.451744 -1.101553
