 26
 0.000000
  H 1.426973 0.158713 0.448857
  C 2.505700 0.145445 0.414379
  C 3.255341 0.617218 1.586026
  C 2.392625 1.085193 2.750915
  H 3.017036 1.416123 3.572892
  C 3.078678 -0.323286 -0.752159
  C 4.454729 -0.412811 -0.976679
  C 5.129687 -0.867447 -2.110659
  C 4.615766 -1.386468 -3.404794
  C 3.123449 -1.499848 -3.688303
  C 2.906094 -2.062446 -5.091071
  O 6.443863 -0.864491 -2.104206
  H 3.916285 1.437235 1.280658
  H 3.917360 -0.185030 1.933226
  H 1.754400 0.279020 3.106250
  H 1.753469 1.912288 2.449427
  H 2.401613 -0.635411 -1.528005
  H 5.093490 -0.086290 -0.164169
  H 5.075297 -2.373625 -3.535777
  H 5.075829 -0.763788 -4.181634
  H 2.650314 -0.518980 -3.635023
  H 2.649972 -2.171889 -2.972100
  H 3.348529 -1.414598 -5.844024
  H 1.843454 -2.147270 -5.303073
  H 3.348351 -3.051167 -5.187633
  H 6.844254 -0.533329 -1.277263
 26
 14.754269
  H 1.443472 0.204300 0.563183
  C 2.524399 0.166672 0.467407
  C 3.298999 0.637966 1.636832
  C 2.427800 1.103012 2.795320
  H 3.044669 1.437743 3.626188
  C 3.043580 -0.315786 -0.733323
  C 4.482520 -0.432504 -1.025575
  C 5.034992 -0.887694 -2.161220
  C 4.615817 -1.413926 -3.473531
  C 3.133299 -1.533911 -3.773251
  C 2.930402 -2.096227 -5.175459
  O 6.317926 -0.796054 -1.933520
  H 3.963066 1.455063 1.330284
  H 3.964856 -0.162484 1.981028
  H 1.790541 0.296662 3.149716
  H 1.788901 1.929181 2.493220
  H 2.346397 -0.623938 -1.499453
  H 5.105445 -0.105287 -0.209633
  H 5.093656 -2.389251 -3.587722
  H 5.094019 -0.788201 -4.230088
  H 2.657828 -0.554587 -3.720453
  H 2.657574 -2.205381 -3.058439
  H 3.377347 -1.446459 -5.924399
  H 1.870394 -2.184837 -5.396676
  H 3.377268 -3.083393 -5.267910
  H 6.617148 -0.454446 -1.079119
 26
 54.033667
  H 1.456893 0.208861 0.573936
  C 2.535099 0.164282 0.460180
  C 3.327980 0.631691 1.620916
  C 2.473706 1.099421 2.787967
  H 3.103016 1.431101 3.611859
  C 3.017591 -0.307410 -0.714511
  C 4.519691 -0.437525 -1.039674
  C 4.959027 -0.893101 -2.175626
  C 4.615122 -1.416004 -3.479296
  C 3.128927 -1.545065 -3.802276
  C 2.945121 -2.110662 -5.209935
  O 6.203705 -0.743839 -1.804597
  H 3.989066 1.447897 1.309280
  H 3.991101 -0.171751 1.959892
  H 1.837493 0.295683 3.149940
  H 1.835579 1.928968 2.493961
  H 2.332866 -0.610663 -1.469048
  H 5.060197 -0.098422 -0.194514
  H 5.112503 -2.393816 -3.573949
  H 5.113464 -0.776047 -4.223617
  H 2.647835 -0.564959 -3.749416
  H 2.647092 -2.215986 -3.086258
  H 3.398215 -1.459165 -5.954354
  H 1.887776 -2.204553 -5.444074
  H 3.397857 -3.096029 -5.296397
  H 6.466088 -0.407229 -0.958781
 26
 100.997637
  H 1.456599 0.173860 0.689849
  C 2.523856 0.203073 0.491223
  C 3.349022 0.712135 1.632948
  C 2.516077 1.086531 2.845721
  H 3.158774 1.433178 3.657583
  C 2.913519 -0.235113 -0.681969
  C 4.567836 -0.430610 -1.052597
  C 4.873882 -0.918232 -2.200472
  C 4.610867 -1.450779 -3.526704
  C 3.133424 -1.565438 -3.884153
  C 2.976494 -2.145043 -5.283048
  O 6.158176 -0.722559 -1.722082
  H 3.934125 1.578373 1.325189
  H 4.050354 -0.074023 1.920979
  H 1.944849 0.231918 3.205026
  H 1.819949 1.887899 2.602576
  H 2.267886 -0.536770 -1.490794
  H 4.959087 -0.102020 -0.107992
  H 5.092230 -2.437888 -3.580401
  H 5.136751 -0.820312 -4.256806
  H 2.669522 -0.581673 -3.853726
  H 2.627491 -2.215752 -3.173116
  H 3.457289 -1.509679 -6.023838
  H 1.923683 -2.226599 -5.541491
  H 3.416592 -3.137851 -5.345074
  H 6.485062 -0.446119 -0.867527
 26
 127.914921
  H 1.395040 0.276395 0.710197
  C 2.470073 0.220164 0.505933
  C 3.332169 0.668968 1.648269
  C 2.527154 1.093904 2.862548
  H 3.190388 1.383689 3.671645
  C 2.799933 -0.228805 -0.660958
  C 4.678428 -0.413503 -1.085146
  C 4.870814 -0.907608 -2.240737
  C 4.626908 -1.450214 -3.548611
  C 3.137174 -1.581846 -3.895772
  C 2.975852 -2.169640 -5.294078
  O 6.209370 -0.655721 -1.706597
  H 3.982924 1.483557 1.338727
  H 3.964795 -0.165507 1.944949
  H 1.901551 0.280579 3.214810
  H 1.889288 1.942042 2.628585
  H 2.218197 -0.550889 -1.494014
  H 4.968853 -0.043187 -0.117416
  H 5.118263 -2.423737 -3.610231
  H 5.135828 -0.826006 -4.284600
  H 2.661776 -0.600025 -3.865164
  H 2.643966 -2.234669 -3.174023
  H 3.443603 -1.531926 -6.040543
  H 1.923161 -2.262571 -5.543554
  H 3.425019 -3.157623 -5.356068
  H 6.574923 -0.417817 -0.842942
 26
 143.032055
  H 1.315189 0.275397 0.781045
  C 2.381794 0.200540 0.539625
  C 3.280470 0.654118 1.652674
  C 2.509398 1.117725 2.877719
  H 3.194740 1.420416 3.664191
  C 2.689901 -0.258082 -0.626930
  C 4.839715 -0.410578 -1.120075
  C 4.915431 -0.909796 -2.282476
  C 4.657867 -1.454707 -3.579801
  C 3.164956 -1.571901 -3.896875
  C 2.963804 -2.159866 -5.288270
  O 6.317221 -0.660188 -1.737372
  H 3.929563 1.462671 1.309131
  H 3.927493 -0.178679 1.948442
  H 1.884707 0.318721 3.264930
  H 1.871209 1.964357 2.639515
  H 2.129832 -0.609180 -1.465758
  H 5.016331 -0.015666 -0.148676
  H 5.133128 -2.438955 -3.647893
  H 5.161017 -0.838904 -4.332205
  H 2.696236 -0.586972 -3.850895
  H 2.672815 -2.203198 -3.155097
  H 3.422178 -1.528214 -6.048103
  H 1.900919 -2.237974 -5.511321
  H 3.397440 -3.156450 -5.359663
  H 6.732939 -0.503026 -0.870518
 26
 148.262788
  H 1.210209 0.362746 0.832961
  C 2.266028 0.235794 0.566444
  C 3.213131 0.628515 1.665432
  C 2.491131 1.119758 2.920662
  H 3.207998 1.376548 3.698153
  C 2.554768 -0.212763 -0.611184
  C 4.992622 -0.395799 -1.174815
  C 4.990857 -0.908848 -2.335567
  C 4.694670 -1.462908 -3.614482
  C 3.187312 -1.565617 -3.887274
  C 2.961644 -2.178094 -5.264307
  O 6.430919 -0.644037 -1.816742
  H 3.897695 1.409347 1.312668
  H 3.822059 -0.241917 1.939520
  H 1.831321 0.346060 3.313078
  H 1.889839 2.002534 2.704589
  H 1.975247 -0.540306 -1.453070
  H 5.135868 -0.042645 -0.176837
  H 5.159478 -2.450283 -3.695853
  H 5.177294 -0.858724 -4.389265
  H 2.728984 -0.580455 -3.846309
  H 2.726795 -2.207048 -3.136016
  H 3.401460 -1.559481 -6.044715
  H 1.894996 -2.262474 -5.464681
  H 3.395050 -3.174447 -5.325572
  H 6.886198 -0.537076 -0.960353
 26
 139.956489
  H 1.149815 0.354740 0.871931
  C 2.197086 0.209413 0.579443
  C 3.171130 0.625554 1.659195
  C 2.461221 1.153516 2.900995
  H 3.186956 1.443111 3.659430
  C 2.481404 -0.272187 -0.588869
  C 5.164128 -0.388322 -1.208629
  C 5.029707 -0.925742 -2.348293
  C 4.749060 -1.471012 -3.631657
  C 3.219223 -1.571547 -3.837328
  C 2.942032 -2.150727 -5.224770
  O 6.567601 -0.596897 -1.866772
  H 3.825976 1.412517 1.274688
  H 3.780974 -0.235546 1.946163
  H 1.812426 0.391901 3.329436
  H 1.858376 2.027696 2.660814
  H 1.919277 -0.636677 -1.416886
  H 4.966076 -0.009703 -0.235542
  H 5.205951 -2.468931 -3.710082
  H 5.182329 -0.835339 -4.417301
  H 2.763343 -0.578952 -3.761091
  H 2.789188 -2.220909 -3.067878
  H 3.348141 -1.513617 -6.014066
  H 1.864240 -2.214573 -5.370097
  H 3.367716 -3.151568 -5.326574
  H 7.115517 -0.770960 -1.071641
 26
 126.332774
  H 1.124499 0.493581 0.928278
  C 2.163899 0.303660 0.633654
  C 3.150375 0.633895 1.728074
  C 2.460174 1.148911 2.983301
  H 3.191947 1.377987 3.752912
  C 2.433900 -0.133143 -0.552603
  C 5.130422 -0.315784 -1.248827
  C 5.090383 -0.897060 -2.391531
  C 4.792992 -1.450878 -3.675252
  C 3.278037 -1.650536 -3.855957
  C 2.987832 -2.217556 -5.241661
  O 6.477984 -0.467197 -1.854521
  H 3.844600 1.399229 1.373387
  H 3.718554 -0.263507 1.982101
  H 1.772548 0.406200 3.379971
  H 1.900141 2.055897 2.771388
  H 1.873311 -0.421281 -1.411052
  H 4.834209 0.044240 -0.295034
  H 5.306353 -2.408809 -3.796351
  H 5.174857 -0.774632 -4.445789
  H 2.769501 -0.693906 -3.740926
  H 2.903605 -2.335258 -3.094983
  H 3.340202 -1.545351 -6.020004
  H 1.918114 -2.353472 -5.374183
  H 3.467415 -3.183558 -5.376974
  H 7.013040 -1.146432 -1.372799
