 20
 0.000000
  C 0.965413 0.190335 0.524656
  C 2.410667 0.106456 0.318559
  H 3.061673 0.429079 1.121735
  C 2.971875 -0.363062 -0.849416
  C 4.358517 -0.427150 -1.009947
  C 5.108331 -0.864455 -2.102905
  C 4.667540 -1.391458 -3.418434
  C 3.191819 -1.525689 -3.751502
  H 3.105241 -1.928884 -4.758730
  O 6.415931 -0.832679 -2.026271
  H 0.709521 0.583665 1.502502
  H 0.507318 -0.793249 0.396534
  H 0.508643 0.812263 -0.248871
  H 2.310949 -0.679873 -1.638412
  H 4.938541 -0.085324 -0.158285
  H 5.153869 -2.367646 -3.528025
  H 5.152888 -0.760262 -4.171709
  H 2.690566 -0.562246 -3.740215
  H 2.691531 -2.215835 -3.078325
  H 6.778379 -0.496188 -1.184338
 20
 9.302405
  C 0.915166 0.201518 0.552496
  C 2.358850 0.108677 0.324050
  H 3.023993 0.426814 1.116421
  C 2.888532 -0.358673 -0.838792
  C 4.431567 -0.435178 -1.029992
  C 5.158990 -0.872877 -2.124009
  C 4.696353 -1.397920 -3.434583
  C 3.215068 -1.521818 -3.741665
  H 3.107250 -1.923955 -4.746118
  O 6.472908 -0.847229 -2.062650
  H 0.677448 0.596205 1.534079
  H 0.448904 -0.779015 0.431620
  H 0.450239 0.826444 -0.213550
  H 2.226365 -0.673270 -1.622466
  H 5.009462 -0.094966 -0.182191
  H 5.174719 -2.377482 -3.552015
  H 5.173696 -0.769684 -4.195911
  H 2.721577 -0.554708 -3.721028
  H 2.722635 -2.208119 -3.059169
  H 6.846866 -0.512688 -1.225467
 20
 28.901690
  C 0.859099 0.216473 0.589762
  C 2.303856 0.112924 0.334526
  H 2.984864 0.426698 1.116420
  C 2.802464 -0.357286 -0.835729
  C 4.502466 -0.444458 -1.053131
  C 5.211402 -0.883745 -2.151230
  C 4.730281 -1.405627 -3.453853
  C 3.244275 -1.518179 -3.732443
  H 3.112767 -1.919632 -4.734992
  O 6.525277 -0.863733 -2.103913
  H 0.643605 0.612751 1.575753
  H 0.383397 -0.760386 0.478407
  H 0.384715 0.845535 -0.166688
  H 2.145948 -0.673113 -1.622684
  H 5.068223 -0.102423 -0.200582
  H 5.200519 -2.388200 -3.579052
  H 5.199465 -0.780628 -4.222922
  H 2.759818 -0.546816 -3.700882
  H 2.760914 -2.199979 -3.039004
  H 6.908807 -0.530924 -1.270949
 20
 50.093325
  C 0.829474 0.233082 0.630947
  C 2.268100 0.107610 0.321644
  H 2.975361 0.411823 1.080082
  C 2.698916 -0.364365 -0.853126
  C 4.557793 -0.456790 -1.083752
  C 5.244683 -0.889291 -2.165102
  C 4.759350 -1.409538 -3.463625
  C 3.271157 -1.515438 -3.725456
  H 3.121459 -1.915540 -4.724467
  O 6.553084 -0.868868 -2.117165
  H 0.656677 0.632193 1.624323
  H 0.337186 -0.735661 0.531333
  H 0.338698 0.864619 -0.111356
  H 2.078164 -0.686639 -1.656261
  H 5.067831 -0.106049 -0.209518
  H 5.227086 -2.392441 -3.595629
  H 5.226074 -0.789178 -4.237956
  H 2.795013 -0.540590 -3.682801
  H 2.796081 -2.191822 -3.021476
  H 6.933118 -0.536296 -1.285012
 20
 70.632071
  C 0.775116 0.249151 0.669942
  C 2.211877 0.103410 0.312448
  H 2.940545 0.399524 1.052502
  C 2.591184 -0.368436 -0.862587
  C 4.609405 -0.464924 -1.102814
  C 5.302829 -0.902277 -2.197592
  C 4.797630 -1.417886 -3.484998
  C 3.301218 -1.507005 -3.703331
  H 3.115138 -1.905350 -4.698225
  O 6.624833 -0.885467 -2.160219
  H 0.650624 0.650081 1.668484
  H 0.267059 -0.712862 0.595823
  H 0.269826 0.894589 -0.049196
  H 2.004073 -0.700318 -1.691257
  H 5.074324 -0.103189 -0.200245
  H 5.255281 -2.405647 -3.626927
  H 5.253675 -0.800279 -4.269764
  H 2.839264 -0.525593 -3.644325
  H 2.841117 -2.177638 -2.983072
  H 7.011438 -0.553136 -1.329337
 20
 89.207973
  C 0.722406 0.273055 0.729252
  C 2.149205 0.110255 0.329596
  H 2.898602 0.399150 1.052002
  C 2.484831 -0.363611 -0.850566
  C 4.658919 -0.473997 -1.124846
  C 5.348485 -0.911268 -2.219947
  C 4.836637 -1.428362 -3.511144
  C 3.340737 -1.514652 -3.722018
  H 3.147130 -1.912027 -4.714547
  O 6.671655 -0.894871 -2.184232
  H 0.637990 0.675692 1.732250
  H 0.202198 -0.683393 0.675124
  H 0.205188 0.928476 0.028368
  H 1.913091 -0.696099 -1.681115
  H 5.100597 -0.111600 -0.220162
  H 5.292376 -2.415915 -3.655966
  H 5.290547 -0.812724 -4.297762
  H 2.882994 -0.532429 -3.658922
  H 2.885043 -2.183126 -2.998347
  H 7.058795 -0.562294 -1.353177
 20
 103.814585
  C 0.675670 0.299073 0.793886
  C 2.092348 0.105325 0.315991
  H 2.867362 0.383826 1.013015
  C 2.360426 -0.363819 -0.854200
  C 4.690890 -0.488219 -1.157788
  C 5.386087 -0.916400 -2.231822
  C 4.875462 -1.437070 -3.532779
  C 3.377353 -1.521109 -3.736226
  H 3.175200 -1.917440 -4.727123
  O 6.722773 -0.895875 -2.189036
  H 0.668324 0.702443 1.799315
  H 0.141441 -0.647110 0.777252
  H 0.144120 0.972986 0.127315
  H 1.839027 -0.704798 -1.708447
  H 5.083023 -0.120790 -0.236091
  H 5.331025 -2.424643 -3.677983
  H 5.328290 -0.820424 -4.319234
  H 2.923560 -0.537870 -3.667825
  H 2.926280 -2.187705 -3.008436
  H 7.105909 -0.562048 -1.356040
 20
 111.286667
  C 0.639261 0.322634 0.849150
  C 2.038305 0.096768 0.306706
  H 2.835226 0.370956 0.985110
  C 2.257355 -0.373880 -0.847193
  C 4.744128 -0.496535 -1.186363
  C 5.404249 -0.919231 -2.242609
  C 4.911914 -1.444151 -3.550538
  C 3.409213 -1.519350 -3.744752
  H 3.200016 -1.917016 -4.734337
  O 6.747937 -0.902527 -2.197122
  H 0.695402 0.727258 1.852275
  H 0.092789 -0.615856 0.858935
  H 0.101441 1.009780 0.202607
  H 1.779388 -0.733146 -1.723685
  H 5.075984 -0.110785 -0.247514
  H 5.361067 -2.432523 -3.684317
  H 5.364304 -0.824878 -4.330471
  H 2.963221 -0.530952 -3.677533
  H 2.959360 -2.184095 -3.012458
  H 7.122887 -0.570235 -1.367199
 20
 114.656549
  C 0.602658 0.338345 0.884966
  C 1.977484 0.095156 0.294314
  H 2.792784 0.360503 0.960727
  C 2.162749 -0.374200 -0.870983
  C 4.811315 -0.506481 -1.199563
  C 5.450875 -0.927494 -2.257444
  C 4.938520 -1.449588 -3.567594
  C 3.428998 -1.511820 -3.709083
  H 3.178798 -1.901846 -4.692235
  O 6.806513 -0.909392 -2.225777
  H 0.704839 0.739588 1.886681
  H 0.048539 -0.597820 0.911828
  H 0.056482 1.038431 0.255839
  H 1.741071 -0.739619 -1.781143
  H 5.063329 -0.120949 -0.239439
  H 5.376617 -2.440144 -3.708533
  H 5.370782 -0.822758 -4.350529
  H 2.996116 -0.518515 -3.618796
  H 3.004536 -2.178293 -2.962763
  H 7.182966 -0.578439 -1.402316
 20
 117.695839
  C 0.554930 0.360840 0.943495
  C 1.909678 0.103715 0.301458
  H 2.743499 0.357158 0.946840
  C 2.055458 -0.357511 -0.863595
  C 4.860082 -0.518419 -1.217920
  C 5.493162 -0.938041 -2.277168
  C 4.976255 -1.456049 -3.582763
  C 3.464873 -1.518406 -3.710343
  H 3.204596 -1.905087 -4.692084
  O 6.849539 -0.916538 -2.257607
  H 0.699607 0.757021 1.941172
  H -0.004947 -0.568650 0.988125
  H -0.002089 1.069239 0.337504
  H 1.661341 -0.716856 -1.779083
  H 5.075100 -0.140177 -0.247564
  H 5.414292 -2.445635 -3.727976
  H 5.401841 -0.825111 -4.365675
  H 3.034781 -0.525349 -3.612684
  H 3.049092 -2.187762 -2.961611
  H 7.233076 -0.583042 -1.429554
 20
 119.716282
  C 0.508533 0.379056 0.991587
  C 1.840187 0.110289 0.308140
  H 2.689598 0.354981 0.935737
  C 1.955224 -0.347558 -0.860935
  C 4.917694 -0.527172 -1.230590
  C 5.544742 -0.946838 -2.293694
  C 5.008652 -1.461476 -3.594534
  C 3.494347 -1.513986 -3.690679
  H 3.209803 -1.897002 -4.666814
  O 6.903069 -0.927212 -2.291688
  H 0.688755 0.771811 1.985249
  H -0.056414 -0.546791 1.051783
  H -0.057733 1.095320 0.403077
  H 1.589291 -0.707364 -1.789481
  H 5.093461 -0.153693 -0.253818
  H 5.439263 -2.453829 -3.747368
  H 5.423519 -0.829491 -4.383175
  H 3.074770 -0.517834 -3.581715
  H 3.091436 -2.181188 -2.933911
  H 7.291034 -0.597887 -1.474221
 20
 120.972958
  C 0.463107 0.398395 1.042033
  C 1.769402 0.115762 0.315664
  H 2.636872 0.352222 0.924206
  C 1.852697 -0.339536 -0.854087
  C 4.972432 -0.535644 -1.244588
  C 5.593745 -0.954839 -2.309335
  C 5.039448 -1.466416 -3.604991
  C 3.523201 -1.509114 -3.674620
  H 3.217732 -1.889471 -4.646013
  O 6.952036 -0.939527 -2.324739
  H 0.679517 0.787936 2.029568
  H -0.107467 -0.522449 1.119387
  H -0.111712 1.122082 0.471694
  H 1.514523 -0.700404 -1.791286
  H 5.111237 -0.163254 -0.259657
  H 5.461839 -2.460139 -3.763508
  H 5.445045 -0.835333 -4.397552
  H 3.113736 -0.509409 -3.556820
  H 3.130223 -2.174222 -2.909958
  H 7.351654 -0.609033 -1.503814
 20
 121.678594
  C 0.416067 0.417333 1.091144
  C 1.696874 0.120463 0.324199
  H 2.579937 0.348720 0.912711
  C 1.751515 -0.333901 -0.846987
  C 5.029225 -0.541990 -1.254865
  C 5.645351 -0.961257 -2.322080
  C 5.068690 -1.469257 -3.610438
  C 3.550363 -1.499199 -3.648702
  H 3.220558 -1.876414 -4.612905
  O 7.005433 -0.953021 -2.357130
  H 0.666183 0.803852 2.071898
  H -0.160095 -0.498216 1.185194
  H -0.166118 1.148112 0.537938
  H 1.442151 -0.697112 -1.792595
  H 5.130180 -0.171157 -0.268580
  H 5.481040 -2.466840 -3.775439
  H 5.464551 -0.839098 -4.409572
  H 3.153245 -0.495968 -3.521378
  H 3.168788 -2.160248 -2.875480
  H 7.411588 -0.628063 -1.547995
 20
 121.972013
  C 0.368155 0.436781 1.141507
  C 1.621930 0.126891 0.338033
  H 2.521220 0.347584 0.907304
  C 1.650916 -0.326707 -0.833361
  C 5.085761 -0.547683 -1.264852
  C 5.695630 -0.967237 -2.334229
  C 5.095017 -1.471590 -3.614609
  C 3.575778 -1.489058 -3.623671
  H 3.223370 -1.863499 -4.581389
  O 7.054315 -0.967505 -2.390055
  H 0.648776 0.820485 2.115093
  H -0.213364 -0.473781 1.251426
  H -0.220965 1.174019 0.604234
  H 1.364021 -0.692200 -1.785673
  H 5.156861 -0.176280 -0.274078
  H 5.496464 -2.471740 -3.785469
  H 5.480979 -0.843613 -4.419141
  H 3.190244 -0.482075 -3.487727
  H 3.204178 -2.146530 -2.841969
  H 7.476816 -0.642149 -1.577462
