 17
 0.000000
  C 0.990543 0.133001 0.380763
  C 2.462227 0.137020 0.394225
  C 3.184970 0.614919 1.583762
  H 2.517976 0.934364 2.376826
  C 3.125904 -0.319613 -0.740129
  C 4.511736 -0.381413 -0.895641
  C 5.114680 -0.842882 -2.045601
  H 4.563789 -1.192201 -2.910983
  O 6.399009 -0.913880 -2.230467
  H 0.561702 0.505433 1.305504
  H 0.619489 -0.877038 0.198039
  H 0.621254 0.736255 -0.450498
  H 3.837560 1.447878 1.317423
  H 3.836284 -0.171367 1.968727
  H 2.515046 -0.652589 -1.568346
  H 5.144920 -0.053768 -0.082126
  H 6.935545 -0.605743 -1.471896
 17
 13.491187
  C 0.953488 0.149579 0.421514
  C 2.416123 0.162955 0.458811
  C 3.134389 0.638033 1.641774
  H 2.461652 0.955913 2.430870
  C 3.157921 -0.334049 -0.775669
  C 4.523268 -0.381928 -0.896995
  C 5.195828 -0.883985 -2.147581
  H 4.643221 -1.232249 -3.008885
  O 6.473700 -0.947247 -2.314045
  H 0.511121 0.519701 1.340495
  H 0.590593 -0.862719 0.232282
  H 0.592626 0.750166 -0.415964
  H 3.787578 1.472003 1.377967
  H 3.786108 -0.147451 2.029175
  H 2.556506 -0.667991 -1.606024
  H 5.147423 -0.053150 -0.081349
  H 7.002368 -0.636256 -1.550099
 17
 40.772070
  C 0.912340 0.156284 0.438584
  C 2.359751 0.189803 0.524597
  C 3.127396 0.648006 1.666786
  H 2.473979 0.972306 2.474844
  C 3.174632 -0.351377 -0.821226
  C 4.520403 -0.366717 -0.861945
  C 5.254507 -0.908437 -2.208152
  H 4.648598 -1.242663 -3.032954
  O 6.530403 -0.960364 -2.343425
  H 0.445581 0.523842 1.352357
  H 0.562803 -0.863494 0.236137
  H 0.564239 0.753335 -0.413237
  H 3.787001 1.476933 1.382728
  H 3.786458 -0.147432 2.034339
  H 2.536161 -0.676081 -1.628031
  H 5.175796 -0.046265 -0.067329
  H 7.052627 -0.648554 -1.579014
 17
 74.065795
  C 0.877429 0.170878 0.474309
  C 2.308194 0.216905 0.592270
  C 3.088026 0.665708 1.711207
  H 2.446622 0.993754 2.528172
  C 3.200605 -0.367796 -0.861400
  C 4.516110 -0.365221 -0.857971
  C 5.326657 -0.943017 -2.293877
  H 4.713733 -1.274631 -3.110933
  O 6.599147 -0.981915 -2.398367
  H 0.390915 0.535312 1.379817
  H 0.539865 -0.852500 0.264646
  H 0.541724 0.765617 -0.385305
  H 3.750393 1.490252 1.416016
  H 3.749546 -0.134614 2.067892
  H 2.543342 -0.686186 -1.651752
  H 5.183590 -0.048982 -0.074342
  H 7.107552 -0.666009 -1.624869
 17
 107.101731
  C 0.827874 0.186593 0.513487
  C 2.248864 0.245622 0.663167
  C 3.054845 0.684988 1.758940
  H 2.435194 1.017036 2.586656
  C 3.213717 -0.385152 -0.905756
  C 4.516598 -0.366129 -0.860801
  C 5.405724 -0.977814 -2.380389
  H 4.795002 -1.310340 -3.199476
  O 6.679760 -1.003633 -2.451704
  H 0.322931 0.545248 1.405098
  H 0.504917 -0.831574 0.298448
  H 0.506372 0.773613 -0.346295
  H 3.712105 1.497175 1.452803
  H 3.711889 -0.114136 2.098755
  H 2.540683 -0.692781 -1.669248
  H 5.191614 -0.057810 -0.096313
  H 7.174331 -0.681252 -1.662226
 17
 136.967776
  C 0.769443 0.201312 0.549502
  C 2.190043 0.274068 0.734220
  C 3.028718 0.707932 1.816429
  H 2.427412 1.046361 2.659626
  C 3.230828 -0.405944 -0.956007
  C 4.509774 -0.370141 -0.869194
  C 5.485201 -1.009828 -2.460243
  H 4.888952 -1.345076 -3.285536
  O 6.757866 -1.023261 -2.502649
  H 0.240720 0.557304 1.433811
  H 0.456768 -0.825226 0.328300
  H 0.458495 0.789868 -0.320851
  H 3.689943 1.520082 1.495459
  H 3.689080 -0.101090 2.145621
  H 2.536598 -0.704416 -1.697236
  H 5.195679 -0.068065 -0.120105
  H 7.232324 -0.697937 -1.705727
 17
 161.807263
  C 0.716316 0.217148 0.588114
  C 2.127694 0.305202 0.811795
  C 3.001454 0.727653 1.865494
  H 2.423586 1.073716 2.726596
  C 3.238878 -0.427101 -1.006520
  C 4.492231 -0.373804 -0.876392
  C 5.563612 -1.037103 -2.528905
  H 4.993952 -1.378695 -3.369576
  O 6.835531 -1.041643 -2.550784
  H 0.163652 0.569529 1.462485
  H 0.415522 -0.812588 0.363734
  H 0.417639 0.805484 -0.286990
  H 3.661947 1.535053 1.528681
  H 3.660980 -0.089270 2.180827
  H 2.518516 -0.715004 -1.721803
  H 5.194551 -0.078144 -0.142891
  H 7.292636 -0.713528 -1.746582
 17
 178.436389
  C 0.676042 0.248152 0.668055
  C 2.077056 0.327941 0.867079
  C 2.897301 0.758317 1.939837
  H 2.328321 1.108842 2.813579
  C 3.259316 -0.437203 -1.033934
  C 4.477843 -0.376829 -0.887190
  C 5.689027 -1.067127 -2.622537
  H 5.186194 -1.442908 -3.529266
  O 6.935522 -1.097116 -2.678180
  H 0.087058 0.594361 1.529705
  H 0.398081 -0.781470 0.437720
  H 0.398176 0.832054 -0.210607
  H 3.551716 1.558783 1.596707
  H 3.552130 -0.057093 2.245490
  H 2.504654 -0.717771 -1.733291
  H 5.210566 -0.090386 -0.173456
  H 7.407426 -0.768548 -1.870159
 17
 181.816330
  C 0.621032 0.273577 0.731718
  C 2.023090 0.348243 0.918261
  C 2.799961 0.789849 2.018328
  H 2.226575 1.138140 2.885363
  C 3.283698 -0.444956 -1.052618
  C 4.485812 -0.365214 -0.857530
  C 5.782668 -1.102682 -2.714166
  H 5.297245 -1.482071 -3.627445
  O 7.043819 -1.149272 -2.806798
  H 0.017119 0.613553 1.577298
  H 0.360898 -0.756605 0.477549
  H 0.361103 0.841305 -0.164555
  H 3.468698 1.579291 1.669929
  H 3.469500 -0.021260 2.313306
  H 2.496637 -0.709072 -1.711421
  H 5.265012 -0.098885 -0.193595
  H 7.525503 -0.826075 -2.012535
 17
 185.265943
  C 0.559755 0.295530 0.787885
  C 1.960565 0.375175 0.985091
  C 2.730210 0.817324 2.087044
  H 2.154665 1.163434 2.950715
  C 3.298240 -0.452814 -1.076088
  C 4.491109 -0.362880 -0.855827
  C 5.878564 -1.141189 -2.809582
  H 5.402048 -1.521065 -3.723300
  O 7.140922 -1.190312 -2.905203
  H -0.053568 0.632868 1.628942
  H 0.306299 -0.737621 0.527661
  H 0.305503 0.861787 -0.114283
  H 3.401918 1.607658 1.739311
  H 3.403105 0.006616 2.381871
  H 2.501650 -0.711509 -1.720337
  H 5.281740 -0.102255 -0.206573
  H 7.626537 -0.865847 -2.106874
 17
 187.516063
  C 0.497465 0.317303 0.843496
  C 1.893310 0.403089 1.054312
  C 2.659473 0.846090 2.158651
  H 2.081677 1.191462 3.022277
  C 3.310506 -0.459737 -1.096831
  C 4.493618 -0.359196 -0.850081
  C 5.972086 -1.177425 -2.899398
  H 5.501161 -1.559597 -3.818401
  O 7.238319 -1.229342 -2.998929
  H -0.125748 0.651071 1.677338
  H 0.252155 -0.716315 0.577858
  H 0.250467 0.880475 -0.062424
  H 3.333167 1.635831 1.811690
  H 3.335360 0.036567 2.452737
  H 2.503548 -0.713502 -1.728106
  H 5.294684 -0.104550 -0.215992
  H 7.722460 -0.906324 -2.203045
 17
 188.722012
  C 0.432146 0.340503 0.900590
  C 1.823379 0.432652 1.128117
  C 2.587248 0.874636 2.229558
  H 2.010018 1.220352 3.093046
  C 3.321097 -0.467543 -1.112932
  C 4.493360 -0.356884 -0.840051
  C 6.061107 -1.211832 -2.985496
  H 5.595273 -1.594618 -3.907129
  O 7.330041 -1.265617 -3.091119
  H -0.203884 0.671835 1.727093
  H 0.194797 -0.695150 0.629716
  H 0.193579 0.901049 -0.010996
  H 3.263518 1.663179 1.881742
  H 3.265145 0.065386 2.522629
  H 2.504223 -0.715022 -1.729338
  H 5.307611 -0.108749 -0.221704
  H 7.814995 -0.941792 -2.294579
 17
 189.151209
  C 0.363939 0.364998 0.960084
  C 1.748064 0.463209 1.204181
  C 2.512924 0.904372 2.303060
  H 1.938006 1.251505 3.168374
  C 3.326986 -0.475406 -1.126868
  C 4.488181 -0.354645 -0.827541
  C 6.148219 -1.243937 -3.066568
  H 5.687149 -1.627574 -3.992109
  O 7.420004 -1.299030 -3.178002
  H -0.284340 0.693614 1.777734
  H 0.134888 -0.671404 0.684729
  H 0.134465 0.922209 0.044058
  H 3.191826 1.690916 1.953314
  H 3.192741 0.094901 2.594194
  H 2.498600 -0.716902 -1.729611
  H 5.313762 -0.113350 -0.225483
  H 7.904739 -0.975004 -2.382766
 17
 189.072627
  C 0.289556 0.391090 1.024305
  C 1.668579 0.495460 1.284274
  C 2.435527 0.934532 2.377776
  H 1.865144 1.282853 3.245635
  C 3.328220 -0.480990 -1.138125
  C 4.478100 -0.350275 -0.812742
  C 6.232396 -1.274209 -3.142653
  H 5.775635 -1.658523 -4.071230
  O 7.506029 -1.331156 -3.259617
  H -0.371418 0.716953 1.834047
  H 0.068548 -0.646696 0.744403
  H 0.068482 0.945644 0.103658
  H 3.116336 1.718754 2.025174
  H 3.117038 0.124714 2.665393
  H 2.489557 -0.715931 -1.725495
  H 5.316352 -0.115497 -0.226075
  H 7.992053 -1.006700 -2.465025
 17
 186.686753
  C 0.306121 0.375348 0.972188
  C 1.658876 0.500948 1.290989
  C 2.483958 0.921456 2.333702
  H 1.966316 1.283604 3.230257
  C 3.304463 -0.484824 -1.099599
  C 4.416545 -0.330679 -0.689310
  C 6.193253 -1.238523 -3.056733
  H 5.701461 -1.606884 -3.981140
  O 7.468072 -1.314862 -3.262127
  H -0.395965 0.697395 1.753089
  H 0.103503 -0.664530 0.687285
  H 0.108689 0.917935 0.039184
  H 3.169406 1.688979 1.952822
  H 3.168987 0.104811 2.592168
  H 2.422102 -0.687417 -1.629716
  H 5.306246 -0.133410 -0.174356
  H 7.994101 -0.999325 -2.494999
