 29
 0.000000
  C 0.905010 0.048732 0.272087
  C 2.397119 0.059132 0.087713
  C 3.239386 -0.012339 1.354442
  C 2.525486 -0.088357 2.701541
  C 3.528099 -0.153060 3.848286
  C 2.993457 0.127312 -1.120556
  C 2.355164 0.204812 -2.494030
  C 0.844763 0.217254 -2.714439
  H 0.622485 0.276994 -3.773184
  C 4.452435 0.132137 -1.205992
  C 5.194383 0.194637 -2.313741
  O 6.554207 0.195407 -2.327314
  H 0.603708 -0.009985 1.312632
  H 0.461655 -0.817161 -0.212643
  H 0.461655 0.963659 -0.112156
  H 3.885380 0.871450 1.384513
  H 3.885382 -0.893901 1.284900
  H 1.892847 -0.977844 2.744588
  H 1.892838 0.790639 2.844379
  H 4.163174 -1.032384 3.760772
  H 3.004870 -0.206803 4.800630
  H 4.163168 0.730525 3.860245
  H 2.745123 -0.643731 -3.066940
  H 2.745121 1.112421 -2.967842
  H 0.388658 1.076511 -2.230345
  H 0.388658 -0.691011 -2.330082
  H 4.996635 0.079539 -0.273824
  H 4.818912 0.251529 -3.321943
  H 6.882645 0.144223 -1.420191
 29
 10.116373
  C 0.902893 0.051650 0.220376
  C 2.387116 0.063043 0.018403
  C 3.308066 -0.014284 1.388916
  C 2.522921 -0.096475 2.845407
  C 3.522644 -0.161039 3.989695
  C 2.980608 0.130800 -1.182367
  C 2.343814 0.208316 -2.556119
  C 0.833450 0.220726 -2.775975
  H 0.616064 0.280686 -3.838624
  C 4.439655 0.135463 -1.264929
  C 5.184929 0.197804 -2.369864
  O 6.544629 0.198284 -2.378310
  H 0.620674 -0.007452 1.267721
  H 0.453624 -0.813729 -0.259747
  H 0.453624 0.965547 -0.159347
  H 3.948895 0.867174 1.420349
  H 3.948898 -0.893682 1.320989
  H 1.891541 -0.984533 2.881035
  H 1.891534 0.781933 2.980712
  H 4.157809 -1.040394 3.902329
  H 2.998140 -0.214735 4.941199
  H 4.157806 0.722562 4.001805
  H 2.735313 -0.640175 -3.127872
  H 2.735312 1.115743 -3.028788
  H 0.375379 1.079714 -2.294489
  H 0.375380 -0.686977 -2.394179
  H 4.980954 0.082763 -0.330950
  H 4.812623 0.254761 -3.379228
  H 6.870512 0.147045 -1.470201
 29
 32.459521
  C 0.910891 0.052723 0.201358
  C 2.374724 0.067116 -0.053768
  C 3.388873 -0.015619 1.412597
  C 2.512292 -0.103241 2.965313
  C 3.504878 -0.167442 4.103126
  C 2.966801 0.134240 -1.243311
  C 2.330788 0.211753 -2.617038
  C 0.819960 0.223754 -2.829664
  H 0.607820 0.283910 -3.895778
  C 4.427205 0.138446 -1.317805
  C 5.182523 0.200393 -2.415746
  O 6.542053 0.200116 -2.410794
  H 0.681398 -0.007245 1.264060
  H 0.444789 -0.812703 -0.263314
  H 0.444790 0.964929 -0.163005
  H 4.014650 0.863474 1.448326
  H 4.014655 -0.893153 1.349204
  H 1.884480 -0.988636 2.976718
  H 1.884469 0.775248 3.076251
  H 4.140379 -1.047020 4.017279
  H 2.975625 -0.221019 5.052528
  H 4.140380 0.716217 4.116772
  H 2.723857 -0.636722 -3.187281
  H 2.723859 1.118996 -3.088210
  H 0.359801 1.082701 -2.350851
  H 0.359801 -0.683605 -2.450519
  H 4.959104 0.085425 -0.378127
  H 4.819154 0.257542 -3.428533
  H 6.860447 0.148730 -1.500051
 29
 58.712590
  C 0.909998 0.054149 0.176084
  C 2.364183 0.070921 -0.121186
  C 3.467218 -0.017455 1.445137
  C 2.495129 -0.110259 3.089680
  C 3.483227 -0.174489 4.228044
  C 2.965227 0.138027 -1.310414
  C 2.323372 0.215345 -2.680683
  C 0.810386 0.225919 -2.868025
  H 0.587107 0.285909 -3.931245
  C 4.425868 0.142013 -1.381011
  C 5.185860 0.203709 -2.474524
  O 6.545275 0.203061 -2.462998
  H 0.720654 -0.006187 1.245314
  H 0.430942 -0.811728 -0.277056
  H 0.430942 0.965507 -0.176770
  H 4.082070 0.868926 1.487817
  H 4.082070 -0.903004 1.387832
  H 1.869752 -0.997166 3.073769
  H 1.869750 0.772795 3.173645
  H 4.119116 -1.054208 4.145512
  H 2.948021 -0.227967 5.175688
  H 4.119111 0.708931 4.245000
  H 2.712897 -0.633289 -3.253028
  H 2.712896 1.122979 -3.153929
  H 0.354829 1.084912 -2.383999
  H 0.354831 -0.682068 -2.483704
  H 4.950756 0.088784 -0.437635
  H 4.826566 0.260952 -3.489008
  H 6.860080 0.151611 -1.551119
 29
 86.579250
  C 0.913747 0.056163 0.140418
  C 2.352128 0.075152 -0.196139
  C 3.548247 -0.018806 1.469105
  C 2.485687 -0.116809 3.205757
  C 3.470462 -0.180778 4.339459
  C 2.954027 0.141102 -1.364888
  C 2.311434 0.218475 -2.736145
  C 0.797180 0.228078 -2.906282
  H 0.565261 0.288002 -3.968309
  C 4.411763 0.144381 -1.422953
  C 5.182645 0.205716 -2.510061
  O 6.541620 0.204364 -2.486073
  H 0.761722 -0.004532 1.216014
  H 0.423373 -0.809882 -0.300618
  H 0.423374 0.966328 -0.200388
  H 4.150256 0.872487 1.516848
  H 4.150261 -0.909813 1.416277
  H 1.865386 -1.003939 3.164536
  H 1.865378 0.769324 3.264598
  H 4.106192 -1.060462 4.258267
  H 2.932855 -0.234234 5.286726
  H 4.106185 0.702454 4.357743
  H 2.699428 -0.630404 -3.308955
  H 2.699424 1.126397 -3.209820
  H 0.345481 1.086694 -2.418541
  H 0.345478 -0.679961 -2.518221
  H 4.924170 0.090694 -0.471446
  H 4.831936 0.263140 -3.527799
  H 6.848493 0.152760 -1.571426
 29
 113.402842
  C 0.902799 0.056761 0.129807
  C 2.328619 0.078224 -0.250582
  C 3.621488 -0.021269 1.512740
  C 2.472387 -0.124472 3.341549
  C 3.457311 -0.188172 4.470497
  C 2.948550 0.145059 -1.435023
  C 2.305583 0.222654 -2.810220
  C 0.790658 0.231492 -2.966815
  H 0.551274 0.291321 -4.027171
  C 4.409674 0.147903 -1.485378
  C 5.185698 0.208857 -2.565756
  O 6.544283 0.207081 -2.534252
  H 0.788867 -0.004222 1.210498
  H 0.400329 -0.810203 -0.297097
  H 0.400330 0.966247 -0.196854
  H 4.212534 0.877051 1.565034
  H 4.212539 -0.919768 1.463643
  H 1.857360 -1.013108 3.276545
  H 1.857356 0.765828 3.376927
  H 4.092945 -1.068096 4.389481
  H 2.919687 -0.241713 5.419321
  H 4.092939 0.695284 4.488980
  H 2.692664 -0.626447 -3.382868
  H 2.692665 1.130786 -3.283715
  H 0.342301 1.090058 -2.475771
  H 0.342304 -0.676856 -2.575473
  H 4.911816 0.093927 -0.528741
  H 4.839826 0.266378 -3.585228
  H 6.846201 0.155394 -1.618100
