9

C 1.048287 -0.11005 -0.038665
C 2.544163 -0.136687 -0.0395
C 3.258538 -1.267217 -0.045294
H 4.328402708748865 -1.2842304581500261 -0.045076708753015456
H 0.688617 0.917958 -0.034402
H 0.652 -0.606862 0.846663
H 0.650696 -0.600949 -0.926675
H 3.046017 0.821802 -0.034978
H 2.746665 -2.221654 -0.050956
