 23
 0.000000
  C 0.938805 0.052221 0.191983
  C 2.438620 0.070240 0.087489
  C 3.245622 -0.005747 1.372056
  C 2.477306 -0.089550 2.687270
  H 3.182585 -0.136837 3.513414
  C 3.057841 0.142014 -1.108702
  C 2.332721 0.206933 -2.422483
  H 1.252407 0.199643 -2.341448
  C 4.509926 0.141215 -1.203579
  C 5.225469 0.182536 -2.331203
  O 6.583923 0.180162 -2.382238
  H 0.602379 -0.035582 1.218159
  H 0.524433 -0.794752 -0.354624
  H 0.503225 0.968098 -0.202339
  H 3.889940 0.877871 1.426501
  H 3.897231 -0.883869 1.317818
  H 1.854661 -0.981172 2.724147
  H 1.846581 0.785335 2.831568
  H 2.632109 -0.640502 -3.039830
  H 2.626552 1.114519 -2.950703
  H 5.068050 0.104724 -0.277909
  H 4.815972 0.221935 -3.327495
  H 6.941258 0.144676 -1.485384
 23
 -0.328810
  C 0.948092 0.134443 0.184751
  C 2.449099 0.098197 0.096245
  C 3.243222 -0.007198 1.386299
  C 2.449411 -0.169514 2.677749
  H 3.143558 -0.301920 3.505827
  C 3.078588 0.141177 -1.094207
  C 2.337926 0.168552 -2.407745
  H 1.261839 0.119424 -2.276808
  C 4.529434 0.161736 -1.200947
  C 5.226406 0.182090 -2.338459
  O 6.581997 0.216860 -2.414236
  H 0.612828 0.352977 1.192466
  H 0.521698 -0.824608 -0.109433
  H 0.540602 0.902475 -0.470971
  H 3.871103 0.883554 1.487892
  H 3.913583 -0.869880 1.302567
  H 1.804482 -1.044687 2.636358
  H 1.845829 0.710247 2.892273
  H 2.640532 -0.683771 -3.014475
  H 2.579645 1.077287 -2.958023
  H 5.093592 0.176949 -0.278448
  H 4.793113 0.172601 -3.324769
  H 6.956036 0.225965 -1.523473
 23
 -0.342690
  C 0.957633 0.210028 0.213313
  C 2.452452 0.113983 0.093808
  C 3.240529 -0.003623 1.385058
  C 2.427845 -0.240137 2.654397
  H 3.107909 -0.410726 3.487191
  C 3.078338 0.132037 -1.099209
  C 2.347368 0.129253 -2.415946
  H 1.277097 0.009887 -2.297932
  C 4.528058 0.161976 -1.207181
  C 5.227184 0.197197 -2.343204
  O 6.582577 0.253880 -2.414951
  H 0.680013 0.733204 1.122911
  H 0.501998 -0.780872 0.242988
  H 0.533506 0.761245 -0.621414
  H 3.839159 0.903907 1.526493
  H 3.936692 -0.839564 1.282336
  H 1.790659 -1.114596 2.552786
  H 1.810150 0.618387 2.905756
  H 2.706216 -0.701255 -3.023155
  H 2.538573 1.054006 -2.960326
  H 5.091291 0.185991 -0.282753
  H 4.797886 0.187268 -3.329859
  H 6.953966 0.264518 -1.523262
 23
 0.770752
  C 0.986507 0.355044 0.227941
  C 2.459532 0.105874 0.101824
  C 3.236489 -0.080115 1.389894
  C 2.393931 -0.323876 2.635852
  H 3.050041 -0.500984 3.485690
  C 3.081008 0.140995 -1.092827
  C 2.350058 0.029710 -2.406105
  H 1.291951 -0.168686 -2.278657
  C 4.528844 0.206572 -1.212979
  C 5.223316 0.254063 -2.351473
  O 6.572711 0.380429 -2.427331
  H 0.826483 1.142309 0.962390
  H 0.436158 -0.525209 0.554399
  H 0.583303 0.721194 -0.712784
  H 3.863897 0.793100 1.569615
  H 3.906647 -0.941189 1.261238
  H 1.757533 -1.199336 2.510581
  H 1.766773 0.532664 2.871860
  H 2.774358 -0.803884 -2.967758
  H 2.467918 0.934218 -3.002470
  H 5.090223 0.279555 -0.290943
  H 4.791907 0.202073 -3.339659
  H 6.943838 0.430591 -1.536497
 23
 5.988264
  C 1.030770 0.494347 0.227010
  C 2.480291 0.118117 0.128256
  C 3.230368 -0.222559 1.395090
  C 2.351185 -0.406754 2.627243
  H 2.973184 -0.645775 3.487773
  C 3.084745 0.193776 -1.081542
  C 2.359212 -0.119506 -2.368529
  H 1.311744 -0.347261 -2.206397
  C 4.527141 0.308557 -1.219515
  C 5.213838 0.302961 -2.365502
  O 6.544187 0.537566 -2.469196
  H 0.968209 1.388743 0.852325
  H 0.381136 -0.261558 0.655741
  H 0.709727 0.819587 -0.760941
  H 3.977773 0.546903 1.620518
  H 3.777479 -1.152367 1.213016
  H 1.646784 -1.222178 2.482687
  H 1.794211 0.498342 2.853772
  H 2.828381 -1.003319 -2.797459
  H 2.431946 0.687611 -3.097433
  H 5.079169 0.528471 -0.312326
  H 4.787765 0.101270 -3.333680
  H 6.913193 0.685317 -1.593430
 23
 16.625895
  C 1.100432 0.649170 0.215240
  C 2.492585 0.089863 0.140407
  C 3.207644 -0.372831 1.375908
  C 2.319754 -0.447320 2.612567
  H 2.896804 -0.803568 3.463970
  C 3.070326 0.185442 -1.075855
  C 2.367985 -0.331383 -2.311469
  H 1.346020 -0.616004 -2.099716
  C 4.499901 0.396244 -1.222254
  C 5.181910 0.415797 -2.368844
  O 6.505669 0.738962 -2.484555
  H 1.166218 1.621852 0.717500
  H 0.348543 0.050048 0.716508
  H 0.887189 0.937769 -0.816940
  H 4.043067 0.301306 1.604473
  H 3.647064 -1.357315 1.167035
  H 1.495552 -1.134203 2.453472
  H 1.913352 0.527792 2.855971
  H 2.907571 -1.216462 -2.634066
  H 2.357369 0.381027 -3.132028
  H 5.042193 0.653423 -0.310142
  H 4.756355 0.186735 -3.336357
  H 6.857275 0.972240 -1.617048
 23
 32.475968
  C 1.156443 0.712272 0.183397
  C 2.486263 0.014296 0.171015
  C 3.173628 -0.520536 1.393560
  C 2.312798 -0.449791 2.656640
  H 2.889620 -0.766589 3.524592
  C 3.054225 0.141929 -1.076586
  C 2.373567 -0.422283 -2.299952
  H 1.356224 -0.736479 -2.079375
  C 4.450992 0.480099 -1.234397
  C 5.140013 0.483222 -2.379256
  O 6.439699 0.878596 -2.509383
  H 1.281493 1.719905 0.607208
  H 0.335207 0.219221 0.682575
  H 1.191450 1.018682 -0.878185
  H 4.100678 0.049420 1.578988
  H 3.489908 -1.553365 1.205762
  H 1.442826 -1.099326 2.568865
  H 1.970180 0.567129 2.825969
  H 2.944090 -1.300003 -2.599722
  H 2.360693 0.267145 -3.146657
  H 4.951259 0.845432 -0.345841
  H 4.745681 0.149573 -3.320741
  H 6.788322 1.118385 -1.646897
 23
 55.677429
  C 1.189630 0.839140 0.195878
  C 2.536005 0.192080 0.223490
  C 3.189592 -0.481383 1.393856
  C 2.272433 -0.589935 2.609032
  H 2.781889 -1.104600 3.424595
  C 3.048587 0.302753 -1.039832
  C 2.389932 -0.483201 -2.151702
  H 1.390079 -0.793856 -1.873374
  C 4.450478 0.583805 -1.258599
  C 5.129233 0.446250 -2.408122
  O 6.428886 0.812848 -2.593431
  H 1.171926 1.925205 0.383096
  H 0.367467 0.348059 0.709581
  H 1.362854 1.084456 -0.937093
  H 4.110322 0.053399 1.681091
  H 3.497033 -1.481370 1.074301
  H 1.374779 -1.151182 2.358680
  H 1.981972 0.397303 2.957970
  H 2.996901 -1.372679 -2.323565
  H 2.327191 0.068977 -3.090837
  H 4.980354 1.008627 -0.411483
  H 4.719707 0.011893 -3.308350
  H 6.777924 1.179927 -1.770275
 23
 78.061747
  C 1.269023 0.908060 0.257208
  C 2.470997 0.166071 0.256156
  C 3.116842 -0.578220 1.377477
  C 2.264850 -0.633177 2.639284
  H 2.794522 -1.159101 3.431125
  C 2.988841 0.320794 -1.080286
  C 2.389792 -0.582028 -2.160784
  H 1.382547 -0.894741 -1.894203
  C 4.403721 0.640558 -1.268391
  C 5.099243 0.527844 -2.401292
  O 6.389755 0.923441 -2.569484
  H 1.323029 1.988249 0.267149
  H 0.407398 0.568578 0.837791
  H 1.740566 1.102639 -1.121993
  H 4.070692 -0.089272 1.605277
  H 3.362566 -1.594387 1.052713
  H 1.331137 -1.156985 2.446607
  H 2.032138 0.372371 2.985134
  H 3.010151 -1.475621 -2.258010
  H 2.356902 -0.087308 -3.130062
  H 4.894815 1.093432 -0.411190
  H 4.705985 0.109585 -3.312519
  H 6.723659 1.290985 -1.740972
 23
 58.051920
  C 1.261004 0.920458 0.350419
  C 2.398410 0.189116 0.261808
  C 3.089257 -0.581332 1.340559
  C 2.301714 -0.665753 2.652195
  H 2.869560 -1.214193 3.401768
  C 2.938664 0.336125 -1.138508
  C 2.361334 -0.624769 -2.199682
  H 1.342139 -0.899415 -1.945074
  C 4.368784 0.672982 -1.267338
  C 5.098379 0.574159 -2.374063
  O 6.421378 0.905697 -2.481044
  H 1.241909 1.977233 0.141299
  H 0.432736 0.658188 0.997399
  H 2.017484 1.066231 -1.267479
  H 4.036263 -0.052780 1.531518
  H 3.368048 -1.589553 0.996998
  H 1.359022 -1.181132 2.497682
  H 2.088582 0.331194 3.032024
  H 2.953313 -1.543954 -2.257867
  H 2.363391 -0.152979 -3.175656
  H 4.829581 1.085100 -0.380375
  H 4.717971 0.205837 -3.314377
  H 6.736325 1.275838 -1.629604
 23
 34.700185
  C 1.229233 1.011485 0.434434
  C 2.316608 0.250814 0.230194
  C 3.037463 -0.611483 1.215050
  C 2.332727 -0.754565 2.557924
  H 2.928093 -1.367732 3.231269
  C 2.881951 0.462976 -1.160307
  C 2.414412 -0.677457 -2.087391
  H 1.391341 -0.953566 -1.847517
  C 4.326539 0.796470 -1.278916
  C 5.108204 0.504281 -2.301649
  O 6.404580 0.887325 -2.433016
  H 1.230770 2.063335 0.203110
  H 0.476090 0.781106 1.178726
  H 2.106002 1.212630 -1.429356
  H 4.024170 -0.164400 1.344684
  H 3.198839 -1.615944 0.796574
  H 1.362272 -1.228551 2.433920
  H 2.184647 0.221720 3.014079
  H 3.040826 -1.563065 -1.973267
  H 2.467289 -0.357095 -3.123039
  H 4.735663 1.381342 -0.459623
  H 4.792106 -0.077327 -3.154174
  H 6.682391 1.367919 -1.640166
 23
 18.162429
  C 1.232168 1.045600 0.510111
  C 2.282673 0.285986 0.210225
  C 3.021697 -0.617507 1.150683
  C 2.372265 -0.791048 2.517089
  H 2.982903 -1.439040 3.142034
  C 2.850998 0.469098 -1.187950
  C 2.409461 -0.706335 -2.075639
  H 1.375621 -0.962017 -1.857502
  C 4.302010 0.801511 -1.262260
  C 5.117426 0.497850 -2.261117
  O 6.434211 0.830601 -2.330094
  H 1.090746 2.032151 0.102217
  H 0.573960 0.839798 1.342292
  H 2.175300 1.274337 -1.523782
  H 4.011290 -0.167244 1.273752
  H 3.179342 -1.600896 0.695776
  H 1.386819 -1.239665 2.418491
  H 2.266225 0.170000 3.014647
  H 3.026497 -1.586123 -1.900520
  H 2.489237 -0.433748 -3.123984
  H 4.698025 1.343653 -0.409840
  H 4.813669 -0.042622 -3.143528
  H 6.681336 1.338012 -1.547155
 23
 7.646338
  C 1.218992 1.073068 0.578846
  C 2.270634 0.366405 0.201258
  C 3.033129 -0.582346 1.081272
  C 2.423718 -0.821283 2.456361
  H 3.043584 -1.513598 3.022058
  C 2.795753 0.535182 -1.213043
  C 2.394204 -0.691427 -2.043171
  H 1.348738 -0.928895 -1.860686
  C 4.261152 0.847123 -1.259974
  C 5.129444 0.418146 -2.179238
  O 6.452529 0.736659 -2.221501
  H 0.861670 1.911975 0.003846
  H 0.690721 0.910327 1.502848
  H 2.210947 1.371995 -1.618079
  H 4.038300 -0.166784 1.200630
  H 3.150384 -1.541296 0.568459
  H 1.427858 -1.249186 2.365895
  H 2.352821 0.109651 3.013257
  H 2.998838 -1.555993 -1.780569
  H 2.521821 -0.489941 -3.103692
  H 4.610037 1.519005 -0.481612
  H 4.871985 -0.245843 -2.989432
  H 6.666623 1.329408 -1.489788
 23
 5.149183
  C 1.316915 1.191677 0.634707
  C 2.239267 0.366672 0.167630
  C 2.897862 -0.717712 0.976349
  C 2.480789 -0.787132 2.440092
  H 3.006653 -1.601823 2.935238
  C 2.732490 0.494196 -1.262675
  C 2.469100 -0.787778 -2.055912
  H 1.447614 -1.118284 -1.887101
  C 4.178664 0.908561 -1.258400
  C 5.121440 0.465595 -2.075539
  O 6.419834 0.869311 -2.068848
  H 0.887265 1.958091 0.008611
  H 0.944768 1.148812 1.641911
  H 2.150278 1.300335 -1.726308
  H 3.980356 -0.572466 0.914956
  H 2.682183 -1.680993 0.504022
  H 1.412987 -0.968339 2.528463
  H 2.721542 0.137767 2.955930
  H 3.151161 -1.582062 -1.756333
  H 2.596782 -0.607052 -3.120278
  H 4.432488 1.659320 -0.516449
  H 4.956343 -0.273445 -2.842202
  H 6.547098 1.539101 -1.383919
 23
 4.879942
  C 1.298618 1.174343 0.636582
  C 2.223982 0.360484 0.155260
  C 2.890018 -0.730022 0.948326
  C 2.537538 -0.768890 2.429677
  H 3.081239 -1.576094 2.916500
  C 2.712231 0.502919 -1.274548
  C 2.453076 -0.767124 -2.085912
  H 1.422720 -1.086049 -1.945740
  C 4.157078 0.923869 -1.260098
  C 5.132212 0.421896 -2.001635
  O 6.426816 0.833404 -1.976771
  H 0.856199 1.943607 0.026062
  H 0.934381 1.114798 1.646675
  H 2.137214 1.316794 -1.735932
  H 3.971874 -0.613020 0.837298
  H 2.628733 -1.692403 0.499280
  H 1.473451 -0.943471 2.570505
  H 2.805984 0.166448 2.915590
  H 3.113667 -1.571911 -1.777032
  H 2.610823 -0.576599 -3.144375
  H 4.380080 1.732205 -0.571149
  H 5.001210 -0.377692 -2.712589
  H 6.524735 1.554859 -1.342028
