8

H -1.647966 -0.470778 0.638932
C -0.235046 -0.938936 0.797194
C 0.812975 -0.076489 0.106169
H 1.8120999388382786 -0.49473148124949107 0.29806111414145003
H -0.010355 -0.992171 1.867378
H -0.1752787749325253 -1.9199960072397286 0.3032819217891934
H 0.610784 -0.054698 -0.966026
H 0.752798 0.944896 0.489015
