16

H -2.7558641738912537 0.5513718235237978 -0.8439967457615792
C -2.26527538954632 0.36582672234702046 0.13394291204417194
C -0.7686319683912679 0.4732417237338809 0.07351831900907775
C -0.09020046830617591 -0.8560148844525801 -0.05133618778851923
C 1.362200333821051 -0.8090520312805656 -0.11394226566728764
O 1.9429959453088181 -1.8888333084747408 -0.21669677587739902
C 2.2226211704990573 0.38964279684930936 -0.0681962691782157
H 3.1647228630326856 0.21584085463528047 -0.631481927623195
H -2.713875582851495 1.0742116423837218 0.8719208610100282
H -2.58498527119499 -0.6551064443710558 0.4928745297798564
H -0.42541924980962087 1.0612197790681124 0.9223084370784548
H -0.49864560411545306 1.0697766635579848 -0.8462201480036878
H -0.40250438102200137 -1.5211701425942235 0.7921403353689174
H -0.4638334667608589 -1.3618925235547998 -0.9742527163586245
H 2.5178944753537205 0.6042330396337293 0.9776164713648074
H 1.7588007678740933 1.286704288995106 -0.5181988293967855
