 20
 0.000000
  C 0.992075 0.129753 0.373098
  C 2.464397 0.138715 0.395684
  C 3.229193 0.610727 1.570564
  C 2.428973 1.093310 2.772469
  H 3.108198 1.408941 3.558728
  C 3.114102 -0.321416 -0.749341
  C 4.498166 -0.388019 -0.915348
  C 5.132927 -0.843280 -2.050217
  H 4.645260 -1.203463 -2.947082
  O 6.427316 -0.890829 -2.170373
  H 0.548178 0.498222 1.290526
  H 0.629710 -0.882928 0.191656
  H 0.629784 0.735503 -0.458438
  H 3.890265 1.421832 1.244866
  H 3.890128 -0.200371 1.896441
  H 1.795829 0.303253 3.169751
  H 1.795917 1.938829 2.513154
  H 2.494912 -0.651872 -1.572164
  H 5.130201 -0.060735 -0.100043
  H 6.922541 -0.576307 -1.388658
 20
 0.247793
  C 1.008473 0.044148 0.379736
  C 2.483147 0.147294 0.403201
  C 3.214245 0.685870 1.574078
  C 2.383007 1.134748 2.769428
  H 3.045036 1.508126 3.546418
  C 3.173301 -0.254750 -0.738458
  C 4.564389 -0.337402 -0.872090
  C 5.131987 -0.728498 -2.059865
  H 4.534169 -0.800379 -2.967696
  O 6.370837 -1.076851 -2.249212
  H 0.542764 0.355996 1.305198
  H 0.710547 -0.982227 0.154814
  H 0.608921 0.648544 -0.439465
  H 3.824240 1.530418 1.234810
  H 3.927670 -0.074811 1.911364
  H 1.810176 0.311682 3.190208
  H 1.700801 1.937944 2.502810
  H 2.581167 -0.561931 -1.591046
  H 5.204294 -0.178206 -0.015440
  H 6.951068 -0.989402 -1.463815
 20
 0.750885
  C 1.033793 -0.208774 0.506542
  C 2.494137 -0.040948 0.485674
  C 3.198920 0.471233 1.680891
  C 2.401960 1.449921 2.541822
  H 3.027099 1.806702 3.353574
  C 3.174415 -0.316938 -0.692384
  C 4.561469 -0.422723 -0.848796
  C 5.137007 -0.497485 -2.097966
  H 4.541976 -0.294920 -2.983618
  O 6.372889 -0.786264 -2.366685
  H 0.647685 -0.319627 1.513327
  H 0.724957 -1.048140 -0.109981
  H 0.564564 0.679907 0.078628
  H 4.142620 0.934482 1.395827
  H 3.446081 -0.400278 2.303792
  H 1.521021 0.995032 2.980294
  H 2.090387 2.307586 1.952525
  H 2.572342 -0.501651 -1.572608
  H 5.187785 -0.516962 0.027591
  H 6.935062 -0.960957 -1.586218
 20
 9.968045
  C 1.005698 -0.405051 0.642215
  C 2.466134 -0.237137 0.556015
  C 3.180657 0.387661 1.697458
  C 2.530763 1.677141 2.209368
  H 3.101291 2.066641 3.047914
  C 3.132056 -0.615466 -0.580273
  C 4.536090 -0.649910 -0.811109
  C 5.118705 -0.088694 -1.917948
  H 4.557971 0.593563 -2.542715
  O 6.337197 -0.275754 -2.331352
  H 0.698857 -0.647435 1.656179
  H 0.642678 -1.159165 -0.049414
  H 0.514664 0.540683 0.389533
  H 4.218252 0.583707 1.437847
  H 3.167289 -0.338378 2.515534
  H 1.511749 1.510361 2.543304
  H 2.523402 2.432073 1.425524
  H 2.520560 -0.936868 -1.420090
  H 5.142236 -1.248032 -0.138644
  H 6.875421 -0.867435 -1.767737
 20
 13.483720
  C 1.002612 -0.549357 0.759071
  C 2.449023 -0.323321 0.571066
  C 3.200508 0.427160 1.613543
  C 2.595940 1.804949 1.906585
  H 3.190421 2.300390 2.671198
  C 3.102581 -0.904071 -0.483077
  C 4.470460 -0.828318 -0.894578
  C 5.089825 0.227535 -1.518937
  H 4.578587 1.162454 -1.708303
  O 6.280332 0.193880 -2.058179
  H 0.785815 -0.856967 1.778929
  H 0.610641 -1.286412 0.070588
  H 0.463898 0.388353 0.592446
  H 4.243893 0.529518 1.308724
  H 3.183322 -0.145131 2.540701
  H 1.576878 1.726996 2.266690
  H 2.604292 2.424659 1.011352
  H 2.550150 -1.648305 -1.057584
  H 4.978548 -1.799473 -0.922968
  H 6.815368 -0.586002 -1.825437
 20
 13.628560
  C 1.048566 -0.553998 0.622586
  C 2.509311 -0.364876 0.565630
  C 3.181128 0.445024 1.613335
  C 2.445659 1.730310 1.984058
  H 3.064702 2.320841 2.661087
  C 3.264022 -0.988618 -0.396236
  C 4.649728 -0.815856 -0.718241
  C 5.069948 0.296830 -1.416338
  H 4.505892 1.224156 -1.406461
  O 6.083802 0.346258 -2.226506
  H 0.700360 -0.610123 1.650914
  H 0.728637 -1.437735 0.080197
  H 0.560537 0.308225 0.160768
  H 4.199073 0.666220 1.263886
  H 3.329762 -0.163014 2.505607
  H 1.506366 1.521690 2.486988
  H 2.235779 2.325844 1.096967
  H 2.817005 -1.826557 -0.923602
  H 5.239108 -1.722344 -0.777606
  H 6.655333 -0.448344 -2.217018
 20
 34.261789
  C 1.075572 -0.492980 0.389054
  C 2.540974 -0.490401 0.560674
  C 3.158808 0.375826 1.597001
  C 2.533146 1.689670 1.957144
  H 3.189240 2.249519 2.612944
  C 3.408217 -1.201079 -0.218882
  C 4.790588 -0.771563 -0.333615
  C 4.812237 0.345061 -1.186733
  H 4.307346 1.277279 -0.960227
  O 5.525071 0.479129 -2.256077
  H 0.563248 -0.494170 1.352325
  H 0.753521 -1.343349 -0.207321
  H 0.775440 0.413392 -0.139022
  H 4.182752 0.470953 1.113578
  H 3.537185 -0.185025 2.457982
  H 1.604627 1.532857 2.510466
  H 2.299144 2.271972 1.077935
  H 3.099115 -2.089782 -0.765187
  H 5.562523 -1.529281 -0.503409
  H 6.113898 -0.264009 -2.472394
 20
 37.023385
  C 1.150086 -0.351195 0.205344
  C 2.598539 -0.394828 0.563046
  C 3.071490 0.316132 1.692031
  C 2.471958 1.590648 2.161388
  H 3.141915 2.099389 2.887698
  C 3.588781 -0.998588 -0.215135
  C 4.980633 -0.501969 0.023456
  C 4.520012 0.280459 -1.131213
  H 3.995500 1.222848 -1.031897
  O 4.907198 0.046786 -2.382310
  H 0.538430 -0.385858 1.091017
  H 0.914970 -1.161179 -0.447698
  H 0.907341 0.590014 -0.322845
  H 4.995662 0.083835 0.943988
  H 3.506396 -0.269677 2.498173
  H 1.522708 1.405478 2.691678
  H 2.253590 2.255853 1.340760
  H 3.418463 -1.812461 -0.880823
  H 5.843057 -1.158329 -0.084065
  H 5.471550 -0.720376 -2.452778
 20
 52.142414
  C 0.923073 -0.479497 0.159253
  C 2.381698 -0.421891 0.318906
  C 3.210930 0.145025 1.413735
  C 2.868061 1.487316 1.989023
  H 3.662544 1.845018 2.633343
  C 3.321899 -0.821164 -0.580504
  C 4.654272 -0.134684 0.540900
  C 4.363560 0.274958 -0.921738
  H 3.927748 1.271169 -0.959503
  O 5.074250 0.049276 -2.044263
  H 0.420769 -0.702206 1.100882
  H 0.643744 -1.215589 -0.577806
  H 0.567472 0.491392 -0.173990
  H 5.308056 0.703513 0.872875
  H 3.530705 -0.596001 2.141695
  H 1.986158 1.380613 2.609214
  H 2.664523 2.233001 1.221263
  H 3.296443 -1.681130 -1.232304
  H 5.371203 -0.942176 0.678240
  H 5.643132 -0.744348 -1.996558
 20
 5.539946
  C 0.918942 -0.470699 0.275053
  C 2.372997 -0.329848 0.159819
  C 3.288087 0.096183 1.253953
  C 2.879599 1.338822 2.036773
  H 3.658754 1.607149 2.741599
  C 3.097080 -0.563192 -0.981033
  C 4.694706 0.163207 0.566339
  C 4.420211 0.070182 -0.941691
  H 4.112580 1.092814 -1.283258
  O 5.349175 -0.378961 -1.853087
  H 0.603222 -0.659352 1.300508
  H 0.534652 -1.239759 -0.390442
  H 0.453334 0.469043 -0.039296
  H 5.192008 1.102855 0.806072
  H 3.413188 -0.740038 1.958528
  H 1.971187 1.153526 2.598119
  H 2.708327 2.174685 1.363137
  H 2.785432 -1.156741 -1.821620
  H 5.388851 -0.616075 0.887559
  H 6.010431 -0.953077 -1.448143
 20
 12.875346
  C 0.932939 -0.321796 0.226393
  C 2.391349 -0.262565 0.108099
  C 3.346189 0.064893 1.214774
  C 2.900398 1.199204 2.130847
  H 3.670449 1.417189 2.864666
  C 3.099769 -0.396297 -1.124981
  C 4.706207 0.265765 0.516905
  C 4.511627 -0.240480 -0.875170
  H 3.477740 0.648046 -1.571718
  O 5.480399 -0.716726 -1.621167
  H 0.623052 -0.412226 1.263602
  H 0.521901 -1.155568 -0.343623
  H 0.482386 0.586781 -0.181337
  H 5.029293 1.318309 0.530261
  H 3.454636 -0.834695 1.843086
  H 1.997188 0.918330 2.665188
  H 2.691980 2.101191 1.558885
  H 2.714899 -0.931504 -1.980074
  H 5.513784 -0.279196 1.005921
  H 6.341941 -0.772432 -1.175145
 20
 24.470894
  C 0.962915 -0.075074 0.082606
  C 2.430274 -0.135496 0.079051
  C 3.261829 0.085695 1.206402
  C 2.801840 0.971501 2.321527
  H 3.639081 1.243892 2.955060
  C 3.186972 -0.339151 -1.192282
  C 4.881540 0.484739 0.297583
  C 4.605266 -0.348111 -0.799936
  H 3.063193 0.613083 -1.769800
  O 5.416728 -1.186214 -1.394120
  H 0.563676 -0.090236 1.089170
  H 0.562660 -0.914077 -0.484275
  H 0.603047 0.830687 -0.415212
  H 4.706251 1.544561 0.196398
  H 3.841239 -0.758364 1.566700
  H 2.087739 0.443000 2.948947
  H 2.325276 1.873061 1.944738
  H 2.868958 -1.068280 -1.939238
  H 5.753944 0.262930 0.897237
  H 6.318122 -1.200221 -1.030922
 20
 28.886686
  C 0.999851 0.134042 0.020570
  C 2.461715 -0.055764 0.138449
  C 3.187541 0.145052 1.302216
  C 2.665951 0.949101 2.450726
  H 3.467117 1.187906 3.144355
  C 3.204525 -0.529441 -1.045541
  C 5.143634 0.384379 0.179059
  C 4.672768 -0.364882 -0.852859
  H 2.976582 0.093899 -1.910938
  O 5.431352 -0.955178 -1.766196
  H 0.524672 0.314407 0.976162
  H 0.558484 -0.744437 -0.450333
  H 0.766868 0.973237 -0.640828
  H 4.547235 1.161653 0.544602
  H 3.770257 -0.700755 1.659619
  H 1.936484 0.352457 3.001093
  H 2.190953 1.872719 2.127624
  H 2.945836 -1.516830 -1.443109
  H 6.129296 0.423513 0.611903
  H 6.382886 -0.916570 -1.570422
