 20
 0.000000
  C 1.048287 -0.110050 -0.038665
  C 2.544163 -0.136687 -0.039500
  C 3.258538 -1.267217 -0.045294
  C 4.696242 -1.290080 -0.045002
  C 5.417869 -2.424761 -0.052600
  C 6.856134 -2.445316 -0.052266
  C 7.575333 -3.571905 -0.059810
  C 9.065259 -3.613567 -0.059616
  H 0.688617 0.917958 -0.034402
  H 0.652000 -0.606862 0.846663
  H 0.650696 -0.600949 -0.926675
  H 3.046017 0.821802 -0.034978
  H 2.746665 -2.221654 -0.050956
  H 5.199979 -0.331637 -0.038234
  H 4.914593 -3.383396 -0.059374
  H 7.361930 -1.487712 -0.045502
  H 7.077349 -4.533376 -0.066601
  H 9.498038 -2.614816 -0.052581
  H 9.425227 -4.138066 -0.946058
  H 9.424656 -4.150250 0.819740
 20
 -0.346066
  C 1.040905 -0.112402 -0.039098
  C 2.534924 -0.126342 -0.052751
  C 3.263156 -1.245631 -0.039221
  C 4.698417 -1.280206 -0.063527
  C 5.422606 -2.412253 -0.036551
  C 6.859827 -2.446919 -0.059812
  C 7.580330 -3.570162 -0.033338
  C 9.069514 -3.623431 -0.056710
  H 0.659342 0.869408 0.229650
  H 0.657403 -0.846517 0.668892
  H 0.651057 -0.369111 -1.025868
  H 3.031010 0.833020 -0.094263
  H 2.760248 -2.204739 0.001520
  H 5.205171 -0.324589 -0.105878
  H 4.915413 -3.368324 0.005188
  H 7.364312 -1.488966 -0.101368
  H 7.077271 -4.527732 0.008120
  H 9.497248 -2.623577 -0.098100
  H 9.414425 -4.190290 -0.922851
  H 9.444334 -4.130589 0.834277
 20
 -0.739609
  C 1.038790 -0.136752 -0.040318
  C 2.530744 -0.118372 -0.083804
  C 3.275390 -1.225321 -0.044221
  C 4.708719 -1.265669 -0.082036
  C 5.427809 -2.400680 -0.027878
  C 6.862035 -2.443224 -0.062791
  C 7.577428 -3.569550 -0.010182
  C 9.064728 -3.631249 -0.045077
  H 0.653597 0.739879 0.475795
  H 0.684979 -1.033825 0.468350
  H 0.630762 -0.133856 -1.052926
  H 3.003809 0.851864 -0.165323
  H 2.779491 -2.187470 0.033306
  H 5.220737 -0.312364 -0.157538
  H 4.916495 -3.352827 0.046477
  H 7.370214 -1.490230 -0.136657
  H 7.070216 -4.522675 0.063341
  H 9.496592 -2.636242 -0.120498
  H 9.398923 -4.225767 -0.896168
  H 9.444408 -4.112528 0.856607
 20
 -0.509549
  C 1.036486 -0.157611 -0.020358
  C 2.520735 -0.109616 -0.177833
  C 3.281679 -1.200562 -0.081368
  C 4.716558 -1.250157 -0.118082
  C 5.428896 -2.388909 -0.047601
  C 6.864754 -2.439783 -0.064923
  C 7.573340 -3.570475 -0.002481
  C 9.060602 -3.640429 -0.018399
  H 0.716154 0.583108 0.713300
  H 0.746135 -1.146379 0.346572
  H 0.524663 0.059993 -0.956915
  H 2.966101 0.861500 -0.354917
  H 2.795853 -2.164469 0.021854
  H 5.234483 -0.301901 -0.189545
  H 4.911319 -3.337371 0.025188
  H 7.379726 -1.489157 -0.135063
  H 7.059721 -4.521147 0.065500
  H 9.498683 -2.648620 -0.099177
  H 9.402433 -4.246608 -0.858992
  H 9.426415 -4.113361 0.893501
 20
 3.127498
  C 1.069740 -0.148312 0.043014
  C 2.525309 -0.126373 -0.273022
  C 3.267807 -1.227897 -0.133121
  C 4.698680 -1.268070 -0.153037
  C 5.414564 -2.397731 -0.096506
  C 6.851196 -2.437205 -0.064616
  C 7.564061 -3.558866 0.008833
  C 9.052214 -3.616581 0.041887
  H 0.908787 0.419745 0.963838
  H 0.811253 -1.179103 0.283296
  H 0.439278 0.283680 -0.730675
  H 2.953829 0.797504 -0.630693
  H 2.779282 -2.194298 -0.108550
  H 5.212033 -0.315281 -0.175516
  H 4.902388 -3.351093 -0.063952
  H 7.361199 -1.483621 -0.130286
  H 7.055794 -4.512117 0.077699
  H 9.484558 -2.620979 -0.022063
  H 9.426889 -4.217940 -0.787381
  H 9.391502 -4.088372 0.964641
 20
 15.096621
  C 1.100384 -0.151695 0.112082
  C 2.502990 -0.089584 -0.365469
  C 3.245609 -1.207797 -0.210118
  C 4.683717 -1.247214 -0.182535
  C 5.411104 -2.396872 -0.112369
  C 6.843414 -2.437724 -0.051054
  C 7.558158 -3.564879 0.024849
  C 9.044265 -3.621502 0.093404
  H 1.048063 0.307694 1.103616
  H 0.975082 -1.216542 0.372092
  H 0.354613 0.298100 -0.530938
  H 2.869734 0.794936 -0.860981
  H 2.778296 -2.169002 -0.404236
  H 5.200165 -0.292176 -0.165450
  H 4.898190 -3.348957 -0.095092
  H 7.352832 -1.481414 -0.043192
  H 7.051773 -4.523210 -0.001621
  H 9.474545 -2.621885 0.103762
  H 9.443321 -4.166313 -0.764902
  H 9.361232 -4.151823 0.990844
 20
 34.587982
  C 1.164539 -0.136503 0.143680
  C 2.498301 -0.086009 -0.493073
  C 3.237194 -1.206731 -0.226752
  C 4.651549 -1.246236 -0.111553
  C 5.385011 -2.397449 -0.113594
  C 6.811852 -2.441159 0.028375
  C 7.532929 -3.560017 -0.014156
  C 9.015570 -3.613570 0.095809
  H 1.157947 0.344565 1.127495
  H 1.264069 -1.165665 0.547152
  H 0.321513 0.181751 -0.455127
  H 2.809321 0.702869 -1.139608
  H 2.804641 -2.162230 -0.504627
  H 5.159266 -0.296407 0.026112
  H 4.883966 -3.341829 -0.264531
  H 7.308329 -1.495150 0.199411
  H 7.039679 -4.508858 -0.189972
  H 9.439151 -2.612911 0.190620
  H 9.444926 -4.093881 -0.789277
  H 9.309617 -4.205486 0.961061
 20
 61.088738
  C 1.248583 -0.207676 0.211743
  C 2.460543 -0.024592 -0.561005
  C 3.227026 -1.151774 -0.361922
  C 4.642402 -1.206515 -0.249699
  C 5.355506 -2.358621 -0.206653
  C 6.773690 -2.415431 -0.024871
  C 7.484470 -3.552629 -0.000252
  C 8.965384 -3.625788 0.181837
  H 1.335193 0.018933 1.302146
  H 1.686269 -1.283018 0.529534
  H 0.306122 0.190045 -0.164648
  H 2.699507 0.806986 -1.180233
  H 2.815681 -2.093028 -0.698586
  H 5.162857 -0.251170 -0.119072
  H 4.843009 -3.308770 -0.336796
  H 7.279910 -1.470598 0.085252
  H 6.974626 -4.503292 -0.086625
  H 9.399008 -2.629094 0.282274
  H 9.431180 -4.141340 -0.659917
  H 9.204721 -4.195673 1.085513
 20
 80.451072
  C 1.288576 -0.060266 0.188991
  C 2.422127 -0.066820 -0.632498
  C 3.150122 -1.246441 -0.299056
  C 4.592388 -1.278253 -0.167550
  C 5.329517 -2.403537 -0.159682
  C 6.753295 -2.430121 0.020949
  C 7.491832 -3.542468 -0.013371
  C 8.970311 -3.583335 0.160259
  H 1.394410 0.116356 1.250002
  H 1.971109 -1.337307 0.599545
  H 0.341317 0.340008 -0.176264
  H 2.702285 0.675903 -1.363227
  H 2.741496 -2.182328 -0.670699
  H 5.079664 -0.324947 0.000261
  H 4.842923 -3.359730 -0.312421
  H 7.233326 -1.475425 0.197928
  H 7.013396 -4.497642 -0.190197
  H 9.378266 -2.582536 0.279366
  H 9.440474 -4.056175 -0.702457
  H 9.232102 -4.175084 1.038548
 20
 62.813509
  C 1.303137 0.053481 0.187401
  C 2.383794 -0.110820 -0.676656
  C 3.092567 -1.328035 -0.258302
  C 4.551639 -1.333438 -0.155589
  C 5.309664 -2.436847 -0.184249
  C 6.735058 -2.441257 0.030882
  C 7.490433 -3.525536 -0.026076
  C 8.972403 -3.541038 0.176991
  H 1.474173 0.170609 1.250586
  H 2.259814 -1.443801 0.613127
  H 0.380498 0.542347 -0.074398
  H 2.694727 0.534784 -1.463607
  H 2.691520 -2.259166 -0.707708
  H 5.010624 -0.380847 0.034056
  H 4.838920 -3.398952 -0.326717
  H 7.187213 -1.482153 0.247342
  H 7.032025 -4.488690 -0.259848
  H 9.366724 -2.538459 0.255895
  H 9.457980 -4.031268 -0.652202
  H 9.226632 -4.102055 1.078071
 20
 41.258765
  C 1.320491 0.174713 0.105270
  C 2.361389 -0.164915 -0.670826
  C 3.052841 -1.398361 -0.169466
  C 4.522205 -1.392839 -0.040944
  C 5.293709 -2.478181 -0.068710
  C 6.723025 -2.450797 0.090661
  C 7.506254 -3.534766 0.013660
  C 8.990584 -3.514947 0.099646
  H 1.374296 0.207635 1.191394
  H 2.361820 -1.491839 0.710878
  H 0.482128 0.734570 -0.275368
  H 2.730177 0.395051 -1.497941
  H 2.665816 -2.305974 -0.669011
  H 4.974878 -0.419999 0.088352
  H 4.855842 -3.440147 -0.319109
  H 7.165806 -1.477824 0.329272
  H 7.063776 -4.498753 -0.146947
  H 9.364676 -2.488699 0.237907
  H 9.422142 -3.934315 -0.808440
  H 9.337479 -4.130187 0.942317
 20
 23.926198
  C 1.302209 0.201827 0.120066
  C 2.349392 -0.193882 -0.623110
  C 3.059603 -1.414180 -0.150503
  C 4.534740 -1.393334 -0.064065
  C 5.300410 -2.469136 -0.126330
  C 6.737289 -2.442783 0.006619
  C 7.497736 -3.519168 -0.004799
  C 8.981264 -3.511251 0.144987
  H 1.302272 0.095665 1.192901
  H 2.498929 -1.626762 0.794241
  H 0.554068 0.914239 -0.218822
  H 2.708555 0.339201 -1.515755
  H 2.712286 -2.278299 -0.722448
  H 4.989672 -0.412604 0.103525
  H 4.851786 -3.437437 -0.299084
  H 7.194523 -1.463539 0.092549
  H 7.041621 -4.494165 -0.082936
  H 9.362922 -2.489718 0.234162
  H 9.453940 -3.991634 -0.715209
  H 9.272453 -4.072985 1.033777
 20
 13.676024
  C 1.333411 0.313985 0.007666
  C 2.353477 -0.249253 -0.612716
  C 3.010083 -1.464732 -0.033524
  C 4.496189 -1.425146 0.047786
  C 5.286311 -2.495742 -0.047426
  C 6.724234 -2.448049 0.065186
  C 7.514872 -3.513909 -0.043696
  C 9.000047 -3.483351 0.068496
  H 1.133553 0.155859 1.054940
  H 2.524650 -1.593886 0.942529
  H 0.716819 1.067495 -0.457648
  H 2.775913 0.166099 -1.516884
  H 2.672515 -2.347542 -0.591679
  H 4.929853 -0.450564 0.234040
  H 4.850614 -3.470838 -0.227813
  H 7.159135 -1.472187 0.241155
  H 7.078602 -4.489579 -0.218548
  H 9.360397 -2.468962 0.221596
  H 9.456176 -3.885932 -0.836508
  H 9.328820 -4.103711 0.902813
 20
 11.450733
  C 1.359213 0.351375 -0.122906
  C 2.406922 -0.278301 -0.628659
  C 3.006556 -1.452628 0.097350
  C 4.499370 -1.428524 0.197658
  C 5.287471 -2.480497 -0.003913
  C 6.721699 -2.443409 0.103445
  C 7.509708 -3.500423 -0.094449
  C 8.995403 -3.481165 0.009504
  H 1.084166 0.216582 0.911889
  H 2.498971 -1.525308 1.086550
  H 0.710188 1.063783 -0.618147
  H 2.801267 -0.052770 -1.602145
  H 2.684426 -2.345881 -0.452944
  H 4.927180 -0.465525 0.454041
  H 4.843876 -3.443623 -0.243426
  H 7.162636 -1.481076 0.355823
  H 7.073112 -4.455507 -0.350734
  H 9.358187 -2.486876 0.270338
  H 9.444291 -3.779979 -0.937381
  H 9.331029 -4.190197 0.767870
 20
 7.990892
  C 1.474372 0.443360 -0.129893
  C 2.386504 -0.380911 -0.608812
  C 2.937504 -1.556742 0.138175
  C 4.429241 -1.493445 0.233624
  C 5.247235 -2.518163 -0.000491
  C 6.683593 -2.443211 0.110474
  C 7.501243 -3.468247 -0.120016
  C 8.985753 -3.410247 -0.011296
  H 1.063367 0.319104 0.859005
  H 2.504896 -1.572445 1.143393
  H 1.099981 1.275652 -0.702340
  H 2.789996 -0.237152 -1.602504
  H 2.642480 -2.478963 -0.371154
  H 4.835573 -0.531815 0.519651
  H 4.838637 -3.478433 -0.290342
  H 7.092427 -1.483099 0.399831
  H 7.090230 -4.427805 -0.408898
  H 9.318257 -2.417827 0.282923
  H 9.445034 -3.666745 -0.966442
  H 9.339349 -4.132811 0.724879
