 14
 0.000000
  H 1.383975 0.137746 0.394054
  C 2.453972 0.138831 0.396445
  H 3.017345 0.478023 1.240518
  C 3.074760 -0.323868 -0.755623
  C 4.452396 -0.411652 -0.974602
  C 5.123831 -0.863395 -2.100714
  C 4.621920 -1.386396 -3.404454
  H 3.574840 -1.468216 -3.608977
  O 6.448567 -0.861790 -2.097024
  H 2.419633 -0.642347 -1.548686
  H 5.073532 -0.080521 -0.149771
  H 5.075895 -2.376004 -3.531813
  H 5.076265 -0.759449 -4.180462
  H 6.820588 -0.526463 -1.260938
 14
 0.000000
  H 1.431678 0.135760 0.389110
  C 2.501646 0.138927 0.396677
  H 3.060268 0.479207 1.243466
  C 3.143908 -0.333599 -0.779872
  C 4.454112 -0.427552 -1.014242
  C 5.089575 -0.862257 -2.097885
  C 4.611532 -1.388353 -3.409331
  H 3.568332 -1.476771 -3.630287
  O 6.353143 -0.841456 -2.046345
  H 2.493246 -0.653348 -1.576094
  H 5.087529 -0.099659 -0.197494
  H 5.073692 -2.375070 -3.529488
  H 5.074056 -0.758513 -4.178133
  H 6.674803 -0.482818 -1.152130
 14
 0.000000
  H 1.476902 0.134191 0.385204
  C 2.546798 0.139879 0.399043
  H 3.099645 0.481466 1.249091
  C 3.213702 -0.343182 -0.803755
  C 4.458659 -0.442669 -1.051925
  C 5.059050 -0.861343 -2.095613
  C 4.603426 -1.390194 -3.413917
  H 3.564120 -1.484752 -3.650164
  O 6.260572 -0.823721 -2.002147
  H 2.568473 -0.664456 -1.603776
  H 5.104840 -0.118244 -0.243833
  H 5.073112 -2.374163 -3.527233
  H 5.073467 -0.757605 -4.175873
  H 6.524761 -0.441006 -1.047891
 14
 0.000000
  H 1.518871 0.133182 0.382692
  C 2.588623 0.141916 0.404113
  H 3.134457 0.485063 1.258056
  C 3.284080 -0.352509 -0.827001
  C 4.466410 -0.456810 -1.087175
  C 5.032800 -0.860700 -2.094013
  C 4.597639 -1.391938 -3.418261
  H 3.562096 -1.492055 -3.668346
  O 6.171587 -0.808747 -1.964827
  H 2.645453 -0.675609 -1.631573
  H 5.125766 -0.136078 -0.288300
  H 5.074060 -2.373373 -3.525267
  H 5.074406 -0.756813 -4.173903
  H 6.370236 -0.401521 -0.949451
 14
 0.000000
  H 1.555930 0.133129 0.382561
  C 2.625428 0.145510 0.413061
  H 3.162820 0.490500 1.271606
  C 3.354320 -0.361357 -0.849057
  C 4.477713 -0.469681 -1.119259
  C 5.011763 -0.860528 -2.093589
  C 4.594388 -1.393744 -3.422759
  H 3.562277 -1.498657 -3.684780
  O 6.087830 -0.796931 -1.935378
  H 2.723651 -0.686619 -1.659018
  H 5.150474 -0.152829 -0.330066
  H 5.076560 -2.372957 -3.524232
  H 5.076897 -0.756395 -4.172864
  H 6.212559 -0.365075 -0.858583
 14
 0.000000
  H 1.586405 0.134730 0.386552
  C 2.655473 0.151543 0.428089
  H 3.182543 0.498734 1.292131
  C 3.425141 -0.369677 -0.869798
  C 4.493105 -0.481197 -1.147965
  C 4.996677 -0.861201 -2.095269
  C 4.593944 -1.395979 -3.428323
  H 3.564767 -1.504816 -3.700107
  O 6.009486 -0.788622 -1.914670
  H 2.804217 -0.697531 -1.686222
  H 5.179503 -0.168423 -0.368951
  H 5.080780 -2.373347 -3.525206
  H 5.081107 -0.756784 -4.173836
  H 6.050096 -0.331679 -0.775314
 14
 0.000000
  H 1.607383 0.138850 0.396818
  C 2.675759 0.160995 0.451632
  H 3.190318 0.510778 1.322150
  C 3.495875 -0.377220 -0.888602
  C 4.512645 -0.490898 -1.172148
  C 4.988784 -0.863182 -2.100209
  C 4.596672 -1.399057 -3.435986
  H 3.569686 -1.510728 -3.714816
  O 5.938916 -0.784491 -1.904370
  H 2.886782 -0.708139 -1.712671
  H 5.212472 -0.182275 -0.403491
  H 5.086853 -2.375079 -3.529520
  H 5.087169 -0.758516 -4.178149
  H 5.885288 -0.302292 -0.702033
 14
 0.000000
  H 1.616046 0.146412 0.415658
  C 2.683356 0.174866 0.486187
  H 3.182977 0.527639 1.364175
  C 3.566240 -0.383750 -0.904884
  C 4.536063 -0.498351 -1.190725
  C 4.988881 -0.866975 -2.109664
  C 4.602644 -1.403446 -3.446914
  H 3.576892 -1.516682 -3.729628
  O 5.878203 -0.785058 -1.905780
  H 2.971301 -0.718223 -1.737818
  H 5.248673 -0.193808 -0.432249
  H 5.094663 -2.378718 -3.538589
  H 5.094969 -0.762156 -4.187219
  H 5.720749 -0.277675 -0.640636
 14
 0.000000
  H 1.608910 0.158620 0.446069
  C 2.674646 0.194381 0.534804
  H 3.156783 0.550512 1.421180
  C 3.635840 -0.389013 -0.918005
  C 4.562942 -0.503108 -1.202580
  C 4.997798 -0.873297 -2.125421
  C 4.611922 -1.409808 -3.462760
  H 3.586245 -1.523146 -3.745711
  O 5.830212 -0.790943 -1.920441
  H 3.057507 -0.727502 -1.760960
  H 5.287163 -0.202385 -0.453635
  H 5.104059 -2.385033 -3.554321
  H 5.104355 -0.768471 -4.202953
  H 5.561098 -0.258345 -0.592416
 14
 0.000000
  H 1.583072 0.176192 0.489840
  C 2.646617 0.220128 0.598943
  H 3.108964 0.579878 1.494363
  C 3.703605 -0.392755 -0.927332
  C 4.592146 -0.504768 -1.206714
  C 5.015560 -0.882617 -2.148647
  C 4.624272 -1.418589 -3.484633
  H 3.597454 -1.530497 -3.764005
  O 5.797953 -0.802232 -1.948566
  H 3.144115 -0.735609 -1.781179
  H 5.326121 -0.207342 -0.465992
  H 5.114727 -2.394500 -3.577907
  H 5.115014 -0.777939 -4.226543
  H 5.413614 -0.244420 -0.557667
 14
 0.000000
  H 1.536774 0.199645 0.548256
  C 2.597411 0.252477 0.679533
  H 3.037941 0.616004 1.584387
  C 3.769727 -0.394846 -0.932541
  C 4.622732 -0.503227 -1.202862
  C 5.041343 -0.895233 -2.180086
  C 4.638941 -1.430069 -3.513231
  H 3.609824 -1.539023 -3.785229
  O 5.782438 -0.818678 -1.989544
  H 3.231070 -0.742296 -1.797858
  H 5.364363 -0.208446 -0.468738
  H 5.125911 -2.407385 -3.610011
  H 5.126191 -0.790826 -4.258651
  H 5.282669 -0.235065 -0.534310
 14
 0.000000
  H 1.505867 0.210915 0.576326
  C 2.564890 0.268085 0.718413
  H 2.994678 0.633391 1.627710
  C 3.792910 -0.394216 -0.930969
  C 4.632725 -0.500254 -1.195446
  C 5.053001 -0.899814 -2.191498
  C 4.646487 -1.434222 -3.523572
  H 3.616533 -1.542081 -3.792835
  O 5.780252 -0.824852 -2.004924
  H 3.264531 -0.743849 -1.801733
  H 5.375648 -0.205925 -0.462449
  H 5.132158 -2.412056 -3.621645
  H 5.132436 -0.795498 -4.270287
  H 5.232428 -0.230464 -0.522824
 14
 0.000000
  H 1.367584 0.269696 0.722723
  C 2.418491 0.344787 0.909487
  H 2.803127 0.716986 1.836013
  C 3.924649 -0.392860 -0.927577
  C 4.696533 -0.488578 -1.166312
  C 5.119410 -0.933922 -2.276495
  C 4.673406 -1.463944 -3.597623
  H 3.635841 -1.561170 -3.840373
  O 5.792823 -0.870378 -2.118364
  H 3.439630 -0.751082 -1.819782
  H 5.450404 -0.198142 -0.443015
  H 5.146317 -2.446706 -3.707982
  H 5.146587 -0.830152 -4.356634
  H 5.030154 -0.227667 -0.515783
