 25
 0.000000
  C 0.963993 0.142763 0.412211
  C 2.436217 0.142577 0.396475
  C 3.231515 0.607109 1.554009
  C 2.465984 1.095129 2.777222
  H 3.161853 1.405303 3.548339
  C 3.049952 -0.322761 -0.764072
  C 4.433801 -0.410535 -0.975260
  C 5.092826 -0.862201 -2.093846
  C 4.625117 -1.382095 -3.388486
  C 3.143631 -1.507179 -3.708316
  H 3.022648 -1.909205 -4.708632
  H 6.174220 -0.848365 -2.053064
  H 0.542389 0.505078 1.342240
  H 0.593029 -0.867777 0.233921
  H 0.578438 0.757517 -0.402739
  H 3.890325 1.413601 1.212514
  H 3.893744 -0.209838 1.862239
  H 1.836983 0.306167 3.184420
  H 1.833360 1.944693 2.528384
  H 2.389764 -0.640330 -1.554057
  H 5.064622 -0.081846 -0.159521
  H 5.097216 -2.366411 -3.508743
  H 5.101196 -0.757397 -4.156150
  H 2.655316 -0.535794 -3.677036
  H 2.651397 -2.184464 -3.014023
 25
 0.209491
  C 0.969974 0.382348 0.336135
  C 2.430483 0.204315 0.367591
  C 3.220508 0.458151 1.591663
  C 2.462152 0.917922 2.826763
  H 3.158809 1.037753 3.652093
  C 3.037704 -0.236199 -0.806234
  C 4.415796 -0.231132 -1.055445
  C 5.072110 -0.658757 -2.185249
  C 4.624425 -1.366139 -3.389208
  C 3.164615 -1.735147 -3.587697
  H 3.063465 -2.290323 -4.517255
  H 6.139337 -0.469923 -2.196090
  H 0.582408 0.872711 1.218616
  H 0.482935 -0.588995 0.236505
  H 0.687347 0.947276 -0.551926
  H 3.993079 1.198668 1.355909
  H 3.771286 -0.457431 1.835077
  H 1.713748 0.189463 3.128414
  H 1.976364 1.876739 2.662436
  H 2.375836 -0.552590 -1.595276
  H 5.045716 0.210975 -0.295208
  H 5.236276 -2.278566 -3.442769
  H 4.974228 -0.779470 -4.249837
  H 2.540422 -0.849638 -3.668969
  H 2.804379 -2.368456 -2.782103
 25
 2.195754
  C 0.999627 0.553487 0.287067
  C 2.420336 0.176945 0.379270
  C 3.185434 0.286267 1.635734
  C 2.468673 0.876531 2.839650
  H 3.134204 0.861823 3.697217
  C 3.024346 -0.278499 -0.792508
  C 4.375647 -0.133221 -1.109660
  C 5.021518 -0.500416 -2.267959
  C 4.612073 -1.318407 -3.414154
  C 3.213868 -1.906645 -3.492521
  H 3.136554 -2.516433 -4.389095
  H 6.042010 -0.147603 -2.359248
  H 0.643626 1.069263 1.167306
  H 0.379058 -0.328886 0.121987
  H 0.868805 1.184124 -0.591438
  H 4.099424 0.857888 1.442107
  H 3.541971 -0.718432 1.891136
  H 1.584697 0.301527 3.099218
  H 2.179455 1.908411 2.660940
  H 2.360611 -0.666913 -1.551607
  H 4.980382 0.418633 -0.401289
  H 5.347662 -2.133527 -3.470556
  H 4.813644 -0.730512 -4.318499
  H 2.460330 -1.127436 -3.566833
  H 3.004627 -2.543438 -2.637266
 25
 5.646734
  C 1.050913 0.702655 0.252254
  C 2.405159 0.146016 0.394126
  C 3.143345 0.151213 1.667458
  C 2.489523 0.846284 2.851164
  H 3.120407 0.733415 3.728925
  C 3.007320 -0.342308 -0.774356
  C 4.314575 -0.057139 -1.157831
  C 4.956731 -0.383354 -2.328564
  C 4.599446 -1.282027 -3.434479
  C 3.281465 -2.037206 -3.419222
  H 3.228036 -2.673458 -4.299894
  H 5.916126 0.097659 -2.479810
  H 0.729949 1.246741 1.130607
  H 0.319887 -0.078862 0.033840
  H 1.066873 1.361509 -0.615798
  H 4.143248 0.564921 1.495553
  H 3.332609 -0.896926 1.928710
  H 1.520585 0.412255 3.084240
  H 2.365445 1.909113 2.663952
  H 2.356147 -0.835730 -1.480519
  H 4.873560 0.591158 -0.492766
  H 5.425505 -2.003159 -3.506996
  H 4.677705 -0.702327 -4.363034
  H 2.435108 -1.356831 -3.462364
  H 3.201630 -2.674016 -2.542245
 25
 10.497730
  C 1.124867 0.879670 0.221063
  C 2.400199 0.175077 0.388334
  C 3.104093 0.061133 1.673759
  C 2.495931 0.777124 2.870300
  H 3.092601 0.571762 3.755063
  C 2.986224 -0.352387 -0.778818
  C 4.240500 0.038537 -1.234209
  C 4.884491 -0.297398 -2.400007
  C 4.583821 -1.289129 -3.443290
  C 3.341110 -2.159002 -3.335048
  H 3.311721 -2.840791 -4.181904
  H 5.788096 0.261898 -2.606952
  H 0.855153 1.461782 1.093505
  H 0.308961 0.191209 -0.004675
  H 1.239356 1.523541 -0.652539
  H 4.147625 0.370638 1.532497
  H 3.178711 -1.011552 1.894307
  H 1.483813 0.434509 3.067551
  H 2.482626 1.853880 2.720100
  H 2.357940 -0.974168 -1.401396
  H 4.744122 0.784714 -0.630128
  H 5.470409 -1.933848 -3.508130
  H 4.571039 -0.756949 -4.402522
  H 2.435432 -1.559633 -3.372562
  H 3.356054 -2.756758 -2.427445
 25
 17.491964
  C 1.234393 1.051696 0.199739
  C 2.410639 0.206420 0.391481
  C 3.050510 -0.021136 1.695700
  C 2.485922 0.723249 2.898731
  H 3.023352 0.421580 3.794209
  C 3.002291 -0.364752 -0.772356
  C 4.161330 0.136456 -1.335878
  C 4.805816 -0.228373 -2.495704
  C 4.553552 -1.304285 -3.471445
  C 3.389528 -2.262076 -3.261615
  H 3.372059 -2.981695 -4.077579
  H 5.644306 0.395888 -2.773227
  H 0.997902 1.641265 1.075041
  H 0.354722 0.450238 -0.053186
  H 1.420686 1.689193 -0.665142
  H 4.128098 0.173351 1.592910
  H 3.005535 -1.102878 1.881332
  H 1.433628 0.495032 3.050504
  H 2.603529 1.800170 2.788250
  H 2.441209 -1.142993 -1.267404
  H 4.610256 0.969803 -0.807460
  H 5.485402 -1.880519 -3.541258
  H 4.455070 -0.829034 -4.456204
  H 2.439604 -1.735305 -3.273652
  H 3.499636 -2.817928 -2.333849
 25
 24.470969
  C 1.411856 1.209676 0.179904
  C 2.474670 0.245793 0.412035
  C 3.000877 -0.084894 1.731860
  C 2.430354 0.664556 2.926489
  H 2.883935 0.287869 3.839491
  C 3.081011 -0.363946 -0.750029
  C 4.123438 0.219203 -1.433464
  C 4.728845 -0.182202 -2.608466
  C 4.483428 -1.324704 -3.513602
  C 3.385240 -2.328198 -3.188572
  H 3.356332 -3.085060 -3.969455
  H 5.522478 0.463829 -2.962159
  H 1.194522 1.824792 1.045676
  H 0.495391 0.676905 -0.096205
  H 1.652783 1.812690 -0.697628
  H 4.094035 0.012188 1.694700
  H 2.856306 -1.166242 1.874773
  H 1.355508 0.526592 3.007294
  H 2.646833 1.727908 2.864207
  H 2.608524 -1.261316 -1.120724
  H 4.534149 1.118330 -0.990872
  H 5.436716 -1.859641 -3.609874
  H 4.302259 -0.906252 -4.511850
  H 2.410066 -1.849222 -3.162468
  H 3.582181 -2.835407 -2.247980
 25
 17.001391
  C 1.612805 1.369163 0.163087
  C 2.565119 0.284915 0.403679
  C 2.950711 -0.158801 1.747005
  C 2.341908 0.591236 2.925138
  H 2.689440 0.144522 3.855769
  C 3.175146 -0.329886 -0.733380
  C 4.098791 0.317979 -1.545666
  C 4.654269 -0.130675 -2.721155
  C 4.412108 -1.330507 -3.545790
  C 3.379818 -2.365254 -3.113235
  H 3.338777 -3.156997 -3.860851
  H 5.404161 0.519771 -3.153330
  H 1.436826 1.995253 1.032023
  H 0.661206 0.904311 -0.113888
  H 1.885529 1.953616 -0.713039
  H 4.045038 -0.138997 1.800938
  H 2.709104 -1.227803 1.836208
  H 1.254428 0.537198 2.913249
  H 2.644999 1.637691 2.928094
  H 2.841109 -1.325266 -0.985469
  H 4.460180 1.274511 -1.182915
  H 5.384318 -1.827917 -3.672188
  H 4.158985 -0.967740 -4.552133
  H 2.387275 -1.926945 -3.045371
  H 3.654200 -2.825726 -2.168413
 25
 9.556976
  C 1.812928 1.484090 0.167562
  C 2.655370 0.310692 0.407121
  C 2.889084 -0.235653 1.758443
  C 2.243080 0.505925 2.918171
  H 2.472161 -0.009033 3.846666
  C 3.269039 -0.306678 -0.699545
  C 4.068883 0.369550 -1.622323
  C 4.573836 -0.112182 -2.803987
  C 4.327683 -1.352948 -3.558450
  C 3.375868 -2.409486 -3.018575
  H 3.303977 -3.221016 -3.740302
  H 5.270853 0.544865 -3.311652
  H 1.695465 2.122925 1.037417
  H 0.818783 1.108127 -0.098452
  H 2.137550 2.036095 -0.714365
  H 3.971890 -0.300249 1.907930
  H 2.554575 -1.281638 1.772154
  H 1.162760 0.542322 2.813176
  H 2.624826 1.520345 3.002892
  H 3.094729 -1.362932 -0.833049
  H 4.373555 1.367958 -1.339730
  H 5.307415 -1.812161 -3.742158
  H 3.989060 -1.038750 -4.554067
  H 2.377754 -2.004361 -2.875758
  H 3.743269 -2.837115 -2.089683
 25
 3.925960
  C 2.042007 1.588662 0.182286
  C 2.771683 0.338878 0.413472
  C 2.818411 -0.295470 1.742281
  C 2.123327 0.446552 2.874083
  H 2.203861 -0.133004 3.790650
  C 3.405093 -0.286193 -0.663698
  C 4.082836 0.398573 -1.687922
  C 4.518419 -0.103865 -2.885824
  C 4.233405 -1.364508 -3.580824
  C 3.363390 -2.423677 -2.927131
  H 3.209390 -3.241722 -3.632256
  H 5.142571 0.558452 -3.470731
  H 2.013751 2.238422 1.051959
  H 1.007277 1.318628 -0.039470
  H 2.402111 2.096702 -0.707719
  H 3.869597 -0.464561 1.997891
  H 2.392430 -1.299322 1.658599
  H 1.067524 0.594628 2.660762
  H 2.584420 1.415358 3.057577
  H 3.399552 -1.366539 -0.685590
  H 4.351906 1.426138 -1.477481
  H 5.199984 -1.805355 -3.857104
  H 3.791279 -1.080595 -4.544630
  H 2.388832 -2.022514 -2.661155
  H 3.842302 -2.843354 -2.047610
 25
 4.206302
  C 2.112038 1.454818 0.048855
  C 2.890698 0.269052 0.427579
  C 2.825552 -0.309457 1.785234
  C 2.003954 0.463702 2.804092
  H 1.991856 -0.074817 3.747744
  C 3.653456 -0.342653 -0.558712
  C 4.244327 0.364757 -1.625097
  C 4.594432 -0.099580 -2.861575
  C 4.129864 -1.295512 -3.580171
  C 3.258445 -2.305388 -2.851577
  H 2.882860 -3.035298 -3.562205
  H 5.203211 0.555512 -3.471768
  H 2.040381 2.197261 0.837763
  H 1.090657 1.122878 -0.164359
  H 2.486159 1.858876 -0.889900
  H 3.848426 -0.454420 2.147985
  H 2.414992 -1.324547 1.699956
  H 0.977948 0.584884 2.469591
  H 2.428472 1.446409 2.993784
  H 3.820820 -1.407833 -0.492248
  H 4.561280 1.374221 -1.388441
  H 5.014828 -1.796910 -3.991252
  H 3.598257 -0.932070 -4.469696
  H 2.406621 -1.817088 -2.383948
  H 3.822488 -2.847828 -2.098308
