 21
 0.000000
  C 0.902505 0.049715 0.208242
  C 2.402102 0.057793 0.089236
  C 3.246535 -0.014904 1.349513
  C 2.525092 -0.084202 2.693080
  C 3.528316 -0.150804 3.839879
  C 3.010716 0.126514 -1.088362
  C 2.364839 0.201954 -2.434595
  H 1.280900 0.199482 -2.433222
  H 4.091937 0.131290 -1.130743
  H 0.571751 -0.021086 1.238288
  H 0.480023 -0.803292 -0.321370
  H 0.474286 0.964180 -0.198209
  H 3.901413 0.862290 1.369568
  H 3.892884 -0.895442 1.274197
  H 1.888291 -0.970687 2.734659
  H 1.896362 0.798467 2.829865
  H 4.159190 -1.032605 3.749298
  H 3.009312 -0.199979 4.794891
  H 4.167388 0.729721 3.844503
  H 2.705354 -0.640373 -3.039603
  H 2.701292 1.109284 -2.939623
 21
 5.508044
  C 0.894479 -0.009714 0.201154
  C 2.354389 0.053519 0.086548
  C 3.245297 -0.024208 1.364796
  C 2.529701 -0.074129 2.702915
  C 3.533359 -0.144087 3.848373
  C 2.984859 0.141136 -1.082312
  C 2.352265 0.211175 -2.437126
  H 1.268751 0.176158 -2.391015
  H 4.068030 0.178157 -1.093581
  H 0.514762 -0.051163 1.214924
  H 0.445871 -0.814607 -0.375125
  H 0.715035 0.951091 -0.254032
  H 3.910921 0.839495 1.364576
  H 3.877740 -0.908799 1.282121
  H 1.882511 -0.953618 2.749416
  H 1.911545 0.818437 2.830180
  H 4.153762 -1.034075 3.759835
  H 3.018101 -0.179829 4.805839
  H 4.183829 0.728776 3.841938
  H 2.700074 -0.619157 -3.053150
  H 2.650851 1.132431 -2.939792
 21
 17.460238
  C 0.891972 -0.053139 0.220742
  C 2.337541 0.043000 0.095979
  C 3.253473 -0.036758 1.351348
  C 2.527468 -0.064618 2.696113
  C 3.520845 -0.137467 3.845413
  C 2.966611 0.157424 -1.068217
  C 2.337718 0.217152 -2.427389
  H 1.253310 0.139898 -2.388983
  H 4.045982 0.243476 -1.072866
  H 0.491885 -0.047626 1.218693
  H 0.424922 -0.815569 -0.385439
  H 0.933630 0.900618 -0.240922
  H 3.931505 0.818892 1.329785
  H 3.865447 -0.936683 1.259774
  H 1.868893 -0.932241 2.744347
  H 1.920647 0.834860 2.809355
  H 4.130291 -1.036940 3.767002
  H 2.999711 -0.157837 4.800612
  H 4.183731 0.726940 3.834018
  H 2.718171 -0.596989 -3.048990
  H 2.602500 1.155715 -2.921460
 21
 32.038839
  C 0.864001 -0.094865 0.218716
  C 2.316317 0.037249 0.087419
  C 3.240653 -0.042777 1.364227
  C 2.528080 -0.054077 2.704576
  C 3.533382 -0.127278 3.850591
  C 2.959456 0.166695 -1.074386
  C 2.335510 0.228498 -2.440640
  H 1.251983 0.142398 -2.410645
  H 4.039224 0.263999 -1.069347
  H 0.447891 -0.090591 1.216404
  H 0.385802 -0.813443 -0.430698
  H 1.087664 0.871682 -0.215190
  H 3.931162 0.808529 1.334547
  H 3.841100 -0.955762 1.272328
  H 1.862648 -0.917941 2.763783
  H 1.929308 0.853930 2.815331
  H 4.133101 -1.029196 3.775022
  H 3.021442 -0.136358 4.808288
  H 4.201996 0.728401 3.829076
  H 2.723476 -0.577493 -3.064979
  H 2.593421 1.171022 -2.928896
 21
 45.312917
  C 0.869249 -0.125539 0.249281
  C 2.318231 0.036913 0.090591
  C 3.225832 -0.039131 1.352062
  C 2.515915 -0.046435 2.685713
  C 3.520107 -0.118759 3.827116
  C 2.971452 0.170699 -1.069453
  C 2.337239 0.234047 -2.441234
  H 1.252438 0.150024 -2.398216
  H 4.051783 0.266641 -1.059029
  H 0.466980 -0.131782 1.254707
  H 0.365900 -0.788894 -0.423394
  H 1.226759 0.834709 -0.132217
  H 3.922206 0.815225 1.322800
  H 3.823236 -0.960383 1.258439
  H 1.849935 -0.908190 2.747261
  H 1.918479 0.861761 2.795040
  H 4.117912 -1.020209 3.752944
  H 3.010937 -0.125602 4.783960
  H 4.189877 0.734693 3.804026
  H 2.715751 -0.572717 -3.073904
  H 2.591579 1.179130 -2.934544
 21
 54.581412
  C 0.851718 -0.151862 0.237016
  C 2.308481 0.042939 0.076749
  C 3.222300 -0.036267 1.352946
  C 2.516739 -0.039202 2.701355
  C 3.528963 -0.111560 3.834873
  C 2.970767 0.178082 -1.089639
  C 2.341124 0.234994 -2.446351
  H 1.260735 0.153980 -2.395455
  H 4.050989 0.275475 -1.074763
  H 0.450919 -0.188382 1.232673
  H 0.332715 -0.755435 -0.484829
  H 1.317521 0.827070 -0.081979
  H 3.914787 0.798461 1.322810
  H 3.801826 -0.943550 1.258960
  H 1.847264 -0.902976 2.772413
  H 1.922057 0.871846 2.814957
  H 4.131936 -1.029514 3.755043
  H 3.019827 -0.115253 4.804340
  H 4.208589 0.752818 3.803291
  H 2.711432 -0.568741 -3.073030
  H 2.591870 1.168185 -2.940464
 21
 61.999780
  C 0.857590 -0.176689 0.246554
  C 2.311436 0.044352 0.074649
  C 3.212597 -0.035429 1.344187
  C 2.505880 -0.035133 2.697219
  C 3.530081 -0.104481 3.844099
  C 2.975592 0.181173 -1.097223
  C 2.337559 0.237356 -2.458996
  H 1.250812 0.160953 -2.401654
  H 4.056787 0.276811 -1.079829
  H 0.469395 -0.233829 1.242925
  H 0.318204 -0.716485 -0.511588
  H 1.407785 0.814840 -0.012236
  H 3.919655 0.809878 1.315286
  H 3.798352 -0.959082 1.250017
  H 1.837475 -0.897227 2.770775
  H 1.909158 0.875814 2.807614
  H 4.134312 -1.023523 3.766434
  H 3.017633 -0.105909 4.819083
  H 4.210377 0.761782 3.810307
  H 2.701142 -0.571864 -3.091212
  H 2.588915 1.172619 -2.961006
 21
 66.992986
  C 0.847625 -0.207229 0.243150
  C 2.305054 0.045987 0.081609
  C 3.214549 -0.038656 1.352251
  C 2.515047 -0.031439 2.697437
  C 3.529920 -0.092571 3.826354
  C 2.976353 0.183504 -1.097206
  C 2.342296 0.238582 -2.449444
  H 1.259179 0.169564 -2.389543
  H 4.065636 0.279489 -1.077921
  H 0.446864 -0.300100 1.231101
  H 0.299864 -0.660538 -0.553787
  H 1.469503 0.816953 0.052621
  H 3.916695 0.791098 1.319499
  H 3.788526 -0.952762 1.259303
  H 1.852266 -0.889039 2.778693
  H 1.922069 0.873110 2.804503
  H 4.127460 -0.999570 3.752761
  H 3.029217 -0.089516 4.788061
  H 4.200170 0.762414 3.786521
  H 2.699417 -0.575020 -3.077650
  H 2.597851 1.169344 -2.954600
 21
 71.232959
  C 0.852921 -0.235538 0.240662
  C 2.305643 0.045448 0.079458
  C 3.223427 -0.043201 1.350909
  C 2.517463 -0.029046 2.704777
  C 3.534074 -0.082426 3.838250
  C 2.976206 0.182337 -1.107255
  C 2.340850 0.244833 -2.463548
  H 1.261167 0.187450 -2.402797
  H 4.044191 0.272586 -1.088349
  H 0.445382 -0.358216 1.234736
  H 0.292806 -0.610550 -0.580742
  H 1.527643 0.816371 0.100908
  H 3.924469 0.780809 1.312752
  H 3.796800 -0.962206 1.258778
  H 1.844809 -0.903849 2.791713
  H 1.911776 0.894354 2.808982
  H 4.129527 -0.983031 3.770751
  H 3.032016 -0.075509 4.801947
  H 4.204307 0.774239 3.794815
  H 2.692366 -0.583432 -3.099643
  H 2.607887 1.185403 -2.976323
 21
 74.778246
  C 0.857088 -0.265619 0.238170
  C 2.304555 0.046713 0.079571
  C 3.222818 -0.046254 1.343913
  C 2.514666 -0.026291 2.702106
  C 3.538522 -0.072867 3.852581
  C 2.977336 0.182047 -1.112787
  C 2.339969 0.248966 -2.469417
  H 1.247619 0.199531 -2.408507
  H 4.064641 0.273329 -1.090313
  H 0.444042 -0.398570 1.225959
  H 0.286890 -0.568660 -0.602792
  H 1.577477 0.819459 0.139006
  H 3.925783 0.775695 1.300773
  H 3.788649 -0.959754 1.253747
  H 1.850410 -0.888926 2.789937
  H 1.916221 0.880539 2.797764
  H 4.135121 -0.970301 3.793071
  H 3.036215 -0.062003 4.812888
  H 4.204391 0.778565 3.808700
  H 2.682051 -0.576665 -3.102167
  H 2.611537 1.179017 -2.981021
 21
 77.348449
  C 0.854875 -0.302177 0.239968
  C 2.299885 0.050845 0.090479
  C 3.229192 -0.049897 1.355331
  C 2.524449 -0.023141 2.699670
  C 3.535818 -0.062477 3.833835
  C 2.977686 0.184110 -1.109641
  C 2.343913 0.253209 -2.458282
  H 1.267112 0.212292 -2.397520
  H 4.058003 0.277236 -1.086598
  H 0.433003 -0.433672 1.209279
  H 0.266868 -0.537902 -0.623006
  H 1.613147 0.834587 0.177265
  H 3.937424 0.775266 1.307504
  H 3.798715 -0.980660 1.262829
  H 1.857839 -0.890020 2.792008
  H 1.918195 0.893242 2.791462
  H 4.137066 -0.967454 3.775983
  H 3.029270 -0.047131 4.797720
  H 4.205451 0.798303 3.782734
  H 2.680865 -0.580155 -3.091136
  H 2.623668 1.184905 -2.974673
 21
 79.221448
  C 0.858447 -0.342407 0.229653
  C 2.296576 0.059510 0.089376
  C 3.235879 -0.051828 1.358186
  C 2.529327 -0.019006 2.701910
  C 3.539686 -0.055284 3.840816
  C 2.979499 0.190432 -1.118271
  C 2.349321 0.258303 -2.463648
  H 1.261048 0.223407 -2.403596
  H 4.050616 0.288320 -1.092630
  H 0.417459 -0.458183 1.203422
  H 0.263491 -0.516611 -0.635311
  H 1.650172 0.859114 0.193520
  H 3.946208 0.770851 1.307741
  H 3.798351 -0.985992 1.265424
  H 1.867613 -0.877840 2.794514
  H 1.927686 0.892157 2.788087
  H 4.140492 -0.961762 3.786793
  H 3.028992 -0.036109 4.806338
  H 4.209072 0.804362 3.787789
  H 2.680477 -0.574823 -3.088808
  H 2.633782 1.178178 -2.979541
 21
 80.176528
  C 0.875798 -0.402006 0.226354
  C 2.290090 0.073525 0.098986
  C 3.235093 -0.051336 1.358238
  C 2.531047 -0.013374 2.704913
  C 3.543460 -0.047491 3.841201
  C 2.981213 0.196815 -1.115677
  C 2.350749 0.264296 -2.463580
  H 1.265251 0.245055 -2.403169
  H 4.055567 0.300995 -1.085574
  H 0.413333 -0.466795 1.187347
  H 0.262348 -0.510640 -0.645905
  H 1.685949 0.892539 0.213295
  H 3.955560 0.771547 1.303473
  H 3.785001 -0.983830 1.261946
  H 1.861502 -0.877457 2.801843
  H 1.930194 0.899524 2.789263
  H 4.143633 -0.955734 3.788803
  H 3.038693 -0.024932 4.800292
  H 4.212664 0.809333 3.784712
  H 2.669577 -0.579405 -3.082383
  H 2.649807 1.176849 -2.988886
 21
 80.109737
  C 0.893657 -0.465408 0.218747
  C 2.284368 0.087518 0.106711
  C 3.233883 -0.049850 1.359114
  C 2.532877 -0.004068 2.707530
  C 3.547013 -0.038631 3.843394
  C 2.983320 0.207376 -1.117904
  C 2.350973 0.275626 -2.463183
  H 1.267746 0.272847 -2.399105
  H 4.055856 0.316060 -1.084609
  H 0.404215 -0.467467 1.172865
  H 0.276744 -0.528329 -0.657807
  H 1.724506 0.932713 0.220366
  H 3.960940 0.766218 1.301264
  H 3.773585 -0.986780 1.261202
  H 1.861404 -0.862234 2.807445
  H 1.936928 0.910620 2.788918
  H 4.144004 -0.950519 3.793335
  H 3.043828 -0.010817 4.802598
  H 4.219332 0.814970 3.783490
  H 2.653564 -0.575949 -3.075647
  H 2.664360 1.180410 -2.998268
