9

H 5.745890644112118 -1.1239192083683895 -2.0185868912595546
C 6.815772 -1.131256 -2.032731
C 7.53346 -1.643049 -3.037935
C 9.024192 -1.66141 -3.073201
H 7.322937 -0.697048 -1.179727
H 7.035123 -2.079646 -3.894557
H 9.45685 -1.206772 -2.183503
H 9.383882 -1.115693 -3.94704
H 9.385203 -2.688858 -3.143562
