 9
 0.000000
  H 5.750999 -1.128912 -2.028453
  C 6.826980 -1.133866 -2.037354
  C 7.532177 -1.638739 -3.029788
  C 9.022562 -1.660736 -3.071802
  H 7.322624 -0.699865 -1.183762
  H 7.031966 -2.074292 -3.885455
  H 9.453546 -1.205884 -2.183225
  H 9.380662 -1.118484 -3.946847
  H 9.381795 -2.686873 -3.144156
 9
 3.452022
  H 5.766336 -1.190526 -2.033927
  C 6.841469 -1.142346 -2.036666
  C 7.569007 -1.633351 -3.023481
  C 9.040781 -1.615566 -3.076484
  H 7.299572 -0.689567 -1.172248
  H 7.077340 -2.083670 -3.876962
  H 9.497905 -1.188213 -2.188109
  H 9.425457 -1.129823 -3.968542
  H 9.184049 -2.674988 -3.135251
 9
 11.314879
  H 5.764717 -1.258168 -2.023569
  C 6.843551 -1.147583 -2.036843
  C 7.590901 -1.618453 -3.018453
  C 9.068213 -1.581128 -3.078988
  H 7.281036 -0.681508 -1.175537
  H 7.112275 -2.087118 -3.876278
  H 9.544711 -1.185425 -2.198570
  H 9.470626 -1.150374 -3.987677
  H 9.012825 -2.645758 -3.116958
 9
 21.244307
  H 5.776595 -1.311682 -2.014944
  C 6.848747 -1.160528 -2.039006
  C 7.603970 -1.612814 -3.024948
  C 9.083941 -1.556411 -3.081830
  H 7.278650 -0.689687 -1.180139
  H 7.130861 -2.081045 -3.885982
  H 9.565851 -1.168075 -2.202753
  H 9.506460 -1.181730 -4.002514
  H 8.870625 -2.609444 -3.082459
 9
 31.337337
  H 5.780244 -1.352950 -2.019133
  C 6.848902 -1.177519 -2.039661
  C 7.614614 -1.612076 -3.028575
  C 9.100911 -1.535788 -3.087451
  H 7.273043 -0.702649 -1.164694
  H 7.140397 -2.068573 -3.894255
  H 9.582825 -1.145633 -2.211137
  H 9.537127 -1.219379 -4.024696
  H 8.756301 -2.577200 -3.044530
 9
 40.135571
  H 5.785533 -1.382938 -2.021570
  C 6.846446 -1.197716 -2.034654
  C 7.618866 -1.611960 -3.031740
  C 9.115711 -1.521372 -3.094723
  H 7.262513 -0.736006 -1.152818
  H 7.145599 -2.039120 -3.912587
  H 9.597366 -1.107713 -2.225152
  H 9.556465 -1.279075 -4.043804
  H 8.666354 -2.538607 -2.994491
 9
 46.906309
  H 5.786229 -1.406967 -2.023973
  C 6.844919 -1.217195 -2.029910
  C 7.621565 -1.609889 -3.038495
  C 9.120984 -1.508116 -3.098068
  H 7.259413 -0.780092 -1.136029
  H 7.149021 -2.004425 -3.937382
  H 9.600504 -1.064910 -2.247632
  H 9.572848 -1.348109 -4.059884
  H 8.592854 -2.497992 -2.936091
 9
 52.375041
  H 5.778767 -1.420453 -2.030586
  C 6.838919 -1.234923 -2.023967
  C 7.623027 -1.612380 -3.039141
  C 9.125904 -1.496097 -3.104743
  H 7.249171 -0.817142 -1.120024
  H 7.150873 -1.977513 -3.947624
  H 9.611188 -1.032297 -2.268711
  H 9.581424 -1.402928 -4.072106
  H 8.536812 -2.468088 -2.894733
 9
 57.159170
  H 5.775542 -1.434286 -2.031748
  C 6.833640 -1.240360 -2.022914
  C 7.624218 -1.616415 -3.040183
  C 9.126327 -1.487537 -3.108732
  H 7.242461 -0.838918 -1.110039
  H 7.148212 -1.968484 -3.950826
  H 9.615348 -1.016416 -2.280065
  H 9.586387 -1.432515 -4.076814
  H 8.486459 -2.450967 -2.873508
 9
 60.937529
  H 5.764430 -1.429702 -2.037745
  C 6.826189 -1.257050 -2.014604
  C 7.621601 -1.627954 -3.036517
  C 9.126886 -1.475709 -3.115398
  H 7.232195 -0.863132 -1.098590
  H 7.144382 -1.960437 -3.955032
  H 9.622073 -1.000192 -2.293992
  H 9.587806 -1.459554 -4.082391
  H 8.450329 -2.438640 -2.851652
 9
 64.551898
  H 5.760581 -1.443549 -2.033690
  C 6.821284 -1.269729 -2.008430
  C 7.619864 -1.635742 -3.036450
  C 9.122276 -1.466804 -3.118886
  H 7.227458 -0.861999 -1.098199
  H 7.141643 -1.949059 -3.960602
  H 9.620100 -0.995533 -2.297487
  H 9.586321 -1.476599 -4.083879
  H 8.409196 -2.436854 -2.840309
 9
 67.439464
  H 5.750234 -1.440501 -2.037222
  C 6.811721 -1.281023 -2.001906
  C 7.614690 -1.643821 -3.034103
  C 9.119190 -1.452152 -3.126332
  H 7.216778 -0.879920 -1.088017
  H 7.135351 -1.943972 -3.961387
  H 9.625340 -0.983240 -2.309197
  H 9.588135 -1.497150 -4.086902
  H 8.374873 -2.435831 -2.824919
 9
 70.030029
  H 5.739828 -1.436165 -2.042332
  C 6.801808 -1.285989 -1.997300
  C 7.610509 -1.648192 -3.032285
  C 9.111919 -1.430291 -3.137213
  H 7.205792 -0.914087 -1.072040
  H 7.129937 -1.937508 -3.963741
  H 9.628603 -0.964750 -2.325546
  H 9.590071 -1.531484 -4.088469
  H 8.341719 -2.432373 -2.802392
 9
 72.263891
  H 5.732227 -1.444284 -2.039059
  C 6.794888 -1.300422 -1.989533
  C 7.608916 -1.658636 -3.031190
  C 9.100679 -1.406788 -3.147524
  H 7.198266 -0.921422 -1.067515
  H 7.126352 -1.923750 -3.968043
  H 9.628292 -0.958944 -2.332426
  H 9.587126 -1.555374 -4.087126
  H 8.304171 -2.450347 -2.784473
