 20
 0.000000
  C 1.007814 -0.071133 0.048137
  C 2.503730 -0.082878 0.024940
  C 3.218449 -0.596221 -0.981944
  C 4.656362 -0.606951 -1.002881
  C 5.376890 -1.122148 -2.014198
  C 6.815495 -1.131221 -2.031948
  C 7.534427 -1.642320 -3.036275
  C 9.024430 -1.660889 -3.072963
  H 0.648939 0.396185 0.964304
  H 0.611567 -1.085947 0.011361
  H 0.611431 0.494832 -0.794945
  H 3.005004 0.352869 0.879456
  H 2.706708 -1.029880 -1.832741
  H 5.160918 -0.171837 -0.148905
  H 4.873260 -1.557247 -2.868633
  H 7.321628 -0.696666 -1.178365
  H 7.036410 -2.078480 -3.893512
  H 9.458214 -1.208146 -2.182713
  H 9.383800 -1.114197 -3.946204
  H 9.383925 -2.688703 -3.145422
 20
 3.177704
  C 1.079147 0.022993 0.012258
  C 2.551083 -0.083628 -0.023425
  C 3.221049 -0.666926 -1.006834
  C 4.638867 -0.741787 -0.996101
  C 5.358660 -1.285900 -1.987143
  C 6.778710 -1.259505 -1.979746
  C 7.508259 -1.686979 -2.994045
  C 8.969710 -1.540432 -3.050983
  H 0.813714 0.508715 0.929575
  H 0.619437 -0.964941 -0.003640
  H 0.689253 0.595871 -0.827172
  H 3.090489 0.334757 0.815553
  H 2.696368 -1.092126 -1.852210
  H 5.143692 -0.301655 -0.145327
  H 4.868721 -1.715853 -2.850908
  H 7.259403 -0.810027 -1.120705
  H 7.035324 -2.118631 -3.866290
  H 9.378383 -1.091152 -2.149761
  H 9.186712 -0.899319 -3.895683
  H 9.451881 -2.504743 -3.211604
 20
 2.402879
  C 1.116381 0.222001 -0.025743
  C 2.576143 -0.048903 -0.081625
  C 3.182472 -0.851330 -0.955385
  C 4.610695 -0.993206 -0.968267
  C 5.331087 -1.595097 -1.926897
  C 6.757839 -1.497389 -1.941491
  C 7.520365 -1.692713 -3.018487
  C 8.964064 -1.334997 -3.061076
  H 0.913360 0.814373 0.860193
  H 0.552645 -0.710076 0.034178
  H 0.774685 0.758530 -0.908077
  H 3.179728 0.458954 0.652843
  H 2.614549 -1.367577 -1.721105
  H 5.136921 -0.503676 -0.156761
  H 4.847662 -2.072008 -2.765207
  H 7.216867 -1.134147 -1.030976
  H 7.081534 -2.027020 -3.946218
  H 9.342370 -1.112354 -2.068428
  H 9.056270 -0.442305 -3.672771
  H 9.567361 -2.124894 -3.509597
 20
 3.995004
  C 1.210060 0.336962 -0.167227
  C 2.633972 -0.068308 -0.085272
  C 3.211407 -0.995579 -0.846476
  C 4.626143 -1.204952 -0.819982
  C 5.331801 -1.758844 -1.811894
  C 6.756615 -1.611106 -1.877570
  C 7.446276 -1.617888 -3.009051
  C 8.862461 -1.183001 -3.101038
  H 0.986654 1.029572 0.626290
  H 0.553718 -0.526982 -0.084684
  H 0.997068 0.823044 -1.122489
  H 3.243175 0.469157 0.631397
  H 2.638976 -1.526024 -1.594584
  H 5.156064 -0.745965 0.002459
  H 4.829221 -2.182446 -2.671979
  H 7.251888 -1.328044 -0.955914
  H 6.956792 -1.865735 -3.946094
  H 9.306837 -1.087674 -2.109689
  H 8.893528 -0.198336 -3.588077
  H 9.462004 -1.875306 -3.693508
 20
 5.882825
  C 1.303030 0.414826 -0.309881
  C 2.681113 -0.086082 -0.092884
  C 3.236237 -1.088262 -0.764852
  C 4.641829 -1.349793 -0.685245
  C 5.344694 -1.847667 -1.707367
  C 6.765698 -1.682727 -1.805038
  C 7.377655 -1.559640 -2.975006
  C 8.763588 -1.064880 -3.145863
  H 1.072470 1.197350 0.401330
  H 0.571385 -0.389252 -0.208766
  H 1.202726 0.826741 -1.311443
  H 3.282820 0.459732 0.619534
  H 2.670689 -1.623989 -1.517726
  H 5.163970 -0.935569 0.167648
  H 4.831059 -2.216092 -2.584979
  H 7.304459 -1.477903 -0.886456
  H 6.824056 -1.736603 -3.889245
  H 9.292574 -1.035760 -2.196698
  H 8.707630 -0.045839 -3.540214
  H 9.326090 -1.677691 -3.851855
 20
 7.647499
  C 1.375163 0.481800 -0.358767
  C 2.727492 -0.093530 -0.135269
  C 3.219362 -1.174138 -0.733966
  C 4.628576 -1.445315 -0.673783
  C 5.325198 -1.949072 -1.698691
  C 6.742667 -1.729658 -1.805723
  C 7.345432 -1.538026 -2.973624
  C 8.705309 -0.952333 -3.121678
  H 1.258775 1.365184 0.252680
  H 0.588968 -0.230420 -0.136425
  H 1.263885 0.780748 -1.402431
  H 3.383958 0.480725 0.505186
  H 2.619677 -1.746961 -1.427485
  H 5.167009 -1.002531 0.160276
  H 4.811764 -2.336509 -2.569820
  H 7.275783 -1.521952 -0.883929
  H 6.803765 -1.710716 -3.891617
  H 9.238481 -0.945589 -2.175316
  H 8.591994 0.082159 -3.459656
  H 9.293811 -1.490068 -3.861967
 20
 9.558965
  C 1.448602 0.542238 -0.399366
  C 2.778950 -0.088869 -0.182429
  C 3.216183 -1.219654 -0.730988
  C 4.622145 -1.518835 -0.676972
  C 5.315594 -2.033944 -1.698637
  C 6.722497 -1.767491 -1.807737
  C 7.315151 -1.523509 -2.970940
  C 8.639459 -0.856085 -3.089491
  H 1.434886 1.497605 0.108739
  H 0.634100 -0.085871 -0.048112
  H 1.287898 0.727227 -1.461928
  H 3.478607 0.492164 0.404163
  H 2.583788 -1.813742 -1.376271
  H 5.169179 -1.063247 0.142441
  H 4.806862 -2.433804 -2.566192
  H 7.246916 -1.549357 -0.883568
  H 6.783516 -1.697652 -3.898310
  H 9.170843 -0.866975 -2.141244
  H 8.463061 0.190606 -3.374377
  H 9.261477 -1.316674 -3.853371
 20
 11.450300
  C 1.533971 0.596299 -0.474976
  C 2.831058 -0.084408 -0.213000
  C 3.226329 -1.252744 -0.713054
  C 4.624308 -1.595626 -0.637415
  C 5.310858 -2.104069 -1.669552
  C 6.716021 -1.808810 -1.792260
  C 7.269613 -1.486455 -2.958355
  C 8.560701 -0.761101 -3.077933
  H 1.584848 1.601406 -0.068745
  H 0.696137 0.059286 -0.042301
  H 1.356975 0.675094 -1.545985
  H 3.547734 0.487532 0.360799
  H 2.577532 -1.844339 -1.347326
  H 5.173559 -1.161176 0.187432
  H 4.794571 -2.478113 -2.543897
  H 7.251390 -1.609970 -0.873022
  H 6.715047 -1.626459 -3.878541
  H 9.121822 -0.802725 -2.145701
  H 8.323759 0.290664 -3.290842
  H 9.179671 -1.148684 -3.890232
 20
 13.233693
  C 1.623177 0.644334 -0.547414
  C 2.879773 -0.084766 -0.231856
  C 3.235253 -1.280251 -0.692291
  C 4.625595 -1.649354 -0.608868
  C 5.304627 -2.135163 -1.653984
  C 6.707312 -1.839607 -1.781051
  C 7.227860 -1.461184 -2.943771
  C 8.478412 -0.666342 -3.064612
  H 1.740801 1.680613 -0.252175
  H 0.762213 0.210661 -0.043548
  H 1.427199 0.618112 -1.616657
  H 3.606609 0.471177 0.338262
  H 2.578407 -1.859756 -1.327603
  H 5.177939 -1.235451 0.224682
  H 4.779704 -2.495076 -2.532951
  H 7.260848 -1.682773 -0.865361
  H 6.659452 -1.595351 -3.860866
  H 9.061854 -0.712983 -2.151800
  H 8.182448 0.379771 -3.229840
  H 9.090623 -0.988004 -3.899828
 20
 15.157934
  C 1.708547 0.687196 -0.617988
  C 2.925932 -0.084712 -0.252952
  C 3.243710 -1.304110 -0.677585
  C 4.625381 -1.702484 -0.582121
  C 5.298528 -2.171284 -1.639389
  C 6.695953 -1.858921 -1.774242
  C 7.182479 -1.424012 -2.932093
  C 8.398798 -0.577617 -3.051669
  H 1.908820 1.740181 -0.445513
  H 0.837778 0.377884 -0.043213
  H 1.473220 0.553454 -1.674020
  H 3.665893 0.460797 0.319380
  H 2.579862 -1.871093 -1.318108
  H 5.180767 -1.309253 0.262360
  H 4.771202 -2.510260 -2.518579
  H 7.262252 -1.719926 -0.860882
  H 6.600270 -1.543844 -3.838061
  H 9.003897 -0.629025 -2.153731
  H 8.053801 0.459847 -3.177173
  H 9.006213 -0.844993 -3.910988
 20
 17.115364
  C 1.804488 0.731225 -0.693630
  C 2.974812 -0.086697 -0.282967
  C 3.255043 -1.326311 -0.679280
  C 4.624641 -1.764062 -0.550487
  C 5.300823 -2.223314 -1.609684
  C 6.688299 -1.865116 -1.757402
  C 7.126920 -1.375751 -2.914449
  C 8.312814 -0.491640 -3.043749
  H 2.090279 1.779953 -0.628241
  H 0.929344 0.547750 -0.067280
  H 1.528382 0.515545 -1.724150
  H 3.716394 0.435237 0.308415
  H 2.589396 -1.878074 -1.323183
  H 5.175481 -1.374852 0.295369
  H 4.767505 -2.534504 -2.502957
  H 7.257878 -1.706006 -0.850639
  H 6.519756 -1.477928 -3.802159
  H 8.940707 -0.545452 -2.164250
  H 7.930593 0.538289 -3.133877
  H 8.905644 -0.718088 -3.925245
 20
 18.989656
  C 1.891216 0.770366 -0.764864
  C 3.013623 -0.082829 -0.296959
  C 3.262723 -1.336569 -0.665679
  C 4.623099 -1.798564 -0.525846
  C 5.293820 -2.235865 -1.597554
  C 6.678549 -1.865971 -1.755415
  C 7.085669 -1.336307 -2.907001
  C 8.232550 -0.403360 -3.036219
  H 2.264373 1.792134 -0.829566
  H 1.030170 0.737000 -0.094448
  H 1.560696 0.461482 -1.754691
  H 3.756761 0.426499 0.298967
  H 2.592452 -1.877941 -1.318534
  H 5.173937 -1.433948 0.334060
  H 4.757584 -2.528376 -2.486058
  H 7.264259 -1.729399 -0.856043
  H 6.469393 -1.443512 -3.790068
  H 8.876014 -0.441939 -2.158629
  H 7.803380 0.610357 -3.108987
  H 8.823949 -0.591011 -3.924695
 20
 20.785141
  C 1.980586 0.809549 -0.836427
  C 3.048701 -0.077773 -0.312661
  C 3.273476 -1.338380 -0.673702
  C 4.622173 -1.826798 -0.504919
  C 5.297454 -2.254032 -1.578556
  C 6.670989 -1.854497 -1.741159
  C 7.042435 -1.299596 -2.892073
  C 8.150724 -0.320636 -3.032554
  H 2.439722 1.783643 -1.029120
  H 1.153168 0.932260 -0.135429
  H 1.582079 0.423089 -1.772675
  H 3.786111 0.414304 0.308658
  H 2.610437 -1.860658 -1.343918
  H 5.167159 -1.476582 0.369664
  H 4.760313 -2.541699 -2.471242
  H 7.262697 -1.713185 -0.848566
  H 6.406848 -1.409624 -3.764279
  H 8.810263 -0.344842 -2.174409
  H 7.679723 0.682316 -3.083096
  H 8.730584 -0.475652 -3.939371
 20
 23.027286
  C 2.078644 0.853440 -0.913370
  C 3.089184 -0.063298 -0.334561
  C 3.279319 -1.334877 -0.669764
  C 4.617209 -1.850238 -0.475289
  C 5.295839 -2.270208 -1.552612
  C 6.660052 -1.836111 -1.728352
  C 6.998530 -1.262147 -2.883321
  C 8.057188 -0.228034 -3.035106
  H 2.619460 1.761308 -1.196874
  H 1.282033 1.109838 -0.211612
  H 1.630547 0.422901 -1.805185
  H 3.834899 0.419112 0.284211
  H 2.614758 -1.847363 -1.352611
  H 5.153453 -1.510897 0.398712
  H 4.757200 -2.567978 -2.442900
  H 7.265937 -1.693394 -0.842186
  H 6.364690 -1.401310 -3.746436
  H 8.731908 -0.223933 -2.186160
  H 7.539982 0.748388 -3.073926
  H 8.628460 -0.349502 -3.949848
