 26
 0.000000
  H 1.448778 0.162178 0.456348
  C 2.527004 0.146863 0.417676
  C 3.292032 0.614979 1.581601
  C 2.455100 1.090568 2.764993
  C 3.344732 1.553146 3.915141
  C 3.093543 -0.322750 -0.751305
  C 4.467857 -0.418128 -0.989363
  C 5.127761 -0.875155 -2.129637
  C 4.604391 -1.392682 -3.420815
  C 3.109275 -1.496822 -3.681514
  H 2.946437 -1.895475 -4.676083
  O 6.443946 -0.878182 -2.137364
  H 3.951903 1.432662 1.267183
  H 3.952302 -0.192498 1.920551
  H 1.813016 0.281535 3.118144
  H 1.812696 1.918697 2.459978
  H 3.980026 0.743408 4.267123
  H 2.736051 1.889046 4.751051
  H 3.979655 2.381416 3.608567
  H 2.411865 -0.633152 -1.524126
  H 5.108720 -0.092342 -0.177114
  H 5.055177 -2.382745 -3.554244
  H 5.055647 -0.769274 -4.201218
  H 2.635474 -0.519485 -3.630906
  H 2.635043 -2.168365 -2.969920
  H 6.850743 -0.548321 -1.313069
 26
 -0.285280
  H 1.496946 0.115852 0.533870
  C 2.574942 0.105194 0.443712
  C 3.332223 0.615091 1.594933
  C 2.456874 1.085871 2.755394
  C 3.302383 1.601892 3.915186
  C 3.103355 -0.380197 -0.732983
  C 4.475208 -0.457582 -0.989314
  C 5.132230 -0.912056 -2.134467
  C 4.591121 -1.373217 -3.440193
  C 3.093883 -1.450628 -3.686796
  H 2.933472 -1.797032 -4.704302
  O 6.444809 -0.941619 -2.138407
  H 3.976977 1.441419 1.274239
  H 4.019757 -0.159911 1.955681
  H 1.833817 0.259858 3.105685
  H 1.790471 1.881987 2.415368
  H 3.957563 0.821186 4.296687
  H 2.665124 1.932959 4.731623
  H 3.915320 2.446211 3.604606
  H 2.405843 -0.719745 -1.477654
  H 5.127566 -0.118635 -0.192912
  H 5.039772 -2.357086 -3.623611
  H 5.046853 -0.721613 -4.195881
  H 2.622020 -0.476811 -3.595179
  H 2.614663 -2.163139 -3.021360
  H 6.871926 -0.645259 -1.312900
 26
 -0.232972
  H 1.504504 0.046074 0.563598
  C 2.579192 0.057497 0.463296
  C 3.333372 0.609619 1.594696
  C 2.457549 1.084408 2.751625
  C 3.299387 1.645775 3.890457
  C 3.107596 -0.440592 -0.707849
  C 4.478575 -0.496716 -0.974221
  C 5.134421 -0.946270 -2.122381
  C 4.591770 -1.346505 -3.447272
  C 3.091163 -1.400964 -3.696339
  H 2.926930 -1.687730 -4.733474
  O 6.445841 -1.004317 -2.118694
  H 3.955330 1.443631 1.250161
  H 4.042632 -0.140148 1.965534
  H 1.858048 0.251637 3.125678
  H 1.769194 1.855743 2.400610
  H 3.975788 0.889631 4.283926
  H 2.661693 1.980976 4.704036
  H 3.888302 2.494398 3.555867
  H 2.409487 -0.816595 -1.438235
  H 5.132135 -0.140731 -0.185796
  H 5.034886 -2.322088 -3.678398
  H 5.051114 -0.662088 -4.170224
  H 2.624652 -0.431426 -3.547043
  H 2.608567 -2.148326 -3.072380
  H 6.872711 -0.743861 -1.281287
 26
 -0.115278
  H 1.507314 0.000477 0.580103
  C 2.583327 0.022332 0.475026
  C 3.336319 0.604629 1.594654
  C 2.458996 1.088244 2.745625
  C 3.297148 1.682135 3.870376
  C 3.112110 -0.489858 -0.690001
  C 4.482380 -0.537782 -0.962250
  C 5.135804 -0.983821 -2.112664
  C 4.593703 -1.321182 -3.454758
  C 3.093487 -1.360673 -3.701711
  H 2.925280 -1.592911 -4.750274
  O 6.445784 -1.068277 -2.102334
  H 3.945577 1.439639 1.232161
  H 4.056741 -0.129082 1.974945
  H 1.872496 0.253943 3.136716
  H 1.758441 1.843618 2.382390
  H 3.984594 0.943032 4.275220
  H 2.659065 2.023887 4.678591
  H 3.874439 2.533182 3.517224
  H 2.416342 -0.893923 -1.405781
  H 5.139782 -0.168795 -0.182200
  H 5.034815 -2.284576 -3.734573
  H 5.051624 -0.600031 -4.143228
  H 2.629544 -0.399295 -3.500199
  H 2.610884 -2.139778 -3.112657
  H 6.872372 -0.842249 -1.255041
 26
 0.114186
  H 1.510293 -0.054993 0.604890
  C 2.583599 -0.022577 0.492291
  C 3.337340 0.590639 1.592817
  C 2.463295 1.090443 2.741775
  C 3.302844 1.717124 3.847580
  C 3.112358 -0.549527 -0.664998
  C 4.480781 -0.582528 -0.946556
  C 5.131198 -1.003648 -2.108643
  C 4.599045 -1.279791 -3.466750
  C 3.097937 -1.339660 -3.706636
  H 2.925292 -1.526197 -4.764576
  O 6.441534 -1.094048 -2.094353
  H 3.932982 1.424446 1.207303
  H 4.070776 -0.124060 1.982548
  H 1.889433 0.259538 3.156249
  H 1.749698 1.828755 2.370296
  H 4.003555 0.994755 4.261447
  H 2.664541 2.066007 4.657384
  H 3.864750 2.570915 3.473645
  H 2.420961 -0.977267 -1.370553
  H 5.143320 -0.189777 -0.183685
  H 5.058701 -2.220110 -3.794225
  H 5.041158 -0.513642 -4.115115
  H 2.614552 -0.399618 -3.456469
  H 2.639297 -2.152931 -3.154044
  H 6.867069 -0.902085 -1.238325
 26
 0.425740
  H 1.508981 -0.088497 0.615164
  C 2.584253 -0.049898 0.499410
  C 3.337661 0.594333 1.582285
  C 2.466590 1.090774 2.734510
  C 3.306337 1.753329 3.821768
  C 3.114873 -0.591398 -0.649761
  C 4.483344 -0.632145 -0.932837
  C 5.130237 -1.051160 -2.097105
  C 4.606026 -1.265781 -3.468479
  C 3.106903 -1.275394 -3.714266
  H 2.930689 -1.405275 -4.779556
  O 6.435969 -1.186932 -2.068667
  H 3.911411 1.438642 1.179262
  H 4.088992 -0.100301 1.972365
  H 1.914319 0.254439 3.167520
  H 1.735619 1.807434 2.362486
  H 4.025469 1.053513 4.236059
  H 2.672197 2.097710 4.632851
  H 3.844597 2.612674 3.428773
  H 2.428897 -1.041306 -1.345471
  H 5.149321 -0.239284 -0.174707
  H 5.041444 -2.204878 -3.824876
  H 5.071779 -0.488062 -4.083603
  H 2.646891 -0.337308 -3.415925
  H 2.626228 -2.101926 -3.200707
  H 6.853132 -1.049868 -1.195793
 26
 0.724512
  H 1.514605 -0.113959 0.623849
  C 2.588774 -0.067326 0.503118
  C 3.340498 0.591926 1.579941
  C 2.468815 1.091939 2.728081
  C 3.306266 1.768310 3.806900
  C 3.121024 -0.618150 -0.641241
  C 4.488261 -0.653221 -0.924900
  C 5.133962 -1.068485 -2.094006
  C 4.609063 -1.259116 -3.470621
  C 3.109187 -1.247750 -3.714260
  H 2.929600 -1.360889 -4.779747
  O 6.439590 -1.213725 -2.068603
  H 3.907667 1.434285 1.165202
  H 4.098972 -0.095018 1.974794
  H 1.925938 0.253213 3.168724
  H 1.729634 1.800969 2.349947
  H 4.034197 1.077133 4.225044
  H 2.671049 2.116117 4.617041
  H 3.835967 2.628640 3.405205
  H 2.437258 -1.080538 -1.331139
  H 5.163776 -0.254227 -0.174831
  H 5.029723 -2.201237 -3.837068
  H 5.085492 -0.480228 -4.072840
  H 2.659651 -0.308435 -3.402403
  H 2.619369 -2.076407 -3.211533
  H 6.859524 -1.089085 -1.196033
 26
 0.785592
  H 1.534177 -0.212854 0.654529
  C 2.604432 -0.147106 0.524895
  C 3.342018 0.585753 1.556587
  C 2.468714 1.080654 2.708210
  C 3.295413 1.842458 3.743188
  C 3.142877 -0.721989 -0.605643
  C 4.507412 -0.733624 -0.897405
  C 5.146305 -1.139549 -2.073335
  C 4.608714 -1.218538 -3.457566
  C 3.110518 -1.128650 -3.695746
  H 2.929844 -1.119039 -4.769112
  O 6.438348 -1.366929 -2.052132
  H 3.850913 1.444447 1.099851
  H 4.147156 -0.044381 1.959011
  H 1.983275 0.232609 3.190539
  H 1.687432 1.736524 2.320983
  H 4.070086 1.206866 4.165853
  H 2.660780 2.187360 4.559474
  H 3.770293 2.712759 3.296635
  H 2.463089 -1.217169 -1.281422
  H 5.175996 -0.343720 -0.137666
  H 5.001470 -2.135456 -3.899144
  H 5.110785 -0.410908 -4.001461
  H 2.693319 -0.217681 -3.278831
  H 2.592034 -1.989863 -3.286333
  H 6.860243 -1.322869 -1.173106
 26
 1.517853
  H 1.557791 -0.333739 0.683629
  C 2.626769 -0.239919 0.546242
  C 3.355847 0.534470 1.562115
  C 2.463669 1.099430 2.663103
  C 3.272702 1.892265 3.682326
  C 3.175773 -0.832532 -0.569546
  C 4.533182 -0.792924 -0.886090
  C 5.164179 -1.171101 -2.076207
  C 4.604144 -1.198225 -3.451233
  C 3.110866 -1.004051 -3.649535
  H 2.905821 -0.945332 -4.716208
  O 6.450164 -1.418872 -2.074034
  H 3.894748 1.357348 1.079097
  H 4.132302 -0.090942 2.012869
  H 1.944758 0.285959 3.171714
  H 1.706026 1.750772 2.224789
  H 4.018618 1.260151 4.162546
  H 2.621877 2.291161 4.457111
  H 3.783018 2.727303 3.208556
  H 2.513703 -1.389183 -1.208770
  H 5.191335 -0.308646 -0.179793
  H 4.915759 -2.141166 -3.913827
  H 5.154123 -0.425369 -3.997728
  H 2.762745 -0.084273 -3.190038
  H 2.544155 -1.842570 -3.255021
  H 6.877560 -1.412308 -1.195206
 26
 2.149846
  H 1.592952 -0.477723 0.745559
  C 2.646098 -0.314518 0.567143
  C 3.349382 0.545733 1.529603
  C 2.454758 1.082016 2.645577
  C 3.246731 1.939880 3.627644
  C 3.202009 -0.915471 -0.539453
  C 4.553708 -0.838022 -0.875281
  C 5.171227 -1.228092 -2.070014
  C 4.592595 -1.231749 -3.438097
  C 3.138558 -0.827934 -3.626256
  H 2.937685 -0.735316 -4.690402
  O 6.453574 -1.490199 -2.083191
  H 3.807435 1.391224 1.001654
  H 4.185895 -0.007356 1.972770
  H 1.997795 0.248402 3.184661
  H 1.650011 1.681287 2.215844
  H 4.044501 1.366521 4.087946
  H 2.599952 2.306464 4.417713
  H 3.684259 2.799828 3.127436
  H 2.559760 -1.540905 -1.138307
  H 5.209621 -0.313862 -0.192103
  H 4.761097 -2.225659 -3.869214
  H 5.239022 -0.562980 -4.017976
  H 2.927526 0.128784 -3.158690
  H 2.458116 -1.577470 -3.233487
  H 6.885365 -1.517592 -1.208088
 26
 3.720862
  H 1.581647 -0.484105 0.749929
  C 2.636729 -0.332223 0.569365
  C 3.345979 0.550203 1.505091
  C 2.461844 1.101113 2.620200
  C 3.260981 1.978261 3.579440
  C 3.192022 -0.965677 -0.518603
  C 4.543866 -0.914126 -0.849078
  C 5.159623 -1.266508 -2.058664
  C 4.612969 -1.144585 -3.435476
  C 3.146534 -0.788014 -3.606258
  H 2.932938 -0.681527 -4.667021
  O 6.432072 -1.572587 -2.066441
  H 3.789689 1.389394 0.953114
  H 4.190364 0.013494 1.947723
  H 2.015233 0.276246 3.176443
  H 1.650460 1.690898 2.188606
  H 4.068307 1.415905 4.037898
  H 2.618741 2.355800 4.375465
  H 3.688465 2.834929 3.058573
  H 2.548885 -1.603325 -1.106410
  H 5.208306 -0.356638 -0.196079
  H 4.822381 -2.088461 -3.953803
  H 5.244766 -0.402556 -3.934969
  H 2.906649 0.149007 -3.119501
  H 2.495275 -1.567525 -3.219544
  H 6.848105 -1.673410 -1.187727
 26
 5.886032
  H 1.585950 -0.554406 0.778649
  C 2.638224 -0.401128 0.587972
  C 3.350744 0.515784 1.492558
  C 2.462184 1.117600 2.579233
  C 3.254910 2.057121 3.483832
  C 3.194386 -1.067636 -0.478655
  C 4.539462 -1.003274 -0.832932
  C 5.163072 -1.282764 -2.058074
  C 4.626290 -1.040979 -3.420365
  C 3.156524 -0.672834 -3.548959
  H 2.925377 -0.503667 -4.598229
  O 6.423403 -1.629232 -2.078751
  H 3.797298 1.326166 0.907086
  H 4.193587 -0.006848 1.954723
  H 2.027632 0.321649 3.184565
  H 1.645992 1.676049 2.116191
  H 4.063275 1.528656 3.980635
  H 2.609438 2.482475 4.250340
  H 3.679069 2.876982 2.912953
  H 2.561179 -1.735664 -1.042778
  H 5.221145 -0.418054 -0.220330
  H 4.807665 -1.957313 -3.998094
  H 5.269314 -0.287525 -3.880880
  H 2.921775 0.233893 -3.001133
  H 2.513428 -1.471710 -3.198717
  H 6.829012 -1.807014 -1.207830
 26
 9.317484
  H 1.607558 -0.693955 0.848312
  C 2.647593 -0.510025 0.624481
  C 3.344254 0.492740 1.448521
  C 2.458765 1.117403 2.523861
  C 3.231458 2.150860 3.342408
  C 3.210379 -1.216368 -0.411369
  C 4.536996 -1.115867 -0.813597
  C 5.163440 -1.304922 -2.052332
  C 4.628787 -0.961013 -3.392072
  C 3.200387 -0.437481 -3.447354
  H 2.936509 -0.232365 -4.481612
  O 6.415687 -1.671677 -2.098010
  H 3.726862 1.282974 0.796414
  H 4.231484 0.040807 1.908757
  H 2.082994 0.341772 3.193373
  H 1.604548 1.609338 2.052322
  H 4.080820 1.696685 3.843200
  H 2.588978 2.591930 4.100535
  H 3.593328 2.954529 2.707391
  H 2.595803 -1.936570 -0.934539
  H 5.246198 -0.498857 -0.256011
  H 4.662213 -1.895964 -3.969769
  H 5.339048 -0.298460 -3.888089
  H 3.089487 0.482561 -2.881925
  H 2.496679 -1.167306 -3.070714
  H 6.807701 -1.964535 -1.253092
 26
 19.257398
  H 1.578893 -0.639130 0.845728
  C 2.607349 -0.465639 0.615281
  C 3.340947 0.517896 1.434573
  C 2.471032 1.166090 2.506137
  C 3.276477 2.175977 3.330663
  C 3.159684 -1.183330 -0.420564
  C 4.471790 -1.088890 -0.858261
  C 5.160567 -1.253942 -2.044980
  C 4.660924 -0.894825 -3.392881
  C 3.217373 -0.437254 -3.457935
  H 2.959116 -0.229440 -4.489204
  O 6.399972 -1.636485 -2.057021
  H 3.742718 1.280550 0.776292
  H 4.227761 0.036878 1.894304
  H 2.069630 0.407733 3.173307
  H 1.637488 1.691949 2.028995
  H 4.115941 1.696776 3.834206
  H 2.644734 2.636069 4.088057
  H 3.656133 2.966204 2.702288
  H 2.549570 -1.920270 -0.937366
  H 5.207881 -0.440130 -0.384284
  H 4.743272 -1.815572 -3.987419
  H 5.351930 -0.200736 -3.868360
  H 3.056019 0.463820 -2.881564
  H 2.538275 -1.208902 -3.107752
  H 6.786575 -1.892149 -1.201021
