19
 0
 C -3.22955980 -1.78493914 -0.49705263
 C -1.72274090 -1.56869277 -0.56630509
 C -1.22416961 -1.79817207 -1.99210783
 C -1.21582274 -0.21438217 -0.06761529
 C -2.17234435 0.88360834 0.32158524
 O 0.00000000 0.00000000 0.00000000
 H -3.48834089 -2.80307549 -0.80789389
 H -3.76698816 -1.09183901 -1.15335235
 H -3.60090912 -1.64976113 0.52417042
 H -1.25931708 -2.31644394 0.09064499
 H -1.63376180 -1.04993120 -2.67950207
 H -1.51335226 -2.79095635 -2.35301423
 H -0.13202353 -1.73095159 -2.04456299
 H -3.21715913 0.58010192 0.29151678
 H -2.04113711 1.72678193 -0.36186366
 H -1.94532871 1.19834156 1.34434969
 O 2.70000000 0.00000000 0.00000000
 H 3.41230366 0.48167979 -0.44673807
 H 3.16177422 -0.68870122 0.50140883
