 19
 0.000000
  C -3.245328 -1.778487 -0.476427
  C -1.760914 -1.573610 -0.560385
  C -1.209472 -1.723597 -1.961881
  C -1.184394 -0.190872 -0.060066
  C -2.199889 0.839935 0.286546
  O -0.011068 -0.024178 -0.010502
  H -3.472001 -2.804357 -0.779275
  H -3.794307 -1.136513 -1.160103
  H -3.620158 -1.666228 0.535945
  H -1.257815 -2.267002 0.127145
  H -1.633324 -0.998190 -2.652836
  H -1.484601 -2.707916 -2.337070
  H -0.128837 -1.619615 -1.970656
  H -3.222971 0.496183 0.235927
  H -2.043150 1.671988 -0.401617
  H -1.961554 1.192913 1.290372
  O 2.738452 -0.042403 -0.017614
  H 3.427338 0.441906 -0.481915
  H 3.175118 -0.727291 0.498081
 19
 -0.010247
  C -3.193366 -1.812256 -0.411329
  C -1.725337 -1.563472 -0.577581
  C -1.229315 -1.646837 -2.000849
  C -1.171060 -0.159450 -0.064088
  C -2.206845 0.857238 0.232529
  O -0.001737 -0.016089 0.030657
  H -3.354596 -2.868917 -0.638831
  H -3.808650 -1.240175 -1.099934
  H -3.520305 -1.680860 0.616411
  H -1.160297 -2.238200 0.078301
  H -1.718532 -0.926976 -2.653737
  H -1.473139 -2.636063 -2.390517
  H -0.153295 -1.503362 -2.052714
  H -3.225070 0.508345 0.139979
  H -2.027815 1.691546 -0.449159
  H -2.011673 1.220066 1.243572
  O 2.639137 -0.137890 0.026544
  H 3.334327 0.329651 -0.442716
  H 3.066425 -0.809550 0.566762
 19
 -0.713838
  C -3.124972 -1.874956 -0.347134
  C -1.680588 -1.545680 -0.574829
  C -1.265116 -1.532750 -2.027538
  C -1.191809 -0.115539 -0.056203
  C -2.274138 0.877979 0.146399
  O -0.035792 0.062881 0.115973
  H -3.243545 -2.949091 -0.509903
  H -3.789633 -1.373044 -1.044158
  H -3.433479 -1.699174 0.680105
  H -1.040670 -2.205096 0.022938
  H -1.842832 -0.821170 -2.615476
  H -1.476972 -2.520297 -2.444349
  H -0.204389 -1.327371 -2.144270
  H -3.274683 0.493343 0.006992
  H -2.082549 1.694209 -0.555310
  H -2.150639 1.284588 1.151038
  O 2.702693 -0.272875 0.081621
  H 3.403237 0.142718 -0.430713
  H 3.116720 -0.931023 0.649780
 19
 -1.434678
  C -2.995620 -1.946717 -0.216989
  C -1.607032 -1.525295 -0.603176
  C -1.370245 -1.390655 -2.088841
  C -1.179674 -0.083131 -0.061486
  C -2.285453 0.896944 -0.014194
  O -0.046076 0.104140 0.216985
  H -3.059668 -3.031421 -0.351570
  H -3.767621 -1.496539 -0.840772
  H -3.204805 -1.769062 0.837083
  H -0.859658 -2.169008 -0.132822
  H -2.077425 -0.713843 -2.561238
  H -1.527266 -2.374934 -2.534111
  H -0.352953 -1.084392 -2.316032
  H -3.257884 0.492458 -0.259940
  H -2.021862 1.698134 -0.709078
  H -2.291853 1.329216 0.988196
  O 2.643110 -0.436667 0.211578
  H 3.361681 -0.059961 -0.305173
  H 3.037271 -1.042099 0.847753
 19
 -1.957913
  C -2.847654 -1.995241 -0.127086
  C -1.531260 -1.489584 -0.649104
  C -1.455823 -1.281719 -2.140737
  C -1.172130 -0.042952 -0.057787
  C -2.290195 0.918668 -0.121300
  O -0.074747 0.140190 0.338638
  H -2.847067 -3.083769 -0.227662
  H -3.698683 -1.607038 -0.678676
  H -2.973710 -1.803131 0.935526
  H -0.699355 -2.100887 -0.288299
  H -2.256187 -0.648256 -2.516749
  H -1.571462 -2.264065 -2.608982
  H -0.488460 -0.890348 -2.452620
  H -3.233327 0.490353 -0.428971
  H -1.990271 1.702587 -0.819182
  H -2.381957 1.380385 0.861735
  O 2.528408 -0.583028 0.319419
  H 3.262212 -0.262841 -0.214139
  H 2.899457 -1.166489 0.988900
 19
 -2.423593
  C -2.660455 -2.031967 -0.053021
  C -1.450544 -1.432987 -0.719307
  C -1.552866 -1.208457 -2.203332
  C -1.180245 0.012619 -0.071822
  C -2.310760 0.947322 -0.223348
  O -0.132702 0.197940 0.440209
  H -2.578682 -3.118649 -0.128916
  H -3.590523 -1.719862 -0.517250
  H -2.694895 -1.820583 1.013987
  H -0.538506 -1.979696 -0.463843
  H -2.443768 -0.657995 -2.490282
  H -1.611463 -2.195023 -2.671782
  H -0.665982 -0.724711 -2.605580
  H -3.231774 0.483483 -0.553220
  H -1.999846 1.704152 -0.947568
  H -2.454600 1.452719 0.733344
  O 2.418193 -0.716917 0.473907
  H 3.173639 -0.463870 -0.065620
  H 2.748198 -1.297301 1.167134
 19
 -2.579715
  C -2.459630 -2.058655 -0.014059
  C -1.368440 -1.365764 -0.793032
  C -1.630221 -1.158673 -2.255458
  C -1.180866 0.064277 -0.088753
  C -2.326315 0.972372 -0.298477
  O -0.187152 0.256735 0.519461
  H -2.271064 -3.133343 -0.049400
  H -3.446326 -1.857653 -0.419259
  H -2.444656 -1.802677 1.044381
  H -0.394634 -1.832329 -0.630699
  H -2.594815 -0.697309 -2.462037
  H -1.638039 -2.150499 -2.720244
  H -0.831287 -0.596316 -2.738413
  H -3.238994 0.468315 -0.606891
  H -2.029148 1.684347 -1.069969
  H -2.483051 1.531666 0.623720
  O 2.272853 -0.820315 0.624325
  H 3.055150 -0.643915 0.092939
  H 2.541074 -1.414169 1.333474
 19
 -2.710191
  C -2.271736 -2.071180 0.010475
  C -1.293088 -1.289981 -0.834952
  C -1.666023 -1.124704 -2.277391
  C -1.190116 0.129279 -0.099844
  C -2.357334 0.999319 -0.350818
  O -0.248646 0.343203 0.582106
  H -1.908720 -3.094601 0.099986
  H -3.266061 -2.072363 -0.427712
  H -2.337882 -1.706599 1.035570
  H -0.271283 -1.666936 -0.738193
  H -2.682553 -0.771153 -2.427931
  H -1.601975 -2.115707 -2.736245
  H -0.961708 -0.490552 -2.811549
  H -3.250872 0.452612 -0.631184
  H -2.085577 1.676807 -1.162699
  H -2.528351 1.598887 0.542854
  O 2.123194 -0.966962 0.675445
  H 2.929225 -0.815091 0.172878
  H 2.351669 -1.555846 1.400941
 19
 -1.033831
  C -2.145689 -2.070921 0.019268
  C -1.276086 -1.271157 -0.931440
  C -1.767790 -1.156828 -2.338240
  C -1.172283 0.133676 -0.159619
  C -2.337072 1.015567 -0.381669
  O -0.242035 0.326565 0.542279
  H -1.658796 -3.021879 0.229382
  H -3.147406 -2.208475 -0.375343
  H -2.229439 -1.610939 1.006344
  H -0.233774 -1.603124 -0.906338
  H -2.779972 -0.772235 -2.423845
  H -1.785829 -2.169109 -2.751716
  H -1.094057 -0.569766 -2.956728
  H -3.194124 0.512888 -0.811469
  H -2.013089 1.812890 -1.054027
  H -2.593230 1.474974 0.573699
  O 2.093366 -0.944525 0.807096
  H 2.917985 -0.788057 0.337062
  H 2.268605 -1.632176 1.457294
