 27
 0.000000
  C 0.808841 0.048634 0.327256
  C 2.297636 0.060848 0.118125
  C 3.197301 -0.008743 1.343537
  C 2.542522 -0.091974 2.719896
  C 3.601329 -0.153949 3.815976
  C 2.889731 0.125663 -1.072318
  C 2.348168 0.203451 -2.476879
  C 0.847035 0.220201 -2.751533
  C 0.585624 0.302543 -4.253308
  H 3.974142 0.125511 -1.085137
  H 0.542914 -0.002041 1.377795
  H 0.355301 -0.816043 -0.151258
  H 0.355235 0.954559 -0.066294
  H 3.843212 0.875181 1.339339
  H 3.848279 -0.882238 1.235518
  H 1.917655 -0.985325 2.788061
  H 1.912877 0.783669 2.893003
  H 4.236010 -1.028753 3.690302
  H 3.129697 -0.213201 4.794782
  H 4.231155 0.733046 3.794597
  H 2.772645 -0.645862 -3.027010
  H 2.774587 1.106823 -2.931046
  H 0.381677 1.081495 -2.274089
  H 0.379632 -0.686864 -2.370538
  H 1.018893 1.208639 -4.672416
  H -0.484546 0.314550 -4.450052
  H 1.016831 -0.553528 -4.768669
 27
 5.393030
  C 0.785220 0.078968 0.365162
  C 2.232984 0.058229 0.132595
  C 3.188193 0.005942 1.340656
  C 2.545877 -0.103016 2.724812
  C 3.615988 -0.147943 3.812984
  C 2.837430 0.103199 -1.058423
  C 2.342188 0.178832 -2.474516
  C 0.845466 0.241981 -2.761578
  C 0.593952 0.316415 -4.264460
  H 3.922572 0.064341 -1.043911
  H 0.498959 -0.008191 1.393907
  H 0.589110 -0.821804 -0.172367
  H 0.279933 0.924289 -0.074212
  H 3.809884 0.907755 1.317833
  H 3.860083 -0.847920 1.202486
  H 1.942093 -1.011350 2.787613
  H 1.897522 0.756702 2.906662
  H 4.270086 -1.005342 3.671680
  H 3.157873 -0.225260 4.796772
  H 4.224402 0.753346 3.788431
  H 2.755248 -0.688962 -3.003945
  H 2.811137 1.060986 -2.927474
  H 0.411500 1.123862 -2.288571
  H 0.346447 -0.643703 -2.367174
  H 1.064094 1.201495 -4.688597
  H -0.472956 0.363267 -4.471330
  H 1.001548 -0.559598 -4.765409
 27
 17.308665
  C 0.772669 0.086885 0.355929
  C 2.210559 0.059358 0.125423
  C 3.192545 0.023593 1.359571
  C 2.557090 -0.117069 2.736790
  C 3.624252 -0.141018 3.822305
  C 2.821250 0.081885 -1.052706
  C 2.329005 0.149768 -2.474160
  C 0.836972 0.271443 -2.764967
  C 0.592490 0.330589 -4.268586
  H 3.903075 0.019289 -1.033529
  H 0.450199 -0.045244 1.377219
  H 0.809127 -0.815406 -0.212546
  H 0.232734 0.892710 -0.120325
  H 3.776195 0.944281 1.339693
  H 3.886759 -0.803605 1.210477
  H 1.981979 -1.040771 2.789413
  H 1.886099 0.719480 2.924559
  H 4.303294 -0.977796 3.673001
  H 3.168245 -0.240790 4.804598
  H 4.206029 0.778137 3.805916
  H 2.707211 -0.742364 -2.988400
  H 2.831288 1.004592 -2.941071
  H 0.442612 1.180732 -2.309651
  H 0.295425 -0.582115 -2.356439
  H 1.103116 1.185769 -4.706864
  H -0.470873 0.421645 -4.479105
  H 0.961441 -0.571590 -4.752622
 27
 32.572414
  C 0.790849 0.109551 0.366718
  C 2.218764 0.052666 0.120969
  C 3.194069 0.022108 1.356163
  C 2.546413 -0.125375 2.717305
  C 3.603825 -0.142470 3.817422
  C 2.840469 0.071743 -1.055208
  C 2.337319 0.139700 -2.479353
  C 0.837441 0.273460 -2.756335
  C 0.573413 0.331984 -4.260457
  H 3.923115 0.010964 -1.033908
  H 0.460118 -0.036664 1.398850
  H 0.995646 -0.775070 -0.191332
  H 0.236602 0.885810 -0.136017
  H 3.766989 0.948014 1.336538
  H 3.895656 -0.796363 1.210258
  H 1.974031 -1.060412 2.761790
  H 1.862244 0.711145 2.899616
  H 4.291453 -0.974582 3.674183
  H 3.135893 -0.247307 4.792745
  H 4.177761 0.782014 3.808492
  H 2.702331 -0.754367 -2.996046
  H 2.839908 0.988526 -2.956152
  H 0.458199 1.183682 -2.301058
  H 0.292168 -0.572281 -2.340074
  H 1.086069 1.180970 -4.707302
  H -0.491404 0.432440 -4.457599
  H 0.927783 -0.574204 -4.746978
 27
 44.976025
  C 0.765852 0.135854 0.385965
  C 2.204203 0.055491 0.122479
  C 3.167249 0.023468 1.343206
  C 2.538635 -0.135313 2.706771
  C 3.609447 -0.148595 3.791855
  C 2.844219 0.070414 -1.046800
  C 2.350743 0.135533 -2.479227
  C 0.851483 0.279252 -2.750641
  C 0.580738 0.328237 -4.254052
  H 3.925720 0.002058 -1.009907
  H 0.435581 -0.011417 1.419424
  H 1.125591 -0.744920 -0.143913
  H 0.186008 0.867981 -0.150460
  H 3.726390 0.953212 1.323205
  H 3.874101 -0.786481 1.191385
  H 1.977582 -1.070380 2.753406
  H 1.853009 0.691684 2.900609
  H 4.304443 -0.976249 3.636638
  H 3.154999 -0.261775 4.775089
  H 4.177668 0.783428 3.780167
  H 2.709623 -0.769572 -2.993043
  H 2.862195 0.978098 -2.964070
  H 0.480266 1.201727 -2.298173
  H 0.301326 -0.562004 -2.322440
  H 1.098796 1.170991 -4.709967
  H -0.485295 0.435663 -4.447599
  H 0.926107 -0.585477 -4.736302
 27
 54.236526
  C 0.754756 0.163458 0.378795
  C 2.201797 0.056361 0.104272
  C 3.174339 0.024094 1.343774
  C 2.537654 -0.144941 2.718750
  C 3.604509 -0.158815 3.800831
  C 2.851585 0.074290 -1.072920
  C 2.356011 0.137042 -2.497287
  C 0.864066 0.283193 -2.749280
  C 0.574493 0.323130 -4.237992
  H 3.930072 0.004163 -1.033008
  H 0.431522 0.041858 1.395218
  H 1.225512 -0.734921 -0.104352
  H 0.156073 0.837609 -0.204461
  H 3.726800 0.964380 1.324375
  H 3.892645 -0.782941 1.189419
  H 1.978511 -1.084478 2.761838
  H 1.849266 0.678397 2.917421
  H 4.296346 -0.974990 3.644308
  H 3.153938 -0.276945 4.776665
  H 4.163727 0.765675 3.793536
  H 2.703340 -0.766026 -3.008008
  H 2.863432 0.972877 -2.987792
  H 0.508205 1.198347 -2.302828
  H 0.322815 -0.546513 -2.310628
  H 1.087055 1.157215 -4.703600
  H -0.489707 0.432669 -4.416695
  H 0.908848 -0.590744 -4.716132
 27
 61.608910
  C 0.767832 0.190472 0.393293
  C 2.211596 0.059427 0.097305
  C 3.170214 0.026019 1.332028
  C 2.525034 -0.150448 2.709566
  C 3.586238 -0.169602 3.793479
  C 2.866187 0.078663 -1.091849
  C 2.367195 0.138861 -2.505894
  C 0.874548 0.284641 -2.742891
  C 0.568012 0.316528 -4.230703
  H 3.942989 0.011125 -1.051331
  H 0.456321 0.088914 1.430643
  H 1.326422 -0.726066 -0.046187
  H 0.151169 0.799793 -0.221991
  H 3.720096 0.971097 1.316399
  H 3.894018 -0.779996 1.178324
  H 1.968699 -1.083959 2.746921
  H 1.840092 0.666775 2.910483
  H 4.281011 -0.987898 3.635157
  H 3.131036 -0.292440 4.768710
  H 4.147357 0.758418 3.792219
  H 2.709110 -0.768504 -3.018448
  H 2.871443 0.974378 -3.004606
  H 0.523502 1.206719 -2.295628
  H 0.338115 -0.544194 -2.292197
  H 1.076387 1.148356 -4.706578
  H -0.498220 0.425735 -4.398211
  H 0.896924 -0.600592 -4.707493
 27
 66.810452
  C 0.746615 0.224496 0.401465
  C 2.193888 0.065953 0.108111
  C 3.162264 0.030216 1.348978
  C 2.536691 -0.157237 2.718910
  C 3.614997 -0.188003 3.793467
  C 2.856688 0.088115 -1.079764
  C 2.366737 0.143447 -2.505495
  C 0.869772 0.287721 -2.759218
  C 0.576324 0.306331 -4.252613
  H 3.937807 0.020333 -1.028709
  H 0.431379 0.153066 1.418320
  H 1.379843 -0.724216 0.014492
  H 0.108741 0.769174 -0.267148
  H 3.707197 0.975445 1.337940
  H 3.888544 -0.770226 1.186949
  H 1.976341 -1.096375 2.752888
  H 1.851053 0.664436 2.937357
  H 4.306667 -1.004943 3.619502
  H 3.171162 -0.319694 4.773324
  H 4.176888 0.738867 3.794508
  H 2.714026 -0.769230 -3.013647
  H 2.876513 0.978795 -3.005038
  H 0.513442 1.217024 -2.322539
  H 0.328264 -0.540627 -2.304940
  H 1.089282 1.134990 -4.731700
  H -0.489496 0.413838 -4.431519
  H 0.910269 -0.616049 -4.719203
 27
 70.963228
  C 0.748284 0.262574 0.399183
  C 2.192944 0.074721 0.106290
  C 3.163827 0.036973 1.348121
  C 2.536257 -0.161341 2.710338
  C 3.618601 -0.209388 3.796188
  C 2.857889 0.101565 -1.088316
  C 2.365396 0.149575 -2.513279
  C 0.877141 0.286502 -2.759355
  C 0.581690 0.292124 -4.241384
  H 3.938657 0.035539 -1.038192
  H 0.423960 0.219632 1.420600
  H 1.441075 -0.720958 0.060537
  H 0.095709 0.727140 -0.308612
  H 3.707760 0.983981 1.346164
  H 3.894460 -0.764462 1.180349
  H 1.973269 -1.093505 2.730061
  H 1.852552 0.662239 2.933355
  H 4.308623 -1.029384 3.615939
  H 3.168413 -0.350227 4.780454
  H 4.188109 0.718384 3.809206
  H 2.716131 -0.772474 -3.026142
  H 2.871230 0.988073 -3.019718
  H 0.516629 1.225376 -2.325719
  H 0.340078 -0.543323 -2.296223
  H 1.090976 1.120240 -4.728187
  H -0.485129 0.394385 -4.417054
  H 0.918413 -0.634307 -4.702082
 27
 74.338463
  C 0.758279 0.300780 0.409912
  C 2.199710 0.079403 0.112386
  C 3.180469 0.042495 1.356668
  C 2.545214 -0.165295 2.723517
  C 3.610166 -0.227455 3.794918
  C 2.866431 0.110626 -1.090349
  C 2.376548 0.152831 -2.508566
  C 0.870023 0.284713 -2.764138
  C 0.571556 0.280400 -4.267859
  H 3.951531 0.046093 -1.040008
  H 0.429381 0.274852 1.427229
  H 1.497099 -0.723165 0.104371
  H 0.092131 0.691418 -0.323044
  H 3.725937 0.992229 1.357338
  H 3.908384 -0.755588 1.181912
  H 1.974173 -1.098878 2.736525
  H 1.868005 0.657748 2.953367
  H 4.295890 -1.051700 3.607809
  H 3.161366 -0.371940 4.765973
  H 4.182761 0.695376 3.815561
  H 2.728881 -0.759271 -3.012664
  H 2.881379 0.989463 -3.014535
  H 0.506322 1.222855 -2.338131
  H 0.333694 -0.546779 -2.296306
  H 1.077100 1.105412 -4.758941
  H -0.493800 0.377718 -4.446570
  H 0.910616 -0.644438 -4.721974
 27
 77.146745
  C 0.758813 0.338669 0.411867
  C 2.195863 0.079332 0.116103
  C 3.180195 0.045482 1.358266
  C 2.548602 -0.167974 2.716102
  C 3.626211 -0.243449 3.804731
  C 2.864638 0.116176 -1.092898
  C 2.375521 0.155207 -2.509745
  C 0.874934 0.280985 -2.766978
  C 0.578090 0.270314 -4.270177
  H 3.934614 0.052435 -1.043181
  H 0.419747 0.315588 1.425661
  H 1.536061 -0.729542 0.131134
  H 0.081509 0.665528 -0.344234
  H 3.722345 0.992717 1.360991
  H 3.909540 -0.752532 1.177969
  H 1.976073 -1.092959 2.720800
  H 1.876715 0.653048 2.948722
  H 4.302610 -1.060569 3.616469
  H 3.175638 -0.392802 4.777797
  H 4.199351 0.668121 3.833472
  H 2.732112 -0.755965 -3.014338
  H 2.878857 0.991904 -3.016192
  H 0.508629 1.216198 -2.344436
  H 0.345921 -0.543094 -2.300459
  H 1.086233 1.103071 -4.767997
  H -0.498337 0.364513 -4.451865
  H 0.924695 -0.665330 -4.725774
 27
 79.555548
  C 0.763135 0.383977 0.417018
  C 2.195302 0.080333 0.119376
  C 3.192375 0.048291 1.362721
  C 2.557912 -0.172921 2.726164
  C 3.624003 -0.260270 3.797124
  C 2.865059 0.122752 -1.095552
  C 2.375629 0.157023 -2.515469
  C 0.873107 0.275743 -2.778233
  C 0.585576 0.257057 -4.269662
  H 3.944984 0.056158 -1.044766
  H 0.415909 0.346228 1.426872
  H 1.573252 -0.736892 0.149462
  H 0.075547 0.651729 -0.351501
  H 3.733666 0.996722 1.366900
  H 3.918706 -0.746887 1.175705
  H 1.977145 -1.102185 2.726365
  H 1.884758 0.656921 2.968641
  H 4.298374 -1.084075 3.598690
  H 3.172267 -0.414590 4.772222
  H 4.204307 0.653937 3.829464
  H 2.733551 -0.743969 -3.013640
  H 2.876191 0.992613 -3.021598
  H 0.499262 1.216617 -2.360081
  H 0.341151 -0.556970 -2.307215
  H 1.093024 1.091085 -4.768721
  H -0.486337 0.345626 -4.454657
  H 0.938362 -0.680060 -4.718760
 27
 81.792422
  C 0.767412 0.432466 0.407957
  C 2.193439 0.077550 0.116026
  C 3.194759 0.048409 1.364699
  C 2.557384 -0.177530 2.725446
  C 3.634887 -0.275994 3.816552
  C 2.870029 0.127059 -1.103138
  C 2.380705 0.158034 -2.519237
  C 0.877165 0.269004 -2.779406
  C 0.584556 0.246077 -4.275943
  H 3.946302 0.057599 -1.050793
  H 0.406395 0.366993 1.414398
  H 1.606773 -0.746416 0.150617
  H 0.072884 0.648614 -0.371434
  H 3.732478 0.994354 1.370962
  H 3.919163 -0.743797 1.175635
  H 1.975850 -1.098417 2.717769
  H 1.892248 0.645354 2.965781
  H 4.314125 -1.110168 3.616232
  H 3.179584 -0.433128 4.789280
  H 4.223842 0.642901 3.857478
  H 2.744842 -0.746125 -3.021978
  H 2.875538 0.994668 -3.025261
  H 0.502635 1.201870 -2.365472
  H 0.353919 -0.561753 -2.308323
  H 1.077388 1.066836 -4.770384
  H -0.476787 0.328048 -4.458012
  H 0.934317 -0.673672 -4.718225
 27
 83.452354
  C 0.775201 0.488089 0.418337
  C 2.188264 0.074857 0.120429
  C 3.204100 0.046607 1.370498
  C 2.566978 -0.185385 2.738187
  C 3.637549 -0.293079 3.815567
  C 2.864818 0.131404 -1.106967
  C 2.374560 0.159160 -2.519426
  C 0.884487 0.258800 -2.780509
  C 0.592946 0.230674 -4.292869
  H 3.953904 0.059868 -1.055519
  H 0.410671 0.381347 1.422000
  H 1.636063 -0.758237 0.157150
  H 0.070442 0.658513 -0.360617
  H 3.741392 0.991751 1.376382
  H 3.924465 -0.742333 1.174703
  H 1.977869 -1.108453 2.727857
  H 1.901817 0.643105 2.986309
  H 4.309397 -1.126079 3.609625
  H 3.186277 -0.452209 4.783322
  H 4.227462 0.619630 3.859079
  H 2.747777 -0.749201 -3.027479
  H 2.861281 0.996234 -3.023386
  H 0.505206 1.188123 -2.368083
  H 0.364552 -0.579446 -2.303139
  H 1.087141 1.062402 -4.794595
  H -0.481125 0.306064 -4.480613
  H 0.952031 -0.693678 -4.736488
