 28
 0.000000
  C 0.902524 0.049016 0.271333
  C 2.394534 0.061327 0.087407
  C 3.237363 -0.010874 1.353540
  C 2.522086 -0.088961 2.701062
  C 3.532181 -0.154003 3.841805
  C 2.990949 0.128340 -1.120843
  C 2.353203 0.205070 -2.494781
  C 0.842930 0.217897 -2.712910
  H 0.632470 0.276945 -3.776068
  C 4.452919 0.132874 -1.207578
  C 5.194058 0.193909 -2.308921
  H 6.271146 0.192615 -2.291064
  H 0.611047 -0.004153 1.314404
  H 0.457813 -0.817085 -0.212076
  H 0.455797 0.958258 -0.122485
  H 3.883422 0.872250 1.385293
  H 3.884652 -0.890871 1.283856
  H 1.891101 -0.979556 2.745097
  H 1.889943 0.789858 2.847111
  H 4.167694 -1.032187 3.746888
  H 3.016792 -0.209461 4.798433
  H 4.166517 0.730111 3.848410
  H 2.746179 -0.643873 -3.065044
  H 2.746964 1.111598 -2.967538
  H 0.382996 1.077587 -2.234463
  H 0.382153 -0.688932 -2.332300
  H 4.993302 0.080966 -0.275105
  H 4.813095 0.249938 -3.315385
 28
 3.717348
  C 0.898100 0.076757 0.284248
  C 2.368718 0.067151 0.097602
  C 3.228405 0.001167 1.357368
  C 2.525083 -0.097928 2.706967
  C 3.551452 -0.153909 3.832970
  C 2.970836 0.128693 -1.111079
  C 2.337279 0.204167 -2.492920
  C 0.828815 0.231706 -2.727291
  H 0.656635 0.287253 -3.801550
  C 4.431533 0.120347 -1.195206
  C 5.183031 0.173226 -2.292632
  H 6.257980 0.164117 -2.219091
  H 0.584711 -0.008741 1.312445
  H 0.673377 -0.805775 -0.247454
  H 0.412861 0.940322 -0.147358
  H 3.860010 0.892759 1.390793
  H 3.891377 -0.863982 1.280099
  H 1.911289 -1.000375 2.750730
  H 1.882435 0.770320 2.866699
  H 4.200368 -1.019980 3.718756
  H 3.054308 -0.224751 4.797829
  H 4.170712 0.740869 3.832598
  H 2.732040 -0.651587 -3.051906
  H 2.747464 1.104191 -2.963702
  H 0.362848 1.100189 -2.275672
  H 0.338126 -0.664737 -2.363394
  H 4.962561 0.068849 -0.258174
  H 4.797687 0.228282 -3.295464
 28
 10.989012
  C 0.916546 0.070964 0.274565
  C 2.388613 0.072889 0.096654
  C 3.238632 0.021172 1.361317
  C 2.508765 -0.104690 2.694183
  C 3.509693 -0.144568 3.843299
  C 2.987201 0.130156 -1.110746
  C 2.326318 0.205082 -2.475912
  C 0.814972 0.271961 -2.665341
  H 0.611752 0.318390 -3.745933
  C 4.457308 0.105212 -1.222222
  C 5.189712 0.144509 -2.330534
  H 6.272276 0.125223 -2.271550
  H 0.578679 -0.045144 1.274565
  H 0.919572 -0.845307 -0.277707
  H 0.396138 0.870423 -0.208306
  H 3.842097 0.930862 1.407916
  H 3.925177 -0.821902 1.293901
  H 1.916624 -1.021490 2.716041
  H 1.842761 0.746482 2.843283
  H 4.181936 -0.993465 3.738000
  H 2.992616 -0.234120 4.796092
  H 4.107483 0.764228 3.862472
  H 2.684287 -0.664233 -3.033966
  H 2.743761 1.088584 -2.964346
  H 0.390678 1.162794 -2.217427
  H 0.307385 -0.601269 -2.275827
  H 5.003336 0.057690 -0.300290
  H 4.785709 0.195495 -3.325752
 28
 20.821423
  C 0.895270 0.070295 0.293866
  C 2.382277 0.078189 0.098652
  C 3.240542 0.028215 1.360832
  C 2.511059 -0.111033 2.700857
  C 3.516139 -0.147349 3.851140
  C 2.981402 0.134058 -1.112144
  C 2.329288 0.202000 -2.485237
  C 0.821191 0.294469 -2.690363
  H 0.630228 0.323918 -3.766260
  C 4.437201 0.105748 -1.218528
  C 5.168518 0.131337 -2.330542
  H 6.243903 0.111395 -2.275489
  H 0.551977 -0.059421 1.302557
  H 1.077822 -0.835071 -0.244333
  H 0.337073 0.828877 -0.225257
  H 3.834506 0.948819 1.406460
  H 3.940487 -0.809619 1.287854
  H 1.925929 -1.034426 2.719359
  H 1.836592 0.734617 2.854971
  H 4.196211 -0.990175 3.741596
  H 3.000860 -0.245630 4.804837
  H 4.106392 0.766907 3.873707
  H 2.677365 -0.682195 -3.029864
  H 2.766617 1.072168 -2.983809
  H 0.412214 1.205145 -2.264911
  H 0.290597 -0.561245 -2.288187
  H 4.984962 0.068006 -0.290930
  H 4.762130 0.171438 -3.325684
 28
 31.135320
  C 0.878740 0.093338 0.304265
  C 2.371515 0.080540 0.092752
  C 3.228848 0.029750 1.358986
  C 2.513903 -0.118255 2.698490
  C 3.527444 -0.151928 3.835218
  C 2.977165 0.134728 -1.118853
  C 2.325770 0.198953 -2.494305
  C 0.814044 0.295149 -2.693263
  H 0.618862 0.319431 -3.766405
  C 4.432749 0.104129 -1.209598
  C 5.178947 0.123545 -2.311551
  H 6.255953 0.103483 -2.239612
  H 0.520965 -0.041704 1.304307
  H 1.192772 -0.810689 -0.240091
  H 0.300740 0.827753 -0.226226
  H 3.814613 0.950635 1.405610
  H 3.934297 -0.801700 1.281016
  H 1.936610 -1.043745 2.719346
  H 1.837735 0.720887 2.861735
  H 4.211013 -0.989318 3.715973
  H 3.022694 -0.256553 4.792042
  H 4.111256 0.765155 3.854832
  H 2.670626 -0.689742 -3.036640
  H 2.765343 1.066315 -2.998003
  H 0.409708 1.209744 -2.270826
  H 0.280819 -0.558691 -2.282852
  H 4.969394 0.070089 -0.272101
  H 4.786382 0.158761 -3.311730
 28
 39.781021
  C 0.877529 0.110415 0.311940
  C 2.362317 0.079673 0.088987
  C 3.230821 0.023243 1.361980
  C 2.506779 -0.122668 2.707418
  C 3.520514 -0.160588 3.856534
  C 2.980519 0.138091 -1.121361
  C 2.332042 0.197777 -2.496633
  C 0.824230 0.296727 -2.697681
  H 0.627190 0.311075 -3.777263
  C 4.427101 0.112747 -1.220963
  C 5.160566 0.124805 -2.336669
  H 6.239507 0.110791 -2.276894
  H 0.538980 -0.023703 1.304945
  H 1.284742 -0.785151 -0.191861
  H 0.292677 0.796805 -0.256192
  H 3.816444 0.946162 1.404575
  H 3.936271 -0.810922 1.287280
  H 1.922484 -1.048933 2.725543
  H 1.830340 0.721763 2.867677
  H 4.203451 -1.003178 3.741061
  H 3.009436 -0.263092 4.814632
  H 4.109814 0.756766 3.878839
  H 2.674252 -0.693428 -3.033473
  H 2.774209 1.058550 -3.007074
  H 0.426794 1.215313 -2.287375
  H 0.291433 -0.547732 -2.280263
  H 4.977519 0.091347 -0.292586
  H 4.750120 0.146531 -3.334861
 28
 46.056661
  C 0.870114 0.131220 0.324210
  C 2.358548 0.085167 0.091785
  C 3.216895 0.021097 1.352514
  C 2.504079 -0.124877 2.692802
  C 3.520782 -0.173666 3.824750
  C 2.983420 0.145318 -1.119467
  C 2.333403 0.195128 -2.497043
  C 0.821335 0.294298 -2.689126
  H 0.616398 0.292603 -3.763236
  C 4.436189 0.124524 -1.211032
  C 5.176237 0.125759 -2.322114
  H 6.251471 0.115770 -2.257245
  H 0.531414 0.024793 1.339034
  H 1.361588 -0.780671 -0.129979
  H 0.267514 0.766192 -0.294032
  H 3.803346 0.940933 1.394018
  H 3.918266 -0.812478 1.272059
  H 1.916957 -1.043619 2.712166
  H 1.837947 0.719999 2.862250
  H 4.194398 -1.016986 3.700363
  H 3.018751 -0.276133 4.781957
  H 4.113689 0.736235 3.845135
  H 2.671438 -0.703779 -3.027592
  H 2.776309 1.050538 -3.018375
  H 0.427214 1.223562 -2.288693
  H 0.288890 -0.547163 -2.252808
  H 4.985140 0.119638 -0.276375
  H 4.774595 0.131758 -3.316977
 28
 50.688948
  C 0.862861 0.152316 0.331255
  C 2.347955 0.090820 0.088385
  C 3.209270 0.021109 1.351280
  C 2.503926 -0.128350 2.703249
  C 3.531205 -0.189424 3.826536
  C 2.981163 0.152713 -1.125378
  C 2.337132 0.193934 -2.505448
  C 0.827005 0.290241 -2.702662
  H 0.624838 0.275467 -3.773694
  C 4.426314 0.134278 -1.209113
  C 5.173194 0.125777 -2.317587
  H 6.251955 0.121358 -2.246933
  H 0.532881 0.076957 1.335757
  H 1.418918 -0.774518 -0.075922
  H 0.243529 0.732726 -0.325548
  H 3.800344 0.943235 1.391489
  H 3.908370 -0.814301 1.262797
  H 1.911597 -1.044017 2.724601
  H 1.845033 0.720504 2.885290
  H 4.198937 -1.037078 3.691645
  H 3.036605 -0.293721 4.789292
  H 4.130377 0.717489 3.845918
  H 2.675832 -0.708760 -3.028139
  H 2.781227 1.044978 -3.031534
  H 0.430866 1.226126 -2.314023
  H 0.295071 -0.547552 -2.257790
  H 4.968410 0.143010 -0.277252
  H 4.774374 0.118697 -3.318289
 28
 54.123776
  C 0.873391 0.176513 0.339530
  C 2.352687 0.094811 0.083687
  C 3.212309 0.020571 1.342353
  C 2.497647 -0.127893 2.685578
  C 3.521010 -0.204347 3.821120
  C 2.986200 0.159720 -1.135774
  C 2.337073 0.193496 -2.504777
  C 0.828412 0.281462 -2.689047
  H 0.614867 0.257600 -3.765361
  C 4.431775 0.144965 -1.218555
  C 5.183612 0.126300 -2.324718
  H 6.252292 0.130803 -2.249578
  H 0.541022 0.134183 1.371746
  H 1.476664 -0.765783 -0.025539
  H 0.246795 0.689637 -0.338773
  H 3.805419 0.936070 1.386360
  H 3.906977 -0.817266 1.254047
  H 1.893214 -1.040919 2.697459
  H 1.843009 0.729367 2.866644
  H 4.183362 -1.060154 3.687433
  H 3.017570 -0.308103 4.781789
  H 4.130747 0.698884 3.849256
  H 2.674157 -0.708531 -3.025566
  H 2.773433 1.042892 -3.036791
  H 0.434167 1.213406 -2.305556
  H 0.307657 -0.552552 -2.234886
  H 4.976213 0.166795 -0.279757
  H 4.791472 0.103421 -3.324089
 28
 57.022161
  C 0.874742 0.197533 0.352920
  C 2.351804 0.096232 0.093194
  C 3.211944 0.019219 1.346827
  C 2.502289 -0.129867 2.689872
  C 3.523623 -0.219796 3.811948
  C 2.989324 0.163735 -1.131623
  C 2.343584 0.190885 -2.506177
  C 0.831876 0.270893 -2.697214
  H 0.623874 0.239416 -3.768647
  C 4.425864 0.152735 -1.211480
  C 5.179037 0.127549 -2.318529
  H 6.254466 0.137757 -2.242660
  H 0.546503 0.181679 1.361837
  H 1.518238 -0.757320 0.021954
  H 0.223727 0.671513 -0.367299
  H 3.811429 0.936914 1.391344
  H 3.901666 -0.821113 1.253173
  H 1.892509 -1.034354 2.700413
  H 1.858380 0.728922 2.878612
  H 4.174222 -1.075799 3.671235
  H 3.026197 -0.323391 4.769882
  H 4.137435 0.673373 3.840713
  H 2.686996 -0.712751 -3.024249
  H 2.779679 1.041766 -3.040365
  H 0.428305 1.209361 -2.318704
  H 0.312071 -0.566921 -2.239328
  H 4.963609 0.184992 -0.282797
  H 4.783326 0.093196 -3.324609
 28
 59.239100
  C 0.856732 0.226781 0.346505
  C 2.342090 0.100098 0.086118
  C 3.210573 0.020430 1.344787
  C 2.507098 -0.130154 2.696040
  C 3.540335 -0.236085 3.818412
  C 2.981817 0.169120 -1.138968
  C 2.338664 0.188990 -2.516447
  C 0.831285 0.260483 -2.712767
  H 0.629625 0.221692 -3.775103
  C 4.427892 0.159120 -1.211273
  C 5.187698 0.128619 -2.311665
  H 6.267051 0.143793 -2.228700
  H 0.518534 0.230618 1.360941
  H 1.538992 -0.749701 0.041327
  H 0.214014 0.646559 -0.382368
  H 3.811590 0.932395 1.388549
  H 3.900298 -0.826249 1.245093
  H 1.888166 -1.030251 2.705316
  H 1.871360 0.734517 2.894071
  H 4.187704 -1.104421 3.668174
  H 3.044230 -0.340973 4.786243
  H 4.167396 0.658360 3.848425
  H 2.686270 -0.712509 -3.029805
  H 2.771253 1.036541 -3.051180
  H 0.422113 1.199667 -2.342103
  H 0.311852 -0.582001 -2.249932
  H 4.967427 0.199482 -0.269245
  H 4.802959 0.085970 -3.309197
 28
 61.738564
  C 0.881960 0.246810 0.343855
  C 2.355255 0.098164 0.092683
  C 3.217840 0.019165 1.358894
  C 2.505876 -0.131837 2.697239
  C 3.525393 -0.249255 3.823007
  C 2.998488 0.169467 -1.137372
  C 2.345988 0.184693 -2.516203
  C 0.834106 0.249362 -2.702152
  H 0.619928 0.205020 -3.775815
  C 4.431072 0.160643 -1.218493
  C 5.181453 0.129732 -2.328211
  H 6.268899 0.154538 -2.255125
  H 0.531421 0.261178 1.363823
  H 1.587698 -0.740008 0.065719
  H 0.237310 0.628361 -0.411179
  H 3.818635 0.925251 1.409225
  H 3.899513 -0.820290 1.264504
  H 1.880776 -1.027683 2.697724
  H 1.873839 0.737603 2.894522
  H 4.166361 -1.119755 3.674035
  H 3.021358 -0.354479 4.784678
  H 4.156925 0.639230 3.861121
  H 2.692427 -0.714901 -3.030889
  H 2.771067 1.032094 -3.055671
  H 0.425373 1.183035 -2.332263
  H 0.326024 -0.587802 -2.234351
  H 4.974209 0.207493 -0.291877
  H 4.779401 0.084208 -3.337679
 28
 63.500245
  C 0.866137 0.277746 0.356764
  C 2.348911 0.102297 0.092370
  C 3.218079 0.022735 1.346446
  C 2.510273 -0.134032 2.693759
  C 3.537200 -0.264049 3.815692
  C 2.991839 0.179315 -1.142593
  C 2.345921 0.186487 -2.518012
  C 0.839076 0.232498 -2.710515
  H 0.634131 0.183568 -3.774897
  C 4.427181 0.175866 -1.214594
  C 5.189388 0.134516 -2.316301
  H 6.266234 0.127734 -2.232223
  H 0.521827 0.290801 1.364776
  H 1.600267 -0.734568 0.081289
  H 0.210214 0.624123 -0.404035
  H 3.822388 0.933971 1.395101
  H 3.905044 -0.824595 1.242312
  H 1.880612 -1.025475 2.691795
  H 1.885148 0.734830 2.899324
  H 4.172705 -1.136647 3.658378
  H 3.038408 -0.372424 4.778518
  H 4.173580 0.620382 3.856198
  H 2.705448 -0.710325 -3.031724
  H 2.763979 1.039521 -3.056321
  H 0.415612 1.165694 -2.343872
  H 0.337138 -0.614077 -2.242276
  H 4.965816 0.218508 -0.275928
  H 4.806587 0.068501 -3.309655
 28
 65.407757
  C 0.873289 0.306643 0.361288
  C 2.349620 0.096333 0.093505
  C 3.221950 0.017150 1.345783
  C 2.511189 -0.138084 2.693228
  C 3.538137 -0.276859 3.818996
  C 2.994544 0.173884 -1.143623
  C 2.347290 0.176296 -2.517925
  C 0.831518 0.218054 -2.710710
  H 0.625500 0.160963 -3.775257
  C 4.440118 0.166348 -1.213559
  C 5.203284 0.130775 -2.312282
  H 6.281743 0.158085 -2.226456
  H 0.524955 0.315184 1.369546
  H 1.621506 -0.731733 0.089054
  H 0.209846 0.630572 -0.409704
  H 3.827896 0.927789 1.394610
  H 3.909088 -0.836211 1.239516
  H 1.874582 -1.026796 2.687886
  H 1.891365 0.733492 2.898534
  H 4.166736 -1.150519 3.662162
  H 3.038788 -0.383518 4.779550
  H 4.178658 0.600795 3.862319
  H 2.711691 -0.728967 -3.032037
  H 2.767895 1.035243 -3.064117
  H 0.404895 1.154100 -2.351208
  H 0.330879 -0.627570 -2.236213
  H 4.978123 0.216103 -0.273997
  H 4.815864 0.073342 -3.326535
