 21
 0.000000
  H 1.486694 0.056340 0.137270
  C 2.558172 0.063423 0.011700
  C 3.364349 -0.008095 1.279211
  C 2.500738 -0.079082 2.537186
  C 3.352718 -0.150371 3.800621
  C 3.100739 0.131262 -1.190536
  C 2.376848 0.205294 -2.502566
  C 0.853391 0.200685 -2.420807
  H 0.426588 0.257089 -3.420430
  H 4.179595 0.136805 -1.288756
  H 4.016463 0.869124 1.345476
  H 4.016460 -0.887191 1.246375
  H 1.857506 -0.961607 2.490015
  H 1.857509 0.803134 2.589591
  H 3.988526 -1.033551 3.785685
  H 2.720146 -0.200282 4.685143
  H 3.988519 0.728877 3.885131
  H 2.702474 -0.638287 -3.123367
  H 2.702476 1.113358 -3.024526
  H 0.495458 1.053899 -1.848031
  H 0.495453 -0.711553 -1.947645
 21
 10.575383
  H 1.478215 0.060643 0.061002
  C 2.547058 0.068302 -0.074761
  C 3.433468 -0.008954 1.294433
  C 2.495642 -0.086045 2.660562
  C 3.351017 -0.156885 3.916040
  C 3.083031 0.136034 -1.275116
  C 2.352738 0.209750 -2.581535
  C 0.831713 0.204495 -2.488349
  H 0.397796 0.260696 -3.484409
  H 4.162116 0.141866 -1.378435
  H 4.080171 0.866097 1.357659
  H 4.080171 -0.885558 1.258819
  H 1.854894 -0.966986 2.610266
  H 1.854889 0.794957 2.709684
  H 3.986914 -1.039811 3.898469
  H 2.721725 -0.206885 4.802132
  H 3.986909 0.722411 3.997903
  H 2.674847 -0.633358 -3.203359
  H 2.674849 1.117460 -3.104566
  H 0.478033 1.057299 -1.913085
  H 0.478032 -0.707610 -2.012671
 21
 34.101720
  H 1.471829 0.063602 0.008551
  C 2.532236 0.072662 -0.152038
  C 3.511695 -0.009683 1.307354
  C 2.484895 -0.092469 2.774377
  C 3.345552 -0.162271 4.011472
  C 3.066447 0.139924 -1.344056
  C 2.331238 0.213478 -2.647613
  C 0.812053 0.207599 -2.543375
  H 0.371392 0.263619 -3.536223
  H 4.146668 0.145886 -1.449701
  H 4.140276 0.863102 1.367715
  H 4.140275 -0.883711 1.269149
  H 1.852350 -0.970438 2.705224
  H 1.852348 0.787699 2.804428
  H 3.981879 -1.045156 3.990308
  H 2.719631 -0.212406 4.899932
  H 3.981884 0.717401 4.089765
  H 2.651359 -0.629633 -3.269073
  H 2.651361 1.121149 -3.170282
  H 0.462448 1.060276 -1.965692
  H 0.462449 -0.704642 -2.065284
