 23
 0.000000
  C 0.958733 0.142238 0.405928
  C 2.435627 0.138812 0.396949
  H 3.007996 0.476028 1.235745
  C 3.047724 -0.326485 -0.761128
  C 4.427680 -0.410350 -0.970580
  C 5.111749 -0.860636 -2.093538
  C 4.622398 -1.384411 -3.399794
  C 3.132979 -1.504809 -3.700598
  C 2.922534 -2.067455 -5.103799
  O 6.434575 -0.852273 -2.073085
  H 0.530877 0.513603 1.329858
  H 0.585106 -0.868946 0.237722
  H 0.584800 0.755552 -0.415298
  H 2.388559 -0.643775 -1.550690
  H 5.047217 -0.079018 -0.145404
  H 5.082172 -2.371786 -3.523346
  H 5.082493 -0.756172 -4.171309
  H 2.655388 -0.525521 -3.650229
  H 2.655156 -2.177872 -2.987664
  H 3.365851 -1.418585 -5.855871
  H 1.859660 -2.152844 -5.317123
  H 3.365674 -3.056276 -5.199167
  H 6.800018 -0.516405 -1.234749
 23
 0.000000
  C 0.940722 0.167992 0.470151
  C 2.417605 0.164004 0.459761
  H 2.990904 0.501005 1.298008
  C 3.028419 -0.301530 -0.698898
  C 4.408142 -0.385921 -0.909668
  C 5.153950 -0.878029 -2.136916
  C 4.663152 -1.401619 -3.442703
  C 3.173401 -1.521446 -3.742086
  C 2.961401 -2.084015 -5.145084
  O 6.331373 -0.884513 -2.153477
  H 0.513890 0.539523 1.394487
  H 0.566550 -0.843050 0.302305
  H 0.566238 0.781446 -0.350720
  H 2.368379 -0.618572 -1.487829
  H 5.028593 -0.054822 -0.085086
  H 5.122429 -2.389171 -3.566691
  H 5.122752 -0.773558 -4.214659
  H 2.696234 -0.541975 -3.691264
  H 2.696000 -2.194324 -3.028695
  H 3.404250 -1.435316 -5.897580
  H 1.898292 -2.168996 -5.357394
  H 3.404071 -3.073006 -5.240872
  H 6.648220 -0.551491 -1.322259
 23
 0.000000
  C 0.917983 0.196005 0.540005
  C 2.394851 0.191296 0.527810
  H 2.969338 0.528021 1.365354
  C 3.004020 -0.274540 -0.631593
  C 4.383443 -0.359605 -0.844049
  C 5.196319 -0.897623 -2.185780
  C 4.703670 -1.420975 -3.490966
  C 3.213495 -1.540070 -3.788529
  C 2.999506 -2.102537 -5.191266
  O 6.251722 -0.917151 -2.234862
  H 0.492463 0.567748 1.464862
  H 0.543113 -0.814855 0.372622
  H 0.542796 0.809638 -0.280410
  H 2.342862 -0.591263 -1.419715
  H 5.005063 -0.028806 -0.020228
  H 5.162310 -2.408752 -3.615512
  H 5.162635 -0.793141 -4.263484
  H 2.736872 -0.560365 -3.737127
  H 2.736636 -2.212712 -3.074553
  H 3.441754 -1.454058 -5.944304
  H 1.936097 -2.186997 -5.402277
  H 3.441572 -3.091746 -5.287592
  H 6.534071 -0.583265 -1.401506
 23
 0.000000
  C 0.890701 0.226327 0.615616
  C 2.367546 0.220744 0.601232
  H 2.943472 0.557132 1.437923
  C 2.974720 -0.245457 -0.559070
  C 4.353777 -0.331339 -0.773569
  C 5.238943 -0.919400 -2.240087
  C 4.744050 -1.442461 -3.544540
  C 3.253366 -1.560669 -3.839897
  C 3.036966 -2.123012 -5.242314
  O 6.195257 -0.950303 -2.317525
  H 0.466772 0.598325 1.541100
  H 0.514985 -0.784312 0.448793
  H 0.514661 0.840179 -0.204245
  H 2.312208 -0.561791 -1.346210
  H 4.976813 -0.000904 0.049329
  H 5.201917 -2.430512 -3.669762
  H 5.202246 -0.814903 -4.317738
  H 2.777404 -0.580680 -3.787792
  H 2.777163 -2.233025 -3.125215
  H 3.478485 -1.474798 -5.996008
  H 1.973195 -2.206838 -5.451751
  H 3.478300 -3.112484 -5.339291
  H 6.454238 -0.611993 -1.473151
 23
 0.000000
  C 0.859617 0.258560 0.695992
  C 2.336431 0.251978 0.679109
  H 2.914000 0.587980 1.514823
  C 2.941327 -0.214637 -0.482217
  C 4.319960 -0.301452 -0.699049
  C 5.281470 -0.942974 -2.298873
  C 4.784017 -1.465701 -3.602486
  C 3.292756 -1.582895 -3.895323
  C 3.073603 -2.145093 -5.297370
  O 6.160219 -0.983771 -2.400976
  H 0.437506 0.630848 1.622190
  H 0.482936 -0.751826 0.529810
  H 0.482606 0.872662 -0.123235
  H 2.277270 -0.530527 -1.268233
  H 4.944610 0.028564 0.122793
  H 5.240999 -2.454063 -3.728479
  H 5.241332 -0.838456 -4.376460
  H 2.817549 -0.602582 -3.842417
  H 2.817304 -2.254926 -3.179834
  H 3.514289 -1.497181 -6.051811
  H 2.009423 -2.228196 -5.505008
  H 3.514099 -3.134865 -5.395090
  H 6.404482 -0.637728 -1.537333
 23
 0.000000
  C 0.825902 0.292025 0.779440
  C 2.302678 0.284368 0.759867
  H 2.882013 0.619952 1.594525
  C 2.905116 -0.182692 -0.402557
  C 4.283288 -0.270512 -0.621900
  C 5.323413 -0.967701 -2.360532
  C 4.823206 -1.490065 -3.663236
  C 3.331328 -1.606167 -3.953357
  C 3.109212 -2.168206 -5.355001
  O 6.142934 -1.017179 -2.484276
  H 0.405750 0.664624 1.706404
  H 0.448183 -0.718086 0.613950
  H 0.447846 0.906399 -0.039101
  H 2.239398 -0.498101 -1.187360
  H 4.909675 0.059053 0.198800
  H 5.279233 -2.478762 -3.790057
  H 5.279570 -0.863157 -4.438042
  H 2.856937 -0.625505 -3.899589
  H 2.856687 -2.277848 -3.237002
  H 3.548998 -1.520619 -6.110245
  H 2.044595 -2.250530 -5.560702
  H 3.548803 -3.158301 -5.453520
  H 6.378592 -0.660650 -1.594495
 23
 0.000000
  C 0.790623 0.326156 0.864549
  C 2.267353 0.317394 0.842210
  H 2.848501 0.652547 1.675780
  C 2.867264 -0.150122 -0.321338
  C 4.244957 -0.238974 -0.543261
  C 5.364530 -0.992999 -2.423614
  C 4.861494 -1.514988 -3.725378
  C 3.368989 -1.629967 -4.012708
  C 3.143828 -2.191841 -5.413932
  O 6.138865 -1.050249 -2.566732
  H 0.372487 0.699073 1.792296
  H 0.411838 -0.683673 0.699771
  H 0.411494 0.940810 0.046714
  H 2.199841 -0.465035 -1.104891
  H 4.873126 0.090125 0.276263
  H 5.316538 -2.504029 -3.853049
  H 5.316880 -0.888425 -4.501039
  H 2.895438 -0.648948 -3.958055
  H 2.895183 -2.301289 -3.295464
  H 3.582688 -1.544586 -6.170000
  H 2.078766 -2.273362 -5.617641
  H 3.582488 -3.182267 -5.513270
  H 6.369543 -0.681233 -1.645822
 23
 0.000000
  C 0.754442 0.360666 0.950602
  C 2.231121 0.350802 0.925508
  H 2.814074 0.685524 1.757991
  C 2.828511 -0.117164 -0.239155
  C 4.205720 -0.207045 -0.463648
  C 5.404865 -1.018512 -2.487230
  C 4.899011 -1.540124 -3.788053
  C 3.405887 -1.653984 -4.072599
  C 3.177693 -2.215691 -5.473400
  O 6.144133 -1.082895 -2.648131
  H 0.338316 0.733897 1.879126
  H 0.374597 -0.648880 0.786536
  H 0.374247 0.975601 0.133473
  H 2.159392 -0.431581 -1.021461
  H 4.835663 0.121587 0.354701
  H 5.353074 -2.529507 -3.916569
  H 5.353421 -0.913905 -4.564563
  H 2.933175 -0.672610 -4.017066
  H 2.932916 -2.324949 -3.354471
  H 3.615628 -1.568767 -6.230286
  H 2.112192 -2.296414 -5.675122
  H 3.615424 -3.206446 -5.573553
  H 6.371375 -0.700089 -1.692839
 23
 0.000000
  C 0.717674 0.395468 1.037382
  C 2.194297 0.384528 1.009596
  H 2.779011 0.718827 1.841013
  C 2.789221 -0.083878 -0.156153
  C 4.165954 -0.174763 -0.383156
  C 5.444578 -1.044056 -2.550923
  C 4.935973 -1.565299 -3.850821
  C 3.442251 -1.678063 -4.132647
  C 3.211093 -2.239605 -5.533028
  O 6.156083 -1.115149 -2.728553
  H 0.303514 0.769005 1.966662
  H 0.336795 -0.613802 0.874013
  H 0.336438 1.010677 0.220945
  H 2.118449 -0.397810 -0.937236
  H 4.797627 0.153412 0.434042
  H 5.389075 -2.555014 -3.980162
  H 5.389428 -0.939414 -4.628159
  H 2.970360 -0.696343 -4.076256
  H 2.970096 -2.348680 -3.413657
  H 3.648123 -1.593003 -6.290712
  H 2.145168 -2.319546 -5.732809
  H 3.647914 -3.230681 -5.633975
  H 6.379849 -0.717770 -1.736927
 23
 0.000000
  C 0.680433 0.430564 1.124895
  C 2.156997 0.418586 1.094513
  H 2.743406 0.752477 1.924900
  C 2.749542 -0.050241 -0.072277
  C 4.125809 -0.142094 -0.301699
  C 5.483827 -1.069530 -2.614442
  C 4.972571 -1.590415 -3.913444
  C 3.478277 -1.702124 -4.192646
  C 3.244264 -2.263503 -5.592618
  O 6.173102 -1.147085 -2.808182
  H 0.268169 0.804395 2.054900
  H 0.298559 -0.578439 0.962200
  H 0.298195 1.046037 0.309126
  H 2.077177 -0.363704 -0.852178
  H 4.759148 0.185640 0.514386
  H 5.424745 -2.580451 -4.043577
  H 5.425103 -0.964852 -4.691578
  H 3.007181 -0.720070 -4.135430
  H 3.006911 -2.372405 -3.472827
  H 3.680421 -1.617212 -6.351070
  H 2.177933 -2.342691 -5.790527
  H 3.680206 -3.254888 -5.694330
  H 6.392181 -0.734694 -1.779130
 23
 0.000000
  C 0.642729 0.465985 1.213220
  C 2.119232 0.453018 1.180364
  H 2.707254 0.786520 2.009766
  C 2.709507 -0.016209 0.012585
  C 4.085326 -0.108984 -0.219143
  C 5.522715 -1.094858 -2.677595
  C 5.008936 -1.615400 -3.975738
  C 3.514101 -1.726101 -4.252439
  C 3.277367 -2.287325 -5.652016
  O 6.194286 -1.178779 -2.887207
  H 0.232275 0.840095 2.143912
  H 0.259907 -0.542762 1.051169
  H 0.259537 1.081712 0.398090
  H 2.035627 -0.329224 -0.766187
  H 4.720251 0.218329 0.595879
  H 5.460223 -2.605741 -4.106626
  H 5.460587 -0.990144 -4.754630
  H 3.043764 -0.743729 -4.194437
  H 3.043488 -2.396064 -3.531831
  H 3.712690 -1.641329 -6.411199
  H 2.210653 -2.365794 -5.848140
  H 3.712470 -3.279004 -5.754455
  H 6.406570 -0.751149 -1.820162
 23
 0.000000
  C 0.604514 0.501771 1.302453
  C 2.080955 0.487873 1.267267
  H 2.670496 0.821006 2.095738
  C 2.669090 0.018270 0.098559
  C 4.044483 -0.075374 -0.135340
  C 5.561288 -1.119954 -2.740167
  C 5.045132 -1.640171 -4.037497
  C 3.549793 -1.749922 -4.311841
  C 3.310495 -2.310997 -5.711042
  O 6.219152 -1.210290 -2.965774
  H 0.195766 0.876142 2.233791
  H 0.220801 -0.506735 1.141011
  H 0.220424 1.117737 0.487927
  H 1.993784 -0.294323 -0.679147
  H 4.680899 0.251541 0.678677
  H 5.495583 -2.630798 -4.169094
  H 5.495951 -1.015202 -4.817102
  H 3.080172 -0.767251 -4.253100
  H 3.079890 -2.419584 -3.590490
  H 3.745031 -1.665278 -6.470911
  H 2.243424 -2.388788 -5.905484
  H 3.744805 -3.302952 -5.814164
  H 6.421832 -0.767308 -1.860459
 23
 0.000000
  C 0.565688 0.537966 1.392708
  C 2.042067 0.523204 1.355358
  H 2.633017 0.855994 2.182962
  C 2.628213 0.053253 0.185791
  C 4.003206 -0.041196 -0.050123
  C 5.599524 -1.144699 -2.801864
  C 5.081162 -1.664613 -4.098437
  C 3.585358 -1.773481 -4.370591
  C 3.343682 -2.334416 -5.769439
  O 6.247451 -1.241645 -3.043953
  H 0.158524 0.912580 2.324643
  H 0.181148 -0.470316 1.231833
  H 0.180764 1.154154 0.578743
  H 1.951585 -0.258947 -0.590923
  H 4.641007 0.285348 0.762958
  H 5.530835 -2.655506 -4.230690
  H 5.531208 -1.039912 -4.878702
  H 3.116404 -0.790533 -4.311164
  H 3.116117 -2.442865 -3.648551
  H 3.777486 -1.688956 -6.529945
  H 2.276281 -2.411578 -5.962318
  H 3.777255 -3.326628 -5.873194
  H 6.437152 -0.783247 -1.900204
 23
 0.000000
  C 0.526062 0.574641 1.484158
  C 2.002382 0.559094 1.444843
  H 2.594610 0.891573 2.271659
  C 2.586721 0.088828 0.274499
  C 3.961349 -0.006353 0.036755
  C 5.637322 -1.168912 -2.862236
  C 5.116959 -1.688550 -4.158117
  C 3.620737 -1.796616 -4.428283
  C 3.376900 -2.357424 -5.826808
  O 6.279024 -1.272812 -3.121663
  H 0.120338 0.949473 2.416632
  H 0.140773 -0.433437 1.323799
  H 0.140383 1.191031 0.670704
  H 1.908894 -0.223014 -0.501313
  H 4.600405 0.319856 0.848985
  H 5.565924 -2.679685 -4.290966
  H 5.566303 -1.064091 -4.938981
  H 3.152390 -0.813417 -4.368235
  H 3.152097 -2.465747 -3.705619
  H 3.810040 -1.712197 -6.587891
  H 2.309203 -2.434013 -6.018268
  H 3.809803 -3.349868 -5.931137
  H 6.451910 -0.798928 -1.939309
