 26
 0.000000
  H 1.461984 0.167373 0.470469
  C 2.540544 0.148357 0.422216
  C 3.303481 0.617079 1.586818
  C 2.455147 1.089944 2.763136
  C 3.332226 1.555995 3.921072
  C 3.096837 -0.323309 -0.751516
  C 4.471237 -0.420468 -0.994159
  C 5.130004 -0.878115 -2.136209
  C 4.600362 -1.394399 -3.425137
  C 3.104841 -1.496188 -3.680683
  H 2.942907 -1.895003 -4.676295
  O 6.445480 -0.881911 -2.145739
  H 3.964206 1.435443 1.276250
  H 3.964830 -0.187959 1.929239
  H 1.812724 0.278386 3.109565
  H 1.812186 1.915009 2.451293
  H 3.967236 0.748623 4.278794
  H 2.715181 1.889785 4.751528
  H 3.966639 2.386564 3.619942
  H 2.410020 -0.632235 -1.520186
  H 5.116715 -0.096073 -0.185877
  H 5.051355 -2.384199 -3.560584
  H 5.052100 -0.772419 -4.206555
  H 2.630555 -0.519248 -3.631415
  H 2.629869 -2.168533 -2.970666
  H 6.858262 -0.553379 -1.323820
 26
 8.984652
  H 1.455551 0.175821 0.491438
  C 2.534387 0.151272 0.429546
  C 3.301615 0.617537 1.588023
  C 2.454413 1.090627 2.764717
  C 3.330875 1.556822 3.923091
  C 3.074106 -0.322305 -0.748851
  C 4.449158 -0.423299 -1.000990
  C 5.087727 -0.878798 -2.137839
  C 4.584127 -1.392218 -3.419734
  C 3.093156 -1.499677 -3.689410
  H 2.947166 -1.899736 -4.688275
  O 6.562578 -0.880458 -2.142333
  H 3.964113 1.434383 1.276108
  H 3.964653 -0.187376 1.928478
  H 1.811484 0.279046 3.110057
  H 1.811049 1.915006 2.452022
  H 3.965782 0.749632 4.281113
  H 2.713818 1.890583 4.753356
  H 3.965289 2.387414 3.622305
  H 2.378990 -0.628626 -1.511111
  H 5.102834 -0.101094 -0.198062
  H 5.044219 -2.379659 -3.550991
  H 5.044954 -0.768998 -4.196420
  H 2.612954 -0.525530 -3.647805
  H 2.612292 -2.175383 -2.986950
  H 6.953409 -0.551114 -1.318582
 26
 26.202285
  H 1.469654 0.183337 0.507641
  C 2.547961 0.152062 0.429288
  C 3.311135 0.615979 1.583461
  C 2.462440 1.087740 2.757475
  C 3.330809 1.554964 3.920350
  C 3.063094 -0.317974 -0.740575
  C 4.424269 -0.420142 -0.995418
  C 5.005662 -0.876024 -2.132217
  C 4.570985 -1.391857 -3.418101
  C 3.082839 -1.507475 -3.707125
  H 2.952005 -1.909479 -4.709027
  O 6.639806 -0.870785 -2.119506
  H 3.981769 1.428530 1.276334
  H 3.981859 -0.183104 1.923941
  H 1.817421 0.277009 3.101558
  H 1.817518 1.911253 2.444934
  H 3.965290 0.749121 4.282271
  H 2.708905 1.887224 4.747357
  H 3.965374 2.387135 3.624097
  H 2.363010 -0.623352 -1.500447
  H 5.087937 -0.102585 -0.205102
  H 5.050951 -2.371177 -3.542479
  H 5.051554 -0.770582 -4.184834
  H 2.596458 -0.537200 -3.666716
  H 2.596088 -2.180553 -3.007376
  H 6.954874 -0.533950 -1.276737
 26
 45.011215
  H 1.450789 0.200537 0.549792
  C 2.527494 0.162425 0.454257
  C 3.301712 0.624189 1.603428
  C 2.456758 1.096314 2.779123
  C 3.330176 1.562383 3.939463
  C 3.028115 -0.312254 -0.727522
  C 4.415520 -0.422404 -1.002255
  C 4.945349 -0.886810 -2.159997
  C 4.570062 -1.399433 -3.437185
  C 3.084181 -1.522274 -3.743227
  H 2.972251 -1.924131 -4.743889
  O 6.738815 -0.880745 -2.144083
  H 3.972948 1.436674 1.290509
  H 3.973089 -0.178889 1.939329
  H 1.814088 0.283257 3.123002
  H 1.814077 1.921380 2.465150
  H 3.965190 0.756368 4.299661
  H 2.711666 1.895401 4.768797
  H 3.965049 2.393681 3.642044
  H 2.324853 -0.614656 -1.480068
  H 5.098075 -0.108806 -0.221895
  H 5.067122 -2.374358 -3.553807
  H 5.067650 -0.776214 -4.195757
  H 2.592206 -0.552682 -3.714449
  H 2.592230 -2.202722 -3.051830
  H 6.998662 -0.535255 -1.277853
 26
 62.816107
  H 1.444808 0.204982 0.561878
  C 2.522937 0.165231 0.462018
  C 3.298936 0.628754 1.615003
  C 2.455226 1.101514 2.792266
  C 3.326272 1.568355 3.953670
  C 3.023555 -0.314042 -0.731219
  C 4.398902 -0.423955 -1.005532
  C 4.900362 -0.886490 -2.159156
  C 4.554972 -1.404026 -3.449215
  C 3.067721 -1.531455 -3.766595
  H 2.963471 -1.934633 -4.771000
  O 6.853066 -0.876923 -2.133999
  H 3.971495 1.438366 1.302769
  H 3.971961 -0.171522 1.949463
  H 1.811957 0.288983 3.134863
  H 1.811631 1.925036 2.477626
  H 3.961555 0.763007 4.315185
  H 2.706387 1.901050 4.782207
  H 3.961094 2.400278 3.657340
  H 2.318252 -0.618811 -1.489730
  H 5.083425 -0.113164 -0.231802
  H 5.059499 -2.374178 -3.562148
  H 5.059922 -0.781480 -4.201550
  H 2.574301 -0.564569 -3.739768
  H 2.574517 -2.211570 -3.078728
  H 7.079742 -0.533226 -1.270722
 26
 78.672072
  H 1.427844 0.207939 0.571674
  C 2.503706 0.165605 0.463965
  C 3.284064 0.624791 1.604791
  C 2.451631 1.098955 2.786720
  C 3.330626 1.564132 3.942125
  C 2.989888 -0.308303 -0.716254
  C 4.382499 -0.422313 -1.001657
  C 4.858859 -0.888365 -2.164098
  C 4.545377 -1.400703 -3.441552
  C 3.058297 -1.528767 -3.761143
  H 2.957036 -1.931253 -4.763993
  O 6.970902 -0.879163 -2.137467
  H 3.958813 1.432092 1.287234
  H 3.960337 -0.176697 1.933575
  H 1.807911 0.287707 3.133051
  H 1.806425 1.923299 2.475865
  H 3.966865 0.757976 4.300010
  H 2.716658 1.897915 4.774289
  H 3.965190 2.394899 3.642151
  H 2.285025 -0.611162 -1.469150
  H 5.077362 -0.112648 -0.231190
  H 5.054109 -2.368331 -3.551122
  H 5.054866 -0.777758 -4.189606
  H 2.565218 -0.560671 -3.733851
  H 2.565201 -2.209435 -3.072189
  H 7.179070 -0.530647 -1.259261
 26
 91.449610
  H 1.410224 0.213686 0.588141
  C 2.487069 0.169177 0.474172
  C 3.279417 0.631745 1.622147
  C 2.453940 1.108120 2.809981
  C 3.337158 1.572594 3.961979
  C 2.969423 -0.310784 -0.721160
  C 4.349526 -0.426361 -1.011142
  C 4.802840 -0.887490 -2.161915
  C 4.535072 -1.406659 -3.457221
  C 3.047320 -1.546632 -3.806765
  H 2.969939 -1.949971 -4.812474
  O 7.073736 -0.868598 -2.109569
  H 3.955621 1.437000 1.302258
  H 3.957852 -0.169238 1.947817
  H 1.809764 0.298191 3.158950
  H 1.807481 1.932701 2.501897
  H 3.974122 0.766037 4.317923
  H 2.726379 1.907216 4.796588
  H 3.971580 2.402735 3.659836
  H 2.261953 -0.614448 -1.475618
  H 5.045529 -0.119122 -0.246876
  H 5.054732 -2.372207 -3.557110
  H 5.055530 -0.778173 -4.196526
  H 2.547890 -0.582559 -3.787752
  H 2.547903 -2.230455 -3.126956
  H 7.253593 -0.523154 -1.236467
 26
 99.235147
  H 1.335250 0.243962 0.674751
  C 2.407106 0.185818 0.525367
  C 3.249824 0.635139 1.634114
  C 2.483344 1.124927 2.851875
  C 3.415209 1.578559 3.968696
  C 2.837229 -0.299271 -0.680989
  C 4.219594 -0.434470 -1.022944
  C 4.643601 -0.896740 -2.182211
  C 4.577593 -1.410390 -3.470338
  C 3.115136 -1.590763 -3.924172
  H 3.136737 -1.992712 -4.933298
  O 7.068987 -0.836942 -2.029457
  H 3.922545 1.430530 1.286759
  H 3.926680 -0.175468 1.934907
  H 1.838249 0.327227 3.226866
  H 1.833996 1.956491 2.568928
  H 4.054603 0.764206 4.301841
  H 2.840986 1.922698 4.824712
  H 4.050004 2.398962 3.641494
  H 2.112550 -0.599493 -1.425267
  H 4.926606 -0.129905 -0.264555
  H 5.114166 -2.366190 -3.522447
  H 5.114599 -0.752737 -4.165353
  H 2.595666 -0.638740 -3.936359
  H 2.595335 -2.290342 -3.278669
  H 7.229050 -0.499324 -1.165858
 26
 103.826119
  H 1.295512 0.255563 0.705628
  C 2.362447 0.188915 0.534612
  C 3.236190 0.632111 1.627026
  C 2.497388 1.127813 2.858743
  C 3.453813 1.574046 3.955922
  C 2.759605 -0.296456 -0.672005
  C 4.144252 -0.443803 -1.045309
  C 4.560023 -0.896831 -2.182277
  C 4.594631 -1.408067 -3.465341
  C 3.135249 -1.601826 -3.953371
  H 3.189859 -2.002620 -4.960715
  O 7.141249 -0.817042 -1.981186
  H 3.904002 1.424362 1.267184
  H 3.908349 -0.184638 1.917108
  H 1.852779 0.335207 3.246650
  H 1.848213 1.964302 2.588260
  H 4.093561 0.754453 4.276016
  H 2.899372 1.922890 4.823146
  H 4.088695 2.389167 3.615247
  H 2.025562 -0.593013 -1.405891
  H 4.858304 -0.140988 -0.291333
  H 5.131975 -2.361769 -3.494309
  H 5.132431 -0.735427 -4.141662
  H 2.608551 -0.653993 -3.975945
  H 2.608263 -2.305971 -3.318693
  H 7.350766 -0.477717 -1.109538
 26
 106.321216
  H 1.273574 0.261667 0.720677
  C 2.338713 0.190832 0.538928
  C 3.227446 0.631500 1.625104
  C 2.499569 1.130813 2.866205
  C 3.468013 1.574118 3.956142
  C 2.719528 -0.293337 -0.664844
  C 4.108779 -0.446908 -1.053947
  C 4.521296 -0.897716 -2.184869
  C 4.593756 -1.411434 -3.473623
  C 3.134965 -1.610422 -3.975030
  H 3.202696 -2.011009 -4.981583
  O 7.259893 -0.807119 -1.956199
  H 3.894533 1.423707 1.258642
  H 3.899018 -0.189826 1.910196
  H 1.855513 0.340671 3.259573
  H 1.850812 1.969255 2.601566
  H 4.107791 0.752273 4.270406
  H 2.922616 1.924862 4.828369
  H 4.102780 2.386967 3.609831
  H 1.979545 -0.587398 -1.392180
  H 4.830731 -0.144301 -0.300844
  H 5.133221 -2.366297 -3.493837
  H 5.133715 -0.732121 -4.144448
  H 2.604913 -0.663919 -4.002731
  H 2.604503 -2.316898 -3.344901
  H 7.484803 -0.469374 -1.088538
 26
 107.337878
  H 1.249851 0.269940 0.740342
  C 2.311971 0.193808 0.545275
  C 3.219020 0.631020 1.623374
  C 2.507898 1.132794 2.871140
  C 3.489298 1.570959 3.948940
  C 2.674756 -0.291773 -0.662238
  C 4.058576 -0.451753 -1.067478
  C 4.469290 -0.901596 -2.195195
  C 4.595694 -1.411164 -3.472585
  C 3.142579 -1.618474 -3.994676
  H 3.230813 -2.018615 -4.999442
  O 7.363695 -0.794496 -1.924936
  H 3.883100 1.420606 1.250342
  H 3.887545 -0.193161 1.901592
  H 1.864556 0.345367 3.271404
  H 1.859881 1.974219 2.613656
  H 4.128823 0.746030 4.255579
  H 2.955286 1.924022 4.827278
  H 4.123851 2.380805 3.595347
  H 1.928965 -0.583573 -1.383753
  H 4.783705 -0.150874 -0.319278
  H 5.137607 -2.361897 -3.479778
  H 5.138097 -0.726160 -4.131491
  H 2.608187 -0.675288 -4.030242
  H 2.607736 -2.327635 -3.372203
  H 7.603095 -0.457695 -1.060301
 26
 107.638758
  H 1.227851 0.278862 0.761830
  C 2.286975 0.197592 0.553506
  C 3.208499 0.629502 1.618848
  C 2.512902 1.134586 2.875832
  C 3.509290 1.568419 3.943364
  C 2.632721 -0.288712 -0.656162
  C 4.014448 -0.455305 -1.078195
  C 4.425720 -0.903926 -2.201829
  C 4.596401 -1.413095 -3.477010
  C 3.147359 -1.627383 -4.016394
  H 3.252623 -2.027369 -5.019923
  O 7.475829 -0.781223 -1.891463
  H 3.870550 1.417722 1.237941
  H 3.875166 -0.199237 1.889935
  H 1.870459 0.349861 3.283152
  H 1.865639 1.978965 2.625790
  H 4.148670 0.740421 4.242365
  H 2.987090 1.923725 4.827943
  H 4.143569 2.375471 3.582514
  H 1.879201 -0.578059 -1.371124
  H 4.747372 -0.155072 -0.332650
  H 5.141126 -2.363760 -3.473416
  H 5.141612 -0.721161 -4.128470
  H 2.608656 -0.686433 -4.059297
  H 2.608114 -2.339541 -3.400392
  H 7.729388 -0.446206 -1.031571
 26
 111.111000
  H 1.220774 0.279014 0.761799
  C 2.279542 0.197075 0.551938
  C 3.202884 0.628397 1.615943
  C 2.509432 1.133915 2.873937
  C 3.507642 1.567113 3.940024
  C 2.623225 -0.289442 -0.658232
  C 4.004233 -0.456906 -1.082270
  C 4.413591 -0.905782 -2.206502
  C 4.582099 -1.415053 -3.481931
  C 3.132141 -1.628422 -4.019213
  H 3.235696 -2.028469 -5.022894
  O 7.622647 -0.778736 -1.884671
  H 3.864880 1.416200 1.234079
  H 3.869420 -0.200764 1.886059
  H 1.867084 0.349595 3.282186
  H 1.862341 1.978704 2.624838
  H 4.146931 0.738710 4.238094
  H 2.986951 1.922745 4.825361
  H 4.141907 2.373765 3.578257
  H 1.868486 -0.578308 -1.372101
  H 4.738428 -0.157140 -0.337788
  H 5.126227 -2.366061 -3.479131
  H 5.126801 -0.723460 -4.134179
  H 2.593971 -0.687131 -4.061331
  H 2.593340 -2.340241 -3.402431
  H 7.877665 -0.443884 -1.025146
 26
 108.062415
  H 1.195951 0.285963 0.777648
  C 2.251978 0.198940 0.555844
  C 3.192391 0.626754 1.611876
  C 2.515409 1.135427 2.877285
  C 3.527117 1.563380 3.931286
  C 2.580162 -0.288857 -0.657364
  C 3.955583 -0.462285 -1.095695
  C 4.368494 -0.910411 -2.217812
  C 4.579161 -1.416317 -3.484582
  C 3.134717 -1.636099 -4.038066
  H 3.254127 -2.035453 -5.040001
  O 7.731992 -0.763391 -1.847609
  H 3.852413 1.412406 1.223087
  H 3.856485 -0.206051 1.875473
  H 1.874008 0.354270 3.292641
  H 1.869778 1.983297 2.635434
  H 4.165573 0.731812 4.221779
  H 3.018383 1.921524 4.822445
  H 4.161117 2.366693 3.562118
  H 1.819189 -0.574877 -1.364717
  H 4.694980 -0.164346 -0.355460
  H 5.124537 -2.364576 -3.471599
  H 5.125058 -0.719739 -4.127654
  H 2.592775 -0.697693 -4.087040
  H 2.592043 -2.350480 -3.428242
  H 7.998753 -0.428929 -0.990252
 26
 106.154740
  H 1.140578 0.374864 0.806073
  C 2.185493 0.245106 0.558358
  C 3.164038 0.628156 1.597415
  C 2.529644 1.155074 2.878310
  C 3.577894 1.535486 3.915616
  C 2.478678 -0.249544 -0.664981
  C 3.827411 -0.475370 -1.132435
  C 4.297568 -0.925989 -2.233885
  C 4.668060 -1.425205 -3.465813
  C 3.209955 -1.604800 -4.018828
  H 3.331021 -2.005674 -5.021808
  O 7.567266 -0.837146 -1.783374
  H 3.844486 1.391224 1.199518
  H 3.796250 -0.233929 1.843861
  H 1.866311 0.396257 3.300673
  H 1.914813 2.029808 2.652614
  H 4.187769 0.676748 4.188060
  H 3.101281 1.907669 4.818829
  H 4.236094 2.315314 3.538329
  H 1.690595 -0.501100 -1.357400
  H 4.621099 -0.217459 -0.424349
  H 5.189975 -2.382132 -3.420496
  H 5.234857 -0.723158 -4.078947
  H 2.684099 -0.657036 -4.082861
  H 2.639291 -2.313079 -3.426026
  H 8.047651 -0.543126 -1.005632
