 13
 0.000000
  C 0.990302 0.139995 0.400901
  C 2.434818 0.106545 0.317153
  H 3.024388 0.445539 1.160490
  C 3.088313 -0.347178 -0.812682
  C 4.490614 -0.393639 -0.929973
  C 5.121792 -0.842422 -2.048565
  H 4.604187 -1.194766 -2.925993
  H 6.197931 -0.865132 -2.105720
  H 0.627305 0.522341 1.351076
  H 0.575869 -0.860231 0.224491
  H 0.576406 0.740966 -0.418166
  H 2.493763 -0.684980 -1.652925
  H 5.078393 -0.055140 -0.087616
 13
 0.791503
  C 0.990999 0.123940 0.420804
  C 2.432451 0.067380 0.311492
  H 3.033038 0.306265 1.178801
  C 3.079271 -0.306054 -0.852193
  C 4.486150 -0.333126 -0.961093
  C 5.137567 -0.897008 -2.012329
  H 4.615443 -1.502420 -2.734632
  H 6.202409 -0.792814 -2.135262
  H 0.646534 0.345789 1.421788
  H 0.533270 -0.798770 0.051477
  H 0.595247 0.867338 -0.284314
  H 2.492472 -0.565381 -1.720954
  H 5.052399 0.198885 -0.205991
 13
 4.142586
  C 0.988400 0.121700 0.445679
  C 2.426609 0.006831 0.317772
  H 3.040982 0.128216 1.201614
  C 3.046616 -0.288543 -0.878277
  C 4.454473 -0.330373 -1.012047
  C 5.166729 -0.917692 -1.999906
  H 4.786074 -1.771375 -2.539632
  H 6.185706 -0.629605 -2.206680
  H 0.661730 0.252182 1.473981
  H 0.474915 -0.729566 -0.015911
  H 0.640859 0.967541 -0.160604
  H 2.438040 -0.470904 -1.755269
  H 4.968536 0.384423 -0.372911
 13
 9.816930
  C 0.986602 0.116070 0.478162
  C 2.423997 -0.027314 0.327150
  H 3.049184 0.029844 1.207113
  C 3.018779 -0.262372 -0.888413
  C 4.422472 -0.370898 -1.049986
  C 5.195493 -0.945137 -1.985711
  H 4.962008 -1.917588 -2.399860
  H 6.145118 -0.524577 -2.270574
  H 0.680200 0.192059 1.517439
  H 0.442887 -0.695513 -0.013785
  H 0.658799 1.008199 -0.071066
  H 2.394554 -0.373363 -1.768544
  H 4.869542 0.505432 -0.552153
 13
 12.084508
  C 1.007738 0.035014 0.513058
  C 2.441090 -0.028239 0.314274
  H 3.086676 -0.051200 1.181021
  C 3.005445 -0.101024 -0.940115
  C 4.409095 -0.232530 -1.162359
  C 5.182036 -1.005569 -1.914364
  H 4.892956 -2.020271 -2.154695
  H 6.171000 -0.705607 -2.212340
  H 0.733963 0.064848 1.565314
  H 0.489459 -0.798554 0.020449
  H 0.612037 0.919557 -0.004214
  H 2.365786 -0.065147 -1.811938
  H 4.808079 0.741259 -0.831089
 13
 19.418389
  C 1.015451 0.042323 0.549555
  C 2.455118 -0.000554 0.311253
  H 3.113507 -0.049687 1.169604
  C 2.982745 -0.087560 -0.948766
  C 4.362483 -0.313141 -1.257013
  C 5.239486 -1.039943 -1.894808
  H 5.092307 -2.099277 -2.005798
  H 6.187644 -0.650789 -2.218896
  H 0.774168 -0.034971 1.601311
  H 0.493431 -0.739496 0.000547
  H 0.603035 0.979611 0.146911
  H 2.307097 -0.011910 -1.798055
  H 4.527311 0.772491 -1.048664
 13
 27.709496
  C 1.021073 0.052474 0.566001
  C 2.479024 -0.062504 0.354949
  H 3.100754 -0.158666 1.212611
  C 2.990431 -0.087367 -0.919797
  C 4.343623 -0.390566 -1.332044
  C 5.291839 -1.037726 -1.898463
  H 5.202378 -2.095625 -1.967341
  H 6.176106 -0.549221 -2.275260
  H 0.774066 0.013405 1.624673
  H 0.437166 -0.686932 0.033915
  H 0.668535 1.011716 0.140141
  H 2.305708 -0.014617 -1.756052
  H 4.308336 0.788132 -1.127444
 13
 33.977575
  C 1.074352 0.120481 0.599250
  C 2.480910 -0.153975 0.292502
  H 3.165083 -0.399084 1.088550
  C 2.966187 -0.080271 -1.043970
  C 4.221924 -0.559499 -1.445907
  C 5.351064 -1.032024 -1.809154
  H 5.473679 -2.092759 -1.991525
  H 6.245706 -0.446619 -1.968502
  H 0.857188 -0.024775 1.652563
  H 0.410070 -0.512055 0.006196
  H 0.812627 1.147155 0.329267
  H 2.213251 0.025631 -1.824261
  H 3.768655 0.797996 -1.175750
 13
 32.174084
  C 1.093981 0.105481 0.602649
  C 2.509929 -0.086230 0.297681
  H 3.210218 -0.301695 1.088147
  C 2.995738 -0.000294 -1.062381
  C 4.182841 -0.641133 -1.474788
  C 5.319163 -1.106167 -1.801421
  H 5.450814 -2.153566 -2.050190
  H 6.228065 -0.524866 -1.899254
  H 0.887274 -0.037051 1.657843
  H 0.474150 -0.578576 0.017263
  H 0.763357 1.107939 0.314920
  H 2.230272 0.087366 -1.832512
  H 3.640166 0.928650 -1.090759
 13
 30.337717
  C 1.118880 0.116656 0.608806
  C 2.525839 -0.092899 0.288973
  H 3.232316 -0.316753 1.070790
  C 3.018918 0.044987 -1.079379
  C 4.178969 -0.653237 -1.476721
  C 5.316339 -1.128834 -1.772552
  H 5.444451 -2.148722 -2.114503
  H 6.249912 -0.577081 -1.739935
  H 0.913945 -0.058621 1.657325
  H 0.477126 -0.529036 -0.000815
  H 0.809036 1.135080 0.362037
  H 2.230805 0.036861 -1.833122
  H 3.457372 1.067795 -1.105414
 13
 29.820444
  C 1.127384 0.147207 0.617134
  C 2.521190 -0.128044 0.285737
  H 3.209652 -0.434412 1.056253
  C 3.020523 0.026778 -1.077868
  C 4.196725 -0.644526 -1.469370
  C 5.336116 -1.113386 -1.769069
  H 5.472232 -2.111091 -2.170014
  H 6.270798 -0.569887 -1.673747
  H 0.926734 -0.005523 1.671782
  H 0.453098 -0.484185 0.030639
  H 0.853342 1.172859 0.352489
  H 2.231431 -0.043534 -1.836989
  H 3.354684 1.083939 -1.151486
