 26
 0.000000
  C 1.019181 0.111284 0.327314
  C 2.493488 0.127327 0.368161
  C 3.242757 0.603691 1.553836
  C 2.433066 1.086255 2.753816
  C 3.362441 1.537025 3.876929
  C 3.157149 -0.328643 -0.766051
  C 4.540535 -0.393150 -0.927058
  C 5.195268 -0.851967 -2.072275
  C 4.533981 -1.343647 -3.296634
  H 3.454707 -1.322016 -3.241046
  O 6.508997 -0.876676 -2.137632
  H 0.561942 0.477369 1.237974
  H 0.665209 -0.903095 0.138400
  H 0.665732 0.713257 -0.510937
  H 3.903797 1.418485 1.237796
  H 3.903208 -0.203549 1.889690
  H 1.795963 0.283394 3.128361
  H 1.796777 1.925612 2.468512
  H 3.997614 0.718900 4.208966
  H 2.784845 1.880572 4.731380
  H 3.998443 2.356864 3.550871
  H 2.533720 -0.657659 -1.585407
  H 5.161662 -0.063654 -0.105804
  H 4.873209 -2.358920 -3.498244
  H 4.872253 -0.749100 -4.144313
  H 6.968323 -0.554788 -1.338251
 26
 -0.025458
  C 1.013955 0.012303 0.375893
  C 2.487064 0.074473 0.384862
  C 3.239896 0.577962 1.557873
  C 2.433201 1.120486 2.734023
  C 3.365074 1.640995 3.824330
  C 3.149196 -0.360704 -0.757934
  C 4.531705 -0.466442 -0.901153
  C 5.193017 -0.879075 -2.055239
  C 4.548484 -1.207617 -3.344455
  H 3.476455 -1.065855 -3.334705
  O 6.498774 -1.000197 -2.076372
  H 0.570889 0.237915 1.338715
  H 0.680169 -0.971134 0.042716
  H 0.623844 0.721159 -0.358603
  H 3.923209 1.364626 1.219839
  H 3.879415 -0.231963 1.927677
  H 1.806052 0.336141 3.159458
  H 1.789046 1.936291 2.403612
  H 4.008666 0.847360 4.198434
  H 2.789487 2.027872 4.661198
  H 3.993214 2.446091 3.448876
  H 2.524899 -0.658845 -1.587800
  H 5.149083 -0.237473 -0.043390
  H 4.780876 -2.240178 -3.605331
  H 4.991912 -0.593681 -4.128028
  H 6.946417 -0.796488 -1.233931
 26
 -0.180143
  C 1.010384 -0.039136 0.413989
  C 2.482157 0.035845 0.388697
  C 3.239723 0.555923 1.553371
  C 2.432103 1.142687 2.710349
  C 3.362713 1.714201 3.774155
  C 3.141581 -0.388860 -0.757838
  C 4.523542 -0.528799 -0.881933
  C 5.194930 -0.907816 -2.040754
  C 4.567175 -1.131332 -3.359391
  H 3.505496 -0.937266 -3.363092
  O 6.494985 -1.084302 -2.040597
  H 0.609138 -0.044143 1.420887
  H 0.654330 -0.911040 -0.133788
  H 0.597762 0.832288 -0.099070
  H 3.938736 1.322353 1.201071
  H 3.860273 -0.255443 1.948599
  H 1.809674 0.372852 3.173564
  H 1.777359 1.941865 2.345521
  H 4.012433 0.941391 4.179429
  H 2.787290 2.131985 4.594808
  H 3.983401 2.505425 3.364001
  H 2.519888 -0.658096 -1.597702
  H 5.125891 -0.375096 0.004158
  H 4.756209 -2.160351 -3.676151
  H 5.057340 -0.495742 -4.096647
  H 6.930703 -0.946191 -1.178893
 26
 -0.828024
  C 1.025410 -0.056590 0.430861
  C 2.494915 0.011643 0.387051
  C 3.241876 0.543982 1.552160
  C 2.412334 1.117242 2.697716
  C 3.317057 1.725125 3.765785
  C 3.154267 -0.407058 -0.760320
  C 4.537049 -0.535447 -0.887179
  C 5.211699 -0.893551 -2.050615
  C 4.584827 -1.105209 -3.372132
  H 3.518271 -0.924160 -3.371749
  O 6.513112 -1.055914 -2.053456
  H 0.674486 -0.410149 1.396732
  H 0.622644 -0.680287 -0.363192
  H 0.612695 0.947789 0.308162
  H 3.931374 1.319142 1.204387
  H 3.872573 -0.257456 1.954993
  H 1.806317 0.335402 3.159603
  H 1.739181 1.889390 2.323424
  H 3.985783 0.974924 4.183585
  H 2.721764 2.133005 4.578972
  H 3.919450 2.532174 3.353780
  H 2.533980 -0.677222 -1.601862
  H 5.136066 -0.389623 0.001187
  H 4.786055 -2.123910 -3.704081
  H 5.065701 -0.452277 -4.100005
  H 6.948136 -0.924866 -1.190112
 26
 -0.122833
  C 1.019039 -0.132062 0.486705
  C 2.481400 -0.017225 0.387486
  C 3.236918 0.611863 1.498538
  C 2.418095 1.151799 2.670046
  C 3.322317 1.837760 3.689052
  C 3.134949 -0.459390 -0.752111
  C 4.509566 -0.679400 -0.842530
  C 5.201192 -0.994159 -2.008286
  C 4.633569 -0.924419 -3.370806
  H 3.604071 -0.593978 -3.381770
  O 6.464446 -1.346416 -1.976572
  H 0.737678 -0.578431 1.438379
  H 0.597122 -0.709983 -0.329539
  H 0.564547 0.861972 0.480104
  H 3.841854 1.427759 1.089812
  H 3.957684 -0.118197 1.892152
  H 1.885199 0.341288 3.166385
  H 1.679566 1.871373 2.314358
  H 4.052640 1.137493 4.099057
  H 2.735410 2.228142 4.512151
  H 3.858184 2.666942 3.237570
  H 2.517180 -0.704978 -1.606437
  H 5.074429 -0.663272 0.082443
  H 4.717483 -1.901180 -3.849621
  H 5.239805 -0.244117 -3.968962
  H 6.855776 -1.396626 -1.084954
 26
 4.803130
  C 1.065584 -0.392421 0.622672
  C 2.490949 -0.090676 0.417008
  C 3.228330 0.707378 1.424973
  C 2.436528 1.186791 2.637462
  C 3.308144 2.057112 3.538522
  C 3.119997 -0.452296 -0.768499
  C 4.457764 -0.829396 -0.831644
  C 5.181663 -1.051531 -1.997877
  C 4.821741 -0.443403 -3.297000
  H 3.924999 0.160224 -3.230513
  O 6.279135 -1.769931 -2.012001
  H 0.910391 -0.791783 1.622664
  H 0.689578 -1.092370 -0.116545
  H 0.469089 0.521170 0.569627
  H 3.666329 1.574598 0.920577
  H 4.087338 0.125659 1.782568
  H 2.075016 0.335457 3.216332
  H 1.571206 1.768413 2.316301
  H 4.158039 1.495770 3.920016
  H 2.733940 2.415686 4.389185
  H 3.683801 2.923213 2.998235
  H 2.502263 -0.562702 -1.649963
  H 4.930937 -1.004875 0.125554
  H 4.697501 -1.218681 -4.053296
  H 5.654407 0.173478 -3.633146
  H 6.512059 -2.178493 -1.158348
 26
 14.736932
  C 1.122578 -0.564675 0.760249
  C 2.496304 -0.129298 0.462778
  C 3.226746 0.765670 1.387447
  C 2.430572 1.322442 2.564813
  C 3.298179 2.255037 3.405080
  C 3.082476 -0.470501 -0.771845
  C 4.303376 -1.103148 -0.840427
  C 5.053109 -1.313176 -1.999686
  C 5.014999 -0.386640 -3.150069
  H 4.237789 0.360271 -3.040475
  O 5.894754 -2.315245 -2.117155
  H 1.073782 -0.960717 1.772750
  H 0.777055 -1.310590 0.052823
  H 0.428810 0.279933 0.736857
  H 3.654213 1.587403 0.806401
  H 4.098840 0.223307 1.787760
  H 2.075362 0.510332 3.198645
  H 1.563914 1.877053 2.201441
  H 4.113490 1.711107 3.877138
  H 2.704729 2.720708 4.188938
  H 3.724100 3.046291 2.793101
  H 2.525988 -0.256977 -1.674050
  H 4.688062 -1.446692 0.110696
  H 4.879675 -0.937090 -4.081350
  H 5.984568 0.104034 -3.226782
  H 5.904037 -2.928782 -1.359486
 26
 30.154638
  C 1.269544 -0.726613 0.850968
  C 2.561038 -0.119421 0.492074
  C 3.196891 0.911286 1.346191
  C 2.436132 1.306405 2.610824
  C 3.143201 2.449391 3.325559
  C 3.078854 -0.336068 -0.827715
  C 4.162622 -1.156357 -0.925597
  C 4.937717 -1.456488 -2.069770
  C 5.358091 -0.413984 -3.024964
  H 4.916693 0.540930 -2.790086
  O 5.442132 -2.646898 -2.271556
  H 1.300878 -1.101943 1.869622
  H 1.003855 -1.527870 0.170982
  H 0.472321 0.018823 0.831678
  H 3.348663 1.804061 0.732698
  H 4.205692 0.591246 1.627006
  H 2.358695 0.457806 3.292729
  H 1.420166 1.619952 2.354303
  H 4.143251 2.155514 3.632382
  H 2.589837 2.740386 4.214349
  H 3.226834 3.319176 2.680339
  H 2.583011 0.096063 -1.685339
  H 4.462060 -1.529868 0.047704
  H 5.099415 -0.701933 -4.045385
  H 6.446575 -0.337766 -2.998935
  H 5.195712 -3.315315 -1.603158
 26
 46.783965
  C 1.561965 -0.991303 1.057747
  C 2.637120 -0.156025 0.509639
  C 3.172484 1.007365 1.251391
  C 2.413948 1.413634 2.515716
  C 3.072110 2.622641 3.171206
  C 2.924664 -0.178386 -0.932880
  C 3.878971 -1.110246 -1.096363
  C 4.773585 -1.494777 -2.122967
  C 5.657124 -0.501524 -2.770248
  H 5.477025 0.503572 -2.397507
  O 5.037726 -2.752129 -2.383642
  H 1.801942 -1.376977 2.043011
  H 1.304315 -1.808893 0.391493
  H 0.672859 -0.363835 1.173616
  H 3.216483 1.864056 0.565123
  H 4.212039 0.803830 1.531014
  H 2.392110 0.590689 3.231968
  H 1.386051 1.667681 2.260882
  H 4.103236 2.403197 3.443649
  H 2.536423 2.899780 4.073558
  H 3.066353 3.482187 2.502015
  H 2.335665 0.323254 -1.688674
  H 4.059834 -1.488406 -0.052047
  H 5.508009 -0.525236 -3.854177
  H 6.695776 -0.783579 -2.603788
  H 4.430773 -3.396051 -1.982260
 26
 60.695471
  C 1.576259 -1.036583 1.065363
  C 2.621862 -0.201175 0.426459
  C 3.180555 1.002772 1.134757
  C 2.540285 1.322663 2.489895
  C 3.139420 2.599534 3.070300
  C 2.673140 -0.140399 -1.062140
  C 3.709632 -0.950664 -1.226729
  C 4.737482 -1.436037 -2.033272
  C 5.740658 -0.500447 -2.595069
  H 5.487819 0.531759 -2.383330
  O 5.010959 -2.716226 -2.172725
  H 1.888329 -1.416281 2.035240
  H 1.281432 -1.865289 0.426974
  H 0.693277 -0.414024 1.224562
  H 3.072590 1.869384 0.474603
  H 4.252137 0.880933 1.305934
  H 2.706380 0.505650 3.191827
  H 1.464727 1.458981 2.372479
  H 4.210057 2.491279 3.230734
  H 2.676774 2.831921 4.027050
  H 2.976183 3.443798 2.403272
  H 1.990504 0.307554 -1.757463
  H 3.787224 -1.128436 0.031884
  H 5.791657 -0.648404 -3.673761
  H 6.729733 -0.736995 -2.203536
  H 4.323789 -3.327604 -1.851148
 26
 53.553693
  C 1.656028 -1.098321 1.061752
  C 2.719745 -0.224436 0.449787
  C 3.224321 1.040169 1.150230
  C 2.540481 1.328178 2.492766
  C 3.108989 2.602302 3.110768
  C 2.657618 -0.097622 -1.069144
  C 3.663639 -0.861470 -1.387687
  C 4.681013 -1.414328 -2.111682
  C 5.780759 -0.551397 -2.601394
  H 5.623571 0.487347 -2.335519
  O 4.852944 -2.700145 -2.287703
  H 1.962366 -1.472069 2.036695
  H 1.410456 -1.935595 0.411788
  H 0.745780 -0.511423 1.197676
  H 3.074752 1.893758 0.483231
  H 4.294140 0.977777 1.333382
  H 2.690654 0.495811 3.185433
  H 1.466046 1.455722 2.341848
  H 4.181284 2.510495 3.278339
  H 2.633863 2.797268 4.068681
  H 2.935524 3.460193 2.465214
  H 1.881860 0.346015 -1.675041
  H 3.664129 -0.928830 0.276848
  H 5.852160 -0.652739 -3.684517
  H 6.727880 -0.901681 -2.194115
  H 4.138534 -3.268405 -1.954930
 26
 39.009498
  C 1.567683 -1.056374 1.110674
  C 2.817000 -0.366072 0.609250
  C 3.333980 0.903078 1.310191
  C 2.487149 1.329221 2.511260
  C 3.017469 2.643841 3.080980
  C 2.793781 -0.161738 -0.906580
  C 3.744935 -0.800610 -1.475240
  C 4.743342 -1.357919 -2.227041
  C 5.838397 -0.495512 -2.736157
  H 5.656714 0.556828 -2.526752
  O 4.889284 -2.638378 -2.433727
  H 1.733563 -1.435943 2.112453
  H 1.304947 -1.885752 0.462992
  H 0.720404 -0.373202 1.129828
  H 3.353615 1.731826 0.602861
  H 4.356975 0.743941 1.645781
  H 2.528642 0.562009 3.285305
  H 1.442413 1.462770 2.214213
  H 4.047539 2.535523 3.421219
  H 2.409584 2.951638 3.930642
  H 2.983410 3.436864 2.334703
  H 2.008019 0.412311 -1.371403
  H 3.638413 -1.117135 0.654048
  H 5.944669 -0.647271 -3.812777
  H 6.782193 -0.816138 -2.287507
  H 4.134780 -3.199625 -2.180892
 26
 33.464023
  C 1.342808 -0.968704 1.133295
  C 2.717463 -0.545254 0.654913
  C 3.359732 0.697030 1.301561
  C 2.555574 1.321232 2.442724
  C 3.260310 2.566112 2.969391
  C 2.745046 -0.381116 -0.872810
  C 3.722552 -0.882682 -1.522608
  C 4.786170 -1.267826 -2.275885
  C 5.809472 -0.274055 -2.668094
  H 5.597229 0.706630 -2.258543
  O 4.992752 -2.497649 -2.672901
  H 1.399721 -1.286329 2.170656
  H 0.979690 -1.805481 0.541847
  H 0.619554 -0.160840 1.058197
  H 3.510000 1.473802 0.547196
  H 4.347058 0.425683 1.675541
  H 2.449449 0.599827 3.254397
  H 1.557952 1.599608 2.104606
  H 4.252919 2.322191 3.341289
  H 2.690093 3.002347 3.786242
  H 3.361274 3.317780 2.189737
  H 1.882459 0.092591 -1.320433
  H 3.398173 -1.387993 0.788890
  H 5.858706 -0.220500 -3.756031
  H 6.789969 -0.618786 -2.338335
  H 4.300852 -3.142156 -2.433473
 26
 31.620045
  C 1.135390 -0.879792 1.140793
  C 2.589820 -0.735161 0.730317
  C 3.340269 0.489177 1.296739
  C 2.570540 1.336962 2.306055
  C 3.405361 2.536675 2.740566
  C 2.714589 -0.698526 -0.800210
  C 3.766720 -0.974819 -1.466218
  C 4.922043 -1.156897 -2.157255
  C 5.765755 0.001956 -2.509741
  H 5.410423 0.914470 -2.048218
  O 5.353262 -2.329262 -2.556107
  H 1.070786 -1.039565 2.214332
  H 0.690430 -1.742435 0.650737
  H 0.551342 0.000984 0.893248
  H 3.644016 1.151789 0.483706
  H 4.259733 0.136918 1.766439
  H 2.324282 0.736970 3.184053
  H 1.637077 1.700228 1.876339
  H 4.348607 2.215452 3.177769
  H 2.868455 3.119523 3.484867
  H 3.622899 3.187085 1.896381
  H 1.782517 -0.441656 -1.294898
  H 3.117466 -1.646042 1.020586
  H 5.777392 0.120896 -3.594207
  H 6.795926 -0.199314 -2.219311
  H 4.774354 -3.082829 -2.349477
 26
 32.425937
  C 1.004305 -0.745753 1.078701
  C 2.491000 -0.805799 0.771520
  C 3.351718 0.325419 1.380609
  C 2.605395 1.352344 2.225794
  C 3.550590 2.456249 2.687502
  C 2.752607 -0.907318 -0.725830
  C 3.870949 -1.060617 -1.320989
  C 5.001255 -1.079355 -2.077987
  C 5.596778 0.181958 -2.567920
  H 5.161039 1.050442 -2.086629
  O 5.626199 -2.181220 -2.413524
  H 0.850914 -0.825453 2.151725
  H 0.486638 -1.573240 0.599810
  H 0.552229 0.183998 0.744969
  H 3.872513 0.870872 0.591334
  H 4.130321 -0.138113 1.989825
  H 2.165694 0.874633 3.103592
  H 1.792558 1.800505 1.653104
  H 4.400343 2.036481 3.221731
  H 3.035230 3.143662 3.353121
  H 3.927568 3.026681 1.841556
  H 1.837411 -0.908606 -1.313533
  H 2.863190 -1.754154 1.169212
  H 5.432033 0.252120 -3.645487
  H 6.676542 0.157192 -2.428062
  H 5.204435 -3.010138 -2.116858
