 23
 0.000000
  C 1.007100 0.112392 0.329957
  C 2.481130 0.126937 0.368034
  C 3.231651 0.603305 1.553776
  C 2.412236 1.082089 2.744293
  H 3.084399 1.401250 3.539460
  C 3.143907 -0.329137 -0.766087
  C 4.527205 -0.393668 -0.927257
  C 5.184238 -0.851609 -2.070813
  C 4.530005 -1.344459 -3.298266
  H 3.452881 -1.324769 -3.247264
  O 6.497635 -0.874390 -2.131835
  H 0.546449 0.478009 1.239130
  H 0.653170 -0.901828 0.138479
  H 0.654090 0.712559 -0.510128
  H 3.891598 1.417423 1.235798
  H 3.890979 -0.204791 1.887864
  H 1.782877 0.288371 3.139009
  H 1.783749 1.928835 2.479891
  H 2.520072 -0.657828 -1.584811
  H 5.151373 -0.064648 -0.107290
  H 4.870721 -2.359079 -3.497572
  H 4.869589 -0.748636 -4.143617
  H 6.954062 -0.552091 -1.331653
 23
 4.764896
  C 1.011549 0.098536 0.295073
  C 2.451666 0.120310 0.351550
  C 3.210239 0.596298 1.536624
  C 2.412637 1.080839 2.741377
  H 3.100144 1.394043 3.522064
  C 3.134176 -0.330786 -0.770100
  C 4.507660 -0.391138 -0.920978
  C 5.171422 -0.844251 -2.052659
  C 4.527842 -1.340945 -3.288956
  H 3.447125 -1.324676 -3.245867
  O 6.484455 -0.861939 -2.101710
  H 0.773725 0.480200 1.244609
  H 0.610763 -0.906385 0.135897
  H 0.611940 0.714675 -0.515206
  H 3.870051 1.407723 1.211098
  H 3.869300 -0.215187 1.863366
  H 1.786318 0.291716 3.151884
  H 1.787374 1.935363 2.491558
  H 2.520390 -0.660963 -1.592622
  H 5.125774 -0.060829 -0.097953
  H 4.872819 -2.356623 -3.484638
  H 4.871431 -0.741864 -4.132774
  H 6.931221 -0.538079 -1.298108
 23
 13.538212
  C 0.956449 0.098914 0.292012
  C 2.411207 0.115861 0.339259
  C 3.174727 0.588637 1.519320
  C 2.404405 1.080109 2.742600
  H 3.119162 1.385139 3.506285
  C 3.116369 -0.333186 -0.777273
  C 4.516385 -0.391849 -0.925230
  C 5.190680 -0.846151 -2.059114
  C 4.558824 -1.346193 -3.297065
  H 3.477685 -1.334188 -3.260904
  O 6.497826 -0.859258 -2.101220
  H 0.957157 0.490420 1.268301
  H 0.528979 -0.888029 0.185444
  H 0.531489 0.740089 -0.467156
  H 3.836472 1.395913 1.184757
  H 3.834897 -0.227129 1.835869
  H 1.783577 0.299256 3.175646
  H 1.785949 1.945462 2.515822
  H 2.505384 -0.666180 -1.607067
  H 5.134250 -0.059422 -0.099789
  H 4.908407 -2.361153 -3.488269
  H 4.904757 -0.746039 -4.138953
  H 6.939805 -0.533205 -1.295278
 23
 26.547573
  C 0.946462 0.087360 0.261293
  C 2.403225 0.115396 0.337435
  C 3.168566 0.592447 1.529401
  C 2.401284 1.084237 2.754530
  H 3.114769 1.386423 3.512208
  C 3.129944 -0.334290 -0.780617
  C 4.500655 -0.389082 -0.919473
  C 5.179512 -0.843559 -2.053238
  C 4.549752 -1.347361 -3.297514
  H 3.468232 -1.337344 -3.264548
  O 6.487762 -0.853865 -2.090165
  H 1.107451 0.478053 1.237243
  H 0.512148 -0.904076 0.176594
  H 0.515101 0.747850 -0.484830
  H 3.829191 1.399626 1.195852
  H 3.827444 -0.222841 1.846117
  H 1.779738 0.303429 3.191246
  H 1.782380 1.952275 2.531104
  H 2.531944 -0.667533 -1.610764
  H 5.113106 -0.056402 -0.094823
  H 4.901728 -2.362527 -3.487500
  H 4.897177 -0.746716 -4.139823
  H 6.923463 -0.528851 -1.288230
 23
 40.475927
  C 0.909775 0.088479 0.261748
  C 2.389586 0.114622 0.335776
  C 3.166706 0.588907 1.522019
  C 2.405034 1.079842 2.744859
  H 3.116682 1.379197 3.496632
  C 3.124050 -0.333516 -0.777943
  C 4.505775 -0.388616 -0.918697
  C 5.182098 -0.842146 -2.050274
  C 4.553244 -1.344241 -3.287216
  H 3.473068 -1.334498 -3.252525
  O 6.489766 -0.852131 -2.089220
  H 1.218684 0.462690 1.199338
  H 0.468140 -0.896590 0.200037
  H 0.471799 0.761951 -0.462480
  H 3.825106 1.392275 1.186336
  H 3.822815 -0.225537 1.834371
  H 1.780244 0.297196 3.184130
  H 1.783633 1.951521 2.522159
  H 2.530008 -0.665450 -1.604425
  H 5.121949 -0.054985 -0.093352
  H 4.904456 -2.356201 -3.476417
  H 4.898588 -0.745559 -4.127830
  H 6.936351 -0.520457 -1.273174
 23
 53.693443
  C 0.889362 0.084216 0.248978
  C 2.385108 0.114455 0.338211
  C 3.170840 0.590178 1.527529
  C 2.401161 1.084535 2.755368
  H 3.111960 1.386969 3.515845
  C 3.119800 -0.333229 -0.772203
  C 4.505398 -0.386499 -0.912315
  C 5.183273 -0.839654 -2.045362
  C 4.551999 -1.345203 -3.288967
  H 3.465045 -1.337020 -3.255126
  O 6.487582 -0.847793 -2.082790
  H 1.301224 0.445103 1.158427
  H 0.461135 -0.898998 0.195507
  H 0.463772 0.766255 -0.462928
  H 3.831860 1.395730 1.189907
  H 3.828103 -0.228168 1.840678
  H 1.775706 0.304315 3.188923
  H 1.780777 1.951409 2.529128
  H 2.521618 -0.668867 -1.606088
  H 5.120447 -0.052375 -0.088168
  H 4.906641 -2.361741 -3.479361
  H 4.898902 -0.743602 -4.133756
  H 6.930216 -0.518958 -1.274268
 23
 64.453556
  C 0.875656 0.087218 0.237131
  C 2.392540 0.100837 0.348345
  C 3.179914 0.580247 1.532558
  C 2.399579 1.091343 2.744259
  H 3.100843 1.393275 3.513455
  C 3.112958 -0.360198 -0.759578
  C 4.504722 -0.392558 -0.910321
  C 5.176583 -0.831973 -2.043648
  C 4.546944 -1.338025 -3.276957
  H 3.471883 -1.339104 -3.237447
  O 6.491542 -0.833784 -2.090373
  H 1.371532 0.421119 1.132201
  H 0.460074 -0.904409 0.158944
  H 0.441066 0.811842 -0.429831
  H 3.852279 1.377643 1.196003
  H 3.823767 -0.244577 1.854042
  H 1.761875 0.320765 3.172503
  H 1.791459 1.959961 2.503314
  H 2.517315 -0.703478 -1.586146
  H 5.118700 -0.048038 -0.090581
  H 4.906842 -2.345060 -3.469082
  H 4.881609 -0.735093 -4.116641
  H 6.934268 -0.504526 -1.286537
 23
 71.062743
  C 0.877804 0.085858 0.210691
  C 2.414621 0.085065 0.359143
  C 3.205764 0.578247 1.558579
  C 2.395885 1.106758 2.742523
  H 3.077954 1.410771 3.534418
  C 3.108335 -0.391277 -0.740878
  C 4.499577 -0.398537 -0.903751
  C 5.167522 -0.824344 -2.044667
  C 4.540754 -1.340704 -3.287878
  H 3.457374 -1.355717 -3.248308
  O 6.473870 -0.816798 -2.097309
  H 1.430825 0.388435 1.099289
  H 0.490551 -0.907694 0.075072
  H 0.412625 0.855543 -0.372565
  H 3.891372 1.368683 1.238426
  H 3.828964 -0.253664 1.893212
  H 1.738863 0.344729 3.155770
  H 1.803915 1.977372 2.475397
  H 2.509287 -0.749097 -1.565514
  H 5.111539 -0.038996 -0.087491
  H 4.915885 -2.349470 -3.482375
  H 4.868548 -0.726627 -4.131308
  H 6.918957 -0.479660 -1.277932
 23
 75.010980
  C 0.877176 0.083988 0.184732
  C 2.434840 0.071294 0.377909
  C 3.219904 0.575777 1.569713
  C 2.387843 1.116436 2.734852
  H 3.046123 1.427231 3.527111
  C 3.111341 -0.414857 -0.722698
  C 4.509959 -0.408560 -0.898632
  C 5.164064 -0.820252 -2.038109
  C 4.528726 -1.335073 -3.278208
  H 3.442417 -1.357277 -3.228664
  O 6.483307 -0.803548 -2.106923
  H 1.477663 0.343355 1.089739
  H 0.499566 -0.899533 -0.013079
  H 0.400147 0.901551 -0.315989
  H 3.908043 1.364409 1.246580
  H 3.835238 -0.256823 1.919725
  H 1.728504 0.364359 3.141944
  H 1.804768 1.976094 2.447691
  H 2.514518 -0.782588 -1.535688
  H 5.122738 -0.043331 -0.088622
  H 4.908131 -2.338785 -3.479396
  H 4.843030 -0.714292 -4.119551
  H 6.923006 -0.471519 -1.307390
 23
 78.111175
  C 0.879416 0.082045 0.147259
  C 2.446699 0.059828 0.391265
  C 3.234366 0.574285 1.585220
  C 2.384802 1.128696 2.745413
  H 3.040567 1.449348 3.549724
  C 3.110824 -0.434752 -0.709331
  C 4.508292 -0.411874 -0.896835
  C 5.157057 -0.815667 -2.042976
  C 4.520403 -1.337080 -3.275902
  H 3.445863 -1.369579 -3.220493
  O 6.476374 -0.790872 -2.122593
  H 1.509013 0.292305 1.070978
  H 0.509757 -0.890244 -0.106538
  H 0.405168 0.946114 -0.280423
  H 3.925338 1.362648 1.255653
  H 3.848175 -0.264935 1.948133
  H 1.712788 0.370999 3.156068
  H 1.797535 1.997338 2.437917
  H 2.513868 -0.815568 -1.517067
  H 5.120207 -0.035109 -0.094906
  H 4.906962 -2.333937 -3.476888
  H 4.821486 -0.715262 -4.116624
  H 6.919432 -0.456336 -1.321488
 23
 80.286987
  C 0.877855 0.089719 0.125729
  C 2.451173 0.050906 0.401307
  C 3.239798 0.574557 1.594428
  C 2.387106 1.132142 2.739632
  H 3.032920 1.457856 3.540841
  C 3.112127 -0.447916 -0.698683
  C 4.508673 -0.413682 -0.892220
  C 5.154297 -0.810862 -2.038991
  C 4.516633 -1.340600 -3.272042
  H 3.438675 -1.382766 -3.212436
  O 6.473885 -0.775768 -2.124640
  H 1.536012 0.241766 1.057871
  H 0.508245 -0.865623 -0.177243
  H 0.406526 0.987186 -0.220090
  H 3.927771 1.361595 1.260659
  H 3.850472 -0.261970 1.963766
  H 1.718611 0.381716 3.147542
  H 1.804905 1.989658 2.423784
  H 2.517114 -0.838770 -1.501982
  H 5.121044 -0.027766 -0.094731
  H 4.912334 -2.336821 -3.473914
  H 4.809200 -0.714968 -4.116342
  H 6.916022 -0.438907 -1.326084
 23
 81.718296
  C 0.874142 0.099339 0.106050
  C 2.455323 0.041023 0.406207
  C 3.245515 0.575579 1.600570
  C 2.388919 1.134512 2.739442
  H 3.035178 1.469052 3.544769
  C 3.114005 -0.456742 -0.695780
  C 4.507668 -0.411482 -0.893928
  C 5.153018 -0.806315 -2.042782
  C 4.517768 -1.345522 -3.267282
  H 3.441658 -1.394952 -3.204031
  O 6.473444 -0.767239 -2.131847
  H 1.561342 0.189172 1.051538
  H 0.501180 -0.836351 -0.246943
  H 0.399230 1.024451 -0.159629
  H 3.930531 1.366611 1.262764
  H 3.858571 -0.258977 1.975077
  H 1.718071 0.379010 3.151204
  H 1.800386 1.992629 2.414011
  H 2.517947 -0.856106 -1.496123
  H 5.119640 -0.017062 -0.101253
  H 4.919043 -2.337710 -3.464579
  H 4.802311 -0.723197 -4.113761
  H 6.916949 -0.431519 -1.331757
 23
 82.842870
  C 0.873024 0.116453 0.089195
  C 2.460405 0.034451 0.412235
  C 3.249348 0.576623 1.608543
  C 2.391662 1.139914 2.732043
  H 3.033618 1.478145 3.540636
  C 3.117307 -0.478235 -0.684341
  C 4.509715 -0.428802 -0.884573
  C 5.153309 -0.810332 -2.037347
  C 4.516238 -1.348771 -3.269415
  H 3.447490 -1.411359 -3.202101
  O 6.471175 -0.748601 -2.133950
  H 1.585094 0.148585 1.046863
  H 0.491162 -0.800018 -0.299368
  H 0.396317 1.054791 -0.105549
  H 3.934419 1.364498 1.270068
  H 3.858917 -0.256827 1.990630
  H 1.717356 0.388916 3.142389
  H 1.807101 1.995815 2.397095
  H 2.518118 -0.886821 -1.483046
  H 5.121061 -0.031773 -0.094054
  H 4.929287 -2.338271 -3.477780
  H 4.789682 -0.714321 -4.114819
  H 6.912632 -0.398642 -1.338240
 23
 83.796074
  C 0.871628 0.136988 0.071524
  C 2.465841 0.032218 0.416657
  C 3.253806 0.579416 1.610886
  C 2.391802 1.135223 2.733498
  H 3.029512 1.477329 3.541241
  C 3.120851 -0.476869 -0.685255
  C 4.511098 -0.426411 -0.885368
  C 5.155572 -0.812230 -2.037957
  C 4.518865 -1.360601 -3.263408
  H 3.441301 -1.430605 -3.190958
  O 6.472595 -0.741100 -2.138195
  H 1.605492 0.100085 1.044663
  H 0.488202 -0.755387 -0.360429
  H 0.390340 1.087068 -0.047521
  H 3.932087 1.374213 1.272208
  H 3.867520 -0.247324 1.988966
  H 1.723382 0.378618 3.143166
  H 1.800544 1.985410 2.398030
  H 2.520785 -0.886492 -1.482073
  H 5.121304 -0.016456 -0.100489
  H 4.937601 -2.349764 -3.467527
  H 4.784909 -0.729321 -4.114575
  H 6.913141 -0.384223 -1.345268
