 13
 0.000000
  H 1.442793 0.129241 0.373920
  C 2.526588 0.130665 0.376848
  C 3.200037 0.609731 1.567718
  H 2.502119 0.919654 2.339059
  C 3.158094 -0.331008 -0.772499
  C 4.557018 -0.400401 -0.945865
  C 5.105233 -0.863307 -2.100750
  H 4.486347 -1.191298 -2.919273
  H 6.170619 -0.917817 -2.236238
  H 3.880858 1.436353 1.327677
  H 3.880853 -0.152880 1.966670
  H 2.539050 -0.661162 -1.595092
  H 5.201963 -0.077704 -0.140715
 13
 0.028670
  H 1.439871 0.092127 0.389558
  C 2.522021 0.115262 0.384064
  C 3.195971 0.635424 1.554888
  H 2.503259 0.974756 2.316785
  C 3.153965 -0.351095 -0.759705
  C 4.552480 -0.441299 -0.927437
  C 5.102872 -0.840637 -2.106584
  H 4.487857 -1.105240 -2.952213
  H 6.170389 -0.895428 -2.238006
  H 3.889723 1.439849 1.289532
  H 3.864599 -0.124010 1.978630
  H 2.536154 -0.674002 -1.587652
  H 5.201328 -0.194936 -0.098702
 13
 -0.017194
  H 1.441145 0.053937 0.407753
  C 2.521904 0.109457 0.387384
  C 3.195476 0.646184 1.552457
  H 2.503211 1.039836 2.286848
  C 3.151633 -0.339938 -0.763484
  C 4.550035 -0.437401 -0.930674
  C 5.100320 -0.840550 -2.108343
  H 4.485038 -1.117669 -2.950413
  H 6.167885 -0.887946 -2.241671
  H 3.945869 1.392784 1.285041
  H 3.792918 -0.143687 2.025519
  H 2.532863 -0.647612 -1.596514
  H 5.197204 -0.192308 -0.099914
 13
 -0.088848
  H 1.444232 0.048216 0.417055
  C 2.524455 0.116970 0.388676
  C 3.196867 0.650419 1.554631
  H 2.507066 1.112814 2.253671
  C 3.150886 -0.320969 -0.768167
  C 4.548305 -0.427856 -0.936310
  C 5.094334 -0.850779 -2.109013
  H 4.476197 -1.136827 -2.945684
  H 6.161560 -0.907578 -2.242932
  H 4.015183 1.325170 1.297360
  H 3.695966 -0.174497 2.082839
  H 2.530103 -0.615296 -1.604711
  H 5.198798 -0.175647 -0.110785
 13
 -0.182333
  H 1.448827 0.062349 0.421738
  C 2.529115 0.132235 0.388990
  C 3.201508 0.651358 1.560975
  H 2.524481 1.193875 2.215167
  C 3.150286 -0.298257 -0.773233
  C 4.546108 -0.424870 -0.942099
  C 5.085062 -0.861718 -2.112938
  H 4.462484 -1.149579 -2.945266
  H 6.151552 -0.930865 -2.248451
  H 4.089121 1.236602 1.324850
  H 3.577822 -0.200982 2.146541
  H 2.526051 -0.576791 -1.612685
  H 5.201067 -0.177522 -0.118432
 13
 -0.261404
  H 1.451929 0.118958 0.413448
  C 2.534157 0.149513 0.390602
  C 3.208096 0.649034 1.569224
  H 2.564452 1.294095 2.163093
  C 3.150360 -0.302134 -0.766341
  C 4.544695 -0.428659 -0.945511
  C 5.074865 -0.855804 -2.124277
  H 4.447405 -1.099277 -2.967159
  H 6.138621 -0.956406 -2.258074
  H 4.168996 1.113915 1.359386
  H 3.433763 -0.210703 2.219104
  H 2.521358 -0.596044 -1.596890
  H 5.206315 -0.202013 -0.121239
 13
 -0.290721
  H 1.453233 0.113638 0.427483
  C 2.536523 0.164395 0.391959
  C 3.214841 0.663267 1.568141
  H 2.566591 1.289673 2.174644
  C 3.146604 -0.261912 -0.775952
  C 4.532893 -0.474697 -0.929927
  C 5.063003 -0.874668 -2.118832
  H 4.436406 -1.091244 -2.970234
  H 6.127139 -0.981688 -2.250615
  H 4.164187 1.150040 1.355747
  H 3.446635 -0.202958 2.209063
  H 2.520688 -0.469967 -1.632954
  H 5.185475 -0.327144 -0.079035
 13
 -0.172067
  H 1.444032 0.198950 0.406547
  C 2.526975 0.202831 0.385624
  C 3.217712 0.661780 1.572641
  H 2.568535 1.233194 2.230020
  C 3.134572 -0.237985 -0.778320
  C 4.514896 -0.498869 -0.917186
  C 5.049848 -0.894411 -2.104310
  H 4.432700 -1.052271 -2.974574
  H 6.109337 -1.052932 -2.216974
  H 4.141613 1.195649 1.355286
  H 3.527686 -0.224204 2.147264
  H 2.510791 -0.415314 -1.645044
  H 5.157853 -0.393694 -0.054243
 13
 -0.026487
  H 1.437046 0.279258 0.384239
  C 2.518348 0.229938 0.380663
  C 3.216676 0.660571 1.574288
  H 2.566538 1.186618 2.265988
  C 3.123683 -0.237247 -0.774473
  C 4.499524 -0.522136 -0.902531
  C 5.041577 -0.895230 -2.093783
  H 4.431607 -1.016919 -2.974516
  H 6.100097 -1.066732 -2.198420
  H 4.115831 1.238591 1.356568
  H 3.588368 -0.232391 2.097669
  H 2.502488 -0.405336 -1.644867
  H 5.130808 -0.465945 -0.025901
 13
 -0.051970
  H 1.445580 0.379032 0.342975
  C 2.521803 0.265476 0.374338
  C 3.202344 0.617147 1.601901
  H 2.552991 1.132902 2.301698
  C 3.133463 -0.220267 -0.773020
  C 4.521148 -0.426219 -0.923237
  C 5.045669 -0.917910 -2.079366
  H 4.418473 -1.155389 -2.924226
  H 6.101194 -1.105129 -2.182340
  H 4.115010 1.189498 1.416649
  H 3.579000 -0.292642 2.088699
  H 2.505165 -0.470751 -1.617529
  H 5.182228 -0.197007 -0.099259
 13
 0.158494
  H 1.433038 0.407007 0.322396
  C 2.506090 0.259806 0.367830
  C 3.192932 0.643449 1.582193
  H 2.522255 1.055605 2.325492
  C 3.115041 -0.270637 -0.761320
  C 4.498446 -0.510013 -0.892422
  C 5.044098 -0.905630 -2.073771
  H 4.438749 -1.024601 -2.960595
  H 6.101052 -1.098866 -2.168633
  H 4.002636 1.351442 1.372110
  H 3.731100 -0.212869 2.005693
  H 2.489286 -0.525089 -1.605585
  H 5.139993 -0.379426 -0.030615
 13
 0.399448
  H 1.440825 0.453634 0.316289
  C 2.506727 0.271814 0.369260
  C 3.199860 0.661457 1.578773
  H 2.517491 0.963799 2.366376
  C 3.104319 -0.284931 -0.751850
  C 4.479935 -0.580566 -0.870351
  C 5.042565 -0.908112 -2.065061
  H 4.462967 -0.917662 -2.974670
  H 6.090346 -1.142986 -2.146757
  H 3.874750 1.502169 1.369357
  H 3.879979 -0.120505 1.926939
  H 2.477589 -0.512617 -1.604400
  H 5.098095 -0.557098 0.016370
 13
 0.051317
  H 1.455014 0.475091 0.325506
  C 2.521541 0.294103 0.373765
  C 3.207196 0.661465 1.593205
  H 2.521159 0.782180 2.426807
  C 3.119854 -0.231889 -0.760951
  C 4.475888 -0.609179 -0.865207
  C 5.027645 -0.962045 -2.058298
  H 4.445528 -0.969191 -2.966294
  H 6.068739 -1.225392 -2.139229
  H 3.697626 1.635457 1.449775
  H 4.030325 -0.011849 1.834639
  H 2.505622 -0.366032 -1.642280
  H 5.086566 -0.633848 0.026480
 13
 -0.097595
  H 1.460011 0.439999 0.340583
  C 2.533631 0.298258 0.373778
  C 3.214939 0.688406 1.588537
  H 2.563210 0.618922 2.457096
  C 3.136050 -0.196086 -0.769269
  C 4.470359 -0.656182 -0.860634
  C 5.024903 -1.003784 -2.052514
  H 4.455510 -0.971150 -2.969433
  H 6.058465 -1.295280 -2.127377
  H 3.487623 1.751219 1.512802
  H 4.162431 0.171709 1.733844
  H 2.540952 -0.240686 -1.673776
  H 5.054621 -0.766473 0.044282
