 25
 0.000000
  C 0.949772 0.150189 0.418456
  C 2.421926 0.140950 0.401194
  C 3.221197 0.603720 1.556039
  C 2.459936 1.096041 2.780707
  H 3.160892 1.403101 3.548310
  C 3.028430 -0.327078 -0.763610
  C 4.410857 -0.410201 -0.974926
  C 5.080775 -0.857278 -2.090049
  C 4.614759 -1.378048 -3.385085
  C 3.133757 -1.507621 -3.703529
  H 3.017740 -1.909715 -4.704297
  H 6.161498 -0.838140 -2.046036
  H 0.532662 0.523228 1.345516
  H 0.570541 -0.857460 0.240289
  H 0.575070 0.756656 -0.408015
  H 3.883741 1.406907 1.214008
  H 3.881940 -0.214337 1.864677
  H 1.829064 0.309859 3.189949
  H 1.831130 1.948448 2.532589
  H 2.358967 -0.642626 -1.546096
  H 5.046153 -0.082347 -0.162108
  H 5.093405 -2.359338 -3.505910
  H 5.091780 -0.752318 -4.151609
  H 2.642929 -0.537825 -3.671558
  H 2.644832 -2.186857 -3.009257
 25
 1.852964
  C 1.000052 0.100817 0.380898
  C 2.470613 0.130960 0.440832
  C 3.236512 0.632586 1.600886
  C 2.425369 1.116953 2.793025
  H 3.097205 1.455203 3.576703
  C 3.064198 -0.331129 -0.720671
  C 4.440018 -0.437536 -0.961684
  C 5.079858 -0.883193 -2.107710
  C 4.585879 -1.375665 -3.404641
  C 3.098054 -1.471107 -3.696255
  H 2.958289 -1.856854 -4.703579
  H 6.163628 -0.877256 -2.063444
  H 0.497303 0.548156 1.230826
  H 0.648074 -0.927783 0.263760
  H 0.727842 0.601454 -0.561022
  H 3.888889 1.442710 1.258050
  H 3.915125 -0.161564 1.931307
  H 1.808663 0.319793 3.201042
  H 1.782942 1.951210 2.521338
  H 2.325783 -0.602066 -1.477040
  H 5.092361 -0.136304 -0.151700
  H 5.047623 -2.361657 -3.553382
  H 5.065533 -0.752003 -4.171787
  H 2.624422 -0.494357 -3.647393
  H 2.605536 -2.153713 -3.008976
 25
 5.954856
  C 1.048048 0.076971 0.345951
  C 2.509338 0.129615 0.460502
  C 3.244353 0.646334 1.620625
  C 2.391516 1.121788 2.797451
  H 3.033837 1.474556 3.595663
  C 3.094107 -0.332026 -0.712495
  C 4.462773 -0.457747 -0.977553
  C 5.077797 -0.897540 -2.121147
  C 4.562536 -1.368952 -3.403624
  C 3.067973 -1.437877 -3.672876
  H 2.906862 -1.813218 -4.674392
  H 6.154934 -0.906064 -2.088283
  H 0.483030 0.598066 1.108602
  H 0.726341 -0.962310 0.328034
  H 0.878419 0.436121 -0.672233
  H 3.892124 1.466913 1.280566
  H 3.934734 -0.138287 1.968026
  H 1.778952 0.312241 3.191988
  H 1.740679 1.945426 2.506053
  H 2.289242 -0.562396 -1.426446
  H 5.129348 -0.171472 -0.165690
  H 5.007017 -2.359085 -3.566641
  H 5.041824 -0.750377 -4.173413
  H 2.612595 -0.451106 -3.612370
  H 2.574808 -2.117746 -2.980701
 25
 11.207809
  C 1.080699 0.059506 0.311781
  C 2.536927 0.124285 0.473686
  C 3.248724 0.655159 1.645758
  C 2.362662 1.121115 2.801001
  H 2.981659 1.484704 3.617441
  C 3.126758 -0.334686 -0.702793
  C 4.486328 -0.469230 -0.979453
  C 5.085551 -0.905975 -2.134931
  C 4.541767 -1.363695 -3.415558
  C 3.039727 -1.410124 -3.650827
  H 2.849214 -1.778247 -4.652597
  H 6.167404 -0.925556 -2.116884
  H 0.480171 0.678958 0.960352
  H 0.756050 -0.977667 0.436291
  H 1.003368 0.253091 -0.774387
  H 3.891697 1.482553 1.313393
  H 3.943738 -0.115990 2.009245
  H 1.749626 0.303649 3.179676
  H 1.707519 1.935682 2.491501
  H 2.286886 -0.528336 -1.389573
  H 5.160153 -0.193278 -0.173717
  H 4.970701 -2.361226 -3.593459
  H 5.014342 -0.744783 -4.192767
  H 2.600978 -0.417850 -3.573842
  H 2.553687 -2.085441 -2.950438
 25
 19.417856
  C 1.103325 0.048139 0.297700
  C 2.553318 0.119978 0.488699
  C 3.248118 0.658737 1.663577
  C 2.342160 1.121873 2.801568
  H 2.944917 1.493575 3.627397
  C 3.143941 -0.339530 -0.691920
  C 4.499781 -0.478111 -0.982463
  C 5.088461 -0.911266 -2.147300
  C 4.528887 -1.359255 -3.426023
  C 3.024668 -1.396480 -3.645123
  H 2.820716 -1.759864 -4.648877
  H 6.172878 -0.936689 -2.139988
  H 0.484519 0.726190 0.865374
  H 0.764129 -0.966468 0.509816
  H 1.112221 0.128184 -0.825056
  H 3.887826 1.487963 1.334822
  H 3.944399 -0.104079 2.040064
  H 1.729379 0.302166 3.171463
  H 1.686609 1.928608 2.478319
  H 2.257002 -0.495782 -1.353188
  H 5.180751 -0.205352 -0.182894
  H 4.949439 -2.355537 -3.613006
  H 4.995419 -0.740854 -4.203491
  H 2.593017 -0.401208 -3.559012
  H 2.543131 -2.072431 -2.941552
 25
 29.150738
  C 1.121589 0.060701 0.269454
  C 2.566058 0.128574 0.484462
  C 3.247818 0.649187 1.674997
  C 2.323672 1.100556 2.806264
  H 2.910135 1.454844 3.644254
  C 3.162529 -0.325080 -0.697881
  C 4.514413 -0.456945 -0.997803
  C 5.094870 -0.898218 -2.163732
  C 4.519176 -1.360210 -3.428012
  C 3.008535 -1.400707 -3.617210
  H 2.784846 -1.775906 -4.610810
  H 6.180616 -0.920080 -2.168598
  H 0.500776 0.795238 0.764218
  H 0.750465 -0.930907 0.553213
  H 1.205900 0.041023 -0.873414
  H 3.895794 1.484044 1.364898
  H 3.937612 -0.122114 2.052747
  H 1.702664 0.282505 3.151012
  H 1.679433 1.912173 2.485202
  H 2.227361 -0.469183 -1.330505
  H 5.199848 -0.168230 -0.207442
  H 4.938830 -2.360631 -3.610299
  H 4.972297 -0.747990 -4.221172
  H 2.578247 -0.402952 -3.534219
  H 2.541487 -2.068403 -2.894182
 25
 40.444327
  C 1.128339 0.079494 0.268712
  C 2.564334 0.139083 0.485717
  C 3.243361 0.640539 1.684664
  C 2.315309 1.084273 2.815605
  H 2.905951 1.426045 3.673509
  C 3.163352 -0.311860 -0.698387
  C 4.516749 -0.437351 -1.010620
  C 5.094258 -0.884636 -2.173470
  C 4.514830 -1.365185 -3.436847
  C 3.009584 -1.419520 -3.620450
  H 2.784296 -1.810341 -4.616366
  H 6.182076 -0.899296 -2.182227
  H 0.518293 0.842478 0.721290
  H 0.736105 -0.879248 0.579119
  H 1.266117 -0.005058 -0.895105
  H 3.895169 1.472196 1.389404
  H 3.923784 -0.138267 2.056390
  H 1.680505 0.261128 3.145739
  H 1.677147 1.909411 2.498639
  H 2.177142 -0.444157 -1.300822
  H 5.204479 -0.130129 -0.231350
  H 4.938070 -2.358002 -3.608555
  H 4.957298 -0.761861 -4.233120
  H 2.573762 -0.424347 -3.546922
  H 2.552149 -2.082094 -2.888201
 25
 50.828404
  C 1.120334 0.114670 0.261041
  C 2.560881 0.152561 0.475156
  C 3.245538 0.619141 1.690847
  C 2.320959 1.053919 2.821324
  H 2.905643 1.359589 3.681558
  C 3.163283 -0.292041 -0.704097
  C 4.514001 -0.399088 -1.025948
  C 5.093760 -0.858969 -2.184148
  C 4.519071 -1.368717 -3.430738
  C 3.007754 -1.447891 -3.600971
  H 2.781719 -1.858796 -4.580508
  H 6.179567 -0.858888 -2.196687
  H 0.526944 0.914379 0.683577
  H 0.693609 -0.832284 0.587251
  H 1.290262 -0.030562 -0.941144
  H 3.914023 1.447137 1.416465
  H 3.908336 -0.179739 2.050548
  H 1.670508 0.240933 3.126451
  H 1.705119 1.895515 2.521256
  H 2.120389 -0.425272 -1.307097
  H 5.203953 -0.051767 -0.256266
  H 4.958160 -2.365422 -3.585472
  H 4.950907 -0.769843 -4.246307
  H 2.558342 -0.457347 -3.544522
  H 2.565224 -2.102379 -2.852169
 25
 60.204126
  C 1.115824 0.165211 0.262709
  C 2.555641 0.170346 0.465331
  C 3.245158 0.588322 1.694493
  C 2.320792 1.015951 2.834893
  H 2.909858 1.280235 3.711402
  C 3.162364 -0.262598 -0.707940
  C 4.512385 -0.347359 -1.048997
  C 5.092433 -0.823463 -2.193338
  C 4.519435 -1.378810 -3.428720
  C 3.016400 -1.490538 -3.582189
  H 2.788594 -1.936266 -4.555443
  H 6.176609 -0.803581 -2.211066
  H 0.548405 0.994454 0.666006
  H 0.653261 -0.766800 0.581481
  H 1.301435 -0.030014 -0.983197
  H 3.935414 1.409378 1.445170
  H 3.883759 -0.237384 2.035542
  H 1.645990 0.212211 3.111778
  H 1.729555 1.884426 2.556540
  H 2.068693 -0.403584 -1.318666
  H 5.193819 0.046775 -0.305981
  H 4.976264 -2.374920 -3.558476
  H 4.932846 -0.792148 -4.264541
  H 2.551061 -0.508676 -3.549935
  H 2.594970 -2.130720 -2.812639
 25
 68.202253
  C 1.110667 0.211840 0.252849
  C 2.551002 0.186781 0.445193
  C 3.246758 0.556594 1.704672
  C 2.326968 0.968702 2.841989
  H 2.913385 1.186123 3.730354
  C 3.170458 -0.228764 -0.715118
  C 4.513617 -0.288047 -1.073858
  C 5.096543 -0.786711 -2.208518
  C 4.520899 -1.390974 -3.419146
  C 3.013681 -1.530790 -3.539494
  H 2.775812 -2.010297 -4.485681
  H 6.177361 -0.747126 -2.236851
  H 0.568114 1.059019 0.641767
  H 0.618543 -0.704875 0.541544
  H 1.302934 -0.022091 -1.056025
  H 3.953687 1.365117 1.489231
  H 3.857119 -0.292435 2.025859
  H 1.626646 0.172787 3.085493
  H 1.764259 1.861670 2.587579
  H 2.030892 -0.383542 -1.365974
  H 5.193417 0.167006 -0.347092
  H 4.989431 -2.378924 -3.520903
  H 4.908911 -0.826214 -4.276422
  H 2.532879 -0.553743 -3.533422
  H 2.615905 -2.151222 -2.738758
 25
 76.622651
  C 1.098460 0.245999 0.283150
  C 2.537977 0.196819 0.439270
  C 3.247574 0.537467 1.706078
  C 2.335616 0.944695 2.857481
  H 2.930836 1.135637 3.748071
  C 3.167109 -0.206687 -0.709245
  C 4.503639 -0.260915 -1.089322
  C 5.092253 -0.766914 -2.212348
  C 4.532246 -1.400198 -3.416488
  C 3.025164 -1.568137 -3.542239
  H 2.801734 -2.065688 -4.474350
  H 6.173590 -0.711401 -2.238988
  H 0.581148 1.103826 0.679100
  H 0.583953 -0.670647 0.547644
  H 1.267761 -0.011645 -1.120688
  H 3.961961 1.337239 1.502232
  H 3.845304 -0.327901 2.009400
  H 1.621988 0.154738 3.090402
  H 1.786401 1.853514 2.622822
  H 1.959679 -0.365677 -1.421048
  H 5.173946 0.219960 -0.378995
  H 5.013697 -2.375184 -3.496988
  H 4.912145 -0.846383 -4.275681
  H 2.529792 -0.602190 -3.558826
  H 2.634298 -2.179125 -2.735275
 25
 84.013208
  C 1.079908 0.286213 0.322267
  C 2.521258 0.210304 0.429515
  C 3.248025 0.512457 1.699845
  C 2.348290 0.907466 2.868134
  H 2.954322 1.065062 3.757400
  C 3.162668 -0.174140 -0.704288
  C 4.490457 -0.225906 -1.107702
  C 5.086062 -0.741966 -2.215484
  C 4.543796 -1.413373 -3.408955
  C 3.043500 -1.613739 -3.533531
  H 2.832280 -2.139348 -4.454139
  H 6.170022 -0.666092 -2.241251
  H 0.587780 1.154036 0.739288
  H 0.539359 -0.630866 0.542299
  H 1.216440 0.025155 -1.196846
  H 3.974432 1.309644 1.507547
  H 3.831682 -0.372422 1.976748
  H 1.624341 0.126526 3.087720
  H 1.814058 1.831799 2.661883
  H 1.875373 -0.328271 -1.493528
  H 5.152556 0.283059 -0.412934
  H 5.045680 -2.384856 -3.464333
  H 4.915221 -0.869019 -4.282127
  H 2.530916 -0.659255 -3.577116
  H 2.663080 -2.211297 -2.713886
 25
 90.021740
  C 1.067293 0.313637 0.348640
  C 2.504075 0.218715 0.412475
  C 3.245353 0.485486 1.693667
  C 2.361154 0.860223 2.872532
  H 2.978859 0.985867 3.759548
  C 3.172243 -0.141592 -0.706054
  C 4.492110 -0.186842 -1.125321
  C 5.092728 -0.712702 -2.218824
  C 4.550417 -1.427743 -3.397008
  C 3.049575 -1.652970 -3.492449
  H 2.829007 -2.214443 -4.401472
  H 6.174262 -0.615751 -2.252629
  H 0.594142 1.178996 0.796862
  H 0.507323 -0.597730 0.500729
  H 1.166252 0.071587 -1.312220
  H 3.977730 1.281066 1.515239
  H 3.815371 -0.413027 1.943318
  H 1.629055 0.083081 3.078587
  H 1.838643 1.797704 2.695846
  H 1.803638 -0.279773 -1.608167
  H 5.148800 0.356375 -0.440481
  H 5.069448 -2.398565 -3.431673
  H 4.902626 -0.897168 -4.294381
  H 2.521739 -0.703878 -3.557393
  H 2.688490 -2.231298 -2.645727
 25
 94.238408
  C 1.047570 0.346611 0.381668
  C 2.474543 0.228645 0.393003
  C 3.242670 0.455114 1.680931
  C 2.384994 0.812667 2.884596
  H 3.023264 0.902387 3.759623
  C 3.164653 -0.107119 -0.709531
  C 4.473327 -0.150074 -1.144761
  C 5.089838 -0.685467 -2.223908
  C 4.568930 -1.443268 -3.383757
  C 3.066617 -1.705024 -3.470983
  H 2.856183 -2.299892 -4.360930
  H 6.162869 -0.563185 -2.256691
  H 0.603329 1.198505 0.873281
  H 0.463552 -0.558335 0.472829
  H 1.085973 0.136388 -1.433752
  H 3.980789 1.240253 1.511538
  H 3.799983 -0.457957 1.895374
  H 1.642960 0.042917 3.085151
  H 1.877281 1.763293 2.745491
  H 1.704485 -0.218791 -1.735684
  H 5.117541 0.422200 -0.473415
  H 5.108479 -2.399964 -3.388511
  H 4.907999 -0.929787 -4.292417
  H 2.518348 -0.768524 -3.566595
  H 2.715962 -2.263219 -2.603776
