 19
 0.000000
  H 1.504076 0.051154 0.264139
  C 2.579138 0.054177 0.150924
  C 3.375232 -0.017603 1.421536
  C 2.509350 -0.090219 2.676426
  C 3.361925 -0.161267 3.937943
  C 3.133874 0.121466 -1.056977
  H 2.572152 0.185770 -1.978454
  C 4.567576 0.136924 -1.279271
  C 5.122191 0.212451 -2.485791
  H 6.189005 0.223510 -2.636485
  H 4.025351 0.862438 1.486133
  H 4.024109 -0.898602 1.392529
  H 1.867689 -0.973110 2.627993
  H 1.865139 0.790665 2.729270
  H 3.998945 -1.043260 3.921793
  H 2.730544 -0.212733 4.822208
  H 3.996518 0.718554 4.022590
  H 5.213653 0.084076 -0.414820
  H 4.543105 0.267981 -3.394634
 19
 -0.450338
  H 1.564984 -0.217181 0.251657
  C 2.639803 -0.135278 0.161219
  C 3.412297 -0.220220 1.442989
  C 2.522176 -0.025128 2.668749
  C 3.323347 -0.096759 3.962851
  C 3.183591 0.063510 -1.040270
  H 2.560936 0.163714 -1.920393
  C 4.602555 0.159659 -1.310861
  C 5.097176 0.381935 -2.523838
  H 6.155967 0.443541 -2.708999
  H 4.186844 0.551274 1.430495
  H 3.910255 -1.192776 1.512867
  H 1.747044 -0.795139 2.680081
  H 2.026629 0.946264 2.602470
  H 3.810885 -1.065010 4.057500
  H 2.674142 0.045277 4.823809
  H 4.089859 0.675326 3.981045
  H 5.278826 0.029717 -0.477758
  H 4.458374 0.510119 -3.382821
 19
 -0.025087
  H 1.579549 -0.504706 0.222520
  C 2.646298 -0.335430 0.157514
  C 3.402265 -0.430523 1.446644
  C 2.549395 0.032958 2.628974
  C 3.330964 -0.010261 3.936109
  C 3.186286 -0.002852 -1.016046
  H 2.559601 0.152378 -1.885968
  C 4.598756 0.166268 -1.286882
  C 5.067892 0.560151 -2.465257
  H 6.122370 0.660941 -2.656451
  H 4.279512 0.213634 1.365381
  H 3.730488 -1.459005 1.624248
  H 1.666870 -0.605872 2.712942
  H 2.205632 1.053138 2.443516
  H 3.670532 -1.022811 4.144934
  H 2.709392 0.320610 4.765027
  H 4.202896 0.638287 3.881574
  H 5.293345 -0.068611 -0.492727
  H 4.410453 0.795406 -3.286522
 19
 1.635390
  H 1.575952 -0.792692 0.163051
  C 2.622264 -0.518255 0.144427
  C 3.364878 -0.627838 1.438944
  C 2.586503 0.083613 2.552381
  C 3.371767 0.103223 3.857713
  C 3.162616 -0.033120 -0.972772
  H 2.548794 0.218930 -1.829902
  C 4.575420 0.159998 -1.230537
  C 5.037211 0.741314 -2.332719
  H 6.091307 0.833736 -2.530526
  H 4.310241 -0.103011 1.297551
  H 3.529589 -1.667734 1.727799
  H 1.631327 -0.422851 2.711004
  H 2.371657 1.107396 2.238395
  H 3.594688 -0.910419 4.184584
  H 2.800694 0.598101 4.639960
  H 4.311818 0.635855 3.730330
  H 5.277677 -0.232050 -0.508168
  H 4.373487 1.141792 -3.081839
 19
 7.502553
  H 1.547075 -1.002011 0.050849
  C 2.550094 -0.606753 0.125280
  C 3.290645 -0.772734 1.415898
  C 2.608014 0.093269 2.489636
  C 3.450848 0.167353 3.756449
  C 3.118506 0.041364 -0.894159
  H 2.534717 0.452702 -1.711472
  C 4.539520 0.118585 -1.167151
  C 5.055043 0.833505 -2.166030
  H 6.104603 0.805575 -2.403505
  H 4.251698 -0.294079 1.220949
  H 3.348714 -1.800435 1.767690
  H 1.627960 -0.325640 2.732054
  H 2.449541 1.097429 2.091602
  H 3.631663 -0.829350 4.153541
  H 2.942422 0.753262 4.518896
  H 4.412277 0.632745 3.550129
  H 5.197690 -0.489512 -0.561074
  H 4.439017 1.457538 -2.793127
 19
 20.157113
  H 1.544443 -1.128007 -0.078521
  C 2.486547 -0.633920 0.102250
  C 3.230133 -0.811942 1.393219
  C 2.621862 0.117988 2.466147
  C 3.502669 0.158734 3.707611
  C 3.100417 0.129778 -0.817057
  H 2.545576 0.692332 -1.564885
  C 4.505888 0.069910 -1.146574
  C 5.081567 0.836156 -2.076752
  H 6.108988 0.699764 -2.366012
  H 4.130838 -0.251441 1.121455
  H 3.287608 -1.824747 1.775041
  H 1.625953 -0.239110 2.746607
  H 2.505933 1.121574 2.054313
  H 3.649408 -0.843301 4.104531
  H 3.041238 0.769154 4.480517
  H 4.478096 0.579591 3.473529
  H 5.099896 -0.673603 -0.631082
  H 4.529233 1.592289 -2.610267
 19
 40.464752
  H 1.521571 -1.145330 -0.263411
  C 2.420057 -0.637318 0.049401
  C 3.109878 -0.844977 1.364959
  C 2.581760 0.084706 2.487108
  C 3.595340 0.184240 3.616839
  C 3.116488 0.239592 -0.712079
  H 2.619931 0.923856 -1.402812
  C 4.491324 0.031654 -1.098195
  C 5.138854 0.793803 -1.997101
  H 6.138217 0.559296 -2.319454
  H 3.922320 -0.145811 1.052384
  H 3.184677 -1.862513 1.726731
  H 1.643773 -0.317554 2.887763
  H 2.361905 1.074074 2.083391
  H 3.821103 -0.802293 4.014881
  H 3.202053 0.797569 4.424221
  H 4.523196 0.630780 3.265391
  H 4.996356 -0.818329 -0.656229
  H 4.674998 1.653745 -2.452111
 19
 67.111018
  H 1.537638 -1.263651 -0.396584
  C 2.374866 -0.719922 0.011780
  C 2.978956 -0.877867 1.338314
  C 2.584576 0.108805 2.464520
  C 3.671578 0.195013 3.524906
  C 3.117297 0.243571 -0.631820
  H 2.642599 0.985366 -1.283040
  C 4.487889 0.010230 -1.040284
  C 5.155422 0.798195 -1.882561
  H 6.154496 0.561198 -2.203778
  H 3.756633 -0.023106 0.910025
  H 3.049776 -1.885403 1.741454
  H 1.660149 -0.251488 2.934719
  H 2.375222 1.099931 2.057418
  H 3.887149 -0.790601 3.930690
  H 3.353155 0.839007 4.341022
  H 4.590728 0.599671 3.104939
  H 4.964936 -0.876715 -0.640264
  H 4.716202 1.692691 -2.293355
 19
 81.642921
  H 1.570563 -1.318243 -0.425611
  C 2.375386 -0.765233 0.035339
  C 2.886800 -0.905281 1.340239
  C 2.569086 0.096775 2.451999
  C 3.689578 0.198111 3.481288
  C 3.147489 0.275680 -0.553199
  H 2.661492 1.026993 -1.183505
  C 4.519273 0.013352 -1.016924
  C 5.169567 0.787695 -1.876352
  H 6.159550 0.543553 -2.218421
  H 3.716834 0.155080 0.761329
  H 2.942731 -1.911794 1.773580
  H 1.659367 -0.253453 2.954687
  H 2.355840 1.086556 2.041083
  H 3.909110 -0.780396 3.902024
  H 3.401730 0.862497 4.293005
  H 4.598817 0.586035 3.025463
  H 4.992694 -0.880739 -0.628415
  H 4.731979 1.687877 -2.274557
 19
 68.188950
  H 1.630979 -1.362880 -0.413766
  C 2.401270 -0.800392 0.087112
  C 2.834915 -0.944882 1.367978
  C 2.553691 0.065992 2.458616
  C 3.687698 0.202158 3.474812
  C 3.186379 0.318714 -0.481399
  H 2.674244 1.064265 -1.082661
  C 4.544837 0.007306 -1.032947
  C 5.183999 0.775096 -1.884320
  H 6.152599 0.508825 -2.268016
  H 3.709121 0.340769 0.602978
  H 2.868517 -1.943497 1.825233
  H 1.656170 -0.285619 2.975046
  H 2.328711 1.047887 2.034159
  H 3.914114 -0.763098 3.922534
  H 3.409028 0.891047 4.269222
  H 4.590490 0.578156 2.996754
  H 4.988791 -0.921847 -0.698573
  H 4.774414 1.711323 -2.224605
 19
 43.920005
  H 1.877815 -1.405132 -0.477425
  C 2.535760 -0.790122 0.113343
  C 2.793849 -0.951490 1.414621
  C 2.539531 0.077976 2.484236
  C 3.618767 0.136280 3.565520
  C 3.277281 0.407132 -0.426054
  H 2.723129 1.135035 -1.004954
  C 4.588023 0.058006 -1.077850
  C 5.120831 0.728529 -2.091091
  H 6.077702 0.463467 -2.507652
  H 3.751224 0.580480 0.573825
  H 2.759941 -1.945715 1.870679
  H 1.592094 -0.214579 2.944930
  H 2.404610 1.073463 2.055208
  H 3.770342 -0.847852 4.004206
  H 3.330874 0.823819 4.357558
  H 4.564528 0.473781 3.146534
  H 5.103276 -0.793869 -0.653402
  H 4.627401 1.579064 -2.532216
 19
 26.269139
  H 2.078408 -1.451689 -0.524214
  C 2.626207 -0.784714 0.121454
  C 2.746868 -0.953859 1.434929
  C 2.536348 0.089706 2.499837
  C 3.621087 0.099231 3.578227
  C 3.283237 0.459334 -0.422135
  H 2.690102 1.083137 -1.080215
  C 4.586404 0.086333 -1.084002
  C 5.101414 0.712069 -2.124687
  H 6.048967 0.427474 -2.549498
  H 3.667421 0.848873 0.531365
  H 2.653476 -1.942424 1.885793
  H 1.578994 -0.166585 2.961115
  H 2.446007 1.089153 2.070510
  H 3.716316 -0.886301 4.029401
  H 3.377611 0.813368 4.361918
  H 4.583508 0.372843 3.150515
  H 5.103896 -0.752101 -0.636369
  H 4.608105 1.553931 -2.582785
 19
 13.771052
  H 2.363203 -1.496498 -0.543622
  C 2.731738 -0.752817 0.147366
  C 2.706914 -0.935093 1.458495
  C 2.536101 0.122137 2.515276
  C 3.578119 0.034534 3.630442
  C 3.324434 0.509844 -0.417463
  H 2.683775 1.053943 -1.106141
  C 4.629152 0.164596 -1.084700
  C 5.036769 0.661417 -2.240157
  H 5.977170 0.379951 -2.683435
  H 3.630060 1.066001 0.476450
  H 2.569931 -1.915440 1.906761
  H 1.543932 -0.051519 2.942479
  H 2.538151 1.127742 2.093401
  H 3.587480 -0.962842 4.065140
  H 3.358025 0.751130 4.418695
  H 4.571471 0.246343 3.240183
  H 5.242153 -0.545564 -0.544921
  H 4.440353 1.365535 -2.797842
 19
 6.758181
  H 2.530459 -1.548684 -0.521655
  C 2.762793 -0.745712 0.164393
  C 2.610564 -0.910501 1.468041
  C 2.548182 0.150770 2.529987
  C 3.609541 -0.051332 3.611195
  C 3.283723 0.523907 -0.448338
  H 2.623666 0.926848 -1.215309
  C 4.639852 0.250038 -1.033144
  C 5.035094 0.639807 -2.230024
  H 6.025509 0.434584 -2.599900
  H 3.430141 1.225635 0.377842
  H 2.434051 -1.885741 1.908700
  H 1.556580 0.075671 2.987568
  H 2.637017 1.155570 2.117277
  H 3.517069 -1.038577 4.058727
  H 3.503335 0.695357 4.395111
  H 4.606336 0.038218 3.184201
  H 5.309193 -0.302935 -0.386701
  H 4.385826 1.190476 -2.891565
 19
 3.702871
  H 2.871576 -1.557626 -0.462562
  C 2.892799 -0.716154 0.218059
  C 2.524277 -0.882864 1.479415
  C 2.466777 0.155906 2.560826
  C 3.552216 -0.090989 3.609492
  C 3.411506 0.564883 -0.370141
  H 2.694000 0.983180 -1.079961
  C 4.717670 0.315007 -1.061206
  C 4.957257 0.578785 -2.331944
  H 5.913033 0.380580 -2.787559
  H 3.575071 1.272255 0.447208
  H 2.256486 -1.864130 1.853457
  H 1.486898 0.092090 3.042846
  H 2.568006 1.165073 2.162008
  H 3.442277 -1.081056 4.046774
  H 3.488981 0.647429 4.405876
  H 4.538164 -0.026281 3.154544
  H 5.486237 -0.124784 -0.438137
  H 4.205700 1.012096 -2.972588
