 26
 0.000000
  C 0.996384 0.132972 0.381868
  C 2.475139 0.140018 0.399085
  C 3.241227 0.613797 1.578372
  H 2.683154 0.954049 2.425534
  C 3.096863 -0.322475 -0.752613
  C 4.472906 -0.413204 -0.978851
  C 5.132414 -0.867699 -2.111643
  C 4.618673 -1.388937 -3.410716
  C 3.124514 -1.501358 -3.691727
  C 2.884273 -2.062550 -5.090453
  O 6.457488 -0.870547 -2.119086
  H 0.547238 0.500715 1.297563
  H 0.632250 -0.881396 0.212641
  H 0.631990 0.748397 -0.441931
  H 3.897288 1.429656 1.253616
  H 3.897458 -0.199872 1.908184
  H 2.436796 -0.639606 -1.542199
  H 5.100515 -0.083792 -0.158214
  H 5.068655 -2.379864 -3.541239
  H 5.069011 -0.763340 -4.190016
  H 2.653353 -0.519100 -3.634327
  H 2.652914 -2.171265 -2.971344
  H 3.317761 -1.416949 -5.851212
  H 1.816603 -2.139379 -5.282649
  H 3.317322 -3.055145 -5.193870
  H 6.834017 -0.535875 -1.285013
 26
 0.000000
  C 1.054624 0.117134 0.342394
  C 2.533284 0.126580 0.365604
  C 3.293816 0.601597 1.547985
  H 2.731763 0.940939 2.392877
  C 3.134133 -0.330103 -0.771621
  C 4.440339 -0.415253 -0.983958
  C 5.072676 -0.851706 -2.071799
  C 4.586177 -1.376558 -3.379880
  C 3.098163 -1.499759 -3.687729
  C 2.887195 -2.062580 -5.090522
  O 6.329609 -0.835906 -2.032780
  H 0.601174 0.484144 1.256260
  H 0.692826 -0.897823 0.171695
  H 0.692573 0.731970 -0.482877
  H 3.949863 1.418521 1.225889
  H 3.950025 -0.211007 1.880456
  H 2.471254 -0.646415 -1.559177
  H 5.067385 -0.085691 -0.162951
  H 5.045589 -2.364197 -3.502224
  H 5.045933 -0.747669 -4.150990
  H 2.618954 -0.520937 -3.638877
  H 2.618529 -2.173107 -2.975907
  H 3.329627 -1.413811 -5.843398
  H 1.823736 -2.147113 -5.301897
  H 3.329202 -3.052012 -5.186069
  H 6.657755 -0.481989 -1.150744
 26
 0.000000
  C 1.112710 0.102850 0.306789
  C 2.591251 0.114622 0.335808
  C 3.346385 0.590829 1.521167
  H 2.780483 0.929283 2.363844
  C 3.172822 -0.338048 -0.791422
  C 4.407956 -0.418260 -0.991452
  C 5.013620 -0.836853 -2.034799
  C 4.555313 -1.365215 -3.351627
  C 3.074199 -1.499450 -3.686943
  C 2.893405 -2.063725 -5.093369
  O 6.200584 -0.803973 -1.953220
  H 0.655097 0.469142 1.218867
  H 0.753181 -0.912674 0.134672
  H 0.752937 0.717119 -0.519898
  H 4.002406 1.408786 1.201648
  H 4.002560 -0.220743 1.856214
  H 2.506261 -0.653281 -1.576299
  H 5.034965 -0.088687 -0.170421
  H 5.024240 -2.349405 -3.465390
  H 5.024571 -0.732872 -4.114144
  H 2.586904 -0.524219 -3.647026
  H 2.586494 -2.176395 -2.984070
  H 3.344856 -1.411632 -5.837977
  H 1.834690 -2.156145 -5.324376
  H 3.344447 -3.049839 -5.180661
  H 6.474872 -0.428790 -1.018184
 26
 0.000000
  C 1.170135 0.090195 0.275244
  C 2.648539 0.104163 0.309750
  C 3.398560 0.581487 1.497903
  H 2.829032 0.919096 2.338474
  C 3.212613 -0.346379 -0.812182
  C 4.376365 -0.422150 -1.001148
  C 4.956032 -0.823203 -2.000793
  C 4.526481 -1.354906 -3.325952
  C 3.052959 -1.500270 -3.688966
  C 2.902815 -2.065789 -5.098503
  O 6.072102 -0.775114 -1.881322
  H 0.708596 0.455803 1.185616
  H 0.812757 -0.925861 0.101794
  H 0.812521 0.703933 -0.552775
  H 4.054546 1.400419 1.180821
  H 4.054693 -0.229111 1.835384
  H 2.541652 -0.660310 -1.593826
  H 5.003768 -0.092680 -0.180377
  H 5.004860 -2.335528 -3.430840
  H 5.005176 -0.718990 -4.079583
  H 2.557668 -0.528739 -3.658255
  H 2.557275 -2.180920 -2.995311
  H 3.363223 -1.410259 -5.834563
  H 1.849338 -2.166164 -5.349310
  H 3.362831 -3.048471 -5.177260
  H 6.286188 -0.377168 -0.889554
 26
 0.000000
  C 1.226205 0.079492 0.248559
  C 2.704465 0.095450 0.288041
  C 3.449839 0.573779 1.478711
  H 2.877032 0.910616 2.317361
  C 3.253154 -0.355194 -0.834148
  C 4.346103 -0.426957 -1.013128
  C 4.900707 -0.810953 -1.970281
  C 4.500143 -1.345788 -3.303246
  C 3.034829 -1.502243 -3.693862
  C 2.915457 -2.068777 -5.105940
  O 5.946054 -0.749694 -1.817992
  H 0.761113 0.444474 1.157373
  H 0.870781 -0.937044 0.073908
  H 0.870553 0.692751 -0.580658
  H 4.105785 1.393595 1.163839
  H 4.105924 -0.235936 1.818399
  H 2.577139 -0.667613 -1.612036
  H 4.974282 -0.097690 -0.192868
  H 4.987798 -2.322765 -3.399067
  H 4.988097 -0.706222 -4.047798
  H 2.531727 -0.534479 -3.672521
  H 2.531354 -2.186665 -3.009591
  H 3.384649 -1.409737 -5.833269
  H 1.867658 -2.177082 -5.376483
  H 3.384277 -3.047954 -5.175980
  H 6.093106 -0.327678 -0.766235
 26
 0.000000
  C 1.280637 0.071242 0.227986
  C 2.758758 0.088901 0.271722
  C 3.500151 0.568082 1.464533
  H 2.924545 0.904256 2.301531
  C 3.294579 -0.364798 -0.858079
  C 4.317322 -0.432913 -1.027972
  C 4.847800 -0.800317 -1.943789
  C 4.476518 -1.338076 -3.284044
  C 3.020054 -1.505608 -3.702226
  C 2.931640 -2.072928 -5.116274
  O 5.822926 -0.727846 -1.763564
  H 0.812511 0.435685 1.135458
  H 0.926887 -0.945702 0.052311
  H 0.926668 0.684095 -0.602251
  H 4.156057 1.388654 1.151551
  H 4.156187 -0.240879 1.806106
  H 2.612790 -0.675466 -1.631618
  H 4.946643 -0.103948 -0.208468
  H 4.973290 -2.311321 -3.370585
  H 4.973571 -0.694774 -4.019304
  H 2.509313 -0.541688 -3.690443
  H 2.508961 -2.193880 -3.027527
  H 3.409462 -1.410296 -5.834669
  H 1.889977 -2.189155 -5.406530
  H 3.409112 -3.048518 -5.177393
  H 5.894754 -0.279940 -0.647282
 26
 0.000000
  C 1.332688 0.066130 0.215229
  C 2.810693 0.085085 0.262211
  C 3.549046 0.564910 1.456648
  H 2.971309 0.900576 2.292382
  C 3.336765 -0.375527 -0.884813
  C 4.290454 -0.440288 -1.046351
  C 4.797900 -0.791630 -1.922153
  C 4.456070 -1.332091 -3.269147
  C 3.009064 -1.510639 -3.714736
  C 2.951662 -2.078509 -5.130169
  O 5.704147 -0.709886 -1.718822
  H 0.862252 0.430159 1.121672
  H 0.980217 -0.951122 0.038776
  H 0.980006 0.678676 -0.615782
  H 4.204917 1.386059 1.145109
  H 4.205040 -0.243476 1.799659
  H 2.648486 -0.684198 -1.653390
  H 4.921221 -0.111705 -0.227806
  H 4.961760 -2.301534 -3.346233
  H 4.962019 -0.684981 -3.994940
  H 2.490890 -0.550622 -3.712658
  H 2.490561 -2.202819 -3.049755
  H 3.437918 -1.412216 -5.839465
  H 1.916569 -2.202614 -5.440028
  H 3.437593 -3.050444 -5.182202
  H 5.691412 -0.233798 -0.532305
 26
 0.000000
  C 1.381391 0.064982 0.212346
  C 2.859324 0.084691 0.261227
  C 3.595897 0.564888 1.456614
  H 3.016915 0.900255 2.291606
  C 3.379463 -0.387775 -0.915329
  C 4.266055 -0.449407 -1.069075
  C 4.751770 -0.785294 -1.906376
  C 4.439372 -1.328220 -3.259518
  C 3.002369 -1.517651 -3.732179
  C 2.975833 -2.085833 -5.148408
  O 5.591559 -0.696151 -1.684609
  H 0.909604 0.428767 1.118186
  H 1.029665 -0.952450 0.035437
  H 1.029464 0.677352 -0.619115
  H 4.251748 1.386374 1.145921
  H 4.251863 -0.243164 1.800464
  H 2.684052 -0.694214 -1.678361
  H 4.898449 -0.121256 -0.251612
  H 4.953724 -2.293813 -3.327035
  H 4.953959 -0.677256 -3.975730
  H 2.477014 -0.561572 -3.739891
  H 2.476713 -2.213774 -3.077001
  H 3.470277 -1.415837 -5.848497
  H 1.947702 -2.217724 -5.477635
  H 3.469979 -3.054070 -5.191247
  H 5.483831 -0.189014 -0.420715
 26
 0.000000
  C 1.425934 0.068741 0.221689
  C 2.903861 0.088514 0.270750
  C 3.640267 0.568739 1.466229
  H 3.061169 0.904075 2.301153
  C 3.422543 -0.402044 -0.950880
  C 4.244574 -0.460692 -1.097194
  C 4.709944 -0.781709 -1.897453
  C 4.426891 -1.326861 -3.256148
  C 3.000403 -1.527019 -3.755491
  C 3.004519 -2.095279 -5.171933
  O 5.486556 -0.686875 -1.661507
  H 0.954021 0.432502 1.127473
  H 1.074274 -0.948705 0.044733
  H 1.074081 0.681099 -0.609812
  H 4.296119 1.390255 1.155619
  H 4.296228 -0.239286 1.810154
  H 2.719452 -0.706036 -1.707830
  H 4.878609 -0.132977 -0.280828
  H 4.949633 -2.288567 -3.314007
  H 4.949841 -0.672005 -3.962690
  H 2.468132 -0.574903 -3.773053
  H 2.467860 -2.227110 -3.110176
  H 3.506888 -1.421545 -5.862731
  H 1.983717 -2.234847 -5.520252
  H 3.506619 -3.059783 -5.205495
  H 5.271794 -0.144930 -0.310869
 26
 0.000000
  C 1.464912 0.077769 0.244159
  C 2.942906 0.096831 0.291466
  C 3.680961 0.576695 1.486073
  H 3.103015 0.912305 2.321686
  C 3.464730 -0.418281 -0.991335
  C 4.226793 -0.474064 -1.130514
  C 4.673689 -0.781062 -1.895850
  C 4.419139 -1.328157 -3.259396
  C 3.003374 -1.538621 -3.784366
  C 3.037148 -2.106737 -5.200471
  O 5.392637 -0.682103 -1.649625
  H 0.994249 0.441752 1.150503
  H 1.112553 -0.939507 0.067614
  H 1.112368 0.690301 -0.586922
  H 4.336839 1.397898 1.174690
  H 4.336941 -0.231647 1.829216
  H 2.753837 -0.719739 -1.741985
  H 4.862188 -0.146713 -0.315060
  H 4.949802 -2.286044 -3.307763
  H 4.949981 -0.669477 -3.956435
  H 2.464615 -0.590388 -3.811578
  H 2.464374 -2.242601 -3.148714
  H 3.546991 -1.429329 -5.882140
  H 2.023830 -2.253680 -5.567129
  H 3.546754 -3.067572 -5.224916
  H 5.060639 -0.101997 -0.203891
 26
 0.000000
  C 1.497970 0.092219 0.280137
  C 2.976097 0.109786 0.323740
  C 3.717629 0.588897 1.516496
  H 3.142118 0.925084 2.353556
  C 3.505483 -0.436550 -1.036849
  C 4.212675 -0.489525 -1.169038
  C 4.642961 -0.783273 -1.901366
  C 4.415995 -1.332046 -3.269102
  C 3.011079 -1.552374 -3.818600
  C 3.073447 -2.120147 -5.233872
  O 5.310429 -0.681406 -1.647895
  H 1.029948 0.456672 1.187660
  H 1.144141 -0.924699 0.104472
  H 1.143964 0.705112 -0.550055
  H 4.373553 1.409439 1.203473
  H 4.373651 -0.220110 1.857990
  H 2.786977 -0.735488 -1.781234
  H 4.848873 -0.162388 -0.354125
  H 4.954106 -2.286193 -3.308180
  H 4.954256 -0.669622 -3.956841
  H 2.466254 -0.607932 -3.855230
  H 2.466045 -2.260150 -3.192378
  H 3.590316 -1.439143 -5.906609
  H 2.067711 -2.274151 -5.618088
  H 3.590111 -3.077391 -5.249397
  H 4.851393 -0.059575 -0.098194
 26
 0.000000
  C 1.525492 0.111442 0.328008
  C 3.003793 0.126826 0.366190
  C 3.750401 0.604831 1.556220
  H 3.178461 0.941860 2.395386
  C 3.544177 -0.456424 -1.086362
  C 4.201845 -0.506601 -1.211586
  C 4.617270 -0.787766 -1.912569
  C 4.416885 -1.337968 -3.283875
  C 3.022863 -1.567703 -3.856759
  C 3.112687 -2.134956 -5.270759
  O 5.239768 -0.683870 -1.654041
  H 1.061340 0.476578 1.237242
  H 1.169520 -0.904951 0.153639
  H 1.169349 0.724864 -0.500879
  H 4.406382 1.424408 1.240795
  H 4.406477 -0.205145 1.895302
  H 2.818607 -0.752980 -1.824824
  H 4.838036 -0.179459 -0.396669
  H 4.961976 -2.288473 -3.313907
  H 4.962096 -0.671898 -3.962557
  H 2.472390 -0.626943 -3.902537
  H 2.472213 -2.279165 -3.239696
  H 3.636133 -1.450452 -5.934801
  H 2.114571 -2.295695 -5.671719
  H 3.635961 -3.088704 -5.277600
  H 4.645815 -0.017496 0.006650
 26
 0.000000
  C 1.536470 0.117050 0.341976
  C 3.014782 0.132297 0.379819
  C 3.761706 0.610232 1.569678
  H 3.189990 0.947313 2.408977
  C 3.560133 -0.461343 -1.098618
  C 4.205794 -0.510525 -1.221363
  C 4.618452 -0.788305 -1.913913
  C 4.426651 -1.338931 -3.286277
  C 3.036237 -1.571682 -3.866663
  C 3.134907 -2.138731 -5.280157
  O 5.229807 -0.683706 -1.653634
  H 1.072560 0.482229 1.251317
  H 1.180363 -0.899309 0.167687
  H 1.180194 0.730506 -0.486829
  H 4.417691 1.429748 1.254105
  H 4.417786 -0.199805 1.908609
  H 2.833643 -0.757586 -1.836300
  H 4.840843 -0.183075 -0.405680
  H 4.973955 -2.288252 -3.313367
  H 4.974067 -0.671676 -3.962015
  H 2.483981 -0.632117 -3.915411
  H 2.483813 -2.284341 -3.252573
  H 3.660440 -1.453089 -5.941372
  H 2.139317 -2.301629 -5.686488
  H 3.660277 -3.091342 -5.284174
  H 4.597005 -0.005450 0.036662
 26
 0.000000
  C 1.571959 0.157569 0.442892
  C 3.050599 0.167405 0.467282
  C 3.810063 0.642574 1.650290
  H 3.247246 0.981721 2.494753
  C 3.615466 -0.498244 -1.190557
  C 4.181058 -0.541899 -1.299534
  C 4.568947 -0.796962 -1.935490
  C 4.424889 -1.349590 -3.312864
  C 3.055359 -1.598935 -3.934504
  C 3.203046 -2.164482 -5.344303
  O 5.111987 -0.690377 -1.670262
  H 1.117684 0.524420 1.356413
  H 1.210565 -0.857476 0.271860
  H 1.210404 0.772345 -0.382641
  H 4.466141 1.459694 1.328754
  H 4.466232 -0.169866 1.983241
  H 2.878638 -0.790913 -1.919353
  H 4.812899 -0.213583 -0.481710
  H 4.984130 -2.292254 -3.323416
  H 4.984187 -0.675672 -3.972049
  H 2.493553 -0.666071 -3.999901
  H 2.493445 -2.318302 -3.337081
  H 3.739817 -1.472444 -5.989629
  H 2.222088 -2.339264 -5.780178
  H 3.739714 -3.110705 -5.332448
  H 4.217245 0.067589 0.218632
