 17
 0.000000
  C 0.922677 0.048455 0.201074
  C 2.407110 0.067452 0.013831
  H 2.995570 0.015553 0.919568
  C 3.044290 0.136274 -1.160292
  C 2.320178 0.209772 -2.474369
  H 1.245266 0.202183 -2.331776
  C 4.496147 0.134991 -1.193358
  C 5.253817 0.187833 -2.291558
  O 6.608260 0.184095 -2.304319
  H 0.673100 -0.010122 1.256887
  H 0.480542 -0.811915 -0.302448
  H 0.463452 0.948664 -0.208173
  H 2.593926 -0.638642 -3.101252
  H 2.594832 1.122380 -3.003041
  H 4.988966 0.085704 -0.228042
  H 4.862107 0.239036 -3.294677
  H 6.940605 0.138023 -1.399919
 17
 0.099145
  C 0.918949 0.043048 0.205658
  C 2.400612 0.121957 0.011626
  H 2.988460 0.127933 0.919928
  C 3.040152 0.159603 -1.162774
  C 2.325618 0.190527 -2.483212
  H 1.249770 0.222052 -2.350768
  C 4.491732 0.165624 -1.194294
  C 5.250314 0.156295 -2.290622
  O 6.606495 0.149651 -2.300250
  H 0.691555 -0.288543 1.215785
  H 0.470522 -0.660565 -0.494185
  H 0.450157 1.017043 0.057517
  H 2.580020 -0.689421 -3.072478
  H 2.627200 1.072816 -3.045498
  H 4.983284 0.169025 -0.226968
  H 4.860339 0.150248 -3.295922
  H 6.937465 0.154403 -1.392792
 17
 0.726745
  C 0.918614 0.021225 0.201684
  C 2.390626 0.208095 0.017271
  H 2.966095 0.299365 0.929236
  C 3.035034 0.195405 -1.154433
  C 2.332523 0.199925 -2.483444
  H 1.257686 0.289208 -2.370629
  C 4.486908 0.199704 -1.194818
  C 5.242884 0.103660 -2.288619
  O 6.598959 0.082738 -2.298114
  H 0.738859 -0.552355 1.109854
  H 0.500156 -0.536924 -0.633690
  H 0.396538 0.973395 0.299180
  H 2.551776 -0.710131 -3.040429
  H 2.681821 1.047956 -3.069966
  H 4.982942 0.264713 -0.231414
  H 4.852363 0.027433 -3.290677
  H 6.930926 0.145688 -1.393162
 17
 3.134745
  C 0.928601 -0.012349 0.187660
  C 2.377407 0.316779 0.025758
  H 2.922205 0.544409 0.932204
  C 3.028438 0.228278 -1.139416
  C 2.334864 0.238965 -2.475951
  H 1.265741 0.392708 -2.378939
  C 4.479704 0.220274 -1.192761
  C 5.227998 0.038134 -2.280990
  O 6.583185 -0.016576 -2.292062
  H 0.832115 -0.764939 0.972679
  H 0.571797 -0.475863 -0.730250
  H 0.318981 0.843493 0.469931
  H 2.506477 -0.685909 -3.025690
  H 2.739262 1.061194 -3.063539
  H 4.983906 0.329974 -0.237097
  H 4.832000 -0.097043 -3.274541
  H 6.919838 0.092744 -1.393262
 17
 9.908225
  C 0.955287 -0.053816 0.178279
  C 2.366586 0.416254 0.031959
  H 2.848259 0.868215 0.886409
  C 3.016820 0.229837 -1.127381
  C 2.330756 0.288933 -2.469573
  H 1.262517 0.452972 -2.376326
  C 4.466464 0.208421 -1.187525
  C 5.210272 -0.011731 -2.272907
  O 6.561904 -0.127151 -2.277474
  H 0.959891 -0.889492 0.885664
  H 0.687503 -0.509071 -0.774177
  H 0.252274 0.688006 0.543230
  H 2.493792 -0.607984 -3.067220
  H 2.755100 1.134111 -3.008076
  H 4.973763 0.284495 -0.229786
  H 4.814826 -0.111706 -3.270800
  H 6.900187 -0.012578 -1.379975
 17
 21.981356
  C 1.006907 -0.124093 0.176290
  C 2.360729 0.489706 0.040011
  H 2.740836 1.153939 0.802055
  C 3.002398 0.243336 -1.125160
  C 2.323802 0.391311 -2.464663
  H 1.256440 0.557934 -2.364029
  C 4.445635 0.192109 -1.183504
  C 5.188442 -0.088641 -2.261325
  O 6.530437 -0.220550 -2.260040
  H 1.106718 -0.996548 0.832456
  H 0.845788 -0.611904 -0.793810
  H 0.217751 0.505983 0.558624
  H 2.475138 -0.461830 -3.128285
  H 2.767746 1.266364 -2.933456
  H 4.955517 0.309150 -0.230149
  H 4.789761 -0.252988 -3.246006
  H 6.861777 -0.113491 -1.367511
 17
 41.452449
  C 1.065271 -0.158047 0.184642
  C 2.333305 0.612795 0.025647
  H 2.685133 1.367530 0.725025
  C 2.964166 0.239317 -1.119111
  C 2.298176 0.451125 -2.461990
  H 1.236117 0.662261 -2.353119
  C 4.411228 0.132019 -1.165704
  C 5.161296 -0.101488 -2.251710
  O 6.497208 -0.292425 -2.241695
  H 1.206431 -1.053237 0.799781
  H 1.174403 -0.733798 -0.772353
  H 0.181521 0.374518 0.502018
  H 2.412255 -0.391978 -3.147666
  H 2.776900 1.320315 -2.908867
  H 4.912810 0.188284 -0.204303
  H 4.767630 -0.209570 -3.245127
  H 6.829603 -0.177124 -1.351251
 17
 69.539563
  C 1.140492 -0.197419 0.192634
  C 2.294370 0.691550 0.034818
  H 2.562455 1.535514 0.640269
  C 2.923889 0.237387 -1.113271
  C 2.283978 0.521804 -2.457593
  H 1.234801 0.778620 -2.347638
  C 4.363961 0.115144 -1.155831
  C 5.107350 -0.180438 -2.227218
  O 6.455457 -0.342008 -2.220275
  H 1.338264 -1.150511 0.690436
  H 1.522452 -0.747980 -0.823466
  H 0.207891 0.218647 0.545566
  H 2.366094 -0.312411 -3.153055
  H 2.804396 1.374063 -2.893493
  H 4.866236 0.239484 -0.200851
  H 4.704152 -0.356004 -3.212734
  H 6.792772 -0.198788 -1.327704
 17
 84.931228
  C 1.171023 -0.150648 0.281895
  C 2.250501 0.714345 0.030588
  H 2.532241 1.593373 0.590163
  C 2.886334 0.192113 -1.142616
  C 2.258103 0.509685 -2.501335
  H 1.197250 0.723390 -2.403374
  C 4.343979 0.079345 -1.154477
  C 5.112535 -0.169914 -2.217234
  O 6.460811 -0.335989 -2.186638
  H 1.368875 -1.143215 0.668572
  H 1.762328 -0.744971 -0.929171
  H 0.232874 0.233126 0.690848
  H 2.385618 -0.306322 -3.208707
  H 2.747560 1.392873 -2.914175
  H 4.817871 0.145973 -0.179981
  H 4.735018 -0.281646 -3.221347
  H 6.779332 -0.224416 -1.282062
 17
 64.484266
  C 1.192577 -0.100210 0.399006
  C 2.186890 0.700557 -0.004784
  H 2.487763 1.619406 0.469526
  C 2.844136 0.100247 -1.207939
  C 2.240209 0.512214 -2.562413
  H 1.173911 0.668210 -2.472787
  C 4.309669 0.051398 -1.162688
  C 5.113420 -0.164639 -2.192810
  O 6.453536 -0.289555 -2.122858
  H 1.391761 -1.124039 0.687181
  H 2.052408 -0.745328 -1.085074
  H 0.327228 0.279619 0.926280
  H 2.435603 -0.258316 -3.306546
  H 2.686046 1.443542 -2.917034
  H 4.738711 0.099079 -0.167451
  H 4.771556 -0.298178 -3.199348
  H 6.727711 -0.257382 -1.212122
 17
 43.981538
  C 1.237810 -0.086929 0.508359
  C 2.132966 0.720856 -0.062261
  H 2.393373 1.702573 0.290713
  C 2.820331 0.080112 -1.252758
  C 2.236187 0.521160 -2.606362
  H 1.165941 0.689993 -2.513014
  C 4.295304 -0.019442 -1.160966
  C 5.133234 -0.152834 -2.179017
  O 6.468753 -0.316462 -2.076390
  H 1.444863 -1.121979 0.720980
  H 2.163642 -0.816157 -1.116420
  H 0.393038 0.288900 1.072531
  H 2.416076 -0.245752 -3.350852
  H 2.693522 1.447187 -2.949071
  H 4.694357 0.004562 -0.150599
  H 4.822511 -0.173917 -3.211371
  H 6.728147 -0.265188 -1.152245
 17
 26.648582
  C 1.201313 -0.019713 0.545384
  C 2.111807 0.697607 -0.112235
  H 2.377955 1.710157 0.152027
  C 2.815095 0.000604 -1.252044
  C 2.248315 0.514386 -2.588064
  H 1.170522 0.630152 -2.516248
  C 4.301278 -0.012568 -1.163686
  C 5.141057 -0.198824 -2.184382
  O 6.496919 -0.265448 -2.086560
  H 1.335109 -1.077638 0.712136
  H 2.275224 -0.964740 -1.157514
  H 0.437996 0.399384 1.188481
  H 2.479660 -0.189892 -3.381887
  H 2.682890 1.477243 -2.854302
  H 4.704918 0.072160 -0.159944
  H 4.827702 -0.280438 -3.213661
  H 6.760565 -0.167294 -1.162460
 17
 14.571931
  C 1.181466 0.056927 0.591674
  C 2.132581 0.630951 -0.122651
  H 2.476019 1.632921 0.094850
  C 2.799524 -0.095366 -1.259432
  C 2.250877 0.456079 -2.583872
  H 1.169138 0.547626 -2.522626
  C 4.293104 -0.079268 -1.163425
  C 5.138150 -0.122151 -2.185268
  O 6.493300 -0.127383 -2.085235
  H 1.038231 -1.010837 0.615499
  H 2.379798 -1.108845 -1.179853
  H 0.580058 0.613483 1.293861
  H 2.496773 -0.213061 -3.403571
  H 2.670287 1.437111 -2.797643
  H 4.688137 -0.048545 -0.153471
  H 4.831112 -0.160712 -3.218456
  H 6.749771 -0.083790 -1.155339
 17
 10.139628
  C 1.204433 0.141219 0.639611
  C 2.163758 0.598910 -0.140460
  H 2.553493 1.600190 -0.007004
  C 2.769440 -0.183695 -1.276382
  C 2.244232 0.373109 -2.603114
  H 1.159047 0.437156 -2.568509
  C 4.268775 -0.153227 -1.167051
  C 5.125513 -0.003602 -2.165587
  O 6.478942 0.010480 -2.043076
  H 0.813885 -0.857792 0.524976
  H 2.429456 -1.221643 -1.180684
  H 0.781045 0.731597 1.434369
  H 2.523773 -0.274298 -3.430114
  H 2.645080 1.367504 -2.783113
  H 4.650824 -0.272690 -0.158459
  H 4.835331 0.122149 -3.196607
  H 6.721299 -0.090226 -1.113758
 17
 9.995586
  C 1.227757 0.148313 0.657827
  C 2.163093 0.600732 -0.154324
  H 2.546433 1.606043 -0.046508
  C 2.758028 -0.190784 -1.287188
  C 2.242764 0.363617 -2.617425
  H 1.156288 0.417297 -2.594459
  C 4.257351 -0.166532 -1.168653
  C 5.120705 0.022457 -2.153708
  O 6.473588 0.030446 -2.021023
  H 0.833317 -0.850010 0.564442
  H 2.420329 -1.230922 -1.189676
  H 0.816071 0.750495 1.450195
  H 2.537701 -0.279372 -3.442589
  H 2.635484 1.362866 -2.790627
  H 4.631731 -0.329615 -0.163554
  H 4.838243 0.192036 -3.180343
  H 6.709442 -0.121927 -1.097348
