19
 0
 C -2.63461286 -2.01560468 1.71351354
 C -2.14740870 -2.56921174 0.38001704
 C -3.33357932 -3.05170788 -0.45325618
 C -1.28938796 -1.62577574 -0.46469810
 C -1.07567961 -0.18967117 -0.05982008
 O -0.77545696 -2.03445643 -1.51236766
 H -3.17853830 -2.78322561 2.27484658
 H -3.31138395 -1.16559896 1.57416677
 H -1.79471214 -1.68843166 2.33528079
 H -1.50436823 -3.43043755 0.60421771
 H -3.98628093 -2.21730199 -0.73234113
 H -3.93004216 -3.78365230 0.10171238
 H -2.99729934 -3.53096289 -1.37915229
 H -1.51105098 0.05841905 0.90638963
 H -1.52402591 0.46189000 -0.81461347
 H 0.00000000 0.00000000 0.00000000
 O 2.30000000 0.00000000 0.00000000
 H 2.98474093 0.23913281 0.64258244
 H 2.78881206 -0.44606170 -0.70784698
