 19
 0.000000
  C -2.602749 -1.989726 1.732628
  C -2.159148 -2.557946 0.419263
  C -3.303492 -2.987877 -0.471977
  C -1.255070 -1.648872 -0.515762
  C -1.096625 -0.247167 -0.063202
  O -0.795985 -2.117345 -1.503178
  H -3.129841 -2.775653 2.279520
  H -3.313021 -1.172941 1.620207
  H -1.764653 -1.686829 2.354769
  H -1.472982 -3.395413 0.602548
  H -3.960284 -2.158819 -0.735302
  H -3.916881 -3.704343 0.077701
  H -2.941485 -3.447279 -1.388403
  H -1.557942 -0.021562 0.887525
  H -1.510028 0.391970 -0.846086
  H -0.018723 -0.058110 -0.004766
  O 2.248307 -0.011539 0.006524
  H 2.896356 0.246050 0.663834
  H 2.733973 -0.429259 -0.707209
 19
 -0.261486
  C -2.545348 -1.956117 1.729306
  C -2.123772 -2.550722 0.417196
  C -3.267983 -2.954222 -0.460515
  C -1.197840 -1.660228 -0.533859
  C -1.025661 -0.264362 -0.095214
  O -0.747228 -2.157590 -1.508797
  H -3.074490 -2.732302 2.291162
  H -3.249889 -1.133797 1.613539
  H -1.695593 -1.656969 2.340940
  H -1.438628 -3.394944 0.592776
  H -3.911731 -2.111836 -0.713521
  H -3.889927 -3.658852 0.094619
  H -2.922606 -3.427284 -1.377892
  H -1.492773 -0.009605 0.845395
  H -1.399518 0.374812 -0.898319
  H 0.046812 -0.099792 -0.037809
  O 1.968896 -0.069798 0.041189
  H 2.581214 0.193277 0.711986
  H 2.470784 -0.486806 -0.644499
 19
 0.816064
  C -2.481792 -1.949475 1.733263
  C -2.095481 -2.548770 0.411224
  C -3.277766 -2.925523 -0.460490
  C -1.163294 -1.665334 -0.554896
  C -0.986385 -0.284119 -0.131278
  O -0.721579 -2.187192 -1.525022
  H -2.994140 -2.727117 2.307710
  H -3.188827 -1.124595 1.633799
  H -1.613644 -1.649966 2.323637
  H -1.418521 -3.401782 0.570044
  H -3.903844 -2.066358 -0.690569
  H -3.902006 -3.620584 0.095793
  H -2.961168 -3.396452 -1.388079
  H -1.480322 -0.005874 0.790969
  H -1.319309 0.350429 -0.949468
  H 0.129616 -0.139265 -0.030981
  O 1.784698 -0.090885 0.082916
  H 2.373475 0.201639 0.786373
  H 2.318224 -0.497934 -0.597557
 19
 4.785811
  C -2.398266 -1.938790 1.728363
  C -2.068683 -2.548776 0.387151
  C -3.296756 -2.893075 -0.450918
  C -1.140465 -1.691850 -0.587287
  C -0.961602 -0.313846 -0.174376
  O -0.715625 -2.244721 -1.553567
  H -2.898224 -2.709043 2.320319
  H -3.090857 -1.104038 1.651495
  H -1.508517 -1.650101 2.280463
  H -1.428019 -3.425266 0.521050
  H -3.902235 -2.011168 -0.656308
  H -3.921701 -3.583668 0.121925
  H -3.021660 -3.365743 -1.389132
  H -1.476378 -0.011757 0.720121
  H -1.229352 0.331244 -1.010876
  H 0.196776 -0.198586 -0.004906
  O 1.627334 -0.087862 0.143043
  H 2.157085 0.235460 0.883122
  H 2.198408 -0.479091 -0.518847
 19
 8.539478
  C -2.340802 -1.954294 1.734713
  C -2.061751 -2.546903 0.381253
  C -3.334701 -2.849786 -0.416075
  C -1.135624 -1.696543 -0.605265
  C -0.948281 -0.325511 -0.232165
  O -0.716237 -2.263885 -1.577565
  H -2.824906 -2.724967 2.330983
  H -3.024204 -1.115619 1.687283
  H -1.431872 -1.676333 2.255539
  H -1.451254 -3.451671 0.488132
  H -3.922402 -1.949350 -0.580667
  H -3.948966 -3.539897 0.159356
  H -3.103198 -3.307699 -1.373407
  H -1.478953 0.024189 0.638079
  H -1.133605 0.317260 -1.092361
  H 0.272293 -0.214214 0.025339
  O 1.557057 -0.087315 0.155228
  H 2.043343 0.248503 0.922973
  H 2.141511 -0.520928 -0.478186
 19
 11.189900
  C -2.312712 -1.957051 1.722393
  C -2.060906 -2.551233 0.359791
  C -3.339278 -2.838016 -0.401547
  C -1.148860 -1.719488 -0.609067
  C -0.952555 -0.347559 -0.251363
  O -0.727818 -2.288753 -1.594296
  H -2.800429 -2.727226 2.333957
  H -2.993587 -1.097675 1.680793
  H -1.387175 -1.685713 2.226304
  H -1.480646 -3.460605 0.458720
  H -3.916082 -1.931939 -0.554577
  H -3.954430 -3.529319 0.179236
  H -3.128564 -3.291019 -1.359981
  H -1.474048 0.020533 0.622606
  H -1.083308 0.302298 -1.112393
  H 0.376741 -0.208796 0.055351
  O 1.520030 -0.049074 0.168055
  H 1.951580 0.289287 0.964912
  H 2.117849 -0.501568 -0.442116
 19
 10.805644
  C -2.310650 -1.962316 1.731711
  C -2.072468 -2.559588 0.349674
  C -3.362039 -2.838317 -0.387656
  C -1.167493 -1.724431 -0.616636
  C -0.970670 -0.362876 -0.276943
  O -0.745092 -2.291317 -1.614378
  H -2.789286 -2.713970 2.337710
  H -2.971357 -1.116431 1.697597
  H -1.387599 -1.695259 2.223364
  H -1.497448 -3.500688 0.445266
  H -3.936882 -1.924493 -0.528949
  H -3.966155 -3.523943 0.188604
  H -3.165820 -3.291515 -1.365426
  H -1.462925 0.017616 0.599152
  H -1.042472 0.293905 -1.135052
  H 0.503083 -0.202606 0.071823
  O 1.540234 0.012408 0.169572
  H 1.915613 0.347387 1.005471
  H 2.159450 -0.464936 -0.413058
 19
 10.177510
  C -2.316270 -1.980734 1.732331
  C -2.084125 -2.569452 0.348760
  C -3.389950 -2.851293 -0.379036
  C -1.192888 -1.728610 -0.621226
  C -1.003114 -0.362887 -0.300882
  O -0.768126 -2.294951 -1.624382
  H -2.795029 -2.746922 2.346981
  H -2.991886 -1.121269 1.701208
  H -1.383759 -1.707714 2.221015
  H -1.523975 -3.500408 0.438342
  H -3.963861 -1.943309 -0.508514
  H -3.987508 -3.546915 0.198731
  H -3.202465 -3.289135 -1.349414
  H -1.468944 0.032907 0.579334
  H -1.016406 0.297585 -1.163819
  H 0.641589 -0.157999 0.093509
  O 1.613979 0.073591 0.171248
  H 1.951491 0.395602 1.027135
  H 2.235815 -0.431706 -0.381114
 19
 10.842723
  C -2.331998 -1.992009 1.731566
  C -2.103591 -2.578720 0.346915
  C -3.420337 -2.866928 -0.370569
  C -1.229288 -1.733477 -0.623401
  C -1.055875 -0.375856 -0.315725
  O -0.793814 -2.294131 -1.632568
  H -2.799496 -2.751592 2.345065
  H -3.006166 -1.140880 1.702564
  H -1.403987 -1.713443 2.210896
  H -1.548786 -3.507625 0.434246
  H -4.000266 -1.952820 -0.492407
  H -4.008659 -3.571254 0.213435
  H -3.233365 -3.304727 -1.354698
  H -1.504207 0.035249 0.582040
  H -1.015462 0.277290 -1.169838
  H 0.803206 -0.127443 0.145990
  O 1.718306 0.145782 0.171085
  H 2.049130 0.463708 1.035544
  H 2.340904 -0.378346 -0.368719
 19
 11.808653
  C -2.375551 -2.018158 1.733692
  C -2.138001 -2.604613 0.350182
  C -3.461654 -2.887395 -0.367291
  C -1.279592 -1.749289 -0.610949
  C -1.124011 -0.389677 -0.316165
  O -0.839622 -2.299960 -1.629732
  H -2.845889 -2.780712 2.352097
  H -3.047751 -1.166545 1.698133
  H -1.445193 -1.731798 2.214543
  H -1.586703 -3.543400 0.434244
  H -4.035299 -1.970175 -0.478974
  H -4.045891 -3.594886 0.214181
  H -3.273538 -3.315434 -1.349702
  H -1.544298 0.027206 0.581999
  H -1.025775 0.255528 -1.180562
  H 1.024426 -0.093211 0.218994
  O 1.884154 0.249789 0.161925
  H 2.234608 0.586445 1.015291
  H 2.509013 -0.279844 -0.375677
 19
 12.210359
  C -2.452077 -2.052452 1.739400
  C -2.200520 -2.636972 0.363732
  C -3.524998 -2.927741 -0.370345
  C -1.346074 -1.774588 -0.589317
  C -1.195559 -0.404206 -0.296266
  O -0.895639 -2.309346 -1.616501
  H -2.927972 -2.818621 2.356056
  H -3.130512 -1.205967 1.693097
  H -1.527606 -1.767374 2.230482
  H -1.642329 -3.586995 0.452795
  H -4.093728 -2.012978 -0.490388
  H -4.113845 -3.632713 0.202607
  H -3.322242 -3.352415 -1.344966
  H -1.589833 0.012573 0.605288
  H -1.055440 0.245244 -1.154138
  H 1.334091 -0.042285 0.269033
  O 2.145272 0.376421 0.146836
  H 2.519609 0.762837 0.962451
  H 2.772128 -0.119726 -0.412676
 19
 13.047438
  C -2.511584 -2.073041 1.743734
  C -2.239710 -2.662394 0.378738
  C -3.579362 -2.967907 -0.365989
  C -1.404233 -1.793658 -0.592483
  C -1.244774 -0.424522 -0.294818
  O -0.965593 -2.323435 -1.635488
  H -2.978022 -2.840175 2.363696
  H -3.201599 -1.243270 1.679257
  H -1.594410 -1.761781 2.241524
  H -1.695456 -3.619131 0.462817
  H -4.147294 -2.049341 -0.496151
  H -4.171646 -3.672502 0.213595
  H -3.371020 -3.397215 -1.338542
  H -1.614696 -0.013107 0.627002
  H -1.109557 0.247609 -1.127520
  H 1.636542 -0.004600 0.305506
  O 2.383810 0.491186 0.140428
  H 2.757080 0.889816 0.946416
  H 3.025647 0.033398 -0.432541
 19
 8.754667
  C -2.578188 -2.114488 1.737122
  C -2.356752 -2.686713 0.351957
  C -3.683767 -3.016985 -0.343181
  C -1.516952 -1.829024 -0.606719
  C -1.342761 -0.462097 -0.315629
  O -1.057110 -2.370070 -1.624878
  H -3.020768 -2.885209 2.364009
  H -3.260840 -1.279660 1.712598
  H -1.629706 -1.806356 2.199559
  H -1.800073 -3.620830 0.445781
  H -4.282368 -2.113165 -0.478991
  H -4.249855 -3.720181 0.253643
  H -3.496390 -3.462754 -1.324106
  H -1.694413 -0.031210 0.599432
  H -1.121559 0.199209 -1.143974
  H 2.118058 -0.027571 0.442661
  O 2.731235 0.652205 0.158446
  H 3.075224 1.168156 0.913615
  H 3.423094 0.292983 -0.429137
