 19
 0.000000
  C 1.007630 0.124968 0.362703
  C 2.473422 0.142112 0.404878
  C 3.226256 0.613604 1.577434
  C 2.424362 1.094726 2.775532
  H 3.100456 1.411778 3.564325
  C 3.131892 -0.317175 -0.738104
  C 4.524278 -0.393434 -0.928509
  C 5.076320 -0.854603 -2.078144
  H 4.506210 -1.196543 -2.930769
  H 6.147929 -0.902262 -2.196800
  H 0.545644 0.489662 1.271181
  H 0.653565 -0.890651 0.172387
  H 0.652798 0.725602 -0.477754
  H 3.894119 1.420915 1.251833
  H 3.894625 -0.194072 1.900905
  H 1.791885 0.303227 3.171306
  H 1.791383 1.939755 2.513944
  H 2.496491 -0.643878 -1.550988
  H 5.179323 -0.073259 -0.130831
 19
 -0.328866
  C 1.004733 0.104633 0.374243
  C 2.470753 0.118277 0.405867
  C 3.221374 0.607153 1.574275
  C 2.418759 1.121655 2.758444
  H 3.098173 1.460331 3.537630
  C 3.138775 -0.340707 -0.731661
  C 4.535288 -0.395051 -0.917925
  C 5.078519 -0.860632 -2.071989
  H 4.462052 -1.198101 -2.886379
  H 6.143826 -0.900759 -2.215651
  H 0.551534 0.323142 1.332594
  H 0.635815 -0.850689 -0.010672
  H 0.656111 0.849635 -0.350468
  H 3.904922 1.397094 1.237097
  H 3.888496 -0.196985 1.913249
  H 1.789708 0.341633 3.185040
  H 1.785847 1.964521 2.475056
  H 2.529785 -0.689210 -1.557580
  H 5.191160 -0.060180 -0.128226
 19
 -0.608110
  C 1.008433 0.079337 0.389214
  C 2.472653 0.100330 0.408135
  C 3.219146 0.616310 1.566937
  C 2.408652 1.153610 2.732233
  H 3.080042 1.536866 3.495493
  C 3.140686 -0.356399 -0.730410
  C 4.536856 -0.426656 -0.910070
  C 5.080540 -0.867250 -2.073573
  H 4.464423 -1.186364 -2.894772
  H 6.146964 -0.912692 -2.214604
  H 0.568846 0.129907 1.378941
  H 0.629266 -0.783385 -0.157329
  H 0.655695 0.953991 -0.165819
  H 3.903668 1.400212 1.216622
  H 3.885581 -0.177733 1.925506
  H 1.801530 0.376770 3.189630
  H 1.755684 1.964687 2.420388
  H 2.530018 -0.687306 -1.561018
  H 5.192249 -0.124311 -0.106819
 19
 -0.722359
  C 1.009063 0.084333 0.391192
  C 2.472624 0.073231 0.410977
  C 3.214531 0.582430 1.576124
  C 2.398029 1.181584 2.706952
  H 3.063836 1.536860 3.488420
  C 3.144494 -0.417537 -0.709778
  C 4.534197 -0.362059 -0.942248
  C 5.086086 -0.883552 -2.067158
  H 4.478273 -1.326210 -2.838365
  H 6.150053 -0.871591 -2.228996
  H 0.578067 0.032074 1.386896
  H 0.602781 -0.692898 -0.251594
  H 0.676576 1.039853 -0.029273
  H 3.939701 1.327499 1.227359
  H 3.837597 -0.232185 1.968911
  H 1.730447 0.448270 3.155101
  H 1.800646 2.021781 2.360570
  H 2.545161 -0.855888 -1.497655
  H 5.178435 0.099643 -0.208880
 19
 -1.334078
  C 1.013596 0.075296 0.403225
  C 2.474325 0.082734 0.394966
  C 3.209540 0.628480 1.547810
  C 2.375944 1.203881 2.679589
  H 3.029249 1.603258 3.450025
  C 3.147591 -0.412230 -0.723302
  C 4.543207 -0.413444 -0.922426
  C 5.097370 -0.927443 -2.050268
  H 4.488875 -1.330321 -2.839517
  H 6.162012 -0.923512 -2.206164
  H 0.620443 -0.207570 1.380179
  H 0.592940 -0.558383 -0.372247
  H 0.654729 1.095919 0.240621
  H 3.900666 1.397712 1.186755
  H 3.867426 -0.156775 1.943079
  H 1.745850 0.444076 3.141925
  H 1.732087 2.008184 2.328577
  H 2.548250 -0.833227 -1.520934
  H 5.189404 0.006060 -0.164127
 19
 -1.476520
  C 1.008475 0.105329 0.386512
  C 2.470763 0.105490 0.379170
  C 3.201772 0.651424 1.535634
  C 2.362914 1.201808 2.673528
  H 3.009972 1.586453 3.455174
  C 3.148302 -0.426849 -0.716074
  C 4.542070 -0.390342 -0.933378
  C 5.105722 -0.967744 -2.023327
  H 4.505849 -1.462278 -2.771052
  H 6.170023 -0.938654 -2.189207
  H 0.641479 -0.433569 1.262990
  H 0.580116 -0.337433 -0.507776
  H 0.634132 1.124429 0.506495
  H 3.880780 1.433752 1.177391
  H 3.873254 -0.126481 1.922602
  H 1.731449 0.430540 3.112261
  H 1.719370 2.010041 2.339107
  H 2.553188 -0.912387 -1.478281
  H 5.174594 0.114121 -0.219696
 19
 -1.264187
  C 1.004118 0.119792 0.365813
  C 2.465156 0.137162 0.369413
  C 3.193239 0.681980 1.528693
  C 2.349913 1.217928 2.672121
  H 2.995054 1.592959 3.457480
  C 3.145791 -0.415250 -0.716246
  C 4.540568 -0.404121 -0.919449
  C 5.106541 -1.015942 -1.991178
  H 4.506984 -1.525009 -2.728633
  H 6.171321 -1.004251 -2.148318
  H 0.660219 -0.643401 1.070483
  H 0.590165 -0.119610 -0.609887
  H 0.593794 1.058563 0.733823
  H 3.873345 1.467067 1.177635
  H 3.862631 -0.099633 1.911621
  H 1.718351 0.438804 3.098702
  H 1.707254 2.034376 2.348578
  H 2.547115 -0.907446 -1.474811
  H 5.176703 0.106443 -0.208403
 19
 -0.573849
  C 0.998985 0.114501 0.350100
  C 2.462316 0.141382 0.382744
  C 3.187860 0.673064 1.547436
  C 2.351246 1.237577 2.681101
  H 3.003664 1.620175 3.461074
  C 3.142856 -0.427301 -0.695436
  C 4.536595 -0.388778 -0.930713
  C 5.102024 -1.022766 -2.003335
  H 4.502128 -1.569269 -2.713634
  H 6.165177 -1.002082 -2.172597
  H 0.676538 -0.806238 0.847180
  H 0.612351 0.067354 -0.665062
  H 0.550788 0.939696 0.894571
  H 3.894982 1.436511 1.198725
  H 3.831357 -0.124818 1.939819
  H 1.714843 0.473739 3.121514
  H 1.720008 2.056585 2.343836
  H 2.532019 -0.953113 -1.418867
  H 5.170161 0.165800 -0.252029
