 19
 0.000000
  C 0.997327 0.127453 0.369157
  C 2.464094 0.141201 0.402426
  C 3.219265 0.613654 1.576516
  C 2.423029 1.095391 2.778098
  H 3.105885 1.410405 3.561999
  C 3.131062 -0.317056 -0.737611
  C 4.525842 -0.389283 -0.918306
  C 5.066422 -0.853015 -2.073206
  H 4.446059 -1.182274 -2.892581
  H 6.132434 -0.908931 -2.212886
  H 0.539408 0.493694 1.279880
  H 0.641301 -0.885387 0.165247
  H 0.641024 0.717085 -0.479086
  H 3.892990 1.415545 1.249077
  H 3.894595 -0.190642 1.894330
  H 1.794677 0.304844 3.183123
  H 1.793562 1.945952 2.524640
  H 2.521713 -0.650878 -1.567867
  H 5.183433 -0.069945 -0.123253
 19
 10.866788
  C 0.996112 0.132159 0.380850
  C 2.460095 0.148626 0.420908
  C 3.206935 0.622473 1.598419
  C 2.401350 1.102172 2.795013
  H 3.078554 1.419003 3.583435
  C 3.133488 -0.309614 -0.719047
  C 4.510883 -0.376953 -0.887543
  C 5.114544 -0.895192 -2.178237
  H 4.491321 -1.221475 -2.990206
  H 6.177957 -0.948429 -2.311165
  H 0.533680 0.497431 1.289130
  H 0.643296 -0.881217 0.175462
  H 0.643025 0.721136 -0.468854
  H 3.880023 1.426520 1.275298
  H 3.881721 -0.180356 1.920838
  H 1.773026 0.310300 3.195873
  H 1.771904 1.950772 2.537663
  H 2.527721 -0.644502 -1.551966
  H 5.172818 -0.060582 -0.099860
 19
 32.658696
  C 1.007212 0.133853 0.385021
  C 2.463153 0.154819 0.436192
  C 3.197154 0.628050 1.612078
  C 2.379404 1.104600 2.801167
  H 3.050539 1.423389 3.594341
  C 3.137905 -0.299772 -0.694699
  C 4.492748 -0.356414 -0.836289
  C 5.141737 -0.931978 -2.269815
  H 4.488182 -1.245249 -3.049411
  H 6.199867 -0.977392 -2.382807
  H 0.536353 0.497036 1.288173
  H 0.660871 -0.880322 0.175942
  H 0.660520 0.720800 -0.467924
  H 3.866984 1.435808 1.293415
  H 3.868947 -0.174219 1.940205
  H 1.752974 0.310976 3.197937
  H 1.751806 1.951451 2.539766
  H 2.532967 -0.633744 -1.525558
  H 5.194248 -0.055709 -0.087279
 19
 56.519810
  C 1.004687 0.136034 0.390536
  C 2.458616 0.162481 0.455355
  C 3.182394 0.638565 1.638418
  C 2.353603 1.114358 2.825509
  H 3.018457 1.434582 3.622111
  C 3.151744 -0.295932 -0.685115
  C 4.488770 -0.342851 -0.802206
  C 5.180966 -0.975907 -2.379207
  H 4.484085 -1.280018 -3.136566
  H 6.248088 -1.012081 -2.469055
  H 0.522302 0.498194 1.291166
  H 0.664603 -0.880635 0.177641
  H 0.664258 0.722132 -0.466842
  H 3.852414 1.447168 1.326269
  H 3.854511 -0.159620 1.971798
  H 1.725875 0.317572 3.219103
  H 1.724431 1.961481 2.559468
  H 2.549360 -0.630703 -1.518274
  H 5.239297 -0.057101 -0.090061
 19
 80.018731
  C 0.995956 0.139896 0.400156
  C 2.451504 0.170391 0.474957
  C 3.168229 0.648134 1.662055
  C 2.331956 1.121185 2.842438
  H 2.992073 1.443190 3.643361
  C 3.154222 -0.288103 -0.665696
  C 4.489481 -0.329889 -0.769794
  C 5.230186 -1.019663 -2.488090
  H 4.521123 -1.313697 -3.220760
  H 6.288960 -1.050698 -2.564924
  H 0.507069 0.499996 1.295656
  H 0.660308 -0.877243 0.184670
  H 0.659889 0.724484 -0.459469
  H 3.838175 1.459798 1.353454
  H 3.840388 -0.149780 2.000122
  H 1.705391 0.324125 3.231699
  H 1.704083 1.965217 2.573151
  H 2.553883 -0.623376 -1.500184
  H 5.259196 -0.055711 -0.086268
 19
 101.258753
  C 0.995300 0.143116 0.408145
  C 2.446289 0.178061 0.493861
  C 3.153788 0.656487 1.682734
  C 2.308092 1.127622 2.858702
  H 2.962555 1.451086 3.663325
  C 3.158196 -0.278971 -0.643272
  C 4.484788 -0.315278 -0.733651
  C 5.271894 -1.062268 -2.593859
  H 4.537340 -1.351841 -3.315613
  H 6.338289 -1.088740 -2.659074
  H 0.497985 0.502167 1.301159
  H 0.664701 -0.875439 0.189591
  H 0.664195 0.726580 -0.454634
  H 3.822919 1.469416 1.377855
  H 3.825207 -0.139710 2.024237
  H 1.680739 0.327819 3.244822
  H 1.679200 1.971583 2.585336
  H 2.561174 -0.614966 -1.479534
  H 5.281694 -0.049649 -0.071341
 19
 119.699484
  C 0.987465 0.146753 0.417142
  C 2.438537 0.186288 0.514164
  C 3.138307 0.666437 1.707377
  C 2.284553 1.135215 2.877763
  H 2.933511 1.460181 3.686168
  C 3.162753 -0.270555 -0.622574
  C 4.487748 -0.303046 -0.703503
  C 5.320633 -1.107349 -2.705762
  H 4.577440 -1.389338 -3.408632
  H 6.380412 -1.130861 -2.763531
  H 0.482718 0.503950 1.305603
  H 0.661488 -0.872677 0.195695
  H 0.660917 0.728820 -0.448338
  H 3.807455 1.481198 1.406164
  H 3.809819 -0.128543 2.052709
  H 1.657733 0.334608 3.259857
  H 1.656199 1.976869 2.601057
  H 2.569164 -0.607682 -1.461594
  H 5.299038 -0.046753 -0.064557
 19
 135.146595
  C 0.984077 0.149643 0.424522
  C 2.432414 0.193973 0.533879
  C 3.122930 0.675447 1.730088
  C 2.259790 1.142232 2.894716
  H 2.902741 1.469006 3.707456
  C 3.168200 -0.261222 -0.598313
  C 4.486768 -0.289967 -0.669712
  C 5.363632 -1.150840 -2.814972
  H 4.601869 -1.429351 -3.509898
  H 6.429443 -1.171966 -2.866815
  H 0.470724 0.505629 1.309456
  H 0.663072 -0.870947 0.200138
  H 0.662703 0.730319 -0.444077
  H 3.792126 1.491525 1.432663
  H 3.794322 -0.117887 2.079355
  H 1.632234 0.339427 3.273114
  H 1.630875 1.983016 2.613468
  H 2.578906 -0.599310 -1.440056
  H 5.318566 -0.041178 -0.049260
 19
 147.609410
  C 0.976842 0.152941 0.432527
  C 2.424760 0.202354 0.554206
  C 3.106760 0.685693 1.755330
  C 2.234297 1.149726 2.913912
  H 2.870638 1.478111 3.730911
  C 3.174157 -0.251767 -0.575669
  C 4.491678 -0.277885 -0.640721
  C 5.411105 -1.196930 -2.928833
  H 4.643981 -1.470327 -3.610683
  H 6.472113 -1.217425 -2.978991
  H 0.455684 0.507036 1.313084
  H 0.660639 -0.868597 0.205334
  H 0.660110 0.732411 -0.438659
  H 3.776013 1.503457 1.462159
  H 3.778367 -0.105908 2.108556
  H 1.606922 0.345460 3.287729
  H 1.605416 1.988326 2.628692
  H 2.588953 -0.591345 -1.420910
  H 5.335001 -0.036850 -0.039868
 19
 157.346077
  C 0.972124 0.155616 0.439088
  C 2.418178 0.210339 0.573734
  C 3.090666 0.695183 1.778782
  C 2.208245 1.156363 2.930878
  H 2.837772 1.486604 3.752673
  C 3.180332 -0.241350 -0.550374
  C 4.492995 -0.264834 -0.609008
  C 5.454576 -1.241950 -3.040086
  H 4.675809 -1.513845 -3.718234
  H 6.520380 -1.262549 -3.090584
  H 0.442479 0.508062 1.315756
  H 0.661013 -0.867012 0.209140
  H 0.660358 0.733975 -0.434793
  H 3.759958 1.514612 1.489989
  H 3.762444 -0.094549 2.136105
  H 1.580447 0.349761 3.300129
  H 1.578741 1.993501 2.640977
  H 2.600172 -0.582255 -1.398880
  H 5.351726 -0.029949 -0.023557
 19
 164.221155
  C 0.965250 0.160530 0.451366
  C 2.407923 0.219146 0.595682
  C 3.070601 0.705373 1.804020
  C 2.179430 1.164265 2.950579
  H 2.802533 1.496165 3.776458
  C 3.183577 -0.231632 -0.526145
  C 4.498868 -0.255560 -0.585786
  C 5.507891 -1.289511 -3.158179
  H 4.735807 -1.563529 -3.842289
  H 6.573071 -1.315422 -3.222069
  H 0.428725 0.511619 1.324514
  H 0.658434 -0.862689 0.218982
  H 0.657761 0.737493 -0.424770
  H 3.740201 1.525698 1.518930
  H 3.742830 -0.082379 2.164614
  H 1.551554 0.356340 3.315676
  H 1.549774 1.999387 2.656812
  H 2.608220 -0.574298 -1.379238
  H 5.358505 -0.022967 -0.005758
 19
 167.993108
  C 0.955226 0.165671 0.464445
  C 2.395803 0.227281 0.616585
  C 3.049898 0.714890 1.827739
  C 2.152929 1.172496 2.970395
  H 2.771681 1.505715 3.799207
  C 3.181296 -0.221678 -0.500110
  C 4.497975 -0.247775 -0.564592
  C 5.566365 -1.335945 -3.274652
  H 4.809614 -1.619962 -3.985247
  H 6.637543 -1.371704 -3.363111
  H 0.411855 0.515783 1.334446
  H 0.652150 -0.858344 0.229177
  H 0.651665 0.740867 -0.414615
  H 3.720597 1.535400 1.544961
  H 3.723204 -0.071234 2.190417
  H 1.524569 0.363452 3.333069
  H 1.522831 2.006706 2.673773
  H 2.611838 -0.565762 -1.357212
  H 5.353608 -0.011367 0.025736
 19
 169.161262
  C 0.945211 0.171073 0.477955
  C 2.382972 0.235421 0.637175
  C 3.028310 0.724371 1.851161
  C 2.125591 1.180401 2.989642
  H 2.739765 1.514791 3.821147
  C 3.177781 -0.212199 -0.475699
  C 4.496994 -0.240522 -0.545163
  C 5.627951 -1.382666 -3.391710
  H 4.898640 -1.677885 -4.131584
  H 6.699622 -1.431182 -3.511791
  H 0.395358 0.519961 1.344341
  H 0.646012 -0.853431 0.239485
  H 0.645662 0.744109 -0.403989
  H 3.699870 1.545121 1.570802
  H 3.702571 -0.060104 2.215916
  H 1.497135 0.370459 3.349731
  H 1.495356 2.013385 2.690395
  H 2.613666 -0.557942 -1.337249
  H 5.343443 -0.000191 0.055745
 19
 168.811437
  C 0.933973 0.174944 0.487517
  C 2.370519 0.242261 0.654463
  C 3.008221 0.732553 1.871372
  C 2.100423 1.187124 3.005973
  H 2.710682 1.522610 3.840056
  C 3.173010 -0.203306 -0.452776
  C 4.491471 -0.232641 -0.524271
  C 5.689800 -1.428068 -3.505632
  H 4.988801 -1.735361 -4.276883
  H 6.763030 -1.489159 -3.656900
  H 0.377460 0.522611 1.350289
  H 0.638512 -0.850271 0.245721
  H 0.638345 0.745938 -0.397544
  H 3.680875 1.553609 1.593364
  H 3.683620 -0.050385 2.238184
  H 1.471716 0.376157 3.363759
  H 1.469922 2.019213 2.704231
  H 2.614953 -0.550487 -1.318009
  H 5.330804 0.012347 0.088938
 19
 157.707548
  C 1.048076 0.108462 0.325938
  C 2.474593 0.203662 0.587789
  C 3.046496 0.720406 1.835036
  C 2.065400 1.164998 2.917998
  H 2.620397 1.521813 3.781980
  C 3.365526 -0.224522 -0.455335
  C 4.666185 -0.236900 -0.450633
  C 5.208177 -1.191871 -2.926031
  H 4.518844 -1.455350 -3.727714
  H 6.230102 -1.310364 -3.284233
  H 0.437828 0.458961 1.152586
  H 0.778886 -0.925229 0.083240
  H 0.794299 0.667323 -0.580673
  H 3.718650 1.551956 1.582833
  H 3.723985 -0.042537 2.241553
  H 1.436462 0.342618 3.247240
  H 1.433439 1.978897 2.573565
  H 2.864146 -0.612067 -1.342647
  H 5.704644 -0.170569 -0.250641
