 22
 0.000000
  C 0.979642 0.161614 0.453217
  C 2.449865 0.135901 0.389415
  C 3.236039 0.599637 1.543745
  H 2.608124 0.928852 2.363737
  C 3.039622 -0.333741 -0.779775
  C 4.422187 -0.418845 -0.992487
  C 5.088223 -0.866568 -2.109076
  C 4.630635 -1.385833 -3.403571
  C 3.150459 -1.514001 -3.722697
  H 3.035627 -1.916118 -4.725384
  H 6.169658 -0.841943 -2.048259
  H 0.610899 0.542197 1.400222
  H 0.578321 -0.840537 0.293147
  H 0.578311 0.774418 -0.355747
  H 3.891873 1.420705 1.249773
  H 3.892050 -0.196487 1.899375
  H 2.370598 -0.648271 -1.562697
  H 5.049802 -0.090318 -0.174335
  H 5.110942 -2.366399 -3.526029
  H 5.110910 -0.761685 -4.169790
  H 2.656828 -0.545742 -3.694213
  H 2.657064 -2.194439 -3.033031
 22
 4.938130
  C 0.993826 0.147175 0.416355
  C 2.453313 0.145540 0.412957
  C 3.197679 0.613749 1.580049
  H 2.536645 0.934211 2.379033
  C 3.099949 -0.305484 -0.710734
  C 4.459829 -0.409815 -0.971035
  C 5.087120 -0.872315 -2.124276
  C 4.590146 -1.386713 -3.405848
  C 3.100601 -1.507364 -3.705004
  H 2.975078 -1.909941 -4.708168
  H 6.171199 -0.857593 -2.088328
  H 0.581721 0.521151 1.347637
  H 0.617026 -0.861156 0.232151
  H 0.617269 0.748338 -0.413940
  H 3.853825 1.441791 1.305911
  H 3.853926 -0.174164 1.954066
  H 2.647144 -0.661322 -1.597283
  H 5.140991 -0.092350 -0.179949
  H 5.065100 -2.370223 -3.541630
  H 5.064588 -0.769835 -4.183976
  H 2.607141 -0.538471 -3.679139
  H 2.607842 -2.190081 -3.016438
 22
 14.995462
  C 0.982815 0.127550 0.365639
  C 2.463337 0.148623 0.420072
  C 3.174375 0.632854 1.630152
  H 2.487347 0.945208 2.410474
  C 3.172660 -0.295069 -0.686576
  C 4.519976 -0.410153 -0.974090
  C 5.088799 -0.871391 -2.123771
  C 4.548100 -1.385645 -3.403026
  C 3.051398 -1.498218 -3.680082
  H 2.914337 -1.900431 -4.680838
  H 6.173185 -0.869055 -2.119433
  H 0.526782 0.494691 1.280825
  H 0.628049 -0.887489 0.163351
  H 0.628761 0.722072 -0.481933
  H 3.831880 1.468246 1.375779
  H 3.831819 -0.147484 2.022273
  H 2.905396 -0.670989 -1.623979
  H 5.248007 -0.106065 -0.216292
  H 5.015599 -2.373594 -3.550393
  H 5.014482 -0.773840 -4.193376
  H 2.559939 -0.528968 -3.653439
  H 2.561360 -2.180344 -2.989992
 22
 28.227837
  C 0.999193 0.115974 0.338160
  C 2.461246 0.150815 0.426118
  C 3.137015 0.637205 1.639405
  H 2.434158 0.943522 2.404216
  C 3.197244 -0.281718 -0.651758
  C 4.549044 -0.408735 -0.968700
  C 5.090911 -0.878609 -2.140348
  C 4.523185 -1.385563 -3.402868
  C 3.024652 -1.487374 -3.654608
  H 2.871135 -1.887980 -4.652451
  H 6.174572 -0.886141 -2.160249
  H 0.521318 0.478368 1.240407
  H 0.661379 -0.900408 0.128489
  H 0.661682 0.705197 -0.516282
  H 3.792317 1.474469 1.395362
  H 3.792853 -0.136441 2.040910
  H 3.091773 -0.670675 -1.621316
  H 5.311292 -0.116246 -0.239984
  H 4.980329 -2.374921 -3.557220
  H 4.979700 -0.777239 -4.198784
  H 2.538073 -0.516129 -3.620212
  H 2.538964 -2.165785 -2.958122
 22
 42.915277
  C 1.000944 0.104658 0.310498
  C 2.457580 0.147912 0.418823
  C 3.112463 0.637486 1.639599
  H 2.400399 0.939139 2.393027
  C 3.212005 -0.279436 -0.646066
  C 4.575455 -0.411754 -0.975888
  C 5.106001 -0.881522 -2.147121
  C 4.509674 -1.386723 -3.405539
  C 3.003168 -1.471652 -3.616011
  H 2.818542 -1.869326 -4.606741
  H 6.186849 -0.893797 -2.178477
  H 0.509648 0.463591 1.204396
  H 0.672925 -0.913414 0.096033
  H 0.672818 0.691621 -0.548560
  H 3.766971 1.477132 1.402815
  H 3.767968 -0.132496 2.048075
  H 3.247729 -0.669027 -1.617148
  H 5.354711 -0.128442 -0.269822
  H 4.953062 -2.380632 -3.571838
  H 4.952661 -0.783469 -4.213075
  H 2.528679 -0.498063 -3.567989
  H 2.529128 -2.142178 -2.908206
 22
 55.738679
  C 0.976715 0.110068 0.323572
  C 2.444800 0.148208 0.419241
  C 3.115177 0.639372 1.644358
  H 2.407069 0.944876 2.407996
  C 3.184375 -0.281433 -0.651624
  C 4.556686 -0.420156 -0.996578
  C 5.105759 -0.891461 -2.171848
  C 4.521190 -1.391426 -3.417417
  C 3.018978 -1.472709 -3.617978
  H 2.825179 -1.871036 -4.610652
  H 6.189233 -0.901671 -2.197870
  H 0.492587 0.471377 1.223685
  H 0.642311 -0.908240 0.111248
  H 0.642201 0.698891 -0.533929
  H 3.771907 1.478273 1.402162
  H 3.773122 -0.133774 2.048068
  H 3.326272 -0.670071 -1.620727
  H 5.338571 -0.133442 -0.280862
  H 4.961487 -2.382808 -3.582411
  H 4.960757 -0.788617 -4.222148
  H 2.546474 -0.492380 -3.564144
  H 2.547443 -2.144474 -2.901452
 22
 65.025415
  C 0.951166 0.103951 0.326452
  C 2.451133 0.129297 0.372144
  C 3.118254 0.634547 1.610497
  H 2.390792 0.929347 2.350409
  C 3.167540 -0.282874 -0.653783
  C 4.549809 -0.450257 -1.053965
  C 5.148580 -0.897458 -2.173212
  C 4.557023 -1.404414 -3.450213
  C 3.034044 -1.445634 -3.566396
  H 2.769056 -1.835786 -4.547883
  H 6.231691 -0.903160 -2.178695
  H 0.519020 0.474146 1.243260
  H 0.598022 -0.903673 0.150898
  H 0.592589 0.702681 -0.500080
  H 3.750952 1.481046 1.375429
  H 3.759031 -0.132569 2.026360
  H 3.370709 -0.683637 -1.653611
  H 5.292553 -0.148890 -0.284528
  H 4.969164 -2.404512 -3.620666
  H 4.974332 -0.797303 -4.259934
  H 2.589728 -0.453514 -3.492577
  H 2.584514 -2.113123 -2.831486
 22
 68.148012
  C 0.934841 0.101206 0.341304
  C 2.441541 0.130895 0.378939
  C 3.110666 0.652635 1.629141
  H 2.370760 0.945687 2.362310
  C 3.161189 -0.277889 -0.634349
  C 4.538292 -0.481795 -1.111620
  C 5.172974 -0.918943 -2.210738
  C 4.581896 -1.418280 -3.485643
  C 3.060596 -1.432214 -3.554066
  H 2.756858 -1.809279 -4.514673
  H 6.249148 -0.922730 -2.200357
  H 0.514168 0.476434 1.263544
  H 0.584071 -0.917000 0.179896
  H 0.570372 0.706537 -0.487580
  H 3.736618 1.515576 1.384509
  H 3.754116 -0.123281 2.055199
  H 3.386501 -0.685407 -1.648122
  H 5.228663 -0.174614 -0.307099
  H 4.970761 -2.423621 -3.655319
  H 4.983993 -0.804707 -4.292846
  H 2.642950 -0.444142 -3.475219
  H 2.628886 -2.093813 -2.823698
 22
 72.723290
  C 0.946409 0.095923 0.347593
  C 2.440328 0.137570 0.398315
  C 3.095506 0.672266 1.651362
  H 2.345796 0.962792 2.374963
  C 3.159419 -0.272429 -0.610546
  C 4.552684 -0.496951 -1.126151
  C 5.182988 -0.930861 -2.223614
  C 4.589608 -1.424131 -3.502858
  C 3.051013 -1.432852 -3.577550
  H 2.742869 -1.813561 -4.560822
  H 6.264884 -0.936969 -2.207325
  H 0.522000 0.473689 1.266843
  H 0.602545 -0.924875 0.193934
  H 0.581018 0.697119 -0.482690
  H 3.710031 1.539456 1.412265
  H 3.735307 -0.092073 2.092195
  H 3.430363 -0.680892 -1.618664
  H 5.221855 -0.194922 -0.314374
  H 4.975406 -2.432278 -3.673558
  H 4.996109 -0.806635 -4.307453
  H 2.630182 -0.420586 -3.487692
  H 2.607997 -2.105535 -2.828985
 22
 76.823300
  C 0.926598 0.096114 0.374656
  C 2.429785 0.140949 0.411464
  C 3.093162 0.687950 1.654010
  H 2.350456 0.982205 2.380313
  C 3.137621 -0.275503 -0.601816
  C 4.550221 -0.513315 -1.135885
  C 5.181701 -0.944303 -2.236454
  C 4.592130 -1.427564 -3.517941
  C 3.071677 -1.428606 -3.596156
  H 2.766206 -1.799417 -4.573014
  H 6.261952 -0.953619 -2.213799
  H 0.509571 0.479124 1.292534
  H 0.583930 -0.924797 0.232859
  H 0.553229 0.689788 -0.454667
  H 3.703410 1.554387 1.402825
  H 3.738690 -0.070410 2.096130
  H 3.460585 -0.687932 -1.606022
  H 5.209197 -0.214318 -0.306985
  H 4.971790 -2.435288 -3.693235
  H 5.001328 -0.809204 -4.318131
  H 2.661703 -0.423585 -3.497913
  H 2.629335 -2.093793 -2.854557
 22
 80.512291
  C 0.913773 0.092470 0.402572
  C 2.416167 0.140371 0.415156
  C 3.096487 0.704262 1.640655
  H 2.355132 1.008958 2.383247
  C 3.106873 -0.287052 -0.605731
  C 4.541139 -0.532478 -1.135388
  C 5.186030 -0.957024 -2.236166
  C 4.607273 -1.425878 -3.523163
  C 3.078520 -1.417083 -3.609724
  H 2.775171 -1.775748 -4.586383
  H 6.270431 -0.969542 -2.201524
  H 0.507399 0.487348 1.327564
  H 0.571564 -0.931425 0.277220
  H 0.526675 0.676303 -0.428831
  H 3.702897 1.571881 1.368179
  H 3.752897 -0.049867 2.082528
  H 3.488655 -0.703824 -1.598728
  H 5.179773 -0.244340 -0.299384
  H 4.987317 -2.444323 -3.706156
  H 5.030136 -0.796481 -4.322727
  H 2.674427 -0.411604 -3.502250
  H 2.628332 -2.083693 -2.874945
 22
 83.834238
  C 0.902531 0.058501 0.443331
  C 2.406215 0.134801 0.425820
  C 3.105790 0.773643 1.622926
  H 2.383151 1.094768 2.358041
  C 3.078247 -0.328619 -0.594695
  C 4.524712 -0.592783 -1.115440
  C 5.180896 -0.998933 -2.212662
  C 4.612128 -1.422862 -3.534425
  C 3.098885 -1.377548 -3.650541
  H 2.800429 -1.704547 -4.651270
  H 6.263283 -1.033994 -2.152853
  H 0.515843 0.485696 1.353610
  H 0.574364 -0.984740 0.370447
  H 0.484720 0.602562 -0.411574
  H 3.690371 1.649396 1.298748
  H 3.787732 0.045217 2.092498
  H 3.494153 -0.733503 -1.593063
  H 5.156427 -0.341157 -0.248289
  H 4.968859 -2.439157 -3.737419
  H 5.059247 -0.783281 -4.303353
  H 2.717943 -0.361580 -3.520146
  H 2.622069 -2.056744 -2.939811
 22
 85.683632
  C 0.892516 0.065730 0.475859
  C 2.392715 0.140889 0.431669
  C 3.110188 0.784623 1.606506
  H 2.398498 1.110536 2.352329
  C 3.049531 -0.328889 -0.596146
  C 4.507501 -0.606030 -1.121167
  C 5.180695 -1.004170 -2.219090
  C 4.629809 -1.416220 -3.536496
  C 3.116728 -1.366813 -3.658845
  H 2.826827 -1.683973 -4.654973
  H 6.265182 -1.038106 -2.150412
  H 0.517854 0.494930 1.383490
  H 0.564941 -0.973496 0.414380
  H 0.463680 0.602203 -0.372169
  H 3.690210 1.654307 1.266358
  H 3.800097 0.061317 2.065237
  H 3.505617 -0.765119 -1.591028
  H 5.124938 -0.360678 -0.248243
  H 4.989360 -2.434070 -3.745150
  H 5.085954 -0.770708 -4.300173
  H 2.737461 -0.355577 -3.523125
  H 2.635036 -2.045668 -2.958141
 22
 88.330991
  C 0.886517 0.056502 0.528593
  C 2.381316 0.139781 0.434932
  C 3.124931 0.821551 1.567604
  H 2.431645 1.159333 2.325655
  C 3.008458 -0.346903 -0.598215
  C 4.483345 -0.646029 -1.109739
  C 5.179768 -1.024143 -2.198143
  C 4.653572 -1.405614 -3.538096
  C 3.140563 -1.337028 -3.691774
  H 2.866842 -1.630860 -4.704554
  H 6.255601 -1.067200 -2.106733
  H 0.534186 0.508878 1.443531
  H 0.563946 -0.987512 0.503063
  H 0.426361 0.570406 -0.320026
  H 3.678616 1.674747 1.193884
  H 3.826170 0.128224 2.016133
  H 3.512257 -0.815910 -1.584292
  H 5.083703 -0.427466 -0.223951
  H 5.005581 -2.414003 -3.760700
  H 5.129224 -0.755645 -4.272651
  H 2.770465 -0.328785 -3.540484
  H 2.636647 -2.022939 -3.015558
