 20
 0.000000
  C 0.976820 0.180293 0.491038
  C 2.429141 0.115195 0.331158
  H 3.069269 0.436981 1.139116
  C 2.990454 -0.353685 -0.832779
  C 4.372310 -0.421927 -1.002579
  C 5.107785 -0.863293 -2.100857
  C 4.654315 -1.390767 -3.413426
  C 3.175168 -1.520593 -3.736576
  H 3.075944 -1.923678 -4.739693
  O 6.419994 -0.837002 -2.035811
  H 0.679346 0.569891 1.458418
  H 0.537543 -0.810966 0.354765
  H 0.539352 0.801839 -0.292911
  H 2.327860 -0.670105 -1.619170
  H 4.959782 -0.081233 -0.156462
  H 5.134114 -2.370152 -3.524991
  H 5.134215 -0.761152 -4.171731
  H 2.678441 -0.554682 -3.717126
  H 2.678423 -2.204484 -3.054164
  H 6.787017 -0.500637 -1.196016
 20
 3.431992
  C 0.987408 0.219066 0.501467
  C 2.405777 0.112347 0.320407
  H 3.061299 0.425378 1.125486
  C 2.971061 -0.359372 -0.841959
  C 4.351140 -0.428143 -1.001250
  C 5.095437 -0.865927 -2.092555
  C 4.652573 -1.391086 -3.410267
  C 3.175866 -1.520737 -3.743234
  H 3.085662 -1.921958 -4.749276
  O 6.407375 -0.839268 -2.017236
  H 0.674446 0.577837 1.475747
  H 0.741895 -0.805651 0.338706
  H 0.496018 0.801369 -0.280175
  H 2.313159 -0.674950 -1.632433
  H 4.932057 -0.088606 -0.150413
  H 5.134805 -2.369301 -3.520610
  H 5.138574 -0.759809 -4.163201
  H 2.678222 -0.555344 -3.728573
  H 2.674692 -2.209098 -3.068882
  H 6.768415 -0.504705 -1.174955
 20
 8.565739
  C 0.973534 0.255378 0.494167
  C 2.400211 0.128050 0.313525
  H 3.068912 0.440142 1.110263
  C 2.970468 -0.361309 -0.852327
  C 4.350342 -0.443372 -1.002210
  C 5.089787 -0.875142 -2.084201
  C 4.647773 -1.385513 -3.404800
  C 3.169794 -1.500538 -3.737291
  H 3.076914 -1.892148 -4.748528
  O 6.402380 -0.861249 -2.004808
  H 0.648676 0.641534 1.457082
  H 0.949481 -0.832345 0.404174
  H 0.411672 0.690534 -0.341178
  H 2.316491 -0.672982 -1.650501
  H 4.930291 -0.113207 -0.147887
  H 5.122844 -2.365705 -3.521910
  H 5.138928 -0.751053 -4.150824
  H 2.679921 -0.531202 -3.716387
  H 2.664144 -2.194072 -3.071313
  H 6.763423 -0.534090 -1.154816
 20
 14.992286
  C 0.960735 0.282141 0.493197
  C 2.389984 0.127397 0.311827
  H 3.060309 0.436532 1.109027
  C 2.962857 -0.362562 -0.852503
  C 4.340087 -0.449889 -0.995273
  C 5.086013 -0.880965 -2.079393
  C 4.646166 -1.385040 -3.410577
  C 3.167066 -1.492958 -3.747904
  H 3.075261 -1.878271 -4.761985
  O 6.422629 -0.874384 -1.995865
  H 0.626517 0.693620 1.438715
  H 1.104892 -0.814175 0.468860
  H 0.361064 0.606478 -0.363497
  H 2.312741 -0.668316 -1.655872
  H 4.917093 -0.125924 -0.136908
  H 5.117688 -2.366608 -3.531292
  H 5.141266 -0.747624 -4.151587
  H 2.681091 -0.521838 -3.722865
  H 2.657661 -2.189096 -3.087582
  H 6.783536 -0.550390 -1.136329
 20
 20.288430
  C 0.957704 0.310943 0.497287
  C 2.374024 0.121599 0.312554
  H 3.047348 0.430281 1.112693
  C 2.952361 -0.367939 -0.855456
  C 4.332969 -0.458852 -0.993047
  C 5.082857 -0.885694 -2.075587
  C 4.653227 -1.382733 -3.415009
  C 3.175257 -1.487401 -3.762172
  H 3.089415 -1.866530 -4.779193
  O 6.412897 -0.883394 -1.986961
  H 0.621245 0.752883 1.412674
  H 1.231242 -0.788477 0.552256
  H 0.327896 0.524109 -0.365862
  H 2.305064 -0.666593 -1.661049
  H 4.907540 -0.140679 -0.130740
  H 5.124574 -2.364759 -3.537445
  H 5.153163 -0.740107 -4.149097
  H 2.690581 -0.516312 -3.734367
  H 2.661735 -2.186845 -3.109293
  H 6.758373 -0.569640 -1.138665
 20
 24.055639
  C 0.954733 0.336432 0.505158
  C 2.360089 0.116065 0.314162
  H 3.032676 0.421800 1.112217
  C 2.935521 -0.370602 -0.856238
  C 4.326300 -0.467370 -0.994797
  C 5.079256 -0.891785 -2.078206
  C 4.661705 -1.383138 -3.423411
  C 3.188937 -1.487716 -3.784458
  H 3.113109 -1.861995 -4.803032
  O 6.400114 -0.891639 -1.982798
  H 0.621072 0.804696 1.406102
  H 1.331585 -0.757395 0.626633
  H 0.304456 0.459276 -0.346786
  H 2.286010 -0.658858 -1.659975
  H 4.902658 -0.153854 -0.129032
  H 5.134036 -2.364176 -3.545043
  H 5.166412 -0.736171 -4.149456
  H 2.703536 -0.517323 -3.756569
  H 2.670710 -2.190269 -3.139489
  H 6.741450 -0.576620 -1.120271
 20
 26.331299
  C 0.958387 0.355272 0.505732
  C 2.354840 0.107379 0.319350
  H 3.026648 0.412562 1.121983
  C 2.935919 -0.376345 -0.860805
  C 4.317690 -0.474349 -0.994150
  C 5.074372 -0.893525 -2.073674
  C 4.665241 -1.381392 -3.428141
  C 3.192946 -1.486207 -3.799666
  H 3.123646 -1.857401 -4.821853
  O 6.400028 -0.894031 -1.971231
  H 0.628887 0.843651 1.386466
  H 1.414842 -0.725322 0.693421
  H 0.283619 0.399590 -0.353008
  H 2.287434 -0.656927 -1.665524
  H 4.891069 -0.165380 -0.124717
  H 5.139022 -2.361545 -3.550754
  H 5.173511 -0.730910 -4.148578
  H 2.706791 -0.516305 -3.771288
  H 2.671166 -2.191849 -3.159994
  H 6.735406 -0.580659 -1.103511
 20
 27.724211
  C 0.943554 0.369881 0.489093
  C 2.358004 0.098595 0.322004
  H 3.021008 0.407941 1.108383
  C 2.941951 -0.377499 -0.863806
  C 4.323934 -0.482184 -0.993073
  C 5.080953 -0.899001 -2.074014
  C 4.670689 -1.379399 -3.432145
  C 3.199773 -1.474932 -3.799430
  H 3.125614 -1.842041 -4.820894
  O 6.406233 -0.905437 -1.970243
  H 0.593397 0.900897 1.359436
  H 1.482677 -0.697696 0.766013
  H 0.272915 0.303229 -0.347313
  H 2.289548 -0.651041 -1.676671
  H 4.897905 -0.180432 -0.120400
  H 5.138621 -2.360481 -3.558431
  H 5.179288 -0.727380 -4.148639
  H 2.718582 -0.500295 -3.765951
  H 2.675768 -2.179982 -3.158792
  H 6.735848 -0.598828 -1.109713
 20
 29.889187
  C 0.947625 0.376497 0.469027
  C 2.350042 0.089500 0.323123
  H 3.019656 0.413540 1.118512
  C 2.940436 -0.384314 -0.866775
  C 4.316317 -0.488321 -0.991726
  C 5.082369 -0.904716 -2.082427
  C 4.676580 -1.374584 -3.425351
  C 3.205445 -1.467124 -3.785636
  H 3.126747 -1.828848 -4.802813
  O 6.405827 -0.912549 -1.984212
  H 0.588594 0.913460 1.336234
  H 1.535644 -0.685685 0.774920
  H 0.284023 0.269734 -0.355181
  H 2.289341 -0.653732 -1.681886
  H 4.885325 -0.190259 -0.120700
  H 5.145226 -2.358328 -3.555218
  H 5.184555 -0.717049 -4.141281
  H 2.725692 -0.492708 -3.746039
  H 2.683664 -2.173093 -3.144917
  H 6.738781 -0.607464 -1.121758
 20
 31.472940
  C 0.953725 0.398006 0.486503
  C 2.355510 0.087593 0.342858
  H 3.028691 0.417944 1.121616
  C 2.938622 -0.387265 -0.853642
  C 4.321811 -0.493097 -0.988614
  C 5.075500 -0.898746 -2.061434
  C 4.677881 -1.375527 -3.433547
  C 3.204848 -1.480206 -3.825056
  H 3.147845 -1.843321 -4.852581
  O 6.407122 -0.899140 -1.949137
  H 0.600268 0.927100 1.347844
  H 1.586230 -0.676502 0.802509
  H 0.271477 0.267705 -0.347994
  H 2.281936 -0.653679 -1.659691
  H 4.896532 -0.196136 -0.119025
  H 5.155181 -2.356536 -3.560663
  H 5.192043 -0.713076 -4.142700
  H 2.715981 -0.508265 -3.793680
  H 2.675826 -2.193794 -3.195116
  H 6.729509 -0.593954 -1.083156
 20
 32.908459
  C 0.952078 0.397172 0.434163
  C 2.354290 0.072412 0.331005
  H 3.013568 0.415876 1.113308
  C 2.961049 -0.397747 -0.861702
  C 4.339617 -0.496911 -0.978739
  C 5.102541 -0.904408 -2.069286
  C 4.679546 -1.368776 -3.423190
  C 3.193191 -1.456264 -3.763065
  H 3.096414 -1.812208 -4.785732
  O 6.428795 -0.908171 -1.976705
  H 0.574960 0.916392 1.288291
  H 1.620773 -0.690835 0.773857
  H 0.287861 0.242276 -0.409207
  H 2.313287 -0.668814 -1.685038
  H 4.908576 -0.199243 -0.104867
  H 5.147315 -2.354785 -3.569042
  H 5.180650 -0.706383 -4.144699
  H 2.713951 -0.476347 -3.708739
  H 2.676545 -2.169699 -3.115024
  H 6.764210 -0.605800 -1.112643
 20
 34.078508
  C 0.956214 0.418113 0.438278
  C 2.354718 0.067100 0.348694
  H 3.023513 0.424082 1.128793
  C 2.954598 -0.399932 -0.852772
  C 4.335830 -0.502189 -0.979061
  C 5.094312 -0.902758 -2.061550
  C 4.682674 -1.368496 -3.428522
  C 3.201352 -1.467853 -3.791497
  H 3.123396 -1.819256 -4.809418
  O 6.422155 -0.898614 -1.960886
  H 0.572624 0.936878 1.303598
  H 1.658743 -0.698268 0.790092
  H 0.296987 0.247749 -0.391607
  H 2.308732 -0.663031 -1.659011
  H 4.900404 -0.209335 -0.120012
  H 5.159582 -2.352542 -3.570889
  H 5.187477 -0.698800 -4.142641
  H 2.716520 -0.500140 -3.743018
  H 2.684103 -2.183202 -3.157992
  H 6.750229 -0.596462 -1.096459
 20
 34.868826
  C 0.954376 0.440924 0.440687
  C 2.361891 0.059817 0.363305
  H 3.035473 0.429753 1.137536
  C 2.956668 -0.402512 -0.848122
  C 4.329042 -0.505968 -0.979132
  C 5.088490 -0.905694 -2.067065
  C 4.685516 -1.367719 -3.429987
  C 3.218316 -1.474331 -3.803502
  H 3.153315 -1.825228 -4.825890
  O 6.415463 -0.897313 -1.965964
  H 0.571321 0.950413 1.305752
  H 1.698897 -0.717031 0.805713
  H 0.290580 0.257160 -0.386021
  H 2.296988 -0.664228 -1.661142
  H 4.907544 -0.208707 -0.103944
  H 5.163224 -2.339064 -3.570251
  H 5.187482 -0.699732 -4.134349
  H 2.724793 -0.502559 -3.758258
  H 2.697775 -2.198796 -3.173270
  H 6.743044 -0.595402 -1.101240
 20
 35.730283
  C 0.960187 0.450510 0.419032
  C 2.364058 0.050164 0.369501
  H 3.032443 0.437287 1.142606
  C 2.966169 -0.404814 -0.846404
  C 4.338165 -0.503164 -0.975815
  C 5.098488 -0.902624 -2.065414
  C 4.691302 -1.364437 -3.424323
  C 3.211959 -1.468785 -3.794025
  H 3.138530 -1.828425 -4.832510
  O 6.422752 -0.897736 -1.965505
  H 0.562484 0.954440 1.287768
  H 1.745771 -0.741839 0.805314
  H 0.307233 0.250129 -0.402433
  H 2.309070 -0.667606 -1.657125
  H 4.914862 -0.210826 -0.100499
  H 5.169532 -2.341660 -3.565225
  H 5.194910 -0.695627 -4.133835
  H 2.722645 -0.499709 -3.748256
  H 2.695706 -2.183655 -3.163412
  H 6.752637 -0.598401 -1.100822
