 23
 0.000000
  C 0.999564 0.128353 0.380021
  C 2.472266 0.141758 0.411121
  C 3.226926 0.615590 1.591629
  C 2.427411 1.106598 2.795026
  C 3.364606 1.554436 3.913000
  C 3.128461 -0.315001 -0.725496
  C 4.510299 -0.384415 -0.901414
  C 5.097159 -0.847898 -2.058058
  H 4.541882 -1.196001 -2.920800
  O 6.382205 -0.923070 -2.255118
  H 0.546848 0.489746 1.295318
  H 0.642392 -0.884309 0.185903
  H 0.634013 0.738258 -0.447940
  H 3.891869 1.425919 1.270996
  H 3.883494 -0.195574 1.927045
  H 1.786113 0.309439 3.174908
  H 1.794082 1.948795 2.510891
  H 3.996113 0.733612 4.245418
  H 2.791705 1.903522 4.768503
  H 4.004383 2.369887 3.583135
  H 2.507502 -0.645165 -1.546765
  H 5.156716 -0.060588 -0.097135
  H 6.925031 -0.616482 -1.500603
 23
 4.835189
  C 1.002774 0.072523 0.407753
  C 2.447393 0.135724 0.418695
  C 3.213301 0.612814 1.596146
  C 2.416327 1.124061 2.796376
  C 3.358225 1.562577 3.915341
  C 3.132698 -0.313794 -0.720199
  C 4.517627 -0.367512 -0.880936
  C 5.073529 -0.827470 -2.039983
  H 4.447105 -1.162224 -2.860046
  O 6.354406 -0.919931 -2.299695
  H 0.500247 0.448200 1.282613
  H 0.601636 -0.902958 0.141693
  H 0.908234 0.717538 -0.448995
  H 3.900277 1.406845 1.278133
  H 3.853872 -0.212324 1.934333
  H 1.761608 0.340071 3.180699
  H 1.800254 1.976677 2.504800
  H 3.974309 0.732455 4.254136
  H 2.790003 1.927156 4.767949
  H 4.013490 2.364609 3.582148
  H 2.531584 -0.651431 -1.554838
  H 5.168036 -0.044743 -0.082974
  H 6.944725 -0.619831 -1.570548
 23
 12.822530
  C 1.003328 0.026871 0.448046
  C 2.431818 0.118258 0.442071
  C 3.213657 0.607989 1.599494
  C 2.415162 1.133318 2.785176
  C 3.351467 1.575452 3.904631
  C 3.121972 -0.328830 -0.715056
  C 4.506401 -0.366824 -0.883392
  C 5.070532 -0.825534 -2.050326
  H 4.450345 -1.170876 -2.870342
  O 6.344769 -0.900636 -2.308391
  H 0.480143 0.372941 1.326947
  H 0.562233 -0.866945 0.025075
  H 1.125762 0.775474 -0.340011
  H 3.914721 1.379994 1.282602
  H 3.823378 -0.232635 1.941763
  H 1.751874 0.355638 3.171458
  H 1.807254 1.988479 2.479133
  H 3.959536 0.743910 4.254969
  H 2.780356 1.952058 4.749547
  H 4.015038 2.369443 3.567975
  H 2.520324 -0.680936 -1.543806
  H 5.155261 -0.036028 -0.086185
  H 6.921646 -0.590495 -1.579614
 23
 20.538552
  C 0.991083 -0.003707 0.471981
  C 2.417968 0.103471 0.434686
  C 3.202407 0.601610 1.592996
  C 2.410183 1.132410 2.779840
  C 3.356260 1.586344 3.887356
  C 3.109639 -0.344504 -0.723284
  C 4.497729 -0.371846 -0.887860
  C 5.074845 -0.826760 -2.048914
  H 4.468461 -1.182356 -2.875279
  O 6.354037 -0.886337 -2.296210
  H 0.470069 0.292345 1.364502
  H 0.514864 -0.794134 -0.073555
  H 1.284560 0.834525 -0.201753
  H 3.903383 1.371700 1.275071
  H 3.803515 -0.242640 1.932819
  H 1.755373 0.355374 3.180016
  H 1.797187 1.983549 2.473548
  H 3.970834 0.759240 4.237734
  H 2.791694 1.967483 4.735168
  H 4.013945 2.379964 3.538725
  H 2.514670 -0.708318 -1.548273
  H 5.135331 -0.036452 -0.091436
  H 6.914581 -0.564824 -1.560951
 23
 26.441143
  C 0.990612 -0.029487 0.487406
  C 2.414525 0.099413 0.424392
  C 3.203353 0.604901 1.596536
  C 2.405499 1.133083 2.785212
  C 3.344582 1.601785 3.885023
  C 3.109511 -0.351329 -0.741233
  C 4.485597 -0.379651 -0.903503
  C 5.069606 -0.832315 -2.064672
  H 4.468483 -1.182923 -2.892012
  O 6.359399 -0.894514 -2.305647
  H 0.471729 0.224281 1.397473
  H 0.489452 -0.743824 -0.152132
  H 1.413099 0.877071 -0.085755
  H 3.900096 1.383824 1.278984
  H 3.813545 -0.241929 1.939776
  H 1.766219 0.354152 3.189489
  H 1.785294 1.970640 2.480156
  H 3.968566 0.785427 4.235600
  H 2.778001 1.977981 4.730998
  H 3.990651 2.401131 3.532332
  H 2.521559 -0.715281 -1.568128
  H 5.122265 -0.044099 -0.099769
  H 6.915309 -0.578351 -1.557557
 23
 30.063312
  C 0.988660 -0.056904 0.501660
  C 2.408373 0.102268 0.422889
  C 3.204705 0.606166 1.593667
  C 2.402616 1.126866 2.788102
  C 3.339755 1.614463 3.878105
  C 3.108683 -0.351853 -0.751520
  C 4.488402 -0.383871 -0.908301
  C 5.073778 -0.839884 -2.065025
  H 4.477673 -1.189001 -2.896152
  O 6.366835 -0.905556 -2.302026
  H 0.464518 0.149819 1.416837
  H 0.466750 -0.663478 -0.225752
  H 1.508612 0.911145 0.026090
  H 3.888512 1.395486 1.264144
  H 3.825028 -0.231899 1.935248
  H 1.779476 0.336924 3.200996
  H 1.763388 1.954906 2.486368
  H 3.981004 0.810158 4.226071
  H 2.773127 1.983198 4.727880
  H 3.968853 2.423569 3.517965
  H 2.512257 -0.707797 -1.573993
  H 5.126299 -0.051273 -0.104064
  H 6.911914 -0.590982 -1.561261
 23
 33.984076
  C 0.988374 -0.081052 0.497440
  C 2.402621 0.105467 0.405298
  C 3.208579 0.606548 1.585558
  C 2.405393 1.125271 2.786688
  C 3.349017 1.619721 3.881299
  C 3.099073 -0.346090 -0.754321
  C 4.468341 -0.378696 -0.903893
  C 5.066790 -0.838901 -2.061580
  H 4.477981 -1.188265 -2.892883
  O 6.356413 -0.905224 -2.286519
  H 0.472536 0.121504 1.402265
  H 0.459546 -0.653806 -0.260475
  H 1.588119 0.906408 0.053309
  H 3.897370 1.407281 1.249920
  H 3.822602 -0.219558 1.921098
  H 1.786279 0.329909 3.204894
  H 1.757044 1.957789 2.486970
  H 4.005794 0.803576 4.231444
  H 2.770136 1.992719 4.750674
  H 3.983351 2.445381 3.512475
  H 2.510515 -0.703409 -1.579369
  H 5.097198 -0.045613 -0.097254
  H 6.901494 -0.585306 -1.528822
 23
 36.515486
  C 0.983226 -0.097973 0.512097
  C 2.396286 0.130565 0.410137
  C 3.208663 0.615285 1.588244
  C 2.406669 1.124758 2.789358
  C 3.346602 1.621566 3.879123
  C 3.103264 -0.343095 -0.763168
  C 4.482137 -0.372126 -0.913861
  C 5.075059 -0.845015 -2.060604
  H 4.484959 -1.208842 -2.889814
  O 6.368739 -0.913633 -2.287240
  H 0.448387 0.112318 1.417502
  H 0.458147 -0.621931 -0.268756
  H 1.636578 0.930323 0.078952
  H 3.881020 1.405328 1.259797
  H 3.828397 -0.218201 1.920011
  H 1.794463 0.323468 3.204981
  H 1.753112 1.949956 2.494145
  H 4.002998 0.820268 4.221386
  H 2.778085 1.981978 4.737604
  H 3.966236 2.442537 3.516217
  H 2.504191 -0.712252 -1.580101
  H 5.117202 -0.024432 -0.111726
  H 6.908739 -0.587992 -1.542766
 23
 39.467761
  C 0.985803 -0.114405 0.519968
  C 2.396487 0.146654 0.412389
  C 3.210967 0.620149 1.590641
  C 2.410695 1.121911 2.779371
  C 3.351379 1.621778 3.876990
  C 3.101094 -0.333258 -0.757598
  C 4.478672 -0.363240 -0.907198
  C 5.073747 -0.841314 -2.050434
  H 4.476232 -1.212359 -2.888994
  O 6.367819 -0.912527 -2.272906
  H 0.448664 0.102462 1.418419
  H 0.463662 -0.623418 -0.279823
  H 1.689651 0.936882 0.088724
  H 3.897917 1.428548 1.259540
  H 3.830856 -0.217078 1.921750
  H 1.794779 0.312360 3.193813
  H 1.755344 1.946910 2.481169
  H 4.002828 0.829602 4.217486
  H 2.786340 1.976063 4.725840
  H 3.966038 2.438865 3.520474
  H 2.493945 -0.709178 -1.581905
  H 5.103536 -0.016929 -0.117592
  H 6.903631 -0.587184 -1.531528
 23
 41.545915
  C 0.980800 -0.142666 0.514047
  C 2.388094 0.158392 0.399513
  C 3.211320 0.624672 1.590591
  C 2.409493 1.129798 2.787333
  C 3.354219 1.631093 3.891313
  C 3.098882 -0.331810 -0.775508
  C 4.478496 -0.362855 -0.923678
  C 5.073216 -0.845081 -2.064258
  H 4.482350 -1.212112 -2.890605
  O 6.368176 -0.921982 -2.285676
  H 0.428892 0.079473 1.419716
  H 0.472383 -0.630539 -0.287101
  H 1.730556 0.958206 0.070915
  H 3.890759 1.421110 1.267685
  H 3.829360 -0.220355 1.921514
  H 1.797411 0.326805 3.196556
  H 1.756228 1.951633 2.489195
  H 4.010815 0.833367 4.234437
  H 2.783755 1.989845 4.751351
  H 3.971271 2.450300 3.535144
  H 2.507363 -0.698805 -1.572705
  H 5.120481 -0.004379 -0.112297
  H 6.907701 -0.597296 -1.543108
 23
 42.158060
  C 0.986201 -0.168836 0.530495
  C 2.384886 0.181753 0.398140
  C 3.214486 0.628185 1.593730
  C 2.411750 1.136237 2.796221
  C 3.354347 1.631347 3.896054
  C 3.106193 -0.328493 -0.781676
  C 4.479887 -0.353672 -0.927209
  C 5.078544 -0.847231 -2.065494
  H 4.489853 -1.224190 -2.889242
  O 6.371383 -0.926053 -2.282745
  H 0.432328 0.066665 1.421952
  H 0.468648 -0.647288 -0.284274
  H 1.780286 1.006751 0.052152
  H 3.899898 1.419681 1.276615
  H 3.818073 -0.218246 1.916936
  H 1.796602 0.334643 3.205882
  H 1.759868 1.960186 2.500704
  H 4.007867 0.831733 4.235813
  H 2.786447 1.988462 4.753969
  H 3.973505 2.450711 3.539469
  H 2.502673 -0.709704 -1.585996
  H 5.111673 0.010497 -0.129865
  H 6.911611 -0.592755 -1.541276
 23
 43.391750
  C 0.993430 -0.189623 0.537633
  C 2.388563 0.197467 0.396456
  C 3.220110 0.634041 1.597926
  C 2.415289 1.143446 2.797623
  C 3.349043 1.631890 3.892593
  C 3.107673 -0.319323 -0.779727
  C 4.479666 -0.345919 -0.926371
  C 5.075692 -0.844086 -2.064222
  H 4.476271 -1.224153 -2.889973
  O 6.364013 -0.928027 -2.282907
  H 0.438213 0.047517 1.422210
  H 0.483780 -0.661154 -0.284172
  H 1.829810 1.027957 0.044261
  H 3.908406 1.419713 1.286453
  H 3.819019 -0.217690 1.919868
  H 1.795904 0.344856 3.206524
  H 1.770512 1.964953 2.502987
  H 3.999595 0.828605 4.234850
  H 2.784055 1.986648 4.741088
  H 3.975054 2.454318 3.536889
  H 2.503019 -0.702319 -1.582306
  H 5.115607 0.022017 -0.126010
  H 6.911027 -0.594966 -1.542714
 23
 42.533199
  C 1.002769 -0.217654 0.553229
  C 2.380428 0.221211 0.391666
  C 3.218447 0.632044 1.600941
  C 2.415879 1.152470 2.800560
  C 3.352569 1.633311 3.895628
  C 3.112657 -0.316846 -0.788069
  C 4.480166 -0.336004 -0.932348
  C 5.079995 -0.844057 -2.068177
  H 4.488572 -1.229948 -2.884814
  O 6.366742 -0.929267 -2.282929
  H 0.445740 0.024713 1.436139
  H 0.487120 -0.691557 -0.266883
  H 1.888721 1.092901 0.014584
  H 3.917026 1.407032 1.296751
  H 3.798578 -0.230289 1.921040
  H 1.789431 0.361803 3.209621
  H 1.777116 1.981038 2.502343
  H 3.995305 0.824738 4.237501
  H 2.787366 1.995930 4.746239
  H 3.982777 2.445122 3.539643
  H 2.501347 -0.710227 -1.590980
  H 5.110760 0.038455 -0.140928
  H 6.915076 -0.586613 -1.547167
 23
 43.183609
  C 1.014750 -0.241540 0.547603
  C 2.386262 0.230919 0.380721
  C 3.225526 0.630065 1.601799
  C 2.421474 1.158575 2.803571
  C 3.359020 1.637364 3.904197
  C 3.112564 -0.309729 -0.783314
  C 4.478174 -0.326306 -0.929460
  C 5.075210 -0.838593 -2.066673
  H 4.464487 -1.238391 -2.893554
  O 6.356059 -0.928806 -2.282314
  H 0.455372 -0.004709 1.423214
  H 0.504858 -0.716321 -0.279923
  H 1.945276 1.105714 0.000240
  H 3.931270 1.398807 1.304012
  H 3.791700 -0.231024 1.918534
  H 1.793496 0.377289 3.211263
  H 1.785395 1.993098 2.501938
  H 3.983521 0.841875 4.240655
  H 2.787041 2.007645 4.764146
  H 3.995973 2.445118 3.548783
  H 2.507607 -0.701242 -1.578366
  H 5.113105 0.052307 -0.134694
  H 6.910528 -0.580159 -1.553890
