9

C 0.974207 0.139661 0.400006
C 2.453703 0.138582 0.396402
H 3.018874384803477 0.4775360340319458 1.2393678763038933
C 3.063474 -0.326113 -0.760314
H 4.118502187125177 -0.39242896566739854 -0.9258969612881789
H 0.527037 0.508474 1.317867
H 0.606077 -0.873661 0.232479
H 0.605575 0.754993 -0.422124
H 2.402873 -0.643203 -1.549309
