 17
 0.000000
  H -1.262021 -0.135539 2.213555
  C -1.953404 -0.223452 1.378319
  C -2.978914 0.911048 1.419443
  C -1.209127 -0.218869 0.071552
  O -0.011957 -0.008130 0.007834
  C -2.007352 -0.491570 -1.168330
  H -2.471846 -1.182353 1.457030
  H -2.494647 1.875131 1.279896
  H -3.490238 0.920727 2.378207
  H -3.729690 0.797439 0.641673
  H -3.023870 -0.791992 -0.934072
  H -1.527815 -1.288007 -1.732350
  H -2.031562 0.407104 -1.779911
  O 3.347897 0.178248 -0.045720
  H 2.384551 0.005870 0.006439
  H 3.861412 -0.556677 0.351387
  H 3.574328 1.038068 0.367707
 17
 -1.483586
  H -1.173976 -0.123653 2.186271
  C -1.882457 -0.220836 1.371220
  C -2.895498 0.915569 1.424341
  C -1.138660 -0.231681 0.057462
  O 0.060981 -0.038086 0.009441
  C -1.938437 -0.497681 -1.182575
  H -2.410577 -1.167366 1.474600
  H -2.406941 1.874018 1.275559
  H -3.381735 0.927104 2.394491
  H -3.659135 0.797456 0.661371
  H -2.953838 -0.789704 -0.957441
  H -1.456916 -1.276138 -1.760083
  H -1.950296 0.394984 -1.795385
  O 3.104141 0.178810 -0.028518
  H 2.155227 0.013547 0.013716
  H 3.594766 -0.542066 0.382586
  H 3.311055 1.024263 0.387162
 17
 -3.182937
  H -1.408982 0.768341 2.004870
  C -1.964199 0.201695 1.255614
  C -3.021106 1.105347 0.621335
  C -1.021760 -0.340311 0.219597
  O 0.163512 -0.059107 0.220626
  C -1.609422 -1.249113 -0.825537
  H -2.451523 -0.639703 1.743529
  H -2.551202 1.934033 0.094842
  H -3.663750 1.517135 1.394250
  H -3.646312 0.560727 -0.081903
  H -2.635476 -1.513083 -0.607585
  H -1.015627 -2.155494 -0.886664
  H -1.557861 -0.759893 -1.792446
  O 2.946124 0.368435 0.451298
  H 1.985780 0.161240 0.435199
  H 3.369607 0.006092 1.254392
  H 3.052887 1.341275 0.415055
 17
 -4.382404
  H -1.308134 0.656700 2.034892
  C -1.892818 0.151748 1.271980
  C -2.936967 1.121411 0.703171
  C -0.980420 -0.362883 0.189666
  O 0.215310 -0.117661 0.195360
  C -1.597670 -1.173471 -0.897027
  H -2.403257 -0.700878 1.724852
  H -2.453093 1.958350 0.212242
  H -3.553101 1.509398 1.510605
  H -3.586578 0.631317 -0.012466
  H -2.628843 -1.429470 -0.684775
  H -1.014698 -2.081207 -1.047014
  H -1.548448 -0.610036 -1.830124
  O 2.798240 0.284485 0.493662
  H 1.839376 0.022351 0.361264
  H 3.058952 0.197877 1.434025
  H 2.929659 1.202072 0.172969
 17
 -2.717759
  H -1.281957 0.628421 2.048336
  C -1.870810 0.152694 1.259724
  C -2.904954 1.143244 0.712221
  C -0.952607 -0.356681 0.186523
  O 0.256421 -0.147833 0.244549
  C -1.574446 -1.123175 -0.935522
  H -2.396302 -0.708071 1.672744
  H -2.409000 1.995829 0.258601
  H -3.528559 1.513941 1.520824
  H -3.556927 0.686721 -0.029862
  H -2.617677 -1.361485 -0.754176
  H -1.001064 -2.032859 -1.111785
  H -1.515253 -0.522895 -1.842037
  O 2.696200 0.227663 0.466005
  H 1.707116 -0.045549 0.358281
  H 2.998058 0.075953 1.389890
  H 2.840558 1.177445 0.296713
 17
 -1.278908
  H -1.191820 0.497325 2.056346
  C -1.804639 0.074452 1.257540
  C -2.816284 1.125212 0.770150
  C -0.941582 -0.381481 0.128543
  O 0.243515 -0.088215 0.067973
  C -1.610215 -1.088655 -1.004416
  H -2.347855 -0.788818 1.650577
  H -2.305204 1.981721 0.345708
  H -3.413458 1.466685 1.610189
  H -3.487006 0.716531 0.023347
  H -2.637907 -1.345559 -0.787451
  H -1.048462 -1.991174 -1.255634
  H -1.571185 -0.444642 -1.885753
  O 2.608772 0.291645 0.520263
  H 1.623935 0.010654 0.301260
  H 2.874335 0.061069 1.440588
  H 2.657433 1.260393 0.405628
 17
 1.616076
  H -1.171804 0.422869 2.079901
  C -1.793915 0.043918 1.266935
  C -2.795888 1.126619 0.843564
  C -0.942189 -0.355460 0.107869
  O 0.250793 -0.072613 0.070143
  C -1.605545 -1.023051 -1.039840
  H -2.345237 -0.831445 1.620528
  H -2.274016 2.003711 0.459104
  H -3.385782 1.430206 1.706975
  H -3.477250 0.762179 0.076435
  H -2.633005 -1.287458 -0.826357
  H -1.045251 -1.912140 -1.318936
  H -1.569688 -0.354895 -1.903090
  O 2.566886 0.250029 0.462314
  H 1.520781 -0.000030 0.251855
  H 2.826673 -0.019329 1.363879
  H 2.647166 1.215379 0.368408
 17
 5.266200
  H -1.168659 0.351561 2.104035
  C -1.793949 0.014909 1.281164
  C -2.788020 1.119865 0.911741
  C -0.947169 -0.340935 0.100009
  O 0.251346 -0.067441 0.072268
  C -1.611092 -0.955382 -1.072236
  H -2.350505 -0.868009 1.595847
  H -2.257202 2.014985 0.564612
  H -3.375283 1.388280 1.792742
  H -3.477049 0.792495 0.126886
  H -2.645040 -1.225146 -0.869264
  H -1.055813 -1.828263 -1.387103
  H -1.572967 -0.259908 -1.901918
  O 2.565579 0.217680 0.401168
  H 1.434414 -0.014703 0.203728
  H 2.830767 -0.080192 1.286130
  H 2.671077 1.177595 0.330968
 17
 7.373878
  H -1.159542 0.277839 2.127652
  C -1.795016 -0.019155 1.293260
  C -2.782149 1.111540 0.971657
  C -0.961327 -0.339276 0.097475
  O 0.241695 -0.077901 0.079998
  C -1.636940 -0.887729 -1.101805
  H -2.359336 -0.909395 1.576697
  H -2.249736 2.006925 0.661284
  H -3.359448 1.348810 1.860299
  H -3.471865 0.826099 0.183411
  H -2.669251 -1.156814 -0.909369
  H -1.087494 -1.756220 -1.464259
  H -1.594608 -0.150129 -1.902302
  O 2.586323 0.200335 0.346413
  H 1.373197 -0.044187 0.163661
  H 2.869086 -0.113834 1.217755
  H 2.699183 1.160930 0.294897
 17
 10.102411
  H -1.137742 0.213820 2.121475
  C -1.787899 -0.048774 1.289705
  C -2.775833 1.095029 1.030871
  C -0.986062 -0.317253 0.074291
  O 0.234372 -0.065796 0.045016
  C -1.670920 -0.824520 -1.121825
  H -2.350489 -0.946360 1.544896
  H -2.246607 2.001454 0.749456
  H -3.336888 1.295534 1.938636
  H -3.479390 0.842878 0.243590
  H -2.699403 -1.098056 -0.926040
  H -1.125428 -1.676907 -1.521913
  H -1.639883 -0.060866 -1.896518
  O 2.618707 0.185061 0.304703
  H 1.293434 -0.044929 0.129785
  H 2.909307 -0.164238 1.154924
  H 2.753872 1.140108 0.293594
 17
 12.603099
  H -1.120216 0.160716 2.128521
  C -1.783928 -0.071932 1.300504
  C -2.775974 1.080371 1.102223
  C -1.002087 -0.299726 0.052253
  O 0.210591 -0.053156 0.008446
  C -1.705449 -0.770539 -1.160059
  H -2.344452 -0.975807 1.534082
  H -2.251505 1.996014 0.845119
  H -3.319164 1.246594 2.026937
  H -3.493958 0.857375 0.320150
  H -2.730848 -1.050653 -0.962224
  H -1.165108 -1.605133 -1.596617
  H -1.684705 0.016260 -1.910759
  O 2.665096 0.173235 0.266742
  H 1.216594 -0.047897 0.096368
  H 2.962806 -0.206145 1.098767
  H 2.820220 1.119600 0.287908
 17
 15.237081
  H -1.097448 0.100236 2.127748
  C -1.779521 -0.103304 1.303135
  C -2.777363 1.059400 1.164416
  C -1.026337 -0.288273 0.035035
  O 0.185133 -0.040541 -0.027377
  C -1.748747 -0.710010 -1.178947
  H -2.339145 -1.015074 1.515828
  H -2.257351 1.983204 0.930316
  H -3.301849 1.192682 2.104763
  H -3.510643 0.864910 0.389686
  H -2.772609 -0.995585 -0.974900
  H -1.215041 -1.528414 -1.658683
  H -1.739464 0.106034 -1.903077
  O 2.723698 0.165051 0.234790
  H 1.142370 -0.049015 0.065582
  H 3.031178 -0.234441 1.045598
  H 2.900134 1.098003 0.278224
 17
 17.513795
  H -1.077566 0.039419 2.125106
  C -1.777706 -0.135060 1.304789
  C -2.779281 1.033230 1.226060
  C -1.052975 -0.275350 0.019553
  O 0.162775 -0.024213 -0.063650
  C -1.796993 -0.648285 -1.189284
  H -2.336491 -1.055276 1.496632
  H -2.262835 1.966637 1.015056
  H -3.286136 1.132588 2.181885
  H -3.528505 0.865746 0.458032
  H -2.821240 -0.940409 -0.975101
  H -1.271591 -1.450768 -1.712365
  H -1.799917 0.195839 -1.884869
  O 2.780202 0.153751 0.203800
  H 1.090812 -0.046974 0.032893
  H 3.102094 -0.268212 1.005589
  H 2.984941 1.091956 0.257235
 17
 20.608581
  H -1.066684 -0.020011 2.123409
  C -1.778494 -0.164645 1.313099
  C -2.777549 1.004304 1.293378
  C -1.077863 -0.260621 0.010592
  O 0.142929 -0.007438 -0.090208
  C -1.843443 -0.590607 -1.199460
  H -2.334312 -1.087160 1.482626
  H -2.264194 1.942163 1.106346
  H -3.265828 1.070105 2.259779
  H -3.539455 0.864684 0.534992
  H -2.860184 -0.887436 -0.979847
  H -1.330287 -1.371231 -1.757402
  H -1.856550 0.273879 -1.863813
  O 2.833192 0.149789 0.166857
  H 1.040955 -0.040536 0.005595
  H 3.164767 -0.298520 0.950733
  H 3.050997 1.079583 0.244292
