 20
 0.000000
  C 0.959565 -0.015491 -0.004161
  C 2.455830 -0.000652 0.010186
  C 3.169662 0.812807 0.796393
  C 4.607614 0.828802 0.811850
  C 5.326780 1.645907 1.601590
  C 6.765709 1.660082 1.615284
  C 7.482825 2.471533 2.399549
  C 8.972994 2.501221 2.428244
  H 0.597546 -0.754542 -0.718451
  H 0.564337 0.956363 -0.299722
  H 0.564336 -0.277783 0.977194
  H 2.954001 -0.691315 -0.657348
  H 2.657309 1.501021 1.461557
  H 5.112305 0.139901 0.146030
  H 4.822653 2.334984 2.267579
  H 7.273019 0.972000 0.950253
  H 6.984074 3.162706 3.067572
  H 9.408250 1.783562 1.734621
  H 9.331856 2.268371 3.432131
  H 9.331856 3.496594 2.161339
 20
 9.958858
  C 0.921165 0.048441 0.067417
  C 2.447721 -0.022285 -0.023926
  C 3.244188 0.729800 0.682929
  C 4.688110 0.776805 0.757682
  C 5.367529 1.614205 1.555667
  C 6.808574 1.672520 1.619470
  C 7.484772 2.484554 2.430604
  C 8.965129 2.562300 2.500742
  H 0.468823 -0.636103 -0.642481
  H 0.570405 1.054081 -0.140159
  H 0.593733 -0.233747 1.068687
  H 2.827131 -0.751620 -0.723401
  H 2.563351 1.292304 1.241126
  H 5.226153 0.108254 0.083688
  H 4.821412 2.287245 2.205239
  H 7.349789 0.998373 0.959528
  H 6.941903 3.161839 3.081112
  H 9.395415 1.835259 1.792428
  H 9.332429 2.276087 3.484272
  H 9.323933 3.538766 2.182036
 20
 25.888429
  C 0.903563 0.107304 0.126225
  C 2.448676 -0.043172 -0.033165
  C 3.312249 0.662701 0.628220
  C 4.728884 0.737389 0.703705
  C 5.387400 1.578004 1.521681
  C 6.819763 1.657006 1.600967
  C 7.478488 2.484093 2.419387
  C 8.966478 2.580716 2.515152
  H 0.395103 -0.548073 -0.568618
  H 0.605189 1.132967 -0.071824
  H 0.608333 -0.156245 1.140229
  H 2.714523 -0.808315 -0.764889
  H 2.503837 1.128889 1.094840
  H 5.274718 0.072797 0.052504
  H 4.823678 2.242022 2.166066
  H 7.375425 0.994321 0.947443
  H 6.924287 3.144053 3.067004
  H 9.445825 1.885425 1.837610
  H 9.300052 2.360244 3.536658
  H 9.297303 3.591435 2.274344
 20
 46.933411
  C 0.882441 0.133761 0.151278
  C 2.433508 -0.043708 -0.030235
  C 3.344291 0.639410 0.610396
  C 4.759897 0.725430 0.693419
  C 5.404270 1.570126 1.516044
  C 6.843145 1.661742 1.605427
  C 7.485439 2.490766 2.423623
  C 8.968991 2.598687 2.529069
  H 0.362458 -0.514916 -0.536956
  H 0.592540 1.172013 -0.046964
  H 0.595872 -0.127231 1.167250
  H 2.628999 -0.829586 -0.778235
  H 2.437348 1.011994 0.983316
  H 5.323630 0.058513 0.041824
  H 4.832272 2.223862 2.154530
  H 7.411607 1.003633 0.956669
  H 6.912275 3.156030 3.079274
  H 9.461455 1.904112 1.849992
  H 9.293560 2.379700 3.559735
  H 9.291628 3.612120 2.292611
 20
 66.379322
  C 0.852960 0.142409 0.163230
  C 2.415837 -0.033698 -0.014244
  C 3.355467 0.647068 0.611612
  C 4.774551 0.737030 0.687679
  C 5.418676 1.582857 1.512552
  C 6.846391 1.675968 1.599273
  C 7.490136 2.503140 2.423757
  C 8.973281 2.597021 2.542623
  H 0.349001 -0.515295 -0.526560
  H 0.569047 1.161218 -0.041761
  H 0.566605 -0.115420 1.181593
  H 2.610451 -0.839293 -0.773632
  H 2.386340 0.937698 0.907721
  H 5.344516 0.064776 0.040994
  H 4.845874 2.232728 2.157853
  H 7.414394 1.016108 0.948373
  H 6.921042 3.166713 3.074021
  H 9.466238 1.902179 1.868916
  H 9.291645 2.377411 3.575796
  H 9.308792 3.608225 2.309872
 20
 82.319679
  C 0.822599 0.139015 0.158625
  C 2.420276 -0.021869 -0.003216
  C 3.365322 0.655748 0.630412
  C 4.766529 0.737432 0.705503
  C 5.414262 1.583611 1.526377
  C 6.861418 1.672169 1.615624
  C 7.509783 2.504178 2.433417
  C 8.986593 2.603459 2.541016
  H 0.337064 -0.526092 -0.548854
  H 0.525656 1.160983 -0.045384
  H 0.527767 -0.129278 1.163026
  H 2.603337 -0.811255 -0.768045
  H 2.348754 0.882856 0.856057
  H 5.328696 0.076312 0.068976
  H 4.843292 2.240940 2.165196
  H 7.423850 1.013303 0.973157
  H 6.948364 3.164545 3.077268
  H 9.479409 1.903832 1.864913
  H 9.302098 2.393713 3.556976
  H 9.316050 3.615307 2.303192
 20
 96.400867
  C 0.789220 0.137219 0.155324
  C 2.410466 -0.016536 0.003241
  C 3.359376 0.666667 0.639765
  C 4.776757 0.747067 0.709696
  C 5.424840 1.592068 1.530435
  C 6.859705 1.677521 1.617199
  C 7.509758 2.507331 2.435492
  C 9.005474 2.606867 2.545361
  H 0.326850 -0.534858 -0.553455
  H 0.490475 1.156639 -0.058307
  H 0.491226 -0.133488 1.162811
  H 2.577747 -0.813032 -0.753713
  H 2.302066 0.832401 0.808603
  H 5.350107 0.078287 0.065638
  H 4.852944 2.252520 2.175303
  H 7.420464 1.016852 0.972368
  H 6.946909 3.168459 3.081327
  H 9.498214 1.909483 1.872214
  H 9.322465 2.395523 3.563467
  H 9.336262 3.618341 2.311500
 20
 107.717641
  C 0.756969 0.129530 0.141529
  C 2.425102 -0.008781 0.023878
  C 3.361954 0.701225 0.662109
  C 4.772567 0.773557 0.717471
  C 5.431406 1.609366 1.542045
  C 6.864266 1.687363 1.620115
  C 7.522903 2.506796 2.443038
  C 9.001689 2.599244 2.538110
  H 0.326626 -0.568408 -0.565322
  H 0.445415 1.140741 -0.102624
  H 0.440734 -0.123840 1.146768
  H 2.601534 -0.838866 -0.706043
  H 2.265036 0.808973 0.780986
  H 5.342573 0.106594 0.066911
  H 4.868766 2.258978 2.198614
  H 7.421883 1.027431 0.960165
  H 6.969903 3.159921 3.102136
  H 9.483177 1.908659 1.848323
  H 9.331154 2.370244 3.559820
  H 9.333187 3.613555 2.310681
 20
 117.804541
  C 0.730957 0.128831 0.151353
  C 2.434928 0.010235 -0.009114
  C 3.360956 0.711081 0.647212
  C 4.777689 0.760161 0.722488
  C 5.433747 1.608475 1.541937
  C 6.868439 1.684414 1.622803
  C 7.523762 2.521105 2.434380
  C 9.006178 2.598340 2.544374
  H 0.322410 -0.546299 -0.588709
  H 0.401231 1.157422 -0.046213
  H 0.429772 -0.183708 1.160917
  H 2.588274 -0.805621 -0.769266
  H 2.223948 0.752425 0.790397
  H 5.354614 0.079581 0.087581
  H 4.865068 2.279679 2.181455
  H 7.428011 1.011347 0.980654
  H 6.963041 3.199379 3.077695
  H 9.492894 1.879733 1.879978
  H 9.313286 2.384880 3.572238
  H 9.354248 3.607098 2.298276
 20
 119.956270
  C 0.713779 0.148784 0.140109
  C 2.431644 -0.025542 0.011645
  C 3.366978 0.680864 0.655222
  C 4.784903 0.753936 0.713374
  C 5.435633 1.591214 1.544779
  C 6.867856 1.690678 1.614334
  C 7.517668 2.512568 2.442722
  C 9.002809 2.608473 2.548961
  H 0.294139 -0.541218 -0.587905
  H 0.426952 1.176752 -0.079505
  H 0.393494 -0.123550 1.144215
  H 2.556092 -0.858308 -0.720684
  H 2.215382 0.731555 0.775478
  H 5.364283 0.102240 0.057725
  H 4.863021 2.232774 2.209814
  H 7.432870 1.041972 0.948972
  H 6.953083 3.164647 3.105674
  H 9.491682 1.919108 1.863310
  H 9.319866 2.370941 3.565707
  H 9.337129 3.627114 2.326802
 20
 125.488134
  C 0.635321 0.111342 0.123515
  C 2.428869 -0.011550 0.009079
  C 3.363509 0.733525 0.661255
  C 4.784262 0.784941 0.727044
  C 5.444640 1.628068 1.543450
  C 6.882753 1.688515 1.634592
  C 7.543462 2.515788 2.450677
  C 9.032294 2.602293 2.548975
  H 0.253920 -0.565804 -0.633124
  H 0.320119 1.132346 -0.076182
  H 0.313002 -0.205841 1.113937
  H 2.586489 -0.823773 -0.735403
  H 2.168313 0.697051 0.788213
  H 5.355719 0.114961 0.085965
  H 4.878665 2.299255 2.189903
  H 7.440664 1.009045 0.989855
  H 6.984439 3.190538 3.102927
  H 9.513813 1.898658 1.869935
  H 9.353744 2.376348 3.569415
  H 9.372162 3.612095 2.311752
 20
 128.405532
  C 0.649301 0.197857 0.164621
  C 2.430631 -0.077477 0.012309
  C 3.412397 0.607034 0.590071
  C 4.822203 0.707819 0.674724
  C 5.445870 1.556069 1.514276
  C 6.877415 1.674152 1.613133
  C 7.501631 2.508329 2.447947
  C 8.979345 2.640810 2.567385
  H 0.207669 -0.461288 -0.563271
  H 0.417048 1.225625 -0.058243
  H 0.339584 -0.071442 1.163879
  H 2.486463 -0.910012 -0.712930
  H 2.226881 0.631788 0.777398
  H 5.422844 0.081052 0.020484
  H 4.855853 2.191458 2.166067
  H 7.458598 1.038465 0.962114
  H 6.919203 3.149728 3.097037
  H 9.490635 1.963912 1.884469
  H 9.296765 2.414387 3.588737
  H 9.286817 3.662129 2.348630
 20
 132.982975
  C 0.603124 0.234251 0.154832
  C 2.437054 -0.107734 0.031591
  C 3.444289 0.585078 0.562467
  C 4.844547 0.703223 0.654345
  C 5.458695 1.537441 1.519196
  C 6.880789 1.669567 1.618375
  C 7.495541 2.500700 2.465591
  C 8.967204 2.666324 2.567065
  H 0.162400 -0.453809 -0.546000
  H 0.399955 1.259202 -0.124269
  H 0.279096 0.022545 1.166487
  H 2.455164 -0.994395 -0.625904
  H 2.212388 0.607334 0.776771
  H 5.458285 0.095777 -0.011987
  H 4.861002 2.149115 2.186874
  H 7.469349 1.059699 0.948222
  H 6.906510 3.104686 3.146353
  H 9.483849 2.024306 1.857362
  H 9.304254 2.417747 3.574064
  H 9.246545 3.701457 2.375047
 20
 134.051834
  C 0.558659 0.282553 0.123788
  C 2.445322 -0.172011 0.092252
  C 3.470192 0.542246 0.538753
  C 4.853352 0.720772 0.629590
  C 5.460915 1.535724 1.520928
  C 6.878472 1.681212 1.610464
  C 7.490876 2.482856 2.488107
  C 8.962790 2.694165 2.568666
  H 0.130302 -0.443869 -0.542887
  H 0.408455 1.291153 -0.238075
  H 0.196550 0.155587 1.136591
  H 2.414526 -1.123438 -0.447957
  H 2.157815 0.565789 0.806065
  H 5.477263 0.162544 -0.067883
  H 4.864593 2.091097 2.231822
  H 7.471568 1.105635 0.902138
  H 6.899737 3.035696 3.203551
  H 9.487134 2.106053 1.817765
  H 9.329733 2.405618 3.553571
  H 9.203618 3.746837 2.424548
