 29
 0.000000
  C 0.990066 0.135847 0.389650
  C 2.466360 0.140617 0.400737
  C 3.238989 0.612006 1.573588
  C 2.449219 1.097986 2.783697
  H 3.119483 1.414724 3.571698
  C 3.087598 -0.323300 -0.754497
  C 4.463155 -0.412471 -0.977308
  C 5.125642 -0.867345 -2.110706
  C 4.615834 -1.388158 -3.408696
  C 3.123182 -1.502063 -3.693942
  C 2.894284 -2.064053 -5.094541
  O 6.447944 -0.868398 -2.113401
  H 0.547613 0.504560 1.307703
  H 0.623974 -0.877251 0.219272
  H 0.623499 0.749356 -0.434157
  H 3.895808 1.425176 1.244686
  H 3.896228 -0.202364 1.898585
  H 1.814003 0.302589 3.169851
  H 1.813626 1.939224 2.512357
  H 2.427639 -0.640492 -1.543774
  H 5.092090 -0.083510 -0.158216
  H 5.069044 -2.377679 -3.537614
  H 5.069680 -0.762696 -4.185886
  H 2.650512 -0.520709 -3.639240
  H 2.649821 -2.172995 -2.976129
  H 3.331846 -1.417629 -5.851735
  H 1.828913 -2.144132 -5.295209
  H 3.331179 -3.054900 -5.194669
  H 6.836477 -0.535599 -1.282699
 29
 12.893839
  C 0.949340 0.197917 0.544532
  C 2.431798 0.120657 0.351520
  C 3.311368 0.571432 1.472757
  C 2.633441 1.078520 2.734861
  H 3.398483 1.366721 3.452017
  C 2.807672 -0.374333 -0.880549
  C 4.156600 -0.392341 -0.926816
  C 4.995598 -0.839688 -2.041790
  C 4.607720 -1.377108 -3.380929
  C 3.142342 -1.537509 -3.781792
  C 3.053014 -2.105458 -5.198081
  O 6.332944 -0.789651 -1.918291
  H 0.634775 0.584210 1.505817
  H 0.516695 -0.792694 0.410845
  H 0.516568 0.820555 -0.237415
  H 3.960532 1.375866 1.117554
  H 3.960848 -0.254939 1.772762
  H 2.019633 0.310232 3.196577
  H 2.019538 1.952641 2.536579
  H 2.111241 -0.679031 -1.638462
  H 4.738967 -0.055665 -0.088951
  H 5.106917 -2.350269 -3.474213
  H 5.107189 -0.738519 -4.121042
  H 2.636975 -0.571983 -3.767208
  H 2.636379 -2.224994 -3.104150
  H 3.533373 -1.443284 -5.914393
  H 2.013294 -2.223366 -5.493283
  H 3.532606 -3.079464 -5.258319
  H 6.663403 -0.442218 -1.051077
 29
 47.143680
  C 1.046346 0.213133 0.579603
  C 2.504055 0.087792 0.268743
  C 3.380578 0.535601 1.385565
  C 2.691480 1.043424 2.649668
  H 3.460847 1.328362 3.361278
  C 2.670510 -0.414023 -0.981114
  C 3.983217 -0.391982 -0.927219
  C 4.895965 -0.821640 -1.998747
  C 4.598364 -1.352053 -3.319413
  C 3.157409 -1.531334 -3.765340
  C 3.118905 -2.100803 -5.183830
  O 6.169832 -0.738032 -1.794295
  H 0.803036 0.607395 1.561770
  H 0.576015 -0.768966 0.476818
  H 0.576797 0.852389 -0.173595
  H 4.022965 1.353314 1.048367
  H 4.021994 -0.289721 1.707498
  H 2.081941 0.276894 3.117065
  H 2.083436 1.921210 2.457150
  H 1.932855 -0.696560 -1.685345
  H 4.578764 -0.072047 -0.128891
  H 5.115992 -2.319116 -3.396201
  H 5.115642 -0.706508 -4.043687
  H 2.642217 -0.564259 -3.764625
  H 2.642170 -2.229608 -3.096325
  H 3.613063 -1.432598 -5.886252
  H 2.089728 -2.231818 -5.510472
  H 3.612853 -3.069382 -5.229173
  H 6.424894 -0.385936 -0.917893
 29
 90.157286
  C 1.014063 0.231364 0.630895
  C 2.516610 0.074147 0.236582
  C 3.402394 0.534013 1.378706
  C 2.773745 1.047075 2.659378
  H 3.588211 1.317734 3.329962
  C 2.560915 -0.436678 -1.035932
  C 3.856180 -0.366412 -0.865278
  C 4.870115 -0.811084 -1.973965
  C 4.605895 -1.357306 -3.332570
  C 3.167144 -1.554428 -3.824265
  C 3.175428 -2.123408 -5.240188
  O 6.153381 -0.701326 -1.706152
  H 0.790722 0.625371 1.613137
  H 0.530690 -0.736176 0.543724
  H 0.529859 0.870163 -0.100792
  H 4.034148 1.353388 1.032597
  H 4.038206 -0.294903 1.694857
  H 2.179708 0.292156 3.159751
  H 2.176952 1.936782 2.499485
  H 1.809534 -0.717715 -1.734740
  H 4.511980 -0.054085 -0.087424
  H 5.138700 -2.321992 -3.392831
  H 5.138976 -0.702759 -4.043910
  H 2.643610 -0.601929 -3.839302
  H 2.642582 -2.252275 -3.176642
  H 3.681877 -1.451305 -5.926378
  H 2.159800 -2.266434 -5.597990
  H 3.680695 -3.084272 -5.269730
  H 6.369579 -0.347298 -0.825652
 29
 132.141887
  C 1.039890 0.232831 0.637036
  C 2.537903 0.063342 0.224356
  C 3.408896 0.535335 1.384672
  C 2.775261 1.061647 2.674542
  H 3.591092 1.331068 3.338194
  C 2.504813 -0.464414 -1.072625
  C 3.778302 -0.359674 -0.806264
  C 4.886230 -0.825380 -1.998256
  C 4.633399 -1.365317 -3.357940
  C 3.200401 -1.556560 -3.825513
  C 3.183166 -2.117957 -5.242659
  O 6.159752 -0.703013 -1.708245
  H 0.831789 0.633288 1.617832
  H 0.549769 -0.736637 0.561589
  H 0.554030 0.873707 -0.095875
  H 4.045056 1.353302 1.027755
  H 4.043230 -0.299116 1.701559
  H 2.180077 0.311782 3.184233
  H 2.182101 1.955519 2.514652
  H 1.744751 -0.743505 -1.772701
  H 4.498182 -0.067104 -0.089461
  H 5.165685 -2.317763 -3.424194
  H 5.158660 -0.712746 -4.059830
  H 2.679757 -0.603137 -3.825001
  H 2.685864 -2.255148 -3.171683
  H 3.680887 -1.442057 -5.934697
  H 2.160988 -2.257187 -5.584627
  H 3.686911 -3.081202 -5.285194
  H 6.355304 -0.349704 -0.820335
 29
 166.436312
  C 1.021290 0.253489 0.692276
  C 2.520521 0.073102 0.295395
  C 3.394034 0.559583 1.451332
  C 2.760010 1.113233 2.738786
  H 3.582134 1.388795 3.399228
  C 2.439768 -0.497044 -1.041141
  C 3.688159 -0.361076 -0.705870
  C 4.941075 -0.870378 -2.085302
  C 4.704329 -1.393479 -3.445007
  C 3.252304 -1.583663 -3.893922
  C 3.204767 -2.129181 -5.319133
  O 6.199462 -0.734114 -1.778231
  H 0.835622 0.671151 1.670158
  H 0.522012 -0.717523 0.639002
  H 0.534113 0.894696 -0.046246
  H 4.040751 1.366766 1.079498
  H 4.029275 -0.274244 1.779632
  H 2.161946 0.376522 3.262858
  H 2.174115 2.008802 2.566746
  H 1.678497 -0.771728 -1.721778
  H 4.498724 -0.101064 -0.074224
  H 5.242235 -2.349302 -3.528172
  H 5.221243 -0.725758 -4.149385
  H 2.734907 -0.621063 -3.863149
  H 2.756067 -2.291421 -3.224538
  H 3.688314 -1.444850 -6.013455
  H 2.175328 -2.265548 -5.642451
  H 3.708702 -3.091596 -5.383747
  H 6.361992 -0.388857 -0.879341
 29
 176.832794
  C 0.960546 0.291464 0.807023
  C 2.451000 0.190779 0.514696
  C 3.325954 0.659802 1.683042
  C 2.648096 1.169939 2.946604
  H 3.444195 1.436853 3.640674
  C 2.415649 -0.397979 -0.972907
  C 3.583841 -0.242404 -0.572940
  C 5.124951 -0.954905 -2.330405
  C 4.844961 -1.496604 -3.679734
  C 3.370638 -1.633209 -4.026744
  C 3.202934 -2.199916 -5.437794
  O 6.418610 -0.863093 -2.104180
  H 0.739591 0.679873 1.786330
  H 0.486261 -0.692633 0.711093
  H 0.468754 0.930099 0.062671
  H 3.977312 1.467546 1.340715
  H 3.962731 -0.174450 2.003185
  H 2.040844 0.410827 3.432692
  H 2.059406 2.068105 2.773585
  H 1.654249 -0.671449 -1.662365
  H 4.471769 -0.026632 -0.033231
  H 5.348269 -2.470549 -3.775034
  H 5.349629 -0.861745 -4.421526
  H 2.889967 -0.651914 -3.985359
  H 2.890975 -2.313865 -3.320498
  H 3.664309 -1.546802 -6.175851
  H 2.149582 -2.300951 -5.688315
  H 3.663886 -3.182547 -5.518946
  H 6.639441 -0.512448 -1.223860
 29
 172.139571
  C 0.930771 0.304421 0.816245
  C 2.421623 0.205477 0.666480
  C 3.269472 0.675834 1.825078
  C 2.551447 1.275518 3.028309
  H 3.321945 1.556840 3.746277
  C 2.415542 -0.498311 -0.877723
  C 3.554914 -0.286561 -0.420318
  C 5.281471 -1.014615 -2.465813
  C 4.944618 -1.529011 -3.834582
  C 3.443508 -1.659695 -4.078000
  C 3.158392 -2.179312 -5.482489
  O 6.598788 -0.937695 -2.336599
  H 0.656371 0.734172 1.770039
  H 0.454316 -0.676963 0.729251
  H 0.496349 0.930254 0.029583
  H 3.982296 1.436493 1.472225
  H 3.897458 -0.149996 2.192967
  H 1.910680 0.560467 3.534628
  H 2.016354 2.187293 2.781143
  H 1.614485 -0.772091 -1.523094
  H 4.471058 -0.114807 0.088141
  H 5.440431 -2.499195 -3.974435
  H 5.398135 -0.867931 -4.583468
  H 2.986965 -0.675931 -3.969392
  H 3.021847 -2.347484 -3.346340
  H 3.567064 -1.507778 -6.233822
  H 2.088715 -2.266161 -5.651576
  H 3.603911 -3.160770 -5.628729
  H 6.872819 -0.603519 -1.463080
 29
 159.978075
  C 0.945737 0.322412 0.814076
  C 2.415394 0.175004 0.771388
  C 3.293192 0.683068 1.915545
  C 2.547729 1.413920 3.037270
  H 3.288015 1.723073 3.783029
  C 2.267414 -0.773862 -0.905535
  C 3.329757 -0.461215 -0.289779
  C 5.405125 -1.017293 -2.492857
  C 5.015221 -1.476240 -3.869581
  C 3.501977 -1.648982 -4.035028
  C 3.141398 -2.115676 -5.447366
  O 6.718955 -0.937214 -2.417391
  H 0.661773 0.839810 1.729490
  H 0.430839 -0.643497 0.807528
  H 0.576895 0.901565 -0.038045
  H 4.053964 1.368042 1.505324
  H 3.823210 -0.163688 2.375662
  H 1.821054 0.774462 3.530139
  H 2.044330 2.302904 2.674840
  H 1.430210 -1.047389 -1.532341
  H 4.386037 -0.477902 -0.308943
  H 5.531865 -2.420889 -4.090957
  H 5.402805 -0.755464 -4.605882
  H 3.008360 -0.696772 -3.834322
  H 3.144100 -2.388535 -3.316358
  H 3.478622 -1.392188 -6.191870
  H 2.062298 -2.239714 -5.553830
  H 3.615869 -3.073282 -5.672180
  H 7.029600 -0.655516 -1.531120
