 31
 0.000000
  C 0.975857 0.142237 0.387467
  C 2.450179 0.143880 0.394843
  C 3.230454 0.607901 1.562252
  C 2.453329 1.095293 2.781517
  C 3.405407 1.535368 3.889294
  C 3.072225 -0.318530 -0.760171
  C 4.455756 -0.406742 -0.974749
  C 5.109598 -0.858560 -2.095202
  C 4.609243 -1.378521 -3.383614
  C 3.121417 -1.502262 -3.685305
  C 2.908470 -2.068472 -5.087893
  H 6.190245 -0.854481 -2.094698
  H 0.535189 0.506010 1.308388
  H 0.607934 -0.869238 0.210220
  H 0.607073 0.760268 -0.433476
  H 3.889988 1.418223 1.231135
  H 3.887294 -0.209831 1.880160
  H 1.814545 0.298284 3.166584
  H 1.817243 1.940427 2.511863
  H 4.039842 0.711784 4.209263
  H 2.842801 1.880671 4.753129
  H 4.042531 2.351400 3.555568
  H 2.414827 -0.634682 -1.552006
  H 5.083361 -0.078112 -0.155672
  H 5.069192 -2.367279 -3.509599
  H 5.066990 -0.752631 -4.160670
  H 2.642340 -0.523277 -3.637518
  H 2.644504 -2.174920 -2.970916
  H 3.349419 -1.421142 -5.842478
  H 1.845449 -2.154983 -5.298908
  H 3.351578 -3.057238 -5.182349
 31
 0.071698
  C 0.965511 0.373513 0.332616
  C 2.423623 0.179263 0.391539
  C 3.198391 0.451571 1.618250
  C 2.469240 1.113112 2.784892
  C 3.438528 1.395638 3.929413
  C 3.037188 -0.265838 -0.778682
  C 4.418058 -0.320561 -1.008400
  C 5.055029 -0.656531 -2.178814
  C 4.572393 -1.180369 -3.461952
  C 3.130756 -1.638491 -3.648908
  C 2.964668 -2.335749 -4.997026
  H 6.129558 -0.511033 -2.177594
  H 0.524774 0.639582 1.283090
  H 0.478449 -0.517411 -0.061171
  H 0.754352 1.165136 -0.390147
  H 4.070633 1.061169 1.364750
  H 3.613555 -0.503248 1.965711
  H 1.674642 0.465356 3.156917
  H 2.022797 2.053425 2.460637
  H 3.888097 0.475310 4.295730
  H 2.917417 1.867336 4.758803
  H 4.235283 2.064256 3.610706
  H 2.377863 -0.527103 -1.590085
  H 5.065100 -0.000561 -0.202946
  H 5.243615 -2.009778 -3.726220
  H 4.808327 -0.419497 -4.220504
  H 2.453567 -0.783420 -3.625618
  H 2.855864 -2.336277 -2.856413
  H 3.227057 -1.669054 -5.816191
  H 1.932864 -2.650045 -5.136658
  H 3.595624 -3.219540 -5.060349
 31
 2.378187
  C 1.011510 0.471325 0.284707
  C 2.425740 0.087080 0.431506
  C 3.153375 0.287778 1.697179
  C 2.514170 1.202771 2.738591
  C 3.443951 1.380102 3.935757
  C 3.043810 -0.421198 -0.710806
  C 4.408774 -0.329480 -1.007566
  C 4.988558 -0.495243 -2.241187
  C 4.491413 -1.033261 -3.514374
  C 3.160854 -1.768727 -3.602179
  C 3.002980 -2.417408 -4.973703
  H 6.018754 -0.164310 -2.313982
  H 0.527030 0.711697 1.222470
  H 0.446706 -0.292711 -0.247239
  H 0.993566 1.359962 -0.354834
  H 4.169149 0.637006 1.494274
  H 3.288081 -0.706121 2.146274
  H 1.570675 0.784863 3.094568
  H 2.310998 2.179024 2.296838
  H 3.640641 0.426416 4.421466
  H 2.992504 2.043506 4.669529
  H 4.394457 1.813486 3.632280
  H 2.386059 -0.774117 -1.489202
  H 5.058032 0.064113 -0.235984
  H 5.283472 -1.697130 -3.888059
  H 4.494010 -0.206139 -4.239123
  H 2.330168 -1.075840 -3.462965
  H 3.112553 -2.543546 -2.837302
  H 3.038031 -1.671167 -5.763702
  H 2.049392 -2.934183 -5.040701
  H 3.790768 -3.144013 -5.155260
 31
 6.792393
  C 1.112499 0.551195 0.195595
  C 2.461734 0.025094 0.458785
  C 3.148914 0.233975 1.745138
  C 2.553353 1.261814 2.703837
  C 3.411065 1.380225 3.959054
  C 3.084210 -0.582993 -0.633282
  C 4.420521 -0.375062 -0.992677
  C 4.907862 -0.396519 -2.273101
  C 4.392063 -0.949841 -3.534361
  C 3.174978 -1.868317 -3.560397
  C 2.984763 -2.457447 -4.956637
  H 5.871954 0.080299 -2.407692
  H 0.607222 0.925312 1.079344
  H 0.491078 -0.178761 -0.318784
  H 1.260938 1.379976 -0.506535
  H 4.203447 0.463289 1.576457
  H 3.159552 -0.742163 2.249018
  H 1.543594 0.974002 3.002756
  H 2.500703 2.233294 2.213219
  H 3.451924 0.434313 4.493666
  H 2.995893 2.128641 4.631220
  H 4.425062 1.677898 3.712636
  H 2.433586 -1.037818 -1.364941
  H 5.066425 0.066507 -0.248402
  H 5.238337 -1.484452 -3.982728
  H 4.224540 -0.107435 -4.224897
  H 2.269597 -1.313109 -3.307544
  H 3.306408 -2.683073 -2.849037
  H 2.835751 -1.672927 -5.692201
  H 2.112560 -3.111451 -4.977973
  H 3.851226 -3.044463 -5.254737
 31
 11.759764
  C 1.222322 0.537073 0.097563
  C 2.501090 -0.078265 0.494472
  C 3.138483 0.181610 1.794644
  C 2.559339 1.305278 2.649349
  C 3.386344 1.490691 3.916781
  C 3.143157 -0.777931 -0.533895
  C 4.458880 -0.498687 -0.933444
  C 4.850461 -0.382369 -2.240240
  C 4.310656 -0.903264 -3.507924
  C 3.183769 -1.925483 -3.526819
  C 2.907164 -2.380155 -4.958217
  H 5.772620 0.166551 -2.393817
  H 0.680702 0.995569 0.916160
  H 0.585879 -0.160296 -0.440141
  H 1.517127 1.309049 -0.621826
  H 4.213566 0.339211 1.659572
  H 3.073187 -0.757136 2.361926
  H 1.530820 1.078856 2.936871
  H 2.560256 2.237387 2.082701
  H 3.396719 0.577538 4.514223
  H 2.969059 2.284385 4.525782
  H 4.414928 1.756395 3.677680
  H 2.501651 -1.272399 -1.250703
  H 5.117939 -0.068630 -0.192029
  H 5.177025 -1.337696 -4.026873
  H 4.029941 -0.048249 -4.136700
  H 2.261753 -1.493253 -3.133290
  H 3.457875 -2.793735 -2.925018
  H 2.682022 -1.529227 -5.601136
  H 2.058966 -3.055121 -4.983197
  H 3.764305 -2.904223 -5.374232
 31
 18.500074
  C 1.342680 0.405442 -0.015027
  C 2.552195 -0.241279 0.524833
  C 3.115841 0.079272 1.842313
  C 2.614205 1.349393 2.534533
  C 3.369308 1.580695 3.836867
  C 3.252416 -0.977294 -0.441917
  C 4.520849 -0.552043 -0.881983
  C 4.780381 -0.293215 -2.196160
  C 4.223955 -0.804387 -3.462273
  C 3.112741 -1.844930 -3.476001
  C 2.824515 -2.292776 -4.907161
  H 5.630807 0.352739 -2.374576
  H 0.752682 0.928951 0.728777
  H 0.722647 -0.284276 -0.584962
  H 1.758830 1.121505 -0.735960
  H 4.206483 0.091858 1.787051
  H 2.889958 -0.780981 2.486740
  H 1.552931 1.267282 2.761044
  H 2.760257 2.208093 1.880043
  H 3.153838 0.797451 4.555696
  H 3.078332 2.531328 4.278642
  H 4.445105 1.604231 3.667026
  H 2.665473 -1.585703 -1.111749
  H 5.150757 -0.061595 -0.151832
  H 5.089343 -1.225008 -3.993350
  H 3.920231 0.056113 -4.076687
  H 2.193502 -1.426356 -3.066439
  H 3.408219 -2.717364 -2.887638
  H 2.570865 -1.443963 -5.535346
  H 1.989339 -2.989528 -4.926656
  H 3.688550 -2.792488 -5.341815
 31
 26.320870
  C 1.552222 0.560233 -0.169987
  C 2.614992 -0.206109 0.501650
  C 3.124532 0.101323 1.842351
  C 2.592074 1.358561 2.525502
  C 3.290132 1.573837 3.863060
  C 3.286360 -1.061429 -0.396017
  C 4.558415 -0.656503 -0.869273
  C 4.717935 -0.300488 -2.171035
  C 4.101411 -0.762926 -3.435295
  C 3.091410 -1.904690 -3.441034
  C 2.757109 -2.310084 -4.875247
  H 5.564994 0.346246 -2.365896
  H 1.008738 1.232118 0.482659
  H 0.869973 -0.072056 -0.736566
  H 2.129972 1.131535 -0.915136
  H 4.220431 0.114115 1.829839
  H 2.874828 -0.770121 2.466151
  H 1.520974 1.271403 2.702096
  H 2.767227 2.225839 1.889594
  H 3.078231 0.756998 4.549807
  H 2.948568 2.495872 4.322245
  H 4.369197 1.643357 3.734830
  H 2.680656 -1.695540 -1.027115
  H 5.228634 -0.215111 -0.144224
  H 4.952196 -1.063865 -4.059410
  H 3.671011 0.101141 -3.949643
  H 2.162762 -1.597688 -2.955718
  H 3.503849 -2.770645 -2.919615
  H 2.313890 -1.481501 -5.419004
  H 2.051494 -3.135302 -4.881816
  H 3.651463 -2.629312 -5.409591
 31
 34.680764
  C 1.724809 0.510872 -0.284183
  C 2.730352 -0.240567 0.480821
  C 3.187783 0.115669 1.826406
  C 2.617539 1.386157 2.450696
  C 3.130713 1.556699 3.876139
  C 3.426362 -1.150706 -0.345719
  C 4.658273 -0.679400 -0.884814
  C 4.673433 -0.233018 -2.165175
  C 4.054539 -0.730340 -3.420123
  C 3.025291 -1.851154 -3.378505
  C 2.611007 -2.246246 -4.793149
  H 5.479191 0.459970 -2.386843
  H 1.186781 1.253690 0.286550
  H 1.043203 -0.127159 -0.850737
  H 2.362836 0.987954 -1.054978
  H 4.284848 0.149000 1.840368
  H 2.935185 -0.737738 2.472463
  H 1.529849 1.341436 2.475794
  H 2.914508 2.252849 1.859534
  H 2.805055 0.735472 4.508229
  H 2.752842 2.480465 4.305781
  H 4.219080 1.596123 3.898448
  H 2.839055 -1.845631 -0.930965
  H 5.363603 -0.245633 -0.188234
  H 4.901019 -1.075138 -4.023733
  H 3.637102 0.119217 -3.968519
  H 2.128140 -1.527122 -2.844147
  H 3.446927 -2.727063 -2.881121
  H 2.240088 -1.385091 -5.343546
  H 1.823534 -2.995850 -4.763965
  H 3.452636 -2.664663 -5.342749
 31
 45.504543
  C 1.923872 0.540744 -0.417687
  C 2.737280 -0.299447 0.471852
  C 3.071295 0.022339 1.859464
  C 2.573627 1.356744 2.407461
  C 3.153615 1.611433 3.793785
  C 3.475540 -1.246388 -0.287147
  C 4.679403 -0.703856 -0.847828
  C 4.588344 -0.178002 -2.090861
  C 3.916429 -0.626782 -3.344329
  C 3.011539 -1.850928 -3.329525
  C 2.584258 -2.209813 -4.749597
  H 5.388880 0.520685 -2.328606
  H 1.422496 1.369125 0.060859
  H 1.256442 -0.007992 -1.076875
  H 2.725467 0.883132 -1.125038
  H 4.157981 -0.057533 1.991021
  H 2.660899 -0.792560 2.477230
  H 1.487130 1.356445 2.476364
  H 2.878239 2.163768 1.743508
  H 2.871524 0.817916 4.488387
  H 2.783317 2.551289 4.190579
  H 4.240588 1.666524 3.758917
  H 2.907885 -1.948267 -0.885739
  H 5.447084 -0.350792 -0.172068
  H 4.736286 -0.826797 -4.042650
  H 3.363542 0.216695 -3.770080
  H 2.105972 -1.657180 -2.747917
  H 3.545267 -2.705245 -2.899266
  H 2.068419 -1.377643 -5.220656
  H 1.913617 -3.063916 -4.740562
  H 3.444775 -2.466224 -5.361215
 31
 57.694120
  C 1.986337 0.389925 -0.448562
  C 2.761785 -0.388314 0.494476
  C 3.154267 0.034502 1.836102
  C 2.615027 1.380963 2.313786
  C 3.107015 1.684978 3.725408
  C 3.476230 -1.392434 -0.234957
  C 4.673882 -0.841237 -0.800501
  C 4.477971 -0.154722 -1.962410
  C 3.864991 -0.558685 -3.265826
  C 2.993139 -1.808409 -3.323565
  C 2.528724 -2.071848 -4.752126
  H 5.245582 0.592454 -2.139603
  H 1.445606 1.243337 -0.065634
  H 1.434826 -0.161410 -1.208291
  H 2.876974 0.670263 -1.135533
  H 4.246951 -0.000619 1.924471
  H 2.795047 -0.744139 2.522388
  H 1.529186 1.369199 2.315393
  H 2.952584 2.174129 1.642193
  H 2.737748 0.949272 4.433501
  H 2.757297 2.662030 4.045126
  H 4.192311 1.686943 3.768531
  H 2.890951 -2.079437 -0.836954
  H 5.396527 -0.446883 -0.102293
  H 4.722263 -0.731674 -3.926813
  H 3.317219 0.287726 -3.694504
  H 2.102555 -1.696291 -2.699558
  H 3.567578 -2.669518 -2.980395
  H 1.957640 -1.229223 -5.135001
  H 1.894819 -2.955738 -4.791852
  H 3.378852 -2.236910 -5.412020
 31
 72.671967
  C 2.096516 0.459608 -0.450536
  C 2.766216 -0.316795 0.468178
  C 3.101016 0.018239 1.865002
  C 2.607418 1.377803 2.354948
  C 3.050289 1.618858 3.793221
  C 3.518521 -1.335018 -0.262506
  C 4.672344 -0.768085 -0.856192
  C 4.416512 -0.031431 -2.025848
  C 3.787021 -0.506564 -3.326652
  C 2.968295 -1.791477 -3.304412
  C 2.509465 -2.157492 -4.714881
  H 5.196966 0.691868 -2.241465
  H 1.650330 1.379676 -0.108052
  H 1.570043 0.009014 -1.282091
  H 3.309155 0.615059 -1.403363
  H 4.184169 -0.067269 2.004112
  H 2.662175 -0.761715 2.499020
  H 1.519183 1.421624 2.307676
  H 3.013791 2.166983 1.720589
  H 2.638639 0.864415 4.459571
  H 2.708518 2.592154 4.135391
  H 4.134247 1.594454 3.876026
  H 2.929205 -2.054446 -0.819459
  H 5.453106 -0.408592 -0.196921
  H 4.621964 -0.662573 -4.017089
  H 3.185523 0.299322 -3.752135
  H 2.075352 -1.674215 -2.687680
  H 3.574060 -2.609852 -2.910706
  H 1.901184 -1.364970 -5.142638
  H 1.917342 -3.068166 -4.697754
  H 3.362658 -2.322847 -5.369322
 31
 59.314130
  C 1.839190 0.430706 -0.281570
  C 2.608268 -0.309980 0.528527
  C 3.059270 0.004572 1.914546
  C 2.615302 1.369927 2.437692
  C 3.195002 1.626126 3.825521
  C 3.359320 -1.250751 -0.306080
  C 4.515900 -0.708027 -0.855179
  C 4.374354 0.065031 -2.094139
  C 3.850988 -0.498377 -3.422062
  C 2.973863 -1.741970 -3.375979
  C 2.644653 -2.221126 -4.789249
  H 5.232461 0.706648 -2.284313
  H 1.357445 1.314695 0.104413
  H 1.408858 0.047811 -1.190650
  H 3.528071 0.691944 -1.652177
  H 4.145380 -0.082867 1.981561
  H 2.651728 -0.773570 2.567387
  H 1.527735 1.410725 2.494837
  H 2.956170 2.155093 1.759721
  H 2.833771 0.891160 4.539405
  H 2.903206 2.614013 4.180771
  H 4.281724 1.580886 3.807088
  H 2.763627 -1.963866 -0.865758
  H 5.295932 -0.372239 -0.177219
  H 4.734105 -0.745959 -4.020562
  H 3.327844 0.296797 -3.950943
  H 2.029122 -1.527616 -2.871174
  H 3.492912 -2.543956 -2.850779
  H 2.088996 -1.465778 -5.334753
  H 2.042113 -3.127361 -4.753372
  H 3.552771 -2.441702 -5.343860
 31
 45.343790
  C 1.630210 0.548155 -0.096745
  C 2.585754 -0.138234 0.546385
  C 3.153098 0.136230 1.901178
  C 2.541691 1.333321 2.618824
  C 3.155582 1.496562 4.006108
  C 3.288913 -0.990205 -0.407978
  C 4.451399 -0.501814 -0.965280
  C 4.487548 0.086551 -2.318922
  C 4.025610 -0.652916 -3.580336
  C 2.977039 -1.745441 -3.441193
  C 2.637231 -2.343184 -4.805279
  H 5.437571 0.574558 -2.516461
  H 1.125016 1.378808 0.359791
  H 1.230136 0.215841 -1.039091
  H 3.748429 0.877469 -2.060034
  H 4.238465 0.264297 1.838916
  H 2.983464 -0.762268 2.499088
  H 1.466446 1.193839 2.721570
  H 2.718748 2.241059 2.043703
  H 3.006124 0.602032 4.604682
  H 2.693952 2.330797 4.527311
  H 4.225060 1.689179 3.938416
  H 2.664013 -1.671736 -0.966551
  H 5.240017 -0.167448 -0.301527
  H 4.918324 -1.105711 -4.019255
  H 3.664111 0.094981 -4.291462
  H 2.056547 -1.335343 -3.018446
  H 3.352666 -2.546721 -2.802184
  H 2.305515 -1.573428 -5.495699
  H 1.842132 -3.078585 -4.710230
  H 3.504540 -2.836701 -5.237337
 31
 35.962220
  C 1.384345 0.569041 0.093996
  C 2.472788 -0.073763 0.569473
  C 3.131486 0.154451 1.890274
  C 2.556256 1.303069 2.710858
  C 3.296215 1.435580 4.035212
  C 3.133659 -0.801619 -0.500427
  C 4.335707 -0.352098 -1.009221
  C 4.489205 0.125360 -2.398441
  C 4.113350 -0.700940 -3.632695
  C 3.000513 -1.733697 -3.522746
  C 2.807040 -2.454639 -4.853538
  H 5.480449 0.546205 -2.551753
  H 0.867256 1.324907 0.656180
  H 0.970877 0.316285 -0.865333
  H 3.791796 0.980026 -2.294570
  H 4.204025 0.310529 1.759114
  H 3.024119 -0.777148 2.456517
  H 1.501558 1.123589 2.912461
  H 2.647548 2.236426 2.159561
  H 3.191576 0.532153 4.629636
  H 2.896084 2.264488 4.610617
  H 4.356221 1.617668 3.871776
  H 2.494140 -1.422584 -1.105717
  H 5.075410 0.020236 -0.315403
  H 5.023492 -1.226820 -3.942207
  H 3.862105 -0.002086 -4.430692
  H 2.058641 -1.244016 -3.266438
  H 3.247480 -2.478733 -2.766721
  H 2.522425 -1.756932 -5.636206
  H 2.027143 -3.204741 -4.769270
  H 3.724082 -2.953730 -5.159458
 31
 32.821438
  C 1.296026 0.851660 0.214784
  C 2.384843 0.129195 0.567633
  C 3.100584 0.186309 1.875991
  C 2.604833 1.246230 2.848181
  C 3.430529 1.230952 4.125899
  C 2.959888 -0.531059 -0.600729
  C 4.181073 -0.168518 -1.113179
  C 4.270686 0.249613 -2.545328
  C 4.134297 -0.769539 -3.679132
  C 3.019450 -1.794810 -3.596828
  C 3.048976 -2.713291 -4.816827
  H 5.188478 0.810530 -2.705791
  H 0.871938 1.598316 0.860921
  H 0.827177 0.727710 -0.747856
  H 3.409281 0.953845 -2.541840
  H 4.175040 0.324984 1.715602
  H 2.985484 -0.803121 2.333137
  H 1.564181 1.060450 3.101339
  H 2.673524 2.230013 2.394108
  H 3.365189 0.265932 4.618304
  H 3.072916 1.984432 4.815547
  H 4.474753 1.436488 3.914552
  H 2.234946 -0.935941 -1.281111
  H 4.953228 0.167740 -0.445420
  H 5.085581 -1.310241 -3.723435
  H 4.028484 -0.207043 -4.605811
  H 2.046622 -1.296772 -3.576203
  H 3.132024 -2.409118 -2.702283
  H 2.941177 -2.143148 -5.735162
  H 2.238119 -3.434730 -4.768962
  H 3.987661 -3.260601 -4.865263
