 20
 0.000000
  H 1.375272 0.140283 0.400410
  C 2.445261 0.138532 0.395784
  H 3.014192 0.476454 1.236632
  C 3.056527 -0.326240 -0.761266
  C 4.434557 -0.412807 -0.977341
  C 5.116634 -0.862171 -2.097644
  C 4.626711 -1.386353 -3.404443
  C 3.136043 -1.505154 -3.701248
  C 2.912140 -2.067102 -5.102315
  O 6.441363 -0.854110 -2.077903
  H 2.395882 -0.642369 -1.548407
  H 5.050449 -0.080233 -0.149165
  H 5.083529 -2.374996 -3.529298
  H 5.083826 -0.758265 -4.177923
  H 2.660333 -0.524837 -3.647836
  H 2.660040 -2.176678 -2.985238
  H 3.350661 -1.419589 -5.858660
  H 1.846690 -2.148343 -5.305348
  H 3.350382 -3.057936 -5.201501
  H 6.799446 -0.516763 -1.236311
 20
 0.000000
  H 1.440403 0.098115 0.295319
  C 2.509753 0.112165 0.330061
  H 3.042318 0.458218 1.191187
  C 3.169972 -0.343211 -0.803603
  C 4.456365 -0.415716 -0.984606
  C 5.092801 -0.852600 -2.073794
  C 4.607900 -1.377430 -3.382205
  C 3.118380 -1.498210 -3.683939
  C 2.899860 -2.060452 -5.085737
  O 6.319648 -0.833911 -2.027533
  H 2.573472 -0.668639 -1.613940
  H 5.072485 -0.083203 -0.156575
  H 5.066441 -2.365465 -3.505545
  H 5.066736 -0.748734 -4.154170
  H 2.641195 -0.518526 -3.632103
  H 2.640904 -2.170367 -2.969505
  H 3.340020 -1.412356 -5.840629
  H 1.835196 -2.143108 -5.292293
  H 3.339743 -3.050703 -5.183471
  H 6.606348 -0.484542 -1.155939
 20
 0.000000
  H 1.507059 0.056243 0.190966
  C 2.573977 0.086634 0.266423
  H 3.067993 0.440536 1.147123
  C 3.283802 -0.358256 -0.841140
  C 4.476811 -0.417829 -0.989886
  C 5.070716 -0.843586 -2.051331
  C 4.590535 -1.369018 -3.361240
  C 3.102112 -1.491655 -3.667598
  C 2.888647 -2.054167 -5.070067
  O 6.197631 -0.816043 -1.982973
  H 2.752170 -0.693263 -1.675369
  H 5.093395 -0.085438 -0.162151
  H 5.050689 -2.356480 -3.483154
  H 5.050982 -0.739749 -4.131778
  H 2.623546 -0.512566 -3.617247
  H 2.623257 -2.164408 -2.954649
  H 3.330340 -1.405521 -5.823590
  H 1.824733 -2.138150 -5.279928
  H 3.330066 -3.043868 -5.166432
  H 6.406900 -0.453965 -1.079662
 20
 0.000000
  H 1.574875 0.015095 0.088417
  C 2.637375 0.062361 0.205923
  H 3.090576 0.423766 1.105336
  C 3.397333 -0.370875 -0.872630
  C 4.495966 -0.418770 -0.992243
  C 5.050903 -0.835379 -2.030882
  C 4.574927 -1.361343 -3.342113
  C 3.087493 -1.485631 -3.652583
  C 2.878529 -2.048378 -5.055635
  O 6.076441 -0.800867 -1.945125
  H 2.931964 -0.715925 -1.731908
  H 5.113380 -0.086595 -0.165041
  H 5.036512 -2.348293 -3.462753
  H 5.036803 -0.731562 -4.111377
  H 2.607704 -0.507075 -3.603556
  H 2.607417 -2.158916 -2.940959
  H 3.321584 -1.399242 -5.807936
  H 1.815294 -2.133542 -5.268436
  H 3.321311 -3.037589 -5.150778
  H 6.199968 -0.425581 -1.008847
 20
 0.000000
  H 1.643227 -0.024729 -0.010832
  C 2.699127 0.039918 0.149983
  H 3.109207 0.408402 1.067054
  C 3.509537 -0.380428 -0.896478
  C 4.513954 -0.418024 -0.990396
  C 5.034018 -0.828315 -2.013282
  C 4.561464 -1.354707 -3.325578
  C 3.074844 -1.480338 -3.639388
  C 2.869541 -2.043273 -5.042906
  O 5.957599 -0.788787 -1.914995
  H 3.112710 -0.736145 -1.782361
  H 5.132747 -0.086208 -0.164081
  H 5.024209 -2.341241 -3.445179
  H 5.024498 -0.724510 -4.093803
  H 2.594063 -0.502215 -3.591441
  H 2.593779 -2.154057 -2.928844
  H 3.313698 -1.393736 -5.794211
  H 1.806863 -2.129396 -5.258095
  H 3.313428 -3.032084 -5.137053
  H 5.984369 -0.400239 -0.945614
 20
 0.000000
  H 1.711086 -0.062347 -0.104584
  C 2.758027 0.020108 0.100605
  H 3.122766 0.395149 1.034037
  C 3.618863 -0.386080 -0.910603
  C 4.530959 -0.414886 -0.982583
  C 5.020880 -0.822851 -1.999669
  C 4.550634 -1.349530 -3.312678
  C 3.064567 -1.476066 -3.628738
  C 2.861731 -2.039126 -5.032564
  O 5.843165 -0.780262 -1.893728
  H 3.293880 -0.753211 -1.824948
  H 5.151939 -0.083639 -0.157681
  H 5.014160 -2.335782 -3.431578
  H 5.014446 -0.719050 -4.080202
  H 2.583118 -0.498236 -3.581519
  H 2.582837 -2.150077 -2.918921
  H 3.306628 -1.389318 -5.783196
  H 1.799433 -2.125896 -5.249360
  H 3.306362 -3.027666 -5.126038
  H 5.759074 -0.379211 -0.893132
 20
 0.000000
  H 1.776766 -0.096384 -0.189413
  C 2.812296 0.004120 0.060754
  H 3.129848 0.385070 1.008933
  C 3.722900 -0.386710 -0.912208
  C 4.547244 -0.408374 -0.966362
  C 5.012516 -0.819630 -1.991649
  C 4.543062 -1.346408 -3.304902
  C 3.057186 -1.473257 -3.621733
  C 2.855197 -2.036359 -5.025664
  O 5.736002 -0.775842 -1.882695
  H 3.474057 -0.766111 -1.857151
  H 5.171613 -0.078014 -0.143665
  H 5.006857 -2.332563 -3.423561
  H 5.007141 -0.715832 -4.072186
  H 2.575508 -0.495528 -3.574764
  H 2.575230 -2.147369 -2.912166
  H 3.300348 -1.386459 -5.776065
  H 1.793030 -2.123353 -5.243012
  H 3.300084 -3.024806 -5.118907
  H 5.523622 -0.364314 -0.855932
 20
 0.000000
  H 1.836001 -0.123906 -0.258004
  C 2.858204 -0.005964 0.035620
  H 3.128951 0.379968 0.996234
  C 3.815567 -0.380959 -0.897906
  C 4.562825 -0.397445 -0.939126
  C 5.010306 -0.819610 -1.991609
  C 4.539691 -1.346247 -3.304504
  C 3.053536 -1.472644 -3.620202
  C 2.850306 -2.035685 -5.023979
  O 5.642574 -0.776211 -1.883598
  H 3.645568 -0.773494 -1.875593
  H 5.192279 -0.068430 -0.119772
  H 5.003096 -2.332542 -3.423515
  H 5.003377 -0.715811 -4.072141
  H 2.572191 -0.494768 -3.572868
  H 2.571916 -2.146609 -2.910269
  H 3.295083 -1.385921 -5.774720
  H 1.787948 -2.122356 -5.240517
  H 3.294822 -3.024267 -5.117560
  H 5.284865 -0.358000 -0.840139
 20
 0.000000
  H 1.878267 -0.139554 -0.297001
  C 2.888238 -0.007789 0.031074
  H 3.121000 0.381565 1.000230
  C 3.881707 -0.369510 -0.869389
  C 4.576191 -0.383334 -0.903955
  C 5.014752 -0.823326 -2.000879
  C 4.541241 -1.349604 -3.312876
  C 3.054392 -1.474869 -3.625748
  C 2.848065 -2.037756 -5.029135
  O 5.577957 -0.781090 -1.895749
  H 3.780456 -0.775194 -1.879854
  H 5.212139 -0.056058 -0.088931
  H 5.003667 -2.336252 -3.432766
  H 5.003946 -0.719522 -4.081394
  H 2.573882 -0.496627 -3.577500
  H 2.573609 -2.148467 -2.914899
  H 3.291908 -1.388330 -5.780721
  H 1.785230 -2.123617 -5.243653
  H 3.291649 -3.026676 -5.123559
  H 5.079218 -0.360832 -0.847160
 20
 0.000000
  H 1.904421 -0.144014 -0.308112
  C 2.904354 -0.002017 0.045463
  H 3.108479 0.389559 1.020166
  C 3.923979 -0.353487 -0.829466
  C 4.587978 -0.366679 -0.862441
  C 5.024292 -0.830336 -2.018359
  C 4.546725 -1.356108 -3.329088
  C 3.058916 -1.479784 -3.637999
  C 2.848249 -2.042450 -5.040830
  O 5.538194 -0.789276 -1.916148
  H 3.880900 -0.773698 -1.876130
  H 5.231912 -0.041578 -0.052833
  H 5.007776 -2.343249 -3.450209
  H 5.008055 -0.726520 -4.098839
  H 2.579581 -0.501030 -3.588473
  H 2.579308 -2.152869 -2.925869
  H 3.290782 -1.393498 -5.793597
  H 1.784756 -2.127176 -5.252515
  H 3.290523 -3.031843 -5.136433
  H 4.902751 -0.370204 -0.870498
 20
 0.000000
  H 1.915039 -0.137502 -0.291875
  C 2.908088 0.011049 0.078034
  H 3.093631 0.403905 1.055932
  C 3.944207 -0.333657 -0.780049
  C 4.598400 -0.348110 -0.816154
  C 5.037785 -0.840316 -2.043241
  C 4.555510 -1.365493 -3.352484
  C 3.066599 -1.487322 -3.656786
  C 2.850892 -2.049725 -5.058957
  O 5.520275 -0.799985 -1.942838
  H 3.947819 -0.771709 -1.871162
  H 5.251921 -0.025674 -0.013188
  H 5.014959 -2.353206 -3.475028
  H 5.015236 -0.736478 -4.123661
  H 2.588636 -0.507974 -3.605779
  H 2.588363 -2.159811 -2.943173
  H 3.291897 -1.401323 -5.813092
  H 1.786644 -2.133130 -5.267348
  H 3.291639 -3.039667 -5.155925
  H 4.750470 -0.383562 -0.903781
 20
 0.000000
  H 1.910752 -0.120187 -0.248711
  C 2.900864 0.031062 0.127918
  H 3.078707 0.424412 1.107048
  C 3.943709 -0.310815 -0.723121
  C 4.607141 -0.328529 -0.767346
  C 5.054114 -0.852849 -2.074489
  C 4.567052 -1.377416 -3.382204
  C 3.077036 -1.497363 -3.681811
  C 2.856200 -2.059492 -5.083293
  O 5.521619 -0.812534 -1.974122
  H 3.980832 -0.772076 -1.872051
  H 5.271793 -0.009265 0.027712
  H 5.024863 -2.365709 -3.506192
  H 5.025139 -0.748982 -4.154828
  H 2.600474 -0.517411 -3.629302
  H 2.600202 -2.169248 -2.966692
  H 3.295646 -1.411648 -5.838817
  H 1.791196 -2.141552 -5.288329
  H 3.295388 -3.049990 -5.181647
  H 4.617292 -0.398431 -0.940836
 20
 0.000000
  H 1.893631 -0.093697 -0.182681
  C 2.884885 0.056512 0.191352
  H 3.065706 0.449673 1.170012
  C 3.925136 -0.286459 -0.662417
  C 4.613160 -0.309452 -0.719796
  C 5.071399 -0.866998 -2.109764
  C 4.580325 -1.391048 -3.416184
  C 3.089395 -1.509416 -3.711850
  C 2.864258 -2.071312 -5.112741
  O 5.537851 -0.825915 -2.007482
  H 3.980798 -0.777031 -1.884359
  H 5.289872 0.006280 0.066452
  H 5.036759 -2.379826 -3.541379
  H 5.037033 -0.763101 -4.190019
  H 2.614013 -0.528960 -3.658083
  H 2.613743 -2.180795 -2.995470
  H 3.302391 -1.423934 -5.869427
  H 1.798629 -2.152243 -5.314960
  H 3.302135 -3.062275 -5.212253
  H 4.498534 -0.412701 -0.976399
 20
 0.000000
  H 1.867470 -0.061657 -0.102822
  C 2.862917 0.084655 0.261497
  H 3.054840 0.477086 1.238335
  C 3.893417 -0.262378 -0.602397
  C 4.615012 -0.292285 -0.677008
  C 5.087106 -0.881524 -2.145980
  C 4.593735 -1.405279 -3.451654
  C 3.102287 -1.522743 -3.745060
  C 2.874687 -2.084504 -5.145608
  O 5.561701 -0.839014 -2.040144
  H 3.953312 -0.786851 -1.908784
  H 5.303691 0.019839 0.100240
  H 5.049379 -2.394334 -3.577537
  H 5.049651 -0.777610 -4.226181
  H 2.627581 -0.541998 -3.690576
  H 2.627313 -2.193832 -3.027959
  H 3.312066 -1.437394 -5.902958
  H 1.808704 -2.164790 -5.346212
  H 3.311812 -3.075733 -5.245780
  H 4.387894 -0.425847 -1.009157
