 23
 0.000000
  C 1.002021 0.053422 0.188961
  C 2.506671 0.053603 0.185738
  C 3.285106 -0.019337 1.478449
  C 2.477466 -0.092316 2.771708
  C 3.402051 -0.160645 3.982693
  C 3.140653 0.120294 -0.996155
  H 2.546335 0.171212 -1.898557
  C 4.565233 0.132202 -1.207126
  C 5.112392 0.200653 -2.420352
  O 6.441366 0.215864 -2.689888
  H 0.589106 -0.003038 1.189506
  H 0.625140 -0.796017 -0.378997
  H 0.625142 0.961364 -0.279830
  H 3.936818 0.858848 1.536429
  H 3.936826 -0.898472 1.437265
  H 1.840183 -0.979140 2.765340
  H 1.840177 0.789590 2.865147
  H 4.038570 -1.041639 3.930292
  H 2.823203 -0.212530 4.902151
  H 4.038562 0.720652 4.029726
  H 5.213912 0.083381 -0.341836
  H 4.529151 0.251798 -3.326804
  H 6.939381 0.169250 -1.863682
 23
 13.748996
  C 0.860719 0.052092 0.212521
  C 2.530791 0.051570 0.221758
  C 3.300875 -0.020920 1.506496
  C 2.485276 -0.093629 2.794963
  C 3.401994 -0.162313 4.012235
  C 3.198162 0.123316 -1.049704
  H 2.594017 0.173777 -1.944023
  C 4.617548 0.134944 -1.255718
  C 5.167076 0.203328 -2.467764
  O 6.496190 0.218315 -2.733337
  H 0.453044 -0.004341 1.212579
  H 0.499545 -0.797642 -0.359013
  H 0.499546 0.960731 -0.259789
  H 3.953286 0.857756 1.566611
  H 3.953290 -0.900777 1.467378
  H 1.847757 -0.979910 2.783228
  H 1.847754 0.788339 2.883008
  H 4.038721 -1.043474 3.963957
  H 2.817186 -0.213984 4.927919
  H 4.038717 0.718691 4.063388
  H 5.264363 0.086020 -0.388622
  H 4.585279 0.254533 -3.375275
  H 6.992013 0.171630 -1.905877
 23
 39.079960
  C 0.739293 0.052467 0.205868
  C 2.656521 0.049513 0.258250
  C 3.377456 -0.024006 1.561282
  C 2.497806 -0.094720 2.814326
  C 3.344132 -0.165774 4.073554
  C 3.241289 0.124278 -1.066798
  H 2.580291 0.171616 -1.905828
  C 4.639522 0.137724 -1.305004
  C 5.164048 0.207328 -2.538701
  O 6.489715 0.224106 -2.835979
  H 0.394834 -0.004547 1.216394
  H 0.485489 -0.815103 -0.381039
  H 0.485496 0.980553 -0.279712
  H 4.030185 0.852713 1.646085
  H 4.030180 -0.904684 1.546920
  H 1.859451 -0.978594 2.763637
  H 1.859446 0.789234 2.863389
  H 3.980021 -1.048087 4.058959
  H 2.710721 -0.215603 4.956404
  H 3.980020 0.712578 4.158311
  H 5.301878 0.089609 -0.452145
  H 4.556206 0.257840 -3.434011
  H 7.006145 0.178128 -2.020941
 23
 67.565335
  C 0.545052 0.051717 0.218964
  C 2.769655 0.048786 0.271150
  C 3.450943 -0.024503 1.570198
  C 2.532501 -0.092557 2.776007
  C 3.330743 -0.165821 4.074403
  C 3.293824 0.122124 -1.028570
  H 2.606244 0.168426 -1.849313
  C 4.692298 0.137457 -1.300162
  C 5.188408 0.207777 -2.546591
  O 6.496557 0.226023 -2.870072
  H 0.244881 -0.006560 1.252026
  H 0.338941 -0.830654 -0.371097
  H 0.338944 0.994871 -0.268080
  H 4.098500 0.846503 1.674806
  H 4.098496 -0.901725 1.576140
  H 1.891362 -0.973617 2.708298
  H 1.891330 0.790560 2.807843
  H 3.966041 -1.052618 4.086711
  H 2.659976 -0.214298 4.932897
  H 3.966053 0.713941 4.186396
  H 5.371647 0.089911 -0.457444
  H 4.564248 0.257324 -3.424898
  H 7.024729 0.180951 -2.071172
 23
 89.957697
  C 0.345902 0.051338 0.225630
  C 2.879006 0.048626 0.273958
  C 3.521088 -0.026082 1.598010
  C 2.557996 -0.092348 2.772094
  C 3.303403 -0.167383 4.101685
  C 3.343387 0.120366 -0.997346
  H 2.636092 0.166141 -1.808752
  C 4.748314 0.138680 -1.321710
  C 5.199468 0.209303 -2.573463
  O 6.513918 0.230478 -2.949042
  H 0.094675 -0.007870 1.275155
  H 0.204605 -0.840201 -0.367145
  H 0.204618 1.003921 -0.263071
  H 4.163677 0.846081 1.725577
  H 4.163688 -0.907064 1.626602
  H 1.919431 -0.973953 2.671002
  H 1.919393 0.795090 2.770841
  H 3.937380 -1.055068 4.139640
  H 2.598624 -0.214183 4.931561
  H 3.937359 0.710452 4.239263
  H 5.451602 0.092363 -0.500896
  H 4.540556 0.257590 -3.429514
  H 7.099584 0.184888 -2.141038
 23
 105.270605
  C 0.192271 0.048862 0.269638
  C 2.995583 0.047184 0.299453
  C 3.590509 -0.027934 1.630788
  C 2.561123 -0.092286 2.771259
  C 3.236260 -0.168823 4.127709
  C 3.422439 0.119089 -0.974845
  H 2.708788 0.163840 -1.768045
  C 4.823513 0.140452 -1.353307
  C 5.229646 0.212172 -2.624423
  O 6.501096 0.235456 -3.036946
  H -0.014141 -0.010088 1.314665
  H 0.105826 -0.837143 -0.317560
  H 0.105849 0.995321 -0.214151
  H 4.233581 0.858125 1.784319
  H 4.233580 -0.925638 1.683627
  H 1.929863 -0.965788 2.629836
  H 1.929974 0.791477 2.729002
  H 3.861780 -1.054004 4.195286
  H 2.494053 -0.213477 4.919822
  H 3.861747 0.703137 4.294397
  H 5.547190 0.095539 -0.557176
  H 4.545216 0.259144 -3.456895
  H 7.082998 0.192827 -2.281366
 23
 115.257468
  C 0.011645 0.045723 0.325230
  C 3.108949 0.046606 0.309833
  C 3.655644 -0.029616 1.660621
  C 2.574007 -0.091154 2.751048
  C 3.183100 -0.169673 4.142656
  C 3.496714 0.117243 -0.941876
  H 2.762980 0.161865 -1.732828
  C 4.889534 0.141720 -1.375385
  C 5.245835 0.213757 -2.652214
  O 6.529346 0.240466 -3.126205
  H -0.157557 -0.013663 1.378073
  H -0.025275 -0.856643 -0.270992
  H -0.025235 1.009417 -0.165641
  H 4.289284 0.855264 1.841833
  H 4.289263 -0.929228 1.741095
  H 1.948961 -0.961187 2.573328
  H 1.949027 0.793302 2.672343
  H 3.804645 -1.060725 4.241801
  H 2.398048 -0.212405 4.900337
  H 3.804623 0.704570 4.341370
  H 5.642875 0.098044 -0.601453
  H 4.521333 0.259448 -3.462411
  H 7.140270 0.199686 -2.403530
 23
 120.639285
  C -0.149788 0.042182 0.387986
  C 3.199951 0.045544 0.328315
  C 3.702917 -0.031374 1.691539
  C 2.581663 -0.090112 2.732740
  C 3.134408 -0.169944 4.147684
  C 3.564740 0.116989 -0.937976
  H 2.821211 0.160935 -1.716723
  C 4.948520 0.143349 -1.405106
  C 5.271868 0.216062 -2.693445
  O 6.535905 0.244450 -3.195825
  H -0.290737 -0.017257 1.441740
  H -0.139385 -0.852802 -0.200798
  H -0.139323 0.997712 -0.096365
  H 4.325041 0.848419 1.901292
  H 4.325040 -0.929197 1.800995
  H 1.958635 -0.961304 2.527799
  H 1.958638 0.798646 2.627090
  H 3.746714 -1.059735 4.271527
  H 2.323205 -0.210703 4.870259
  H 3.746708 0.700225 4.370803
  H 5.720951 0.100555 -0.646486
  H 4.532415 0.260508 -3.480660
  H 7.171232 0.204017 -2.479288
 23
 123.722638
  C -0.306486 0.037395 0.472692
  C 3.311825 0.045022 0.338112
  C 3.757007 -0.032556 1.712747
  C 2.576370 -0.089021 2.713343
  C 3.064925 -0.170202 4.151866
  C 3.645891 0.116371 -0.926081
  H 2.880149 0.159612 -1.692567
  C 5.016589 0.145157 -1.435880
  C 5.299711 0.218450 -2.735120
  O 6.541082 0.248767 -3.273834
  H -0.423857 -0.022193 1.528711
  H -0.253244 -0.855665 -0.110514
  H -0.253183 0.990368 -0.006297
  H 4.368236 0.841950 1.951224
  H 4.368225 -0.928318 1.851323
  H 1.957299 -0.962631 2.478909
  H 1.957255 0.805487 2.578670
  H 3.669910 -1.064030 4.303484
  H 2.221469 -0.208900 4.837455
  H 3.669914 0.700877 4.403083
  H 5.809280 0.103563 -0.699149
  H 4.537583 0.261395 -3.497151
  H 7.203447 0.209156 -2.571853
 23
 125.240485
  C -0.464557 0.031042 0.584798
  C 3.410867 0.044595 0.345863
  C 3.796802 -0.033677 1.732763
  C 2.569165 -0.087198 2.681055
  C 2.993045 -0.169408 4.137563
  C 3.725789 0.116136 -0.921550
  H 2.944904 0.158817 -1.678231
  C 5.080324 0.146626 -1.461062
  C 5.332872 0.220295 -2.767255
  O 6.566265 0.252347 -3.338263
  H -0.571694 -0.029115 1.650576
  H -0.382307 -0.861093 0.006645
  H -0.382240 0.982602 0.110686
  H 4.401911 0.843831 2.000432
  H 4.401857 -0.935643 1.899980
  H 1.959706 -0.956389 2.421715
  H 1.959695 0.805663 2.521158
  H 3.588096 -1.064019 4.315550
  H 2.120615 -0.205904 4.784173
  H 3.588109 0.699515 4.415096
  H 5.890316 0.106058 -0.742781
  H 4.551990 0.262225 -3.512029
  H 7.245808 0.213719 -2.653923
 23
 125.751960
  C -0.640541 0.023340 0.721804
  C 3.491269 0.044774 0.341794
  C 3.826675 -0.034488 1.746363
  C 2.567177 -0.084854 2.639493
  C 2.932534 -0.167837 4.109858
  C 3.793051 0.116124 -0.922511
  H 3.003820 0.158345 -1.671189
  C 5.144116 0.147685 -1.481123
  C 5.379579 0.221492 -2.789363
  O 6.601696 0.254501 -3.374556
  H -0.741368 -0.036559 1.783299
  H -0.545590 -0.871197 0.144631
  H -0.545488 0.977067 0.248962
  H 4.422330 0.842057 2.037933
  H 4.422159 -0.938098 1.937425
  H 1.966008 -0.951570 2.355837
  H 1.966038 0.808319 2.455135
  H 3.519448 -1.065951 4.311385
  H 2.032294 -0.202376 4.722328
  H 3.519526 0.701921 4.411165
  H 5.962834 0.107887 -0.775494
  H 4.592753 0.262772 -3.521701
  H 7.287524 0.216525 -2.701185
 23
 126.282900
  C -0.816099 0.015065 0.867323
  C 3.575602 0.045522 0.328582
  C 3.857375 -0.034243 1.742999
  C 2.550437 -0.082527 2.599164
  C 2.860888 -0.167203 4.100298
  C 3.862636 0.116157 -0.923726
  H 3.070713 0.157870 -1.664032
  C 5.209649 0.148891 -1.503072
  C 5.424817 0.222727 -2.811909
  O 6.634394 0.256743 -3.412909
  H -0.909883 -0.045195 1.935516
  H -0.717390 -0.883750 0.286267
  H -0.717284 0.973918 0.390791
  H 4.439907 0.834071 2.052944
  H 4.440067 -0.932152 1.953394
  H 1.961396 -0.942181 2.296154
  H 1.961401 0.805751 2.394730
  H 3.432317 -1.057442 4.323604
  H 1.940493 -0.199709 4.677082
  H 3.432004 0.691847 4.422086
  H 6.050753 0.109027 -0.795147
  H 4.616340 0.263938 -3.542894
  H 7.328264 0.219476 -2.751270
 23
 126.532620
  C -1.016213 0.006012 1.031718
  C 3.612203 0.045412 0.329428
  C 3.854297 -0.034579 1.746457
  C 2.549235 -0.079690 2.547111
  C 2.820392 -0.163699 4.035677
  C 3.903301 0.116235 -0.925569
  H 3.112565 0.158312 -1.670654
  C 5.250318 0.148506 -1.497835
  C 5.475261 0.222584 -2.809331
  O 6.694659 0.256465 -3.406194
  H -1.102575 -0.053912 2.093882
  H -0.929261 -0.876784 0.458518
  H -0.929154 0.946969 0.561869
  H 4.430125 0.837225 2.077323
  H 4.429990 -0.938120 1.977121
  H 1.965645 -0.942431 2.226262
  H 1.965857 0.813602 2.325431
  H 3.395602 -1.073655 4.275975
  H 1.879094 -0.194932 4.589444
  H 3.396375 0.714286 4.377253
  H 6.056220 0.109959 -0.814379
  H 4.680103 0.263696 -3.536186
  H 7.391888 0.218551 -2.734076
 23
 126.571117
  C -1.220894 -0.006796 1.245318
  C 3.631446 0.047470 0.293705
  C 3.844664 -0.033160 1.721562
  C 2.519503 -0.076996 2.494073
  C 2.760652 -0.160783 3.978338
  C 3.940275 0.117978 -0.953834
  H 3.158635 0.160855 -1.713521
  C 5.294689 0.149189 -1.502657
  C 5.536333 0.222903 -2.808907
  O 6.754413 0.254661 -3.383414
  H -1.293379 -0.066340 2.298301
  H -1.164996 -0.902412 0.661915
  H -1.164967 0.951525 0.765065
  H 4.418973 0.849508 2.070426
  H 4.418830 -0.948912 1.968643
  H 1.937755 -0.948881 2.158781
  H 1.937597 0.826932 2.259191
  H 3.322622 -1.062180 4.227804
  H 1.835785 -0.190362 4.496958
  H 3.324218 0.709352 4.328972
  H 6.128108 0.107852 -0.772939
  H 4.751523 0.264319 -3.547732
  H 7.443483 0.215850 -2.698625
