 22
 0.000000
  C 1.006681 0.120562 0.340582
  C 2.476074 0.129625 0.368155
  C 3.231395 0.602118 1.542634
  C 2.428278 1.077233 2.743123
  H 3.110459 1.392988 3.529496
  C 3.133471 -0.328381 -0.769413
  C 4.528068 -0.398530 -0.943190
  C 5.156428 -0.854567 -2.078185
  C 4.541183 -1.347959 -3.307504
  H 3.456972 -1.344023 -3.299589
  H 6.238816 -0.853973 -2.075789
  H 0.558066 0.498491 1.251207
  H 0.642990 -0.893761 0.160399
  H 0.648802 0.709930 -0.505479
  H 3.892611 1.412943 1.217967
  H 3.900592 -0.203537 1.863384
  H 1.803419 0.282576 3.144376
  H 1.797229 1.926281 2.490512
  H 2.506386 -0.657223 -1.586952
  H 5.161870 -0.072153 -0.130758
  H 4.903950 -2.358199 -3.507454
  H 4.905083 -0.757225 -4.150519
 22
 4.655310
  C 0.992710 0.187211 0.319529
  C 2.438510 0.142680 0.364197
  C 3.222828 0.606231 1.552095
  C 2.429140 1.067129 2.770958
  H 3.119183 1.383713 3.551452
  C 3.110735 -0.330836 -0.782238
  C 4.519133 -0.411337 -0.948184
  C 5.148410 -0.867699 -2.072938
  C 4.536402 -1.351239 -3.307120
  H 3.451646 -1.335112 -3.305748
  H 6.231571 -0.877366 -2.061099
  H 0.499103 0.529607 1.209128
  H 0.902170 -0.884303 0.164011
  H 0.588096 0.679626 -0.550606
  H 3.864664 1.431902 1.218514
  H 3.912687 -0.188378 1.860561
  H 1.820706 0.262021 3.175568
  H 1.788085 1.912651 2.535434
  H 2.482802 -0.657535 -1.606995
  H 5.149909 -0.089917 -0.136451
  H 4.888602 -2.366385 -3.506073
  H 4.910049 -0.759632 -4.146517
 22
 12.744199
  C 1.013708 0.242490 0.328803
  C 2.435442 0.162351 0.369700
  C 3.214479 0.594354 1.535709
  C 2.411527 1.041814 2.751101
  H 3.095670 1.354375 3.537409
  C 3.113195 -0.325367 -0.780925
  C 4.499928 -0.418184 -0.933627
  C 5.135219 -0.878435 -2.060829
  C 4.525369 -1.343886 -3.311992
  H 3.439038 -1.307516 -3.321211
  H 6.216905 -0.907452 -2.039695
  H 0.509569 0.616172 1.201328
  H 1.123461 -0.840538 0.302665
  H 0.554736 0.581340 -0.597939
  H 3.834737 1.430557 1.194334
  H 3.909138 -0.187529 1.833820
  H 1.803931 0.228775 3.146417
  H 1.767394 1.888474 2.517894
  H 2.491911 -0.639506 -1.608139
  H 5.132061 -0.101332 -0.109459
  H 4.859185 -2.364581 -3.514879
  H 4.915442 -0.750120 -4.142558
 22
 19.316245
  C 1.001154 0.281253 0.313029
  C 2.419749 0.158988 0.354825
  C 3.209097 0.587601 1.543087
  C 2.409702 1.033605 2.758637
  H 3.094741 1.327576 3.546656
  C 3.099858 -0.326561 -0.797393
  C 4.486166 -0.429321 -0.940054
  C 5.131004 -0.886708 -2.063324
  C 4.532781 -1.334912 -3.323965
  H 3.453590 -1.285908 -3.344489
  H 6.210248 -0.926816 -2.030658
  H 0.490190 0.729731 1.145911
  H 1.280183 -0.792181 0.465858
  H 0.508701 0.426814 -0.636605
  H 3.825083 1.424239 1.201795
  H 3.896093 -0.198657 1.841386
  H 1.791572 0.228591 3.144080
  H 1.782680 1.890890 2.533991
  H 2.484214 -0.626378 -1.631140
  H 5.110609 -0.124926 -0.111679
  H 4.853133 -2.354424 -3.530279
  H 4.934364 -0.739006 -4.141540
 22
 24.433840
  C 0.995563 0.316599 0.308754
  C 2.409884 0.161662 0.349445
  C 3.202821 0.580088 1.545288
  C 2.401722 1.021520 2.756376
  H 3.084631 1.292773 3.553188
  C 3.094968 -0.327915 -0.812101
  C 4.479699 -0.431905 -0.948913
  C 5.132120 -0.887213 -2.070096
  C 4.540885 -1.335910 -3.331134
  H 3.462253 -1.288248 -3.353339
  H 6.211107 -0.924458 -2.033854
  H 0.476267 0.815416 1.117586
  H 1.401924 -0.726806 0.587394
  H 0.482837 0.320601 -0.633287
  H 3.827525 1.412463 1.217150
  H 3.876337 -0.218520 1.838842
  H 1.765628 0.223819 3.126623
  H 1.793667 1.893897 2.538156
  H 2.477579 -0.625758 -1.644700
  H 5.097489 -0.130778 -0.120942
  H 4.861771 -2.355444 -3.535512
  H 4.942160 -0.737624 -4.146860
 22
 28.441726
  C 0.992103 0.336002 0.302957
  C 2.402815 0.146180 0.351762
  C 3.202941 0.570862 1.547267
  C 2.393687 1.024965 2.755969
  H 3.073094 1.286057 3.559413
  C 3.089737 -0.340284 -0.815570
  C 4.475767 -0.443769 -0.949502
  C 5.132313 -0.888700 -2.071309
  C 4.543679 -1.328932 -3.340007
  H 3.465280 -1.281388 -3.362639
  H 6.210455 -0.924705 -2.032340
  H 0.471498 0.852977 1.095053
  H 1.493076 -0.683191 0.658406
  H 0.464654 0.246897 -0.628991
  H 3.840475 1.398570 1.221988
  H 3.867467 -0.239473 1.846595
  H 1.740832 0.237659 3.121922
  H 1.801814 1.908172 2.532031
  H 2.471852 -0.629333 -1.647962
  H 5.095125 -0.147515 -0.112063
  H 4.865229 -2.350439 -3.551995
  H 4.946240 -0.721283 -4.152835
 22
 32.421174
  C 0.988104 0.353960 0.294878
  C 2.400128 0.132958 0.352592
  C 3.203314 0.565583 1.548505
  C 2.390940 1.020060 2.751120
  H 3.070545 1.281083 3.562810
  C 3.088335 -0.346831 -0.805204
  C 4.468416 -0.445559 -0.938734
  C 5.128404 -0.882978 -2.054621
  C 4.539418 -1.330404 -3.346597
  H 3.460135 -1.288888 -3.375300
  H 6.211116 -0.913189 -2.009879
  H 0.471011 0.863448 1.088884
  H 1.571723 -0.666330 0.673036
  H 0.451070 0.237433 -0.636185
  H 3.851580 1.402689 1.220956
  H 3.865779 -0.249475 1.850949
  H 1.736053 0.237381 3.112500
  H 1.805459 1.901180 2.524315
  H 2.487767 -0.634161 -1.629104
  H 5.072922 -0.154655 -0.115757
  H 4.865764 -2.349180 -3.560207
  H 4.940554 -0.720707 -4.155593
 22
 35.498271
  C 0.985531 0.371671 0.287260
  C 2.388848 0.122247 0.362273
  C 3.203738 0.564434 1.555381
  C 2.395048 1.024870 2.757270
  H 3.075744 1.285992 3.564613
  C 3.083681 -0.360658 -0.812051
  C 4.464490 -0.456681 -0.942121
  C 5.129661 -0.889510 -2.066656
  C 4.547409 -1.325308 -3.342456
  H 3.475846 -1.285864 -3.367657
  H 6.212741 -0.917111 -2.024361
  H 0.464139 0.871826 1.083435
  H 1.617822 -0.660336 0.686055
  H 0.452806 0.225991 -0.635270
  H 3.843193 1.388414 1.226258
  H 3.864706 -0.251581 1.859633
  H 1.733489 0.239031 3.125726
  H 1.806918 1.915136 2.526784
  H 2.465379 -0.652073 -1.654880
  H 5.075520 -0.161054 -0.106840
  H 4.874452 -2.339220 -3.560430
  H 4.944642 -0.711798 -4.146120
 22
 38.186456
  C 0.986068 0.390713 0.270205
  C 2.386747 0.108775 0.365899
  C 3.205405 0.561717 1.561995
  C 2.391542 1.025488 2.765065
  H 3.065201 1.287878 3.569774
  C 3.086882 -0.367444 -0.814599
  C 4.464280 -0.457663 -0.941466
  C 5.131417 -0.887751 -2.065229
  C 4.549391 -1.327677 -3.344156
  H 3.445097 -1.292130 -3.369107
  H 6.204339 -0.909428 -2.023165
  H 0.456878 0.881245 1.074371
  H 1.667527 -0.671626 0.688652
  H 0.459986 0.225975 -0.648635
  H 3.842542 1.385792 1.230256
  H 3.866263 -0.250185 1.869324
  H 1.739256 0.252602 3.128613
  H 1.813865 1.898320 2.536602
  H 2.476145 -0.653693 -1.646064
  H 5.079969 -0.160282 -0.092803
  H 4.883831 -2.345019 -3.562362
  H 4.946537 -0.709372 -4.151762
 22
 40.239285
  C 0.985293 0.412056 0.257778
  C 2.380903 0.096229 0.372327
  C 3.207654 0.560497 1.565585
  C 2.393710 1.028506 2.775273
  H 3.080694 1.297578 3.590386
  C 3.084061 -0.375653 -0.817146
  C 4.460791 -0.464010 -0.945498
  C 5.130727 -0.891394 -2.073599
  C 4.553825 -1.326626 -3.343743
  H 3.457603 -1.294644 -3.368119
  H 6.205888 -0.910039 -2.033030
  H 0.456042 0.889466 1.061346
  H 1.710928 -0.692583 0.699212
  H 0.461501 0.228049 -0.660435
  H 3.833453 1.374967 1.232083
  H 3.870129 -0.246332 1.872711
  H 1.731261 0.241576 3.148303
  H 1.802462 1.918519 2.541317
  H 2.479507 -0.655362 -1.635487
  H 5.070998 -0.171018 -0.101569
  H 4.890848 -2.336878 -3.562464
  H 4.948160 -0.708697 -4.144973
 22
 41.244766
  C 0.986536 0.440447 0.252813
  C 2.373685 0.078450 0.386949
  C 3.207380 0.559768 1.568253
  C 2.399868 1.027331 2.771121
  H 3.076804 1.297177 3.567832
  C 3.083433 -0.383823 -0.812808
  C 4.457463 -0.470765 -0.934322
  C 5.129253 -0.889157 -2.060180
  C 4.551833 -1.322281 -3.342215
  H 3.466756 -1.294812 -3.368381
  H 6.218508 -0.903836 -2.015988
  H 0.453254 0.901150 1.061786
  H 1.753544 -0.733701 0.719368
  H 0.458984 0.244948 -0.664507
  H 3.834274 1.388681 1.220360
  H 3.877278 -0.245191 1.879766
  H 1.745261 0.244586 3.147879
  H 1.810176 1.907081 2.537154
  H 2.463704 -0.665370 -1.651617
  H 5.064356 -0.184093 -0.087404
  H 4.894006 -2.336414 -3.568303
  H 4.945386 -0.697202 -4.142142
 22
 41.510123
  C 0.990535 0.471193 0.239604
  C 2.367041 0.060300 0.397942
  C 3.205586 0.563855 1.572684
  C 2.399565 1.026415 2.778005
  H 3.087388 1.308346 3.583536
  C 3.088230 -0.392406 -0.813392
  C 4.457476 -0.479767 -0.931491
  C 5.129858 -0.893509 -2.059859
  C 4.553434 -1.323961 -3.343833
  H 3.474763 -1.301356 -3.369687
  H 6.212678 -0.905038 -2.015473
  H 0.452248 0.920278 1.049455
  H 1.807759 -0.794334 0.735753
  H 0.459242 0.274571 -0.678685
  H 3.814141 1.396141 1.217729
  H 3.885309 -0.230562 1.886431
  H 1.756643 0.241243 3.155941
  H 1.799567 1.899534 2.544649
  H 2.467473 -0.669078 -1.653550
  H 5.063129 -0.199358 -0.083478
  H 4.898458 -2.333419 -3.573357
  H 4.948664 -0.689301 -4.149711
 22
 41.591202
  C 0.998160 0.496546 0.229066
  C 2.361312 0.039922 0.407816
  C 3.205276 0.567452 1.573129
  C 2.403584 1.025641 2.781814
  H 3.086239 1.311733 3.571987
  C 3.087123 -0.403016 -0.810068
  C 4.456299 -0.496426 -0.922760
  C 5.130160 -0.900854 -2.055531
  C 4.555499 -1.318626 -3.343418
  H 3.471120 -1.298642 -3.371855
  H 6.214952 -0.909627 -2.010036
  H 0.455828 0.938826 1.039523
  H 1.865212 -0.846891 0.751175
  H 0.469071 0.303850 -0.689819
  H 3.802429 1.411759 1.204131
  H 3.896598 -0.215236 1.888134
  H 1.767642 0.232533 3.167329
  H 1.793162 1.894779 2.550783
  H 2.463650 -0.671470 -1.654299
  H 5.061071 -0.220207 -0.073502
  H 4.903968 -2.323924 -3.581704
  H 4.950493 -0.679846 -4.139646
 22
 42.513031
  C 1.004816 0.515004 0.215045
  C 2.362581 0.034983 0.406541
  C 3.207201 0.574257 1.573504
  C 2.402608 1.018625 2.792557
  H 3.087737 1.308581 3.584054
  C 3.086942 -0.394162 -0.811875
  C 4.457320 -0.489636 -0.926879
  C 5.128833 -0.902007 -2.059672
  C 4.554294 -1.325119 -3.339918
  H 3.475875 -1.304320 -3.368775
  H 6.220799 -0.916336 -2.013558
  H 0.456870 0.956647 1.026924
  H 1.921885 -0.862350 0.750260
  H 0.481179 0.329919 -0.706207
  H 3.782249 1.415041 1.209983
  H 3.910670 -0.200963 1.884086
  H 1.776985 0.215655 3.175476
  H 1.788422 1.874913 2.572619
  H 2.470759 -0.661886 -1.652767
  H 5.063487 -0.225951 -0.071790
  H 4.901937 -2.329724 -3.569837
  H 4.952108 -0.691738 -4.143281
