 20
 0.000000
  C -0.726552 2.640356 3.073346
  C -0.286874 1.535917 2.117822
  C 0.188186 0.306929 2.899284
  C -1.407718 1.149850 1.173296
  O -2.535827 1.585406 1.291571
  C -1.063153 0.191931 0.062524
  H 0.095124 2.943333 3.717847
  H -1.548643 2.307182 3.703316
  H -1.067611 3.515586 2.523320
  H 0.531179 1.924398 1.505130
  H -0.632104 -0.128521 3.464822
  H 0.972882 0.581879 3.598548
  H 0.575974 -0.464781 2.240655
  H 0.006072 0.006054 0.012461
  H -1.383674 0.618231 -0.884351
  H -1.583053 -0.746684 0.231594
  O 2.978666 0.181956 0.051913
  H 3.171913 1.142044 0.095420
  H 2.015756 0.011257 0.004008
  H 3.392838 -0.302718 0.797032
 20
 0.979747
  C -0.699868 2.651130 3.065769
  C -0.240961 1.520289 2.149466
  C 0.140099 0.280430 2.970613
  C -1.328144 1.133961 1.162801
  O -2.471914 1.532466 1.261822
  C -0.926259 0.191340 0.065631
  H 0.093909 2.938170 3.749015
  H -1.565274 2.341405 3.649292
  H -0.993765 3.521971 2.483082
  H 0.616334 1.874467 1.573792
  H -0.732877 -0.071511 3.521806
  H 0.903551 0.543524 3.698760
  H 0.488370 -0.536922 2.351084
  H 0.152864 0.040711 0.000719
  H -1.299369 0.583089 -0.889344
  H -1.426927 -0.771205 0.233983
  O 2.826493 0.227990 -0.025190
  H 3.033739 1.187052 -0.013571
  H 1.852702 0.068239 -0.042450
  H 3.267111 -0.257894 0.708682
 20
 3.772047
  C -0.666225 2.643967 3.054894
  C -0.200261 1.511099 2.151776
  C 0.149395 0.275080 2.983086
  C -1.279325 1.121295 1.139541
  O -2.420576 1.521785 1.222033
  C -0.852811 0.176571 0.043160
  H 0.117888 2.923742 3.754795
  H -1.545448 2.344271 3.621426
  H -0.939821 3.517564 2.466834
  H 0.677785 1.860191 1.596789
  H -0.733264 -0.060506 3.519060
  H 0.902537 0.530221 3.723830
  H 0.497753 -0.550780 2.373050
  H 0.235513 0.043186 -0.004276
  H -1.218638 0.549890 -0.911108
  H -1.352707 -0.774178 0.207336
  O 2.664923 0.265782 0.009050
  H 2.856169 1.225974 -0.002247
  H 1.681151 0.090105 -0.019814
  H 3.094218 -0.208891 0.751412
 20
 7.675655
  C -0.676561 2.638365 3.049215
  C -0.186579 1.515474 2.155460
  C 0.168741 0.276290 2.995777
  C -1.239369 1.127469 1.139523
  O -2.387645 1.517124 1.207575
  C -0.801568 0.196994 0.046435
  H 0.087216 2.923535 3.757371
  H -1.563595 2.330935 3.600419
  H -0.949052 3.509783 2.453309
  H 0.697742 1.870728 1.618986
  H -0.727660 -0.073096 3.531403
  H 0.917631 0.542972 3.741435
  H 0.531894 -0.551400 2.392003
  H 0.305541 0.062197 -0.002992
  H -1.162463 0.570336 -0.911432
  H -1.283394 -0.768932 0.202022
  O 2.567298 0.251769 0.003652
  H 2.788970 1.202362 -0.013799
  H 1.549205 0.099919 -0.020546
  H 3.000039 -0.226354 0.747930
 20
 13.040259
  C -0.667705 2.638600 3.049864
  C -0.171875 1.508309 2.169512
  C 0.149698 0.274816 3.016513
  C -1.210622 1.118458 1.136395
  O -2.364097 1.496279 1.184115
  C -0.747460 0.193697 0.046606
  H 0.089040 2.919124 3.773180
  H -1.570303 2.340651 3.587479
  H -0.920105 3.514220 2.445910
  H 0.732856 1.855116 1.645969
  H -0.753666 -0.059094 3.540631
  H 0.892819 0.527654 3.765873
  H 0.505322 -0.550142 2.423764
  H 0.366663 0.084267 -0.002482
  H -1.111967 0.553578 -0.918805
  H -1.208387 -0.785018 0.207545
  O 2.491014 0.261591 -0.011382
  H 2.736248 1.211059 -0.051442
  H 1.435994 0.124620 -0.021771
  H 2.924420 -0.200730 0.722555
 20
 21.722218
  C -0.682943 2.652455 3.058551
  C -0.173558 1.510619 2.181871
  C 0.135485 0.271621 3.038331
  C -1.199572 1.117649 1.141497
  O -2.357616 1.483951 1.183345
  C -0.729691 0.196878 0.046034
  H 0.067178 2.934252 3.794769
  H -1.591127 2.357639 3.584225
  H -0.925604 3.524713 2.452281
  H 0.729561 1.847080 1.675061
  H -0.766710 -0.049259 3.553739
  H 0.871505 0.520704 3.792949
  H 0.487861 -0.561628 2.451305
  H 0.417098 0.100232 -0.010985
  H -1.100833 0.552395 -0.916747
  H -1.169325 -0.788965 0.211342
  O 2.492809 0.252278 -0.044077
  H 2.767017 1.195075 -0.096351
  H 1.357071 0.137830 -0.048168
  H 2.924999 -0.210300 0.682337
 20
 32.577899
  C -0.702328 2.665931 3.070638
  C -0.184680 1.514714 2.200614
  C 0.113028 0.268541 3.064400
  C -1.205710 1.121582 1.148906
  O -2.363454 1.480043 1.183684
  C -0.740142 0.200682 0.047518
  H 0.040101 2.948709 3.816627
  H -1.615651 2.376018 3.584903
  H -0.933361 3.535873 2.459603
  H 0.724330 1.845054 1.704298
  H -0.791754 -0.045352 3.575607
  H 0.850757 0.516496 3.824391
  H 0.471031 -0.574239 2.473818
  H 0.448655 0.111045 -0.024686
  H -1.107826 0.551413 -0.913357
  H -1.154428 -0.789495 0.213693
  O 2.544424 0.241505 -0.094036
  H 2.832379 1.170357 -0.164678
  H 1.292696 0.140919 -0.058977
  H 2.985798 -0.211986 0.640972
 20
 47.187511
  C -0.728315 2.673053 3.083192
  C -0.217664 1.514210 2.225317
  C 0.056370 0.272477 3.095180
  C -1.231486 1.131382 1.168716
  O -2.387008 1.499670 1.190942
  C -0.771587 0.204715 0.074562
  H 0.008990 2.949238 3.833564
  H -1.649847 2.396891 3.589680
  H -0.941983 3.541923 2.466306
  H 0.699846 1.829830 1.735884
  H -0.855784 -0.026705 3.601830
  H 0.791160 0.514893 3.857069
  H 0.407389 -0.574899 2.512737
  H 0.522955 0.097189 0.015572
  H -1.125104 0.554931 -0.892104
  H -1.189742 -0.785121 0.240734
  O 2.663800 0.242193 -0.203416
  H 2.939980 1.172041 -0.255055
  H 1.292741 0.122779 -0.037610
  H 3.166619 -0.238778 0.475919
 20
 63.371244
  C -0.755868 2.676971 3.099122
  C -0.249344 1.522111 2.239544
  C 0.029998 0.283104 3.116272
  C -1.264381 1.134718 1.191355
  O -2.422222 1.493793 1.197703
  C -0.847685 0.216566 0.086024
  H -0.017632 2.950653 3.846840
  H -1.678807 2.399342 3.606883
  H -0.970112 3.549620 2.482049
  H 0.676818 1.832476 1.757320
  H -0.884865 -0.019433 3.628232
  H 0.765853 0.533411 3.875473
  H 0.384233 -0.562848 2.536403
  H 0.550011 0.087187 0.006892
  H -1.188393 0.571970 -0.878212
  H -1.247667 -0.778477 0.249328
  O 2.827443 0.219947 -0.265912
  H 3.111529 1.151191 -0.308825
  H 1.265659 0.106439 -0.049880
  H 3.319979 -0.263908 0.396364
 20
 78.619870
  C -0.802404 2.683896 3.119709
  C -0.277797 1.536027 2.258529
  C -0.007439 0.297197 3.133795
  C -1.303364 1.145658 1.229803
  O -2.461018 1.496246 1.232961
  C -0.929729 0.229322 0.110667
  H -0.068010 2.964364 3.869788
  H -1.722779 2.394195 3.624945
  H -1.025170 3.555886 2.504539
  H 0.644546 1.848785 1.768934
  H -0.922815 0.001739 3.647223
  H 0.732550 0.542605 3.888662
  H 0.339742 -0.549883 2.553789
  H 0.573792 0.068421 0.001502
  H -1.265189 0.603034 -0.849561
  H -1.328126 -0.767878 0.272159
  O 3.043707 0.190409 -0.359216
  H 3.336557 1.105453 -0.387340
  H 1.248981 0.076600 -0.066343
  H 3.552189 -0.302630 0.293501
 20
 81.732760
  C -0.908579 2.716185 3.179841
  C -0.382930 1.543996 2.338417
  C -0.090189 0.315029 3.215087
  C -1.351025 1.167923 1.288242
  O -2.521764 1.481939 1.189620
  C -1.084679 0.262363 0.158520
  H -0.182808 2.990456 3.936430
  H -1.838930 2.452363 3.673083
  H -1.098183 3.584779 2.552347
  H 0.560390 1.865956 1.874489
  H -1.001194 -0.008416 3.724976
  H 0.640672 0.585861 3.965841
  H 0.292496 -0.518522 2.631624
  H 0.506486 0.009175 -0.000824
  H -1.350550 0.670872 -0.811800
  H -1.484691 -0.740245 0.300850
  O 3.516596 0.122541 -0.616914
  H 3.818723 1.036954 -0.616168
  H 1.213894 -0.040944 -0.129435
  H 4.049006 -0.369813 0.019281
 20
 88.712103
  C -0.982907 2.726329 3.218759
  C -0.427547 1.574187 2.381158
  C -0.147560 0.334726 3.253715
  C -1.387022 1.195382 1.328661
  O -2.558667 1.484076 1.188501
  C -1.167136 0.294950 0.197742
  H -0.268718 3.011683 3.984667
  H -1.910643 2.441188 3.704009
  H -1.185204 3.592029 2.591134
  H 0.505296 1.891919 1.908720
  H -1.062712 0.011643 3.748847
  H 0.575702 0.597657 4.015571
  H 0.244743 -0.492378 2.670722
  H 0.545814 -0.032066 -0.017463
  H -1.406965 0.700475 -0.780904
  H -1.571585 -0.706750 0.335557
  O 3.773113 0.060731 -0.745800
  H 4.088257 0.972542 -0.762968
  H 1.224307 -0.099006 -0.156563
  H 4.330566 -0.420998 -0.126420
 20
 89.275115
  C -1.127601 2.752308 3.289508
  C -0.504089 1.629728 2.464609
  C -0.231789 0.375646 3.329708
  C -1.400275 1.214670 1.402166
  O -2.579572 1.390944 1.130487
  C -1.282656 0.355911 0.253253
  H -0.458940 3.038090 4.094596
  H -2.072700 2.436472 3.719059
  H -1.316063 3.623273 2.672169
  H 0.434929 1.963462 2.020139
  H -1.151311 0.031008 3.795474
  H 0.465812 0.645617 4.116509
  H 0.195740 -0.432474 2.744614
  H 0.634166 -0.084654 -0.035816
  H -1.487187 0.790484 -0.721408
  H -1.705207 -0.640615 0.364531
  O 4.146764 -0.062989 -0.999394
  H 4.488295 0.839853 -1.021542
  H 1.319685 -0.184863 -0.203226
  H 4.730666 -0.551974 -0.412611
