 13
 0.000000
  H 3.588662 -0.601499 -0.992783
  C 4.662372 -0.608295 -1.006122
  C 5.375163 -1.119112 -2.008941
  C 6.817440 -1.130753 -2.031792
  C 7.533011 -1.641508 -3.034496
  C 9.023642 -1.661066 -3.072887
  H 5.162332 -0.173934 -0.153403
  H 4.870462 -1.553817 -2.862337
  H 7.324508 -0.696709 -1.179691
  H 7.033644 -2.077323 -3.890058
  H 9.461019 -1.207994 -2.183435
  H 9.382027 -1.116783 -3.947321
  H 9.382026 -2.688401 -3.146767
 13
 3.581048
  H 3.611178 -0.607479 -1.004530
  C 4.687338 -0.606285 -1.002175
  C 5.397328 -1.116152 -2.003123
  C 6.841872 -1.132990 -2.036171
  C 7.555239 -1.643527 -3.038447
  C 9.022724 -1.676141 -3.102485
  H 5.164321 -0.167549 -0.140882
  H 4.896430 -1.551843 -2.858456
  H 7.343341 -0.696847 -1.179961
  H 7.026524 -2.073837 -3.883219
  H 9.232780 -1.200705 -2.169117
  H 9.418305 -1.114982 -3.947059
  H 9.418299 -2.689244 -3.145166
 13
 12.569164
  H 3.636969 -0.606718 -1.003018
  C 4.711713 -0.606460 -1.002531
  C 5.417274 -1.117328 -2.005448
  C 6.855694 -1.135693 -2.041486
  C 7.564669 -1.648606 -3.048410
  C 9.033412 -1.684765 -3.119395
  H 5.189442 -0.168069 -0.141889
  H 4.913998 -1.551439 -2.857665
  H 7.349768 -0.697733 -1.181709
  H 6.995268 -2.073890 -3.883318
  H 9.031030 -1.201393 -2.170449
  H 9.450962 -1.097677 -3.930551
  H 9.450933 -2.686037 -3.121446
 13
 25.125464
  H 3.634242 -0.606148 -1.001905
  C 4.714704 -0.605233 -1.000103
  C 5.423249 -1.116584 -2.003971
  C 6.866614 -1.133544 -2.037295
  C 7.576914 -1.646924 -3.045151
  C 9.055154 -1.693935 -3.137447
  H 5.191435 -0.166049 -0.137914
  H 4.921009 -1.551695 -2.858168
  H 7.352785 -0.692903 -1.172244
  H 6.993355 -2.058985 -3.854083
  H 8.889785 -1.217314 -2.201767
  H 9.476873 -1.092230 -3.930764
  H 9.476920 -2.689515 -3.117182
 13
 38.941037
  H 3.633436 -0.609165 -1.007796
  C 4.714760 -0.605678 -1.000971
  C 5.427166 -1.114438 -1.999765
  C 6.872311 -1.127712 -2.025867
  C 7.585075 -1.640557 -3.032665
  C 9.081240 -1.699180 -3.147736
  H 5.188485 -0.163734 -0.133369
  H 4.931597 -1.549279 -2.853424
  H 7.351298 -0.683131 -1.153086
  H 6.973351 -2.057003 -3.850207
  H 8.782726 -1.232811 -2.232195
  H 9.496067 -1.088595 -3.933775
  H 9.496115 -2.694114 -3.116011
 13
 52.334002
  H 3.635338 -0.609503 -1.008542
  C 4.708457 -0.603610 -0.996949
  C 5.426608 -1.111305 -1.993596
  C 6.871575 -1.120891 -2.012378
  C 7.591666 -1.633602 -3.018862
  C 9.108398 -1.702572 -3.154155
  H 5.174590 -0.162654 -0.131240
  H 4.931535 -1.551809 -2.858404
  H 7.339104 -0.678130 -1.143160
  H 6.972691 -2.046008 -3.828515
  H 8.707727 -1.251684 -2.269011
  H 9.507778 -1.086491 -3.943467
  H 9.507470 -2.702716 -3.119888
 13
 63.864860
  H 3.615890 -0.612618 -1.014513
  C 4.698493 -0.603352 -0.996367
  C 5.424373 -1.108732 -1.988546
  C 6.872120 -1.114671 -2.000391
  C 7.597254 -1.625854 -3.003957
  C 9.129924 -1.706378 -3.162040
  H 5.155996 -0.163412 -0.132680
  H 4.942932 -1.543786 -2.842612
  H 7.334170 -0.672941 -1.133230
  H 6.973257 -2.041039 -3.818997
  H 8.653937 -1.267352 -2.300186
  H 9.512043 -1.092185 -3.952070
  H 9.512274 -2.707145 -3.129698
 13
 73.650121
  H 3.617006 -0.616601 -1.022564
  C 4.688056 -0.603925 -0.997644
  C 5.421009 -1.107325 -1.985786
  C 6.864303 -1.108099 -1.987230
  C 7.598648 -1.618624 -2.989293
  C 9.150076 -1.709108 -3.166544
  H 5.142891 -0.158925 -0.123760
  H 4.937072 -1.552344 -2.859458
  H 7.324882 -0.660787 -1.109016
  H 6.975122 -2.032334 -3.801537
  H 8.612154 -1.280473 -2.325257
  H 9.511500 -1.092075 -3.970036
  H 9.510656 -2.720233 -3.139770
 13
 82.068736
  H 3.603556 -0.621064 -1.032422
  C 4.670037 -0.605009 -0.999800
  C 5.410998 -1.106218 -1.983266
  C 6.862690 -1.102694 -1.976189
  C 7.605570 -1.611362 -2.974320
  C 9.173497 -1.712025 -3.170923
  H 5.117303 -0.158727 -0.123027
  H 4.943098 -1.543285 -2.841567
  H 7.311279 -0.660078 -1.107009
  H 6.982024 -2.025095 -3.786803
  H 8.587358 -1.293525 -2.349729
  H 9.506201 -1.098386 -3.987770
  H 9.503497 -2.728040 -3.154452
 13
 89.177696
  H 3.578672 -0.625083 -1.041533
  C 4.663690 -0.606178 -1.000812
  C 5.412314 -1.104903 -1.979569
  C 6.853840 -1.094921 -1.962131
  C 7.604537 -1.601344 -2.956533
  C 9.197124 -1.713121 -3.175886
  H 5.100545 -0.161791 -0.128709
  H 4.944219 -1.550491 -2.854839
  H 7.301919 -0.644128 -1.077117
  H 6.985926 -2.018857 -3.776100
  H 8.565786 -1.300142 -2.365085
  H 9.491688 -1.110627 -4.008432
  H 9.491575 -2.742044 -3.177594
 13
 95.394872
  H 3.571033 -0.637699 -1.045894
  C 4.638982 -0.604082 -1.006254
  C 5.394744 -1.099323 -1.981585
  C 6.843300 -1.087564 -1.954064
  C 7.601206 -1.593290 -2.943300
  C 9.229550 -1.712722 -3.175914
  H 5.073654 -0.162045 -0.120951
  H 4.937896 -1.545150 -2.848309
  H 7.282517 -0.638524 -1.074336
  H 7.003849 -2.013399 -3.766127
  H 8.549253 -1.308626 -2.385513
  H 9.481803 -1.127362 -4.029457
  H 9.484245 -2.758952 -3.202346
 13
 100.744027
  H 3.546767 -0.620569 -1.063447
  C 4.621059 -0.614183 -1.003339
  C 5.383919 -1.110929 -1.972610
  C 6.828060 -1.089502 -1.937490
  C 7.594680 -1.589128 -2.922835
  C 9.269051 -1.716541 -3.173295
  H 5.048992 -0.155049 -0.128006
  H 4.930726 -1.552456 -2.854183
  H 7.262812 -0.639822 -1.051019
  H 7.024692 -2.011882 -3.756416
  H 8.540632 -1.326074 -2.403801
  H 9.470027 -1.136841 -4.073514
  H 9.464654 -2.753178 -3.234406
 13
 104.771491
  H 3.516926 -0.640491 -1.067494
  C 4.593548 -0.608094 -1.011259
  C 5.364119 -1.099102 -1.976804
  C 6.809744 -1.074828 -1.930698
  C 7.584769 -1.573976 -2.907260
  C 9.324843 -1.716775 -3.186375
  H 5.013935 -0.166696 -0.125199
  H 4.920865 -1.547708 -2.851399
  H 7.238838 -0.622175 -1.043830
  H 7.039782 -2.004196 -3.749131
  H 8.541545 -1.330884 -2.431260
  H 9.456454 -1.169560 -4.094391
  H 9.459129 -2.782384 -3.274769
 13
 107.839627
  H 3.490432 -0.644593 -1.075558
  C 4.561431 -0.605079 -1.016255
  C 5.337559 -1.093891 -1.978685
  C 6.782315 -1.063805 -1.924835
  C 7.566133 -1.565327 -2.892640
  C 9.389364 -1.729951 -3.201221
  H 4.977509 -0.186401 -0.113266
  H 4.897708 -1.553229 -2.856431
  H 7.205647 -0.608243 -1.036914
  H 7.053622 -2.001536 -3.738603
  H 8.542633 -1.350536 -2.471149
  H 9.461416 -1.194204 -4.134923
  H 9.458246 -2.799620 -3.303247
