 11
 0.000000
  H 1.343750 0.142575 0.404346
  C 2.418174 0.115598 0.338394
  H 2.982001 0.457959 1.191910
  C 3.041785 -0.337029 -0.788605
  C 4.438949 -0.379037 -0.893919
  C 5.124823 -0.830341 -2.018774
  H 4.601440 -1.185703 -2.903769
  O 6.399469 -0.869131 -2.116305
  H 2.451425 -0.674845 -1.630052
  H 5.031965 -0.040363 -0.051190
  H 6.895295 -0.552133 -1.326623
 11
 19.118337
  H 1.409695 0.165289 0.465017
  C 2.480782 0.119346 0.347776
  H 3.096647 0.451025 1.171040
  C 3.044700 -0.349432 -0.820153
  C 4.499948 -0.421302 -1.000969
  C 5.081752 -0.864061 -2.104342
  H 4.666207 -1.236084 -3.032115
  O 6.303350 -0.798415 -1.940273
  H 2.410515 -0.675658 -1.629414
  H 5.077141 -0.080547 -0.155196
  H 6.657078 -0.461909 -1.094306
 11
 68.880913
  H 1.449823 0.192853 0.534023
  C 2.507522 0.132344 0.378747
  H 3.159791 0.448945 1.167307
  C 3.030748 -0.361708 -0.851052
  C 4.572141 -0.454194 -1.082653
  C 5.067443 -0.897770 -2.187865
  H 4.760367 -1.277889 -3.136520
  O 6.232115 -0.754053 -1.829029
  H 2.371858 -0.677951 -1.635268
  H 5.070190 -0.097727 -0.196313
  H 6.510430 -0.405347 -0.955770
 11
 121.883517
  H 1.415448 0.200900 0.562730
  C 2.467004 0.146832 0.374692
  H 3.112638 0.449881 1.189109
  C 2.879674 -0.336436 -0.793340
  C 4.750125 -0.463364 -1.114610
  C 5.036917 -0.916496 -2.248537
  H 4.752906 -1.298947 -3.207295
  O 6.274841 -0.744296 -1.789647
  H 2.330073 -0.693908 -1.634331
  H 5.059965 -0.071701 -0.170463
  H 6.661254 -0.425039 -0.962454
 11
 145.123362
  H 1.254692 0.242229 0.697188
  C 2.297648 0.171658 0.412234
  H 2.988558 0.414052 1.201005
  C 2.644349 -0.300768 -0.751925
  C 5.001785 -0.461140 -1.136969
  C 5.115258 -0.949282 -2.291449
  H 4.797754 -1.341547 -3.229623
  O 6.439546 -0.756564 -1.848984
  H 2.127363 -0.660446 -1.612659
  H 5.133547 -0.040819 -0.173892
  H 6.947325 -0.473652 -1.060920
 11
 151.460340
  H 1.046180 0.329337 0.809894
  C 2.077046 0.208329 0.490661
  H 2.793402 0.454681 1.262140
  C 2.404580 -0.297724 -0.659614
  C 5.228489 -0.481707 -1.198298
  C 5.265476 -0.982438 -2.349274
  H 4.936420 -1.335531 -3.299426
  O 6.628309 -0.761052 -1.940922
  H 1.867585 -0.637520 -1.518115
  H 5.271681 -0.109610 -0.205247
  H 7.212666 -0.549104 -1.179239
 11
 150.701642
  H 0.858967 0.421755 0.899264
  C 1.879576 0.210136 0.583964
  H 2.604797 0.475232 1.334295
  C 2.188995 -0.293972 -0.561713
  C 5.461189 -0.478428 -1.260501
  C 5.368519 -0.994705 -2.406347
  H 5.054178 -1.387096 -3.346278
  O 6.790631 -0.733726 -2.019435
  H 1.681074 -0.606800 -1.447286
  H 5.353059 -0.153633 -0.250921
  H 7.443509 -0.624199 -1.290484
 11
 149.605820
  H 0.693820 0.438779 0.993789
  C 1.711127 0.240289 0.660441
  H 2.454711 0.521271 1.385525
  C 2.014448 -0.272689 -0.487008
  C 5.613657 -0.473141 -1.333776
  C 5.474392 -1.008307 -2.472403
  H 5.164102 -1.420371 -3.401184
  O 6.900336 -0.711550 -2.056284
  H 1.505189 -0.596667 -1.367448
  H 5.493871 -0.179544 -0.314434
  H 7.579472 -0.713380 -1.341878
 11
 146.689947
  H 0.512524 0.429239 1.094651
  C 1.529579 0.267917 0.736530
  H 2.280296 0.577841 1.439386
  C 1.814524 -0.237916 -0.414440
  C 5.792558 -0.464109 -1.403307
  C 5.593247 -1.023254 -2.525052
  H 5.235530 -1.444410 -3.432979
  O 7.043875 -0.696072 -2.119274
  H 1.312531 -0.591161 -1.287075
  H 5.676609 -0.189899 -0.376924
  H 7.712140 -0.830225 -1.403878
 11
 129.565566
  H 0.199022 0.469535 1.187535
  C 1.221727 0.322668 0.838229
  H 1.964332 0.653562 1.546578
  C 1.533719 -0.241055 -0.275872
  C 6.044579 -0.388752 -1.410319
  C 5.835201 -1.005316 -2.517127
  H 5.468891 -1.440857 -3.417428
  O 7.240708 -0.598623 -2.208648
  H 1.069987 -0.648994 -1.143905
  H 5.920580 -0.090907 -0.392338
  H 7.863124 -1.282401 -1.837040
 11
 128.320518
  H -0.106532 0.503567 1.281098
  C 0.931585 0.350518 0.973967
  H 1.647280 0.705082 1.701752
  C 1.280202 -0.213480 -0.130635
  C 6.229637 -0.448875 -1.507510
  C 6.066472 -1.050852 -2.617599
  H 5.673104 -1.456578 -3.522161
  O 7.462564 -0.651135 -2.306961
  H 0.805903 -0.633657 -0.987712
  H 6.116178 -0.105099 -0.504058
  H 8.044141 -1.386530 -1.974151
