12

C 0.974207 0.139661 0.400006
C 2.453703 0.138582 0.396402
C 3.237667 0.608754 1.565702
H 2.6913989208173033 0.9517530831265704 2.419424914440264
C 3.063474 -0.326113 -0.760314
H 4.118502187125177 -0.39242896566739854 -0.9258969612881789
H 0.527037 0.508474 1.317867
H 0.606077 -0.873661 0.232479
H 0.605575 0.754993 -0.422124
H 3.893295 1.421734 1.233051
H 3.893699 -0.208006 1.888093
H 2.402873 -0.643203 -1.549309
