 12
 0.000000
  C 0.967920 0.152121 0.430928
  C 2.428226 0.138911 0.397148
  C 3.233390 0.592385 1.524893
  H 2.638254 0.930313 2.366659
  C 3.056890 -0.321990 -0.749985
  H 4.130087 -0.357232 -0.838237
  H 0.553853 0.526334 1.362226
  H 0.580842 -0.854145 0.241512
  H 0.580385 0.747311 -0.402001
  H 3.911171 1.391239 1.206627
  H 3.911703 -0.204149 1.847631
  H 2.474788 -0.660559 -1.592020
 12
 -0.028545
  C 0.963431 0.142098 0.438038
  C 2.422936 0.118706 0.395591
  C 3.226964 0.606993 1.512674
  H 2.631184 0.965478 2.344223
  C 3.059955 -0.350349 -0.741221
  H 4.133940 -0.326771 -0.832290
  H 0.576765 0.416723 1.414033
  H 0.551272 -0.813164 0.110012
  H 0.582496 0.854009 -0.302818
  H 3.913407 1.391683 1.168115
  H 3.912598 -0.172804 1.859110
  H 2.499725 -0.752153 -1.570286
 12
 0.245127
  C 0.964297 0.128213 0.435443
  C 2.424307 0.104740 0.393517
  C 3.218163 0.625615 1.501776
  H 2.615534 0.998333 2.323580
  C 3.071786 -0.367818 -0.737871
  H 4.144145 -0.304975 -0.837324
  H 0.599645 0.305058 1.444893
  H 0.539261 -0.784735 0.010689
  H 0.589520 0.937543 -0.197001
  H 3.902265 1.400278 1.138218
  H 3.906255 -0.140266 1.876013
  H 2.521522 -0.818203 -1.548555
 12
 1.755080
  C 0.957327 0.134257 0.419140
  C 2.425556 0.097445 0.381404
  C 3.207926 0.641962 1.487901
  H 2.598624 1.006371 2.307846
  C 3.090412 -0.378368 -0.735923
  H 4.165627 -0.348992 -0.804214
  H 0.658920 0.201733 1.466385
  H 0.540272 -0.754482 -0.061669
  H 0.552349 1.020278 -0.083946
  H 3.865373 1.429549 1.123240
  H 3.911420 -0.101775 1.854831
  H 2.559057 -0.859861 -1.541009
 12
 4.074634
  C 0.941058 0.135096 0.404321
  C 2.419267 0.095180 0.380901
  C 3.203034 0.663057 1.484826
  H 2.605066 1.035064 2.289445
  C 3.108398 -0.383495 -0.739424
  H 4.183358 -0.367957 -0.788223
  H 0.704551 0.127826 1.480447
  H 0.546039 -0.758791 -0.096395
  H 0.508508 1.025239 -0.013766
  H 3.876261 1.435520 1.103873
  H 3.903352 -0.084100 1.877996
  H 2.583578 -0.830068 -1.559275
 12
 5.936301
  C 0.935979 0.110964 0.418843
  C 2.406002 0.062099 0.362763
  C 3.174673 0.657284 1.459909
  H 2.568000 1.075272 2.245143
  C 3.132013 -0.418598 -0.719263
  H 4.204670 -0.331808 -0.751812
  H 0.803210 0.050932 1.509486
  H 0.538140 -0.709504 -0.157099
  H 0.520210 1.085596 0.129454
  H 3.833750 1.440251 1.043458
  H 3.878384 -0.063549 1.880923
  H 2.640408 -0.849489 -1.579430
 12
 6.701832
  C 0.958157 0.123097 0.406930
  C 2.426324 0.058955 0.380761
  C 3.169307 0.688834 1.464835
  H 2.583850 1.026628 2.298318
  C 3.137810 -0.433184 -0.715475
  H 4.209218 -0.400842 -0.724475
  H 0.844110 -0.048767 1.506724
  H 0.506246 -0.643803 -0.200477
  H 0.519395 1.088825 0.159362
  H 3.756082 1.521075 1.033175
  H 3.932120 0.000032 1.841099
  H 2.647873 -0.847425 -1.586809
 12
 6.323468
  C 0.966208 0.119286 0.380116
  C 2.442690 0.090588 0.360029
  C 3.182901 0.718331 1.456180
  H 2.560026 1.088772 2.254342
  C 3.146815 -0.448933 -0.707530
  H 4.223258 -0.419276 -0.729881
  H 0.871526 -0.159589 1.456473
  H 0.518927 -0.601225 -0.286845
  H 0.491815 1.102871 0.323885
  H 3.792922 1.546624 1.067172
  H 3.926807 0.021461 1.856904
  H 2.629254 -0.893156 -1.545075
 12
 6.937728
  C 0.973628 0.136397 0.389979
  C 2.428395 0.092079 0.341537
  C 3.194431 0.741542 1.421849
  H 2.578123 1.104486 2.237975
  C 3.170974 -0.452585 -0.694525
  H 4.246567 -0.492969 -0.647743
  H 0.853466 -0.222768 1.439970
  H 0.508449 -0.564901 -0.299081
  H 0.463574 1.097179 0.453270
  H 3.779052 1.571113 1.016266
  H 3.935372 0.048716 1.826442
  H 2.691338 -0.853938 -1.576261
 12
 8.394318
  C 0.977733 0.138734 0.406505
  C 2.413370 0.073867 0.349241
  C 3.182318 0.759387 1.413022
  H 2.569418 1.141963 2.219785
  C 3.174216 -0.480108 -0.672910
  H 4.247159 -0.550762 -0.588224
  H 0.919491 -0.324802 1.422094
  H 0.514455 -0.485287 -0.349174
  H 0.482172 1.096584 0.549805
  H 3.744936 1.587912 0.969823
  H 3.952212 0.104451 1.812109
  H 2.722649 -0.812167 -1.595686
 12
 10.899493
  C 0.971984 0.127499 0.399778
  C 2.412987 0.080521 0.353141
  C 3.180113 0.784180 1.402878
  H 2.547541 1.200918 2.183812
  C 3.178557 -0.483932 -0.656299
  H 4.254208 -0.564573 -0.560897
  H 1.044976 -0.415930 1.369109
  H 0.536136 -0.370817 -0.454846
  H 0.463748 1.034617 0.711117
  H 3.716639 1.624335 0.954454
  H 3.945252 0.140310 1.832229
  H 2.728678 -0.839925 -1.569913
 12
 16.280669
  C 0.986935 0.173457 0.354119
  C 2.418656 0.061054 0.375064
  C 3.184592 0.809943 1.413495
  H 2.548136 1.215652 2.202043
  C 3.192050 -0.474247 -0.644114
  H 4.240099 -0.680365 -0.494818
  H 1.152990 -0.462764 1.279896
  H 0.502672 -0.342420 -0.459908
  H 0.456421 1.003031 0.793081
  H 3.679944 1.663654 0.947363
  H 3.973487 0.193188 1.839675
  H 2.744475 -0.788252 -1.580107
 12
 30.986678
  C 0.981891 0.210686 0.333622
  C 2.392974 0.053569 0.358841
  C 3.163426 0.790601 1.427183
  H 2.524615 1.203901 2.207465
  C 3.203051 -0.493204 -0.637658
  H 4.253035 -0.642048 -0.502573
  H 1.417597 -0.377735 1.272902
  H 0.489366 -0.291246 -0.485144
  H 0.435962 1.000790 0.838742
  H 3.652676 1.647161 0.977560
  H 3.930811 0.160685 1.852374
  H 2.758098 -0.847776 -1.557534
