 23
 0.000000
  C 0.995798 0.132321 0.380257
  C 2.467955 0.143907 0.411311
  C 3.226677 0.617479 1.589336
  C 2.429386 1.103538 2.796032
  C 3.368032 1.551677 3.912542
  C 3.123842 -0.314818 -0.728178
  C 4.507086 -0.385574 -0.906482
  C 5.098215 -0.848522 -2.060233
  H 4.553187 -1.198799 -2.928436
  O 6.384224 -0.920405 -2.247264
  H 0.541549 0.499673 1.292313
  H 0.637860 -0.881568 0.194135
  H 0.638935 0.735220 -0.456340
  H 3.887987 1.429958 1.266999
  H 3.886796 -0.192682 1.919838
  H 1.791466 0.303700 3.175955
  H 1.792962 1.944688 2.515948
  H 4.002865 0.732048 4.241521
  H 2.796221 1.897087 4.770179
  H 4.004456 2.369791 3.582868
  H 2.500651 -0.644959 -1.548588
  H 5.152599 -0.061031 -0.101158
  H 6.919463 -0.612408 -1.487966
 23
 13.338868
  C 0.971224 0.146153 0.414236
  C 2.433719 0.165545 0.465470
  C 3.193448 0.634877 1.633126
  C 2.399736 1.122191 2.842225
  C 3.343667 1.568526 3.954692
  C 3.163354 -0.334978 -0.777353
  C 4.525941 -0.393409 -0.925431
  C 5.177101 -0.898179 -2.183430
  H 4.621915 -1.245630 -3.043172
  O 6.454569 -0.965590 -2.361033
  H 0.505600 0.511596 1.321127
  H 0.620540 -0.869657 0.221628
  H 0.622012 0.746030 -0.428468
  H 3.856667 1.445587 1.307759
  H 3.855121 -0.176327 1.960419
  H 1.762158 0.323188 3.224410
  H 1.764098 1.964562 2.564133
  H 3.978281 0.747601 4.281015
  H 2.776115 1.915115 4.814725
  H 3.980326 2.385402 3.622214
  H 2.546849 -0.665402 -1.598274
  H 5.167122 -0.069027 -0.121056
  H 6.988692 -0.656094 -1.600465
 23
 40.252531
  C 0.931639 0.148296 0.419348
  C 2.372417 0.189032 0.524282
  C 3.169466 0.640454 1.647607
  C 2.393247 1.134100 2.871390
  C 3.353343 1.575001 3.970997
  C 3.183665 -0.355511 -0.827282
  C 4.531024 -0.378153 -0.887195
  C 5.238645 -0.921688 -2.241713
  H 4.618724 -1.252384 -3.057621
  O 6.514832 -0.980138 -2.398377
  H 0.440875 0.511028 1.319754
  H 0.596646 -0.874488 0.210569
  H 0.598568 0.742621 -0.439589
  H 3.837945 1.443645 1.302591
  H 3.835972 -0.179173 1.955813
  H 1.755361 0.337720 3.258609
  H 1.757870 1.978512 2.598328
  H 3.987309 0.750178 4.288017
  H 2.799889 1.925075 4.838868
  H 3.990099 2.387632 3.629103
  H 2.535218 -0.677551 -1.627027
  H 5.201733 -0.062285 -0.104268
  H 7.051339 -0.670824 -1.641791
 23
 73.273018
  C 0.911092 0.161442 0.451498
  C 2.333936 0.212580 0.582393
  C 3.141979 0.654996 1.683574
  C 2.371600 1.147829 2.905583
  C 3.334531 1.587592 4.003002
  C 3.220862 -0.377478 -0.882002
  C 4.533459 -0.383439 -0.901479
  C 5.308390 -0.964022 -2.346222
  H 4.676224 -1.292041 -3.152193
  O 6.576787 -1.011590 -2.477099
  H 0.408311 0.521022 1.343966
  H 0.586342 -0.859389 0.238772
  H 0.588394 0.751693 -0.408948
  H 3.807694 1.453022 1.334247
  H 3.805649 -0.164047 1.984936
  H 1.734151 0.351134 3.294045
  H 1.736844 1.993440 2.633372
  H 3.968451 0.761700 4.318618
  H 2.783105 1.938015 4.871760
  H 3.971352 2.400009 3.659568
  H 2.555942 -0.691336 -1.659765
  H 5.214314 -0.073369 -0.134695
  H 7.105905 -0.697228 -1.709691
 23
 106.457552
  C 0.858279 0.173198 0.481087
  C 2.289178 0.232430 0.631451
  C 3.110668 0.675194 1.733474
  C 2.344077 1.172599 2.967428
  C 3.314449 1.610276 4.059299
  C 3.250439 -0.400192 -0.939396
  C 4.555961 -0.396864 -0.935427
  C 5.402234 -1.015790 -2.475625
  H 4.773611 -1.343044 -3.280749
  O 6.673053 -1.056996 -2.589149
  H 0.341364 0.531781 1.371717
  H 0.538587 -0.854513 0.262399
  H 0.540295 0.764345 -0.388213
  H 3.780800 1.474931 1.378335
  H 3.778994 -0.148970 2.031599
  H 1.707533 0.376944 3.358293
  H 1.709864 2.018972 2.697826
  H 3.948133 0.783329 4.370981
  H 2.768669 1.961921 4.931503
  H 3.950704 2.421013 3.712255
  H 2.578010 -0.713476 -1.715692
  H 5.239637 -0.086985 -0.168361
  H 7.187700 -0.743662 -1.822654
 23
 135.968683
  C 0.799842 0.177899 0.492777
  C 2.223806 0.254923 0.687234
  C 3.080531 0.687739 1.765074
  C 2.337157 1.191745 3.015409
  C 3.329264 1.622909 4.090545
  C 3.266182 -0.426870 -1.006659
  C 4.540453 -0.400604 -0.945642
  C 5.477942 -1.046314 -2.551313
  H 4.864327 -1.376663 -3.363470
  O 6.749640 -1.070221 -2.621223
  H 0.257614 0.531694 1.372364
  H 0.494490 -0.852598 0.267318
  H 0.495907 0.766631 -0.383012
  H 3.749273 1.482459 1.396272
  H 3.747488 -0.142322 2.049786
  H 1.699996 0.400241 3.414107
  H 1.702348 2.040506 2.754212
  H 3.962622 0.791745 4.391939
  H 2.799086 1.978035 4.971225
  H 3.965053 2.429477 3.732892
  H 2.571655 -0.729344 -1.756127
  H 5.234399 -0.097298 -0.195193
  H 7.239297 -0.751035 -1.840984
 23
 161.106176
  C 0.754964 0.194135 0.532497
  C 2.172461 0.278536 0.745999
  C 3.042399 0.705898 1.810623
  C 2.309344 1.212004 3.065789
  C 3.310847 1.639183 4.131437
  C 3.287404 -0.449123 -1.061081
  C 4.552632 -0.411619 -0.972969
  C 5.570155 -1.091439 -2.663004
  H 4.962270 -1.425789 -3.482782
  O 6.841540 -1.108087 -2.716800
  H 0.202744 0.545705 1.406230
  H 0.455975 -0.836317 0.304829
  H 0.457620 0.781250 -0.344956
  H 3.710789 1.497010 1.437712
  H 3.708681 -0.124547 2.090024
  H 1.673354 0.421686 3.467087
  H 1.676043 2.061871 2.807212
  H 3.943533 0.805917 4.427653
  H 2.788583 1.995921 5.015785
  H 3.946285 2.443500 3.768586
  H 2.580600 -0.747531 -1.800116
  H 5.252930 -0.110398 -0.228827
  H 7.322085 -0.785097 -1.929204
 23
 176.517036
  C 0.727090 0.221534 0.602872
  C 2.131332 0.295352 0.786585
  C 2.950875 0.725525 1.856185
  C 2.263570 1.239346 3.132036
  C 3.289208 1.659298 4.176790
  C 3.321109 -0.473026 -1.121772
  C 4.542807 -0.424215 -1.006012
  C 5.690888 -1.127570 -2.764802
  H 5.147539 -1.489942 -3.643634
  O 6.935106 -1.165765 -2.851825
  H 0.138565 0.567135 1.462835
  H 0.451609 -0.807578 0.375019
  H 0.451581 0.806801 -0.273641
  H 3.616533 1.502501 1.468631
  H 3.615619 -0.104029 2.115237
  H 1.622070 0.456741 3.546136
  H 1.623148 2.091409 2.888252
  H 3.919728 0.818414 4.460553
  H 2.788979 2.015774 5.074708
  H 3.926246 2.458071 3.801654
  H 2.571464 -0.755313 -1.821440
  H 5.279803 -0.137407 -0.295204
  H 7.431675 -0.839839 -2.056826
 23
 181.368515
  C 0.687908 0.244001 0.658872
  C 2.087615 0.316917 0.840775
  C 2.900237 0.747614 1.912022
  C 2.218232 1.265391 3.197433
  C 3.252171 1.681611 4.233002
  C 3.347189 -0.493015 -1.170962
  C 4.558931 -0.436047 -1.034766
  C 5.788810 -1.176103 -2.887796
  H 5.260645 -1.541157 -3.773170
  O 7.040117 -1.219255 -2.984113
  H 0.086430 0.586734 1.511642
  H 0.421548 -0.789250 0.420302
  H 0.421718 0.825049 -0.228253
  H 3.570860 1.522370 1.514869
  H 3.569799 -0.087104 2.162682
  H 1.579878 0.485128 3.614142
  H 1.580962 2.117564 2.956974
  H 3.882377 0.840148 4.511950
  H 2.760331 2.040566 5.133556
  H 3.887061 2.477782 3.853207
  H 2.587395 -0.765260 -1.846344
  H 5.306356 -0.158552 -0.346663
  H 7.533367 -0.897222 -2.198229
 23
 184.812637
  C 0.640156 0.265530 0.712652
  C 2.039728 0.340579 0.899455
  C 2.851800 0.770924 1.970117
  C 2.179365 1.288370 3.255743
  C 3.221825 1.701174 4.282740
  C 3.370004 -0.510254 -1.215191
  C 4.570448 -0.443149 -1.053968
  C 5.883254 -1.221065 -3.000023
  H 5.367831 -1.589353 -3.893086
  O 7.136175 -1.269355 -3.106420
  H 0.028634 0.603976 1.555299
  H 0.382637 -0.767402 0.465693
  H 0.382626 0.840744 -0.180083
  H 3.522988 1.540506 1.567620
  H 3.522174 -0.063651 2.212919
  H 1.542338 0.507626 3.674715
  H 1.543053 2.142191 3.016992
  H 3.852534 0.858101 4.557441
  H 2.736858 2.062118 5.186680
  H 3.856096 2.497003 3.898173
  H 2.589085 -0.776764 -1.876009
  H 5.338137 -0.171297 -0.380191
  H 7.633867 -0.946470 -2.318348
 23
 186.844456
  C 0.593239 0.285952 0.764982
  C 1.987410 0.365524 0.959650
  C 2.804270 0.793817 2.025084
  C 2.138377 1.312133 3.317193
  C 3.190002 1.722214 4.336405
  C 3.388514 -0.524888 -1.259433
  C 4.579358 -0.446036 -1.069812
  C 5.975348 -1.264576 -3.106344
  H 5.466332 -1.635748 -4.004756
  O 7.234257 -1.318833 -3.220700
  H -0.028401 0.621443 1.603250
  H 0.343478 -0.749050 0.509590
  H 0.341736 0.857287 -0.134487
  H 3.477894 1.561096 1.616149
  H 3.478732 -0.042687 2.260042
  H 1.504048 0.530718 3.738317
  H 1.502853 2.166981 3.081185
  H 3.821326 0.878636 4.606116
  H 2.712138 2.083946 5.243591
  H 3.822001 2.517076 3.948136
  H 2.595544 -0.783467 -1.898431
  H 5.358741 -0.181913 -0.416739
  H 7.731779 -0.998688 -2.438264
 23
 187.701050
  C 0.542544 0.307572 0.819090
  C 1.933989 0.391442 1.024051
  C 2.754989 0.817409 2.083847
  C 2.097206 1.336568 3.378786
  C 3.156476 1.743344 4.389489
  C 3.407650 -0.539790 -1.297988
  C 4.587738 -0.450161 -1.081123
  C 6.064893 -1.306623 -3.210346
  H 5.562074 -1.679342 -4.113063
  O 7.325603 -1.366181 -3.336019
  H -0.088352 0.639726 1.649441
  H 0.300073 -0.727135 0.557145
  H 0.298094 0.874194 -0.084867
  H 3.430232 1.580155 1.670852
  H 3.431330 -0.018533 2.312351
  H 1.465131 0.555069 3.801881
  H 1.463626 2.192655 3.144425
  H 3.787723 0.898341 4.655286
  H 2.685012 2.106554 5.299519
  H 3.787655 2.537397 3.997139
  H 2.596699 -0.792010 -1.921399
  H 5.386489 -0.192497 -0.444058
  H 7.827812 -1.045357 -2.552867
 23
 187.847208
  C 0.492870 0.330124 0.874476
  C 1.878571 0.418390 1.091540
  C 2.705403 0.841612 2.144753
  C 2.051824 1.362923 3.443981
  C 3.117492 1.767668 4.450071
  C 3.425870 -0.554948 -1.332739
  C 4.598144 -0.455421 -1.090411
  C 6.152098 -1.348564 -3.315264
  H 5.649494 -1.722077 -4.221094
  O 7.416411 -1.411712 -3.451181
  H -0.147225 0.660839 1.700198
  H 0.255992 -0.705791 0.606826
  H 0.254547 0.893427 -0.034754
  H 3.383626 1.601579 1.728008
  H 3.384134 0.004769 2.368889
  H 1.420745 0.581128 3.868506
  H 1.419754 2.220521 3.210058
  H 3.748237 0.921819 4.713700
  H 2.650198 2.132304 5.361824
  H 3.748212 2.560576 4.055369
  H 2.604871 -0.799795 -1.938858
  H 5.408814 -0.205726 -0.472627
  H 7.919848 -1.091701 -2.671991
 23
 187.605150
  C 0.437471 0.355074 0.935335
  C 1.819999 0.447149 1.163414
  C 2.652099 0.867782 2.210519
  C 2.004805 1.390556 3.512062
  C 3.075767 1.792463 4.511876
  C 3.441574 -0.568415 -1.362201
  C 4.605107 -0.459893 -1.097005
  C 6.237815 -1.389045 -3.416783
  H 5.737212 -1.763109 -4.324285
  O 7.502985 -1.455462 -3.563474
  H -0.209859 0.683937 1.754996
  H 0.205333 -0.680593 0.663619
  H 0.204645 0.915076 0.022924
  H 3.331866 1.624348 1.791160
  H 3.331655 0.031091 2.430836
  H 1.375004 0.609493 3.938126
  H 1.374766 2.249100 3.279303
  H 3.705762 0.945392 4.773065
  H 2.613056 2.158447 5.425313
  H 3.706285 2.584223 4.114410
  H 2.607418 -0.808110 -1.956197
  H 5.430767 -0.215788 -0.492989
  H 8.011257 -1.134753 -2.784887
 23
 184.426894
  C 0.428287 0.340091 0.861570
  C 1.794333 0.430829 1.135521
  C 2.665200 0.832596 2.147277
  C 2.050677 1.381332 3.460315
  C 3.150867 1.765812 4.436673
  C 3.405074 -0.601694 -1.299194
  C 4.517894 -0.444409 -0.888870
  C 6.183108 -1.288142 -3.222763
  H 5.637887 -1.655645 -4.117284
  O 7.442353 -1.370750 -3.496294
  H -0.238560 0.682020 1.663515
  H 0.190017 -0.695568 0.589972
  H 0.215789 0.888475 -0.064189
  H 3.359834 1.569106 1.714988
  H 3.335468 -0.013356 2.364149
  H 1.413392 0.615769 3.903004
  H 1.438524 2.253438 3.230071
  H 3.766454 0.907480 4.695067
  H 2.711430 2.149864 5.354684
  H 3.791303 2.541386 4.023429
  H 2.508120 -0.796944 -1.808237
  H 5.423283 -0.252295 -0.395182
  H 8.012053 -1.060431 -2.759084
