 23
 0.000000
  C 0.996384 0.132972 0.381868
  C 2.475139 0.140018 0.399085
  C 3.241227 0.613797 1.578372
  C 2.445071 1.099206 2.786946
  C 3.376873 1.549401 3.907489
  C 3.096863 -0.322475 -0.752613
  C 4.472906 -0.413204 -0.978851
  C 5.132414 -0.867699 -2.111643
  H 4.763744 -1.241749 -3.043882
  O 6.457488 -0.870547 -2.119086
  H 0.547238 0.500715 1.297563
  H 0.632250 -0.881396 0.212641
  H 0.631990 0.748397 -0.441931
  H 3.897288 1.429656 1.253616
  H 3.897458 -0.199872 1.908184
  H 1.806291 0.298662 3.165430
  H 1.806160 1.939037 2.506526
  H 4.012896 0.731247 4.239516
  H 2.797657 1.892484 4.761770
  H 4.012720 2.370011 3.581218
  H 2.436796 -0.639606 -1.542199
  H 5.100515 -0.083792 -0.158214
  H 6.834017 -0.535875 -1.285013
 23
 0.000000
  C 1.040506 0.119660 0.348711
  C 2.519103 0.130417 0.375170
  C 3.276614 0.606108 1.559220
  C 2.471703 1.089508 2.762791
  C 3.395350 1.542032 3.889133
  C 3.122880 -0.325767 -0.760814
  C 4.429596 -0.409768 -0.970298
  C 5.064720 -0.845661 -2.056748
  H 4.718012 -1.222615 -2.996222
  O 6.321546 -0.828733 -2.014932
  H 0.584724 0.486268 1.261578
  H 0.679983 -0.895617 0.177219
  H 0.679725 0.734175 -0.477355
  H 3.932643 1.423613 1.238565
  H 3.932811 -0.205914 1.893134
  H 1.832580 0.287361 3.137281
  H 1.832451 1.927736 2.478376
  H 4.031337 0.725474 4.225136
  H 2.809947 1.883654 4.739775
  H 4.031163 2.364237 3.566836
  H 2.461998 -0.642662 -1.549813
  H 5.054551 -0.079652 -0.147920
  H 6.647441 -0.474465 -1.132028
 23
 0.000000
  C 1.085898 0.106576 0.316117
  C 2.564249 0.121338 0.352557
  C 3.312459 0.599070 1.541689
  C 2.498135 1.080277 2.739796
  C 3.412930 1.535292 3.872344
  C 3.152444 -0.330244 -0.771968
  C 4.388605 -0.407971 -0.965829
  C 5.000349 -0.825325 -2.006091
  H 4.677024 -1.205154 -2.952727
  O 6.186754 -0.789997 -1.918446
  H 0.622972 0.471939 1.225885
  H 0.729293 -0.909674 0.142205
  H 0.729037 0.720118 -0.512371
  H 3.968420 1.418353 1.225462
  H 3.968586 -0.211174 1.880032
  H 1.858675 0.276397 3.109971
  H 1.858548 1.916771 2.451065
  H 4.048845 0.720457 4.212639
  H 2.820873 1.875318 4.719012
  H 4.048674 2.359220 3.554339
  H 2.490429 -0.646811 -1.560148
  H 5.010837 -0.077138 -0.141676
  H 6.455523 -0.414088 -0.981613
 23
 0.000000
  C 1.132088 0.093885 0.284507
  C 2.610093 0.112898 0.331533
  C 3.348392 0.592767 1.525989
  C 2.524127 1.071618 2.718229
  C 3.429477 1.529250 3.857296
  C 3.185307 -0.335896 -0.786045
  C 4.350641 -0.407712 -0.965189
  C 4.940121 -0.806749 -1.959816
  H 4.641327 -1.189358 -2.913378
  O 6.054823 -0.754777 -1.830716
  H 0.661610 0.457908 1.190932
  H 0.779661 -0.923383 0.108055
  H 0.779407 0.706408 -0.546523
  H 4.004243 1.413936 1.214459
  H 4.004406 -0.215591 1.869030
  H 1.884346 0.265900 3.083823
  H 1.884222 1.906273 2.424917
  H 4.065279 0.716244 4.202145
  H 2.830396 1.867565 4.699699
  H 4.065111 2.355006 3.543843
  H 2.521994 -0.652085 -1.573285
  H 4.969975 -0.076120 -0.139160
  H 6.258952 -0.355782 -0.836353
 23
 0.000000
  C 1.178441 0.081849 0.254523
  C 2.655991 0.105291 0.312586
  C 3.383908 0.587359 1.512518
  C 2.549330 1.063724 2.698565
  C 3.444772 1.524056 3.844357
  C 3.221261 -0.342865 -0.803404
  C 4.316437 -0.409107 -0.968669
  C 4.884985 -0.790236 -1.918678
  H 4.611654 -1.175481 -2.878806
  O 5.927824 -0.723591 -1.753033
  H 0.700116 0.444449 1.157406
  H 0.830391 -0.936470 0.075455
  H 0.830141 0.693320 -0.579125
  H 4.039603 1.410494 1.205885
  H 4.039763 -0.219032 1.860458
  H 1.909254 0.256087 3.059380
  H 1.909132 1.896460 2.400473
  H 4.080417 0.712956 4.193954
  H 2.838405 1.860564 4.682260
  H 4.080251 2.351718 3.535651
  H 2.556576 -0.658654 -1.589646
  H 4.932618 -0.076695 -0.140614
  H 6.059163 -0.300356 -0.698264
 23
 0.000000
  C 1.224722 0.070697 0.226741
  C 2.701699 0.098740 0.296267
  C 3.418779 0.583059 1.501806
  C 2.573543 1.056808 2.681337
  C 3.458631 1.519914 3.834038
  C 3.260740 -0.351624 -0.825222
  C 4.286419 -0.412557 -0.977267
  C 4.835406 -0.776140 -1.883563
  H 4.588670 -1.163874 -2.849886
  O 5.806483 -0.696716 -1.686089
  H 0.738279 0.431795 1.125883
  H 0.881246 -0.948699 0.044990
  H 0.880998 0.681090 -0.609592
  H 4.074267 1.408236 1.200260
  H 4.074424 -0.221290 1.854834
  H 1.933205 0.247176 3.037185
  H 1.933087 1.887550 2.378277
  H 4.094068 0.710793 4.188566
  H 2.844736 1.854521 4.667208
  H 4.093906 2.349554 3.530262
  H 2.594642 -0.667001 -1.610434
  H 4.899055 -0.079230 -0.146951
  H 5.855126 -0.247661 -0.566979
 23
 0.000000
  C 1.270257 0.060802 0.202091
  C 2.746537 0.093568 0.283382
  C 3.452437 0.580162 1.494591
  C 2.596319 1.051191 2.667346
  C 3.470711 1.517111 3.827057
  C 3.304012 -0.362717 -0.852851
  C 4.261421 -0.418552 -0.992202
  C 4.792394 -0.765010 -1.855831
  H 4.573427 -1.155057 -2.827912
  O 5.692633 -0.674695 -1.631234
  H 0.775513 0.420333 1.097325
  H 0.931500 -0.959685 0.017622
  H 0.931256 0.670103 -0.636962
  H 4.107665 1.407436 1.198266
  H 4.107819 -0.222089 1.852841
  H 1.955759 0.239511 3.018091
  H 1.955643 1.879884 2.359181
  H 4.105888 0.710023 4.186646
  H 2.849129 1.849743 4.655306
  H 4.105729 2.348784 3.528341
  H 2.636561 -0.677697 -1.637072
  H 4.869945 -0.084173 -0.159288
  H 5.647097 -0.197912 -0.443028
 23
 0.000000
  C 1.314107 0.052625 0.181720
  C 2.789571 0.090163 0.274898
  C 3.484116 0.579022 1.491748
  C 2.617060 1.047265 2.657564
  C 3.480571 1.515995 3.824275
  C 3.351306 -0.376769 -0.887849
  C 4.242474 -0.427668 -1.014911
  C 4.757193 -0.757488 -1.837086
  H 4.567158 -1.149640 -2.814405
  O 5.588589 -0.658126 -1.589957
  H 0.811007 0.410543 1.072934
  H 0.980148 -0.968949 -0.005459
  H 0.979908 0.660838 -0.660046
  H 4.139031 1.408414 1.200701
  H 4.139182 -0.221111 1.855277
  H 1.976323 0.233513 3.003149
  H 1.976210 1.873886 2.344239
  H 4.115439 0.710960 4.188980
  H 2.851265 1.846605 4.647487
  H 4.115283 2.349721 3.530673
  H 2.682720 -0.691416 -1.671238
  H 4.846083 -0.092046 -0.178924
  H 5.435780 -0.151340 -0.326988
 23
 0.000000
  C 1.355359 0.046668 0.166874
  C 2.829899 0.088957 0.271894
  C 3.513075 0.580037 1.494273
  C 2.635184 1.045468 2.653086
  C 3.487787 1.516964 3.826685
  C 3.403047 -0.394535 -0.932099
  C 4.230518 -0.440591 -1.047100
  C 4.730819 -0.754210 -1.828909
  H 4.571006 -1.148232 -2.810881
  O 5.496156 -0.647483 -1.563440
  H 0.843971 0.402952 1.054017
  H 1.026206 -0.975975 -0.022965
  H 1.025970 0.653811 -0.677555
  H 4.167629 1.411539 1.208481
  H 4.167777 -0.217985 1.863059
  H 1.994320 0.229651 2.993527
  H 1.994209 1.870023 2.334615
  H 4.122298 0.713975 4.196484
  H 2.850831 1.845533 4.644814
  H 4.122145 2.352734 3.538176
  H 2.733746 -0.708973 -1.714961
  H 4.828099 -0.103466 -0.207395
  H 5.220592 -0.107802 -0.218507
 23
 0.000000
  C 1.392258 0.043374 0.158663
  C 2.865811 0.090205 0.274999
  C 3.538066 0.583374 1.502582
  C 2.649875 1.046084 2.654615
  C 3.491985 1.520191 3.834719
  C 3.457930 -0.415874 -0.985245
  C 4.226313 -0.457235 -1.088556
  C 4.714308 -0.755402 -1.831867
  H 4.585234 -1.150990 -2.817731
  O 5.418763 -0.642921 -1.552068
  H 0.872979 0.398071 1.041848
  H 1.067725 -0.980276 -0.033686
  H 1.067493 0.649509 -0.688278
  H 4.192229 1.416893 1.221813
  H 4.192374 -0.212631 1.876392
  H 2.008933 0.228291 2.990136
  H 2.008825 1.868663 2.331223
  H 4.126111 0.719157 4.209388
  H 2.847758 1.846786 4.647931
  H 4.125960 2.357916 3.551079
  H 2.788606 -0.730307 -1.768088
  H 4.816609 -0.118323 -0.244426
  H 5.006807 -0.068183 -0.119789
 23
 0.000000
  C 1.424061 0.042954 0.157608
  C 2.896595 0.094051 0.284574
  C 3.558543 0.589152 1.516970
  C 2.660725 1.049275 2.662559
  C 3.492922 1.525808 3.848704
  C 3.515545 -0.440740 -1.047176
  C 4.229822 -0.477530 -1.139103
  C 4.707424 -0.760914 -1.845580
  H 4.609456 -1.157742 -2.834525
  O 5.356814 -0.643958 -1.554642
  H 0.897398 0.396137 1.037020
  H 1.103890 -0.981630 -0.037065
  H 1.103662 0.648154 -0.691661
  H 4.212296 1.424566 1.240920
  H 4.212440 -0.204957 1.895500
  H 2.019751 0.229625 2.993455
  H 2.019645 1.869997 2.334542
  H 4.126645 0.726610 4.227947
  H 2.841900 1.850527 4.657242
  H 4.126497 2.365369 3.569636
  H 2.847110 -0.755439 -1.830672
  H 4.811369 -0.136515 -0.289762
  H 4.794814 -0.032078 -0.029824
 23
 0.000000
  C 1.450435 0.045310 0.163468
  C 2.921944 0.100354 0.300269
  C 3.574312 0.597218 1.537055
  C 2.667630 1.054920 2.676616
  C 3.490602 1.533674 3.868289
  C 3.574776 -0.468261 -1.115717
  C 4.240088 -0.500607 -1.196579
  C 4.708839 -0.769803 -1.867707
  H 4.642029 -1.167529 -2.858879
  O 5.309361 -0.649352 -1.568063
  H 0.916962 0.397072 1.039337
  H 1.134320 -0.980127 -0.033331
  H 1.134096 0.649655 -0.687929
  H 4.227652 1.434385 1.265371
  H 4.227794 -0.195138 1.919953
  H 2.026661 0.233551 3.003230
  H 2.026557 1.873922 2.344315
  H 4.123919 0.736176 4.251765
  H 2.833324 1.856638 4.672456
  H 4.123773 2.374934 3.593453
  H 2.908315 -0.783543 -1.900659
  H 4.811355 -0.157179 -0.341256
  H 4.585613 0.000826 0.052163
 23
 0.000000
  C 1.458920 0.046197 0.165673
  C 2.930008 0.102788 0.306329
  C 3.578611 0.600336 1.544819
  C 2.668466 1.057083 2.682000
  C 3.487809 1.536701 3.875824
  C 3.594199 -0.474873 -1.132185
  C 4.247975 -0.505820 -1.209562
  C 4.715599 -0.771281 -1.871381
  H 4.658077 -1.169208 -2.863055
  O 5.304213 -0.649770 -1.569101
  H 0.922785 0.397397 1.040141
  H 1.144401 -0.979572 -0.031951
  H 1.144178 0.650210 -0.686550
  H 4.231779 1.438190 1.274846
  H 4.231920 -0.191332 1.929429
  H 2.027508 0.235040 3.006935
  H 2.027404 1.875411 2.348020
  H 4.120957 0.739869 4.260959
  H 2.828087 1.858972 4.678266
  H 4.120812 2.378627 3.602646
  H 2.929391 -0.790641 -1.918333
  H 4.815246 -0.161471 -0.351952
  H 4.535350 0.009886 0.074739
 23
 0.000000
  C 1.492759 0.055476 0.188774
  C 2.962034 0.118262 0.344866
  C 3.595496 0.618514 1.590083
  C 2.671548 1.071394 2.717634
  C 3.476282 1.554435 3.919980
  C 3.695884 -0.524158 -1.254936
  C 4.270142 -0.547337 -1.312961
  C 4.722098 -0.787352 -1.911382
  H 4.721526 -1.185846 -2.904455
  O 5.235162 -0.661762 -1.598942
  H 0.945999 0.404396 1.057555
  H 1.184657 -0.971604 -0.012116
  H 1.184440 0.658176 -0.666720
  H 4.247923 1.459119 1.326962
  H 4.248062 -0.170402 1.981547
  H 2.030686 0.246649 3.035841
  H 2.030584 1.887019 2.376924
  H 4.108705 0.760271 4.311759
  H 2.806821 1.873904 4.715445
  H 4.108562 2.399028 3.653444
  H 3.037919 -0.841915 -2.046024
  H 4.814394 -0.197855 -0.442611
  H 4.149045 0.060750 0.201477
