 32
 0.000000
  C 0.972361 0.138633 0.396512
  C 2.450335 0.139045 0.396879
  C 3.234786 0.609172 1.566735
  C 2.456271 1.098588 2.785284
  C 3.404352 1.544144 3.893980
  C 3.068214 -0.324133 -0.756518
  C 4.446946 -0.412833 -0.977760
  C 5.124050 -0.863790 -2.101707
  C 4.625289 -1.386921 -3.405720
  C 3.133418 -1.503376 -3.697010
  C 2.904009 -2.065128 -5.097312
  O 6.450733 -0.860921 -2.094467
  H 0.535204 0.508436 1.317130
  H 0.602133 -0.874103 0.229961
  H 0.601748 0.754488 -0.424349
  H 3.890820 1.421554 1.233645
  H 3.891122 -0.207638 1.888172
  H 1.818200 0.301265 3.171760
  H 1.817955 1.941509 2.512830
  H 4.040455 0.722810 4.217988
  H 2.837736 1.890163 4.755577
  H 4.040173 2.361553 3.559619
  H 2.411711 -0.642293 -1.548707
  H 5.066573 -0.081244 -0.151806
  H 5.079716 -2.376394 -3.532695
  H 5.080183 -0.759926 -4.181368
  H 2.659380 -0.522347 -3.642241
  H 2.658893 -2.174250 -2.979458
  H 3.340927 -1.418338 -5.855144
  H 1.837832 -2.144835 -5.296788
  H 3.340444 -3.056569 -5.197863
  H 6.808750 -0.523069 -1.252038
 32
 -0.121584
  C 0.978822 -0.315974 0.605126
  C 2.439173 -0.134439 0.498355
  C 3.216326 0.586450 1.534909
  C 2.448420 1.154200 2.725452
  C 3.396083 1.887893 3.669771
  C 3.056807 -0.646771 -0.642679
  C 4.432247 -0.663503 -0.877759
  C 5.107185 -1.163239 -1.986554
  C 4.604055 -1.508237 -3.342181
  C 3.126353 -1.387096 -3.691845
  C 2.928225 -1.620158 -5.187619
  O 6.412789 -1.324805 -1.920912
  H 0.578852 -0.010287 1.563884
  H 0.713883 -1.356535 0.417307
  H 0.482347 0.261975 -0.177138
  H 3.753734 1.409478 1.050556
  H 3.990067 -0.088050 1.918914
  H 1.959098 0.350651 3.278363
  H 1.683841 1.853204 2.383404
  H 4.153725 1.213788 4.062971
  H 2.846588 2.301722 4.511511
  H 3.896053 2.708281 3.159905
  H 2.410189 -1.115948 -1.366133
  H 5.069124 -0.296120 -0.082201
  H 4.947974 -2.524734 -3.561979
  H 5.175426 -0.870525 -4.028078
  H 2.758713 -0.391664 -3.441894
  H 2.544847 -2.135300 -3.152891
  H 3.469296 -0.880158 -5.772805
  H 1.874746 -1.548405 -5.445195
  H 3.279665 -2.607772 -5.477134
  H 6.805893 -1.103748 -1.056963
 32
 1.511227
  C 1.058845 -0.610339 0.755610
  C 2.478407 -0.273010 0.540647
  C 3.208055 0.649995 1.443125
  C 2.434383 1.242212 2.618136
  C 3.321350 2.194132 3.415395
  C 3.102857 -0.822734 -0.573249
  C 4.462627 -0.773041 -0.854690
  C 5.105001 -1.358758 -1.948828
  C 4.598663 -1.516353 -3.337291
  C 3.153137 -1.164062 -3.668602
  C 2.944946 -1.187591 -5.180355
  O 6.352406 -1.755233 -1.834468
  H 0.708415 -0.352720 1.747703
  H 0.884311 -1.669039 0.568792
  H 0.446295 -0.070663 0.029468
  H 3.602044 1.476176 0.840667
  H 4.086293 0.128312 1.839767
  H 2.090487 0.448217 3.283355
  H 1.563557 1.791744 2.257955
  H 4.182317 1.671875 3.826865
  H 2.764913 2.627157 4.242937
  H 3.679675 3.008384 2.789423
  H 2.487435 -1.429393 -1.218031
  H 5.115793 -0.318415 -0.119507
  H 4.819762 -2.536253 -3.667906
  H 5.257288 -0.880127 -3.942713
  H 2.911850 -0.169646 -3.292011
  H 2.471478 -1.886391 -3.221426
  H 3.584903 -0.459924 -5.674041
  H 1.913132 -0.948505 -5.424065
  H 3.168537 -2.170815 -5.587622
  H 6.732857 -1.659265 -0.940768
 32
 5.835417
  C 1.198551 -0.952872 0.957861
  C 2.541710 -0.452180 0.606695
  C 3.189000 0.646470 1.366689
  C 2.417280 1.227232 2.548994
  C 3.203118 2.365505 3.193185
  C 3.174027 -1.018132 -0.493503
  C 4.491264 -0.830640 -0.874648
  C 5.103060 -1.474540 -1.968691
  C 4.593717 -1.482668 -3.361337
  C 3.190336 -0.944964 -3.622615
  C 2.929832 -0.862825 -5.123394
  O 6.261103 -2.064342 -1.831090
  H 0.913946 -0.709484 1.974898
  H 1.133755 -2.028764 0.806341
  H 0.460928 -0.501675 0.289719
  H 3.408082 1.461484 0.667912
  H 4.161450 0.296230 1.729969
  H 2.242115 0.456419 3.301644
  H 1.451203 1.609932 2.216832
  H 4.158046 2.011541 3.575551
  H 2.644828 2.788979 4.024464
  H 3.393490 3.161139 2.476250
  H 2.614834 -1.765435 -1.037191
  H 5.138300 -0.217845 -0.258818
  H 4.700288 -2.489790 -3.776197
  H 5.313578 -0.871645 -3.921517
  H 3.082072 0.047660 -3.184455
  H 2.442842 -1.599513 -3.178405
  H 3.638969 -0.195079 -5.607142
  H 1.928641 -0.485363 -5.313734
  H 3.013931 -1.843446 -5.585787
  H 6.619175 -2.070236 -0.922221
 32
 12.859276
  C 1.333544 -1.185895 1.162272
  C 2.599600 -0.591107 0.683321
  C 3.177133 0.631539 1.301661
  C 2.422825 1.234918 2.484275
  C 3.122075 2.498221 2.977237
  C 3.228348 -1.194447 -0.400413
  C 4.470616 -0.884600 -0.908085
  C 5.057818 -1.598406 -1.996863
  C 4.566073 -1.489966 -3.385881
  C 3.246743 -0.748897 -3.585586
  C 2.941110 -0.596425 -5.071515
  O 6.088024 -2.365693 -1.828529
  H 1.081301 -0.874554 2.169450
  H 1.374252 -2.272727 1.118838
  H 0.517384 -0.876221 0.505314
  H 3.261965 1.400278 0.525762
  H 4.201068 0.411929 1.623685
  H 2.375633 0.519755 3.307546
  H 1.403257 1.488162 2.190000
  H 4.129791 2.275344 3.321223
  H 2.573011 2.936880 3.806845
  H 3.185913 3.241143 2.185178
  H 2.724570 -2.047942 -0.833770
  H 5.066578 -0.097336 -0.465506
  H 4.524921 -2.485021 -3.840863
  H 5.360966 -0.967046 -3.933334
  H 3.300362 0.238130 -3.124700
  H 2.433479 -1.296912 -3.112008
  H 3.720908 -0.029351 -5.574404
  H 1.999961 -0.071714 -5.212554
  H 2.860277 -1.568220 -5.552624
  H 6.423003 -2.437471 -0.911728
 32
 20.215615
  C 1.327686 -1.200622 1.386085
  C 2.574821 -0.657610 0.791685
  C 3.188825 0.616337 1.264400
  C 2.495906 1.326466 2.424382
  C 3.220577 2.623282 2.770662
  C 3.142547 -1.356471 -0.269932
  C 4.309568 -1.036119 -0.920924
  C 4.859627 -1.843200 -1.989123
  C 4.498781 -1.596408 -3.391724
  C 3.357920 -0.606192 -3.618677
  C 3.149336 -0.360047 -5.109021
  O 5.671640 -2.801931 -1.766570
  H 1.126209 -0.792773 2.370294
  H 1.371497 -2.286471 1.453092
  H 0.476321 -0.955336 0.746787
  H 3.231259 1.313533 0.420171
  H 4.226651 0.420083 1.555951
  H 2.486993 0.686448 3.308620
  H 1.463421 1.557746 2.158267
  H 4.242526 2.423433 3.085702
  H 2.712357 3.137554 3.582625
  H 3.250413 3.291828 1.912986
  H 2.623145 -2.251415 -0.585493
  H 4.861388 -0.142616 -0.670492
  H 4.294621 -2.551272 -3.888713
  H 5.411164 -1.229646 -3.883389
  H 3.579451 0.339659 -3.122804
  H 2.437000 -0.999068 -3.186706
  H 4.043861 0.056654 -5.565299
  H 2.335323 0.342420 -5.265796
  H 2.899816 -1.284569 -5.624442
  H 5.951304 -2.951432 -0.835883
 32
 14.552641
  C 1.348177 -1.178810 1.561128
  C 2.565899 -0.674524 0.888211
  C 3.206197 0.610810 1.275350
  C 2.567894 1.386483 2.425276
  C 3.320243 2.690378 2.673792
  C 3.079593 -1.425861 -0.164263
  C 4.153790 -1.080827 -0.958429
  C 4.643310 -1.951609 -1.985569
  C 4.427473 -1.671274 -3.416840
  C 3.470234 -0.519935 -3.717168
  C 3.379396 -0.275462 -5.219091
  O 5.272446 -3.047360 -1.703905
  H 1.179426 -0.709526 2.523239
  H 1.396296 -2.258731 1.690240
  H 0.475617 -0.978020 0.934943
  H 3.222898 1.262614 0.394122
  H 4.253631 0.420134 1.531653
  H 2.590168 0.792257 3.340633
  H 1.527794 1.618635 2.190988
  H 4.353428 2.495202 2.952986
  H 2.853998 3.250116 3.480987
  H 3.316815 3.316338 1.784127
  H 2.568277 -2.349627 -0.400530
  H 4.660557 -0.135888 -0.828440
  H 4.092730 -2.597759 -3.893018
  H 5.402453 -1.462493 -3.877355
  H 3.814093 0.390109 -3.225911
  H 2.477608 -0.755247 -3.331288
  H 4.351115 -0.012591 -5.630223
  H 2.693076 0.540315 -5.429804
  H 3.017584 -1.161395 -5.735502
  H 5.480824 -3.181830 -0.756864
 32
 7.098286
  C 1.467072 -1.233875 1.807724
  C 2.590252 -0.715502 1.000374
  C 3.196687 0.613505 1.264443
  C 2.621380 1.425796 2.422163
  C 3.330143 2.772389 2.533597
  C 3.044311 -1.500894 -0.052317
  C 3.978367 -1.121837 -1.005034
  C 4.431418 -2.003183 -2.013881
  C 4.361050 -1.668410 -3.453012
  C 3.570947 -0.408462 -3.797811
  C 3.605389 -0.149060 -5.299818
  O 4.902455 -3.187510 -1.736042
  H 1.360570 -0.720928 2.756328
  H 1.572940 -2.303104 1.982467
  H 0.536070 -1.101943 1.251240
  H 3.111658 1.214835 0.352102
  H 4.270129 0.481261 1.436825
  H 2.748774 0.887407 3.363036
  H 1.555654 1.600439 2.266798
  H 4.391667 2.637893 2.729729
  H 2.909483 3.356447 3.348491
  H 3.219876 3.346891 1.616495
  H 2.575273 -2.467606 -0.181809
  H 4.378378 -0.118969 -1.009838
  H 3.942011 -2.539912 -3.965179
  H 5.381894 -1.578155 -3.844689
  H 3.991081 0.453431 -3.280013
  H 2.534715 -0.523654 -3.477280
  H 4.626101 -0.004154 -5.645652
  H 3.036656 0.744233 -5.544107
  H 3.174010 -0.983288 -5.847983
  H 5.062131 -3.349730 -0.786019
 32
 1.568612
  C 1.620833 -1.270727 2.046288
  C 2.612990 -0.737936 1.093617
  C 3.183534 0.621690 1.246064
  C 2.697672 1.456096 2.428190
  C 3.347964 2.836288 2.410708
  C 2.981616 -1.542517 0.022956
  C 3.765430 -1.148769 -1.059125
  C 4.174940 -2.038380 -2.059805
  C 4.272846 -1.661187 -3.489782
  C 3.687573 -0.304549 -3.871719
  C 3.860419 -0.050172 -5.365308
  O 4.473000 -3.288665 -1.804473
  H 1.628518 -0.749590 2.996601
  H 1.764269 -2.336882 2.210984
  H 0.623158 -1.156550 1.614761
  H 2.982515 1.183176 0.326651
  H 4.274111 0.536896 1.305959
  H 2.951506 0.965475 3.369529
  H 1.614129 1.575934 2.384100
  H 4.429956 2.757335 2.490457
  H 2.992280 3.433520 3.246668
  H 3.108830 3.368186 1.492506
  H 2.557282 -2.537931 -0.013180
  H 4.048711 -0.114470 -1.171414
  H 3.786509 -2.457402 -4.062175
  H 5.327079 -1.703616 -3.788055
  H 4.187266 0.492698 -3.321422
  H 2.625640 -0.277054 -3.624237
  H 4.912840 -0.048413 -5.639085
  H 3.439221 0.913998 -5.637706
  H 3.356364 -0.815640 -5.950557
  H 4.600532 -3.490519 -0.858568
 32
 0.241136
  C 1.754980 -1.280607 2.202409
  C 2.604271 -0.723531 1.135208
  C 3.161788 0.644821 1.233469
  C 2.763115 1.475885 2.449397
  C 3.351757 2.880331 2.354547
  C 2.873947 -1.517145 0.028654
  C 3.541456 -1.115272 -1.130590
  C 3.954470 -2.021810 -2.103438
  C 4.226662 -1.649706 -3.512187
  C 3.833109 -0.238957 -3.938995
  C 4.132289 -0.026184 -5.419287
  O 4.119228 -3.303197 -1.843997
  H 1.934825 -0.815166 3.165272
  H 1.870353 -2.359091 2.283668
  H 0.708099 -1.098477 1.944536
  H 2.879674 1.197949 0.330471
  H 4.254937 0.577486 1.199195
  H 3.127963 1.009294 3.366122
  H 1.676509 1.550943 2.512785
  H 4.438422 2.845299 2.320552
  H 3.061839 3.471568 3.219633
  H 2.996418 3.393151 1.463554
  H 2.479839 -2.525799 0.040338
  H 3.712765 -0.068297 -1.317416
  H 3.718002 -2.386740 -4.143066
  H 5.294369 -1.809437 -3.701629
  H 4.390935 0.499684 -3.362475
  H 2.768122 -0.081444 -3.763835
  H 5.192665 -0.155397 -5.623010
  H 3.849857 0.978359 -5.723353
  H 3.577950 -0.732355 -6.032982
  H 4.337144 -3.514359 -0.918980
 32
 3.215216
  C 1.763242 -1.226259 2.246600
  C 2.551963 -0.680952 1.130036
  C 3.156281 0.667294 1.214077
  C 2.843434 1.493884 2.457418
  C 3.436873 2.894131 2.334470
  C 2.722896 -1.461522 -0.003895
  C 3.367538 -1.079250 -1.186126
  C 3.792342 -2.007290 -2.126093
  C 4.197807 -1.662977 -3.507612
  C 3.973755 -0.223067 -3.957665
  C 4.368886 -0.051673 -5.420892
  O 3.841848 -3.307682 -1.845355
  H 2.084777 -0.840924 3.208768
  H 1.773556 -2.313338 2.255373
  H 0.720730 -0.923027 2.114056
  H 2.849209 1.238223 0.330310
  H 4.243853 0.568495 1.123510
  H 3.261272 1.018191 3.346483
  H 1.763844 1.576527 2.591147
  H 4.518380 2.850774 2.226579
  H 3.211519 3.480037 3.222114
  H 3.026310 3.417811 1.474076
  H 2.296415 -2.456984 0.014307
  H 3.522758 -0.035019 -1.401459
  H 3.668591 -2.349289 -4.179255
  H 5.255080 -1.928882 -3.620435
  H 4.575602 0.457223 -3.353633
  H 2.923151 0.044833 -3.839249
  H 5.419733 -0.288903 -5.569353
  H 4.206143 0.974369 -5.740535
  H 3.777844 -0.701792 -6.061698
  H 4.294973 -3.531196 -1.016058
 32
 7.003891
  C 1.639526 -1.087576 2.227141
  C 2.455799 -0.612106 1.100054
  C 3.170953 0.680150 1.177306
  C 2.951994 1.522108 2.430134
  C 3.652847 2.871161 2.300456
  C 2.537244 -1.400196 -0.039749
  C 3.219858 -1.067602 -1.218766
  C 3.630947 -2.018919 -2.134186
  C 4.163955 -1.703009 -3.477535
  C 4.130119 -0.242440 -3.914878
  C 4.634658 -0.099620 -5.347504
  O 3.528206 -3.329026 -1.847322
  H 2.021730 -0.751679 3.186026
  H 1.532454 -2.169250 2.221822
  H 0.633531 -0.670217 2.124242
  H 2.894059 1.279001 0.301888
  H 4.244814 0.494338 1.063035
  H 3.348923 1.009243 3.308069
  H 1.885674 1.689813 2.588001
  H 4.724882 2.742722 2.169004
  H 3.494067 3.467651 3.195379
  H 3.266944 3.431316 1.451751
  H 2.037089 -2.360230 -0.021289
  H 3.449158 -0.035883 -1.430606
  H 3.600935 -2.316747 -4.191929
  H 5.189582 -2.084642 -3.539623
  H 4.764188 0.358988 -3.261901
  H 3.110423 0.140235 -3.858114
  H 5.661102 -0.448321 -5.434348
  H 4.604628 0.941369 -5.658718
  H 4.019093 -0.674511 -6.035460
  H 4.202367 -3.659815 -1.236108
 32
 7.208538
  C 1.553848 -0.943720 2.209429
  C 2.382589 -0.533429 1.065607
  C 3.198715 0.698917 1.126584
  C 3.083376 1.549226 2.387460
  C 3.894354 2.833836 2.245646
  C 2.379355 -1.327577 -0.074517
  C 3.081763 -1.044977 -1.256853
  C 3.486366 -2.024297 -2.142559
  C 4.151541 -1.747436 -3.437858
  C 4.268017 -0.285778 -3.858430
  C 4.890029 -0.176031 -5.247303
  O 3.263069 -3.316535 -1.843482
  H 1.967629 -0.620394 3.159238
  H 1.380974 -2.016886 2.217971
  H 0.572857 -0.468846 2.113191
  H 2.942690 1.321903 0.261536
  H 4.251025 0.431819 0.978817
  H 3.456478 0.998712 3.253004
  H 2.039749 1.807035 2.572694
  H 4.948052 2.614632 2.088748
  H 3.807992 3.437096 3.145932
  H 3.538474 3.429490 1.408091
  H 1.820755 -2.253808 -0.039864
  H 3.372387 -0.029187 -1.470750
  H 3.588006 -2.304434 -4.196791
  H 5.147191 -2.205431 -3.438241
  H 4.896698 0.258485 -3.152319
  H 3.280858 0.177447 -3.874878
  H 5.888751 -0.606296 -5.260955
  H 4.967371 0.865748 -5.547303
  H 4.284121 -0.694868 -5.986569
  H 4.044800 -3.787948 -1.520225
 32
 2.248408
  C 1.605151 -0.984726 2.261489
  C 2.396401 -0.573823 1.088267
  C 3.164839 0.691394 1.108160
  C 3.034153 1.563633 2.352917
  C 3.792909 2.873669 2.172210
  C 2.396605 -1.395503 -0.030719
  C 3.067397 -1.112085 -1.224716
  C 3.396716 -2.082920 -2.161728
  C 4.086693 -1.788050 -3.450280
  C 4.319567 -0.313983 -3.792501
  C 4.947503 -0.180708 -5.178064
  O 3.069685 -3.343960 -1.917108
  H 2.048006 -0.650691 3.194895
  H 1.443830 -2.059316 2.283758
  H 0.618252 -0.514677 2.197629
  H 2.870833 1.286501 0.237295
  H 4.225511 0.460322 0.951678
  H 3.439052 1.046864 3.224015
  H 1.984520 1.785863 2.547446
  H 4.850633 2.690837 2.003199
  H 3.697261 3.492213 3.061054
  H 3.402429 3.436810 1.328868
  H 1.876743 -2.342127 0.033159
  H 3.396231 -0.105158 -1.421989
  H 3.477865 -2.250585 -4.239336
  H 5.048764 -2.315063 -3.481666
  H 4.990742 0.140309 -3.061757
  H 3.372915 0.226494 -3.781260
  H 5.907790 -0.688111 -5.220031
  H 5.108380 0.866014 -5.422520
  H 4.301111 -0.608265 -5.940737
  H 3.800793 -3.981873 -2.004854
 32
 1.472159
  C 1.582584 -0.953466 2.259370
  C 2.330794 -0.533068 1.061857
  C 3.120196 0.721092 1.059974
  C 3.147476 1.533336 2.350258
  C 3.929943 2.828101 2.152840
  C 2.270253 -1.330023 -0.069622
  C 2.903560 -1.033443 -1.288870
  C 3.413663 -2.022663 -2.111669
  C 4.164225 -1.748464 -3.366505
  C 4.278955 -0.284740 -3.787965
  C 5.004003 -0.170141 -5.125407
  O 3.260515 -3.285002 -1.747122
  H 2.024926 -0.586573 3.178939
  H 1.468962 -2.033938 2.299375
  H 0.572189 -0.538242 2.199741
  H 2.731285 1.359644 0.257203
  H 4.149593 0.492762 0.764760
  H 3.624564 0.959074 3.146811
  H 2.132765 1.777827 2.666253
  H 4.958930 2.621888 1.867635
  H 3.946021 3.405190 3.074047
  H 3.475759 3.444025 1.379925
  H 1.720631 -2.259311 -0.005476
  H 3.115441 -0.007144 -1.537376
  H 3.654528 -2.304495 -4.162535
  H 5.170059 -2.174688 -3.292864
  H 4.836903 0.277897 -3.038588
  H 3.285606 0.154079 -3.885998
  H 6.010908 -0.575564 -5.057606
  H 5.079414 0.870901 -5.427956
  H 4.469912 -0.708660 -5.904919
  H 3.995319 -3.859727 -2.023457
