 13
 0.000000
  C 0.994804 0.144334 0.402407
  C 2.435165 0.105626 0.309359
  H 3.027702 0.443448 1.148795
  C 3.093378 -0.349423 -0.819016
  C 4.497895 -0.391735 -0.918409
  C 5.124934 -0.837972 -2.042061
  H 4.563004 -1.171605 -2.898778
  H 6.196536 -0.871607 -2.112138
  H 0.635497 0.535219 1.346383
  H 0.580005 -0.854598 0.219810
  H 0.574818 0.721269 -0.429794
  H 2.514368 -0.689168 -1.668228
  H 5.084700 -0.059674 -0.072467
 13
 0.549383
  C 1.000500 0.095453 0.420521
  C 2.433398 0.198423 0.272590
  H 3.022933 0.564501 1.102924
  C 3.094653 -0.197384 -0.877476
  C 4.491475 -0.371925 -0.925543
  C 5.115421 -0.885803 -2.021208
  H 4.570154 -1.107568 -2.924686
  H 6.171637 -1.084817 -2.022695
  H 0.639456 0.468830 1.371768
  H 0.701070 -0.953929 0.290089
  H 0.484430 0.583000 -0.414255
  H 2.521334 -0.441651 -1.762395
  H 5.068650 -0.142558 -0.039868
 13
 2.150342
  C 1.016920 0.067612 0.422717
  C 2.430316 0.308127 0.238326
  H 3.004714 0.720477 1.061447
  C 3.102632 -0.042719 -0.918649
  C 4.476221 -0.355074 -0.922871
  C 5.086684 -0.888097 -2.015400
  H 4.571018 -0.976367 -2.961128
  H 6.105044 -1.236770 -1.975027
  H 0.641858 0.434969 1.367659
  H 0.845211 -1.017260 0.354291
  H 0.432484 0.454296 -0.418894
  H 2.545426 -0.185731 -1.839099
  H 5.030283 -0.256241 0.000515
 13
 4.541807
  C 1.040060 0.006900 0.445520
  C 2.426397 0.348968 0.212709
  H 2.979408 0.852373 0.998836
  C 3.107240 -0.002517 -0.938428
  C 4.448851 -0.418744 -0.912362
  C 5.074709 -0.917572 -2.011347
  H 4.627030 -0.855507 -2.990373
  H 6.047904 -1.379139 -1.941518
  H 0.655140 0.388215 1.386075
  H 0.988143 -1.090323 0.444191
  H 0.398158 0.291217 -0.392757
  H 2.571403 -0.072259 -1.877248
  H 4.950513 -0.452644 0.046278
 13
 7.807280
  C 1.067516 -0.046895 0.472128
  C 2.413595 0.400168 0.185295
  H 2.941710 0.964301 0.945725
  C 3.112736 0.066154 -0.962103
  C 4.412710 -0.467377 -0.918913
  C 5.066287 -0.920784 -2.018379
  H 4.659794 -0.794714 -3.008297
  H 6.008206 -1.430158 -1.934581
  H 0.683084 0.328327 1.415886
  H 1.108058 -1.142860 0.498051
  H 0.375850 0.168881 -0.343421
  H 2.616529 0.124839 -1.925105
  H 4.856213 -0.610415 0.058072
 13
 12.812483
  C 1.117077 -0.113370 0.511880
  C 2.405076 0.445945 0.176739
  H 2.860177 1.156889 0.861475
  C 3.118797 0.106064 -0.965773
  C 4.376838 -0.503381 -0.926571
  C 5.039407 -0.925015 -2.035210
  H 4.725871 -0.638231 -3.024277
  H 5.899639 -1.566380 -1.957406
  H 0.717367 0.253014 1.448437
  H 1.266108 -1.201675 0.554294
  H 0.387232 0.016517 -0.290334
  H 2.646740 0.240469 -1.936014
  H 4.780621 -0.738003 0.048324
 13
 19.313427
  C 1.179648 -0.179613 0.554369
  C 2.388272 0.502043 0.167899
  H 2.769943 1.302043 0.799926
  C 3.137236 0.159852 -0.970913
  C 4.327122 -0.561210 -0.937901
  C 5.000016 -0.952113 -2.053876
  H 4.678311 -0.661910 -3.041115
  H 5.869114 -1.579824 -1.982897
  H 0.761121 0.172620 1.488270
  H 1.420322 -1.248497 0.600091
  H 0.418908 -0.137821 -0.233556
  H 2.731890 0.435624 -1.942716
  H 4.689975 -0.879087 0.030635
 13
 26.382077
  C 1.259200 -0.237498 0.609170
  C 2.368427 0.549792 0.156538
  H 2.655539 1.437324 0.716241
  C 3.159898 0.205529 -0.974475
  C 4.271205 -0.622060 -0.954312
  C 4.950161 -0.993418 -2.082263
  H 4.671570 -0.629779 -3.055748
  H 5.782403 -1.670418 -2.026750
  H 0.818484 0.119614 1.533268
  H 1.555493 -1.293015 0.674845
  H 0.490713 -0.291315 -0.174941
  H 2.832866 0.600388 -1.933439
  H 4.602058 -1.001244 0.003132
 13
 16.620511
  C 1.324081 -0.287023 0.664156
  C 2.344528 0.567255 0.103780
  H 2.495592 1.549417 0.542894
  C 3.166744 0.223901 -0.973529
  C 4.207398 -0.715429 -0.974768
  C 4.910507 -1.008709 -2.100422
  H 4.670900 -0.561833 -3.049399
  H 5.737261 -1.696822 -2.075337
  H 0.877690 0.111644 1.568556
  H 1.657291 -1.325041 0.790598
  H 0.545315 -0.416232 -0.101578
  H 2.984628 0.760801 -1.898928
  H 4.471682 -1.180242 -0.035471
 13
 9.324694
  C 1.415579 -0.325169 0.691771
  C 2.324067 0.611364 0.072623
  H 2.323373 1.639354 0.422424
  C 3.187861 0.288438 -0.959776
  C 4.146315 -0.748685 -0.972763
  C 4.860851 -1.034767 -2.102023
  H 4.663685 -0.537149 -3.038276
  H 5.637844 -1.780949 -2.097613
  H 0.956239 0.052488 1.597450
  H 1.860791 -1.314507 0.817767
  H 0.620794 -0.538006 -0.035751
  H 3.146664 0.923293 -1.842092
  H 4.343012 -1.274922 -0.048977
 13
 5.076839
  C 1.518103 -0.377300 0.702738
  C 2.305017 0.640668 0.042559
  H 2.144877 1.678343 0.314266
  C 3.222333 0.358364 -0.946451
  C 4.103889 -0.747445 -0.971990
  C 4.788856 -1.077281 -2.099571
  H 4.642480 -0.545829 -3.025849
  H 5.486250 -1.897574 -2.110468
  H 1.067722 -0.041078 1.630495
  H 2.074888 -1.311009 0.790162
  H 0.696784 -0.658397 0.028908
  H 3.290041 1.052293 -1.779430
  H 4.255384 -1.306026 -0.058822
 13
 5.879204
  C 1.607511 -0.441368 0.629483
  C 2.285070 0.686426 0.026389
  H 1.997844 1.695657 0.291770
  C 3.284633 0.474344 -0.895951
  C 4.095815 -0.689825 -0.918884
  C 4.686661 -1.144879 -2.051040
  H 4.527181 -0.667345 -3.004284
  H 5.278061 -2.044629 -2.047387
  H 1.145795 -0.221309 1.586054
  H 2.283413 -1.299986 0.595131
  H 0.798973 -0.769662 -0.039326
  H 3.450415 1.210635 -1.674917
  H 4.307397 -1.180431 0.022245
