 25
 0.000000
  C 0.963816 0.146780 0.410818
  C 2.436046 0.136211 0.399076
  C 3.231507 0.601752 1.556116
  C 2.466115 1.095291 2.777192
  H 3.162205 1.404668 3.548396
  C 3.049712 -0.330538 -0.760958
  C 4.433536 -0.412697 -0.974292
  C 5.092609 -0.859285 -2.094945
  C 4.625188 -1.378332 -3.389995
  C 3.143755 -1.508884 -3.707907
  H 3.023159 -1.909593 -4.708780
  H 6.173981 -0.840758 -2.055618
  H 0.542349 0.528556 1.333075
  H 0.578448 -0.860959 0.247554
  H 0.592562 0.753006 -0.417009
  H 3.893531 1.405007 1.213353
  H 3.890621 -0.216676 1.867260
  H 1.833715 0.309579 3.185360
  H 1.837030 1.946765 2.525870
  H 2.389509 -0.647907 -1.551040
  H 5.064397 -0.086012 -0.157801
  H 5.101247 -2.360415 -3.512850
  H 5.097688 -0.750275 -4.157148
  H 2.651457 -0.539576 -3.674362
  H 2.655196 -2.189425 -3.014246
 25
 0.563677
  C 0.981663 -0.089763 0.519958
  C 2.431748 0.103597 0.410092
  C 3.213844 0.764366 1.471477
  C 2.456513 1.236744 2.704501
  H 3.148986 1.720812 3.388251
  C 3.042517 -0.374453 -0.749836
  C 4.420122 -0.584981 -0.914358
  C 5.070621 -1.077282 -2.017797
  C 4.618190 -1.415606 -3.371819
  C 3.164296 -1.246931 -3.778937
  H 3.058288 -1.511721 -4.828557
  H 6.133265 -1.244086 -1.889298
  H 0.590531 0.163948 1.496740
  H 0.743150 -1.126824 0.284405
  H 0.468490 0.507618 -0.231169
  H 3.731383 1.621698 1.022773
  H 4.014311 0.085217 1.785940
  H 1.997617 0.405323 3.232305
  H 1.687543 1.959384 2.446667
  H 2.381853 -0.660171 -1.552509
  H 5.049274 -0.391276 -0.055330
  H 4.932100 -2.452126 -3.559037
  H 5.253763 -0.833234 -4.054557
  H 2.838472 -0.216985 -3.662511
  H 2.514811 -1.907012 -3.210437
 25
 3.862576
  C 1.040955 -0.302592 0.612847
  C 2.427777 0.135004 0.399467
  C 3.173095 0.938872 1.385833
  C 2.453471 1.295518 2.677882
  H 3.100778 1.915416 3.292165
  C 3.033885 -0.306901 -0.777328
  C 4.363396 -0.711819 -0.880447
  C 4.997609 -1.281126 -1.957941
  C 4.589536 -1.495312 -3.352852
  C 3.225817 -1.037628 -3.844340
  H 3.149883 -1.235836 -4.911201
  H 5.997228 -1.650345 -1.761908
  H 0.690192 -0.119944 1.620872
  H 1.001529 -1.367837 0.382164
  H 0.364965 0.188436 -0.089723
  H 3.487608 1.861554 0.883620
  H 4.113255 0.425562 1.620304
  H 2.204383 0.405934 3.250852
  H 1.543732 1.857340 2.484479
  H 2.376087 -0.485600 -1.614839
  H 4.955825 -0.648062 0.023622
  H 4.713148 -2.565919 -3.562759
  H 5.368987 -1.020847 -3.965247
  H 3.090054 0.030238 -3.693871
  H 2.423803 -1.586519 -3.357119
 25
 9.325503
  C 1.136175 -0.447581 0.675206
  C 2.434031 0.184849 0.396650
  C 3.124912 1.083244 1.332238
  C 2.448174 1.347351 2.668885
  H 3.042380 2.054165 3.241771
  C 3.045294 -0.217315 -0.801572
  C 4.306411 -0.797203 -0.858056
  C 4.915978 -1.416195 -1.921965
  C 4.550639 -1.545351 -3.341713
  C 3.290558 -0.884060 -3.878494
  H 3.233575 -1.052290 -4.951681
  H 5.839679 -1.931060 -1.687032
  H 0.809618 -0.311039 1.698254
  H 1.277110 -1.503956 0.442195
  H 0.357461 -0.082909 0.003305
  H 3.274785 2.035255 0.807406
  H 4.143862 0.708795 1.492628
  H 2.360916 0.435448 3.254368
  H 1.459149 1.777168 2.535076
  H 2.411089 -0.255291 -1.675260
  H 4.853961 -0.838061 0.075833
  H 4.524120 -2.618367 -3.571060
  H 5.417038 -1.175742 -3.906832
  H 3.306932 0.189766 -3.711739
  H 2.396731 -1.317160 -3.437346
 25
 16.795069
  C 1.265573 -0.635670 0.811094
  C 2.452325 0.135723 0.432532
  C 3.063908 1.175059 1.263834
  C 2.415062 1.457865 2.610411
  H 2.944105 2.268537 3.103853
  C 3.053923 -0.247069 -0.797530
  C 4.223607 -0.978100 -0.846879
  C 4.817951 -1.577786 -1.926749
  C 4.516258 -1.549019 -3.367833
  C 3.367820 -0.698898 -3.890709
  H 3.341798 -0.769839 -4.975889
  H 5.666699 -2.207850 -1.694371
  H 0.996304 -0.510876 1.853016
  H 1.504368 -1.674282 0.575930
  H 0.401400 -0.370939 0.197394
  H 3.081297 2.092964 0.662816
  H 4.128006 0.933201 1.394202
  H 2.459706 0.588337 3.261290
  H 1.377855 1.759656 2.494222
  H 2.468447 -0.095683 -1.693130
  H 4.705861 -1.165424 0.104694
  H 4.370117 -2.588611 -3.687254
  H 5.445207 -1.242309 -3.866065
  H 3.503260 0.347938 -3.631336
  H 2.410811 -1.056556 -3.520938
 25
 24.842593
  C 1.436962 -0.794666 0.940980
  C 2.498104 0.087787 0.475563
  C 2.998333 1.241501 1.213861
  C 2.356130 1.545823 2.557419
  H 2.807815 2.438414 2.981351
  C 3.109694 -0.269963 -0.776351
  C 4.142895 -1.171849 -0.852942
  C 4.726215 -1.715434 -1.969429
  C 4.469821 -1.535167 -3.409442
  C 3.403802 -0.553403 -3.873568
  H 3.391212 -0.534869 -4.960992
  H 5.522257 -2.421638 -1.776061
  H 1.203770 -0.675782 1.992858
  H 1.704362 -1.820671 0.686746
  H 0.526127 -0.595383 0.366377
  H 2.915586 2.116119 0.555935
  H 4.085549 1.118621 1.320912
  H 2.508595 0.731753 3.262064
  H 1.290142 1.728221 2.454404
  H 2.635240 0.110113 -1.671080
  H 4.558908 -1.504141 0.089449
  H 4.246218 -2.527541 -3.819735
  H 5.428709 -1.260031 -3.866418
  H 3.622611 0.454620 -3.531293
  H 2.415717 -0.859021 -3.541899
 25
 16.104555
  C 1.675454 -0.914433 1.043931
  C 2.589659 0.085246 0.494256
  C 2.936577 1.332889 1.186937
  C 2.258554 1.591016 2.524200
  H 2.595117 2.544917 2.920977
  C 3.210955 -0.240885 -0.741960
  C 4.085131 -1.319030 -0.873238
  C 4.618162 -1.836310 -2.027270
  C 4.381930 -1.548064 -3.452478
  C 3.409062 -0.453381 -3.866088
  H 3.402762 -0.380591 -4.951664
  H 5.353552 -2.618674 -1.885346
  H 1.475917 -0.799125 2.102844
  H 1.994584 -1.924525 0.780255
  H 0.727300 -0.794946 0.507820
  H 2.745199 2.177725 0.510707
  H 4.026658 1.340328 1.304780
  H 2.510880 0.824609 3.251988
  H 1.178311 1.635437 2.417917
  H 2.893400 0.302642 -1.618699
  H 4.426104 -1.770285 0.049974
  H 4.076082 -2.497140 -3.910970
  H 5.362478 -1.336140 -3.897134
  H 3.716309 0.514795 -3.479788
  H 2.395536 -0.683962 -3.547028
 25
 6.886649
  C 1.976504 -1.041906 1.179701
  C 2.763151 0.021578 0.542246
  C 2.860116 1.377128 1.109807
  C 2.078113 1.633430 2.390952
  H 2.221090 2.664962 2.702257
  C 3.397948 -0.273638 -0.658251
  C 4.109194 -1.458905 -0.896586
  C 4.521773 -1.950039 -2.105028
  C 4.238456 -1.538923 -3.492783
  C 3.406617 -0.297037 -3.777696
  H 3.318384 -0.171488 -4.855073
  H 5.144214 -2.834171 -2.058481
  H 1.903749 -0.945255 2.258883
  H 2.330838 -2.017911 0.865895
  H 0.957346 -0.965468 0.781866
  H 2.552922 2.101624 0.344937
  H 3.924286 1.589075 1.274297
  H 2.421348 0.995988 3.203387
  H 1.013405 1.470481 2.242143
  H 3.315368 0.445553 -1.451911
  H 4.396623 -2.027547 -0.021221
  H 3.765252 -2.407741 -3.971901
  H 5.206559 -1.450769 -4.004310
  H 3.884059 0.597497 -3.389776
  H 2.403280 -0.391545 -3.370537
 25
 6.259990
  C 2.125965 -1.058089 1.053415
  C 2.860627 0.086522 0.500233
  C 2.828568 1.429387 1.113626
  C 1.994488 1.566936 2.377883
  H 2.024268 2.596439 2.724277
  C 3.618732 -0.154769 -0.634781
  C 4.236157 -1.401982 -0.896162
  C 4.535182 -1.957961 -2.104581
  C 4.078624 -1.604768 -3.459735
  C 3.296797 -0.319556 -3.676189
  H 2.995899 -0.255277 -4.719144
  H 5.109786 -2.873750 -2.078708
  H 1.996673 -1.021246 2.127968
  H 2.600759 -1.965624 0.682572
  H 1.126847 -1.072788 0.608434
  H 2.462039 2.140086 0.363000
  H 3.860461 1.739970 1.309876
  H 2.381811 0.940804 3.178032
  H 0.956445 1.300907 2.196402
  H 3.740345 0.639869 -1.355193
  H 4.616396 -1.921770 -0.025411
  H 3.486298 -2.457172 -3.818766
  H 4.963728 -1.608123 -4.108778
  H 3.905467 0.553793 -3.459876
  H 2.399055 -0.298579 -3.064830
 25
 9.691380
  C 2.266535 -1.071253 0.918452
  C 2.981110 0.116992 0.449499
  C 2.857363 1.440918 1.095775
  C 1.866630 1.525579 2.244699
  H 1.816999 2.547136 2.611337
  C 3.837500 -0.076282 -0.613037
  C 4.379799 -1.373021 -0.893924
  C 4.547181 -1.973199 -2.096642
  C 3.890998 -1.640401 -3.376538
  C 3.164042 -0.310550 -3.477312
  H 2.621046 -0.260416 -4.417397
  H 5.095690 -2.903959 -2.113506
  H 2.010742 -1.061799 1.963791
  H 2.869374 -1.919459 0.557723
  H 1.354645 -1.222220 0.336763
  H 2.574716 2.165585 0.323424
  H 3.848619 1.756279 1.435640
  H 2.169059 0.894209 3.076219
  H 0.870355 1.230416 1.926123
  H 4.187120 0.767110 -1.193495
  H 4.947048 -1.782859 -0.064460
  H 3.197993 -2.461079 -3.608712
  H 4.652771 -1.708191 -4.163196
  H 3.862583 0.520965 -3.452752
  H 2.449825 -0.194323 -2.664861
 25
 21.417999
  C 2.325969 -1.037937 0.788808
  C 3.005179 0.197420 0.410541
  C 2.848384 1.484151 1.131522
  C 1.843512 1.468338 2.273911
  H 1.754584 2.465543 2.697384
  C 3.885207 0.042095 -0.639356
  C 4.382038 -1.304087 -0.854452
  C 4.525435 -1.964706 -2.036583
  C 3.846715 -1.680086 -3.314837
  C 3.107916 -0.359278 -3.442000
  H 2.546295 -0.342225 -4.372658
  H 5.073970 -2.897391 -2.021480
  H 2.019842 -1.126069 1.818363
  H 3.049970 -1.776624 0.307088
  H 1.525189 -1.351177 0.109923
  H 2.544143 2.235924 0.394073
  H 3.825835 1.805141 1.503143
  H 2.162165 0.801715 3.071463
  H 0.861157 1.158485 1.927021
  H 4.277786 0.868509 -1.207898
  H 5.080319 -1.597229 -0.075240
  H 3.155854 -2.512692 -3.507798
  H 4.590177 -1.770075 -4.115350
  H 3.801743 0.476146 -3.460378
  H 2.409042 -0.216768 -2.620004
 25
 37.034504
  C 2.362066 -1.002056 0.728044
  C 3.018125 0.235692 0.395658
  C 2.840556 1.508887 1.157868
  C 1.817496 1.445999 2.284761
  H 1.714467 2.428154 2.739504
  C 3.903112 0.108439 -0.639975
  C 4.351619 -1.275671 -0.808201
  C 4.496115 -1.954918 -1.997212
  C 3.824538 -1.688733 -3.274860
  C 3.072962 -0.377383 -3.428729
  H 2.518833 -0.383008 -4.364132
  H 5.055740 -2.880317 -1.968826
  H 2.018634 -1.145063 1.739231
  H 3.280221 -1.725726 0.082099
  H 1.707010 -1.466897 -0.005199
  H 2.537130 2.275124 0.437384
  H 3.806251 1.824534 1.558974
  H 2.129647 0.755212 3.064247
  H 0.842563 1.141815 1.911765
  H 4.301062 0.920729 -1.220454
  H 5.118163 -1.525509 -0.077261
  H 3.140422 -2.531180 -3.452474
  H 4.565367 -1.791010 -4.075842
  H 3.758465 0.464336 -3.458562
  H 2.365297 -0.225144 -2.617116
 25
 41.830963
  C 2.307490 -0.978194 0.753539
  C 2.994240 0.209171 0.418191
  C 2.831259 1.502239 1.164374
  C 1.787294 1.479434 2.273771
  H 1.698654 2.471113 2.710758
  C 3.904626 0.074170 -0.601183
  C 4.350072 -1.322129 -0.784534
  C 4.514837 -1.959435 -2.033155
  C 3.847860 -1.652204 -3.297055
  C 3.047461 -0.362489 -3.398159
  H 2.499216 -0.347360 -4.336797
  H 5.108198 -2.864413 -2.043335
  H 1.924080 -1.111060 1.753347
  H 3.482389 -1.808156 -0.082192
  H 1.738254 -1.508954 0.003704
  H 2.557361 2.261916 0.426696
  H 3.796086 1.801312 1.580961
  H 2.070035 0.794516 3.069157
  H 0.812266 1.191069 1.888000
  H 4.327636 0.889989 -1.157632
  H 5.158534 -1.561168 -0.085394
  H 3.195936 -2.511168 -3.515905
  H 4.595354 -1.693195 -4.100147
  H 3.700912 0.504401 -3.386959
  H 2.329846 -0.272173 -2.587165
 25
 38.824159
  C 2.131530 -0.943113 0.802418
  C 2.910787 0.143214 0.451126
  C 2.851520 1.467236 1.173771
  C 1.810536 1.557738 2.281021
  H 1.809824 2.562783 2.696223
  C 3.848593 -0.020579 -0.559089
  C 4.317439 -1.397865 -0.788304
  C 4.579911 -1.927115 -2.090789
  C 3.944460 -1.565551 -3.349402
  C 3.020643 -0.357625 -3.380410
  H 2.512273 -0.314404 -4.340262
  H 5.240552 -2.782416 -2.142280
  H 1.636867 -0.979834 1.758137
  H 3.538244 -1.992031 -0.211127
  H 1.711381 -1.603821 0.062880
  H 2.640653 2.229958 0.419515
  H 3.836562 1.694008 1.587952
  H 2.032862 0.867170 3.090672
  H 0.813562 1.348220 1.900293
  H 4.273259 0.809070 -1.095956
  H 5.149524 -1.615138 -0.102058
  H 3.389388 -2.462458 -3.665771
  H 4.718232 -1.468994 -4.122371
  H 3.576941 0.567200 -3.266164
  H 2.264957 -0.413445 -2.602073
 25
 33.963557
  C 1.983135 -0.892782 0.767218
  C 2.898396 0.078036 0.467691
  C 2.924662 1.419125 1.165415
  C 1.802647 1.655009 2.167256
  H 1.878489 2.664087 2.565419
  C 3.887277 -0.147196 -0.493119
  C 4.329307 -1.521093 -0.786855
  C 4.610856 -1.918062 -2.146402
  C 3.986112 -1.421051 -3.357650
  C 2.918272 -0.345357 -3.238946
  H 2.447154 -0.193750 -4.206712
  H 5.336840 -2.707701 -2.285581
  H 1.336135 -0.808918 1.620832
  H 3.591683 -2.194215 -0.303608
  H 1.749173 -1.695872 0.090567
  H 2.879736 2.189594 0.391721
  H 3.884795 1.531083 1.674491
  H 1.867967 0.964242 3.004345
  H 0.827938 1.550574 1.696228
  H 4.428424 0.678769 -0.923637
  H 5.214286 -1.723091 -0.164284
  H 3.555672 -2.309902 -3.846313
  H 4.767088 -1.114868 -4.067484
  H 3.340453 0.605281 -2.930622
  H 2.144787 -0.631333 -2.532487
