13

C 1.007552 -0.07137 0.047949
C 2.503681 -0.083201 0.024723
C 3.21732 -0.596601 -0.983169
C 4.655718 -0.606511 -1.002621
C 5.378643 -1.120874 -2.012398
H 6.448549621670364 -1.1272907053258756 -2.024993507082723
H 0.647151 0.395265 0.964026
H 0.611198 -1.086075 0.010199
H 0.611198 0.494701 -0.795032
H 3.00544 0.351992 0.879084
H 2.704671 -1.029721 -1.833443
H 5.158519 -0.171115 -0.14787
H 4.876509 -1.556386 -2.867383
