 13
 0.000000
  C 1.007773 -0.071339 0.048009
  C 2.504689 -0.084213 0.022735
  C 3.217009 -0.596517 -0.983005
  C 4.659057 -0.608413 -1.006355
  C 5.372852 -1.118510 -2.007756
  H 6.447538 -1.125559 -2.021593
  H 0.646510 0.395051 0.963604
  H 0.611617 -1.085393 0.008742
  H 0.611618 0.493120 -0.795335
  H 3.007631 0.350383 0.875924
  H 2.704590 -1.029326 -1.832668
  H 5.163541 -0.173706 -0.152955
  H 4.871725 -1.552765 -2.860275
 13
 -0.673753
  C 1.008238 -0.071574 0.074638
  C 2.499162 -0.039257 -0.008311
  C 3.212685 -0.628951 -0.969332
  C 4.654569 -0.579856 -1.043002
  C 5.368071 -1.163340 -2.000933
  H 6.441773 -1.099718 -2.034139
  H 0.674906 0.023048 1.106067
  H 0.612608 -0.993620 -0.346380
  H 0.585430 0.762418 -0.488343
  H 3.008335 0.517768 0.767711
  H 2.710751 -1.190588 -1.746923
  H 5.152115 -0.019921 -0.259945
  H 4.897737 -1.723532 -2.791908
 13
 -0.256284
  C 1.008220 -0.070432 0.061803
  C 2.494684 -0.048481 -0.016387
  C 3.218799 -0.679739 -0.937112
  C 4.651956 -0.559823 -1.054958
  C 5.368667 -1.200856 -1.971519
  H 6.405226 -0.970544 -2.132968
  H 0.697612 -0.296058 1.079885
  H 0.585687 -0.810923 -0.613615
  H 0.608477 0.911414 -0.193250
  H 2.991958 0.560446 0.728737
  H 2.724679 -1.268157 -1.700005
  H 5.141831 0.071143 -0.325272
  H 4.905909 -1.855074 -2.690680
 13
 15.755075
  C 1.031924 -0.055940 0.038662
  C 2.507414 -0.043314 -0.045979
  C 3.224452 -0.672318 -0.978508
  C 4.642454 -0.559724 -1.057217
  C 5.412020 -1.300432 -1.866563
  H 6.168434 -0.681003 -2.284977
  H 0.806201 -0.419259 1.029552
  H 0.589680 -0.720693 -0.699830
  H 0.606044 0.936036 -0.076013
  H 3.020662 0.435816 0.782990
  H 2.711289 -1.194842 -1.772258
  H 5.106207 0.069726 -0.311234
  H 4.945766 -2.008476 -2.536293
 13
 47.337834
  C 1.063531 -0.054200 0.053623
  C 2.524859 -0.058258 -0.068300
  C 3.243020 -0.625601 -1.036881
  C 4.656461 -0.619556 -1.045647
  C 5.460079 -1.426322 -1.795624
  H 5.839080 -0.542728 -2.241670
  H 0.824601 -0.343185 1.055504
  H 0.615009 -0.775406 -0.620107
  H 0.662010 0.947449 -0.129239
  H 3.049149 0.432754 0.754356
  H 2.716069 -1.045575 -1.886552
  H 5.115225 0.014164 -0.285429
  H 4.940860 -2.058658 -2.517148
 13
 76.142369
  C 1.067504 -0.043925 0.044812
  C 2.550738 -0.073483 -0.045748
  C 3.242686 -0.614930 -1.044894
  C 4.699821 -0.568726 -1.119617
  C 5.547877 -1.487302 -1.771910
  H 5.475830 -0.379541 -2.227815
  H 0.764640 -0.418423 1.016603
  H 0.599063 -0.637421 -0.736571
  H 0.713739 0.986870 -0.040723
  H 3.075244 0.440149 0.749016
  H 2.728480 -1.110999 -1.858969
  H 5.152145 0.026865 -0.329789
  H 4.964387 -2.187526 -2.395950
 13
 76.208796
  C 1.091844 -0.055707 0.028723
  C 2.578560 -0.036447 -0.080085
  C 3.269177 -0.532838 -1.096512
  C 4.754305 -0.569948 -1.143187
  C 5.522275 -1.639230 -1.718279
  H 5.192866 -0.111565 -2.097573
  H 0.781863 -0.417729 1.008529
  H 0.651027 -0.686686 -0.739399
  H 0.698108 0.955658 -0.083190
  H 3.099918 0.425144 0.748989
  H 2.754917 -1.004047 -1.926055
  H 5.222400 -0.035418 -0.315086
  H 4.867030 -2.274372 -2.344164
 13
 77.469512
  C 1.102739 -0.039525 -0.000097
  C 2.587230 0.016911 -0.120643
  C 3.282717 -0.576488 -1.077562
  C 4.782631 -0.584539 -1.123047
  C 5.500838 -1.709108 -1.690963
  H 4.955521 0.083636 -1.996690
  H 0.852206 -0.488929 0.960583
  H 0.660454 -0.636841 -0.794987
  H 0.674718 0.963988 -0.028050
  H 3.092006 0.614745 0.624813
  H 2.782461 -1.165515 -1.836113
  H 5.229136 -0.152612 -0.227384
  H 4.847928 -2.214521 -2.431739
 13
 88.885375
  C 1.121095 -0.038074 -0.013275
  C 2.592065 0.100368 -0.163205
  C 3.289161 -0.509584 -1.105333
  C 4.816283 -0.635787 -1.071875
  C 5.436462 -1.782843 -1.649182
  H 4.676773 0.111672 -1.872118
  H 0.919471 -0.467191 0.960649
  H 0.709835 -0.694781 -0.775953
  H 0.616933 0.924774 -0.070409
  H 3.097266 0.679471 0.601244
  H 2.792882 -1.121077 -1.847998
  H 5.251565 -0.201209 -0.176900
  H 4.869888 -2.141499 -2.528671
 13
 100.387199
  C 1.116367 -0.032686 -0.008853
  C 2.589543 0.124627 -0.176069
  C 3.296415 -0.462840 -1.153039
  C 4.876864 -0.700089 -1.068107
  C 5.451629 -1.778049 -1.629040
  H 4.319544 0.148502 -1.736006
  H 0.888713 -0.475155 0.961323
  H 0.698707 -0.665251 -0.787946
  H 0.627301 0.941595 -0.046120
  H 3.090371 0.725573 0.571131
  H 2.800396 -1.085954 -1.886166
  H 5.303347 -0.229137 -0.191296
  H 4.952047 -2.169432 -2.523905
 13
 83.511528
  C 1.118327 -0.053464 0.028545
  C 2.580008 0.157079 -0.221195
  C 3.260581 -0.331242 -1.299708
  C 4.956008 -0.787898 -1.016403
  C 5.447931 -1.803067 -1.535152
  H 4.005876 0.330935 -1.821888
  H 0.920565 -0.589956 0.970347
  H 0.650626 -0.607621 -0.785118
  H 0.636123 0.920516 0.115599
  H 3.101017 0.756974 0.513416
  H 2.758526 -0.940666 -2.037084
  H 5.317554 -0.255111 -0.156748
  H 5.073459 -2.332365 -2.394095
 13
 68.215920
  C 1.076027 -0.038765 0.066723
  C 2.499209 0.260763 -0.266228
  C 3.136004 -0.210452 -1.345967
  C 5.069932 -0.909739 -0.952869
  C 5.503287 -1.870150 -1.569961
  H 3.934187 0.379630 -1.819676
  H 0.964991 -0.567115 1.013051
  H 0.609263 -0.631652 -0.717358
  H 0.538807 0.903686 0.161432
  H 3.037880 0.852954 0.468329
  H 2.620481 -0.832643 -2.069270
  H 5.331909 -0.372428 -0.081538
  H 5.316965 -2.380945 -2.483831
 13
 54.615297
  C 1.025870 -0.036062 0.093275
  C 2.415741 0.338231 -0.302569
  C 3.011797 -0.067958 -1.413114
  C 5.259725 -1.005677 -0.887845
  C 5.572570 -1.917518 -1.608467
  H 3.872934 0.441367 -1.829642
  H 0.997400 -0.629448 1.009458
  H 0.533164 -0.591276 -0.701421
  H 0.459760 0.876464 0.282273
  H 2.962414 0.919813 0.429824
  H 2.492426 -0.692642 -2.126619
  H 5.403884 -0.422887 -0.021945
  H 5.455874 -2.514948 -2.468871
 13
 47.335532
  C 0.985538 -0.030151 0.107394
  C 2.351367 0.395147 -0.317322
  C 2.916394 0.070197 -1.464788
  C 5.436074 -1.147264 -0.830468
  C 5.619653 -2.000318 -1.648809
  H 3.858298 0.481007 -1.787069
  H 1.024253 -0.609145 1.030802
  H 0.503826 -0.625586 -0.663755
  H 0.375141 0.851877 0.302466
  H 2.899535 0.972097 0.417453
  H 2.399525 -0.527639 -2.198224
  H 5.500802 -0.507167 -0.000260
  H 5.593152 -2.625597 -2.493083
 13
 45.107411
  C 0.995776 -0.107340 0.102191
  C 2.309999 0.486527 -0.280839
  C 2.867931 0.367685 -1.470235
  C 5.507023 -1.413109 -0.768459
  C 5.636866 -2.068086 -1.757840
  H 3.816263 0.816411 -1.710951
  H 1.095019 -0.698888 1.011801
  H 0.609308 -0.741160 -0.691921
  H 0.272794 0.684019 0.302422
  H 2.803663 1.053873 0.498724
  H 2.395441 -0.190520 -2.261764
  H 5.448374 -0.849134 0.114280
  H 5.705103 -2.642819 -2.633070
