 27
 0.000000
  C 0.806821 0.045691 0.325965
  C 2.295119 0.057318 0.119847
  C 3.197332 -0.011724 1.343516
  C 2.545389 -0.089469 2.721250
  C 3.604198 -0.151292 3.816941
  C 2.889402 0.124479 -1.070340
  C 2.346212 0.203541 -2.471484
  C 0.846488 0.219372 -2.751985
  C 0.590162 0.304144 -4.254329
  H 3.972716 0.125300 -1.084863
  H 0.534643 -0.013495 1.374790
  H 0.356582 -0.816177 -0.160511
  H 0.356582 0.956816 -0.060465
  H 3.845236 0.870594 1.335770
  H 3.845239 -0.887572 1.236560
  H 1.917801 -0.980669 2.792848
  H 1.917791 0.788020 2.892653
  H 4.236435 -1.028246 3.694599
  H 3.131766 -0.206514 4.795518
  H 4.236435 0.733863 3.794026
  H 2.770785 -0.644796 -3.023084
  H 2.770782 1.108540 -2.924142
  H 0.377624 1.080040 -2.275813
  H 0.377626 -0.689399 -2.375660
  H 1.022879 1.211480 -4.671025
  H -0.479484 0.315369 -4.453226
  H 1.022883 -0.550563 -4.770455
 27
 13.294290
  C 0.662055 0.043006 0.373565
  C 2.326035 0.055950 0.144116
  C 3.225820 -0.012292 1.353575
  C 2.564515 -0.089791 2.726947
  C 3.616278 -0.152011 3.829699
  C 2.937333 0.127854 -1.130139
  C 2.388821 0.206391 -2.521975
  C 0.884112 0.220124 -2.765313
  C 0.587996 0.304474 -4.260221
  H 4.020337 0.128078 -1.134068
  H 0.421509 -0.016404 1.426384
  H 0.230759 -0.818508 -0.121035
  H 0.230762 0.954694 -0.020975
  H 3.875394 0.869294 1.344891
  H 3.875400 -0.887305 1.245770
  H 1.936040 -0.980381 2.791442
  H 1.936036 0.787886 2.891220
  H 4.249042 -1.028974 3.709522
  H 3.139421 -0.207101 4.806005
  H 4.249031 0.732900 3.808932
  H 2.809195 -0.640682 -3.078878
  H 2.809194 1.110734 -2.980048
  H 0.429794 1.079046 -2.272579
  H 0.429797 -0.688771 -2.372336
  H 1.009859 1.212262 -4.687109
  H -0.486038 0.314234 -4.433183
  H 1.009860 -0.549532 -4.786520
 27
 39.578671
  C 0.500820 0.040286 0.421853
  C 2.423319 0.056770 0.129595
  C 3.284185 -0.010648 1.324299
  C 2.577293 -0.086671 2.671548
  C 3.586136 -0.150926 3.810262
  C 2.989864 0.129554 -1.160181
  C 2.431211 0.207050 -2.533461
  C 0.916179 0.218771 -2.741172
  C 0.580088 0.302454 -4.224113
  H 4.067215 0.128886 -1.148397
  H 0.346674 -0.020414 1.497522
  H 0.120162 -0.834962 -0.089509
  H 0.120170 0.967522 0.012208
  H 3.938574 0.869226 1.326873
  H 3.938616 -0.885267 1.227869
  H 1.945785 -0.975008 2.702593
  H 1.945692 0.792633 2.802363
  H 4.221605 -1.028983 3.711016
  H 3.076357 -0.205015 4.768647
  H 4.221587 0.732726 3.810420
  H 2.852662 -0.636548 -3.094733
  H 2.852683 1.108465 -2.996291
  H 0.483422 1.078187 -2.226762
  H 0.483411 -0.693135 -2.326659
  H 0.991091 1.210382 -4.660968
  H -0.497254 0.310733 -4.370907
  H 0.991147 -0.550658 -4.760404
 27
 66.827181
  C 0.312224 0.040630 0.415891
  C 2.524435 0.060108 0.070568
  C 3.357171 -0.010247 1.317298
  C 2.602177 -0.085380 2.648812
  C 3.576325 -0.152060 3.830353
  C 3.044722 0.131911 -1.201824
  C 2.466768 0.208503 -2.559125
  C 0.955949 0.217249 -2.714270
  C 0.565605 0.300268 -4.185521
  H 4.123362 0.132302 -1.208789
  H 0.229382 -0.019923 1.488909
  H -0.007389 -0.847974 -0.107906
  H -0.007374 0.982515 -0.004597
  H 4.014111 0.877065 1.347252
  H 4.014149 -0.895331 1.247239
  H 1.968794 -0.974421 2.662414
  H 1.968720 0.796556 2.762366
  H 4.214313 -1.032132 3.754405
  H 3.032794 -0.205146 4.770964
  H 4.214301 0.730959 3.853902
  H 2.871556 -0.631238 -3.131574
  H 2.871560 1.107305 -3.033481
  H 0.538306 1.076436 -2.183630
  H 0.538275 -0.696272 -2.283599
  H 0.959348 1.209605 -4.637525
  H -0.516130 0.306348 -4.293077
  H 0.959395 -0.552511 -4.737022
 27
 88.553308
  C 0.166221 0.039704 0.432228
  C 2.660469 0.062243 0.032771
  C 3.430702 -0.009375 1.301983
  C 2.614769 -0.081805 2.585496
  C 3.516193 -0.150517 3.803091
  C 3.150638 0.133101 -1.222928
  C 2.532647 0.209851 -2.583114
  C 0.997466 0.214336 -2.662602
  C 0.525295 0.295989 -4.109562
  H 4.229075 0.135262 -1.261291
  H 0.127145 -0.020844 1.505156
  H -0.104951 -0.848700 -0.106208
  H -0.104948 0.983036 -0.002839
  H 4.085724 0.876458 1.359638
  H 4.085741 -0.896078 1.259628
  H 1.979514 -0.965703 2.558774
  H 1.979405 0.799604 2.658398
  H 4.151624 -1.028951 3.759746
  H 2.925596 -0.201675 4.709637
  H 4.151515 0.727109 3.858828
  H 2.920553 -0.638101 -3.168938
  H 2.920531 1.118272 -3.069807
  H 0.607471 1.071808 -2.104494
  H 0.607457 -0.700535 -2.204461
  H 0.890104 1.205793 -4.582031
  H -0.561630 0.298673 -4.156966
  H 0.890150 -0.554978 -4.681467
 27
 103.634951
  C 0.013607 0.038511 0.453546
  C 2.795516 0.065776 -0.029903
  C 3.515467 -0.007625 1.270870
  C 2.623895 -0.077657 2.511863
  C 3.448242 -0.149355 3.782370
  C 3.253355 0.135078 -1.258104
  C 2.581129 0.211313 -2.609120
  C 1.057162 0.210797 -2.599968
  C 0.496302 0.290893 -4.019261
  H 4.349932 0.139449 -1.335664
  H 0.012767 -0.022755 1.539231
  H -0.227496 -0.859272 -0.102327
  H -0.227484 0.993119 0.002207
  H 4.164040 0.875172 1.360996
  H 4.164041 -0.894968 1.261157
  H 1.989217 -0.956819 2.440634
  H 1.989079 0.804062 2.540034
  H 4.081637 -1.029526 3.778189
  H 2.803948 -0.198328 4.650217
  H 4.081516 0.725620 3.877223
  H 2.940740 -0.635568 -3.209504
  H 2.940722 1.120353 -3.110435
  H 0.700448 1.067446 -2.014045
  H 0.700463 -0.706391 -2.114084
  H 0.828275 1.201489 -4.513101
  H -0.590492 0.289839 -4.000581
  H 0.828324 -0.558454 -4.612509
 27
 112.406792
  C -0.124680 0.034143 0.530940
  C 2.900908 0.068316 -0.074908
  C 3.566472 -0.005494 1.233042
  C 2.617416 -0.073317 2.435097
  C 3.385516 -0.147569 3.750687
  C 3.343324 0.137837 -1.306878
  C 2.641487 0.212371 -2.627696
  C 1.105613 0.208437 -2.558409
  C 0.486523 0.286866 -3.948291
  H 4.427426 0.144412 -1.423351
  H -0.085786 -0.025964 1.596027
  H -0.337567 -0.845639 -0.015435
  H -0.337556 0.969809 0.087017
  H 4.211383 0.878667 1.349668
  H 4.211377 -0.897174 1.249458
  H 1.979302 -0.954520 2.331289
  H 1.979263 0.814047 2.431093
  H 4.019265 -1.033623 3.776978
  H 2.696813 -0.195043 4.592126
  H 4.019246 0.729845 3.876491
  H 2.979615 -0.637994 -3.240903
  H 2.979601 1.126313 -3.141326
  H 0.774162 1.058775 -1.959744
  H 0.774186 -0.703863 -2.059227
  H 0.794914 1.197581 -4.454851
  H -0.598443 0.283194 -3.883421
  H 0.794959 -0.561121 -4.554163
 27
 117.253470
  C -0.258973 0.029329 0.616169
  C 3.015173 0.070949 -0.121782
  C 3.624561 -0.003473 1.197159
  C 2.612132 -0.068443 2.348742
  C 3.303002 -0.144793 3.702159
  C 3.437860 0.140233 -1.349721
  C 2.681143 0.213582 -2.649774
  C 1.178520 0.205136 -2.500662
  C 0.477057 0.281875 -3.860428
  H 4.512151 0.148681 -1.499322
  H -0.188538 -0.030716 1.680230
  H -0.448451 -0.865551 0.054638
  H -0.448438 0.981718 0.158872
  H 4.262307 0.877165 1.342855
  H 4.262267 -0.894918 1.242864
  H 1.980202 -0.941422 2.207202
  H 1.980436 0.814639 2.306370
  H 3.926533 -1.025947 3.763640
  H 2.572014 -0.189772 4.499361
  H 3.926622 0.723957 3.862376
  H 2.984072 -0.628505 -3.273136
  H 2.984082 1.120458 -3.174436
  H 0.885977 1.036120 -1.892565
  H 0.886189 -0.688851 -1.989993
  H 0.753850 1.197573 -4.386471
  H -0.606073 0.274639 -3.733169
  H 0.753836 -0.568537 -4.486042
 27
 119.454464
  C -0.384164 0.025753 0.679754
  C 3.141149 0.074772 -0.189543
  C 3.687429 -0.002000 1.171095
  C 2.606720 -0.063532 2.261295
  C 3.215057 -0.142236 3.657322
  C 3.545454 0.143544 -1.408551
  C 2.734779 0.214764 -2.670976
  C 1.238588 0.201403 -2.434733
  C 0.447056 0.276641 -3.768213
  H 4.608505 0.154476 -1.602263
  H -0.305268 -0.033151 1.723590
  H -0.549657 -0.862848 0.119050
  H -0.549634 0.971772 0.222594
  H 4.313602 0.874013 1.357623
  H 4.313461 -0.893358 1.257980
  H 1.980377 -0.934080 2.081879
  H 1.980758 0.821178 2.181071
  H 3.833050 -1.028859 3.757058
  H 2.431817 -0.184845 4.412503
  H 3.833118 0.727695 3.856121
  H 3.007222 -0.627755 -3.309663
  H 3.007182 1.123735 -3.210822
  H 0.974299 1.052618 -1.791487
  H 0.974559 -0.716584 -1.891429
  H 0.688264 1.193483 -4.311271
  H -0.626327 0.265809 -3.578012
  H 0.688166 -0.572687 -4.410558
 27
 120.122676
  C -0.506785 0.020619 0.764886
  C 3.251735 0.077994 -0.241134
  C 3.730604 -0.000046 1.135926
  C 2.588881 -0.056429 2.156683
  C 3.113508 -0.138411 3.581050
  C 3.638480 0.147410 -1.466144
  C 2.775093 0.216295 -2.691591
  C 1.291792 0.197856 -2.374333
  C 0.445944 0.268530 -3.635363
  H 4.715403 0.160963 -1.699943
  H -0.423912 -0.040710 1.847955
  H -0.650917 -0.866134 0.199262
  H -0.651075 0.965542 0.303010
  H 4.347528 0.874968 1.362266
  H 4.347463 -0.895574 1.256615
  H 1.965330 -0.928002 1.937714
  H 1.969184 0.836411 2.036991
  H 3.719998 -1.028965 3.716049
  H 2.288759 -0.176955 4.286830
  H 3.723542 0.728758 3.816184
  H 3.021199 -0.630372 -3.344217
  H 3.020571 1.131241 -3.244382
  H 1.061631 1.038754 -1.725628
  H 1.060766 -0.710573 -1.824945
  H 0.654427 1.182033 -4.186455
  H -0.610679 0.254238 -3.385592
  H 0.654838 -0.577315 -4.284833
 27
 119.962407
  C -0.621122 0.014720 0.876943
  C 3.369046 0.080719 -0.284552
  C 3.778163 0.001872 1.102725
  C 2.570648 -0.051459 2.058453
  C 3.013042 -0.135603 3.527015
  C 3.731053 0.150364 -1.512177
  C 2.812223 0.217342 -2.708242
  C 1.336595 0.194648 -2.318027
  C 0.424628 0.263282 -3.543488
  H 4.818873 0.166223 -1.782631
  H -0.534320 -0.045620 1.941971
  H -0.742226 -0.883998 0.297552
  H -0.742096 0.973170 0.402847
  H 4.384528 0.876557 1.362339
  H 4.384181 -0.897427 1.258963
  H 1.957036 -0.920940 1.801441
  H 1.960052 0.843447 1.900441
  H 3.611008 -1.033509 3.700063
  H 2.142782 -0.171847 4.186012
  H 3.613892 0.735075 3.801235
  H 3.031630 -0.622162 -3.364529
  H 3.030238 1.125832 -3.265719
  H 1.131258 1.045590 -1.651236
  H 1.131256 -0.726088 -1.751418
  H 0.605638 1.189036 -4.110674
  H -0.629945 0.245627 -3.238150
  H 0.606670 -0.593157 -4.210680
 27
 119.815503
  C -0.749601 0.006870 1.017999
  C 3.461658 0.082560 -0.320271
  C 3.806213 0.003026 1.079260
  C 2.552006 -0.047210 1.974206
  C 2.918402 -0.130914 3.447918
  C 3.794774 0.152480 -1.553148
  C 2.835034 0.218076 -2.720824
  C 1.380214 0.192608 -2.282184
  C 0.434564 0.259118 -3.465628
  H 4.852371 0.170159 -1.856265
  H -0.658603 -0.053869 2.090531
  H -0.854399 -0.879899 0.443600
  H -0.853978 0.952863 0.547438
  H 4.402773 0.876500 1.364389
  H 4.402159 -0.897740 1.263536
  H 1.953838 -0.906624 1.690336
  H 1.954760 0.839623 1.789069
  H 3.503420 -1.026870 3.648875
  H 2.019208 -0.165228 4.060589
  H 3.504423 0.736023 3.749042
  H 3.033799 -0.615930 -3.380931
  H 3.032744 1.121554 -3.282584
  H 1.196525 1.043590 -1.607013
  H 1.196568 -0.729495 -1.707294
  H 0.592394 1.175128 -4.032213
  H -0.596169 0.239654 -3.127701
  H 0.593223 -0.587399 -4.131715
 27
 119.850944
  C -0.883472 -0.002077 1.177823
  C 3.538711 0.083747 -0.345919
  C 3.824953 0.003939 1.063718
  C 2.535232 -0.044053 1.908897
  C 2.846782 -0.127762 3.396309
  C 3.847473 0.153937 -1.586817
  C 2.861673 0.218506 -2.732203
  C 1.409563 0.191131 -2.255704
  C 0.429374 0.256976 -3.421110
  H 4.891627 0.172907 -1.916003
  H -0.786331 -0.062279 2.243963
  H -0.981746 -0.893307 0.600295
  H -0.981184 0.948552 0.704266
  H 4.410211 0.876021 1.372484
  H 4.409402 -0.897446 1.274019
  H 1.939126 -0.913207 1.601719
  H 1.938265 0.853426 1.701770
  H 3.423705 -1.025631 3.619681
  H 1.923053 -0.160849 3.975099
  H 3.422864 0.739976 3.719142
  H 3.047793 -0.627941 -3.405123
  H 3.047207 1.135518 -3.305258
  H 1.241527 1.032865 -1.583429
  H 1.242113 -0.721306 -1.682800
  H 0.573804 1.182439 -3.996513
  H -0.606725 0.235848 -3.053222
  H 0.574265 -0.597305 -4.097340
