 9
 0.000000
  C 0.916651 0.049324 0.261593
  C 2.403601 0.059572 0.079936
  H 2.998561 0.008703 0.981504
  C 3.000005 0.125841 -1.094495
  H 2.467271 0.178619 -2.029846
  H 4.074388 0.130802 -1.182383
  H 0.645484 -0.010016 1.313189
  H 0.474408 -0.807038 -0.245297
  H 0.474410 0.957273 -0.145741
 9
 14.598116
  C 0.796787 0.054426 0.281861
  C 2.489865 0.078559 0.104581
  H 3.052303 0.078462 1.027384
  C 3.073870 0.105661 -1.152610
  H 2.484470 0.139404 -2.046613
  H 4.150817 0.155141 -1.261740
  H 0.581005 -0.105757 1.336660
  H 0.434299 -0.798987 -0.279534
  H 0.389935 0.986266 -0.073244
 9
 42.054084
  C 0.662839 0.039414 0.307074
  C 2.604044 0.081161 0.105553
  H 3.159466 0.081776 1.031989
  C 3.146163 0.117728 -1.181732
  H 2.515685 0.128467 -2.049819
  H 4.192015 0.156854 -1.304185
  H 0.495110 -0.103575 1.374911
  H 0.347404 -0.796863 -0.284139
  H 0.322450 0.987652 -0.062377
 9
 70.780770
  C 0.514024 0.033806 0.338585
  C 2.718451 0.087052 0.097930
  H 3.230469 0.083050 1.030804
  C 3.212218 0.122756 -1.202578
  H 2.557099 0.131522 -2.050170
  H 4.274582 0.151314 -1.370077
  H 0.418125 -0.103523 1.407827
  H 0.261973 -0.810042 -0.271141
  H 0.240060 0.996145 -0.042809
 9
 94.081420
  C 0.350232 0.031060 0.377175
  C 2.845291 0.096840 0.062865
  H 3.317794 0.083284 1.014785
  C 3.293114 0.141003 -1.214654
  H 2.625214 0.111479 -2.056043
  H 4.354565 0.148933 -1.430451
  H 0.329038 -0.114221 1.441361
  H 0.152343 -0.813869 -0.251236
  H 0.133838 1.005960 -0.004862
 9
 110.462973
  C 0.184454 0.023562 0.420818
  C 2.960872 0.090940 0.021951
  H 3.393892 0.086746 0.996252
  C 3.382145 0.125584 -1.233520
  H 2.709720 0.126501 -2.075028
  H 4.439580 0.163989 -1.485550
  H 0.241088 -0.111383 1.476831
  H 0.013246 -0.826023 -0.201564
  H 0.039640 1.003417 0.021191
 9
 120.926403
  C 0.020760 0.015724 0.467424
  C 3.064058 0.095078 -0.018330
  H 3.449816 0.090479 0.974152
  C 3.476165 0.123428 -1.259352
  H 2.798926 0.124763 -2.099846
  H 4.530425 0.181291 -1.534221
  H 0.164857 -0.112993 1.514502
  H -0.147063 -0.834557 -0.153758
  H -0.042126 0.999207 0.057236
 9
 127.249426
  C -0.141895 0.009700 0.526177
  C 3.155311 0.106906 -0.071297
  H 3.489938 0.105946 0.934362
  C 3.584526 0.143348 -1.296653
  H 2.915461 0.133629 -2.146798
  H 4.644096 0.158628 -1.567541
  H 0.085297 -0.126810 1.566374
  H -0.319791 -0.840389 -0.096300
  H -0.158964 0.991999 0.111573
 9
 130.797468
  C -0.307654 0.002137 0.598825
  C 3.238095 0.117820 -0.136444
  H 3.549577 0.106741 0.883840
  C 3.700735 0.138983 -1.338856
  H 3.053831 0.139152 -2.207787
  H 4.768221 0.164285 -1.588293
  H -0.011347 -0.133111 1.610522
  H -0.508708 -0.843811 -0.015973
  H -0.307542 0.983786 0.176609
 9
 132.276109
  C -0.470629 -0.003118 0.679932
  C 3.308274 0.120542 -0.214456
  H 3.598245 0.113871 0.807159
  C 3.830165 0.143399 -1.390304
  H 3.228845 0.147392 -2.289948
  H 4.907333 0.163374 -1.589139
  H -0.118379 -0.142727 1.681297
  H -0.723164 -0.849112 0.080383
  H -0.484253 0.974943 0.254255
 9
 132.748246
  C -0.626861 -0.011195 0.766643
  C 3.377761 0.126333 -0.298126
  H 3.632936 0.117983 0.736526
  C 3.958493 0.150018 -1.445613
  H 3.403782 0.158454 -2.374233
  H 5.044732 0.155428 -1.587217
  H -0.230479 -0.152518 1.746094
  H -0.934602 -0.854010 0.188904
  H -0.675378 0.968947 0.346706
 9
 132.630452
  C -0.619522 -0.010331 0.763080
  C 3.374912 0.123991 -0.294681
  H 3.625932 0.115975 0.740166
  C 3.953811 0.145684 -1.444168
  H 3.397604 0.157952 -2.371195
  H 5.038818 0.161899 -1.587800
  H -0.225201 -0.151081 1.744826
  H -0.928321 -0.854165 0.186711
  H -0.667648 0.969516 0.342747
