15

C 0.896604 0.048492 0.276309
C 2.389213 0.05877 0.094108
H 2.9847333590807876 0.008692981454365409 0.981659572661482
C 2.990578 0.12709 -1.116643
C 2.347486 0.20469 -2.491881
C 0.836463 0.217242 -2.71428
H 0.6245590419675104 0.2763296736133621 -3.761421518323634
H 4.058412003245278 0.13092659420316705 -1.1845828414634834
H 0.601986 -0.010274 1.317726
H 0.453063 -0.811742 -0.218184
H 0.453065 0.958896 -0.118272
H 2.740197 -0.643704 -3.063259
H 2.740197 1.111985 -2.96419
H 0.380684 1.077191 -2.22573
H 0.380689 -0.692201 -2.325581
