 19
 0.000000
  H 1.479321 0.158755 0.413030
  C 2.562122 0.145601 0.408541
  C 3.278190 0.611910 1.588480
  C 2.445980 1.084128 2.766401
  C 3.323148 1.559343 3.918942
  C 3.163736 -0.314769 -0.742514
  C 4.563248 -0.410331 -0.961955
  C 5.063685 -0.877163 -2.133413
  H 4.417797 -1.191616 -2.938729
  H 6.125141 -0.951859 -2.304531
  H 3.964430 1.417545 1.283875
  H 3.968395 -0.177496 1.923155
  H 1.801416 0.279364 3.130942
  H 1.787957 1.901462 2.459788
  H 3.964452 0.759850 4.282118
  H 2.706709 1.893102 4.749242
  H 3.954041 2.392448 3.618249
  H 2.524372 -0.634113 -1.557975
  H 5.244690 -0.105124 -0.180465
 19
 0.824654
  H 1.575968 0.275646 0.472893
  C 2.663006 0.242369 0.423289
  C 3.391419 0.728133 1.579698
  C 2.476817 1.094195 2.732921
  C 3.223096 1.518448 3.989980
  C 3.198435 -0.302061 -0.719313
  C 4.577309 -0.412265 -1.029429
  C 5.004546 -0.980946 -2.181911
  H 4.307957 -1.369573 -2.904893
  H 6.052477 -1.064250 -2.413925
  H 4.055101 1.570491 1.302904
  H 4.121799 -0.039251 1.902353
  H 1.864563 0.216192 2.931220
  H 1.789741 1.886986 2.435047
  H 3.884151 0.732324 4.339520
  H 2.523107 1.744759 4.787104
  H 3.819354 2.407276 3.809674
  H 2.475523 -0.685582 -1.416349
  H 5.303088 -0.023145 -0.323077
 19
 4.295765
  H 1.682987 0.369000 0.522052
  C 2.763217 0.341067 0.429891
  C 3.485189 0.855830 1.579382
  C 2.500500 1.109082 2.695939
  C 3.134860 1.448618 4.030258
  C 3.239142 -0.283196 -0.688368
  C 4.587703 -0.397183 -1.091094
  C 4.947289 -1.080919 -2.205855
  H 4.207431 -1.565487 -2.830351
  H 5.980288 -1.166635 -2.507346
  H 4.095964 1.729178 1.343541
  H 4.245485 0.122511 1.892889
  H 1.910686 0.190484 2.750387
  H 1.806219 1.902509 2.414791
  H 3.801495 0.656191 4.359836
  H 2.371641 1.583527 4.790104
  H 3.707891 2.370734 3.967099
  H 2.445518 -0.750111 -1.242796
  H 5.342143 0.089432 -0.490405
 19
 9.186581
  H 1.741342 0.524867 0.502584
  C 2.819819 0.479447 0.402952
  C 3.536459 0.990203 1.551741
  C 2.509411 1.106472 2.661296
  C 3.088475 1.349885 4.045300
  C 3.259865 -0.234110 -0.658541
  C 4.587107 -0.370917 -1.129928
  C 4.902778 -1.190961 -2.162510
  H 4.147644 -1.763744 -2.670256
  H 5.916280 -1.297159 -2.507763
  H 4.095580 1.912349 1.353933
  H 4.329909 0.280382 1.844154
  H 1.969960 0.146278 2.587011
  H 1.782263 1.891112 2.425736
  H 3.787439 0.562218 4.323265
  H 2.293090 1.374831 4.789573
  H 3.614578 2.303244 4.085627
  H 2.439304 -0.792824 -1.064932
  H 5.358734 0.219385 -0.649363
 19
 10.329359
  H 1.704236 0.937059 0.315480
  C 2.776080 0.804969 0.265443
  C 3.501379 1.228518 1.450589
  C 2.501991 1.047506 2.599069
  C 3.159639 1.121084 3.965561
  C 3.229628 -0.109669 -0.640328
  C 4.553123 -0.328227 -1.076260
  C 4.884114 -1.366836 -1.883490
  H 4.141264 -2.062055 -2.239290
  H 5.903226 -1.535335 -2.191856
  H 3.892585 2.251463 1.377520
  H 4.376303 0.595323 1.622516
  H 2.074087 0.052235 2.406549
  H 1.691317 1.778004 2.533967
  H 3.950792 0.381394 4.061568
  H 2.423563 0.931498 4.743725
  H 3.584697 2.103418 4.137748
  H 2.433504 -0.785584 -0.926683
  H 5.309512 0.385501 -0.774145
 19
 8.220507
  H 1.693741 1.287009 0.146641
  C 2.738942 1.010782 0.205056
  C 3.458711 1.529424 1.345814
  C 2.546153 0.926641 2.468538
  C 3.292222 0.910645 3.788664
  C 3.152170 -0.044086 -0.556205
  C 4.490691 -0.375832 -0.851600
  C 4.816069 -1.484069 -1.567363
  H 4.056329 -2.138536 -1.972283
  H 5.843743 -1.748061 -1.753698
  H 3.499196 2.611521 1.430834
  H 4.460296 1.108603 1.436846
  H 2.285287 -0.097117 2.157207
  H 1.632859 1.506595 2.549298
  H 4.196816 0.317136 3.730999
  H 2.652675 0.471531 4.548615
  H 3.558014 1.924065 4.093385
  H 2.369692 -0.701037 -0.909543
  H 5.271313 0.297115 -0.518543
 19
 8.847217
  H 1.647031 1.442515 0.023234
  C 2.679999 1.142303 0.162080
  C 3.385450 1.707197 1.292211
  C 2.590674 0.862397 2.355168
  C 3.400578 0.749047 3.629602
  C 3.108756 0.014270 -0.495516
  C 4.449561 -0.367835 -0.696516
  C 4.781183 -1.539670 -1.298729
  H 4.024653 -2.210493 -1.686187
  H 5.810773 -1.833558 -1.428577
  H 3.266308 2.774681 1.458658
  H 4.433350 1.424950 1.338521
  H 2.401589 -0.141853 1.938706
  H 1.637224 1.335165 2.541843
  H 4.347329 0.249637 3.462287
  H 2.837493 0.164247 4.351925
  H 3.596501 1.736002 4.042018
  H 2.328265 -0.653281 -0.829684
  H 5.230118 0.312670 -0.394517
 19
 11.828419
  H 1.613764 1.492808 -0.043922
  C 2.646692 1.205509 0.129334
  C 3.330779 1.779833 1.261476
  C 2.601094 0.822386 2.285967
  C 3.460101 0.640402 3.522487
  C 3.092202 0.042250 -0.455382
  C 4.435113 -0.325067 -0.662861
  C 4.784255 -1.548685 -1.135133
  H 4.039229 -2.288277 -1.390899
  H 5.815972 -1.827896 -1.260803
  H 3.133447 2.824556 1.476989
  H 4.395263 1.564819 1.291179
  H 2.421597 -0.157272 1.793731
  H 1.637300 1.251012 2.536326
  H 4.413291 0.178365 3.288240
  H 2.937590 -0.007477 4.221906
  H 3.647584 1.601531 3.996219
  H 2.309498 -0.672138 -0.655263
  H 5.202666 0.412235 -0.467618
 19
 17.001755
  H 1.579641 1.530304 -0.113256
  C 2.614431 1.253041 0.087088
  C 3.274338 1.813229 1.236136
  C 2.606347 0.770505 2.231789
  C 3.509306 0.558789 3.432759
  C 3.081656 0.062743 -0.421632
  C 4.424395 -0.288475 -0.644836
  C 4.798164 -1.548075 -0.983404
  H 4.070197 -2.336159 -1.118852
  H 5.829527 -1.798961 -1.154653
  H 3.020777 2.836642 1.496675
  H 4.347067 1.651179 1.254737
  H 2.442653 -0.192627 1.686701
  H 1.637200 1.154496 2.534295
  H 4.464222 0.135313 3.146691
  H 3.027895 -0.132441 4.118157
  H 3.686627 1.499255 3.946580
  H 2.304157 -0.687064 -0.451241
  H 5.167978 0.496442 -0.589118
 19
 23.681988
  H 1.552787 1.550733 -0.178124
  C 2.584288 1.284500 0.044065
  C 3.220106 1.813668 1.219245
  C 2.616459 0.703384 2.196595
  C 3.543949 0.509118 3.377750
  C 3.073316 0.075545 -0.411982
  C 4.407950 -0.256429 -0.678872
  C 4.811914 -1.534702 -0.892305
  H 4.115472 -2.357997 -0.865772
  H 5.843642 -1.770579 -1.084551
  H 2.924789 2.813286 1.525496
  H 4.300896 1.695550 1.224441
  H 2.488428 -0.242880 1.618513
  H 1.635794 1.034827 2.528099
  H 4.515338 0.132580 3.065990
  H 3.102684 -0.215961 4.056024
  H 3.687885 1.443237 3.913765
  H 2.320401 -0.689955 -0.244520
  H 5.119015 0.553745 -0.758388
 19
 31.342991
  H 1.521495 1.540098 -0.223790
  C 2.554761 1.288765 0.008672
  C 3.175176 1.792546 1.208514
  C 2.629854 0.640241 2.183898
  C 3.561624 0.494868 3.367517
  C 3.072324 0.070192 -0.405984
  C 4.395613 -0.245419 -0.728883
  C 4.836003 -1.525398 -0.839512
  H 4.175872 -2.363677 -0.689528
  H 5.854539 -1.744813 -1.108352
  H 2.848168 2.774504 1.546789
  H 4.259322 1.710661 1.203148
  H 2.554757 -0.303018 1.584051
  H 1.632324 0.916475 2.519708
  H 4.551380 0.171583 3.056973
  H 3.156865 -0.252047 4.044740
  H 3.654504 1.430843 3.909483
  H 2.359435 -0.688578 -0.052029
  H 5.065118 0.575480 -0.944103
 19
 39.115533
  H 1.491067 1.514794 -0.262994
  C 2.526777 1.277777 -0.018663
  C 3.127412 1.758981 1.203981
  C 2.646316 0.585706 2.187633
  C 3.574212 0.495239 3.377171
  C 3.078685 0.062016 -0.405733
  C 4.383367 -0.245378 -0.788335
  C 4.858595 -1.519193 -0.822033
  H 4.246370 -2.358620 -0.536986
  H 5.861010 -1.731890 -1.148769
  H 2.768119 2.723469 1.560849
  H 4.215315 1.719742 1.188016
  H 2.626253 -0.355763 1.568828
  H 1.633494 0.803951 2.521599
  H 4.584492 0.232318 3.073562
  H 3.209468 -0.271606 4.054361
  H 3.607630 1.433859 3.922703
  H 2.425299 -0.675867 0.117454
  H 5.002497 0.568495 -1.141556
 19
 46.714244
  H 1.457753 1.463663 -0.281247
  C 2.495729 1.248522 -0.034496
  C 3.084112 1.722304 1.203372
  C 2.660526 0.545793 2.201813
  C 3.583738 0.503392 3.394260
  C 3.089079 0.049807 -0.409764
  C 4.366241 -0.255516 -0.859069
  C 4.883904 -1.515679 -0.825228
  H 4.340038 -2.340478 -0.396628
  H 5.874232 -1.719867 -1.191140
  H 2.696067 2.672759 1.569590
  H 4.173485 1.726545 1.173079
  H 2.684769 -0.397264 1.571132
  H 1.636085 0.711844 2.532824
  H 4.608344 0.293151 3.096190
  H 3.254900 -0.276593 4.075574
  H 3.566826 1.443972 3.937869
  H 2.507885 -0.660356 0.269048
  H 4.927659 0.538341 -1.331637
 19
 53.576577
  H 1.420795 1.386131 -0.288185
  C 2.467574 1.207903 -0.040578
  C 3.032255 1.693510 1.212211
  C 2.676344 0.521141 2.228370
  C 3.598260 0.523776 3.419791
  C 3.113222 0.041930 -0.419649
  C 4.356539 -0.281871 -0.927003
  C 4.913893 -1.525020 -0.829645
  H 4.437441 -2.319326 -0.284834
  H 5.883168 -1.733233 -1.249500
  H 2.599243 2.625542 1.576013
  H 4.120133 1.757426 1.172677
  H 2.747278 -0.430523 1.583788
  H 1.642573 0.627774 2.560432
  H 4.633130 0.368746 3.122346
  H 3.311107 -0.267780 4.105079
  H 3.531698 1.463769 3.961557
  H 2.596384 -0.635560 0.399783
  H 4.865212 0.480352 -1.505047
