 23
 0.000000
  C 0.994840 0.134097 0.384400
  C 2.467635 0.145333 0.414942
  C 3.225727 0.618954 1.592951
  C 2.429569 1.105380 2.800372
  C 3.370923 1.552540 3.914977
  C 3.119337 -0.314090 -0.726038
  C 4.499429 -0.386774 -0.909080
  C 5.081134 -0.851997 -2.068180
  H 4.521498 -1.199059 -2.927352
  O 6.362129 -0.929559 -2.270424
  H 0.542606 0.501870 1.297003
  H 0.636682 -0.879247 0.195167
  H 0.637909 0.734337 -0.454223
  H 3.888462 1.431039 1.272199
  H 3.887095 -0.189895 1.924444
  H 1.792191 0.305406 3.180707
  H 1.793876 1.947060 2.520496
  H 4.005599 0.732125 4.242262
  H 2.802079 1.898651 4.774330
  H 4.007459 2.369863 3.583719
  H 2.484906 -0.641168 -1.538890
  H 5.154469 -0.064870 -0.110895
  H 6.912769 -0.625687 -1.523222
 23
 0.174884
  C 1.003812 0.071042 0.402419
  C 2.474972 0.116037 0.431118
  C 3.223930 0.606911 1.605320
  C 2.420375 1.128124 2.792097
  C 3.356755 1.599008 3.902536
  C 3.139052 -0.308474 -0.715490
  C 4.522064 -0.436046 -0.868644
  C 5.081631 -0.763688 -2.085640
  H 4.454911 -0.932614 -2.956528
  O 6.346028 -0.908271 -2.331689
  H 0.547729 0.388551 1.331821
  H 0.666773 -0.937968 0.164612
  H 0.630802 0.706403 -0.401451
  H 3.908806 1.396454 1.274658
  H 3.868519 -0.207692 1.959615
  H 1.774911 0.342954 3.190456
  H 1.796880 1.969229 2.483192
  H 3.983879 0.784248 4.256243
  H 2.784572 1.972578 4.747131
  H 4.001685 2.402159 3.553805
  H 2.526418 -0.526594 -1.580332
  H 5.166660 -0.296093 -0.015592
  H 6.933171 -0.767915 -1.560521
 23
 1.357759
  C 1.010467 0.014598 0.422641
  C 2.476128 0.080529 0.444159
  C 3.225319 0.582156 1.619014
  C 2.418671 1.151388 2.786001
  C 3.353128 1.639718 3.889177
  C 3.134232 -0.314537 -0.715757
  C 4.514399 -0.496572 -0.869360
  C 5.087185 -0.688043 -2.106380
  H 4.486033 -0.704074 -3.003752
  O 6.353133 -0.858815 -2.342415
  H 0.556788 0.301968 1.366686
  H 0.685783 -0.986015 0.164422
  H 0.616993 0.676022 -0.354975
  H 3.918130 1.353485 1.273909
  H 3.858506 -0.233829 1.994218
  H 1.755626 0.392217 3.207123
  H 1.806715 1.994766 2.452074
  H 3.966639 0.824989 4.273035
  H 2.780947 2.044649 4.713847
  H 4.015834 2.425924 3.522449
  H 2.506891 -0.412351 -1.593490
  H 5.145030 -0.513667 0.013509
  H 6.921052 -0.862739 -1.543495
 23
 3.419856
  C 1.029517 -0.022305 0.437054
  C 2.506517 0.066460 0.458735
  C 3.223286 0.582934 1.635584
  C 2.398743 1.157916 2.800453
  C 3.323475 1.670488 3.887896
  C 3.160299 -0.304709 -0.712349
  C 4.523037 -0.528757 -0.878051
  C 5.095962 -0.652593 -2.134344
  H 4.493219 -0.560253 -3.026648
  O 6.342100 -0.870342 -2.384228
  H 0.576734 0.217298 1.405059
  H 0.718327 -1.021646 0.133913
  H 0.624022 0.668475 -0.297959
  H 3.928638 1.359250 1.290560
  H 3.874028 -0.219857 2.015955
  H 1.753049 0.394451 3.230676
  H 1.786752 1.986697 2.450314
  H 3.945364 0.870186 4.284091
  H 2.744351 2.082636 4.705710
  H 3.969640 2.464068 3.509718
  H 2.482772 -0.296014 -1.566318
  H 5.142225 -0.637315 0.010065
  H 6.912084 -0.971536 -1.584006
 23
 5.050603
  C 1.041885 -0.059572 0.456460
  C 2.506380 0.046784 0.469927
  C 3.220459 0.594543 1.650950
  C 2.392332 1.162450 2.785813
  C 3.313111 1.699612 3.888808
  C 3.165057 -0.321082 -0.713587
  C 4.518570 -0.577388 -0.888989
  C 5.098991 -0.615842 -2.139941
  H 4.514171 -0.438396 -3.025561
  O 6.348922 -0.840198 -2.396128
  H 0.606397 0.134062 1.434690
  H 0.725540 -1.041814 0.116747
  H 0.619516 0.681503 -0.216715
  H 3.920416 1.361781 1.315469
  H 3.848776 -0.205920 2.048291
  H 1.753227 0.397349 3.223014
  H 1.765005 1.977262 2.429768
  H 3.944656 0.905574 4.296193
  H 2.719052 2.109591 4.702396
  H 3.954798 2.499946 3.511101
  H 2.500004 -0.206216 -1.582199
  H 5.121869 -0.781253 -0.008408
  H 6.901275 -1.017688 -1.610507
 23
 8.287154
  C 1.051649 -0.112443 0.464396
  C 2.516981 0.037831 0.485071
  C 3.207202 0.595645 1.666229
  C 2.378309 1.157594 2.813280
  C 3.295828 1.763826 3.893016
  C 3.176010 -0.339231 -0.693221
  C 4.507389 -0.647686 -0.892851
  C 5.106047 -0.527892 -2.133507
  H 4.563732 -0.127812 -2.974729
  O 6.336055 -0.827310 -2.417877
  H 0.605246 0.013178 1.449027
  H 0.794270 -1.079066 0.061836
  H 0.613732 0.638401 -0.191736
  H 3.887317 1.376808 1.311969
  H 3.870104 -0.181315 2.069124
  H 1.779830 0.375667 3.283872
  H 1.715352 1.943512 2.449493
  H 3.952666 1.000022 4.311835
  H 2.694276 2.178799 4.699299
  H 3.907497 2.565571 3.470023
  H 2.547542 -0.079632 -1.561239
  H 5.080838 -1.032476 -0.051403
  H 6.850749 -1.192214 -1.671999
 23
 11.948309
  C 1.065350 -0.151585 0.496941
  C 2.505965 0.093896 0.469243
  C 3.210934 0.675220 1.633265
  C 2.362326 1.158217 2.809909
  C 3.265784 1.743718 3.897051
  C 3.189239 -0.259668 -0.707194
  C 4.499581 -0.648617 -0.909784
  C 5.129409 -0.533493 -2.125707
  H 4.632294 -0.090766 -2.978239
  O 6.346174 -0.918725 -2.397264
  H 0.661679 -0.080598 1.505389
  H 0.851314 -1.120621 0.083533
  H 0.549460 0.591092 -0.112103
  H 3.827134 1.515370 1.284262
  H 3.917923 -0.082242 2.003580
  H 1.809872 0.317491 3.238569
  H 1.662720 1.928700 2.496927
  H 3.963599 0.992265 4.250620
  H 2.660837 2.081062 4.740896
  H 3.830983 2.593024 3.510430
  H 2.591940 0.155076 -1.527698
  H 5.023443 -1.081259 -0.066038
  H 6.804944 -1.348044 -1.648569
 23
 17.890533
  C 1.129173 -0.149767 0.503738
  C 2.574860 0.109456 0.496786
  C 3.239241 0.712134 1.676715
  C 2.339707 1.112096 2.847084
  C 3.154535 1.801825 3.933031
  C 3.256780 -0.217532 -0.673458
  C 4.518410 -0.709433 -0.953772
  C 5.134925 -0.545749 -2.174929
  H 4.656747 -0.007282 -2.976289
  O 6.304272 -1.025824 -2.511601
  H 0.745129 -0.153681 1.519853
  H 0.907603 -1.092496 0.013374
  H 0.601058 0.635933 -0.023674
  H 3.761498 1.609523 1.331601
  H 4.017758 0.021621 2.015810
  H 1.886749 0.223205 3.290219
  H 1.540588 1.778490 2.529625
  H 3.924009 1.138982 4.319656
  H 2.507565 2.081784 4.762504
  H 3.627368 2.703168 3.554255
  H 2.708340 0.387207 -1.401952
  H 4.998925 -1.310949 -0.202079
  H 6.735968 -1.547128 -1.807418
 23
 26.712870
  C 1.086677 -0.226914 0.529899
  C 2.543554 0.011231 0.530595
  C 3.217263 0.599328 1.713713
  C 2.330213 1.173322 2.819386
  C 3.178375 1.878121 3.872119
  C 3.256991 -0.331665 -0.616955
  C 4.484102 -0.836015 -1.000793
  C 5.168685 -0.396922 -2.105849
  H 4.799423 0.421881 -2.713173
  O 6.351728 -0.810989 -2.483109
  H 0.705187 -0.253853 1.548973
  H 0.856275 -1.158846 0.032120
  H 0.549014 0.567612 0.013790
  H 3.871627 1.393969 1.350300
  H 3.900368 -0.153575 2.134583
  H 1.756650 0.384466 3.318934
  H 1.614940 1.888786 2.402964
  H 3.877621 1.194772 4.326546
  H 2.543269 2.280395 4.660455
  H 3.739110 2.707935 3.437982
  H 2.726546 0.428242 -1.225774
  H 4.862934 -1.689718 -0.445672
  H 6.737114 -1.490319 -1.900837
 23
 38.496466
  C 1.091355 -0.279220 0.548190
  C 2.539829 0.073474 0.514052
  C 3.198761 0.691267 1.700326
  C 2.299451 1.234063 2.802418
  C 3.143144 1.862293 3.908700
  C 3.309092 -0.370211 -0.557737
  C 4.499728 -0.877406 -1.021885
  C 5.196884 -0.377720 -2.100703
  H 4.897262 0.529321 -2.606716
  O 6.350089 -0.847672 -2.544715
  H 0.731457 -0.285062 1.569445
  H 0.928310 -1.248759 0.093895
  H 0.485040 0.443306 0.001273
  H 3.849577 1.492655 1.361843
  H 3.888760 -0.049149 2.117847
  H 1.687243 0.450027 3.231484
  H 1.623038 2.001620 2.394588
  H 3.815875 1.133450 4.342487
  H 2.498030 2.243573 4.703348
  H 3.733136 2.692767 3.525296
  H 2.776705 0.499230 -1.063942
  H 4.856904 -1.780244 -0.544645
  H 6.647027 -1.647234 -2.072628
 23
 46.987784
  C 1.176159 -0.220111 0.501949
  C 2.644220 0.086878 0.538071
  C 3.220435 0.723975 1.765711
  C 2.253141 1.166752 2.871244
  C 3.019396 1.909564 3.964618
  C 3.454423 -0.343310 -0.478702
  C 4.556847 -0.891550 -1.056099
  C 5.208388 -0.422064 -2.177706
  H 4.910002 0.476876 -2.684577
  O 6.260985 -0.992904 -2.739853
  H 0.760623 -0.212606 1.503303
  H 1.002137 -1.194873 0.055384
  H 0.624689 0.516251 -0.078437
  H 3.794998 1.597612 1.455343
  H 3.940854 0.019195 2.179707
  H 1.754492 0.304155 3.323466
  H 1.496932 1.838628 2.464061
  H 3.737014 1.256481 4.445941
  H 2.331551 2.274003 4.727955
  H 3.553062 2.762227 3.558176
  H 2.826919 0.581033 -0.828289
  H 4.893676 -1.811385 -0.595751
  H 6.506298 -1.840797 -2.324190
 23
 53.072287
  C 1.201755 -0.230393 0.470944
  C 2.672404 0.120020 0.531835
  C 3.239157 0.776572 1.783223
  C 2.241849 1.197927 2.858211
  C 2.969156 1.906004 3.992088
  C 3.548840 -0.368306 -0.388670
  C 4.583560 -0.907716 -1.053571
  C 5.198660 -0.448481 -2.202263
  H 4.917467 0.483439 -2.679839
  O 6.179567 -1.079119 -2.832424
  H 0.779759 -0.249456 1.466618
  H 1.064337 -1.206429 0.016338
  H 0.639596 0.496667 -0.106540
  H 3.808266 1.659455 1.483080
  H 3.963344 0.081757 2.218556
  H 1.728133 0.330980 3.272020
  H 1.501751 1.881289 2.442004
  H 3.694630 1.243934 4.462223
  H 2.262496 2.225419 4.753957
  H 3.492071 2.786507 3.629236
  H 2.766580 0.666856 -0.617043
  H 4.914042 -1.848923 -0.624931
  H 6.424060 -1.918768 -2.408167
 23
 53.973314
  C 1.231509 -0.245195 0.473611
  C 2.704785 0.172752 0.526395
  C 3.253302 0.815067 1.799468
  C 2.228791 1.227253 2.853496
  C 2.930790 1.921313 4.016329
  C 3.588805 -0.373335 -0.361877
  C 4.559548 -0.947933 -1.078409
  C 5.190701 -0.475065 -2.214391
  H 4.947152 0.481410 -2.650547
  O 6.134043 -1.118485 -2.884644
  H 0.816907 -0.301423 1.471550
  H 1.133299 -1.220599 0.004760
  H 0.631712 0.464312 -0.088276
  H 3.826650 1.703385 1.525196
  H 3.963706 0.116723 2.245379
  H 1.704417 0.355882 3.244620
  H 1.495908 1.912637 2.425587
  H 3.631234 1.247612 4.505161
  H 2.203148 2.245122 4.756471
  H 3.477325 2.798285 3.676326
  H 2.773276 0.822180 -0.483963
  H 4.834504 -1.926496 -0.688963
  H 6.355966 -1.985471 -2.503657
