8

H      2.295931    0.064637    0.815789
C      1.429912    1.033814    0.098208
C     -1.341186   -0.045509    0.227019
H     -2.128845    1.009462   -0.464509
H     -1.155490   -1.396740   -0.372382
H      1.583365    1.112237   -0.966190
H      1.315618    1.995227    0.577963
H     -1.528998   -0.076382    1.293422
