 23
 0.000000
  C 0.995634 0.118278 0.346064
  C 2.470687 0.131393 0.379262
  C 3.223897 0.607468 1.563341
  C 2.411485 1.088522 2.759637
  H 3.079457 1.407130 3.552565
  C 3.124053 -0.326530 -0.759647
  C 4.504964 -0.395188 -0.931643
  C 5.157421 -0.851657 -2.070769
  C 4.528081 -1.349040 -3.310997
  H 3.448480 -1.359792 -3.337578
  O 6.469366 -0.873665 -2.127816
  H 0.543208 0.485462 1.258841
  H 0.638379 -0.895693 0.160499
  H 0.638604 0.721598 -0.489836
  H 3.883319 1.422368 1.244856
  H 3.883190 -0.201131 1.897672
  H 1.778427 0.292935 3.146441
  H 1.778746 1.930689 2.488114
  H 2.486941 -0.651877 -1.568854
  H 5.132755 -0.066611 -0.113952
  H 4.906050 -2.356696 -3.494680
  H 4.906025 -0.747447 -4.139967
  H 6.920274 -0.551887 -1.325173
 23
 5.165385
  C 1.033713 0.093929 0.284052
  C 2.508959 0.122927 0.358491
  C 3.211613 0.612968 1.578083
  C 2.357584 1.083686 2.747885
  H 3.001870 1.409687 3.559941
  C 3.224358 -0.307680 -0.711930
  C 4.595229 -0.390263 -0.917852
  C 5.188987 -0.854771 -2.078161
  C 4.465462 -1.333356 -3.270542
  H 3.389192 -1.296178 -3.175629
  O 6.489796 -0.900959 -2.198208
  H 0.555275 0.456566 1.185019
  H 0.690641 -0.923951 0.088461
  H 0.691753 0.693574 -0.561827
  H 3.871846 1.434291 1.278949
  H 3.871105 -0.187341 1.930931
  H 1.725071 0.282869 3.123460
  H 1.726114 1.922361 2.464483
  H 2.478055 -0.583420 -1.398693
  H 5.249489 -0.069626 -0.118755
  H 4.783358 -2.353930 -3.485928
  H 4.782070 -0.743678 -4.131382
  H 6.987120 -0.587208 -1.419918
 23
 15.056486
  C 1.077038 0.087146 0.259987
  C 2.539734 0.126757 0.365724
  C 3.187109 0.624314 1.610508
  C 2.291094 1.084007 2.753503
  H 2.906604 1.414676 3.582852
  C 3.298472 -0.301426 -0.700402
  C 4.659382 -0.395005 -0.932896
  C 5.219719 -0.867009 -2.110746
  C 4.436436 -1.338480 -3.273104
  H 3.370753 -1.274938 -3.103733
  O 6.519345 -0.926317 -2.270559
  H 0.584673 0.446829 1.155524
  H 0.737441 -0.937088 0.062432
  H 0.740664 0.693063 -0.590430
  H 3.853572 1.450773 1.331364
  H 3.850393 -0.168563 1.979899
  H 1.658959 0.276139 3.114001
  H 1.662807 1.919962 2.455750
  H 2.424770 -0.517165 -1.241943
  H 5.329598 -0.076886 -0.139055
  H 4.717314 -2.366897 -3.500956
  H 4.710388 -0.752998 -4.150709
  H 7.043729 -0.613829 -1.509969
 23
 28.793547
  C 1.071244 0.075296 0.234749
  C 2.543990 0.123448 0.355985
  C 3.171471 0.631372 1.624171
  C 2.271331 1.085850 2.758094
  H 2.885975 1.420885 3.596056
  C 3.338864 -0.296698 -0.691416
  C 4.692298 -0.394627 -0.935858
  C 5.233431 -0.873974 -2.127202
  C 4.426074 -1.333615 -3.265378
  H 3.362931 -1.254837 -3.067119
  O 6.527395 -0.946817 -2.311121
  H 0.571159 0.432003 1.124352
  H 0.736689 -0.938322 0.041218
  H 0.737103 0.674710 -0.605320
  H 3.834235 1.456247 1.352994
  H 3.833665 -0.153163 1.997622
  H 1.641160 0.275707 3.115495
  H 1.642154 1.919481 2.457442
  H 2.392094 -0.467010 -1.117294
  H 5.369315 -0.081435 -0.156721
  H 4.688472 -2.364103 -3.498045
  H 4.687306 -0.751830 -4.148046
  H 7.074084 -0.638093 -1.552597
 23
 44.156654
  C 1.080543 0.073722 0.232261
  C 2.559682 0.123108 0.354646
  C 3.152507 0.637889 1.638934
  C 2.228396 1.087559 2.762585
  H 2.823126 1.425664 3.607233
  C 3.387612 -0.296642 -0.692362
  C 4.733223 -0.396378 -0.941724
  C 5.250224 -0.881223 -2.145131
  C 4.407216 -1.333290 -3.266170
  H 3.356568 -1.240309 -3.035406
  O 6.536662 -0.965478 -2.353859
  H 0.587699 0.430562 1.122752
  H 0.736005 -0.948102 0.041450
  H 0.735363 0.680408 -0.611507
  H 3.817441 1.470775 1.377063
  H 3.817814 -0.145030 2.024535
  H 1.598062 0.272694 3.110786
  H 1.597703 1.917468 2.452481
  H 2.396248 -0.423747 -1.009421
  H 5.429320 -0.085934 -0.170434
  H 4.649755 -2.366015 -3.505913
  H 4.650108 -0.755466 -4.154966
  H 7.099188 -0.662227 -1.605886
 23
 57.012316
  C 1.059320 0.073719 0.236953
  C 2.537684 0.121787 0.349444
  C 3.143123 0.636990 1.632175
  C 2.230481 1.085975 2.759625
  H 2.834400 1.423111 3.598883
  C 3.384078 -0.298454 -0.701534
  C 4.731582 -0.395094 -0.945608
  C 5.253312 -0.880892 -2.144034
  C 4.416661 -1.332929 -3.270012
  H 3.365549 -1.238419 -3.045935
  O 6.544024 -0.967762 -2.345863
  H 0.571420 0.435357 1.141188
  H 0.711393 -0.946112 0.051663
  H 0.707912 0.681480 -0.601282
  H 3.805872 1.464726 1.366212
  H 3.809787 -0.142624 2.010085
  H 1.602452 0.271067 3.113933
  H 1.598427 1.917750 2.455159
  H 2.343847 -0.391490 -0.929690
  H 5.433654 -0.080655 -0.169749
  H 4.659822 -2.367790 -3.507137
  H 4.666057 -0.754681 -4.158754
  H 7.098522 -0.669011 -1.597730
 23
 68.537947
  C 1.031580 0.081517 0.249005
  C 2.519436 0.118470 0.341134
  C 3.137089 0.628226 1.615691
  C 2.236319 1.083272 2.758040
  H 2.853412 1.417027 3.592323
  C 3.368541 -0.306858 -0.725740
  C 4.719624 -0.393898 -0.947006
  C 5.256793 -0.878723 -2.138497
  C 4.431169 -1.337768 -3.272924
  H 3.376369 -1.246967 -3.055148
  O 6.550043 -0.957581 -2.327157
  H 0.563343 0.445770 1.159325
  H 0.671978 -0.932428 0.070420
  H 0.671304 0.691719 -0.580041
  H 3.803514 1.454748 1.342227
  H 3.805893 -0.157244 1.986992
  H 1.607217 0.271175 3.120142
  H 1.605179 1.920113 2.461802
  H 2.303584 -0.365934 -0.868019
  H 5.414382 -0.074591 -0.166166
  H 4.681096 -2.373579 -3.506430
  H 4.684871 -0.758530 -4.161900
  H 7.092314 -0.652368 -1.575605
 23
 78.408284
  C 1.005440 0.089436 0.251604
  C 2.491786 0.110787 0.322378
  C 3.134962 0.618639 1.605685
  C 2.256265 1.079348 2.759062
  H 2.882153 1.404081 3.579160
  C 3.330742 -0.316105 -0.756214
  C 4.688846 -0.389162 -0.945884
  C 5.249840 -0.873854 -2.129863
  C 4.449146 -1.342573 -3.264368
  H 3.391412 -1.259732 -3.054268
  O 6.549515 -0.939718 -2.302959
  H 0.558975 0.458304 1.174423
  H 0.630549 -0.924741 0.075733
  H 0.636276 0.707378 -0.574133
  H 3.803896 1.439517 1.321841
  H 3.801326 -0.174280 1.966322
  H 1.632987 0.283600 3.124762
  H 1.636898 1.911026 2.477185
  H 2.261259 -0.346799 -0.825710
  H 5.372854 -0.062877 -0.161264
  H 4.711869 -2.373869 -3.489606
  H 4.706730 -0.765782 -4.149842
  H 7.076301 -0.624192 -1.547717
 23
 85.691576
  C 0.977049 0.107894 0.274755
  C 2.479655 0.111577 0.317596
  C 3.139059 0.601542 1.584328
  C 2.271046 1.063236 2.747935
  H 2.912727 1.383402 3.568561
  C 3.309247 -0.316558 -0.778398
  C 4.669458 -0.370552 -0.943673
  C 5.250592 -0.860804 -2.113384
  C 4.461002 -1.361962 -3.270095
  H 3.399125 -1.291896 -3.075836
  O 6.549362 -0.909784 -2.263611
  H 0.557779 0.473494 1.203937
  H 0.589342 -0.897292 0.102411
  H 0.596265 0.732175 -0.536489
  H 3.809481 1.419318 1.292177
  H 3.804649 -0.196675 1.938013
  H 1.636753 0.256349 3.123390
  H 1.643892 1.914126 2.469631
  H 2.227383 -0.321575 -0.789295
  H 5.337801 -0.027493 -0.160676
  H 4.741820 -2.396193 -3.479751
  H 4.721454 -0.791229 -4.163357
  H 7.060928 -0.578111 -1.498341
 23
 91.065599
  C 0.951551 0.180895 0.259397
  C 2.462952 0.133879 0.295015
  C 3.142092 0.549562 1.583362
  C 2.276115 0.984139 2.760119
  H 2.919326 1.261969 3.586672
  C 3.297682 -0.246061 -0.806913
  C 4.656869 -0.268793 -0.987234
  C 5.244464 -0.833738 -2.113154
  C 4.469351 -1.448697 -3.204265
  H 3.407396 -1.396609 -3.004869
  O 6.546980 -0.863074 -2.275556
  H 0.556496 0.511107 1.199259
  H 0.540640 -0.806383 0.052464
  H 0.577180 0.849830 -0.514949
  H 3.821950 1.364474 1.309941
  H 3.791232 -0.266538 1.921977
  H 1.633920 0.183778 3.105935
  H 1.670430 1.846804 2.512608
  H 2.199483 -0.234200 -0.789427
  H 5.326064 0.182767 -0.239441
  H 4.783405 -2.483035 -3.325099
  H 4.700547 -0.950521 -4.143236
  H 7.056636 -0.481046 -1.537047
 23
 90.597433
  C 0.926979 0.339044 0.200016
  C 2.442136 0.189541 0.243212
  C 3.146843 0.430073 1.603358
  C 2.277775 0.813011 2.790106
  H 2.929402 0.973714 3.650232
  C 3.311225 -0.107832 -0.806320
  C 4.657643 -0.079113 -1.081805
  C 5.244347 -0.785519 -2.110426
  C 4.487329 -1.654158 -3.030166
  H 3.434031 -1.662784 -2.786077
  O 6.537939 -0.730530 -2.353503
  H 0.551909 0.598711 1.189891
  H 0.456998 -0.603905 -0.092283
  H 0.598603 1.118208 -0.497854
  H 3.868940 1.230965 1.409062
  H 3.729240 -0.458753 1.873583
  H 1.577043 0.025228 3.057664
  H 1.736954 1.737633 2.610602
  H 2.159244 -0.045757 -0.840306
  H 5.288670 0.575248 -0.488303
  H 4.893940 -2.666425 -2.990057
  H 4.628274 -1.305143 -4.052026
  H 7.038606 -0.176630 -1.727904
 23
 91.781137
  C 0.942799 0.377811 0.178005
  C 2.470435 0.202859 0.243666
  C 3.132994 0.393058 1.641802
  C 2.230511 0.744547 2.819622
  H 2.856487 0.864392 3.699055
  C 3.359173 -0.044606 -0.781733
  C 4.689713 -0.006869 -1.124205
  C 5.250970 -0.769659 -2.125389
  C 4.468509 -1.736191 -2.950062
  H 3.438523 -1.758719 -2.650977
  O 6.530347 -0.692794 -2.440324
  H 0.564560 0.610779 1.162996
  H 0.460491 -0.534020 -0.152328
  H 0.647192 1.190558 -0.485727
  H 3.862185 1.190518 1.508256
  H 3.694469 -0.513486 1.891442
  H 1.519253 -0.037315 3.036141
  H 1.706440 1.676673 2.662540
  H 2.178558 0.015625 -0.824863
  H 5.314460 0.715598 -0.606436
  H 4.905297 -2.728279 -2.859734
  H 4.544254 -1.460446 -4.003769
  H 7.037690 -0.073525 -1.887799
 23
 92.481232
  C 0.956542 0.440587 0.154126
  C 2.485843 0.219933 0.243511
  C 3.119702 0.335362 1.667332
  C 2.193679 0.641757 2.837229
  H 2.803081 0.710995 3.736957
  C 3.397105 0.037311 -0.768604
  C 4.700634 0.084998 -1.184317
  C 5.242411 -0.753784 -2.135543
  C 4.464281 -1.821551 -2.812619
  H 3.442894 -1.854047 -2.451087
  O 6.502030 -0.662876 -2.529408
  H 0.569922 0.623117 1.147107
  H 0.452157 -0.444490 -0.235799
  H 0.696308 1.298413 -0.467061
  H 3.867308 1.129388 1.590095
  H 3.657263 -0.592756 1.881629
  H 1.464159 -0.142673 3.002373
  H 1.687835 1.594671 2.715953
  H 2.188300 0.109405 -0.820301
  H 5.318843 0.884736 -0.776229
  H 4.947511 -2.787009 -2.651763
  H 4.473501 -1.645807 -3.890485
  H 7.010706 0.032574 -2.074494
 23
 91.732669
  C 0.952598 0.489652 0.153887
  C 2.480643 0.242393 0.236245
  C 3.113632 0.279463 1.666109
  C 2.184274 0.545428 2.845417
  H 2.787929 0.558117 3.754767
  C 3.396030 0.110044 -0.771734
  C 4.676326 0.167911 -1.246050
  C 5.223119 -0.734393 -2.137508
  C 4.472448 -1.896981 -2.678899
  H 3.464388 -1.936654 -2.279741
  O 6.472295 -0.640120 -2.568564
  H 0.571557 0.629839 1.155427
  H 0.432744 -0.364376 -0.275612
  H 0.708132 1.381862 -0.427777
  H 3.873281 1.059625 1.632587
  H 3.632634 -0.669069 1.835756
  H 1.441465 -0.231722 2.965875
  H 1.698119 1.510753 2.768551
  H 2.182895 0.176823 -0.825268
  H 5.280915 1.012042 -0.914934
  H 4.999501 -2.819054 -2.440151
  H 4.441306 -1.830425 -3.767605
  H 6.963759 0.114553 -2.196908
