 13
 0.000000
  H 3.588903 -0.602797 -0.995850
  C 4.663992 -0.609024 -1.008581
  C 5.374109 -1.119303 -2.009399
  C 6.817560 -1.130963 -2.032557
  C 7.534763 -1.640129 -3.033006
  C 9.023541 -1.660972 -3.072411
  H 5.162623 -0.174326 -0.156540
  H 4.867776 -1.554264 -2.861704
  H 7.323201 -0.696754 -1.179817
  H 7.036147 -2.075594 -3.889318
  H 9.455414 -1.209085 -2.182479
  H 9.383691 -1.116408 -3.945533
  H 9.382000 -2.688110 -3.146527
 13
 1.202754
  H 3.594762 -0.715958 -0.968700
  C 4.670941 -0.694636 -0.976533
  C 5.374815 -0.986352 -2.063764
  C 6.823951 -0.985667 -2.110252
  C 7.535065 -1.694226 -2.983551
  C 9.024057 -1.707073 -3.051188
  H 5.151450 -0.424407 -0.050274
  H 4.869151 -1.253732 -2.983248
  H 7.328686 -0.384708 -1.364108
  H 7.025512 -2.304841 -3.718604
  H 9.461230 -1.274878 -2.154367
  H 9.357592 -1.128637 -3.914156
  H 9.395513 -2.723053 -3.175927
 13
 4.238449
  H 3.604363 -0.794510 -0.976154
  C 4.680739 -0.804365 -0.984361
  C 5.375557 -0.846113 -2.110317
  C 6.837055 -0.868077 -2.172423
  C 7.526475 -1.741772 -2.895486
  C 9.013180 -1.742688 -3.028207
  H 5.167340 -0.779885 -0.022724
  H 4.868392 -0.869589 -3.067435
  H 7.356556 -0.116057 -1.590738
  H 7.000417 -2.499480 -3.462910
  H 9.483663 -1.241708 -2.186097
  H 9.288127 -1.213901 -3.942240
  H 9.399221 -2.756799 -3.103374
 13
 7.244130
  H 3.577503 -0.766628 -1.082865
  C 4.649400 -0.866739 -1.036188
  C 5.414854 -0.722162 -2.102456
  C 6.880418 -0.832024 -2.133418
  C 7.529207 -1.804154 -2.755007
  C 8.995544 -1.779169 -3.040736
  H 5.067450 -1.099586 -0.069912
  H 4.992558 -0.490869 -3.073362
  H 7.429584 0.005250 -1.716115
  H 6.973428 -2.631309 -3.179901
  H 9.545951 -1.249251 -2.266535
  H 9.121653 -1.241525 -3.981345
  H 9.403077 -2.779574 -3.157909
 13
 11.489738
  H 3.545165 -0.650661 -1.249202
  C 4.587555 -0.852532 -1.099893
  C 5.482463 -0.667481 -2.053560
  C 6.936907 -0.888524 -1.997200
  C 7.553947 -1.874049 -2.627746
  C 8.969330 -1.792127 -3.092974
  H 4.870238 -1.216628 -0.121585
  H 5.219934 -0.300384 -3.047625
  H 7.514744 -0.041373 -1.633748
  H 6.967831 -2.706150 -3.021088
  H 9.596201 -1.251668 -2.396210
  H 8.899602 -1.212784 -4.020219
  H 9.404725 -2.767896 -3.309813
 13
 18.454643
  H 3.541325 -0.523820 -1.427430
  C 4.543441 -0.812738 -1.172801
  C 5.566694 -0.638394 -1.996593
  C 6.993394 -0.985998 -1.843323
  C 7.572827 -1.946247 -2.539690
  C 8.921852 -1.784836 -3.154402
  H 4.681997 -1.240785 -0.187611
  H 5.481580 -0.200533 -2.988314
  H 7.602652 -0.166517 -1.484128
  H 6.951002 -2.754880 -2.952118
  H 9.594832 -1.269278 -2.501337
  H 8.685780 -1.136985 -4.001602
  H 9.367192 -2.698043 -3.512891
 13
 26.808124
  H 3.591126 -0.327694 -1.575420
  C 4.529851 -0.739005 -1.244024
  C 5.627463 -0.648010 -1.970162
  C 7.005473 -1.093085 -1.729581
  C 7.608484 -2.028867 -2.467312
  C 8.865481 -1.756323 -3.221687
  H 4.523162 -1.242842 -0.290028
  H 5.681969 -0.141147 -2.930569
  H 7.635539 -0.332066 -1.264847
  H 6.997365 -2.839757 -2.859172
  H 9.578045 -1.157298 -2.652181
  H 8.451625 -1.135351 -4.022065
  H 9.351067 -2.629481 -3.644532
 13
 37.602617
  H 3.687022 -0.217726 -1.733169
  C 4.553288 -0.695994 -1.312958
  C 5.718098 -0.652195 -1.917832
  C 7.040599 -1.202149 -1.617547
  C 7.597401 -2.108259 -2.437275
  C 8.780900 -1.712356 -3.237606
  H 4.423464 -1.158874 -0.353421
  H 5.890379 -0.246175 -2.922854
  H 7.726055 -0.469544 -1.194000
  H 6.946028 -2.861579 -2.881469
  H 9.523414 -1.162903 -2.664333
  H 8.247418 -0.995937 -3.884565
  H 9.235245 -2.478365 -3.845073
 13
 50.506647
  H 3.816285 -0.071812 -1.894956
  C 4.583363 -0.645770 -1.413729
  C 5.814334 -0.685314 -1.875931
  C 7.069403 -1.297483 -1.494802
  C 7.617012 -2.186361 -2.387092
  C 8.670501 -1.663779 -3.285162
  H 4.305041 -1.154767 -0.515699
  H 6.133582 -0.211648 -2.838495
  H 7.766052 -0.595592 -1.029590
  H 6.969928 -2.956576 -2.801376
  H 9.426717 -1.057008 -2.788520
  H 7.996198 -0.943628 -3.812178
  H 9.102469 -2.353723 -4.015717
 13
 61.802199
  H 3.917441 -0.030252 -2.055239
  C 4.631096 -0.587213 -1.475976
  C 5.886294 -0.704500 -1.855108
  C 7.120782 -1.348914 -1.430518
  C 7.632649 -2.216150 -2.348632
  C 8.588143 -1.624363 -3.304377
  H 4.250453 -1.104772 -0.609308
  H 6.242304 -0.307931 -2.858010
  H 7.817876 -0.712590 -0.889290
  H 6.924596 -2.923082 -2.774473
  H 9.362270 -0.995791 -2.875907
  H 7.836514 -0.858757 -3.726734
  H 8.937991 -2.245089 -4.119827
 13
 80.937510
  H 4.063025 0.069570 -2.140251
  C 4.683666 -0.581597 -1.550758
  C 5.953381 -0.770509 -1.816669
  C 7.144853 -1.399122 -1.369963
  C 7.635799 -2.257035 -2.344384
  C 8.490651 -1.598271 -3.290557
  H 4.204103 -1.095993 -0.737037
  H 6.428936 -0.319392 -2.904146
  H 7.861555 -0.741934 -0.878688
  H 6.954950 -2.999454 -2.744641
  H 9.223952 -0.897686 -2.906656
  H 7.546833 -0.756759 -3.647321
  H 8.814305 -2.123055 -4.181139
 13
 88.892579
  H 4.092605 0.059193 -2.175817
  C 4.686096 -0.586374 -1.550840
  C 5.955013 -0.806402 -1.771697
  C 7.123700 -1.399839 -1.373448
  C 7.646680 -2.252168 -2.378517
  C 8.479306 -1.617508 -3.281492
  H 4.178123 -1.046837 -0.717370
  H 6.501547 -0.252716 -3.069058
  H 7.837177 -0.743162 -0.882171
  H 6.987662 -3.026230 -2.757224
  H 9.204145 -0.898338 -2.916043
  H 7.361560 -0.576707 -3.670712
  H 8.785583 -2.130106 -4.181763
 13
 80.589329
  H 4.083733 0.101060 -2.105672
  C 4.662833 -0.583010 -1.506704
  C 5.937374 -0.782846 -1.686091
  C 7.102353 -1.360938 -1.384254
  C 7.646930 -2.226745 -2.410295
  C 8.513685 -1.659431 -3.279950
  H 4.108652 -1.131257 -0.759202
  H 6.531482 -0.149309 -3.294668
  H 7.826051 -0.751925 -0.855276
  H 6.972432 -2.988964 -2.777425
  H 9.191030 -0.884123 -2.939561
  H 7.225419 -0.438490 -3.827941
  H 8.851677 -2.209832 -4.145733
 13
 68.619058
  H 4.110838 0.201556 -2.030204
  C 4.617725 -0.574640 -1.472858
  C 5.880524 -0.833915 -1.623046
  C 7.081827 -1.326443 -1.428877
  C 7.664600 -2.188966 -2.459296
  C 8.584531 -1.705099 -3.290606
  H 4.010295 -1.128244 -0.775857
  H 6.436916 -0.039504 -3.524267
  H 7.776417 -0.772453 -0.800039
  H 7.066397 -3.036373 -2.754976
  H 9.204484 -0.862976 -3.017399
  H 7.071823 -0.279395 -3.979006
  H 8.935658 -2.281601 -4.131568
 13
 63.120714
  H 4.188188 0.162804 -2.086353
  C 4.602546 -0.618420 -1.455341
  C 5.861066 -0.961772 -1.508003
  C 7.097416 -1.365713 -1.403769
  C 7.686709 -2.222487 -2.464787
  C 8.640421 -1.761829 -3.264533
  H 3.907974 -1.084291 -0.767956
  H 6.369817 0.168164 -3.614130
  H 7.797244 -0.789565 -0.805360
  H 7.105942 -3.090509 -2.736023
  H 9.219520 -0.883499 -3.018267
  H 6.973980 -0.050363 -4.055917
  H 8.991212 -2.330573 -4.107560
