 20
 0.000000
  C 0.980014 0.156236 0.430490
  C 2.442435 0.119887 0.361069
  H 3.035132 0.451702 1.199991
  C 3.048498 -0.338748 -0.786666
  C 4.428845 -0.411494 -0.973843
  C 5.118310 -0.860962 -2.101560
  C 4.629440 -1.384655 -3.403818
  C 3.143949 -1.510429 -3.705214
  H 3.017550 -1.911799 -4.704780
  O 6.434606 -0.847982 -2.081156
  H 0.602388 0.539516 1.373346
  H 0.575061 -0.844976 0.270140
  H 0.587687 0.774122 -0.379954
  H 2.397025 -0.655913 -1.583283
  H 5.045946 -0.079606 -0.145634
  H 5.098552 -2.367754 -3.526046
  H 5.093346 -0.755883 -4.172584
  H 2.654295 -0.540520 -3.670723
  H 2.659704 -2.190325 -3.008852
  H 6.820961 -0.513901 -1.249247
 20
 0.519281
  C 1.003236 0.084117 0.595927
  C 2.396993 0.292504 0.205387
  H 3.001407 0.963754 0.801528
  C 2.966414 -0.328751 -0.882460
  C 4.350025 -0.359541 -1.059006
  C 5.103216 -0.948501 -2.076879
  C 4.674261 -1.408086 -3.422971
  C 3.203234 -1.412237 -3.803170
  H 3.118584 -1.720416 -4.842412
  O 6.398462 -1.088443 -1.915581
  H 0.776628 0.537785 1.554921
  H 0.787029 -0.984944 0.629306
  H 0.324816 0.496089 -0.155712
  H 2.317260 -0.850619 -1.565610
  H 4.927269 0.056564 -0.238652
  H 5.097931 -2.407713 -3.567330
  H 5.223323 -0.773846 -4.130006
  H 2.764937 -0.421464 -3.714612
  H 2.640599 -2.124611 -3.208898
  H 6.748129 -0.774589 -1.059925
 20
 6.127939
  C 1.078541 -0.024981 0.708515
  C 2.316303 0.436321 0.080438
  H 2.782872 1.336591 0.459622
  C 2.908512 -0.228470 -0.978445
  C 4.286509 -0.355299 -1.088208
  C 5.054716 -1.002698 -2.056174
  C 4.673220 -1.425116 -3.429531
  C 3.225689 -1.325680 -3.881684
  H 3.165660 -1.653487 -4.916633
  O 6.317845 -1.263461 -1.808047
  H 0.901485 0.476448 1.654731
  H 1.147747 -1.101971 0.861916
  H 0.210160 0.144984 0.066922
  H 2.258730 -0.730566 -1.679742
  H 4.844348 0.003922 -0.229081
  H 5.033476 -2.450661 -3.560904
  H 5.299846 -0.823396 -4.099227
  H 2.863093 -0.302722 -3.836546
  H 2.581799 -1.978516 -3.300126
  H 6.637040 -0.977348 -0.931095
 20
 15.975228
  C 1.204804 -0.093321 0.817565
  C 2.240867 0.532833 -0.003775
  H 2.508796 1.563437 0.188317
  C 2.868500 -0.144418 -1.058626
  C 4.223509 -0.387330 -1.084869
  C 5.010844 -1.043646 -2.031987
  C 4.679126 -1.430730 -3.429089
  C 3.260145 -1.259898 -3.946361
  H 3.227275 -1.601878 -4.977882
  O 6.241085 -1.384329 -1.720817
  H 1.047101 0.459795 1.738049
  H 1.513868 -1.115407 1.037639
  H 0.242551 -0.150672 0.299792
  H 2.226358 -0.536166 -1.836210
  H 4.753961 -0.101751 -0.181655
  H 4.992607 -2.472969 -3.552092
  H 5.366554 -0.856628 -4.062425
  H 2.954523 -0.217575 -3.935601
  H 2.556793 -1.867167 -3.383673
  H 6.525724 -1.132249 -0.822137
 20
 27.764183
  C 1.353783 -0.127968 0.917295
  C 2.165692 0.595558 -0.061916
  H 2.199641 1.674893 -0.029901
  C 2.846153 -0.076069 -1.125754
  C 4.159258 -0.433779 -1.060741
  C 4.972145 -1.083081 -2.006661
  C 4.687111 -1.430937 -3.422970
  C 3.297458 -1.209687 -4.000694
  H 3.296175 -1.555077 -5.030871
  O 6.171444 -1.474431 -1.649161
  H 1.191202 0.473324 1.807060
  H 1.848932 -1.064518 1.171950
  H 0.364913 -0.384967 0.521527
  H 2.248125 -0.308908 -1.998545
  H 4.653093 -0.225873 -0.116902
  H 4.969327 -2.480980 -3.546914
  H 5.420614 -0.875894 -4.018548
  H 3.031492 -0.156360 -4.010843
  H 2.548312 -1.786432 -3.465491
  H 6.422433 -1.258863 -0.730785
 20
 18.484983
  C 1.504359 -0.155799 0.997685
  C 2.094753 0.569873 -0.123472
  H 1.868366 1.625421 -0.219958
  C 2.854176 -0.020947 -1.150020
  C 4.131329 -0.520364 -1.014791
  C 4.926085 -1.129505 -1.987723
  C 4.654361 -1.409620 -3.424736
  C 3.282660 -1.147219 -4.026416
  H 3.301290 -1.463342 -5.067181
  O 6.132466 -1.541693 -1.656183
  H 1.283303 0.497288 1.837895
  H 2.094032 -1.017694 1.306107
  H 0.550123 -0.567075 0.653526
  H 2.369784 -0.045834 -2.118754
  H 4.585948 -0.408226 -0.036794
  H 4.923973 -2.460633 -3.579209
  H 5.404919 -0.844658 -3.987024
  H 3.035764 -0.090657 -4.018207
  H 2.510035 -1.724222 -3.523894
  H 6.384645 -1.373904 -0.729112
 20
 7.567763
  C 1.668929 -0.182775 1.046959
  C 2.046892 0.539816 -0.164097
  H 1.575625 1.501655 -0.326157
  C 2.858575 0.052478 -1.173710
  C 4.088257 -0.575859 -1.005393
  C 4.882111 -1.160508 -1.989201
  C 4.612475 -1.402489 -3.433124
  C 3.255530 -1.088181 -4.042088
  H 3.264659 -1.415176 -5.079280
  O 6.075579 -1.612178 -1.661435
  H 1.420002 0.488340 1.864997
  H 2.387092 -0.941525 1.346474
  H 0.749866 -0.731465 0.809893
  H 2.506976 0.237182 -2.179420
  H 4.496836 -0.562489 -0.002104
  H 4.843159 -2.461382 -3.596199
  H 5.389530 -0.862225 -3.985324
  H 3.051985 -0.021230 -4.049887
  H 2.456663 -1.621223 -3.534170
  H 6.325422 -1.480113 -0.727718
 20
 2.093999
  C 1.833594 -0.197034 1.075820
  C 1.988022 0.487418 -0.205943
  H 1.287802 1.286218 -0.410144
  C 2.857509 0.128690 -1.209560
  C 4.041226 -0.591857 -1.025923
  C 4.847815 -1.184336 -1.997115
  C 4.570556 -1.434255 -3.435902
  C 3.248001 -1.013698 -4.055066
  H 3.209442 -1.395025 -5.072491
  O 6.015528 -1.677396 -1.649262
  H 1.573292 0.500297 1.869573
  H 2.686816 -0.812001 1.343720
  H 0.977076 -0.874163 0.987382
  H 2.619163 0.476683 -2.202359
  H 4.408295 -0.662710 -0.008418
  H 4.700240 -2.514998 -3.569186
  H 5.398806 -0.989492 -3.998898
  H 3.156442 0.066921 -4.116557
  H 2.403108 -1.426851 -3.511688
  H 6.259782 -1.551926 -0.712578
 20
 3.779483
  C 1.845024 -0.384940 0.878000
  C 2.013508 0.482680 -0.284543
  H 1.258668 1.234338 -0.447461
  C 3.003054 0.330589 -1.215400
  C 4.179082 -0.422961 -1.022848
  C 4.903504 -1.125981 -1.979729
  C 4.454761 -1.546193 -3.328118
  C 3.155974 -0.992118 -3.895637
  H 2.940702 -1.501904 -4.835087
  O 6.082305 -1.627143 -1.681638
  H 1.539885 0.184934 1.749860
  H 2.732306 -0.981726 1.065423
  H 1.025758 -1.083029 0.679876
  H 2.897887 0.863823 -2.149518
  H 4.612763 -0.379732 -0.030116
  H 4.394528 -2.642432 -3.290162
  H 5.283107 -1.341377 -4.018783
  H 3.235554 0.069035 -4.112119
  H 2.319409 -1.162298 -3.221025
  H 6.423155 -1.396455 -0.797057
 20
 9.575619
  C 1.880752 -0.553252 0.609557
  C 2.044664 0.522877 -0.374687
  H 1.290864 1.292759 -0.435462
  C 3.105051 0.516754 -1.220817
  C 4.271895 -0.278211 -1.002049
  C 4.921672 -1.086205 -1.919180
  C 4.357414 -1.618298 -3.187193
  C 3.067715 -1.022463 -3.716319
  H 2.751581 -1.588487 -4.589390
  O 6.100429 -1.602638 -1.643367
  H 1.469984 -0.196535 1.548170
  H 2.844123 -1.059078 0.699417
  H 1.204165 -1.320216 0.223516
  H 3.109856 1.178772 -2.078402
  H 4.814693 -0.045532 -0.090474
  H 4.233010 -2.697764 -3.039995
  H 5.143625 -1.535224 -3.945491
  H 3.204153 0.008758 -4.024486
  H 2.271184 -1.069182 -2.976974
  H 6.511354 -1.284671 -0.816571
 20
 17.409523
  C 1.948677 -0.618295 0.428123
  C 2.030161 0.550352 -0.465929
  H 1.252326 1.298304 -0.458475
  C 3.118418 0.633201 -1.257795
  C 4.262457 -0.208367 -0.972841
  C 4.925893 -1.040017 -1.865820
  C 4.364219 -1.611340 -3.114544
  C 3.013819 -1.111003 -3.591886
  H 2.706423 -1.696586 -4.453280
  O 6.108442 -1.534913 -1.572462
  H 1.562863 -0.392117 1.411990
  H 2.975741 -1.021453 0.368972
  H 1.388300 -1.450098 -0.009017
  H 3.220036 1.386307 -2.026370
  H 4.852977 0.145736 -0.132607
  H 4.333763 -2.698577 -2.975126
  H 5.113727 -1.457280 -3.901013
  H 3.061869 -0.072296 -3.899605
  H 2.250520 -1.216028 -2.826067
  H 6.477739 -1.256901 -0.714647
 20
 30.344450
  C 2.030025 -0.651071 0.306147
  C 2.005876 0.567388 -0.505664
  H 1.211714 1.290118 -0.410408
  C 3.084678 0.715671 -1.286592
  C 4.188193 -0.193954 -0.911610
  C 4.879899 -1.043278 -1.789384
  C 4.340993 -1.637979 -3.037240
  C 3.008472 -1.126934 -3.557433
  H 2.721479 -1.716877 -4.423638
  O 6.075005 -1.497591 -1.485113
  H 1.663344 -0.572587 1.319537
  H 3.226689 -0.882602 0.061276
  H 1.729844 -1.576199 -0.183233
  H 3.228562 1.485844 -2.024624
  H 4.827946 0.265719 -0.159845
  H 4.280347 -2.719402 -2.866060
  H 5.110325 -1.524767 -3.806949
  H 3.076531 -0.091415 -3.873827
  H 2.220749 -1.218679 -2.816395
  H 6.460061 -1.155936 -0.656579
 20
 36.598862
  C 1.946408 -0.627296 0.274103
  C 1.999348 0.570412 -0.519834
  H 1.214356 1.308409 -0.450185
  C 3.105301 0.722294 -1.265575
  C 4.193555 -0.221674 -0.860083
  C 4.899858 -1.051696 -1.783486
  C 4.349619 -1.628012 -3.032729
  C 2.989378 -1.144660 -3.510926
  H 2.699595 -1.722863 -4.384327
  O 6.105236 -1.474089 -1.514558
  H 1.536926 -0.569271 1.271604
  H 3.473125 -0.847815 -0.084618
  H 1.778364 -1.577286 -0.213933
  H 3.276398 1.499059 -1.988403
  H 4.857365 0.267052 -0.141372
  H 4.322206 -2.714522 -2.884981
  H 5.097836 -1.476247 -3.817491
  H 3.018865 -0.100575 -3.804155
  H 2.222802 -1.278011 -2.755320
  H 6.502574 -1.141897 -0.686256
 20
 33.056857
  C 1.759269 -0.582401 0.252588
  C 2.009522 0.563781 -0.527948
  H 1.280793 1.364870 -0.523624
  C 3.169501 0.681254 -1.215155
  C 4.249521 -0.277426 -0.818046
  C 4.957239 -1.054142 -1.815714
  C 4.372806 -1.599071 -3.058170
  C 2.961101 -1.183544 -3.438651
  H 2.659414 -1.737367 -4.323870
  O 6.186271 -1.411346 -1.622682
  H 1.200508 -0.485929 1.169586
  H 3.654861 -0.933862 -0.110562
  H 1.742079 -1.566965 -0.184263
  H 3.378509 1.474126 -1.911404
  H 4.941439 0.229388 -0.136166
  H 4.417283 -2.691112 -2.960486
  H 5.066340 -1.370551 -3.874523
  H 2.906445 -0.126967 -3.677960
  H 2.248950 -1.404215 -2.650710
  H 6.608143 -1.096323 -0.797924
 20
 28.533316
  C 1.620463 -0.505870 0.241404
  C 2.026828 0.584853 -0.493059
  H 1.430788 1.487960 -0.450454
  C 3.212404 0.624424 -1.192847
  C 4.263551 -0.361984 -0.818027
  C 5.009716 -1.046043 -1.857797
  C 4.425425 -1.547783 -3.116312
  C 2.958748 -1.255454 -3.391245
  H 2.659399 -1.775782 -4.297682
  O 6.265207 -1.298053 -1.715321
  H 0.888472 -0.393599 1.021859
  H 3.751023 -1.030803 -0.101465
  H 1.784946 -1.517848 -0.090070
  H 3.430649 1.400259 -1.903230
  H 4.965231 0.154086 -0.143914
  H 4.557709 -2.634919 -3.072523
  H 5.056752 -1.234842 -3.949332
  H 2.782103 -0.200741 -3.548350
  H 2.324188 -1.602828 -2.583280
  H 6.674876 -1.031204 -0.866083
