 31
 0.000000
  C 0.958596 0.143622 0.416573
  C 2.433435 0.138051 0.400119
  C 3.225421 0.603967 1.559578
  C 2.462662 1.101479 2.783899
  C 3.428438 1.541633 3.879788
  C 3.039963 -0.328366 -0.762312
  C 4.423002 -0.415042 -0.979335
  C 5.092946 -0.860732 -2.092494
  C 4.617896 -1.379807 -3.389408
  C 3.133381 -1.505906 -3.705585
  C 2.933226 -2.068522 -5.111370
  H 6.173333 -0.850310 -2.066335
  H 0.538187 0.508773 1.346396
  H 0.583568 -0.866765 0.247670
  H 0.569857 0.763128 -0.393961
  H 3.885549 1.410061 1.219582
  H 3.880234 -0.215675 1.876793
  H 1.823550 0.309973 3.179663
  H 1.828665 1.948933 2.516609
  H 4.061509 0.716101 4.197423
  H 2.876492 1.894293 4.747515
  H 4.066679 2.352432 3.535640
  H 2.376281 -0.644382 -1.549486
  H 5.045346 -0.085177 -0.156454
  H 5.083569 -2.366225 -3.511722
  H 5.084152 -0.750614 -4.158570
  H 2.652180 -0.527915 -3.658106
  H 2.651690 -2.180806 -2.996552
  H 3.379372 -1.418286 -5.860396
  H 1.872168 -2.156345 -5.331604
  H 3.378922 -3.056223 -5.204813
 31
 5.600676
  C 0.955053 0.120567 0.497691
  C 2.381732 0.145767 0.430626
  C 3.198916 0.609404 1.577379
  C 2.455747 1.124550 2.805785
  C 3.443038 1.551976 3.886144
  C 3.005981 -0.327564 -0.763243
  C 4.383054 -0.406378 -0.973003
  C 5.061205 -0.857091 -2.105066
  C 4.610840 -1.381209 -3.410782
  C 3.132947 -1.522209 -3.752708
  C 2.964407 -2.086911 -5.161514
  H 6.144449 -0.829309 -2.044718
  H 0.507825 0.505341 1.409757
  H 0.522341 -0.863337 0.280301
  H 0.789453 0.752836 -0.340056
  H 3.875089 1.398221 1.231562
  H 3.843532 -0.219775 1.888802
  H 1.808618 0.346099 3.214026
  H 1.835229 1.982692 2.540761
  H 4.064865 0.716265 4.198982
  H 2.911230 1.919432 4.760057
  H 4.091719 2.348614 3.528843
  H 2.344562 -0.643049 -1.546939
  H 5.013492 -0.077656 -0.153906
  H 5.094148 -2.360796 -3.530386
  H 5.089679 -0.752723 -4.174435
  H 2.642810 -0.548129 -3.713058
  H 2.647194 -2.201717 -3.050540
  H 3.418833 -1.432254 -5.901746
  H 1.909501 -2.187210 -5.404996
  H 3.423176 -3.069444 -5.246027
 31
 12.813418
  C 0.924970 0.060291 0.506237
  C 2.348864 0.126942 0.439802
  C 3.190229 0.599695 1.569651
  C 2.470666 1.131143 2.795404
  C 3.474953 1.548593 3.862458
  C 2.974508 -0.325627 -0.755611
  C 4.356123 -0.386931 -0.967952
  C 5.024991 -0.822389 -2.081996
  C 4.594162 -1.355085 -3.381843
  C 3.123923 -1.522688 -3.737661
  C 2.981213 -2.097254 -5.144061
  H 6.102834 -0.774375 -2.011012
  H 0.444326 0.420580 1.400519
  H 0.449955 -0.831590 0.114807
  H 1.018569 0.796532 -0.295566
  H 3.895509 1.363173 1.223472
  H 3.803247 -0.253338 1.877205
  H 1.817578 0.366508 3.213642
  H 1.866855 1.997302 2.528120
  H 4.085357 0.703721 4.174017
  H 2.959567 1.931381 4.739418
  H 4.134563 2.330914 3.492755
  H 2.316802 -0.652926 -1.546736
  H 4.988702 -0.058783 -0.157457
  H 5.096961 -2.324235 -3.496676
  H 5.071354 -0.725368 -4.144108
  H 2.618836 -0.556736 -3.708832
  H 2.644582 -2.206726 -3.036720
  H 3.434338 -1.438804 -5.881916
  H 1.932061 -2.217743 -5.400624
  H 3.459279 -3.071605 -5.217373
 31
 20.912084
  C 0.923229 0.038161 0.545859
  C 2.351964 0.122648 0.423858
  C 3.181379 0.596502 1.549556
  C 2.451909 1.122861 2.778216
  C 3.452998 1.547708 3.844583
  C 2.987839 -0.328378 -0.773057
  C 4.375680 -0.386934 -0.979714
  C 5.046800 -0.819339 -2.088726
  C 4.606489 -1.355051 -3.387602
  C 3.128862 -1.517521 -3.724408
  C 2.965585 -2.097254 -5.127914
  H 6.128287 -0.772513 -2.025974
  H 0.452671 0.385384 1.453476
  H 0.407724 -0.777280 0.079630
  H 1.189221 0.841420 -0.185449
  H 3.882798 1.363481 1.210222
  H 3.791804 -0.261267 1.850466
  H 1.806860 0.351157 3.198980
  H 1.839969 1.986773 2.512860
  H 4.069732 0.709736 4.153823
  H 2.935358 1.924444 4.720733
  H 4.104543 2.333916 3.476537
  H 2.350394 -0.660587 -1.568005
  H 5.002592 -0.056710 -0.163677
  H 5.105375 -2.329754 -3.506462
  H 5.078183 -0.726898 -4.159582
  H 2.628425 -0.548662 -3.693359
  H 2.655496 -2.197779 -3.014492
  H 3.412442 -1.443990 -5.873838
  H 1.912182 -2.214078 -5.370754
  H 3.438558 -3.073633 -5.203634
 31
 26.270011
  C 0.908064 0.009613 0.564311
  C 2.330309 0.119974 0.423051
  C 3.174258 0.599030 1.554538
  C 2.457820 1.126175 2.786674
  C 3.474772 1.561080 3.841207
  C 2.964003 -0.332420 -0.776394
  C 4.343446 -0.388791 -0.976101
  C 5.027014 -0.818416 -2.084184
  C 4.606205 -1.354359 -3.387055
  C 3.132238 -1.525052 -3.742760
  C 2.989471 -2.105297 -5.150102
  H 6.107980 -0.764873 -2.007978
  H 0.436777 0.335806 1.478504
  H 0.366545 -0.733454 0.012197
  H 1.307327 0.874046 -0.079361
  H 3.871218 1.365614 1.208158
  H 3.779376 -0.261174 1.850324
  H 1.821118 0.350594 3.221014
  H 1.838371 1.987366 2.526622
  H 4.102151 0.723385 4.146161
  H 2.966335 1.939713 4.725701
  H 4.120613 2.352404 3.459635
  H 2.312087 -0.667432 -1.573564
  H 4.967153 -0.058111 -0.157700
  H 5.109099 -2.324009 -3.499488
  H 5.081068 -0.723613 -4.150107
  H 2.625864 -0.557165 -3.717282
  H 2.653934 -2.209593 -3.038274
  H 3.443300 -1.447843 -5.890760
  H 1.939445 -2.228003 -5.406910
  H 3.469880 -3.080288 -5.220238
 31
 30.581394
  C 0.932575 -0.024368 0.564881
  C 2.349263 0.110215 0.409244
  C 3.192808 0.595826 1.545520
  C 2.450413 1.120489 2.770634
  C 3.437777 1.573200 3.821283
  C 2.980431 -0.338605 -0.783770
  C 4.357818 -0.399300 -0.980537
  C 5.042457 -0.829765 -2.090762
  C 4.609719 -1.359191 -3.391161
  C 3.134155 -1.512535 -3.724627
  C 2.965225 -2.084758 -5.121844
  H 6.126064 -0.782357 -2.015869
  H 0.459464 0.278945 1.480368
  H 0.383584 -0.699739 -0.045104
  H 1.436634 0.878747 -0.013109
  H 3.880671 1.365240 1.199913
  H 3.809997 -0.260194 1.855057
  H 1.825400 0.339190 3.201503
  H 1.823551 1.965172 2.502043
  H 4.071876 0.751997 4.134992
  H 2.916831 1.944993 4.691785
  H 4.070512 2.369193 3.443272
  H 2.331833 -0.665120 -1.569234
  H 4.980146 -0.073683 -0.161463
  H 5.097358 -2.325639 -3.509802
  H 5.077835 -0.736168 -4.151882
  H 2.640687 -0.541841 -3.689342
  H 2.660787 -2.190373 -3.016399
  H 3.414136 -1.433037 -5.865030
  H 1.914634 -2.194771 -5.362261
  H 3.432231 -3.061425 -5.200139
 31
 33.354091
  C 0.940342 -0.052403 0.570459
  C 2.349876 0.119781 0.416226
  C 3.196633 0.602253 1.554893
  C 2.445669 1.122408 2.778796
  C 3.436543 1.593630 3.846335
  C 2.987848 -0.337101 -0.789864
  C 4.367059 -0.400559 -0.981229
  C 5.053098 -0.833723 -2.088778
  C 4.617804 -1.366305 -3.399653
  C 3.131745 -1.512944 -3.732992
  C 2.954303 -2.090725 -5.143444
  H 6.128691 -0.790285 -2.010951
  H 0.453887 0.213945 1.484279
  H 0.379061 -0.674478 -0.118086
  H 1.518489 0.901713 0.046492
  H 3.880386 1.379472 1.206657
  H 3.813390 -0.242523 1.863691
  H 1.830380 0.337842 3.206469
  H 1.806568 1.962165 2.506232
  H 4.083839 0.775743 4.165395
  H 2.902391 1.965733 4.727111
  H 4.065005 2.399940 3.468167
  H 2.329645 -0.666780 -1.583756
  H 4.988120 -0.075866 -0.159954
  H 5.108283 -2.353665 -3.518497
  H 5.096307 -0.733342 -4.174438
  H 2.643041 -0.537190 -3.696262
  H 2.654417 -2.189663 -3.019754
  H 3.408194 -1.438548 -5.892801
  H 1.893182 -2.195954 -5.384388
  H 3.418543 -3.076540 -5.223120
 31
 35.873184
  C 0.928953 -0.072285 0.579589
  C 2.335199 0.132310 0.418595
  C 3.196240 0.606886 1.556173
  C 2.452579 1.122902 2.783038
  C 3.453468 1.600687 3.847701
  C 2.972452 -0.332621 -0.797188
  C 4.346964 -0.399925 -0.989092
  C 5.035349 -0.836655 -2.094254
  C 4.609248 -1.369395 -3.401971
  C 3.141323 -1.516576 -3.745343
  C 2.980404 -2.092702 -5.146951
  H 6.115615 -0.794665 -2.011927
  H 0.431534 0.171176 1.503193
  H 0.369436 -0.633966 -0.148166
  H 1.567464 0.920379 0.089696
  H 3.873850 1.384570 1.203664
  H 3.817297 -0.237939 1.861512
  H 1.834941 0.322760 3.220124
  H 1.802695 1.964989 2.512350
  H 4.110440 0.782090 4.163812
  H 2.927591 1.967857 4.727423
  H 4.079682 2.415609 3.463292
  H 2.310784 -0.658124 -1.582335
  H 4.966821 -0.075821 -0.170784
  H 5.089755 -2.336957 -3.513242
  H 5.082443 -0.750834 -4.158383
  H 2.652197 -0.541963 -3.714813
  H 2.660003 -2.191421 -3.037562
  H 3.438322 -1.444833 -5.887733
  H 1.931474 -2.198726 -5.395933
  H 3.443747 -3.071101 -5.219568
 31
 38.509248
  C 0.928820 -0.097801 0.569147
  C 2.333369 0.143633 0.408689
  C 3.201263 0.612836 1.563512
  C 2.459709 1.122424 2.784021
  C 3.448375 1.598898 3.838056
  C 2.978952 -0.325124 -0.802992
  C 4.352860 -0.391552 -0.985134
  C 5.046253 -0.831814 -2.085809
  C 4.617827 -1.367669 -3.394270
  C 3.137510 -1.510960 -3.734650
  C 2.967230 -2.094246 -5.145828
  H 6.140305 -0.791508 -2.000093
  H 0.412856 0.135943 1.503390
  H 0.376213 -0.622070 -0.190905
  H 1.621853 0.936863 0.099379
  H 3.878989 1.398175 1.212934
  H 3.827459 -0.238233 1.872728
  H 1.852655 0.328315 3.215978
  H 1.814115 1.952189 2.517566
  H 4.102068 0.790364 4.149991
  H 2.925414 1.959960 4.710734
  H 4.064757 2.409334 3.456914
  H 2.323976 -0.649068 -1.587473
  H 4.965793 -0.066362 -0.167944
  H 5.101094 -2.349143 -3.504846
  H 5.097756 -0.744799 -4.162114
  H 2.650576 -0.529310 -3.703726
  H 2.654146 -2.185990 -3.019077
  H 3.427409 -1.446318 -5.895050
  H 1.910952 -2.197489 -5.392562
  H 3.428801 -3.080674 -5.219064
 31
 40.667127
  C 0.932695 -0.110479 0.585642
  C 2.335192 0.163958 0.411128
  C 3.208981 0.616082 1.562591
  C 2.460071 1.125238 2.795385
  C 3.447626 1.598892 3.853207
  C 2.979567 -0.315601 -0.813636
  C 4.351258 -0.383784 -0.999064
  C 5.042417 -0.830655 -2.098601
  C 4.617968 -1.372301 -3.404587
  C 3.139994 -1.517732 -3.750725
  C 2.978111 -2.102118 -5.147288
  H 6.118332 -0.792229 -2.012744
  H 0.429295 0.114911 1.500553
  H 0.374454 -0.602139 -0.188095
  H 1.670531 0.970212 0.115546
  H 3.879540 1.392362 1.217874
  H 3.825715 -0.228263 1.860466
  H 1.851152 0.326430 3.226908
  H 1.806820 1.963664 2.530984
  H 4.105315 0.785719 4.162685
  H 2.915866 1.960755 4.739312
  H 4.064685 2.413221 3.473926
  H 2.317581 -0.638583 -1.592275
  H 4.975425 -0.051200 -0.171706
  H 5.101359 -2.353593 -3.508141
  H 5.100697 -0.752852 -4.173071
  H 2.654440 -0.542776 -3.727569
  H 2.655741 -2.185913 -3.039802
  H 3.439461 -1.460190 -5.892392
  H 1.925222 -2.206498 -5.397466
  H 3.438871 -3.084001 -5.212766
 31
 41.951582
  C 0.940663 -0.124998 0.588228
  C 2.336663 0.185484 0.407808
  C 3.215281 0.620439 1.567489
  C 2.459798 1.125296 2.802197
  C 3.444769 1.594624 3.870163
  C 2.986247 -0.304251 -0.823855
  C 4.354081 -0.370765 -1.009280
  C 5.045968 -0.825076 -2.109854
  C 4.620059 -1.372312 -3.406968
  C 3.145092 -1.518512 -3.748014
  C 2.978399 -2.114177 -5.148953
  H 6.127547 -0.786553 -2.024797
  H 0.429774 0.100099 1.507532
  H 0.374591 -0.594746 -0.207371
  H 1.718972 1.006593 0.113206
  H 3.895165 1.401697 1.227580
  H 3.826778 -0.228110 1.860778
  H 1.850231 0.327156 3.226268
  H 1.805354 1.966991 2.538779
  H 4.096152 0.787209 4.175952
  H 2.915568 1.947938 4.745878
  H 4.059387 2.404573 3.501346
  H 2.321647 -0.628625 -1.598132
  H 4.971384 -0.036359 -0.193890
  H 5.102443 -2.353278 -3.505782
  H 5.101128 -0.758564 -4.178904
  H 2.658894 -0.540820 -3.728861
  H 2.660612 -2.184153 -3.029688
  H 3.440837 -1.473480 -5.903114
  H 1.919694 -2.219717 -5.397128
  H 3.440718 -3.101933 -5.210529
 31
 42.899590
  C 0.940786 -0.136127 0.587679
  C 2.326558 0.216402 0.395715
  C 3.212778 0.621786 1.566451
  C 2.465500 1.121914 2.801625
  C 3.453134 1.575496 3.867319
  C 2.981434 -0.285194 -0.832965
  C 4.348648 -0.344077 -1.014598
  C 5.043199 -0.805187 -2.107949
  C 4.620841 -1.367872 -3.403088
  C 3.145250 -1.523567 -3.747096
  C 2.985243 -2.130917 -5.138592
  H 6.127271 -0.762557 -2.019864
  H 0.427429 0.092619 1.503432
  H 0.374403 -0.586220 -0.211750
  H 1.762884 1.063036 0.094852
  H 3.900573 1.398481 1.237700
  H 3.815697 -0.245140 1.853453
  H 1.847002 0.321379 3.223268
  H 1.821521 1.963379 2.546377
  H 4.102829 0.755749 4.167590
  H 2.924760 1.928123 4.751142
  H 4.076216 2.388725 3.500290
  H 2.314826 -0.615625 -1.608383
  H 4.970031 0.005896 -0.191817
  H 5.108751 -2.349680 -3.491786
  H 5.102832 -0.758299 -4.181459
  H 2.654955 -0.548147 -3.738121
  H 2.662447 -2.183652 -3.025084
  H 3.445004 -1.497687 -5.894681
  H 1.931835 -2.242713 -5.387461
  H 3.449742 -3.113437 -5.189735
 31
 43.507418
  C 0.954714 -0.163697 0.579802
  C 2.336170 0.225738 0.383695
  C 3.222590 0.620214 1.567633
  C 2.463836 1.124011 2.800968
  C 3.447516 1.575637 3.881996
  C 2.991100 -0.277211 -0.837650
  C 4.357011 -0.336467 -1.021047
  C 5.049846 -0.803873 -2.119259
  C 4.625469 -1.366076 -3.401114
  C 3.142414 -1.521472 -3.742473
  C 2.978274 -2.133324 -5.131492
  H 6.125761 -0.763190 -2.034283
  H 0.434557 0.064770 1.495870
  H 0.392444 -0.611110 -0.226275
  H 1.822934 1.085986 0.072155
  H 3.919281 1.395867 1.248300
  H 3.812594 -0.247348 1.855042
  H 1.846474 0.336216 3.210825
  H 1.821679 1.970686 2.538183
  H 4.092730 0.752574 4.188115
  H 2.908665 1.931907 4.767719
  H 4.077169 2.387450 3.521393
  H 2.334183 -0.602122 -1.599467
  H 4.977377 0.012843 -0.205269
  H 5.112133 -2.345072 -3.487618
  H 5.106783 -0.762338 -4.179496
  H 2.651655 -0.543269 -3.736095
  H 2.657972 -2.181281 -3.014692
  H 3.437337 -1.502553 -5.891913
  H 1.924509 -2.244442 -5.377248
  H 3.441691 -3.118205 -5.180502
 31
 43.882550
  C 0.959043 -0.175685 0.591177
  C 2.333237 0.251001 0.385115
  C 3.219954 0.621575 1.571848
  C 2.468844 1.126347 2.802796
  C 3.452544 1.565001 3.878513
  C 2.994520 -0.262005 -0.840408
  C 4.358383 -0.315158 -1.019223
  C 5.051797 -0.787517 -2.110349
  C 4.622016 -1.366604 -3.405142
  C 3.146639 -1.524029 -3.745097
  C 2.984197 -2.142933 -5.124241
  H 6.143749 -0.745556 -2.020777
  H 0.436036 0.049760 1.505346
  H 0.398930 -0.620904 -0.215554
  H 1.870046 1.129349 0.064521
  H 3.922603 1.387699 1.260230
  H 3.799161 -0.257625 1.854617
  H 1.838497 0.334125 3.216076
  H 1.834128 1.977341 2.542982
  H 4.087579 0.740525 4.179498
  H 2.924143 1.918132 4.754225
  H 4.085299 2.369249 3.521343
  H 2.318872 -0.600668 -1.624872
  H 4.974909 0.037558 -0.204059
  H 5.111011 -2.350961 -3.486442
  H 5.106021 -0.766049 -4.192506
  H 2.659837 -0.554814 -3.745755
  H 2.666476 -2.172291 -3.020230
  H 3.441818 -1.519551 -5.885674
  H 1.931424 -2.255763 -5.369428
  H 3.446079 -3.124302 -5.165814
