 23
 0.000000
  C 1.010210 0.110764 0.325212
  C 2.484848 0.125401 0.364527
  C 3.233515 0.602804 1.552995
  C 2.413125 1.081586 2.743330
  H 3.082720 1.399497 3.535728
  C 3.148392 -0.330851 -0.769780
  C 4.531493 -0.396012 -0.932648
  C 5.187502 -0.851557 -2.070764
  C 4.536184 -1.346242 -3.302056
  H 3.455768 -1.327917 -3.253436
  O 6.497061 -0.872223 -2.127761
  H 0.554138 0.477039 1.235504
  H 0.655005 -0.903425 0.133818
  H 0.656425 0.711114 -0.514909
  H 3.894470 1.417198 1.235535
  H 3.893706 -0.205236 1.887684
  H 1.785045 0.287914 3.138993
  H 1.786166 1.929123 2.479655
  H 2.518702 -0.657774 -1.584092
  H 5.155562 -0.066997 -0.112678
  H 4.878388 -2.362938 -3.499979
  H 4.876739 -0.747754 -4.148117
  H 6.949725 -0.549466 -1.327664
 23
 1.595306
  C 1.031584 0.279219 0.228023
  C 2.504113 0.218319 0.320491
  C 3.235728 0.487131 1.581501
  C 2.411085 0.948038 2.774168
  H 3.074094 1.139317 3.616680
  C 3.171902 -0.166744 -0.835627
  C 4.549078 -0.145930 -1.053608
  C 5.203012 -0.770962 -2.108665
  C 4.542975 -1.590590 -3.147812
  H 3.472657 -1.651582 -3.018015
  O 6.505878 -0.687452 -2.245851
  H 0.562324 0.355826 1.199388
  H 0.633178 -0.612380 -0.257844
  H 0.729373 1.139838 -0.371776
  H 4.005683 1.239902 1.374138
  H 3.783401 -0.422520 1.855653
  H 1.697583 0.188368 3.085700
  H 1.876309 1.868081 2.552050
  H 2.485504 -0.500821 -1.599750
  H 5.157037 0.428948 -0.363961
  H 4.971885 -2.593124 -3.138610
  H 4.774675 -1.174059 -4.128203
  H 6.959322 -0.147603 -1.570769
 23
 3.047899
  C 1.013633 0.377073 0.213310
  C 2.485783 0.288205 0.249096
  C 3.237003 0.398661 1.521186
  C 2.440522 0.805153 2.753860
  H 3.115690 0.915539 3.599940
  C 3.144391 0.003324 -0.935456
  C 4.534009 0.013005 -1.133217
  C 5.201740 -0.732109 -2.091768
  C 4.561687 -1.771578 -2.927543
  H 3.501921 -1.858589 -2.740330
  O 6.497567 -0.618118 -2.276086
  H 0.564679 0.208973 1.185616
  H 0.591083 -0.330282 -0.498661
  H 0.723196 1.378306 -0.117300
  H 4.054956 1.110363 1.375795
  H 3.721566 -0.565425 1.712626
  H 1.701149 0.052592 3.025092
  H 1.932633 1.754358 2.598096
  H 2.500914 -0.162764 -1.786808
  H 5.127685 0.654558 -0.495221
  H 5.043211 -2.730320 -2.738419
  H 4.741198 -1.546512 -3.978790
  H 6.932437 0.064949 -1.736044
 23
 9.345678
  C 1.025162 0.483622 0.145529
  C 2.485662 0.283016 0.215484
  C 3.215934 0.218942 1.505290
  C 2.458515 0.706450 2.730163
  H 3.119087 0.706426 3.589656
  C 3.147103 0.103894 -0.977029
  C 4.539350 0.156677 -1.208509
  C 5.207346 -0.678720 -2.084751
  C 4.579377 -1.873122 -2.690787
  H 3.566333 -2.011831 -2.347937
  O 6.481845 -0.528158 -2.369997
  H 0.537562 0.225490 1.073620
  H 0.568715 -0.129176 -0.622371
  H 0.803854 1.532083 -0.054207
  H 4.138909 0.804683 1.388533
  H 3.540397 -0.811165 1.668849
  H 1.611830 0.064131 2.966109
  H 2.093115 1.720568 2.584524
  H 2.442594 0.052412 -1.796831
  H 5.085881 0.978605 -0.760826
  H 5.170609 -2.757613 -2.450115
  H 4.600020 -1.778570 -3.776424
  H 6.916208 0.224295 -1.925897
 23
 21.899549
  C 1.070293 0.580081 0.078473
  C 2.549490 0.449173 0.162427
  C 3.275827 0.240567 1.443755
  C 2.450842 0.424129 2.709993
  H 3.106359 0.343181 3.576114
  C 3.180961 0.363554 -1.047576
  C 4.546204 0.394347 -1.422702
  C 5.193803 -0.659555 -2.030454
  C 4.515363 -1.928334 -2.376402
  H 3.454719 -1.886529 -2.161183
  O 6.469345 -0.613535 -2.352501
  H 0.619667 0.212477 0.981957
  H 0.625173 -0.057104 -0.675582
  H 0.767534 1.618858 -0.024031
  H 4.135843 0.918936 1.454545
  H 3.670219 -0.779214 1.439424
  H 1.680381 -0.332968 2.811791
  H 1.996811 1.414412 2.743362
  H 2.326633 0.324466 -1.735214
  H 5.083204 1.327218 -1.266131
  H 4.966463 -2.746855 -1.819416
  H 4.680824 -2.150791 -3.429944
  H 6.909872 0.222672 -2.139945
 23
 38.435442
  C 1.176741 0.694031 -0.007949
  C 2.631377 0.465413 0.226946
  C 3.202543 0.226488 1.583348
  C 2.247165 0.392283 2.748739
  H 2.804690 0.198790 3.666963
  C 3.348868 0.365527 -0.922546
  C 4.674966 0.354091 -1.398497
  C 5.231938 -0.710186 -2.103195
  C 4.541877 -2.015606 -2.270574
  H 3.637647 -2.067158 -1.669995
  O 6.400740 -0.621744 -2.714251
  H 0.595601 0.361510 0.812599
  H 0.752118 0.106195 -0.818998
  H 0.981535 1.755069 -0.171062
  H 4.082767 0.851026 1.711799
  H 3.599384 -0.793964 1.609080
  H 1.473539 -0.369620 2.742673
  H 1.826086 1.393549 2.808191
  H 2.408111 0.355471 -1.496163
  H 5.219595 1.290208 -1.354451
  H 5.216044 -2.830911 -2.009887
  H 4.280518 -2.146974 -3.324443
  H 6.821341 0.272328 -2.654898
 23
 66.300734
  C 1.278181 0.717770 -0.065203
  C 2.725239 0.413299 0.271937
  C 3.199339 0.130837 1.676641
  C 2.172320 0.445755 2.756491
  H 2.626483 0.315432 3.736160
  C 3.484456 0.337637 -0.819650
  C 4.730081 0.339799 -1.441940
  C 5.222538 -0.707686 -2.195279
  C 4.544762 -2.023249 -2.300450
  H 3.624801 -2.036233 -1.726321
  O 6.375526 -0.637646 -2.844383
  H 0.678629 0.365673 0.750950
  H 0.777625 0.075710 -0.808657
  H 1.080644 1.782644 -0.156546
  H 4.102035 0.721101 1.849975
  H 3.479334 -0.923686 1.743467
  H 1.314382 -0.220726 2.704915
  H 1.829654 1.474686 2.683799
  H 2.233388 0.501734 -1.317469
  H 5.290068 1.270505 -1.418586
  H 5.210867 -2.803116 -1.938222
  H 4.338394 -2.249245 -3.345516
  H 6.792811 0.239446 -2.791158
 23
 78.748489
  C 1.341972 0.748684 -0.115634
  C 2.793813 0.422504 0.274719
  C 3.201866 0.133748 1.704150
  C 2.127093 0.456225 2.736416
  H 2.534222 0.308048 3.734157
  C 3.582793 0.340167 -0.770518
  C 4.782374 0.315038 -1.424850
  C 5.233512 -0.735853 -2.192278
  C 4.544522 -2.052437 -2.271873
  H 3.665460 -2.067896 -1.638472
  O 6.372669 -0.671737 -2.910805
  H 0.689750 0.407512 0.706369
  H 0.791964 0.097796 -0.858942
  H 1.156470 1.826056 -0.171300
  H 4.099765 0.716474 1.925536
  H 3.483200 -0.919676 1.788276
  H 1.267553 -0.202908 2.646176
  H 1.808044 1.492211 2.665177
  H 1.919683 0.596569 -1.247507
  H 5.350292 1.240268 -1.435482
  H 5.229416 -2.840043 -1.959395
  H 4.267913 -2.265909 -3.303490
  H 6.799716 0.196372 -2.847272
 23
 76.174791
  C 1.333472 0.766761 -0.106961
  C 2.797913 0.430160 0.248779
  C 3.194333 0.130483 1.683113
  C 2.120534 0.453545 2.716690
  H 2.528312 0.297061 3.713303
  C 3.616537 0.342608 -0.769995
  C 4.806837 0.306030 -1.418791
  C 5.255573 -0.746833 -2.183537
  C 4.564015 -2.063872 -2.266300
  H 3.682084 -2.074226 -1.637082
  O 6.404740 -0.685695 -2.901114
  H 0.709477 0.421220 0.735807
  H 0.711659 0.082220 -0.788863
  H 1.139986 1.847789 -0.119928
  H 4.094731 0.705513 1.911633
  H 3.468782 -0.924689 1.762578
  H 1.256898 -0.201663 2.626091
  H 1.808250 1.492910 2.653158
  H 1.675128 0.682733 -1.235568
  H 5.382777 1.226743 -1.429085
  H 5.244336 -2.853860 -1.948272
  H 4.290802 -2.278920 -3.299206
  H 6.826353 0.183066 -2.834464
 23
 72.079977
  C 1.352803 0.753675 -0.123626
  C 2.815110 0.436259 0.224529
  C 3.190101 0.137667 1.670158
  C 2.102276 0.444310 2.695095
  H 2.503695 0.278941 3.693069
  C 3.675910 0.357794 -0.747915
  C 4.843369 0.317134 -1.430030
  C 5.277437 -0.745124 -2.197894
  C 4.584363 -2.062505 -2.259930
  H 3.725434 -2.071743 -1.599542
  O 6.414422 -0.686608 -2.943199
  H 0.735480 0.457139 0.754355
  H 0.741927 -0.061402 -0.643674
  H 1.120553 1.832738 -0.080894
  H 4.081536 0.719736 1.914343
  H 3.475722 -0.914485 1.750769
  H 1.244198 -0.217454 2.595174
  H 1.787202 1.483487 2.644951
  H 1.487239 0.809849 -1.254008
  H 5.422831 1.235642 -1.457958
  H 5.274299 -2.854254 -1.967596
  H 4.272264 -2.275472 -3.282456
  H 6.838769 0.181500 -2.878970
 23
 69.880992
  C 1.362057 0.798484 -0.151430
  C 2.815413 0.428826 0.181290
  C 3.147931 0.071939 1.627206
  C 2.074041 0.415667 2.656926
  H 2.463882 0.201419 3.646897
  C 3.729614 0.380196 -0.741371
  C 4.852328 0.348941 -1.483834
  C 5.300644 -0.742958 -2.206818
  C 4.654682 -2.084523 -2.172267
  H 3.830035 -2.088216 -1.469387
  O 6.404993 -0.682406 -3.002157
  H 0.760948 0.552467 0.766557
  H 0.750028 -0.085961 -0.510503
  H 1.149939 1.874155 0.036923
  H 4.072358 0.587580 1.897904
  H 3.367351 -0.998895 1.680498
  H 1.182396 -0.193185 2.546507
  H 1.823485 1.469677 2.640388
  H 1.344810 1.014637 -1.251817
  H 5.403592 1.280383 -1.573792
  H 5.385289 -2.837954 -1.878869
  H 4.297040 -2.357957 -3.165426
  H 6.794085 0.204507 -2.998671
 23
 69.392345
  C 1.356205 0.756884 -0.164512
  C 2.806741 0.393809 0.181371
  C 3.119190 0.015771 1.626922
  C 2.090954 0.467366 2.663080
  H 2.472019 0.232542 3.655095
  C 3.731057 0.370582 -0.729542
  C 4.845603 0.358516 -1.485519
  C 5.307705 -0.728035 -2.205501
  C 4.678153 -2.077769 -2.168154
  H 3.879618 -2.101283 -1.435520
  O 6.405382 -0.651319 -3.011182
  H 0.732358 0.562477 0.751520
  H 0.773064 -0.139219 -0.521831
  H 1.148886 1.833979 0.044228
  H 4.090278 0.443137 1.885108
  H 3.236337 -1.070420 1.686961
  H 1.144256 -0.060915 2.570209
  H 1.934132 1.542215 2.631041
  H 1.334630 1.039342 -1.247432
  H 5.384001 1.296769 -1.577833
  H 5.427738 -2.826931 -1.913570
  H 4.286142 -2.340729 -3.151304
  H 6.782492 0.240055 -3.008884
