 13
 0.000000
  C 1.007503 -0.070708 0.049249
  C 2.503708 -0.083959 0.023237
  C 3.217181 -0.595127 -0.980273
  C 4.660032 -0.608539 -1.006603
  C 5.371123 -1.118186 -2.007123
  H 6.446173 -1.124105 -2.018740
  H 0.644470 0.394737 0.962987
  H 0.611920 -1.084555 0.006781
  H 0.611921 0.491040 -0.795811
  H 3.007308 0.350416 0.875989
  H 2.706342 -1.028274 -1.830605
  H 5.165280 -0.173913 -0.153362
  H 4.873136 -1.552487 -2.859731
 13
 12.694720
  C 0.882882 -0.061604 0.067122
  C 2.556148 -0.070146 0.050352
  C 3.256996 -0.585217 -0.960818
  C 4.692767 -0.602177 -0.994112
  C 5.430583 -1.148901 -2.067419
  H 6.503259 -1.151691 -2.072897
  H 0.538391 0.404243 0.981648
  H 0.523724 -1.082735 0.015852
  H 0.523722 0.497306 -0.789005
  H 3.033110 0.368402 0.911296
  H 2.743286 -1.017612 -1.809676
  H 5.218553 -0.174347 -0.154212
  H 4.923384 -1.578940 -2.911664
 13
 33.679538
  C 0.770315 -0.056884 0.067668
  C 2.621612 -0.045200 0.069561
  C 3.294433 -0.576352 -0.939942
  C 4.722613 -0.598485 -0.990590
  C 5.451226 -1.179136 -2.094357
  H 6.519384 -1.184979 -2.090733
  H 0.464878 0.410885 0.983122
  H 0.480303 -1.090491 0.020499
  H 0.469785 0.490783 -0.809048
  H 3.035989 0.382130 0.950512
  H 2.767001 -0.986467 -1.790932
  H 5.277530 -0.186359 -0.163835
  H 4.943462 -1.583901 -2.947489
 13
 62.615972
  C 0.597231 -0.058738 0.070499
  C 2.717078 -0.035807 0.094673
  C 3.359482 -0.563463 -0.927534
  C 4.794049 -0.606211 -1.003858
  C 5.484625 -1.186744 -2.121073
  H 6.555741 -1.205800 -2.143293
  H 0.335962 0.422075 0.999290
  H 0.374266 -1.106833 0.016487
  H 0.363934 0.503507 -0.814835
  H 3.094847 0.401784 0.991420
  H 2.819909 -0.977462 -1.769482
  H 5.379133 -0.200576 -0.192355
  H 4.926892 -1.593222 -2.940439
 13
 87.982101
  C 0.409272 -0.053628 0.078133
  C 2.815964 -0.030481 0.120075
  C 3.429409 -0.559731 -0.911710
  C 4.870693 -0.619741 -1.027425
  C 5.517128 -1.191991 -2.141315
  H 6.585498 -1.224318 -2.195838
  H 0.208403 0.434136 1.013621
  H 0.249935 -1.112420 0.025922
  H 0.251826 0.515032 -0.815786
  H 3.150081 0.418965 1.027379
  H 2.873060 -0.972487 -1.740352
  H 5.463587 -0.214205 -0.225379
  H 4.945728 -1.600755 -2.953162
 13
 106.764067
  C 0.216785 -0.046133 0.090992
  C 2.908216 -0.027749 0.138237
  C 3.501152 -0.557592 -0.898809
  C 4.946186 -0.630739 -1.050823
  C 5.552531 -1.197168 -2.159636
  H 6.621186 -1.244484 -2.246065
  H 0.078008 0.444606 1.026160
  H 0.111739 -1.110750 0.041348
  H 0.125416 0.526770 -0.807255
  H 3.212610 0.430538 1.052465
  H 2.930781 -0.969131 -1.718334
  H 5.548538 -0.226729 -0.255977
  H 4.965302 -1.606614 -2.964831
 13
 119.075197
  C 0.016924 -0.039146 0.109610
  C 3.003190 -0.022606 0.143495
  C 3.579458 -0.553417 -0.896274
  C 5.027223 -0.651225 -1.075044
  C 5.592926 -1.208187 -2.167773
  H 6.652038 -1.253787 -2.288987
  H -0.069384 0.457138 1.054934
  H -0.045257 -1.101961 0.061553
  H -0.027720 0.538593 -0.794499
  H 3.293152 0.437640 1.060911
  H 2.992747 -0.968241 -1.711786
  H 5.638665 -0.246076 -0.287099
  H 4.990839 -1.606940 -2.969262
 13
 126.419062
  C -0.173124 -0.027677 0.126587
  C 3.077108 -0.015996 0.153572
  C 3.642204 -0.549612 -0.890521
  C 5.085990 -0.662112 -1.093223
  C 5.628883 -1.222147 -2.191610
  H 6.695104 -1.272134 -2.328327
  H -0.205516 0.466355 1.071743
  H -0.179630 -1.094342 0.080441
  H -0.163475 0.545685 -0.773632
  H 3.360079 0.444839 1.070726
  H 3.043954 -0.958613 -1.695566
  H 5.714900 -0.260118 -0.310116
  H 5.015936 -1.612113 -2.987294
 13
 130.930115
  C -0.369654 -0.014592 0.150654
  C 3.149953 -0.018429 0.158980
  C 3.703929 -0.550658 -0.888440
  C 5.150089 -0.668599 -1.114146
  C 5.671752 -1.226686 -2.212930
  H 6.733342 -1.287388 -2.363196
  H -0.352384 0.477978 1.092384
  H -0.335409 -1.084896 0.104836
  H -0.302333 0.562075 -0.752443
  H 3.439509 0.445046 1.076016
  H 3.095058 -0.958135 -1.682405
  H 5.784327 -0.270828 -0.342722
  H 5.050658 -1.621839 -2.999092
 13
 133.156473
  C -0.566074 -0.002017 0.174284
  C 3.226681 -0.021180 0.162097
  C 3.768978 -0.556170 -0.890367
  C 5.210578 -0.672407 -1.138207
  C 5.709866 -1.226898 -2.233621
  H 6.773098 -1.314049 -2.389107
  H -0.518482 0.493665 1.119402
  H -0.511564 -1.068878 0.133945
  H -0.438798 0.565619 -0.722674
  H 3.529808 0.445505 1.071311
  H 3.148095 -0.957450 -1.682875
  H 5.856281 -0.278211 -0.366194
  H 5.079035 -1.622903 -3.013190
 13
 133.894588
  C -0.736951 0.011902 0.203691
  C 3.317703 -0.013498 0.169036
  C 3.844739 -0.551462 -0.889661
  C 5.280419 -0.683983 -1.159170
  C 5.759624 -1.246601 -2.257344
  H 6.817394 -1.318079 -2.442670
  H -0.747181 0.505147 1.151905
  H -0.740426 -1.053675 0.162278
  H -0.604387 0.578971 -0.689953
  H 3.630880 0.446866 1.075814
  H 3.204209 -0.955638 -1.671225
  H 5.941868 -0.292593 -0.399251
  H 5.112523 -1.641041 -3.024721
 13
 134.049876
  C -0.906201 0.021255 0.239487
  C 3.408475 -0.005396 0.177849
  C 3.913595 -0.546536 -0.888228
  C 5.344711 -0.693227 -1.182282
  C 5.799241 -1.257489 -2.290102
  H 6.854530 -1.349868 -2.488404
  H -1.007290 0.519743 1.178062
  H -0.989067 -1.041555 0.194994
  H -0.745868 0.583873 -0.651931
  H 3.725226 0.458331 1.082299
  H 3.260053 -0.946302 -1.657990
  H 6.022050 -0.305278 -0.432801
  H 5.135141 -1.647186 -3.044463
 13
 134.194496
  C -1.094238 0.029142 0.277131
  C 3.481273 0.000944 0.183432
  C 3.966997 -0.541658 -0.890920
  C 5.391827 -0.696102 -1.207054
  C 5.826257 -1.264879 -2.319416
  H 6.877635 -1.378927 -2.523890
  H -1.261623 0.536182 1.201052
  H -1.224247 -1.029736 0.227420
  H -0.855571 0.581997 -0.603600
  H 3.804300 0.466790 1.083683
  H 3.300861 -0.934453 -1.651349
  H 6.083032 -0.318525 -0.464786
  H 5.149106 -1.656724 -3.060721
 13
 134.231135
  C -1.299756 0.040233 0.313259
  C 3.535260 0.008941 0.183988
  C 4.005069 -0.537255 -0.895501
  C 5.426125 -0.705385 -1.225629
  C 5.844130 -1.281963 -2.340342
  H 6.890670 -1.382726 -2.567590
  H -1.516368 0.553647 1.224905
  H -1.446830 -1.015210 0.255483
  H -0.950112 0.578936 -0.538696
  H 3.872148 0.470713 1.081705
  H 3.325748 -0.939562 -1.642830
  H 6.127155 -0.325368 -0.496882
  H 5.155442 -1.672459 -3.073012
