 20
 0.000000
  C -1.073598 0.184448 0.043162
  C -1.805493 -0.984419 0.693334
  C -3.306643 -0.707816 0.751768
  C -1.537725 -2.274973 -0.050785
  O -0.920765 -2.300319 -1.097751
  C -2.061292 -3.541986 0.565701
  H -1.232728 1.099752 0.606864
  H -1.421866 0.346847 -0.974164
  H -0.003926 -0.004875 -0.000612
  H -1.420141 -1.111736 1.711131
  H -3.730700 -0.647273 -0.248298
  H -3.502376 0.230315 1.263038
  H -3.836267 -1.492469 1.286854
  H -2.464865 -3.362951 1.558567
  H -1.249579 -4.259026 0.647861
  H -2.842624 -3.948938 -0.068967
  O 2.966345 0.171475 -0.057180
  H 3.168908 1.119755 0.087577
  H 3.338179 -0.148955 -0.905447
  H 2.004479 0.000203 -0.002556
 20
 1.111792
  C -1.002110 0.183804 0.052737
  C -1.736279 -0.969212 0.698071
  C -3.244751 -0.686746 0.739582
  C -1.472621 -2.263370 -0.054880
  O -0.837156 -2.281101 -1.095528
  C -2.021986 -3.515804 0.561986
  H -1.162629 1.102304 0.610556
  H -1.351371 0.333118 -0.971656
  H 0.058361 -0.020785 0.013233
  H -1.375495 -1.115757 1.731320
  H -3.641610 -0.611879 -0.272606
  H -3.426836 0.256651 1.250027
  H -3.785915 -1.464509 1.261300
  H -2.437403 -3.337213 1.546078
  H -1.226279 -4.253434 0.639497
  H -2.795616 -3.923881 -0.085141
  O 2.724509 0.114085 -0.035342
  H 2.948900 1.083737 0.101536
  H 3.096951 -0.239625 -0.899099
  H 1.756003 -0.028609 0.015416
 20
 2.453425
  C -0.931627 0.193699 0.047531
  C -1.687238 -0.961854 0.700133
  C -3.190107 -0.680334 0.730863
  C -1.439155 -2.258939 -0.050182
  O -0.798578 -2.289680 -1.084525
  C -2.009403 -3.501341 0.560407
  H -1.088439 1.109997 0.602863
  H -1.272530 0.338852 -0.966694
  H 0.126491 -0.029364 0.014128
  H -1.341621 -1.100615 1.723888
  H -3.580868 -0.608873 -0.281245
  H -3.375669 0.263884 1.237177
  H -3.727736 -1.463621 1.254279
  H -2.421897 -3.322727 1.542261
  H -1.227449 -4.254302 0.622714
  H -2.784638 -3.898016 -0.097426
  O 2.550723 0.091346 -0.023183
  H 2.768462 1.038027 0.105670
  H 2.911530 -0.269879 -0.859408
  H 1.572111 -0.042898 0.020811
 20
 3.260070
  C -0.861615 0.116466 0.060182
  C -1.663400 -1.004830 0.708753
  C -3.164255 -0.655773 0.699586
  C -1.459978 -2.313477 -0.033383
  O -0.841161 -2.361398 -1.077609
  C -2.077634 -3.537527 0.584905
  H -0.955464 1.028753 0.637645
  H -1.181772 0.263221 -0.970272
  H 0.183702 -0.192579 0.019613
  H -1.353648 -1.160491 1.747330
  H -3.526582 -0.564446 -0.322822
  H -3.326626 0.288476 1.213837
  H -3.754135 -1.416913 1.203610
  H -2.414186 -3.364404 1.601943
  H -1.368180 -4.361462 0.551670
  H -2.934619 -3.830748 -0.024022
  O 2.528425 0.256252 -0.026247
  H 2.702740 1.216786 0.048357
  H 2.946533 -0.084497 -0.847295
  H 1.553225 0.023036 0.013150
 20
 7.847245
  C -0.808719 0.086022 0.090256
  C -1.614423 -1.026091 0.750134
  C -3.100479 -0.663967 0.695625
  C -1.431681 -2.336921 0.004796
  O -0.788271 -2.395354 -1.026903
  C -2.126861 -3.526335 0.571104
  H -0.890492 1.020472 0.639617
  H -1.134679 0.200971 -0.946780
  H 0.256882 -0.236551 0.032916
  H -1.336133 -1.156176 1.800783
  H -3.437440 -0.598097 -0.336754
  H -3.262043 0.290573 1.180467
  H -3.710455 -1.400682 1.207822
  H -2.547285 -3.345085 1.557318
  H -1.458756 -4.373842 0.573440
  H -2.926007 -3.782802 -0.110840
  O 2.443062 0.289215 -0.047904
  H 2.560962 1.258615 0.027889
  H 2.856361 0.019684 -0.901457
  H 1.451517 0.013883 0.010240
 20
 18.020150
  C -0.812946 0.081583 0.104893
  C -1.642546 -1.036771 0.713999
  C -3.125982 -0.619995 0.693880
  C -1.433994 -2.335900 -0.024774
  O -0.723800 -2.385854 -1.012919
  C -2.107976 -3.537696 0.554481
  H -0.898515 1.010422 0.663705
  H -1.130298 0.229455 -0.930289
  H 0.262995 -0.251845 0.032931
  H -1.346596 -1.186242 1.759117
  H -3.477869 -0.490205 -0.331125
  H -3.263003 0.315293 1.222907
  H -3.755967 -1.359641 1.169711
  H -2.497987 -3.348374 1.546981
  H -1.374554 -4.339464 0.620773
  H -2.901232 -3.866298 -0.104232
  O 2.429917 0.285349 -0.063882
  H 2.586727 1.237181 -0.007921
  H 2.868776 -0.041615 -0.878136
  H 1.300768 -0.026839 0.021250
 20
 30.482827
  C -0.875052 0.076007 0.090193
  C -1.670771 -1.042314 0.720870
  C -3.138562 -0.639871 0.695122
  C -1.438030 -2.354706 0.000223
  O -0.728548 -2.401119 -0.982762
  C -2.157846 -3.538621 0.569138
  H -0.893067 0.972082 0.692566
  H -1.192794 0.259444 -0.924560
  H 0.213449 -0.281351 0.009165
  H -1.361202 -1.199992 1.750265
  H -3.461664 -0.543095 -0.335252
  H -3.256765 0.316625 1.187795
  H -3.755755 -1.384677 1.192690
  H -2.593163 -3.344258 1.554204
  H -1.478409 -4.378938 0.631605
  H -2.930923 -3.877719 -0.111932
  O 2.628733 0.366850 -0.091361
  H 2.744053 1.308408 0.005591
  H 3.023758 0.067964 -0.930419
  H 1.231557 -0.048699 0.005296
 20
 36.476644
  C -0.946387 0.138851 0.094757
  C -1.712771 -1.016345 0.715146
  C -3.194617 -0.652375 0.709997
  C -1.466628 -2.304813 -0.025061
  O -0.743578 -2.337788 -1.000631
  C -2.102264 -3.531074 0.556516
  H -0.986485 1.038065 0.669122
  H -1.224132 0.290382 -0.954141
  H 0.170911 -0.172717 0.023074
  H -1.408702 -1.157284 1.758385
  H -3.562821 -0.569787 -0.304726
  H -3.346955 0.292562 1.227827
  H -3.788931 -1.413628 1.222064
  H -2.570182 -3.348672 1.518607
  H -1.350146 -4.306033 0.649980
  H -2.829140 -3.927735 -0.133397
  O 2.728721 0.248375 -0.099056
  H 2.919333 1.190220 0.006790
  H 3.089466 -0.071629 -0.922686
  H 1.179184 -0.063592 -0.009583
 20
 41.801320
  C -0.969094 0.175896 0.136105
  C -1.715150 -0.990359 0.764338
  C -3.224403 -0.687669 0.686600
  C -1.438220 -2.271915 0.007138
  O -0.723443 -2.272159 -0.975854
  C -2.063901 -3.517248 0.549299
  H -1.011939 1.085688 0.725221
  H -1.262933 0.319373 -0.905609
  H 0.096197 -0.087760 0.054279
  H -1.425661 -1.128964 1.813690
  H -3.547786 -0.625596 -0.350246
  H -3.440989 0.263058 1.170368
  H -3.819928 -1.470339 1.184312
  H -2.546775 -3.352476 1.493427
  H -1.309672 -4.279217 0.642695
  H -2.796143 -3.888233 -0.157465
  O 2.765515 0.183730 -0.133405
  H 3.012623 1.107987 -0.077389
  H 3.124334 -0.174520 -0.950862
  H 1.097955 -0.075078 0.001376
 20
 45.776288
  C -1.059086 0.207785 0.099501
  C -1.744283 -0.975252 0.730251
  C -3.257219 -0.678065 0.703973
  C -1.463899 -2.270539 -0.032328
  O -0.780356 -2.258364 -1.035188
  C -2.034140 -3.528261 0.561774
  H -1.099469 1.108096 0.686080
  H -1.308736 0.326417 -0.962164
  H 0.075172 -0.011838 0.029740
  H -1.448723 -1.113008 1.769187
  H -3.617140 -0.600719 -0.316269
  H -3.463236 0.252326 1.216563
  H -3.810079 -1.476325 1.205267
  H -2.480914 -3.365355 1.525787
  H -1.241870 -4.268380 0.643818
  H -2.784045 -3.955025 -0.129841
  O 2.853423 0.130792 -0.113287
  H 3.141682 1.041913 0.011262
  H 3.222442 -0.173763 -0.948014
  H 1.049821 -0.096986 0.007297
 20
 50.076546
  C -1.086572 0.180179 0.076710
  C -1.764194 -0.999751 0.727547
  C -3.273397 -0.685385 0.700399
  C -1.545230 -2.288841 -0.056163
  O -0.945695 -2.283281 -1.111141
  C -2.065650 -3.543842 0.577446
  H -1.110391 1.087723 0.653289
  H -1.306236 0.267711 -0.985576
  H 0.073251 -0.052336 0.024663
  H -1.468351 -1.131836 1.775130
  H -3.633592 -0.608479 -0.322574
  H -3.468232 0.249106 1.218052
  H -3.838212 -1.471053 1.199824
  H -2.424350 -3.381910 1.595421
  H -1.277629 -4.292748 0.577004
  H -2.878078 -3.944584 -0.037486
  O 3.012873 0.202714 -0.106667
  H 3.275585 1.115073 0.052205
  H 3.397235 -0.062022 -0.947538
  H 1.018205 -0.086770 0.009931
 20
 53.678295
  C -1.162000 0.169633 0.137632
  C -1.823622 -1.017889 0.760201
  C -3.335654 -0.713535 0.679157
  C -1.560190 -2.300905 -0.020294
  O -0.944569 -2.277843 -1.065370
  C -2.109831 -3.555827 0.577844
  H -1.167791 1.075532 0.735265
  H -1.384328 0.295345 -0.918619
  H 0.046148 -0.056494 0.054438
  H -1.556924 -1.148708 1.809382
  H -3.666705 -0.674524 -0.355640
  H -3.553059 0.236013 1.158816
  H -3.897931 -1.489797 1.192187
  H -2.487767 -3.410810 1.586233
  H -1.336411 -4.322620 0.574493
  H -2.909871 -3.927910 -0.061274
  O 3.276590 0.295031 -0.179021
  H 3.529812 1.222808 -0.131251
  H 3.668613 -0.074072 -0.977078
  H 0.995058 -0.084633 0.031620
 20
 55.049897
  C -1.200679 0.168033 0.134895
  C -1.850084 -1.025468 0.754095
  C -3.366302 -0.731369 0.690489
  C -1.570870 -2.309155 -0.018707
  O -0.924010 -2.287352 -1.029515
  C -2.135361 -3.558137 0.569151
  H -1.210640 1.070364 0.734996
  H -1.428924 0.298888 -0.919853
  H -0.011209 -0.050052 0.048611
  H -1.568969 -1.160282 1.800497
  H -3.704304 -0.679519 -0.338387
  H -3.587917 0.209596 1.187462
  H -3.917074 -1.519076 1.194115
  H -2.565072 -3.402279 1.551637
  H -1.351565 -4.310144 0.622418
  H -2.894682 -3.956166 -0.103769
  O 3.409204 0.315979 -0.199145
  H 3.674305 1.238579 -0.125227
  H 3.807159 -0.028545 -1.003832
  H 0.942292 -0.081745 0.014088
 20
 56.254333
  C -1.259220 0.197822 0.196310
  C -1.897762 -1.012070 0.788941
  C -3.414826 -0.763377 0.677149
  C -1.548384 -2.283393 0.016981
  O -0.815189 -2.235773 -0.950309
  C -2.127899 -3.552367 0.545247
  H -1.248565 1.080316 0.827051
  H -1.493848 0.354330 -0.854378
  H -0.076231 -0.027524 0.093654
  H -1.649534 -1.141171 1.843762
  H -3.724705 -0.747633 -0.360853
  H -3.670693 0.183632 1.142982
  H -3.962709 -1.548147 1.185575
  H -2.649658 -3.418032 1.484098
  H -1.330054 -4.279635 0.668136
  H -2.807149 -3.967921 -0.195242
  O 3.557392 0.319718 -0.268290
  H 3.836678 1.245027 -0.304253
  H 3.963411 -0.125630 -1.015553
  H 0.864243 -0.076023 0.043011
