 23
 0.000000
  H 1.550404 0.160176 0.446463
  C 2.631782 0.140510 0.401011
  C 3.352850 0.616657 1.587388
  C 2.442192 1.074798 2.722623
  C 3.249523 1.555943 3.923401
  C 3.205963 -0.326739 -0.759649
  C 4.581160 -0.414675 -0.977482
  C 5.190286 -0.881720 -2.145013
  C 4.479831 -1.362597 -3.342835
  H 3.402939 -1.326180 -3.248604
  O 6.496245 -0.921014 -2.249611
  H 4.019803 1.440455 1.305648
  H 4.017278 -0.174585 1.955145
  H 1.796784 0.250539 3.032029
  H 1.800054 1.886017 2.374476
  H 3.879956 0.759667 4.312529
  H 2.586306 1.878333 4.721850
  H 3.883352 2.397757 3.653935
  H 2.537185 -0.642262 -1.546509
  H 5.236610 -0.094931 -0.178747
  H 4.797375 -2.382056 -3.558558
  H 4.795413 -0.773363 -4.203038
  H 6.992726 -0.604307 -1.468256
 23
 0.970755
  H 1.593648 0.221850 0.423829
  C 2.673933 0.174629 0.385699
  C 3.365676 0.624042 1.599637
  C 2.431379 1.074753 2.718214
  C 3.213222 1.528802 3.947193
  C 3.243322 -0.286938 -0.778736
  C 4.612821 -0.372124 -1.010007
  C 5.204866 -0.883195 -2.167437
  C 4.462836 -1.411881 -3.325766
  H 3.390307 -1.373015 -3.194946
  O 6.503215 -0.919729 -2.296360
  H 4.054815 1.442764 1.354537
  H 4.012956 -0.178747 1.976240
  H 1.770681 0.253468 3.002444
  H 1.805337 1.898888 2.370914
  H 3.823873 0.719193 4.340038
  H 2.532473 1.847117 4.732639
  H 3.861480 2.368287 3.706448
  H 2.489648 -0.585646 -1.491947
  H 5.267189 -0.009547 -0.229209
  H 4.777711 -2.438415 -3.514685
  H 4.749504 -0.853594 -4.217385
  H 7.014464 -0.571196 -1.540016
 23
 1.086497
  H 1.570787 0.328076 0.399136
  C 2.646337 0.236923 0.366388
  C 3.351708 0.625042 1.590504
  C 2.431604 1.078622 2.719288
  C 3.224684 1.474383 3.958435
  C 3.224440 -0.225409 -0.801104
  C 4.593714 -0.300248 -1.027608
  C 5.191520 -0.868838 -2.157150
  C 4.464922 -1.479577 -3.283267
  H 3.391539 -1.461584 -3.159727
  O 6.489618 -0.886700 -2.284681
  H 4.069265 1.423431 1.370323
  H 3.970558 -0.205827 1.945264
  H 1.740324 0.277133 2.982011
  H 1.834971 1.934566 2.394527
  H 3.803146 0.636896 4.332685
  H 2.553653 1.799662 4.746597
  H 3.899842 2.298385 3.738605
  H 2.505549 -0.557419 -1.540669
  H 5.252571 0.117491 -0.274376
  H 4.804213 -2.507735 -3.414952
  H 4.740614 -0.966209 -4.204421
  H 6.998868 -0.479565 -1.549925
 23
 0.728810
  H 1.563187 0.430923 0.349286
  C 2.638580 0.319865 0.340168
  C 3.339695 0.658244 1.583613
  C 2.423839 1.083290 2.728648
  C 3.224313 1.422706 3.980444
  C 3.207720 -0.166868 -0.817662
  C 4.579979 -0.241744 -1.054763
  C 5.183782 -0.861243 -2.151891
  C 4.462546 -1.540197 -3.246717
  H 3.385991 -1.521405 -3.128415
  O 6.481799 -0.878431 -2.279017
  H 4.071814 1.452189 1.388533
  H 3.952858 -0.189622 1.905075
  H 1.730041 0.274837 2.960311
  H 1.839474 1.954604 2.431640
  H 3.797075 0.562432 4.321380
  H 2.557108 1.721462 4.786996
  H 3.910105 2.246429 3.793079
  H 2.517692 -0.554051 -1.557327
  H 5.234809 0.225962 -0.331892
  H 4.808707 -2.573004 -3.316352
  H 4.737458 -1.074970 -4.194477
  H 6.980845 -0.429839 -1.570233
 23
 0.941457
  H 1.578258 0.530608 0.329932
  C 2.649250 0.387315 0.326536
  C 3.342805 0.677254 1.583266
  C 2.416930 1.081807 2.729233
  C 3.205105 1.396352 3.994861
  C 3.211461 -0.132350 -0.820939
  C 4.583894 -0.236511 -1.055868
  C 5.177152 -0.854650 -2.156541
  C 4.445961 -1.570137 -3.219954
  H 3.373827 -1.563334 -3.080456
  O 6.476489 -0.877382 -2.295629
  H 4.071750 1.477954 1.410515
  H 3.952172 -0.177953 1.880688
  H 1.715883 0.270849 2.938353
  H 1.833200 1.957965 2.441693
  H 3.782239 0.530185 4.316197
  H 2.531198 1.668694 4.804764
  H 3.892255 2.226978 3.831173
  H 2.522991 -0.527608 -1.551032
  H 5.242678 0.244780 -0.346039
  H 4.804176 -2.599001 -3.265519
  H 4.695637 -1.127428 -4.185507
  H 6.980783 -0.425125 -1.595744
 23
 1.227108
  H 1.588912 0.625792 0.304031
  C 2.658010 0.467493 0.307776
  C 3.348491 0.751356 1.567967
  C 2.414026 1.034363 2.740248
  C 3.194905 1.384065 3.999375
  C 3.211956 -0.101403 -0.822595
  C 4.582175 -0.246433 -1.044359
  C 5.166657 -0.903549 -2.127742
  C 4.423842 -1.570727 -3.216258
  H 3.350681 -1.522841 -3.092160
  O 6.465278 -0.961809 -2.255687
  H 4.001252 1.623030 1.424899
  H 4.032954 -0.066436 1.822096
  H 1.798971 0.153854 2.933044
  H 1.744135 1.859464 2.487565
  H 3.861613 0.573424 4.279220
  H 2.516264 1.562255 4.827552
  H 3.784977 2.282593 3.852828
  H 2.507842 -0.509486 -1.528241
  H 5.249765 0.215476 -0.327241
  H 4.740652 -2.614873 -3.276247
  H 4.704138 -1.120212 -4.169600
  H 6.976522 -0.510697 -1.559421
 23
 1.964847
  H 1.617634 0.764909 0.264113
  C 2.674227 0.534610 0.291900
  C 3.353739 0.769323 1.575700
  C 2.401591 1.073747 2.727777
  C 3.166086 1.311993 4.028694
  C 3.216982 -0.062136 -0.825309
  C 4.584700 -0.196071 -1.068580
  C 5.160331 -0.878279 -2.143978
  C 4.414707 -1.645914 -3.158828
  H 3.343415 -1.618709 -3.015153
  O 6.454972 -0.897865 -2.309784
  H 4.050128 1.613025 1.458914
  H 3.977923 -0.096398 1.828874
  H 1.715697 0.236599 2.866380
  H 1.804749 1.958304 2.494129
  H 3.723584 0.423399 4.319826
  H 2.476960 1.554130 4.835139
  H 3.864941 2.138418 3.924877
  H 2.512066 -0.520452 -1.505080
  H 5.251517 0.314525 -0.390185
  H 4.762016 -2.678898 -3.147266
  H 4.664832 -1.263403 -4.146509
  H 6.968112 -0.381893 -1.657147
 23
 2.415486
  H 1.586145 0.706898 0.277941
  C 2.642666 0.470485 0.312481
  C 3.316533 0.663954 1.601800
  C 2.396842 1.138059 2.725301
  C 3.167540 1.330354 4.028807
  C 3.201921 -0.059351 -0.830060
  C 4.570460 -0.150810 -1.082296
  C 5.159698 -0.842203 -2.142712
  C 4.429932 -1.641815 -3.144096
  H 3.371933 -1.719370 -2.940688
  O 6.456095 -0.847280 -2.302492
  H 4.140906 1.379050 1.481623
  H 3.809034 -0.271139 1.897194
  H 1.602826 0.404902 2.884356
  H 1.924277 2.082269 2.444007
  H 3.610373 0.394282 4.360367
  H 2.504828 1.685904 4.812571
  H 3.962905 2.063357 3.905485
  H 2.510968 -0.540386 -1.511007
  H 5.228078 0.407385 -0.429192
  H 4.869582 -2.634142 -3.195848
  H 4.579572 -1.199815 -4.127679
  H 6.960407 -0.321338 -1.651263
 23
 3.741795
  H 1.589023 0.847407 0.252822
  C 2.638154 0.577154 0.275346
  C 3.313283 0.689344 1.571913
  C 2.391006 1.080277 2.720843
  C 3.172288 1.255422 4.017648
  C 3.194596 0.113235 -0.898161
  C 4.562645 -0.017801 -1.139693
  C 5.148855 -0.827934 -2.112012
  C 4.410589 -1.716754 -3.030793
  H 3.344035 -1.719643 -2.856255
  O 6.449452 -0.890352 -2.241028
  H 4.131824 1.415871 1.496770
  H 3.808986 -0.262346 1.801385
  H 1.634270 0.305668 2.863636
  H 1.874960 2.012184 2.482631
  H 3.654209 0.322049 4.310608
  H 2.507147 1.557449 4.822872
  H 3.936177 2.017924 3.910959
  H 2.495733 -0.372264 -1.562445
  H 5.229459 0.573555 -0.524754
  H 4.805392 -2.729091 -2.944208
  H 4.608942 -1.406875 -4.058090
  H 6.956076 -0.290228 -1.659954
 23
 5.266319
  H 1.633318 0.948776 0.233329
  C 2.668520 0.635228 0.272295
  C 3.311976 0.692885 1.588405
  C 2.380154 1.116205 2.717724
  C 3.121537 1.181804 4.046837
  C 3.223580 0.143225 -0.890593
  C 4.581643 0.030100 -1.176048
  C 5.145541 -0.806150 -2.133053
  C 4.399868 -1.792592 -2.945501
  H 3.337146 -1.798187 -2.736410
  O 6.433959 -0.806235 -2.355855
  H 4.168873 1.380390 1.539641
  H 3.752415 -0.282942 1.819498
  H 1.559160 0.400114 2.802892
  H 1.949135 2.092338 2.497158
  H 3.524577 0.211637 4.317220
  H 2.448261 1.495666 4.840849
  H 3.943834 1.894165 3.996720
  H 2.519456 -0.387283 -1.519092
  H 5.252103 0.662519 -0.610297
  H 4.813469 -2.784355 -2.778490
  H 4.565588 -1.579651 -4.004466
  H 6.947380 -0.146527 -1.853372
 23
 8.103409
  H 1.670056 1.023488 0.231124
  C 2.691675 0.664126 0.267046
  C 3.307888 0.667150 1.604235
  C 2.377376 1.132566 2.715157
  C 3.084261 1.110835 4.067123
  C 3.227510 0.193546 -0.911799
  C 4.576044 0.111656 -1.245094
  C 5.140944 -0.778013 -2.157256
  C 4.405268 -1.855137 -2.856340
  H 3.337815 -1.829935 -2.671454
  O 6.419371 -0.750337 -2.425749
  H 4.201766 1.306892 1.580027
  H 3.688286 -0.337322 1.832371
  H 1.505746 0.480693 2.761097
  H 2.028826 2.144583 2.507143
  H 3.402971 0.105618 4.324075
  H 2.414383 1.460313 4.850906
  H 3.959193 1.757630 4.057087
  H 2.502680 -0.396993 -1.455199
  H 5.241727 0.801961 -0.740226
  H 4.805809 -2.817812 -2.550483
  H 4.596788 -1.779933 -3.927792
  H 6.919710 -0.019358 -2.006791
 23
 11.763366
  H 1.672010 0.931708 0.256560
  C 2.690817 0.564550 0.311296
  C 3.298366 0.616459 1.647016
  C 2.364320 1.143967 2.730602
  C 3.061304 1.166767 4.089856
  C 3.242212 0.128936 -0.872168
  C 4.578885 0.092255 -1.249604
  C 5.143380 -0.787804 -2.167409
  C 4.396070 -1.814280 -2.929519
  H 3.347970 -1.848219 -2.676686
  O 6.430135 -0.779140 -2.408697
  H 4.206310 1.233551 1.602074
  H 3.643886 -0.386199 1.916329
  H 1.481786 0.512586 2.795068
  H 2.037875 2.158400 2.476143
  H 3.354699 0.164452 4.392158
  H 2.396004 1.563549 4.849800
  H 3.952033 1.791321 4.060733
  H 2.512273 -0.564524 -1.295651
  H 5.224352 0.838541 -0.801849
  H 4.846296 -2.790000 -2.756226
  H 4.510993 -1.615472 -3.993984
  H 6.938582 -0.111295 -1.911443
 23
 15.907589
  H 1.746864 1.071019 0.226201
  C 2.693910 0.554516 0.324510
  C 3.276120 0.565038 1.676101
  C 2.333983 1.108178 2.745806
  C 3.022301 1.147777 4.105937
  C 3.285976 0.148905 -0.855373
  C 4.617589 0.083163 -1.236926
  C 5.152122 -0.792554 -2.174376
  C 4.394113 -1.870747 -2.856456
  H 3.388158 -1.977053 -2.483361
  O 6.411987 -0.721979 -2.528161
  H 4.194995 1.158953 1.651765
  H 3.581743 -0.454876 1.940459
  H 1.442123 0.478388 2.813516
  H 2.017006 2.121797 2.477211
  H 3.303639 0.145796 4.427021
  H 2.357417 1.557525 4.853361
  H 3.923974 1.765235 4.071111
  H 2.528763 -0.525261 -1.252928
  H 5.260755 0.859539 -0.845138
  H 4.924406 -2.810502 -2.743124
  H 4.372371 -1.664204 -3.927268
  H 6.924433 -0.025363 -2.080148
 23
 29.142273
  H 1.729146 1.085187 0.237065
  C 2.712337 0.618098 0.284075
  C 3.283737 0.542580 1.648665
  C 2.336190 1.070073 2.733802
  C 2.992483 1.000671 4.106478
  C 3.314729 0.288107 -0.893008
  C 4.614260 0.233565 -1.377219
  C 5.139524 -0.756109 -2.182033
  C 4.390979 -1.946792 -2.648196
  H 3.376908 -1.969329 -2.272002
  O 6.392982 -0.726928 -2.570190
  H 4.224213 1.118211 1.656196
  H 3.550222 -0.495173 1.873464
  H 1.425370 0.479726 2.751275
  H 2.067947 2.105292 2.517163
  H 3.228334 -0.028638 4.372927
  H 2.322651 1.395752 4.868916
  H 3.913391 1.579586 4.125566
  H 2.519669 -0.411161 -1.111678
  H 5.255187 1.055548 -1.083514
  H 4.910722 -2.852027 -2.336068
  H 4.392664 -1.958189 -3.738407
  H 6.885621 0.052324 -2.266071
