 32
 0.000000
  C 0.982778 0.133626 0.384979
  C 2.461161 0.137975 0.394841
  C 3.238577 0.609629 1.567884
  C 2.451998 1.097319 2.781810
  C 3.392297 1.545391 3.896089
  C 3.083032 -0.324659 -0.756871
  C 4.462240 -0.411182 -0.972774
  C 5.130070 -0.863444 -2.100331
  C 4.618339 -1.384782 -3.400473
  C 3.125655 -1.499497 -3.687697
  C 2.893222 -2.060880 -5.087694
  O 6.454839 -0.865860 -2.106156
  H 0.533960 0.501489 1.300654
  H 0.617501 -0.880362 0.215466
  H 0.616955 0.748147 -0.438959
  H 3.894591 1.423312 1.237965
  H 3.895025 -0.205734 1.892698
  H 1.813622 0.298463 3.164444
  H 1.813227 1.938523 2.505320
  H 4.028459 0.725712 4.224022
  H 2.819664 1.890082 4.754159
  H 4.028028 2.364329 3.565434
  H 2.426540 -0.642779 -1.548642
  H 5.083107 -0.080203 -0.148142
  H 5.069117 -2.375522 -3.529767
  H 5.069623 -0.758256 -4.178484
  H 2.652444 -0.518108 -3.632682
  H 2.651857 -2.170620 -2.969930
  H 3.329168 -1.414362 -5.846252
  H 1.826660 -2.139631 -5.285020
  H 3.328595 -3.052641 -5.189230
  H 6.838371 -0.532227 -1.273544
 32
 -0.508633
  C 0.954792 0.196255 0.400517
  C 2.428248 0.191514 0.373318
  C 3.224263 0.635453 1.541418
  C 2.460949 1.076615 2.785596
  C 3.432157 1.452190 3.902331
  C 3.038342 -0.275727 -0.787527
  C 4.415439 -0.360952 -0.988755
  C 5.107273 -0.835391 -2.099257
  C 4.617267 -1.386861 -3.391777
  C 3.130219 -1.500052 -3.700968
  C 2.936779 -2.099779 -5.091294
  O 6.426194 -0.836621 -2.073707
  H 0.545087 0.790579 1.208997
  H 0.599559 -0.829689 0.528959
  H 0.550494 0.537756 -0.550273
  H 3.871615 1.462105 1.223924
  H 3.899681 -0.178019 1.829658
  H 1.816196 0.271467 3.136303
  H 1.838559 1.942762 2.561782
  H 4.055379 0.603890 4.179180
  H 2.886373 1.770087 4.788113
  H 4.080519 2.270985 3.596069
  H 2.378963 -0.586853 -1.576993
  H 5.043997 -0.016859 -0.177574
  H 5.074021 -2.378807 -3.487860
  H 5.096707 -0.787618 -4.174879
  H 2.664144 -0.514815 -3.684864
  H 2.641123 -2.150506 -2.976808
  H 3.397315 -1.476112 -5.851746
  H 1.879436 -2.185538 -5.321799
  H 3.375803 -3.090997 -5.151804
  H 6.821400 -0.484441 -1.254079
 32
 -1.023446
  C 0.966199 0.260435 0.395882
  C 2.437777 0.228200 0.350860
  C 3.232061 0.657190 1.527278
  C 2.457191 1.056276 2.779932
  C 3.415289 1.375480 3.924200
  C 3.043633 -0.249386 -0.806134
  C 4.421417 -0.345532 -1.003251
  C 5.113335 -0.829654 -2.108913
  C 4.623446 -1.394875 -3.395878
  C 3.136308 -1.506401 -3.705412
  C 2.942362 -2.120439 -5.090064
  O 6.432139 -0.827942 -2.083719
  H 0.591644 1.060721 1.027008
  H 0.607177 -0.674811 0.834937
  H 0.534340 0.333782 -0.598285
  H 3.863677 1.501641 1.228198
  H 3.921504 -0.148697 1.797696
  H 1.796858 0.244937 3.087163
  H 1.845275 1.938057 2.585177
  H 4.023283 0.509798 4.177159
  H 2.860543 1.665926 4.812764
  H 4.078047 2.196220 3.659849
  H 2.383371 -0.559537 -1.596401
  H 5.050718 0.002958 -0.193814
  H 5.076951 -2.390154 -3.478840
  H 5.106596 -0.807634 -4.185628
  H 2.673543 -0.519385 -3.700313
  H 2.644051 -2.147776 -2.974283
  H 3.406996 -1.505040 -5.857959
  H 1.883100 -2.205240 -5.321421
  H 3.379379 -3.116277 -5.139467
  H 6.827554 -0.469278 -1.267114
 32
 -1.393665
  C 0.982627 0.304900 0.388804
  C 2.449572 0.204819 0.354007
  C 3.238171 0.651704 1.527273
  C 2.451581 1.011081 2.784927
  C 3.397167 1.351045 3.932865
  C 3.052678 -0.308791 -0.787544
  C 4.430280 -0.405919 -0.984980
  C 5.120224 -0.868567 -2.099922
  C 4.628688 -1.414053 -3.394684
  C 3.141495 -1.522315 -3.704120
  C 2.946993 -2.101549 -5.103564
  O 6.439134 -0.850566 -2.083464
  H 0.667835 1.270557 0.780260
  H 0.582074 -0.440227 1.080242
  H 0.536180 0.139714 -0.587169
  H 3.824551 1.528965 1.228403
  H 3.967825 -0.121268 1.787303
  H 1.820307 0.172490 3.083075
  H 1.804888 1.870296 2.600584
  H 4.035619 0.504686 4.176523
  H 2.832206 1.611581 4.824322
  H 4.030588 2.197812 3.678387
  H 2.392377 -0.632743 -1.572025
  H 5.060424 -0.059128 -0.175044
  H 5.082631 -2.407191 -3.492859
  H 5.110303 -0.814969 -4.176294
  H 2.675870 -0.537154 -3.673054
  H 2.652425 -2.183650 -2.988706
  H 3.409973 -1.466730 -5.855659
  H 1.888121 -2.181854 -5.335990
  H 3.384823 -3.094419 -5.178353
  H 6.835673 -0.513908 -1.258322
 32
 -1.126413
  C 0.999618 0.343222 0.359410
  C 2.457845 0.152813 0.369071
  C 3.241842 0.640458 1.529099
  C 2.447676 1.006267 2.781066
  C 3.385360 1.395684 3.919540
  C 3.059316 -0.425521 -0.741031
  C 4.437138 -0.506511 -0.943202
  C 5.123698 -0.902508 -2.085723
  C 4.628723 -1.401112 -3.398050
  C 3.140851 -1.519457 -3.701312
  C 2.944594 -2.018643 -5.130982
  O 6.441423 -0.837750 -2.090293
  H 0.771160 1.400191 0.496001
  H 0.539823 -0.172275 1.203758
  H 0.542968 -0.006869 -0.560953
  H 3.795803 1.531603 1.209043
  H 3.996367 -0.102955 1.801033
  H 1.842265 0.155405 3.098363
  H 1.775998 1.841391 2.579517
  H 4.047882 0.572667 4.178472
  H 2.814854 1.658047 4.807030
  H 3.994238 2.254735 3.646655
  H 2.399891 -0.787377 -1.509833
  H 5.067014 -0.166320 -0.129967
  H 5.096437 -2.382854 -3.540033
  H 5.095178 -0.763389 -4.157887
  H 2.657423 -0.546735 -3.607817
  H 2.670140 -2.231408 -3.023012
  H 3.392575 -1.334061 -5.847414
  H 1.885469 -2.101171 -5.360733
  H 3.396255 -2.998504 -5.266735
  H 6.841451 -0.541998 -1.251288
 32
 0.142348
  C 1.046766 0.361855 0.299491
  C 2.483474 0.057715 0.392302
  C 3.261321 0.591364 1.536612
  C 2.453617 1.011278 2.764217
  C 3.379865 1.444616 3.895925
  C 3.083541 -0.611610 -0.666242
  C 4.462852 -0.675089 -0.873332
  C 5.141480 -0.970281 -2.049763
  C 4.640137 -1.400824 -3.383774
  C 3.151395 -1.533510 -3.676888
  C 2.946729 -1.924574 -5.138701
  O 6.454569 -0.842031 -2.077056
  H 0.931436 1.444972 0.234355
  H 0.515230 0.052333 1.198813
  H 0.582334 -0.095310 -0.568526
  H 3.814128 1.471281 1.185089
  H 4.013054 -0.139497 1.845856
  H 1.844041 0.173811 3.108776
  H 1.786602 1.838593 2.520792
  H 4.038802 0.632024 4.193916
  H 2.800474 1.742223 4.766356
  H 3.992368 2.291788 3.595518
  H 2.426270 -1.020137 -1.413291
  H 5.091432 -0.347561 -0.053749
  H 5.125426 -2.363290 -3.586499
  H 5.084439 -0.710965 -4.110292
  H 2.645895 -0.583755 -3.500396
  H 2.707731 -2.308145 -3.051105
  H 3.372802 -1.178021 -5.804838
  H 1.886549 -2.010050 -5.362477
  H 3.415013 -2.881934 -5.354965
  H 6.862011 -0.603806 -1.223548
 32
 2.454956
  C 1.090181 0.383710 0.206205
  C 2.490810 -0.030801 0.404453
  C 3.261683 0.547070 1.535120
  C 2.435579 1.047157 2.722396
  C 3.346135 1.507067 3.855308
  C 3.088438 -0.794639 -0.587077
  C 4.470031 -0.824247 -0.808189
  C 5.132487 -1.002609 -2.013249
  C 4.621483 -1.363607 -3.360503
  C 3.132968 -1.527623 -3.632036
  C 2.906638 -1.808052 -5.115439
  O 6.437104 -0.790416 -2.064210
  H 1.096868 1.455649 -0.006552
  H 0.492043 0.245744 1.104805
  H 0.619811 -0.133707 -0.624189
  H 3.836694 1.398832 1.152306
  H 3.991555 -0.184465 1.897797
  H 1.795400 0.242630 3.089385
  H 1.799403 1.879737 2.424268
  H 3.972319 0.692354 4.208280
  H 2.755453 1.861549 4.695189
  H 3.990674 2.321011 3.529887
  H 2.433205 -1.256539 -1.306238
  H 5.097914 -0.499963 0.015425
  H 5.132891 -2.294499 -3.629696
  H 5.027936 -0.617259 -4.049256
  H 2.599313 -0.613606 -3.366551
  H 2.731261 -2.365711 -3.061601
  H 3.294134 -0.997729 -5.728294
  H 1.844762 -1.910439 -5.323476
  H 3.398866 -2.729732 -5.417200
  H 6.855974 -0.600288 -1.203966
 32
 2.088835
  C 1.083797 0.383588 0.218345
  C 2.491535 -0.004207 0.396505
  C 3.261137 0.566421 1.529499
  C 2.436614 1.050772 2.723113
  C 3.348569 1.507489 3.857022
  C 3.089557 -0.748964 -0.609693
  C 4.470010 -0.779762 -0.823796
  C 5.137740 -0.986847 -2.022256
  C 4.628752 -1.366167 -3.368948
  C 3.139511 -1.524221 -3.646214
  C 2.919429 -1.828664 -5.126114
  O 6.443180 -0.792401 -2.066018
  H 1.071751 1.457802 0.020714
  H 0.496363 0.221650 1.120488
  H 0.615762 -0.129444 -0.616127
  H 3.831089 1.424380 1.152637
  H 3.994666 -0.162866 1.882599
  H 1.802771 0.239219 3.085544
  H 1.793555 1.882073 2.433961
  H 3.981814 0.692822 4.201186
  H 2.758047 1.851897 4.702329
  H 3.986757 2.327902 3.536754
  H 2.436688 -1.198811 -1.336781
  H 5.094798 -0.450233 -0.001687
  H 5.135244 -2.305251 -3.622892
  H 5.044324 -0.631600 -4.067729
  H 2.611247 -0.602638 -3.400426
  H 2.728770 -2.349202 -3.063954
  H 3.314877 -1.031144 -5.750749
  H 1.858072 -1.928405 -5.338106
  H 3.407994 -2.758068 -5.409277
  H 6.857149 -0.591717 -1.205661
 32
 2.006569
  C 1.090558 0.366256 0.224892
  C 2.495459 -0.021995 0.405787
  C 3.263014 0.553967 1.538933
  C 2.433940 1.065222 2.717562
  C 3.340534 1.523758 3.854904
  C 3.096207 -0.772342 -0.604484
  C 4.480242 -0.789835 -0.825683
  C 5.140478 -0.987644 -2.026486
  C 4.627509 -1.361642 -3.372483
  C 3.137261 -1.515023 -3.647612
  C 2.914820 -1.821633 -5.126952
  O 6.442398 -0.798720 -2.072784
  H 1.081080 1.444955 0.073604
  H 0.491038 0.162212 1.110588
  H 0.635851 -0.113403 -0.636140
  H 3.849833 1.397799 1.156646
  H 3.981794 -0.181394 1.909205
  H 1.784261 0.268159 3.083625
  H 1.805459 1.901476 2.411515
  H 3.956376 0.703922 4.218001
  H 2.746327 1.890619 4.688113
  H 3.995873 2.328835 3.530308
  H 2.444106 -1.217072 -1.335685
  H 5.106669 -0.458337 -0.005434
  H 5.130971 -2.300744 -3.632826
  H 5.043441 -0.624166 -4.068339
  H 2.612460 -0.591002 -3.403095
  H 2.724054 -2.337785 -3.063921
  H 3.311420 -1.026255 -5.753639
  H 1.852969 -1.919183 -5.337535
  H 3.401066 -2.752712 -5.408800
  H 6.854099 -0.580890 -1.217518
