 20
 0.000000
  H 1.423024 0.147121 0.418465
  C 2.501862 0.141716 0.404458
  C 3.245876 0.613334 1.576615
  H 2.612802 0.940849 2.391615
  C 3.090928 -0.324607 -0.756162
  C 4.466820 -0.415327 -0.982986
  C 5.133612 -0.871770 -2.121349
  C 4.615876 -1.390200 -3.414285
  C 3.123415 -1.498415 -3.685140
  H 2.973669 -1.898130 -4.682002
  O 6.449262 -0.871586 -2.121411
  H 3.902432 1.437922 1.288553
  H 3.903004 -0.180651 1.939490
  H 2.420723 -0.638672 -1.537449
  H 5.113532 -0.090899 -0.175451
  H 5.071946 -2.378374 -3.545415
  H 5.072467 -0.766801 -4.191881
  H 2.644228 -0.523550 -3.641421
  H 2.643731 -2.172711 -2.980083
  H 6.855936 -0.541552 -1.296729
 20
 -0.185721
  H 1.465531 0.483891 0.359942
  C 2.526004 0.280463 0.339881
  C 3.257625 0.461138 1.596156
  H 2.590430 0.716533 2.410879
  C 3.075792 -0.124502 -0.858013
  C 4.450581 -0.302948 -1.041746
  C 5.136540 -0.779095 -2.160438
  C 4.619047 -1.415539 -3.400962
  C 3.126792 -1.574946 -3.632927
  H 2.981281 -2.125004 -4.560076
  O 6.448391 -0.735531 -2.165105
  H 3.997377 1.256714 1.493897
  H 3.817235 -0.436611 1.858720
  H 2.403916 -0.275311 -1.682957
  H 5.078798 0.004846 -0.213154
  H 5.094276 -2.402574 -3.441268
  H 5.063036 -0.867924 -4.238558
  H 2.633553 -0.612362 -3.747419
  H 2.656142 -2.142684 -2.835373
  H 6.856254 -0.337859 -1.374968
 20
 1.437257
  H 1.538664 0.805998 0.340087
  C 2.541265 0.416943 0.246149
  C 3.230558 0.202373 1.530963
  H 2.560342 0.385973 2.366111
  C 3.096534 0.136696 -0.978094
  C 4.451535 -0.193802 -1.093731
  C 5.156428 -0.697142 -2.188802
  C 4.625541 -1.488809 -3.327608
  C 3.126284 -1.699091 -3.457128
  H 2.940309 -2.365243 -4.295483
  O 6.462066 -0.599206 -2.223404
  H 4.071941 0.890296 1.638854
  H 3.620798 -0.810989 1.614096
  H 2.485152 0.238128 -1.858524
  H 5.032589 0.014489 -0.197300
  H 5.126439 -2.461682 -3.259736
  H 5.016004 -1.038556 -4.246864
  H 2.607646 -0.768409 -3.662545
  H 2.708634 -2.157527 -2.565076
  H 6.863792 -0.091632 -1.491982
 20
 7.053458
  H 1.594730 0.955271 0.371847
  C 2.563990 0.529083 0.161465
  C 3.204713 0.067446 1.418887
  H 2.516532 0.199643 2.252277
  C 3.144080 0.360060 -1.062591
  C 4.445415 -0.157871 -1.120202
  C 5.176846 -0.655167 -2.204943
  C 4.633045 -1.512599 -3.291626
  C 3.137176 -1.786826 -3.300157
  H 2.904067 -2.443205 -4.133780
  O 6.476860 -0.467787 -2.287987
  H 4.073337 0.678027 1.670157
  H 3.473885 -0.985659 1.390189
  H 2.638750 0.692999 -1.954407
  H 4.922839 -0.179031 -0.131800
  H 5.184501 -2.456622 -3.216538
  H 4.939132 -1.075732 -4.248018
  H 2.562644 -0.876711 -3.428619
  H 2.818365 -2.278043 -2.384820
  H 6.864444 0.119805 -1.604784
 20
 17.285297
  H 1.620288 0.978258 0.353871
  C 2.583398 0.563671 0.119021
  C 3.213941 -0.137325 1.286465
  H 2.506447 -0.035778 2.130067
  C 3.184914 0.562411 -1.116576
  C 4.461925 0.008596 -1.208210
  C 5.204223 -0.539875 -2.261636
  C 4.651513 -1.549521 -3.203420
  C 3.159312 -1.812124 -3.113546
  H 2.890091 -2.584712 -3.830287
  O 6.480883 -0.333426 -2.385333
  H 4.065686 0.392669 1.697240
  H 3.286780 -1.209052 1.172527
  H 2.706448 1.002496 -1.975868
  H 4.829265 -0.168072 -0.181419
  H 5.229064 -2.466812 -3.075163
  H 4.894950 -1.206110 -4.215975
  H 2.586892 -0.923135 -3.351380
  H 2.874728 -2.164555 -2.124071
  H 6.853272 0.371829 -1.812404
 20
 44.550661
  H 1.730419 1.139855 0.503573
  C 2.607763 0.670809 0.133989
  C 3.306563 -0.257571 1.086887
  H 2.661215 -0.252422 1.979854
  C 3.129876 0.804125 -1.114203
  C 4.279203 0.081789 -1.329714
  C 5.124532 -0.491977 -2.266854
  C 4.690321 -1.613381 -3.165094
  C 3.221435 -1.948267 -3.058383
  H 2.965866 -2.734627 -3.755664
  O 6.396251 -0.210102 -2.347088
  H 4.149364 0.188001 1.649373
  H 3.264795 -1.322298 0.832089
  H 2.724160 1.478477 -1.831020
  H 4.539625 -0.201509 -0.165375
  H 5.302611 -2.477470 -2.888954
  H 4.947463 -1.316488 -4.185583
  H 2.601946 -1.082934 -3.289479
  H 2.969585 -2.270814 -2.053978
  H 6.678304 0.580798 -1.820167
 20
 64.612552
  H 1.769852 1.223526 0.560796
  C 2.613740 0.674031 0.181413
  C 3.377978 -0.304782 1.041596
  H 2.842352 -0.347225 2.016932
  C 3.083425 0.852390 -1.102316
  C 4.199798 0.192171 -1.509070
  C 5.058845 -0.388125 -2.320502
  C 4.723855 -1.612208 -3.136700
  C 3.254872 -1.998692 -3.100657
  H 3.090206 -2.862937 -3.737029
  O 6.375821 -0.082861 -2.401832
  H 4.250764 0.102961 1.623163
  H 3.216785 -1.369373 0.785406
  H 2.604473 1.551669 -1.772952
  H 4.305445 -0.351341 0.276797
  H 5.349543 -2.434784 -2.784919
  H 5.033051 -1.393601 -4.159860
  H 2.633318 -1.184977 -3.464480
  H 2.939027 -2.252604 -2.094618
  H 6.584343 0.760887 -1.969047
 20
 64.855921
  H 1.829655 1.275876 0.555598
  C 2.658999 0.695812 0.196254
  C 3.353769 -0.316179 1.078902
  H 2.767702 -0.396280 2.019431
  C 3.105583 0.880267 -1.095676
  C 4.162698 0.220735 -1.619890
  C 5.033239 -0.374199 -2.383471
  C 4.736896 -1.636781 -3.165064
  C 3.275252 -2.052250 -3.130000
  H 3.135411 -2.949496 -3.727856
  O 6.358541 -0.031309 -2.474232
  H 4.139501 0.082347 1.813257
  H 3.209969 -1.361871 0.750052
  H 2.605810 1.610902 -1.721817
  H 4.383766 -0.307270 0.568448
  H 5.376001 -2.434429 -2.776912
  H 5.052937 -1.447900 -4.196024
  H 2.642861 -1.266480 -3.539480
  H 2.950789 -2.264068 -2.114348
  H 6.527649 0.838000 -2.076593
 20
 69.219676
  H 1.946589 1.238984 0.636851
  C 2.756168 0.602851 0.303971
  C 3.303081 -0.454416 1.258579
  H 2.613428 -0.383647 2.119946
  C 3.214096 0.779568 -0.991974
  C 4.221239 0.089151 -1.572590
  C 5.071418 -0.534455 -2.338674
  C 4.724632 -1.765548 -3.138013
  C 3.255488 -2.120918 -3.101797
  H 3.077958 -2.993555 -3.715413
  O 6.400596 -0.237219 -2.431947
  H 4.091697 -0.197853 2.033492
  H 3.089572 -1.504534 0.983519
  H 2.734323 1.548459 -1.585340
  H 4.195107 -0.364196 0.625814
  H 5.332335 -2.592993 -2.763438
  H 5.044699 -1.573041 -4.168679
  H 2.654197 -1.303324 -3.488455
  H 2.931501 -2.342807 -2.089106
  H 6.602808 0.614917 -2.014989
 20
 63.068400
  H 1.931013 1.251435 0.663433
  C 2.727852 0.632809 0.291727
  C 3.360067 -0.403645 1.193408
  H 2.816051 -0.416278 2.172979
  C 3.164490 0.811635 -1.004551
  C 4.169150 0.112199 -1.579408
  C 5.045159 -0.527800 -2.295756
  C 4.733618 -1.763993 -3.109459
  C 3.258024 -2.131426 -3.124975
  H 3.099413 -2.982392 -3.781120
  O 6.385848 -0.215806 -2.352091
  H 4.185590 0.028393 1.829387
  H 2.916272 -1.422561 1.042937
  H 2.684184 1.574362 -1.605845
  H 4.227808 -0.815314 0.603876
  H 5.335072 -2.589884 -2.718757
  H 5.085570 -1.567704 -4.124864
  H 2.660778 -1.300562 -3.492373
  H 2.909534 -2.396847 -2.131801
  H 6.565439 0.628806 -1.914987
