 11
 0.000000
  H 1.381957 0.136599 0.390633
  C 2.454951 0.110916 0.326711
  H 3.011556 0.454273 1.181994
  C 3.085432 -0.339184 -0.794258
  C 4.488068 -0.374342 -0.881456
  C 5.149357 -0.830823 -2.019169
  H 4.577422 -1.174954 -2.876217
  O 6.416592 -0.890274 -2.168024
  H 2.506596 -0.679059 -1.641461
  H 5.065323 -0.032791 -0.030260
  H 6.944344 -0.581919 -1.401155
 11
 1.705708
  H 1.408742 0.374935 0.279105
  C 2.467584 0.178161 0.281734
  H 3.038031 0.583836 1.102834
  C 3.084883 -0.474588 -0.742025
  C 4.485347 -0.605405 -0.792501
  C 5.139521 -0.830991 -2.001717
  H 4.564694 -1.087032 -2.889416
  O 6.385636 -0.662147 -2.226524
  H 2.505156 -0.830701 -1.580929
  H 5.058396 -0.416366 0.108898
  H 6.942860 -0.430382 -1.450050
 11
 5.414616
  H 1.457506 0.466441 0.214649
  C 2.506917 0.231210 0.212947
  H 3.117752 0.773860 0.918189
  C 3.079170 -0.593435 -0.697093
  C 4.484044 -0.759946 -0.756649
  C 5.119554 -0.768626 -1.993182
  H 4.530032 -0.882156 -2.900641
  O 6.353038 -0.514746 -2.212740
  H 2.476137 -1.056272 -1.469249
  H 5.057609 -0.734951 0.161413
  H 6.925545 -0.392419 -1.422296
 11
 10.841550
  H 1.522699 0.559093 0.163305
  C 2.561251 0.283266 0.123402
  H 3.224495 0.912686 0.697614
  C 3.065669 -0.690508 -0.653290
  C 4.477170 -0.897092 -0.743818
  C 5.094135 -0.710002 -1.971644
  H 4.496214 -0.721760 -2.881154
  O 6.312230 -0.369714 -2.163327
  H 2.423954 -1.261389 -1.316851
  H 5.053419 -1.038195 0.162545
  H 6.890798 -0.314988 -1.369826
 11
 16.261380
  H 1.565631 0.612805 0.116629
  C 2.598405 0.329666 0.027765
  H 3.293654 1.037700 0.453118
  C 3.058826 -0.746223 -0.604560
  C 4.471368 -1.002657 -0.747839
  C 5.072550 -0.619703 -1.936158
  H 4.461494 -0.485038 -2.827385
  O 6.291616 -0.264842 -2.093749
  H 2.380634 -1.423799 -1.120611
  H 5.045261 -1.344236 0.105228
  H 6.876814 -0.316967 -1.304869
 11
 18.339980
  H 1.592950 0.636125 0.065293
  C 2.620408 0.364573 -0.091267
  H 3.330587 1.120122 0.208876
  C 3.061309 -0.793072 -0.553327
  C 4.461585 -1.071287 -0.780464
  C 5.068078 -0.554276 -1.915428
  H 4.454343 -0.348157 -2.791937
  O 6.285710 -0.192547 -2.054082
  H 2.367406 -1.595254 -0.807468
  H 5.031735 -1.564969 -0.001324
  H 6.873647 -0.276501 -1.270415
 11
 14.513837
  H 1.638759 0.683708 0.032741
  C 2.648845 0.392771 -0.193812
  H 3.392274 1.152684 -0.008861
  C 3.037560 -0.840427 -0.539180
  C 4.411458 -1.127103 -0.827155
  C 5.058605 -0.444337 -1.848436
  H 4.463352 -0.075833 -2.683218
  O 6.295480 -0.132766 -1.937299
  H 2.331676 -1.665628 -0.570988
  H 4.949276 -1.801888 -0.170583
  H 6.869903 -0.343458 -1.167998
 11
 10.517239
  H 1.664978 0.696743 -0.040315
  C 2.666220 0.404047 -0.307146
  H 3.403858 1.188876 -0.282791
  C 3.049412 -0.877479 -0.501663
  C 4.384798 -1.177994 -0.865392
  C 5.058796 -0.356013 -1.768691
  H 4.476792 0.156102 -2.534694
  O 6.306320 -0.088304 -1.819522
  H 2.364344 -1.695617 -0.316627
  H 4.884184 -2.016034 -0.396041
  H 6.869240 -0.436717 -1.093425
 11
 12.051947
  H 1.680328 0.715356 -0.243281
  C 2.700596 0.411176 -0.402432
  H 3.437192 1.197229 -0.380002
  C 3.087866 -0.894909 -0.441106
  C 4.372253 -1.239739 -0.884145
  C 5.054703 -0.334222 -1.713018
  H 4.486807 0.172838 -2.494301
  O 6.280481 0.001007 -1.694863
  H 2.425922 -1.670941 -0.080228
  H 4.801209 -2.202747 -0.643012
  H 6.846493 -0.378280 -0.984366
 11
 19.985862
  H 1.776327 0.760319 -0.532874
  C 2.798077 0.421431 -0.480068
  H 3.541706 1.176898 -0.292611
  C 3.119438 -0.915180 -0.419560
  C 4.368634 -1.317997 -0.867292
  C 5.023596 -0.369243 -1.695927
  H 4.479143 0.012423 -2.560925
  O 6.191599 0.106198 -1.597428
  H 2.409614 -1.633321 -0.029352
  H 4.778834 -2.300451 -0.690250
  H 6.752364 -0.189786 -0.843098
 11
 28.279969
  H 1.933481 0.773022 -0.846750
  C 2.915281 0.411232 -0.581237
  H 3.617269 1.154276 -0.245085
  C 3.153744 -0.954885 -0.399623
  C 4.368339 -1.390487 -0.847660
  C 4.972882 -0.365709 -1.662033
  H 4.473774 -0.081757 -2.587762
  O 6.086813 0.206148 -1.491791
  H 2.396816 -1.610347 0.010941
  H 4.791882 -2.372584 -0.719685
  H 6.617688 -0.050112 -0.701822
 11
 33.078788
  H 2.167986 0.744172 -1.161343
  C 3.059629 0.369965 -0.676923
  H 3.657581 1.110362 -0.169961
  C 3.185889 -1.023437 -0.376451
  C 4.365356 -1.453796 -0.853681
  C 4.889112 -0.313364 -1.616382
  H 4.447921 -0.082195 -2.583876
  O 5.972085 0.320655 -1.379276
  H 2.395538 -1.625902 0.047013
  H 4.817815 -2.428420 -0.799417
  H 6.479210 0.055510 -0.578929
 11
 31.925010
  H 2.335058 0.690131 -1.348889
  C 3.168186 0.316134 -0.766496
  H 3.661929 1.064152 -0.159886
  C 3.206042 -1.083424 -0.393756
  C 4.385533 -1.493407 -0.868483
  C 4.831164 -0.263143 -1.568108
  H 4.463895 -0.063428 -2.575450
  O 5.887982 0.422595 -1.263076
  H 2.391343 -1.667962 0.003297
  H 4.871779 -2.451506 -0.846295
  H 6.370508 0.144170 -0.455344
 11
 27.666287
  H 2.524628 0.724842 -1.439443
  C 3.283048 0.305007 -0.788840
  H 3.658514 1.027295 -0.067358
  C 3.191121 -1.100946 -0.365583
  C 4.354863 -1.515293 -0.884360
  C 4.740298 -0.248784 -1.546613
  H 4.408341 -0.080780 -2.578717
  O 5.832340 0.440372 -1.276854
  H 2.374632 -1.638148 0.082367
  H 4.875027 -2.455183 -0.840483
  H 6.365163 0.124577 -0.518571
 11
 21.976010
  H 2.593950 0.641389 -1.624058
  C 3.274746 0.282741 -0.859487
  H 3.310922 0.992166 -0.033504
  C 3.210912 -1.137839 -0.461523
  C 4.386748 -1.541528 -0.997185
  C 4.709859 -0.170660 -1.475512
  H 4.573837 -0.067193 -2.569390
  O 5.779849 0.537997 -1.098981
  H 2.539060 -1.617131 0.233862
  H 4.943916 -2.457099 -0.967868
  H 6.407200 0.074131 -0.512963
