28

C 0.972154 0.141763 0.400385
C 2.450911 0.139075 0.393808
C 3.234667 0.609825 1.563557
C 2.457594 1.095616 2.78453
C 3.407556 1.541393 3.891683
C 3.062286 -0.325762 -0.761959
C 4.44153 -0.412074 -0.977236
C 5.119203 -0.862864 -2.099749
C 4.625044 -1.386641 -3.404122
C 3.13404 -1.504721 -3.699004
H 2.9761993768405475 -1.8990750642951022 -4.68107895113895
H 6.189140766838095 -0.8584893020842876 -2.089070183976925
H 0.543115 0.519187 1.321745
H 0.587366 -0.867501 0.24401
H 0.59981 0.75705 -0.420066
H 3.887793 1.424893 1.231074
H 3.893229 -0.205858 1.883445
H 1.822234 0.296317 3.171288
H 1.817025 1.937752 2.515083
H 4.04613 0.720912 4.212853
H 2.842305 1.884822 4.755145
H 4.040843 2.360639 3.557116
H 2.402432 -0.64338 -1.551381
H 5.058757 -0.079624 -0.15042
H 5.080839 -2.375633 -3.52935
H 5.081226 -0.75922 -4.178605
H 2.658741 -0.524226 -3.645822
H 2.658337 -2.175885 -2.982511
