 20
 0.000000
  C 1.008029 -0.071120 0.048652
  C 2.504090 -0.082208 0.026351
  C 3.218535 -0.595639 -0.980860
  C 4.656574 -0.606735 -1.003188
  C 5.375368 -1.122794 -2.015543
  C 6.814407 -1.131631 -2.033885
  C 7.534739 -1.642236 -3.037528
  C 9.025254 -1.660730 -3.072302
  H 0.646840 0.395735 0.964372
  H 0.612188 -1.086095 0.011078
  H 0.611889 0.494446 -0.794842
  H 3.005162 0.353613 0.880891
  H 2.706172 -1.029340 -1.831227
  H 5.162360 -0.171611 -0.150000
  H 4.870904 -1.557946 -2.869351
  H 7.320047 -0.696938 -1.180082
  H 7.037923 -2.078618 -3.895324
  H 9.457789 -1.208153 -2.181409
  H 9.386686 -1.114324 -3.945144
  H 9.384443 -2.688655 -3.144109
 20
 0.320038
  C 1.004535 -0.031869 0.028942
  C 2.502131 -0.056766 0.016347
  C 3.228894 -0.641666 -0.940820
  C 4.662989 -0.664214 -0.958146
  C 5.393184 -1.243614 -1.926751
  C 6.826613 -1.224059 -1.974898
  C 7.540050 -1.720299 -2.987990
  C 9.021875 -1.625406 -3.101351
  H 0.627634 0.506254 0.896129
  H 0.604022 -1.046885 0.051011
  H 0.620392 0.450535 -0.872157
  H 3.005724 0.433345 0.839775
  H 2.727906 -1.132709 -1.766732
  H 5.165041 -0.178178 -0.130148
  H 4.889836 -1.733095 -2.752732
  H 7.334302 -0.754418 -1.139792
  H 7.029254 -2.191509 -3.820772
  H 9.483948 -1.487236 -2.126422
  H 9.280051 -0.764210 -3.727290
  H 9.435523 -2.515638 -3.572025
 20
 1.378065
  C 1.010959 0.027699 -0.027212
  C 2.504167 -0.037823 -0.002230
  C 3.237066 -0.663269 -0.927926
  C 4.671053 -0.718555 -0.914082
  C 5.408007 -1.335305 -1.855000
  C 6.839279 -1.288787 -1.921413
  C 7.541004 -1.787163 -2.943115
  C 8.999860 -1.550723 -3.148597
  H 0.626340 0.548521 0.845308
  H 0.582752 -0.974384 -0.049843
  H 0.665485 0.549494 -0.920121
  H 3.000766 0.458806 0.820643
  H 2.742436 -1.161550 -1.752966
  H 5.166988 -0.226346 -0.086479
  H 4.908977 -1.837984 -2.674815
  H 7.350429 -0.768670 -1.120769
  H 7.027955 -2.336592 -3.721665
  H 9.549453 -1.573033 -2.210122
  H 9.111947 -0.557222 -3.586014
  H 9.428295 -2.277386 -3.833716
 20
 4.938312
  C 1.034816 0.110560 -0.108053
  C 2.519392 -0.036650 -0.013930
  C 3.260540 -0.690146 -0.913805
  C 4.685983 -0.826551 -0.833408
  C 5.434158 -1.444549 -1.766367
  C 6.861228 -1.400513 -1.831368
  C 7.558057 -1.893516 -2.863027
  C 8.930662 -1.429901 -3.220923
  H 0.636315 0.630628 0.758672
  H 0.555317 -0.865690 -0.178286
  H 0.761586 0.672227 -1.001944
  H 3.001511 0.413670 0.843429
  H 2.779256 -1.143001 -1.772321
  H 5.167863 -0.393100 0.034486
  H 4.938540 -1.901845 -2.614983
  H 7.375303 -0.849387 -1.052928
  H 7.089009 -2.602643 -3.532351
  H 9.612208 -1.441486 -2.372396
  H 8.814779 -0.400523 -3.561721
  H 9.356697 -2.017857 -4.028910
 20
 13.026498
  C 1.074329 0.185687 -0.182796
  C 2.541492 -0.048843 -0.019526
  C 3.295886 -0.692307 -0.917028
  C 4.701599 -0.921326 -0.768184
  C 5.464430 -1.531208 -1.699400
  C 6.885084 -1.520252 -1.737953
  C 7.596090 -1.997648 -2.778774
  C 8.817963 -1.309978 -3.289533
  H 0.656179 0.678781 0.690431
  H 0.548582 -0.756959 -0.334585
  H 0.880713 0.809934 -1.055863
  H 2.998097 0.321380 0.888532
  H 2.838634 -1.062740 -1.826807
  H 5.162763 -0.557705 0.142081
  H 4.973287 -1.929541 -2.580203
  H 7.399523 -0.980885 -0.949457
  H 7.242077 -2.863210 -3.322878
  H 9.588319 -1.175311 -2.531215
  H 8.459923 -0.332290 -3.613890
  H 9.248251 -1.825850 -4.143087
 20
 26.119449
  C 1.108053 0.240349 -0.238212
  C 2.557481 -0.056136 -0.027014
  C 3.333103 -0.658249 -0.938281
  C 4.716199 -0.954021 -0.746464
  C 5.496363 -1.539036 -1.689169
  C 6.901702 -1.609847 -1.670550
  C 7.641102 -2.069348 -2.723352
  C 8.694324 -1.220479 -3.349826
  H 0.664450 0.682818 0.649493
  H 0.560156 -0.669675 -0.483308
  H 0.975399 0.932649 -1.070617
  H 2.984003 0.231745 0.924271
  H 2.902252 -0.945770 -1.890173
  H 5.157068 -0.664093 0.199449
  H 5.015927 -1.858397 -2.607491
  H 7.416970 -1.155421 -0.828278
  H 7.432547 -3.036217 -3.161072
  H 9.481757 -0.916546 -2.658624
  H 8.149194 -0.335357 -3.684008
  H 9.150899 -1.700332 -4.210795
 20
 43.195613
  C 1.113052 0.244084 -0.258149
  C 2.550606 -0.080120 -0.013687
  C 3.362325 -0.612521 -0.947126
  C 4.726878 -0.937869 -0.733047
  C 5.541841 -1.465000 -1.704790
  C 6.915490 -1.653910 -1.615434
  C 7.697412 -2.121849 -2.676402
  C 8.600032 -1.198442 -3.409810
  H 0.633868 0.611609 0.645223
  H 0.571033 -0.636625 -0.604404
  H 1.018202 1.006524 -1.032801
  H 2.942684 0.125825 0.972809
  H 2.960708 -0.813770 -1.933782
  H 5.143733 -0.735907 0.245763
  H 5.084499 -1.686436 -2.663090
  H 7.417705 -1.345940 -0.700536
  H 7.626357 -3.150280 -3.000249
  H 9.380789 -0.765951 -2.777253
  H 7.959234 -0.388538 -3.763089
  H 9.074157 -1.677709 -4.261576
 20
 61.074418
  C 1.127905 0.253446 -0.258724
  C 2.552597 -0.105595 0.005093
  C 3.390577 -0.580020 -0.950444
  C 4.732268 -0.920834 -0.735461
  C 5.577933 -1.396389 -1.744030
  C 6.892896 -1.707175 -1.575577
  C 7.767027 -2.148823 -2.639141
  C 8.501027 -1.170649 -3.472880
  H 0.624728 0.562574 0.653707
  H 0.587418 -0.594003 -0.683307
  H 1.062803 1.070041 -0.981017
  H 2.921123 0.024682 1.012669
  H 3.005201 -0.705243 -1.955953
  H 5.136553 -0.804550 0.261139
  H 5.148922 -1.521157 -2.731871
  H 7.330726 -1.577728 -0.587920
  H 7.859972 -3.203230 -2.857403
  H 9.238351 -0.625403 -2.873677
  H 7.811385 -0.415401 -3.861526
  H 9.015772 -1.651543 -4.301593
 20
 40.480000
  C 1.155111 0.255771 -0.233137
  C 2.578781 -0.132795 -0.002424
  C 3.404149 -0.541787 -0.979010
  C 4.763048 -0.902673 -0.782818
  C 5.594027 -1.307203 -1.792463
  C 6.902491 -1.759718 -1.568212
  C 7.812327 -2.132408 -2.559203
  C 8.373140 -1.150312 -3.526004
  H 0.658887 0.502402 0.701503
  H 0.607442 -0.555430 -0.713801
  H 1.094227 1.122188 -0.893503
  H 2.948159 -0.074520 1.012136
  H 3.026378 -0.594319 -1.993558
  H 5.151677 -0.858867 0.226076
  H 5.211925 -1.346012 -2.803984
  H 7.225317 -1.825765 -0.531930
  H 8.107825 -3.166265 -2.663645
  H 9.052831 -0.494405 -2.977071
  H 7.625965 -0.479574 -3.951051
  H 8.929136 -1.637548 -4.322954
 20
 21.544773
  C 1.185818 0.280444 -0.247192
  C 2.603646 -0.135471 -0.022847
  C 3.427440 -0.526782 -1.002078
  C 4.789901 -0.910763 -0.801327
  C 5.619175 -1.296615 -1.797865
  C 6.909707 -1.850023 -1.550536
  C 7.863392 -2.114133 -2.482784
  C 8.258580 -1.137175 -3.539336
  H 0.690699 0.510028 0.692336
  H 0.628070 -0.510170 -0.749481
  H 1.141017 1.164350 -0.884502
  H 2.967599 -0.106562 0.995299
  H 3.060701 -0.555103 -2.021395
  H 5.158293 -0.897678 0.216362
  H 5.278305 -1.270634 -2.823600
  H 7.122283 -2.099334 -0.515328
  H 8.376837 -3.065716 -2.480465
  H 8.874784 -0.375403 -3.054530
  H 7.420148 -0.584771 -3.957286
  H 8.846448 -1.597731 -4.328497
 20
 8.498113
  C 1.219874 0.335012 -0.221147
  C 2.624456 -0.128895 -0.012234
  C 3.437322 -0.500100 -0.999517
  C 4.793602 -0.947238 -0.804304
  C 5.619836 -1.308482 -1.805159
  C 6.911286 -1.905449 -1.564794
  C 7.911872 -2.038086 -2.446296
  C 8.149293 -1.133218 -3.605542
  H 0.727619 0.535110 0.726658
  H 0.642865 -0.416375 -0.760296
  H 1.202869 1.247936 -0.817462
  H 2.981237 -0.161755 1.007911
  H 3.081209 -0.465781 -2.023281
  H 5.149080 -0.990104 0.218919
  H 5.302301 -1.230170 -2.834945
  H 7.050794 -2.313408 -0.568265
  H 8.639763 -2.828697 -2.307229
  H 8.683314 -0.253624 -3.232804
  H 7.227898 -0.749726 -4.036971
  H 8.766356 -1.599843 -4.370282
 20
 4.453970
  C 1.296570 0.419185 -0.241496
  C 2.687180 -0.085252 -0.027452
  C 3.468297 -0.544766 -1.002786
  C 4.806885 -1.031943 -0.799721
  C 5.602765 -1.468355 -1.787189
  C 6.925088 -2.019742 -1.568679
  C 7.956768 -1.921194 -2.412999
  C 7.971748 -1.047703 -3.618946
  H 0.817041 0.660007 0.703211
  H 0.692178 -0.325482 -0.758899
  H 1.306960 1.317386 -0.859864
  H 3.061973 -0.066071 0.986908
  H 3.095948 -0.565160 -2.020060
  H 5.176095 -1.021455 0.219040
  H 5.232531 -1.451044 -2.805141
  H 7.058821 -2.554515 -0.634833
  H 8.872423 -2.459874 -2.205434
  H 8.429527 -0.091374 -3.354917
  H 6.959522 -0.831063 -3.949891
  H 8.554473 -1.483149 -4.427186
 20
 6.402834
  C 1.370068 0.485999 -0.279652
  C 2.773875 0.005482 -0.089593
  C 3.482503 -0.611616 -1.034064
  C 4.838418 -1.075861 -0.852278
  C 5.563267 -1.661447 -1.815468
  C 6.902578 -2.178131 -1.616765
  C 7.931789 -1.876733 -2.393475
  C 7.840774 -0.853679 -3.504401
  H 0.957635 0.868945 0.649838
  H 0.731650 -0.321274 -0.637513
  H 1.336501 1.282988 -1.023866
  H 3.222092 0.181798 0.879198
  H 3.037525 -0.791042 -2.005842
  H 5.283863 -0.898455 0.120147
  H 5.114205 -1.837572 -2.785429
  H 7.034414 -2.844285 -0.771054
  H 8.894946 -2.349521 -2.237544
  H 8.271680 0.092960 -3.165055
  H 6.786481 -0.674175 -3.724972
  H 8.380376 -1.167550 -4.399662
 20
 14.910812
  C 1.365019 0.507752 -0.327879
  C 2.772004 0.043032 -0.132019
  C 3.499147 -0.553309 -1.084143
  C 4.841501 -0.997286 -0.898067
  C 5.602179 -1.586591 -1.913127
  C 6.961462 -2.098114 -1.695103
  C 7.984921 -1.781695 -2.485010
  C 7.825948 -0.773356 -3.565981
  H 0.937175 0.866119 0.604355
  H 0.741353 -0.300675 -0.709609
  H 1.328497 1.319133 -1.056017
  H 3.210622 0.211093 0.841981
  H 3.062231 -0.723192 -2.060431
  H 5.299402 -0.840344 0.066686
  H 5.135789 -1.744633 -2.873656
  H 7.100288 -2.752318 -0.847335
  H 8.956616 -2.214755 -2.342513
  H 8.216814 0.188680 -3.266391
  H 6.614041 -0.629848 -3.700606
  H 8.279734 -1.061007 -4.499395
 20
 2.083639
  C 1.231872 0.407079 -0.230109
  C 2.614731 -0.121037 -0.033742
  C 3.440364 -0.441863 -1.033086
  C 4.777065 -0.933869 -0.844234
  C 5.612467 -1.242830 -1.849863
  C 6.950092 -1.735645 -1.627823
  C 7.970872 -1.702478 -2.488292
  C 7.986086 -1.069445 -3.838066
  H 0.650936 0.334055 0.686402
  H 0.716389 -0.138899 -1.019143
  H 1.266627 1.457159 -0.525929
  H 2.951919 -0.228933 0.988499
  H 3.105421 -0.335160 -2.056505
  H 5.109310 -1.049574 0.179886
  H 5.280659 -1.118572 -2.871383
  H 7.122618 -2.161167 -0.645944
  H 8.916572 -2.133655 -2.186577
  H 8.721300 -0.263320 -3.848486
  H 7.022665 -0.649818 -4.104735
  H 8.286783 -1.793342 -4.595128
