 14
 0.000000
  H 1.432080 -0.076183 0.038502
  C 2.505896 -0.082610 0.025885
  C 3.220251 -0.593277 -0.976642
  C 4.658611 -0.604917 -0.999493
  C 5.378094 -1.120230 -2.011138
  C 6.816027 -1.131833 -2.033910
  C 7.530080 -1.642403 -3.036250
  H 8.603711 -1.654541 -3.060078
  H 3.002097 0.352557 0.880192
  H 2.711288 -1.027049 -1.828201
  H 5.165847 -0.170500 -0.146663
  H 4.872841 -1.554693 -2.864059
  H 7.323119 -0.697578 -1.181397
  H 7.034602 -2.078090 -3.891566
 14
 1.419913
  H 1.458659 0.053576 0.012672
  C 2.526702 -0.069152 0.019923
  C 3.204109 -0.642844 -0.974519
  C 4.640154 -0.635548 -1.014344
  C 5.375774 -1.157625 -2.006250
  C 6.814938 -1.119499 -2.040732
  C 7.544629 -1.632979 -3.027556
  H 8.620389 -1.602813 -3.020222
  H 3.025199 0.267479 0.915199
  H 2.683775 -1.113169 -1.797933
  H 5.101233 -0.040008 -0.239497
  H 4.883189 -1.645727 -2.838280
  H 7.301870 -0.647734 -1.195705
  H 7.084479 -2.107434 -3.878186
 14
 3.999227
  H 1.502967 0.185112 0.035458
  C 2.555212 -0.056510 0.026210
  C 3.189354 -0.671014 -0.974634
  C 4.627142 -0.686791 -1.010162
  C 5.366534 -1.156931 -2.024182
  C 6.809762 -1.120074 -2.046272
  C 7.547830 -1.624993 -3.031647
  H 8.621384 -1.613707 -3.004088
  H 3.061824 0.159351 0.953948
  H 2.646570 -1.103786 -1.802851
  H 5.063697 -0.073812 -0.225274
  H 4.876840 -1.580541 -2.893813
  H 7.290092 -0.656923 -1.191455
  H 7.095426 -2.080672 -3.895945
 14
 13.875487
  H 1.592421 0.336233 -0.011848
  C 2.612974 -0.015271 0.028464
  C 3.179570 -0.738910 -0.947951
  C 4.609921 -0.708199 -1.031529
  C 5.362626 -1.164304 -2.050169
  C 6.799622 -1.135980 -2.037579
  C 7.559106 -1.608641 -3.024913
  H 8.632865 -1.627204 -2.960800
  H 3.066876 0.077237 1.000853
  H 2.593469 -1.262186 -1.690616
  H 4.975340 -0.006690 -0.291287
  H 4.890105 -1.485375 -2.970052
  H 7.261419 -0.723712 -1.149318
  H 7.124826 -2.005856 -3.927956
 14
 26.018836
  H 1.649550 0.373074 0.057916
  C 2.664241 -0.015580 0.069265
  C 3.171347 -0.743275 -0.952370
  C 4.586913 -0.678638 -1.075182
  C 5.343665 -1.169810 -2.080294
  C 6.789443 -1.176969 -2.030002
  C 7.566020 -1.547348 -3.047812
  H 8.640874 -1.580234 -2.965351
  H 3.101678 -0.014816 1.050507
  H 2.566033 -1.391351 -1.576350
  H 4.913983 0.089815 -0.376739
  H 4.889704 -1.446767 -3.025950
  H 7.237686 -0.919689 -1.074247
  H 7.148885 -1.830942 -3.998121
 14
 43.541779
  H 1.823262 0.614308 -0.040976
  C 2.774990 0.085447 0.005965
  C 3.118863 -0.871275 -0.912036
  C 4.528170 -0.821375 -1.091787
  C 5.340623 -1.170768 -2.116697
  C 6.772863 -1.159607 -2.010461
  C 7.594974 -1.507642 -3.003276
  H 8.654142 -1.649091 -2.847001
  H 3.150827 0.034694 1.011086
  H 2.425038 -1.519387 -1.434958
  H 4.763363 0.029533 -0.429150
  H 4.924017 -1.413936 -3.087474
  H 7.178130 -0.968685 -1.021179
  H 7.225454 -1.705516 -3.993134
 14
 61.828315
  H 2.085652 0.807766 -0.074687
  C 2.911653 0.103136 0.012512
  C 3.065839 -0.960836 -0.898467
  C 4.416200 -0.923668 -1.200804
  C 5.294334 -1.262604 -2.177488
  C 6.711148 -1.233206 -1.973603
  C 7.609403 -1.448873 -2.940875
  H 8.664203 -1.506560 -2.736933
  H 3.289521 0.014418 1.011541
  H 2.283307 -1.584760 -1.310598
  H 4.625595 -0.033885 -0.495639
  H 4.955617 -1.307263 -3.208704
  H 7.048109 -1.061843 -0.953366
  H 7.309450 -1.584437 -3.965162
 14
 71.999457
  H 2.236585 0.842645 -0.020993
  C 3.045743 0.116755 -0.002455
  C 3.040257 -1.011402 -0.912707
  C 4.320901 -0.977062 -1.320326
  C 5.263854 -1.246658 -2.240562
  C 6.669243 -1.247275 -1.958534
  C 7.615442 -1.412530 -2.884756
  H 8.660870 -1.445437 -2.632177
  H 3.442983 -0.040733 0.989895
  H 2.218061 -1.640912 -1.204310
  H 4.446550 0.087748 -0.524899
  H 4.976657 -1.298501 -3.287354
  H 6.950059 -1.135686 -0.916906
  H 7.367773 -1.529899 -3.927273
 14
 59.792906
  H 2.308880 0.842894 -0.037671
  C 3.105122 0.135462 -0.002794
  C 3.063007 -1.069758 -0.889417
  C 4.292674 -1.072183 -1.390467
  C 5.250509 -1.284543 -2.261174
  C 6.652359 -1.291605 -1.960347
  C 7.612673 -1.399134 -2.875726
  H 8.654402 -1.419008 -2.605622
  H 3.479740 -0.002026 1.006835
  H 2.196945 -1.652755 -1.170848
  H 4.294481 0.230792 -0.398958
  H 4.994235 -1.282236 -3.323114
  H 6.922926 -1.179588 -0.925102
  H 7.394471 -1.451314 -3.930172
 14
 32.881558
  H 2.252639 0.767616 0.021097
  C 3.142353 0.157992 0.016664
  C 3.120827 -1.087694 -0.842066
  C 4.244578 -1.119820 -1.504891
  C 5.241546 -1.279297 -2.344163
  C 6.641957 -1.317643 -1.981750
  C 7.632387 -1.416423 -2.863882
  H 8.662790 -1.448450 -2.559880
  H 3.514498 -0.031151 1.027970
  H 2.257251 -1.703938 -1.010280
  H 4.114306 0.511465 -0.392829
  H 5.024407 -1.199767 -3.407420
  H 6.864145 -1.258972 -0.922216
  H 7.445050 -1.426943 -3.924576
 14
 19.536045
  H 2.098293 0.639286 0.092658
  C 3.082003 0.186644 0.048718
  C 3.194856 -1.040043 -0.816832
  C 4.272586 -1.055974 -1.545045
  C 5.262517 -1.204741 -2.389959
  C 6.645683 -1.397819 -2.012410
  C 7.647924 -1.446070 -2.885075
  H 8.669737 -1.589624 -2.573153
  H 3.468695 0.004387 1.056409
  H 2.404373 -1.774261 -0.875664
  H 3.912101 0.772209 -0.366282
  H 5.069789 -1.075486 -3.452168
  H 6.843862 -1.500856 -0.952723
  H 7.481803 -1.338233 -3.944063
 14
 12.200363
  H 1.962682 0.422063 0.192703
  C 3.014952 0.185995 0.080146
  C 3.274403 -1.031857 -0.762699
  C 4.301359 -1.004380 -1.558565
  C 5.280201 -1.144282 -2.419881
  C 6.655511 -1.410539 -2.047715
  C 7.652881 -1.461542 -2.920862
  H 8.666107 -1.662864 -2.617367
  H 3.469123 0.064840 1.068229
  H 2.589747 -1.868169 -0.724539
  H 3.615077 0.964008 -0.396178
  H 5.091323 -0.970073 -3.474481
  H 6.841435 -1.573466 -0.993710
  H 7.489663 -1.305574 -3.975192
 14
 9.395746
  H 1.851197 0.180421 0.312929
  C 2.916576 0.215156 0.109658
  C 3.350662 -0.946752 -0.737198
  C 4.375662 -0.913977 -1.528349
  C 5.332625 -1.061894 -2.406492
  C 6.682734 -1.465495 -2.066344
  C 7.664885 -1.560432 -2.955891
  H 8.656785 -1.873493 -2.679094
  H 3.447965 0.208551 1.062900
  H 2.772739 -1.860120 -0.659177
  H 3.187819 1.128450 -0.410290
  H 5.160458 -0.781683 -3.439790
  H 6.859979 -1.699371 -1.024707
  H 7.509137 -1.329825 -3.997508
 14
 8.421100
  H 1.883462 0.241683 0.254880
  C 2.959778 0.220344 0.100333
  C 3.343265 -0.967560 -0.734943
  C 4.332334 -0.996809 -1.572449
  C 5.317612 -1.066906 -2.428008
  C 6.664116 -1.468104 -2.070872
  C 7.663991 -1.530610 -2.941721
  H 8.654682 -1.834380 -2.650661
  H 3.441934 0.161641 1.076670
  H 2.741373 -1.858735 -0.594724
  H 3.269463 1.145436 -0.379522
  H 5.149746 -0.802691 -3.465908
  H 6.822078 -1.724956 -1.031485
  H 7.525390 -1.278817 -3.980943
