 20
 0.000000
  C 1.007756 -0.070919 0.048335
  C 2.503605 -0.082763 0.025133
  C 3.218808 -0.596455 -0.981079
  C 4.656208 -0.607142 -1.002656
  C 5.377329 -1.122048 -2.014101
  C 6.815441 -1.131386 -2.032419
  C 7.534721 -1.641824 -3.036556
  C 9.024705 -1.661179 -3.073205
  H 0.647824 0.397101 0.963559
  H 0.610832 -1.085298 0.012592
  H 0.610913 0.493169 -0.795484
  H 3.004895 0.353659 0.878926
  H 2.707507 -1.030482 -1.831629
  H 5.160617 -0.171994 -0.148910
  H 4.873818 -1.556863 -2.868425
  H 7.321226 -0.697479 -1.178610
  H 7.036872 -2.076892 -3.894037
  H 9.457381 -1.209072 -2.182501
  H 9.384868 -1.114309 -3.945976
  H 9.384071 -2.688804 -3.146407
 20
 0.747986
  C 1.005537 -0.170712 -0.031069
  C 2.492777 -0.057420 0.046763
  C 3.282460 -0.493005 -0.928769
  C 4.712811 -0.469311 -0.915318
  C 5.431979 -0.990586 -1.917654
  C 6.858014 -1.056755 -1.977669
  C 7.493469 -1.637874 -2.996586
  C 8.971184 -1.750631 -3.136995
  H 0.529806 0.204307 0.875906
  H 0.724926 -1.213917 -0.165884
  H 0.613995 0.392439 -0.883941
  H 2.918191 0.375169 0.945612
  H 2.825856 -0.930499 -1.810452
  H 5.201967 -0.039197 -0.049349
  H 4.908474 -1.416791 -2.761419
  H 7.415727 -0.623382 -1.154053
  H 6.901691 -2.070216 -3.796818
  H 9.481070 -1.293077 -2.293447
  H 9.301720 -1.261821 -4.053752
  H 9.267068 -2.797994 -3.199383
 20
 1.958013
  C 1.009543 -0.267626 -0.101824
  C 2.483404 -0.053233 0.077067
  C 3.334808 -0.398298 -0.885850
  C 4.758855 -0.338560 -0.845639
  C 5.478810 -0.870806 -1.851832
  C 6.896879 -0.977612 -1.948304
  C 7.454309 -1.639678 -2.965338
  C 8.914164 -1.839511 -3.179883
  H 0.448732 -0.037205 0.798317
  H 0.838105 -1.310001 -0.377458
  H 0.629632 0.349813 -0.912780
  H 2.833009 0.351274 1.015683
  H 2.922621 -0.812514 -1.796486
  H 5.234019 0.094404 0.021689
  H 4.936909 -1.299780 -2.685608
  H 7.500692 -0.529919 -1.170904
  H 6.786300 -2.075195 -3.693959
  H 9.492940 -1.367228 -2.391045
  H 9.216563 -1.418346 -4.138914
  H 9.151825 -2.903301 -3.202429
 20
 4.002521
  C 1.041646 -0.377777 -0.168546
  C 2.475743 -0.058058 0.094536
  C 3.371846 -0.298061 -0.860709
  C 4.804074 -0.204671 -0.801685
  C 5.514022 -0.738849 -1.806821
  C 6.929298 -0.901095 -1.929889
  C 7.411439 -1.641796 -2.933500
  C 8.842014 -1.929735 -3.200743
  H 0.420882 -0.290180 0.727622
  H 0.988703 -1.396047 -0.554141
  H 0.633062 0.292122 -0.943909
  H 2.758917 0.309634 1.076447
  H 2.989484 -0.688619 -1.803407
  H 5.275609 0.215986 0.079230
  H 4.951054 -1.158766 -2.636171
  H 7.578949 -0.451326 -1.191367
  H 6.680078 -2.081201 -3.605712
  H 9.481875 -1.447285 -2.464349
  H 9.118908 -1.575537 -4.194427
  H 9.023958 -3.004448 -3.175490
 20
 6.469676
  C 1.087971 -0.491540 -0.227375
  C 2.483193 -0.068779 0.100715
  C 3.406166 -0.191724 -0.853523
  C 4.833571 -0.064956 -0.778634
  C 5.540719 -0.601744 -1.787824
  C 6.946689 -0.833764 -1.918159
  C 7.358175 -1.643236 -2.899936
  C 8.761317 -2.020531 -3.201849
  H 0.444567 -0.549717 0.651902
  H 1.156614 -1.470798 -0.704809
  H 0.632582 0.202940 -0.947744
  H 2.718616 0.246533 1.109115
  H 3.050856 -0.552494 -1.819091
  H 5.296858 0.327888 0.117122
  H 4.965016 -1.002298 -2.618111
  H 7.633502 -0.394301 -1.208193
  H 6.574007 -2.075857 -3.521824
  H 9.451505 -1.538554 -2.513280
  H 9.018503 -1.730036 -4.219107
  H 8.888451 -3.100598 -3.129838
 20
 9.179352
  C 1.158616 -0.615630 -0.290468
  C 2.504660 -0.097952 0.097081
  C 3.439097 -0.090088 -0.848995
  C 4.862607 0.048043 -0.754708
  C 5.559357 -0.474388 -1.775407
  C 6.953041 -0.748547 -1.931361
  C 7.293108 -1.633963 -2.870416
  C 8.663207 -2.115177 -3.178941
  H 0.523369 -0.820744 0.564874
  H 1.328098 -1.526849 -0.851708
  H 0.641730 0.095473 -0.945063
  H 2.703025 0.154602 1.126563
  H 3.101035 -0.376948 -1.844690
  H 5.320873 0.415308 0.149700
  H 4.969295 -0.848276 -2.605583
  H 7.674865 -0.307135 -1.262303
  H 6.463618 -2.058333 -3.440359
  H 9.399966 -1.634123 -2.536512
  H 8.910980 -1.903202 -4.220822
  H 8.727365 -3.196178 -3.042003
 20
 12.015991
  C 1.251251 -0.753396 -0.336894
  C 2.555416 -0.161397 0.085385
  C 3.458610 0.037091 -0.873775
  C 4.876897 0.196241 -0.781190
  C 5.561934 -0.309290 -1.816385
  C 6.942061 -0.673229 -1.952130
  C 7.219722 -1.630300 -2.836959
  C 8.551473 -2.220846 -3.116469
  H 0.665235 -1.116223 0.501105
  H 1.502605 -1.592578 -1.006695
  H 0.651897 -0.035154 -0.893145
  H 2.762161 -0.017595 1.134274
  H 3.114722 -0.150315 -1.885055
  H 5.339773 0.511635 0.142044
  H 4.963894 -0.635932 -2.660660
  H 7.691878 -0.245321 -1.302389
  H 6.359461 -2.033434 -3.374691
  H 9.319745 -1.754185 -2.506680
  H 8.808198 -2.090346 -4.167944
  H 8.542636 -3.293122 -2.913640
 20
 15.290431
  C 1.375438 -0.902604 -0.388884
  C 2.632368 -0.226151 0.049617
  C 3.468058 0.166364 -0.903761
  C 4.887670 0.342367 -0.810596
  C 5.557634 -0.154683 -1.856854
  C 6.908121 -0.611393 -1.966279
  C 7.122962 -1.630691 -2.795553
  C 8.424115 -2.317519 -3.037755
  H 0.855195 -1.389754 0.434368
  H 1.682905 -1.659721 -1.125569
  H 0.691169 -0.204421 -0.869590
  H 2.879371 -0.194624 1.097933
  H 3.105643 0.071071 -1.922217
  H 5.357196 0.607904 0.125849
  H 4.950512 -0.451308 -2.707756
  H 7.685973 -0.197415 -1.337462
  H 6.233935 -2.019773 -3.318328
  H 9.220853 -1.862148 -2.452759
  H 8.686826 -2.261936 -4.094283
  H 8.353693 -3.374014 -2.774907
 20
 17.829465
  C 1.520127 -1.060644 -0.441324
  C 2.749344 -0.334210 -0.008861
  C 3.465713 0.304960 -0.925342
  C 4.891634 0.475860 -0.856868
  C 5.531108 -0.000252 -1.929885
  C 6.858831 -0.542033 -2.012707
  C 7.014145 -1.641230 -2.745838
  C 8.276832 -2.411968 -2.915440
  H 1.088600 -1.653478 0.361283
  H 1.853528 -1.733910 -1.253115
  H 0.759200 -0.388035 -0.831008
  H 3.111385 -0.479762 0.999645
  H 3.045102 0.385538 -1.918235
  H 5.381681 0.684826 0.077007
  H 4.913548 -0.244629 -2.790051
  H 7.658217 -0.126811 -1.416502
  H 6.115878 -2.037114 -3.233857
  H 9.094176 -1.944889 -2.371267
  H 8.543907 -2.470565 -3.969758
  H 8.151081 -3.431624 -2.554238
 20
 20.822389
  C 1.665285 -1.212286 -0.490170
  C 2.867124 -0.434283 -0.081246
  C 3.463194 0.387557 -0.933305
  C 4.897485 0.551114 -0.897712
  C 5.508340 0.132788 -2.005950
  C 6.814459 -0.468128 -2.081437
  C 6.900684 -1.646318 -2.686208
  C 8.131100 -2.482486 -2.784849
  H 1.282572 -1.830710 0.315149
  H 2.013915 -1.862593 -1.312423
  H 0.865969 -0.575370 -0.865235
  H 3.348399 -0.707384 0.847006
  H 2.971524 0.619817 -1.873080
  H 5.414370 0.681166 0.039820
  H 4.885770 -0.046732 -2.875372
  H 7.647756 -0.034735 -1.546189
  H 5.979472 -2.071743 -3.113167
  H 8.976016 -1.988561 -2.313635
  H 8.373917 -2.674455 -3.829182
  H 7.974568 -3.446526 -2.303560
 20
 23.905422
  C 1.787240 -1.352380 -0.536041
  C 2.961075 -0.520448 -0.148448
  C 3.461248 0.420764 -0.938138
  C 4.901379 0.614503 -0.935774
  C 5.496293 0.230504 -2.064245
  C 6.792810 -0.412136 -2.140421
  C 6.804659 -1.655290 -2.604075
  C 8.003923 -2.540424 -2.675587
  H 1.433245 -1.972655 0.280823
  H 2.161881 -2.001295 -1.350280
  H 0.963195 -0.755165 -0.921972
  H 3.532917 -0.862748 0.702719
  H 2.914751 0.737159 -1.818310
  H 5.436390 0.713391 -0.004262
  H 4.866695 0.081545 -2.934603
  H 7.670588 0.049614 -1.705371
  H 5.848387 -2.099240 -2.920601
  H 8.891273 -2.023244 -2.318600
  H 8.175635 -2.865119 -3.704179
  H 7.850863 -3.432175 -2.072894
 20
 27.214292
  C 1.897532 -1.464060 -0.595149
  C 3.013718 -0.575570 -0.165660
  C 3.469509 0.410772 -0.933877
  C 4.906067 0.666273 -0.942739
  C 5.482746 0.263950 -2.079286
  C 6.783219 -0.376511 -2.205408
  C 6.737182 -1.668821 -2.520745
  C 7.904358 -2.588254 -2.608055
  H 1.527423 -2.086257 0.214955
  H 2.338582 -2.113959 -1.374969
  H 1.070000 -0.911479 -1.034678
  H 3.602212 -0.915816 0.673653
  H 2.904327 0.725191 -1.800668
  H 5.451473 0.802230 -0.020452
  H 4.820055 0.064207 -2.914765
  H 7.693811 0.119720 -1.914007
  H 5.742576 -2.107755 -2.679824
  H 8.831838 -2.057991 -2.406477
  H 7.961442 -3.034060 -3.601407
  H 7.800324 -3.401232 -1.890093
 20
 30.681876
  C 2.025609 -1.578783 -0.632652
  C 3.065636 -0.611626 -0.178941
  C 3.466767 0.404854 -0.939531
  C 4.897697 0.699119 -0.962503
  C 5.463683 0.299429 -2.104275
  C 6.750529 -0.377449 -2.229663
  C 6.656499 -1.684962 -2.446908
  C 7.798863 -2.635713 -2.548695
  H 1.641867 -2.198426 0.174721
  H 2.565314 -2.220654 -1.356958
  H 1.199099 -1.092580 -1.144175
  H 3.673441 -0.926861 0.656317
  H 2.884322 0.699787 -1.804039
  H 5.450454 0.843561 -0.046360
  H 4.794666 0.113047 -2.939958
  H 7.689555 0.123401 -2.044496
  H 5.645575 -2.115623 -2.505170
  H 8.747253 -2.113467 -2.450991
  H 7.777876 -3.150947 -3.509401
  H 7.731639 -3.393441 -1.769040
 20
 34.913328
  C 2.175615 -1.698570 -0.676923
  C 3.132751 -0.657861 -0.202391
  C 3.467051 0.400270 -0.943246
  C 4.893559 0.730816 -0.985099
  C 5.440893 0.339980 -2.140584
  C 6.706470 -0.379834 -2.257366
  C 6.567634 -1.698568 -2.371093
  C 7.684989 -2.680485 -2.469756
  H 1.804940 -2.336169 0.124410
  H 2.792262 -2.306091 -1.373085
  H 1.337707 -1.275115 -1.229157
  H 3.772172 -0.955246 0.612074
  H 2.858430 0.693682 -1.787798
  H 5.460381 0.848732 -0.075311
  H 4.756217 0.139135 -2.956228
  H 7.667495 0.107075 -2.178390
  H 5.544972 -2.119706 -2.364406
  H 8.646996 -2.175963 -2.453821
  H 7.602899 -3.253728 -3.394932
  H 7.644410 -3.385065 -1.643347
