 19
 0.000000
  C -3.685206 -0.518114 -0.225573
  C -2.230046 -0.804319 -0.473101
  C -1.895783 -0.962877 -1.944705
  C -1.190324 0.224802 0.073506
  C -1.734231 1.487128 0.644299
  O -0.024077 -0.001739 -0.001901
  H -4.276983 -1.357530 -0.595543
  H -4.033412 0.361174 -0.765741
  H -3.907984 -0.418439 0.834530
  H -1.957995 -1.720907 0.072964
  H -2.089683 -0.053883 -2.514587
  H -2.530044 -1.742049 -2.368074
  H -0.850780 -1.234286 -2.084029
  H -2.814907 1.519147 0.694539
  H -1.365310 2.304570 0.022084
  H -1.309723 1.600748 1.642748
  O 3.334943 -0.207920 0.027400
  H 3.601085 -0.003258 0.932652
  H 2.387287 -0.028589 -0.020754
 19
 -0.286397
  C -3.631138 -0.529088 -0.211227
  C -2.190553 -0.807966 -0.473736
  C -1.855085 -0.939862 -1.938005
  C -1.137421 0.229945 0.078027
  C -1.692510 1.491683 0.637540
  O 0.027892 -0.015602 -0.005447
  H -4.208903 -1.386840 -0.558375
  H -4.001728 0.322433 -0.772592
  H -3.846902 -0.424620 0.845533
  H -1.878368 -1.701600 0.084628
  H -2.083475 -0.032965 -2.498767
  H -2.482694 -1.724494 -2.365052
  H -0.808940 -1.191851 -2.087544
  H -2.769335 1.530840 0.684606
  H -1.313428 2.299911 0.016710
  H -1.261177 1.622376 1.625438
  O 3.078620 -0.221320 0.008615
  H 3.369521 -0.018883 0.908013
  H 2.121259 -0.058511 -0.028051
 19
 0.326815
  C -3.587204 -0.526251 -0.187091
  C -2.148222 -0.814098 -0.474050
  C -1.828617 -0.937360 -1.954442
  C -1.086312 0.219513 0.073466
  C -1.638255 1.478969 0.628676
  O 0.071320 -0.040938 -0.015946
  H -4.174233 -1.385689 -0.521438
  H -3.965245 0.327479 -0.746909
  H -3.785972 -0.416929 0.876312
  H -1.830562 -1.707371 0.076739
  H -2.063134 -0.030299 -2.504354
  H -2.460619 -1.714272 -2.380024
  H -0.788970 -1.191725 -2.122059
  H -2.718360 1.520851 0.675954
  H -1.256904 2.291062 0.003102
  H -1.204485 1.614942 1.622175
  O 2.861006 -0.199960 0.017241
  H 3.155330 0.004014 0.911727
  H 1.900873 -0.045694 -0.027406
 19
 3.106219
  C -3.564263 -0.534189 -0.180591
  C -2.125289 -0.822987 -0.482174
  C -1.831181 -0.934157 -1.955505
  C -1.039166 0.198461 0.061435
  C -1.559499 1.467075 0.617227
  O 0.119709 -0.076458 -0.033081
  H -4.150799 -1.387122 -0.511622
  H -3.944912 0.316185 -0.727159
  H -3.748971 -0.432323 0.875285
  H -1.816665 -1.735270 0.051995
  H -2.062641 -0.019447 -2.487473
  H -2.479399 -1.700105 -2.376500
  H -0.802486 -1.196804 -2.135365
  H -2.627790 1.527932 0.671976
  H -1.164775 2.276576 -0.017114
  H -1.112317 1.599415 1.614872
  O 2.689966 -0.144564 0.044778
  H 2.969980 0.063007 0.944170
  H 1.721696 -0.011620 -0.020707
 19
 7.977997
  C -3.535502 -0.516452 -0.155292
  C -2.098873 -0.831303 -0.477812
  C -1.817755 -0.936020 -1.974406
  C -1.014514 0.163695 0.050496
  C -1.510391 1.439908 0.607087
  O 0.140389 -0.135425 -0.055425
  H -4.147044 -1.362711 -0.480635
  H -3.909719 0.348663 -0.698090
  H -3.705938 -0.411385 0.911867
  H -1.798852 -1.747812 0.035103
  H -2.043037 -0.004001 -2.498371
  H -2.483520 -1.694474 -2.392779
  H -0.782080 -1.214753 -2.166915
  H -2.582986 1.518041 0.666821
  H -1.111576 2.237068 -0.022885
  H -1.064755 1.567164 1.592930
  O 2.571151 -0.079691 0.060824
  H 2.823333 0.136343 0.965583
  H 1.563621 -0.012130 -0.008689
 19
 14.607121
  C -3.512983 -0.489670 -0.142869
  C -2.099931 -0.857803 -0.492889
  C -1.852922 -0.951370 -2.005263
  C -0.977446 0.098761 0.029291
  C -1.398417 1.385831 0.602934
  O 0.166529 -0.264137 -0.106008
  H -4.159463 -1.308133 -0.468325
  H -3.859423 0.398016 -0.667076
  H -3.661851 -0.391263 0.929751
  H -1.826989 -1.802780 -0.004744
  H -2.052414 -0.005856 -2.504663
  H -2.554222 -1.677318 -2.416317
  H -0.837049 -1.267945 -2.221979
  H -2.468666 1.515467 0.687670
  H -0.977637 2.173125 -0.027557
  H -0.927659 1.490194 1.581795
  O 2.477279 0.119695 0.157612
  H 2.607519 0.390592 1.073817
  H 1.428418 -0.070286 -0.036983
 19
 20.727894
  C -3.466344 -0.479706 -0.124846
  C -2.075737 -0.871999 -0.495944
  C -1.865493 -0.956847 -2.024030
  C -0.964120 0.076872 0.016224
  C -1.352216 1.368720 0.588592
  O 0.173355 -0.318160 -0.132932
  H -4.131327 -1.285228 -0.442626
  H -3.797406 0.420153 -0.636238
  H -3.594263 -0.381182 0.948078
  H -1.819226 -1.826210 -0.036859
  H -2.059058 -0.007584 -2.504212
  H -2.580243 -1.666353 -2.418882
  H -0.868333 -1.287257 -2.265555
  H -2.418072 1.519732 0.678809
  H -0.918804 2.153835 -0.041651
  H -0.873663 1.473537 1.567491
  O 2.371541 0.189793 0.197162
  H 2.472090 0.435145 1.127036
  H 1.293760 -0.042489 -0.022740
 19
 23.567338
  C -3.475020 -0.473661 -0.106541
  C -2.069919 -0.895392 -0.509639
  C -1.890037 -0.964821 -2.049632
  C -0.940344 0.035579 -0.003968
  C -1.255554 1.341074 0.574112
  O 0.183881 -0.412961 -0.175535
  H -4.151542 -1.258150 -0.419437
  H -3.793985 0.430362 -0.597820
  H -3.585572 -0.380768 0.961165
  H -1.828438 -1.873451 -0.068684
  H -2.076315 -0.001366 -2.511989
  H -2.622254 -1.660152 -2.443428
  H -0.904915 -1.309637 -2.316311
  H -2.316171 1.546837 0.681643
  H -0.790020 2.112854 -0.060601
  H -0.753853 1.430270 1.549471
  O 2.295781 0.330813 0.281548
  H 2.353717 0.565465 1.210862
  H 1.165806 -0.009811 -0.005747
 19
 26.496075
  C -3.461644 -0.467512 -0.111411
  C -2.082376 -0.898261 -0.520155
  C -1.927318 -0.962275 -2.041810
  C -0.935035 0.006245 -0.023772
  C -1.202482 1.304439 0.555614
  O 0.193504 -0.454182 -0.202505
  H -4.156406 -1.241925 -0.426362
  H -3.771306 0.452075 -0.599713
  H -3.559838 -0.379302 0.964254
  H -1.857817 -1.879862 -0.099846
  H -2.103817 0.010463 -2.493026
  H -2.678027 -1.645539 -2.427817
  H -0.945986 -1.323066 -2.318825
  H -2.245376 1.535530 0.673323
  H -0.723899 2.060290 -0.073553
  H -0.691367 1.378149 1.515478
  O 2.298463 0.446809 0.354704
  H 2.333478 0.673875 1.294459
  H 1.082176 -0.012797 -0.016012
 19
 29.556913
  C -3.457959 -0.443070 -0.090027
  C -2.079034 -0.900642 -0.529022
  C -1.949446 -0.962268 -2.055787
  C -0.934379 -0.045725 -0.057909
  C -1.156423 1.258041 0.530110
  O 0.203491 -0.524880 -0.249907
  H -4.184122 -1.198353 -0.400262
  H -3.755449 0.487745 -0.568152
  H -3.534295 -0.356539 0.995941
  H -1.868372 -1.900579 -0.126539
  H -2.108291 0.012185 -2.499203
  H -2.718043 -1.626092 -2.434953
  H -0.973871 -1.342360 -2.349336
  H -2.220186 1.525385 0.667575
  H -0.658119 2.007662 -0.102123
  H -0.622674 1.315548 1.488756
  O 2.286165 0.587358 0.449253
  H 2.304951 0.787410 1.389892
  H 1.001841 -0.033731 -0.045035
 19
 34.006038
  C -3.475522 -0.433335 -0.084321
  C -2.101759 -0.901426 -0.534072
  C -1.983687 -0.964523 -2.072424
  C -0.944473 -0.072888 -0.075426
  C -1.127293 1.231341 0.512400
  O 0.202735 -0.565203 -0.275288
  H -4.211546 -1.169694 -0.387890
  H -3.765222 0.492543 -0.552411
  H -3.539518 -0.353482 0.989574
  H -1.898614 -1.915090 -0.149815
  H -2.132381 0.017137 -2.510425
  H -2.768141 -1.615654 -2.443678
  H -1.017950 -1.353266 -2.364027
  H -2.156981 1.513127 0.653622
  H -0.627678 1.966718 -0.117568
  H -0.596640 1.273808 1.459925
  O 2.366771 0.703307 0.546109
  H 2.414137 0.893510 1.487222
  H 0.942356 -0.056236 -0.057649
 19
 39.128886
  C -3.496055 -0.440070 -0.079616
  C -2.124199 -0.897156 -0.533400
  C -2.019348 -0.972911 -2.098796
  C -0.965738 -0.084914 -0.084289
  C -1.123557 1.230772 0.503939
  O 0.181385 -0.591283 -0.284494
  H -4.240176 -1.169647 -0.388596
  H -3.783676 0.494952 -0.551239
  H -3.552644 -0.354153 1.000310
  H -1.930990 -1.919750 -0.166182
  H -2.161477 0.013272 -2.536681
  H -2.814513 -1.620134 -2.463514
  H -1.052067 -1.365567 -2.393520
  H -2.156065 1.524677 0.646399
  H -0.619463 1.966968 -0.130266
  H -0.593445 1.270254 1.456370
  O 2.518034 0.769186 0.628352
  H 2.602206 0.947544 1.569919
  H 0.892251 -0.083057 -0.077063
 19
 43.051037
  C -3.532264 -0.449529 -0.085811
  C -2.158867 -0.902182 -0.548115
  C -2.056289 -0.979413 -2.115791
  C -1.002784 -0.097386 -0.095649
  C -1.142326 1.230774 0.485003
  O 0.139241 -0.616016 -0.292700
  H -4.280489 -1.175613 -0.391721
  H -3.818249 0.499667 -0.545479
  H -3.577153 -0.361946 0.998441
  H -1.974608 -1.920173 -0.186345
  H -2.196603 0.017643 -2.541702
  H -2.851936 -1.613783 -2.474543
  H -1.088597 -1.370390 -2.411076
  H -2.173871 1.534481 0.619875
  H -0.641423 1.960430 -0.151748
  H -0.624666 1.272303 1.445534
  O 2.758122 0.825809 0.716908
  H 2.880653 0.993950 1.657634
  H 0.840166 -0.111032 -0.103286
 19
 44.392029
  C -3.583614 -0.433564 -0.105473
  C -2.217848 -0.907794 -0.555350
  C -2.119188 -0.983606 -2.131900
  C -1.049057 -0.118809 -0.109943
  C -1.166286 1.199722 0.487555
  O 0.086178 -0.645547 -0.330468
  H -4.345113 -1.142378 -0.432765
  H -3.844411 0.521927 -0.562532
  H -3.640455 -0.347917 0.975448
  H -2.056840 -1.949165 -0.220688
  H -2.242670 0.005639 -2.553872
  H -2.913423 -1.621368 -2.487051
  H -1.158508 -1.395340 -2.423041
  H -2.186011 1.526477 0.639414
  H -0.638898 1.927020 -0.134156
  H -0.619240 1.222741 1.433566
  O 3.045434 0.936452 0.800005
  H 3.204811 1.113150 1.736379
  H 0.792842 -0.153062 -0.121914
