 20
 0.000000
  C 0.957872 -0.016378 -0.005017
  C 2.453991 0.000546 0.011344
  C 3.169670 0.813271 0.796841
  C 4.607343 0.829312 0.812342
  C 5.327390 1.646058 1.601735
  C 6.765855 1.660338 1.615532
  C 7.483978 2.471648 2.399661
  C 8.973893 2.501351 2.428371
  H 0.599919 -0.755606 -0.719479
  H 0.561872 0.954715 -0.300477
  H 0.561871 -0.278593 0.975574
  H 2.952700 -0.689724 -0.655810
  H 2.658619 1.499621 1.460204
  H 5.111424 0.140568 0.146674
  H 4.823841 2.334952 2.267548
  H 7.272430 0.972331 0.950572
  H 6.985740 3.162692 3.067558
  H 9.408187 1.783827 1.734880
  H 9.332962 2.268731 3.431930
  H 9.332964 3.496410 2.161706
 20
 3.428610
  C 0.940960 -0.038178 -0.026087
  C 2.422308 0.053254 0.062285
  C 3.159207 0.850486 0.832810
  C 4.594118 0.858496 0.840553
  C 5.335835 1.663125 1.618233
  C 6.770556 1.671082 1.625919
  C 7.507910 2.468776 2.396888
  C 8.996252 2.489439 2.416859
  H 0.814516 -0.824393 -0.785966
  H 0.477557 0.888859 -0.353080
  H 0.477555 -0.333408 0.911547
  H 2.836268 -0.661519 -0.628550
  H 2.664104 1.544622 1.503699
  H 5.083995 0.162765 0.168128
  H 4.844366 2.357200 2.289051
  H 7.259501 0.975753 0.953881
  H 7.020433 3.164096 3.068913
  H 9.406709 1.765112 1.716788
  H 9.364835 2.259836 3.417199
  H 9.364831 3.481380 2.153311
