 17
 0.000000
  H 1.383975 0.137746 0.394054
  C 2.453972 0.138831 0.396445
  C 3.235887 0.609601 1.567949
  C 2.454651 1.098519 2.785050
  H 3.117958 1.411577 3.564099
  C 3.074760 -0.323868 -0.755623
  C 4.452396 -0.411652 -0.974602
  C 5.123831 -0.863395 -2.100714
  H 4.763810 -1.238544 -3.035887
  O 6.448567 -0.861790 -2.097024
  H 3.892013 1.422462 1.236076
  H 3.892206 -0.206765 1.890660
  H 1.816409 0.300727 3.170305
  H 1.816264 1.941012 2.511316
  H 2.419633 -0.642347 -1.548686
  H 5.073532 -0.080521 -0.149771
  H 6.820588 -0.526463 -1.260938
 17
 0.000000
  H 1.418745 0.131633 0.378836
  C 2.488673 0.136404 0.390396
  C 3.258893 0.609847 1.568553
  C 2.465575 1.096052 2.778909
  H 3.121100 1.411381 3.563610
  C 3.136020 -0.335152 -0.783737
  C 4.447166 -0.427136 -1.013206
  C 5.087293 -0.860870 -2.094427
  H 4.748480 -1.238753 -3.036403
  O 6.350583 -0.838163 -2.038149
  H 3.915035 1.424970 1.242304
  H 3.915232 -0.204257 1.896887
  H 1.826808 0.296059 3.158691
  H 1.826658 1.936344 2.499702
  H 2.488814 -0.655876 -1.582381
  H 5.077041 -0.098296 -0.194105
  H 6.668335 -0.479056 -1.142771
 17
 0.000000
  H 1.453169 0.126107 0.365079
  C 2.522923 0.134807 0.386410
  C 3.280609 0.611053 1.571546
  C 2.474489 1.094320 2.774600
  H 3.121659 1.412040 3.565252
  C 3.199572 -0.346358 -0.811656
  C 4.446380 -0.442331 -1.051082
  C 5.055189 -0.859273 -2.090450
  H 4.736087 -1.239533 -3.038338
  O 6.255830 -0.818250 -1.988527
  H 3.936707 1.428585 1.251291
  H 3.936907 -0.200642 1.905874
  H 1.835220 0.291981 3.148545
  H 1.835067 1.932267 2.489558
  H 2.560868 -0.669443 -1.616172
  H 5.085978 -0.116096 -0.238497
  H 6.512188 -0.434823 -1.032512
 17
 0.000000
  H 1.486855 0.121377 0.353302
  C 2.556311 0.134252 0.385020
  C 3.300590 0.613428 1.577451
  C 2.480945 1.093521 2.772614
  H 3.119162 1.413748 3.569508
  C 3.265455 -0.357439 -0.839267
  C 4.450425 -0.457151 -1.088021
  C 5.027959 -0.858780 -2.089216
  H 4.726484 -1.241034 -3.042062
  O 6.165117 -0.802393 -1.949010
  H 3.956571 1.433521 1.263567
  H 3.956774 -0.195707 1.918149
  H 1.841210 0.288685 3.140347
  H 1.841054 1.928971 2.481362
  H 2.635858 -0.683000 -1.649943
  H 5.100828 -0.133883 -0.282857
  H 6.352305 -0.394458 -0.931890
 17
 0.000000
  H 1.519128 0.117798 0.344386
  C 2.588139 0.135095 0.387109
  C 3.318119 0.617318 1.587129
  C 2.484236 1.093989 2.773785
  H 3.112889 1.416835 3.577201
  C 3.333752 -0.368413 -0.866614
  C 4.459846 -0.471611 -1.124061
  C 5.006328 -0.859797 -2.091741
  H 4.719708 -1.243638 -3.048526
  O 6.079565 -0.791162 -1.921014
  H 3.973899 1.440125 1.279999
  H 3.974104 -0.189104 1.934579
  H 1.844085 0.286505 3.134930
  H 1.843926 1.926792 2.475947
  H 2.713883 -0.696559 -1.683721
  H 5.122260 -0.151735 -0.327375
  H 6.189324 -0.358707 -0.842763
 17
 0.000000
  H 1.548750 0.115905 0.339668
  C 2.617155 0.137832 0.393914
  C 3.332059 0.623183 1.601726
  C 2.483373 1.096207 2.779314
  H 3.101923 1.421753 3.589455
  C 3.404110 -0.379305 -0.893759
  C 4.475143 -0.485679 -1.159121
  C 4.991441 -0.862954 -2.099595
  H 4.716015 -1.247937 -3.059205
  O 6.001328 -0.785414 -1.906678
  H 3.987543 1.448830 1.301666
  H 3.987749 -0.180399 1.956245
  H 1.842868 0.285948 3.133553
  H 1.842709 1.926236 2.474572
  H 2.794514 -0.710115 -1.717495
  H 5.150730 -0.169638 -0.372020
  H 6.025933 -0.328701 -0.767946
 17
 0.000000
  H 1.574265 0.116661 0.341544
  C 2.641875 0.143466 0.407933
  C 3.340777 0.632043 1.623786
  C 2.476604 1.101153 2.791639
  H 3.084412 1.429499 3.608754
  C 3.478014 -0.390644 -0.922018
  C 4.497552 -0.499873 -1.194490
  C 4.984911 -0.869684 -2.116343
  H 4.716009 -1.255313 -3.077543
  O 5.932047 -0.786711 -1.909889
  H 3.995854 1.460685 1.331178
  H 3.996058 -0.168545 1.985755
  H 1.835820 0.287968 3.138593
  H 1.835661 1.928257 2.479614
  H 2.879339 -0.724214 -1.752624
  H 5.187695 -0.188215 -0.418338
  H 5.862905 -0.305247 -0.709451
 17
 0.000000
  H 1.593967 0.120818 0.351884
  C 2.660587 0.152659 0.430814
  C 3.342840 0.644493 1.654786
  C 2.462797 1.109485 2.812394
  H 3.059405 1.440671 3.636588
  C 3.555190 -0.402538 -0.951656
  C 4.526862 -0.514076 -1.229874
  C 4.987533 -0.880819 -2.144064
  H 4.719571 -1.266548 -3.105489
  O 5.874336 -0.795941 -1.932859
  H 3.997393 1.476226 1.369876
  H 3.997594 -0.153004 2.024451
  H 1.821824 0.293273 3.151813
  H 1.821667 1.933563 2.492837
  H 2.967897 -0.738907 -1.789231
  H 5.232596 -0.207289 -0.465889
  H 5.704772 -0.289610 -0.670430
 17
 0.000000
  H 1.605686 0.129436 0.373329
  C 2.671131 0.166354 0.464904
  C 3.336470 0.661395 1.696871
  C 2.440552 1.122154 2.843949
  H 3.025758 1.456152 3.675155
  C 3.635820 -0.415376 -0.983643
  C 4.563144 -0.528513 -1.265833
  C 5.000264 -0.897805 -2.186357
  H 4.726714 -1.283001 -3.146425
  O 5.831286 -0.814437 -1.978910
  H 3.990388 1.496244 1.419725
  H 3.990584 -0.132988 2.074297
  H 1.799491 0.302888 3.175762
  H 1.799339 1.943180 2.516789
  H 3.060111 -0.754515 -1.828118
  H 5.285184 -0.227026 -0.515081
  H 5.557315 -0.282678 -0.653096
 17
 0.000000
  H 1.607357 0.143208 0.407604
  C 2.671477 0.185113 0.511603
  C 3.320071 0.683226 1.751238
  C 2.408682 1.139750 2.887773
  H 2.982580 1.476461 3.725742
  C 3.719333 -0.429367 -1.018499
  C 4.605716 -0.543136 -1.302245
  C 5.023337 -0.921523 -2.245416
  H 4.737436 -1.305484 -3.202381
  O 5.806093 -0.842591 -2.049015
  H 3.973261 1.521137 1.481720
  H 3.973451 -0.108095 2.136290
  H 1.767637 0.317482 3.212104
  H 1.767492 1.957774 2.553134
  H 3.155111 -0.771176 -1.869624
  H 5.344003 -0.247152 -0.565226
  H 5.428608 -0.284464 -0.657485
 17
 0.000000
  H 1.598052 0.162490 0.455598
  C 2.660731 0.209207 0.571591
  C 3.293042 0.710215 1.818450
  C 2.366838 1.162578 2.944624
  H 2.929719 1.501859 3.789004
  C 3.805730 -0.444557 -1.056333
  C 4.653520 -0.557895 -1.338988
  C 5.055241 -0.952159 -2.321708
  H 4.750600 -1.334128 -3.273682
  O 5.798737 -0.879895 -2.141914
  H 3.945433 1.551081 1.556296
  H 3.945612 -0.078153 2.210864
  H 1.725903 0.337408 3.261723
  H 1.725768 1.977702 2.602756
  H 3.252695 -0.788894 -1.913758
  H 5.407564 -0.267471 -0.615840
  H 5.322349 -0.293796 -0.680673
 17
 0.000000
  H 1.587037 0.173513 0.483035
  C 2.648998 0.222449 0.604562
  C 3.273757 0.724769 1.854696
  C 2.340756 1.175189 2.976028
  H 2.898520 1.515639 3.823327
  C 3.838367 -0.448394 -1.065889
  C 4.672135 -0.560935 -1.346547
  C 5.069913 -0.963335 -2.349536
  H 4.757293 -1.344412 -3.299280
  O 5.801151 -0.893900 -2.176789
  H 3.925746 1.566998 1.595940
  H 3.925919 -0.062236 2.250507
  H 1.699903 0.348679 3.289788
  H 1.699773 1.988973 2.630821
  H 3.290527 -0.793881 -1.926181
  H 5.431230 -0.272341 -0.627964
  H 5.287098 -0.296099 -0.686388
 17
 0.000000
  H 1.544048 0.223144 0.606572
  C 2.602962 0.280518 0.749141
  C 3.198776 0.787686 2.011382
  C 2.240161 1.230572 3.113945
  H 2.778277 1.575377 3.972116
  C 4.018316 -0.481780 -1.149027
  C 4.777811 -0.590386 -1.419838
  C 5.146318 -1.042448 -2.546561
  H 4.780660 -1.416931 -3.479834
  O 5.826744 -0.990268 -2.416794
  H 3.849047 1.635097 1.765551
  H 3.849196 0.005861 2.420112
  H 1.599808 0.398964 3.414990
  H 1.599701 2.039260 2.756030
  H 3.490420 -0.831545 -2.019990
  H 5.566081 -0.312864 -0.728858
  H 5.142714 -0.335311 -0.783980
