 23
 0.000000
  C 1.008625 0.112115 0.329575
  C 2.482097 0.125630 0.363707
  C 3.233806 0.601822 1.548832
  C 2.417393 1.081056 2.741696
  H 3.090306 1.399490 3.534612
  C 3.142280 -0.329631 -0.769842
  C 4.524634 -0.394304 -0.931043
  C 5.184600 -0.851117 -2.070277
  C 4.535399 -1.345190 -3.301706
  H 3.456240 -1.324701 -3.250863
  O 6.497213 -0.870954 -2.121163
  H 0.556333 0.478887 1.242164
  H 0.651986 -0.901489 0.140598
  H 0.652333 0.713477 -0.508113
  H 3.893250 1.416221 1.230025
  H 3.893288 -0.206705 1.882129
  H 1.787309 0.287827 3.136909
  H 1.787462 1.927430 2.478345
  H 2.518310 -0.658169 -1.587828
  H 5.148124 -0.065128 -0.110900
  H 4.880162 -2.359550 -3.501755
  H 4.880314 -0.750503 -4.147360
  H 6.947360 -0.548303 -1.317429
 23
 13.452615
  C 1.121668 0.071168 0.226737
  C 2.574398 0.118903 0.344110
  C 3.236392 0.606373 1.558229
  C 2.341213 1.063287 2.699772
  H 2.958658 1.395822 3.528862
  C 3.315230 -0.317051 -0.741458
  C 4.692420 -0.330521 -0.776677
  C 5.064873 -0.812804 -1.975233
  C 4.332169 -1.292390 -3.168959
  H 3.255890 -1.271354 -3.118350
  O 6.421681 -0.922661 -2.246545
  H 0.607218 0.425500 1.109717
  H 0.802369 -0.950060 0.014934
  H 0.801691 0.662004 -0.632396
  H 3.895023 1.435971 1.278159
  H 3.896029 -0.186237 1.928515
  H 1.710955 0.254186 3.059823
  H 1.709973 1.896368 2.401857
  H 2.720303 -0.650787 -1.571574
  H 5.366823 -0.011053 0.015605
  H 4.662611 -2.310195 -3.375450
  H 4.663572 -0.701146 -4.022462
  H 6.988681 -0.633413 -1.522843
 23
 43.995405
  C 1.164871 0.040267 0.152732
  C 2.626696 0.117466 0.338968
  C 3.237480 0.621462 1.592058
  C 2.300112 1.065447 2.706448
  H 2.886128 1.407346 3.556423
  C 3.451577 -0.312273 -0.731838
  C 4.811565 -0.295844 -0.694947
  C 4.961592 -0.783883 -1.902937
  C 4.214680 -1.268059 -3.111704
  H 3.136207 -1.268666 -3.124900
  O 6.336858 -0.957812 -2.326259
  H 0.602074 0.384784 1.011167
  H 0.873707 -0.987595 -0.073507
  H 0.870959 0.623878 -0.722128
  H 3.897228 1.459005 1.333720
  H 3.901609 -0.159544 1.982386
  H 1.670935 0.246726 3.046546
  H 1.666571 1.889711 2.388575
  H 2.874615 -0.645613 -1.559893
  H 5.514754 0.004036 0.048642
  H 4.562383 -2.280780 -3.305655
  H 4.569266 -0.675306 -3.952618
  H 6.972693 -0.688337 -1.645035
 23
 82.613883
  C 1.202244 0.026344 0.119128
  C 2.663448 0.112160 0.327712
  C 3.242242 0.620631 1.590909
  C 2.271811 1.053923 2.678395
  H 2.830076 1.402076 3.543092
  C 3.514446 -0.313354 -0.734064
  C 4.887074 -0.269810 -0.634794
  C 4.860049 -0.759027 -1.841860
  C 4.147842 -1.245142 -3.055167
  H 3.070045 -1.249328 -3.083849
  O 6.303413 -0.984182 -2.389569
  H 0.626497 0.369285 0.972595
  H 0.917058 -1.005295 -0.110144
  H 0.914952 0.610573 -0.760723
  H 3.901511 1.466012 1.347505
  H 3.906602 -0.154961 1.997689
  H 1.642486 0.228526 3.000806
  H 1.637853 1.870566 2.342613
  H 2.917619 -0.633729 -1.530917
  H 5.615563 0.021417 0.087362
  H 4.508991 -2.267908 -3.244685
  H 4.519778 -0.645896 -3.900925
  H 6.969378 -0.724767 -1.734867
 23
 118.267987
  C 1.206857 0.024124 0.111873
  C 2.661026 0.109423 0.320620
  C 3.238804 0.616360 1.583293
  C 2.268093 1.049688 2.674164
  H 2.828309 1.396781 3.538580
  C 3.510465 -0.315543 -0.744964
  C 4.912520 -0.248632 -0.604399
  C 4.754238 -0.739442 -1.800425
  C 4.132949 -1.242530 -3.044148
  H 3.049104 -1.257054 -3.108037
  O 6.361953 -1.005432 -2.434974
  H 0.635911 0.366105 0.965699
  H 0.918803 -1.004135 -0.115449
  H 0.916617 0.609667 -0.762635
  H 3.896506 1.458097 1.344613
  H 3.902345 -0.153975 1.988940
  H 1.638491 0.224263 2.997680
  H 1.633849 1.867680 2.340871
  H 2.865241 -0.630228 -1.535997
  H 5.644091 0.040665 0.106913
  H 4.516778 -2.251679 -3.213802
  H 4.533699 -0.650324 -3.870667
  H 7.012639 -0.745501 -1.775412
 23
 142.415994
  C 1.147388 0.015393 0.132125
  C 2.627892 0.098221 0.319721
  C 3.233131 0.614004 1.573334
  C 2.283711 1.052411 2.662905
  H 2.851522 1.401863 3.511000
  C 3.443642 -0.326120 -0.732849
  C 4.903002 -0.221707 -0.594384
  C 4.641825 -0.744978 -1.751031
  C 4.154516 -1.221546 -3.046744
  H 3.086838 -1.240221 -3.195053
  O 6.519494 -1.075979 -2.493176
  H 0.604348 0.370551 1.005924
  H 0.840131 -1.018319 -0.066294
  H 0.831623 0.612998 -0.731162
  H 3.888873 1.458006 1.314125
  H 3.900939 -0.162353 1.973575
  H 1.660753 0.234280 2.997938
  H 1.650728 1.864745 2.333513
  H 2.766308 -0.644720 -1.517673
  H 5.647136 0.091785 0.103791
  H 4.546761 -2.223758 -3.201698
  H 4.604206 -0.603263 -3.820564
  H 7.174930 -0.823151 -1.837727
 23
 139.685246
  C 1.056183 0.223992 0.153654
  C 2.535487 0.168365 0.293230
  C 3.213787 0.572675 1.559495
  C 2.313625 1.031449 2.698027
  H 2.929755 1.290480 3.558593
  C 3.257271 -0.262280 -0.794784
  C 4.792322 -0.232751 -0.664059
  C 4.478073 -0.783063 -1.763402
  C 4.242759 -1.262234 -3.087327
  H 3.213721 -1.259848 -3.423632
  O 6.824957 -1.373212 -2.427259
  H 0.581750 0.573408 1.062842
  H 0.656062 -0.763047 -0.077033
  H 0.763189 0.891504 -0.654731
  H 3.917885 1.379672 1.332544
  H 3.815465 -0.272454 1.908950
  H 1.633700 0.242949 3.010934
  H 1.738719 1.912231 2.425410
  H 2.551616 -0.497386 -1.586477
  H 5.508538 0.059573 0.061677
  H 4.640019 -2.277396 -3.165574
  H 4.858730 -0.668074 -3.767758
  H 7.461138 -1.180658 -1.735867
 23
 138.689353
  C 0.996433 0.208768 0.212468
  C 2.482859 0.176718 0.306230
  C 3.185735 0.601249 1.550152
  C 2.310244 1.038375 2.716813
  H 2.939037 1.309043 3.548710
  C 3.170911 -0.254110 -0.803311
  C 4.736396 -0.188878 -0.697317
  C 4.386079 -0.777756 -1.758420
  C 4.232833 -1.239036 -3.103661
  H 3.223459 -1.226293 -3.490396
  O 7.192882 -1.488911 -2.504476
  H 0.543678 0.556729 1.128039
  H 0.605689 -0.785300 -0.005387
  H 0.672025 0.866543 -0.597524
  H 3.871948 1.421674 1.308907
  H 3.816529 -0.234448 1.886323
  H 1.653366 0.236883 3.047092
  H 1.708206 1.907699 2.461561
  H 2.460298 -0.490394 -1.593600
  H 5.417160 0.143844 0.049345
  H 4.630458 -2.255238 -3.169928
  H 4.892835 -0.644322 -3.731250
  H 7.857311 -1.314870 -1.849594
 23
 140.313022
  C 0.965234 0.175175 0.226398
  C 2.452484 0.175956 0.309921
  C 3.161197 0.624463 1.545269
  C 2.294139 1.050950 2.720274
  H 2.931203 1.344627 3.544408
  C 3.138257 -0.250551 -0.796030
  C 4.733551 -0.158636 -0.679288
  C 4.331095 -0.753500 -1.722661
  C 4.200886 -1.204390 -3.074720
  H 3.201210 -1.169413 -3.483726
  O 7.428356 -1.565349 -2.613854
  H 0.509049 0.521218 1.144350
  H 0.595406 -0.829873 0.019329
  H 0.620534 0.817510 -0.585473
  H 3.819094 1.462908 1.287102
  H 3.816005 -0.190987 1.878807
  H 1.661479 0.235444 3.066196
  H 1.665306 1.902216 2.466521
  H 2.424374 -0.485412 -1.587987
  H 5.410161 0.182972 0.068554
  H 4.586711 -2.224314 -3.145670
  H 4.882772 -0.611566 -3.684561
  H 8.131251 -1.409740 -1.980417
 23
 142.969901
  C 0.946763 0.162828 0.232496
  C 2.433955 0.174939 0.311024
  C 3.140427 0.629811 1.541680
  C 2.270691 1.049065 2.720538
  H 2.907883 1.350934 3.546137
  C 3.121799 -0.244396 -0.796022
  C 4.748017 -0.110366 -0.674411
  C 4.291841 -0.725323 -1.681887
  C 4.163679 -1.192901 -3.029850
  H 3.163159 -1.160486 -3.439435
  O 7.609630 -1.600618 -2.704828
  H 0.491526 0.504628 1.152175
  H 0.584580 -0.843943 0.027045
  H 0.593617 0.802108 -0.576246
  H 3.785993 1.474783 1.278719
  H 3.805222 -0.176919 1.871308
  H 1.648890 0.227817 3.067837
  H 1.631213 1.890608 2.467812
  H 2.403855 -0.482012 -1.585760
  H 5.427797 0.247920 0.055409
  H 4.553262 -2.212161 -3.093527
  H 4.844351 -0.604275 -3.647268
  H 8.334322 -1.439359 -2.094574
 23
 145.151166
  C 0.915807 0.150056 0.247575
  C 2.401345 0.178133 0.309266
  C 3.117138 0.637454 1.531026
  C 2.262308 1.043271 2.724608
  H 2.909996 1.349792 3.541264
  C 3.082368 -0.234117 -0.805317
  C 4.748288 -0.061753 -0.676158
  C 4.245196 -0.695749 -1.650728
  C 4.136181 -1.186704 -2.996410
  H 3.140626 -1.155528 -3.419774
  O 7.791852 -1.631759 -2.766661
  H 0.467518 0.484847 1.173369
  H 0.562150 -0.859945 0.044116
  H 0.546806 0.787308 -0.554625
  H 3.746277 1.491662 1.260127
  H 3.802279 -0.158299 1.844338
  H 1.658890 0.212057 3.081326
  H 1.606782 1.876206 2.485118
  H 2.356797 -0.465508 -1.593785
  H 5.430134 0.315874 0.037873
  H 4.532328 -2.203843 -3.044860
  H 4.822990 -0.605119 -3.613860
  H 8.524156 -1.463464 -2.170463
 23
 145.684736
  C 0.871467 0.139284 0.277231
  C 2.356911 0.179500 0.307532
  C 3.093518 0.640964 1.516255
  C 2.264640 1.040480 2.728188
  H 2.929231 1.351964 3.528632
  C 3.015349 -0.224709 -0.822158
  C 4.734865 -0.028955 -0.685469
  C 4.186525 -0.671852 -1.630144
  C 4.116807 -1.180060 -2.979200
  H 3.130058 -1.157085 -3.422824
  O 7.995962 -1.652427 -2.807060
  H 0.440251 0.467861 1.213955
  H 0.522058 -0.873545 0.077729
  H 0.479930 0.775897 -0.515384
  H 3.708401 1.502608 1.231986
  H 3.800663 -0.144635 1.809024
  H 1.679368 0.202661 3.102042
  H 1.595514 1.867583 2.504276
  H 2.277709 -0.456696 -1.601097
  H 5.419192 0.364889 0.021239
  H 4.526327 -2.191585 -3.011111
  H 4.809986 -0.596711 -3.587108
  H 8.727893 -1.472801 -2.214200
 23
 144.886110
  C 0.823240 0.156425 0.313775
  C 2.310222 0.194908 0.303707
  C 3.069716 0.640230 1.501168
  C 2.266922 1.011911 2.740334
  H 2.948795 1.316240 3.528268
  C 2.922545 -0.198113 -0.853789
  C 4.705650 0.031345 -0.716954
  C 4.122344 -0.636579 -1.633607
  C 4.094147 -1.200264 -2.956402
  H 3.109906 -1.218162 -3.405910
  O 8.274863 -1.670536 -2.849794
  H 0.417661 0.470459 1.265479
  H 0.468028 -0.852371 0.107737
  H 0.411889 0.803727 -0.459152
  H 3.666864 1.513983 1.216651
  H 3.789960 -0.146005 1.761020
  H 1.696149 0.163962 3.116845
  H 1.587484 1.839720 2.547003
  H 2.178660 -0.419802 -1.626896
  H 5.361403 0.464650 -0.013736
  H 4.511895 -2.207705 -2.927634
  H 4.781538 -0.631277 -3.577134
  H 9.006731 -1.468488 -2.259087
 23
 139.976707
  C 0.772491 0.241437 0.344823
  C 2.260014 0.244703 0.291392
  C 3.088366 0.623372 1.492420
  C 2.353562 0.940299 2.786933
  H 3.113420 1.211649 3.590400
  C 2.793499 -0.118892 -0.897754
  C 4.517721 0.112215 -0.837623
  C 4.113133 -0.624021 -1.755195
  C 4.154307 -1.313862 -3.025279
  H 3.183831 -1.424785 -3.495493
  O 8.433587 -1.668102 -2.722448
  H 0.390254 0.525012 1.342015
  H 0.388630 -0.758200 0.100314
  H 0.358862 0.924440 -0.380208
  H 3.664042 1.513123 1.228245
  H 3.799826 -0.173093 1.676779
  H 1.788138 0.069722 3.148360
  H 1.676333 1.781791 2.673187
  H 2.065880 -0.285202 -1.671013
  H 5.030178 0.630444 -0.080953
  H 4.590672 -2.308769 -2.874592
  H 4.849264 -0.758955 -3.701699
  H 9.140601 -1.426069 -2.110716
