 22
 0.000000
  C 0.924250 0.044516 0.321525
  C 2.387540 0.060161 0.010915
  H 3.038030 0.014791 0.874325
  C 2.971305 0.130384 -1.193979
  C 2.347847 0.209158 -2.564798
  C 0.832632 0.218592 -2.744094
  C 0.482721 0.303583 -4.227415
  C 4.435332 0.131235 -1.209130
  C 5.237067 0.192567 -2.267566
  H 6.310545 0.186922 -2.170196
  H 0.756862 -0.012733 1.395745
  H 0.434871 -0.817430 -0.126451
  H 0.438865 0.950290 -0.036344
  H 2.740175 -0.637874 -3.138682
  H 2.739316 1.116910 -3.037426
  H 0.392581 1.076401 -2.236395
  H 0.393736 -0.692247 -2.337823
  H 0.886769 1.212851 -4.668038
  H -0.596828 0.310647 -4.361780
  H 0.887833 -0.548758 -4.769234
  H 4.903365 0.074662 -0.233092
  H 4.897035 0.251718 -3.288015
 22
 5.721752
  C 0.933589 0.030652 0.338039
  C 2.351560 0.033645 -0.003060
  H 3.028476 -0.047799 0.843476
  C 2.965038 0.118652 -1.203699
  C 2.346160 0.213528 -2.590300
  C 0.822078 0.196538 -2.753835
  C 0.448817 0.292494 -4.230787
  C 4.436236 0.137409 -1.189692
  C 5.251364 0.208968 -2.232562
  H 6.319307 0.211486 -2.100155
  H 0.757311 -0.001804 1.420438
  H 0.331712 -0.741355 -0.161276
  H 0.741249 1.000877 -0.061968
  H 2.752376 -0.620915 -3.177702
  H 2.725750 1.136764 -3.049796
  H 0.370770 1.036985 -2.226889
  H 0.411823 -0.727879 -2.349921
  H 0.829996 1.214890 -4.663484
  H -0.632220 0.278459 -4.353394
  H 0.866989 -0.543458 -4.787365
  H 4.881354 0.081718 -0.199617
  H 4.911267 0.265369 -3.248723
 22
 17.957149
  C 0.924212 0.042864 0.351436
  C 2.333953 0.008746 0.000124
  H 3.026576 -0.106762 0.840487
  C 2.956583 0.104616 -1.205422
  C 2.340959 0.217865 -2.588509
  C 0.821039 0.161418 -2.756557
  C 0.449510 0.281797 -4.230469
  C 4.415998 0.137336 -1.183410
  C 5.236969 0.219044 -2.225937
  H 6.308116 0.235702 -2.084207
  H 0.727621 0.000946 1.421242
  H 0.247139 -0.600993 -0.201486
  H 1.020246 1.033528 -0.038408
  H 2.768834 -0.592345 -3.194693
  H 2.697831 1.160671 -3.025600
  H 0.340865 0.973356 -2.210490
  H 0.439724 -0.787142 -2.377802
  H 0.803424 1.226320 -4.638791
  H -0.630151 0.237449 -4.357077
  H 0.895686 -0.527812 -4.806387
  H 4.852810 0.086547 -0.197179
  H 4.892099 0.270117 -3.249183
 22
 31.753119
  C 0.909576 0.032752 0.357499
  C 2.318647 0.013386 -0.006962
  H 2.995640 -0.098940 0.828165
  C 2.953804 0.108280 -1.212294
  C 2.342798 0.221328 -2.590824
  C 0.829904 0.150185 -2.752313
  C 0.446864 0.275409 -4.232893
  C 4.401463 0.141477 -1.181714
  C 5.230322 0.222870 -2.219639
  H 6.298713 0.241492 -2.075801
  H 0.711497 -0.023327 1.410098
  H 0.209568 -0.525236 -0.219858
  H 1.204599 1.012578 -0.014319
  H 2.773033 -0.575995 -3.196386
  H 2.688728 1.167121 -3.021814
  H 0.341852 0.957560 -2.195494
  H 0.460805 -0.809130 -2.374611
  H 0.788641 1.227550 -4.639420
  H -0.634854 0.219882 -4.355152
  H 0.897167 -0.522917 -4.814135
  H 4.836887 0.092427 -0.183563
  H 4.897376 0.272884 -3.246052
 22
 42.459267
  C 0.887287 0.031170 0.373594
  C 2.304418 0.024011 -0.016135
  H 2.981707 -0.094253 0.821876
  C 2.953085 0.113386 -1.227917
  C 2.347610 0.222240 -2.604385
  C 0.834913 0.139434 -2.759701
  C 0.444481 0.264972 -4.228049
  C 4.396630 0.150558 -1.183187
  C 5.235095 0.229421 -2.216172
  H 6.298397 0.248151 -2.064393
  H 0.696840 -0.098198 1.422286
  H 0.138679 -0.396932 -0.259936
  H 1.357842 1.000964 0.078601
  H 2.785775 -0.572212 -3.214685
  H 2.684489 1.171414 -3.035534
  H 0.346416 0.939031 -2.200201
  H 0.478064 -0.821235 -2.384628
  H 0.776112 1.218282 -4.631783
  H -0.633767 0.201400 -4.343730
  H 0.898493 -0.528944 -4.813606
  H 4.823328 0.105421 -0.188115
  H 4.910714 0.274615 -3.239383
 22
 50.302032
  C 0.878578 0.017479 0.384057
  C 2.296447 0.039894 -0.021418
  H 2.970971 -0.072351 0.825048
  C 2.954361 0.119688 -1.233185
  C 2.351114 0.223664 -2.613442
  C 0.832048 0.137462 -2.765279
  C 0.435746 0.256292 -4.231617
  C 4.400258 0.156755 -1.179708
  C 5.245892 0.236647 -2.207625
  H 6.310798 0.252410 -2.047615
  H 0.689583 -0.168210 1.421048
  H 0.100054 -0.296781 -0.288390
  H 1.473375 0.976024 0.149861
  H 2.792429 -0.573482 -3.222869
  H 2.684836 1.169647 -3.048306
  H 0.345374 0.941673 -2.207013
  H 0.477446 -0.823389 -2.384112
  H 0.766308 1.209336 -4.641217
  H -0.644770 0.191581 -4.343107
  H 0.889148 -0.542145 -4.816340
  H 4.823221 0.109321 -0.183798
  H 4.926091 0.281874 -3.231684
 22
 56.518398
  C 0.871249 -0.009214 0.387961
  C 2.291248 0.058030 -0.017508
  H 2.964587 -0.055677 0.831755
  C 2.957289 0.125238 -1.237722
  C 2.351906 0.223005 -2.618182
  C 0.837319 0.140837 -2.764096
  C 0.435530 0.251087 -4.232877
  C 4.397993 0.162909 -1.178736
  C 5.249600 0.242355 -2.204184
  H 6.314411 0.255210 -2.038763
  H 0.675501 -0.216754 1.423770
  H 0.083882 -0.240405 -0.302215
  H 1.554005 0.961226 0.184200
  H 2.789318 -0.577185 -3.224359
  H 2.686976 1.166655 -3.062997
  H 0.357399 0.951088 -2.210889
  H 0.481306 -0.814808 -2.375276
  H 0.768703 1.199425 -4.650679
  H -0.646183 0.190288 -4.340421
  H 0.883225 -0.553097 -4.813129
  H 4.818816 0.114307 -0.181312
  H 4.934137 0.288424 -3.228932
 22
 61.914296
  C 0.871076 -0.033146 0.373712
  C 2.295365 0.072266 -0.018482
  H 2.963660 -0.044366 0.832643
  C 2.960245 0.128829 -1.232544
  C 2.361241 0.223194 -2.613136
  C 0.825071 0.147531 -2.767463
  C 0.435659 0.249392 -4.218238
  C 4.397953 0.163553 -1.171509
  C 5.250030 0.244143 -2.198228
  H 6.302697 0.265683 -2.033360
  H 0.665354 -0.231125 1.402956
  H 0.089822 -0.225532 -0.321984
  H 1.623254 0.949071 0.171935
  H 2.800223 -0.584929 -3.213126
  H 2.702752 1.157464 -3.058429
  H 0.345641 0.963686 -2.224247
  H 0.459958 -0.802479 -2.376185
  H 0.775204 1.189088 -4.637156
  H -0.636545 0.194935 -4.328112
  H 0.880182 -0.559359 -4.788372
  H 4.824400 0.117870 -0.162676
  H 4.929673 0.296912 -3.238321
 22
 65.032757
  C 0.866832 -0.083129 0.389105
  C 2.289288 0.093485 0.002462
  H 2.966744 -0.038060 0.846417
  C 2.961794 0.132057 -1.237091
  C 2.357550 0.220911 -2.612788
  C 0.838618 0.152727 -2.762643
  C 0.443191 0.251088 -4.230414
  C 4.395043 0.170075 -1.175899
  C 5.251028 0.245025 -2.203349
  H 6.313630 0.266544 -2.035771
  H 0.651850 -0.252963 1.425429
  H 0.074204 -0.219551 -0.313021
  H 1.664891 0.971964 0.186932
  H 2.789267 -0.593353 -3.209266
  H 2.703383 1.156701 -3.069866
  H 0.365466 0.975340 -2.219720
  H 0.470427 -0.794567 -2.364069
  H 0.788865 1.191784 -4.657897
  H -0.638608 0.201431 -4.340246
  H 0.884043 -0.565976 -4.800594
  H 4.819227 0.131069 -0.176004
  H 4.936102 0.291371 -3.229677
 22
 66.876007
  C 0.874015 -0.143760 0.406152
  C 2.286737 0.113590 0.022587
  H 2.970961 -0.022305 0.857234
  C 2.960356 0.130227 -1.236773
  C 2.351742 0.215027 -2.611835
  C 0.847134 0.159067 -2.765068
  C 0.458291 0.256969 -4.239072
  C 4.384389 0.170961 -1.176062
  C 5.242418 0.242636 -2.206158
  H 6.304421 0.276381 -2.037689
  H 0.653986 -0.262926 1.447127
  H 0.071070 -0.239415 -0.293251
  H 1.711815 1.012268 0.182717
  H 2.775937 -0.605034 -3.204003
  H 2.705821 1.148694 -3.079380
  H 0.379180 0.989106 -2.225122
  H 0.470171 -0.785155 -2.364757
  H 0.814020 1.193407 -4.668340
  H -0.626328 0.215909 -4.354251
  H 0.894159 -0.564235 -4.804267
  H 4.810468 0.143479 -0.176526
  H 4.927869 0.287047 -3.229985
 22
 67.036591
  C 0.884997 -0.207020 0.383510
  C 2.282942 0.137814 0.027998
  H 2.962301 0.003132 0.868276
  C 2.972530 0.132349 -1.237132
  C 2.360703 0.211836 -2.612891
  C 0.845800 0.164981 -2.757532
  C 0.449314 0.263855 -4.225142
  C 4.388377 0.175913 -1.169374
  C 5.253839 0.240047 -2.198020
  H 6.316966 0.282854 -2.023206
  H 0.640364 -0.270206 1.423799
  H 0.085879 -0.269469 -0.325026
  H 1.757613 1.064250 0.145956
  H 2.778181 -0.614085 -3.201763
  H 2.719050 1.137722 -3.087829
  H 0.386654 0.998445 -2.215600
  H 0.465322 -0.775398 -2.354921
  H 0.808268 1.197408 -4.657365
  H -0.636596 0.229645 -4.333204
  H 0.875458 -0.559316 -4.790808
  H 4.811242 0.158323 -0.168386
  H 4.944677 0.274285 -3.221580
 22
 65.787138
  C 0.901261 -0.267646 0.375161
  C 2.273006 0.162662 0.035294
  H 2.953270 0.026033 0.874536
  C 2.977578 0.141379 -1.239188
  C 2.364483 0.213738 -2.612766
  C 0.846200 0.167942 -2.755269
  C 0.447465 0.271872 -4.220594
  C 4.385980 0.195467 -1.163158
  C 5.260427 0.241670 -2.189574
  H 6.321073 0.264919 -2.007965
  H 0.638686 -0.281918 1.415201
  H 0.103143 -0.308343 -0.336557
  H 1.813223 1.130443 0.115009
  H 2.780743 -0.614158 -3.197824
  H 2.723569 1.138715 -3.093236
  H 0.387821 1.000954 -2.207931
  H 0.465629 -0.772599 -2.355895
  H 0.806407 1.207648 -4.651116
  H -0.643671 0.238095 -4.327124
  H 0.869848 -0.545390 -4.786350
  H 4.803845 0.183276 -0.162781
  H 4.958082 0.246241 -3.215153
 22
 65.191427
  C 0.913846 -0.297340 0.365688
  C 2.271855 0.181113 0.043102
  H 2.952137 0.032591 0.884387
  C 2.979748 0.152732 -1.233248
  C 2.364252 0.221014 -2.609040
  C 0.843472 0.171068 -2.751490
  C 0.444374 0.276443 -4.219972
  C 4.383690 0.215211 -1.156873
  C 5.260979 0.246791 -2.184612
  H 6.322534 0.251372 -2.001031
  H 0.637210 -0.297514 1.401633
  H 0.120163 -0.321293 -0.357046
  H 1.879063 1.167248 0.099164
  H 2.779312 -0.600435 -3.187022
  H 2.722479 1.147958 -3.093362
  H 0.380754 1.003531 -2.200447
  H 0.466259 -0.766612 -2.356545
  H 0.799860 1.212440 -4.648151
  H -0.631515 0.240007 -4.324948
  H 0.875677 -0.551174 -4.796206
  H 4.803178 0.203577 -0.154290
  H 4.959912 0.224607 -3.209581
 22
 63.670919
  C 0.923289 -0.337841 0.391565
  C 2.247400 0.200544 0.048424
  H 2.941423 0.057581 0.880672
  C 2.975385 0.145576 -1.241777
  C 2.369242 0.207754 -2.610838
  C 0.847660 0.176449 -2.759989
  C 0.456114 0.291836 -4.225043
  C 4.383140 0.213882 -1.156840
  C 5.263780 0.243205 -2.182653
  H 6.321413 0.281464 -1.996575
  H 0.651139 -0.306371 1.431926
  H 0.119157 -0.379678 -0.311111
  H 1.930886 1.223671 0.058652
  H 2.779871 -0.626261 -3.183417
  H 2.740038 1.125576 -3.101028
  H 0.398066 1.006865 -2.211015
  H 0.455842 -0.761155 -2.366725
  H 0.824501 1.225420 -4.648999
  H -0.625920 0.269192 -4.334418
  H 0.876226 -0.533570 -4.798709
  H 4.799551 0.227133 -0.153414
  H 4.962217 0.224409 -3.213869
