12

C 0.913174 0.048673 0.273151
C 2.408797 0.059146 0.08745
C 3.244471 -0.012522 1.357692
H 2.74082569157431 -0.06571148817898058 2.3002482485327067
C 2.999023 0.127499 -1.123893
H 2.5449334132350874 0.18208202406445753 -2.0912209385377274
H 4.067070024593369 0.13114326609744495 -1.1884086770239743
H 0.592769 -0.009936 1.311782
H 0.473026 -0.819226 -0.210027
H 0.473027 0.965418 -0.109326
H 3.889937 0.871493 1.389749
H 3.889934 -0.894534 1.290101
