 14
 0.000000
  H 1.432682 -0.076260 0.038347
  C 2.506552 -0.083182 0.024759
  C 3.218272 -0.594728 -0.979491
  C 4.656330 -0.606187 -1.001982
  C 5.379834 -1.120199 -2.011069
  C 6.818297 -1.130603 -2.031495
  C 7.530798 -1.641606 -3.034688
  H 8.604439 -1.654386 -3.059772
  H 3.003571 0.351775 0.878655
  H 2.704613 -1.027667 -1.829410
  H 5.159305 -0.171134 -0.147906
  H 4.877340 -1.555327 -2.865305
  H 7.326523 -0.696700 -1.179669
  H 7.034083 -2.076976 -3.889378
 14
 1.474236
  H 1.431838 -0.012966 -0.013208
  C 2.507768 0.031130 -0.038059
  C 3.226632 -0.698646 -0.885110
  C 4.670770 -0.673272 -0.943564
  C 5.382517 -1.020997 -2.026087
  C 6.820764 -1.089778 -2.047915
  C 7.521816 -1.568421 -3.072516
  H 8.593403 -1.666368 -3.033070
  H 2.982614 0.708937 0.655136
  H 2.734536 -1.377514 -1.572584
  H 5.186750 -0.357075 -0.045068
  H 4.869971 -1.310573 -2.935903
  H 7.330766 -0.786625 -1.141707
  H 7.042808 -1.866535 -3.992144
 14
 5.330481
  H 1.420247 -0.082992 -0.067701
  C 2.486960 0.046607 -0.133494
  C 3.261675 -0.814267 -0.776578
  C 4.712837 -0.713814 -0.878735
  C 5.393667 -0.892379 -2.015928
  C 6.827457 -1.040537 -2.063282
  C 7.475016 -1.569584 -3.097564
  H 8.531715 -1.771871 -3.066145
  H 2.893956 0.923808 0.342522
  H 2.839244 -1.694187 -1.248067
  H 5.252312 -0.543828 0.045674
  H 4.860169 -1.030895 -2.947925
  H 7.364489 -0.812322 -1.150867
  H 6.972255 -1.790235 -4.025029
 14
 11.678277
  H 1.411533 -0.392157 -0.077549
  C 2.436297 -0.077697 -0.182835
  C 3.358270 -0.860069 -0.714211
  C 4.788185 -0.576299 -0.859684
  C 5.443192 -0.627291 -2.022932
  C 6.843787 -0.966859 -2.097410
  C 7.345608 -1.703632 -3.083622
  H 8.343491 -2.104618 -3.040249
  H 2.666128 0.922569 0.141457
  H 3.132679 -1.866019 -1.055726
  H 5.355900 -0.528695 0.063599
  H 4.886265 -0.645389 -2.952235
  H 7.435335 -0.791545 -1.206358
  H 6.805996 -1.865412 -4.000521
 14
 22.151478
  H 1.496948 -0.770222 -0.095014
  C 2.426452 -0.242923 -0.228483
  C 3.498826 -0.829245 -0.726226
  C 4.867061 -0.326394 -0.868749
  C 5.525099 -0.334245 -2.038499
  C 6.851592 -0.897388 -2.117380
  C 7.138218 -1.840163 -3.009413
  H 8.045284 -2.416085 -2.941976
  H 2.437877 0.792292 0.073214
  H 3.513857 -1.862134 -1.067979
  H 5.446424 -0.311220 0.049217
  H 4.953022 -0.310303 -2.959209
  H 7.489430 -0.777863 -1.248341
  H 6.568129 -1.960994 -3.916844
 14
 36.989424
  H 1.661600 -1.095473 -0.154731
  C 2.479366 -0.410636 -0.276068
  C 3.674621 -0.786108 -0.772519
  C 4.938902 -0.097370 -0.895545
  C 5.601269 -0.097811 -2.091029
  C 6.832873 -0.847096 -2.131139
  C 6.892884 -1.932833 -2.881612
  H 7.688554 -2.644357 -2.756820
  H 2.295133 0.596090 0.027871
  H 3.896838 -1.801740 -1.148467
  H 5.517526 -0.078722 0.010002
  H 5.004736 -0.086659 -2.992623
  H 7.491903 -0.763741 -1.271777
  H 6.295283 -2.051110 -3.781991
 14
 49.087970
  H 1.860451 -1.341111 -0.161780
  C 2.558329 -0.546965 -0.310680
  C 3.777623 -0.765270 -0.755932
  C 4.965362 0.077808 -0.923446
  C 5.611694 -0.008867 -2.111787
  C 6.795055 -0.826464 -2.156456
  C 6.684373 -2.002703 -2.766144
  H 7.510551 -2.698902 -2.698871
  H 2.192047 0.455697 -0.151327
  H 4.168920 -1.765747 -1.041764
  H 5.572170 0.187435 -0.040531
  H 4.993877 -0.038208 -3.007563
  H 7.535019 -0.710684 -1.363028
  H 6.076342 -2.133308 -3.648521
 14
 68.840170
  H 2.242582 -1.712102 -0.271193
  C 2.766631 -0.776011 -0.392666
  C 4.018018 -0.736492 -0.810386
  C 5.034888 0.277708 -0.979426
  C 5.637845 0.181518 -2.213594
  C 6.706668 -0.766411 -2.164106
  C 6.340898 -1.994552 -2.587142
  H 6.923589 -2.847325 -2.255421
  H 2.208983 0.114119 -0.171577
  H 4.542979 -1.682695 -1.230037
  H 5.655476 0.473521 -0.105815
  H 4.968875 0.067565 -3.065704
  H 7.429867 -0.681161 -1.352038
  H 5.827644 -2.148911 -3.523297
 14
 85.584738
  H 2.521295 -1.905913 -0.399959
  C 2.886624 -0.896225 -0.492865
  C 4.124069 -0.638306 -0.842357
  C 5.062617 0.376156 -0.966177
  C 5.655574 0.233368 -2.242762
  C 6.660577 -0.736285 -2.149066
  C 6.075131 -1.998279 -2.380515
  H 6.636684 -2.872296 -2.085807
  H 2.169294 -0.111831 -0.294222
  H 4.939616 -1.772447 -1.410618
  H 5.686773 0.597995 -0.108017
  H 4.952490 0.099832 -3.063138
  H 7.417330 -0.643754 -1.380804
  H 5.480736 -2.144002 -3.272265
 14
 75.541255
  H 2.583650 -1.920616 -0.349706
  C 2.870599 -0.887278 -0.456486
  C 4.086664 -0.540090 -0.779771
  C 5.025640 0.405759 -0.925465
  C 5.632871 0.220606 -2.223406
  C 6.629454 -0.733255 -2.130140
  C 6.046385 -2.068508 -2.368517
  H 6.663676 -2.920442 -2.118062
  H 2.069368 -0.160231 -0.346712
  H 5.155003 -1.960897 -1.570045
  H 5.655159 0.670460 -0.083301
  H 4.925062 0.086689 -3.035787
  H 7.382082 -0.630790 -1.353138
  H 5.498975 -2.190301 -3.297022
 14
 64.797012
  H 2.517130 -1.853888 -0.304945
  C 2.771437 -0.804406 -0.398878
  C 3.988896 -0.405498 -0.683968
  C 4.981392 0.445313 -0.867561
  C 5.574551 0.179188 -2.176065
  C 6.579753 -0.753375 -2.118332
  C 6.107927 -2.133820 -2.402792
  H 6.819337 -2.903235 -2.214074
  H 1.947618 -0.111190 -0.308264
  H 5.248390 -2.148185 -1.604490
  H 5.648085 0.700554 -0.036940
  H 4.852894 0.047533 -2.967110
  H 7.336749 -0.636987 -1.348001
  H 5.609250 -2.252268 -3.366467
 14
 54.226837
  H 2.510756 -1.768432 -0.155167
  C 2.719081 -0.736339 -0.327666
  C 3.915353 -0.322632 -0.618975
  C 4.955046 0.461172 -0.854268
  C 5.553141 0.091426 -2.147274
  C 6.570612 -0.814356 -2.083728
  C 6.229861 -2.204651 -2.491654
  H 7.000585 -2.902109 -2.404524
  H 1.854234 -0.077546 -0.375675
  H 5.364416 -2.381324 -1.724858
  H 5.614706 0.763957 -0.067785
  H 4.835824 -0.045887 -2.939447
  H 7.275741 -0.690566 -1.283207
  H 5.761052 -2.247439 -3.509068
 14
 43.169057
  H 2.438419 -1.655446 0.004461
  C 2.633057 -0.649576 -0.279105
  C 3.828859 -0.250019 -0.562123
  C 4.908238 0.414448 -0.826833
  C 5.478352 -0.008961 -2.101430
  C 6.524134 -0.869788 -2.052320
  C 6.339981 -2.257923 -2.575732
  H 7.193955 -2.877227 -2.507778
  H 1.755116 0.004816 -0.354489
  H 5.498565 -2.595479 -1.872424
  H 5.578845 0.754738 -0.036977
  H 4.760836 -0.141634 -2.906524
  H 7.221177 -0.750451 -1.247544
  H 5.930604 -2.269659 -3.610255
 14
 31.712106
  H 2.344491 -1.576423 0.155161
  C 2.540546 -0.577678 -0.200872
  C 3.737438 -0.190846 -0.506951
  C 4.865287 0.383743 -0.817998
  C 5.429912 -0.131884 -2.067611
  C 6.490892 -0.942064 -2.020418
  C 6.426744 -2.289321 -2.652654
  H 7.356716 -2.842899 -2.608724
  H 1.677601 0.063589 -0.313395
  H 5.650862 -2.772622 -2.036416
  H 5.532745 0.773995 -0.061825
  H 4.720295 -0.269879 -2.876699
  H 7.186890 -0.824367 -1.198111
  H 6.058087 -2.255317 -3.677157
 14
 10.628513
  H 1.898530 -0.894698 0.706453
  C 2.247377 -0.120079 0.033522
  C 3.480306 -0.064778 -0.354790
  C 4.715131 0.031199 -0.764906
  C 5.200958 -0.733040 -1.901774
  C 6.380673 -1.340450 -1.906262
  C 6.839629 -2.279554 -2.959239
  H 7.919398 -2.275338 -3.039524
  H 1.509540 0.585010 -0.304303
  H 6.530387 -3.302397 -2.720007
  H 5.444765 0.583167 -0.186831
  H 4.504824 -0.871424 -2.725226
  H 7.038816 -1.208810 -1.056244
  H 6.408168 -2.025066 -3.925279
