 28
 0.000000
  C 0.904881 0.045475 0.271660
  C 2.396289 0.058602 0.086687
  C 3.242269 -0.010970 1.350713
  C 2.525073 -0.088136 2.695679
  H 3.246670 -0.132362 3.503218
  C 2.991827 0.128331 -1.121678
  C 2.347505 0.205674 -2.493022
  C 0.836429 0.218805 -2.713790
  C 0.524710 0.302647 -4.205918
  C 4.452964 0.132049 -1.213389
  C 5.189208 0.194090 -2.318706
  H 6.266518 0.192322 -2.311287
  H 0.611109 -0.008650 1.314198
  H 0.459687 -0.820618 -0.212457
  H 0.458989 0.956138 -0.120085
  H 3.887004 0.873108 1.379908
  H 3.890303 -0.890328 1.280662
  H 1.898699 -0.977713 2.748035
  H 1.895483 0.787620 2.847681
  H 2.737675 -0.643093 -3.065700
  H 2.738481 1.112893 -2.967041
  H 0.382344 1.079840 -2.225005
  H 0.381507 -0.690998 -2.324254
  H 0.939535 1.210703 -4.639260
  H -0.551801 0.312057 -4.364165
  H 0.938664 -0.551670 -4.738090
  H 4.997700 0.078625 -0.283271
  H 4.804549 0.251746 -3.324036
 28
 -0.587114
  C 0.907992 -0.116031 0.274603
  C 2.393558 -0.011100 0.083117
  C 3.240830 0.025556 1.348862
  C 2.510177 0.055716 2.688733
  H 3.245398 0.139790 3.486389
  C 2.986862 0.051993 -1.130265
  C 2.339882 0.138814 -2.501721
  C 0.829458 0.196825 -2.717604
  C 0.530720 0.413402 -4.199081
  C 4.449478 0.064910 -1.230412
  C 5.187001 0.151733 -2.333877
  H 6.262423 0.131728 -2.277310
  H 0.661793 -0.423738 1.283432
  H 0.484560 -0.852117 -0.400005
  H 0.421560 0.841817 0.096440
  H 3.871138 0.918821 1.306978
  H 3.905084 -0.844416 1.356620
  H 1.942371 -0.855876 2.861568
  H 1.841781 0.910983 2.756530
  H 2.720286 -0.705347 -3.086985
  H 2.750941 1.046973 -2.956638
  H 0.392979 1.018720 -2.151604
  H 0.354624 -0.734410 -2.410341
  H 0.966031 1.347550 -4.547776
  H -0.542803 0.452881 -4.368552
  H 0.941206 -0.398244 -4.796179
  H 4.990506 -0.026334 -0.301512
  H 4.788660 0.246571 -3.328019
 28
 -0.568496
  C 0.941503 -0.300495 0.279002
  C 2.408016 -0.053025 0.081018
  C 3.238799 0.104727 1.343944
  C 2.471395 0.206995 2.659242
  H 3.177810 0.393006 3.466355
  C 2.993080 -0.010477 -1.133270
  C 2.338515 0.093067 -2.499789
  C 0.830264 0.221370 -2.703198
  C 0.534688 0.536633 -4.168054
  C 4.453451 0.010687 -1.238906
  C 5.191403 0.090161 -2.343386
  H 6.266606 0.053823 -2.283427
  H 0.775759 -0.851527 1.199746
  H 0.556010 -0.904255 -0.531594
  H 0.376614 0.628738 0.339466
  H 3.834646 1.016069 1.241639
  H 3.937444 -0.733569 1.429173
  H 1.941443 -0.712741 2.893700
  H 1.760189 1.029016 2.636972
  H 2.686537 -0.753378 -3.101421
  H 2.778017 0.994224 -2.942166
  H 0.431873 1.025176 -2.083885
  H 0.314900 -0.705268 -2.451184
  H 1.004074 1.472714 -4.464088
  H -0.537484 0.626224 -4.329197
  H 0.912668 -0.253743 -4.813514
  H 4.991516 -0.091073 -0.308389
  H 4.789926 0.193053 -3.335807
 28
 0.945097
  C 1.006388 -0.526317 0.269691
  C 2.428952 -0.096421 0.077797
  C 3.218619 0.223988 1.331380
  C 2.397081 0.353334 2.610373
  H 3.053136 0.637325 3.430954
  C 3.008967 -0.089974 -1.140178
  C 2.340902 0.059704 -2.497070
  C 0.838051 0.277778 -2.665051
  C 0.533652 0.670925 -4.108980
  C 4.466990 -0.075608 -1.254071
  C 5.201596 -0.018195 -2.362479
  H 6.275607 -0.083571 -2.309506
  H 0.967711 -1.270121 1.065202
  H 0.677964 -1.025982 -0.631363
  H 0.337926 0.288360 0.537173
  H 3.738628 1.171782 1.166016
  H 3.985915 -0.539343 1.498093
  H 1.917607 -0.584349 2.878085
  H 1.632353 1.119171 2.507516
  H 2.638018 -0.781080 -3.132596
  H 2.815828 0.954198 -2.915010
  H 0.501440 1.075904 -2.001817
  H 0.269617 -0.624211 -2.439890
  H 1.050288 1.590394 -4.376893
  H -0.534346 0.827747 -4.243405
  H 0.853296 -0.112082 -4.793719
  H 5.003111 -0.183623 -0.321957
  H 4.794227 0.087688 -3.352225
 28
 6.358225
  C 1.092834 -0.745689 0.240981
  C 2.451195 -0.135450 0.070734
  C 3.163926 0.392593 1.292895
  C 2.302563 0.466971 2.548732
  H 2.891712 0.863932 3.372879
  C 3.033572 -0.186886 -1.149585
  C 2.354237 0.058409 -2.489026
  C 0.858805 0.353327 -2.596076
  C 0.522199 0.805737 -4.014833
  C 4.487322 -0.202047 -1.271346
  C 5.218803 -0.165871 -2.385019
  H 6.288644 -0.284015 -2.342615
  H 1.198736 -1.596221 0.920527
  H 0.854322 -1.193950 -0.715853
  H 0.324957 -0.089695 0.635517
  H 3.530687 1.394975 1.054977
  H 4.044409 -0.218680 1.519418
  H 1.937760 -0.515584 2.836081
  H 1.448870 1.122939 2.396427
  H 2.597848 -0.750485 -3.185758
  H 2.861162 0.957893 -2.853866
  H 0.590118 1.144511 -1.893807
  H 0.251490 -0.522575 -2.371553
  H 1.078236 1.703660 -4.276988
  H -0.539774 1.023898 -4.102618
  H 0.772341 0.027827 -4.733420
  H 5.018728 -0.348997 -0.339975
  H 4.806775 -0.025132 -3.368554
 28
 15.264596
  C 1.181955 -0.950327 0.201948
  C 2.479904 -0.211470 0.066878
  C 3.083500 0.537175 1.225226
  C 2.200742 0.577144 2.468363
  H 2.683647 1.164708 3.246796
  C 3.062385 -0.318318 -1.164088
  C 2.369698 0.020664 -2.483778
  C 0.887354 0.393312 -2.510629
  C 0.520838 0.980928 -3.870006
  C 4.514811 -0.337357 -1.293978
  C 5.243700 -0.279199 -2.407207
  H 6.316283 -0.381031 -2.369099
  H 1.396186 -1.853495 0.785480
  H 1.030944 -1.358982 -0.801946
  H 0.349797 -0.435058 0.666169
  H 3.289992 1.556446 0.886705
  H 4.050048 0.101290 1.503866
  H 2.028461 -0.424691 2.854485
  H 1.240016 1.034300 2.247493
  H 2.537123 -0.771530 -3.222867
  H 2.918135 0.900280 -2.830089
  H 0.688141 1.135192 -1.733204
  H 0.244312 -0.464769 -2.322073
  H 1.111150 1.871212 -4.078456
  H -0.531293 1.254920 -3.895017
  H 0.704169 0.256510 -4.661487
  H 5.045573 -0.501075 -0.362188
  H 4.823812 -0.144344 -3.388642
 28
 32.102567
  C 1.289371 -1.101686 0.167693
  C 2.493197 -0.219543 0.066024
  C 3.010667 0.659915 1.162641
  C 2.140268 0.648924 2.413383
  H 2.587531 1.267727 3.189056
  C 3.068344 -0.371959 -1.177275
  C 2.395747 0.120064 -2.453877
  C 0.901955 0.448768 -2.442803
  C 0.485109 1.050138 -3.782555
  C 4.505644 -0.452078 -1.292219
  C 5.240591 -0.400965 -2.396809
  H 6.295766 -0.614608 -2.368219
  H 1.570635 -2.067418 0.605617
  H 1.313339 -1.444130 -0.888137
  H 0.412151 -0.716612 0.667829
  H 3.095454 1.677190 0.769946
  H 4.030648 0.354031 1.438039
  H 2.035038 -0.362908 2.796849
  H 1.149756 1.039469 2.196248
  H 2.593216 -0.561689 -3.284539
  H 2.925202 1.054588 -2.664507
  H 0.686093 1.152757 -1.639527
  H 0.306173 -0.447048 -2.272173
  H 1.045603 1.959899 -3.988890
  H -0.574431 1.296601 -3.776644
  H 0.668341 0.345895 -4.590886
  H 5.008139 -0.723236 -0.371002
  H 4.827517 -0.217779 -3.373888
 28
 56.558997
  C 1.383782 -1.165924 0.101730
  C 2.493530 -0.194459 0.068977
  C 2.953036 0.724814 1.152564
  C 2.048978 0.706420 2.379847
  H 2.436797 1.374698 3.145917
  C 3.083541 -0.382409 -1.179849
  C 2.404329 0.125883 -2.451570
  C 0.919953 0.476740 -2.373520
  C 0.449028 1.111440 -3.678424
  C 4.523331 -0.514478 -1.303526
  C 5.245692 -0.517280 -2.415314
  H 6.302945 -0.716138 -2.391278
  H 1.653929 -2.185020 0.403904
  H 1.741972 -1.484825 -1.004974
  H 0.445298 -0.878490 0.563578
  H 3.022985 1.743306 0.756233
  H 3.974190 0.444980 1.448588
  H 1.988442 -0.297646 2.793640
  H 1.045520 1.033781 2.119851
  H 2.551269 -0.591354 -3.266916
  H 2.948556 1.036969 -2.715662
  H 0.753982 1.173306 -1.549175
  H 0.323424 -0.415393 -2.180025
  H 1.002752 2.025363 -3.884406
  H -0.609500 1.357199 -3.623528
  H 0.599228 0.427723 -4.511823
  H 5.034078 -0.707745 -0.366381
  H 4.831657 -0.305577 -3.383832
 28
 70.997389
  C 1.408082 -1.198781 0.162159
  C 2.456359 -0.251555 0.077725
  C 2.910395 0.741965 1.091555
  C 2.026606 0.792276 2.331674
  H 2.421231 1.508261 3.049371
  C 3.060353 -0.498370 -1.208141
  C 2.404131 0.110559 -2.457777
  C 0.917599 0.438619 -2.361331
  C 0.439282 1.162931 -3.614835
  C 4.518648 -0.603536 -1.296155
  C 5.275885 -0.512517 -2.386693
  H 6.339529 -0.675711 -2.342857
  H 1.661678 -2.234134 0.348675
  H 1.974972 -1.491325 -1.148093
  H 0.471352 -0.944249 0.664072
  H 2.968535 1.737709 0.637268
  H 3.934721 0.479261 1.381577
  H 1.981630 -0.185608 2.805848
  H 1.015719 1.094586 2.068795
  H 2.570502 -0.546078 -3.315578
  H 2.940608 1.046254 -2.657689
  H 0.739749 1.067738 -1.486989
  H 0.334849 -0.476194 -2.234898
  H 0.982086 2.095970 -3.750657
  H -0.621377 1.391857 -3.541947
  H 0.596375 0.545115 -4.496905
  H 5.000255 -0.865119 -0.359510
  H 4.878470 -0.277239 -3.358128
 28
 52.690830
  C 1.397820 -1.189311 0.245679
  C 2.385608 -0.277430 0.079979
  C 2.868549 0.749563 1.027069
  C 2.035112 0.850628 2.297469
  H 2.432478 1.628229 2.949361
  C 3.035074 -0.581700 -1.236313
  C 2.396523 0.080101 -2.487061
  C 0.909449 0.396004 -2.383469
  C 0.441982 1.229680 -3.572844
  C 4.505202 -0.672960 -1.274953
  C 5.284891 -0.521011 -2.325447
  H 6.351333 -0.650964 -2.252908
  H 1.635200 -2.240281 0.316445
  H 2.258783 -1.478901 -1.265267
  H 0.482879 -0.992860 0.797508
  H 2.910098 1.731734 0.540124
  H 3.901127 0.485487 1.275892
  H 2.043879 -0.095923 2.835724
  H 1.002188 1.101849 2.058066
  H 2.573585 -0.563490 -3.350601
  H 2.927695 1.019631 -2.676235
  H 0.719439 0.947661 -1.460587
  H 0.328150 -0.527905 -2.340053
  H 0.983208 2.173915 -3.615923
  H -0.621764 1.446345 -3.493814
  H 0.614675 0.695046 -4.507006
  H 4.958883 -0.953625 -0.328000
  H 4.909023 -0.270068 -3.301621
 28
 29.144350
  C 1.371453 -1.249694 0.340176
  C 2.340457 -0.362022 0.061830
  C 2.840716 0.747404 0.928698
  C 2.048434 0.948123 2.213510
  H 2.491810 1.742566 2.809300
  C 3.002737 -0.672722 -1.267318
  C 2.414910 0.122934 -2.458810
  C 0.914048 0.377542 -2.380829
  C 0.446996 1.258986 -3.533323
  C 4.482425 -0.764681 -1.259726
  C 5.301484 -0.523299 -2.267023
  H 6.367320 -0.639352 -2.160258
  H 1.548726 -2.310735 0.303938
  H 2.349236 -1.584157 -1.388571
  H 0.531573 -1.023047 0.991984
  H 2.875616 1.691656 0.371854
  H 3.876935 0.491627 1.169161
  H 2.042660 0.034003 2.802298
  H 1.019492 1.219496 1.990755
  H 2.652420 -0.411597 -3.378871
  H 2.919978 1.095282 -2.509955
  H 0.673649 0.863500 -1.433825
  H 0.372873 -0.571671 -2.411158
  H 0.952425 2.221937 -3.508110
  H -0.624560 1.433212 -3.470178
  H 0.661037 0.785412 -4.489199
  H 4.898086 -1.122835 -0.324501
  H 4.961313 -0.188909 -3.231185
 28
 8.755037
  C 1.399049 -1.321995 0.458422
  C 2.310521 -0.451612 0.042328
  C 2.788391 0.759445 0.785666
  C 2.048614 1.048915 2.084771
  H 2.482382 1.916395 2.577088
  C 2.974397 -0.765094 -1.289262
  C 2.427412 0.144654 -2.409889
  C 0.915453 0.343232 -2.368861
  C 0.458192 1.313889 -3.451780
  C 4.462714 -0.841538 -1.234964
  C 5.308259 -0.495076 -2.183641
  H 6.371905 -0.601886 -2.050578
  H 1.468462 -2.374454 0.239512
  H 2.469799 -1.723406 -1.495403
  H 0.680208 -1.109636 1.236544
  H 2.749135 1.644510 0.141624
  H 3.845984 0.577031 0.999436
  H 2.115363 0.198675 2.759627
  H 0.998391 1.254042 1.891664
  H 2.706215 -0.292523 -3.369913
  H 2.911195 1.124692 -2.344332
  H 0.619530 0.727337 -1.391728
  H 0.415386 -0.618018 -2.509770
  H 0.926333 2.286479 -3.315745
  H -0.620814 1.445368 -3.416096
  H 0.725249 0.941360 -4.438664
  H 4.849562 -1.269475 -0.316876
  H 4.993013 -0.083333 -3.126203
 28
 -0.854059
  C 1.349430 -1.294382 0.501372
  C 2.296747 -0.490573 0.043242
  C 2.839868 0.705276 0.773636
  C 2.128145 1.055700 2.073551
  H 2.604088 1.918254 2.535123
  C 2.936898 -0.790601 -1.297954
  C 2.417233 0.176815 -2.377173
  C 0.897267 0.310209 -2.393712
  C 0.438490 1.263156 -3.491310
  C 4.431551 -0.858487 -1.220761
  C 5.297208 -0.409189 -2.110143
  H 6.358154 -0.524945 -1.963543
  H 1.158431 -2.262995 0.071006
  H 2.534166 -1.778107 -1.559392
  H 0.757352 -1.055902 1.368587
  H 2.827238 1.575410 0.110473
  H 3.892107 0.492048 0.986526
  H 2.172641 0.224864 2.773508
  H 1.084518 1.299771 1.888696
  H 2.743702 -0.194430 -3.351090
  H 2.865026 1.162715 -2.231279
  H 0.547633 0.677095 -1.427439
  H 0.448863 -0.672736 -2.555172
  H 0.858402 2.254830 -3.336055
  H -0.645743 1.347560 -3.496422
  H 0.759155 0.906048 -4.467912
  H 4.800450 -1.354641 -0.330099
  H 5.001283 0.095212 -3.013288
 28
 -3.691413
  C 1.412608 -1.338533 0.610840
  C 2.281978 -0.514407 0.050657
  C 2.802298 0.741417 0.697023
  C 2.233176 1.050563 2.075694
  H 2.657903 1.979598 2.449922
  C 2.848044 -0.816935 -1.326145
  C 2.403975 0.208529 -2.376131
  C 0.884424 0.324446 -2.459658
  C 0.454667 1.264107 -3.579327
  C 4.341121 -0.971386 -1.220208
  C 5.262461 -0.355774 -1.936671
  H 6.311697 -0.546644 -1.781531
  H 1.080533 -2.230825 0.106989
  H 2.441997 -1.795668 -1.623397
  H 0.987944 -1.171083 1.585152
  H 2.595918 1.585206 0.033135
  H 3.891768 0.657024 0.766392
  H 2.473523 0.257911 2.780710
  H 1.151970 1.163345 2.030945
  H 2.789006 -0.102818 -3.349827
  H 2.830936 1.186007 -2.146371
  H 0.493056 0.689291 -1.508086
  H 0.456242 -0.665572 -2.631560
  H 0.859817 2.261369 -3.417893
  H -0.629440 1.338126 -3.622835
  H 0.812509 0.902311 -4.541005
  H 4.644942 -1.680171 -0.457860
  H 5.025230 0.358542 -2.705975
