8

H -0.6379624590232953 -0.805433350434966 0.7520630905090558
C -0.235046 -0.938936 0.797194
C 0.812975 -0.076489 0.106169
H 1.2362124290046999 -0.2380418370451931 0.1767527158819472
H -0.010355 -0.992171 1.867378
H -0.171272 -1.961386 0.406136
H 0.610784 -0.054698 -0.966026
H 0.752798 0.944896 0.489015
