 26
 0.000000
  C 0.966390 0.141050 0.403487
  C 2.442297 0.138138 0.395502
  C 3.232954 0.606180 1.559358
  C 2.460054 1.096302 2.779058
  H 3.140314 1.409654 3.558329
  C 3.055366 -0.327195 -0.762594
  C 4.432500 -0.411275 -0.972658
  C 5.115351 -0.861596 -2.095750
  C 4.625003 -1.384453 -3.399909
  C 3.136254 -1.502643 -3.695502
  H 2.987214 -1.901031 -4.689261
  O 6.437793 -0.855021 -2.079553
  H 0.536902 0.512117 1.326638
  H 0.593292 -0.870264 0.236660
  H 0.592864 0.755295 -0.416872
  H 3.889369 1.416407 1.222775
  H 3.889736 -0.211305 1.877108
  H 1.825360 0.303809 3.172746
  H 1.825072 1.940604 2.514853
  H 2.395831 -0.644142 -1.551163
  H 5.051432 -0.080032 -0.147817
  H 5.084050 -2.371783 -3.523960
  H 5.084450 -0.756570 -4.171701
  H 2.658149 -0.526340 -3.647653
  H 2.657787 -2.175313 -2.986550
  H 6.812434 -0.520380 -1.243224
 26
 0.545712
  C 0.969821 0.454985 0.284666
  C 2.435918 0.307679 0.302070
  C 3.220355 0.419887 1.555218
  C 2.452952 0.742530 2.827580
  H 3.149409 0.805967 3.658997
  C 3.049917 -0.011872 -0.899929
  C 4.430046 -0.107842 -1.096191
  C 5.119491 -0.673883 -2.160617
  C 4.621382 -1.524191 -3.283926
  C 3.134881 -1.771146 -3.461424
  H 3.000363 -2.463224 -4.286957
  O 6.432696 -0.552964 -2.215289
  H 0.555113 0.717808 1.249162
  H 0.509114 -0.475198 -0.056970
  H 0.683789 1.208207 -0.443959
  H 3.983600 1.187831 1.409426
  H 3.763680 -0.518598 1.703735
  H 1.727980 -0.031439 3.062254
  H 1.941817 1.698303 2.751942
  H 2.399243 -0.143322 -1.748163
  H 5.053764 0.344765 -0.337019
  H 5.132454 -2.487344 -3.168799
  H 5.033185 -1.098613 -4.201266
  H 2.605362 -0.857645 -3.716346
  H 2.698904 -2.223108 -2.575198
  H 6.826358 -0.027711 -1.491527
 26
 2.059518
  C 0.974631 0.566687 0.226929
  C 2.437394 0.388281 0.228784
  C 3.226372 0.392005 1.486735
  C 2.457565 0.564080 2.787637
  H 3.157416 0.578854 3.618905
  C 3.055381 0.163576 -0.992262
  C 4.442068 0.059700 -1.182091
  C 5.129777 -0.646228 -2.156024
  C 4.605119 -1.571679 -3.198777
  C 3.118677 -1.867509 -3.270070
  H 2.956685 -2.646448 -4.015112
  O 6.448466 -0.601341 -2.187160
  H 0.551926 0.621030 1.219528
  H 0.495239 -0.245801 -0.322111
  H 0.719349 1.480035 -0.314994
  H 3.968254 1.199816 1.411765
  H 3.805170 -0.534204 1.539457
  H 1.767982 -0.258615 2.952654
  H 1.904440 1.498868 2.803811
  H 2.417031 0.125060 -1.859199
  H 5.062838 0.572971 -0.455390
  H 5.156945 -2.506736 -3.067927
  H 4.944072 -1.179246 -4.163234
  H 2.550353 -0.996834 -3.583883
  H 2.740673 -2.229571 -2.315396
  H 6.851676 -0.006973 -1.530527
 26
 6.159992
  C 0.998119 0.742262 0.131226
  C 2.449304 0.479250 0.106655
  C 3.237690 0.273530 1.353753
  C 2.475784 0.270902 2.664233
  H 3.174336 0.157502 3.485124
  C 3.077761 0.422550 -1.115738
  C 4.471882 0.274975 -1.299462
  C 5.138684 -0.584827 -2.145153
  C 4.564396 -1.671897 -2.981917
  C 3.065886 -1.923699 -2.931683
  H 2.837727 -2.791960 -3.547348
  O 6.456657 -0.569285 -2.212660
  H 0.573555 0.690277 1.129157
  H 0.474967 0.034647 -0.511001
  H 0.799748 1.730865 -0.289943
  H 3.996554 1.062750 1.389543
  H 3.796010 -0.660049 1.269821
  H 1.772890 -0.557052 2.711023
  H 1.936890 1.200710 2.815337
  H 2.467576 0.534592 -1.998105
  H 5.088312 0.933422 -0.695642
  H 5.103428 -2.580722 -2.708481
  H 4.863282 -1.462884 -4.015619
  H 2.507337 -1.088835 -3.328752
  H 2.735232 -2.132366 -1.918355
  H 6.882743 0.131730 -1.687278
 26
 12.004891
  C 1.061084 0.914606 0.039278
  C 2.502810 0.590667 0.000367
  C 3.257489 0.178388 1.215316
  C 2.466718 0.015536 2.503285
  H 3.147180 -0.231087 3.315426
  C 3.155522 0.652379 -1.203435
  C 4.552473 0.402323 -1.394097
  C 5.145164 -0.615848 -2.092900
  C 4.461551 -1.764477 -2.756517
  C 2.955306 -1.892834 -2.595221
  H 2.623781 -2.795986 -3.101476
  O 6.462622 -0.702529 -2.195427
  H 0.613494 0.724161 1.005995
  H 0.523998 0.339107 -0.715108
  H 0.912740 1.964092 -0.220616
  H 4.046529 0.923496 1.372448
  H 3.784340 -0.757969 1.002728
  H 1.738531 -0.788755 2.422246
  H 1.950072 0.933104 2.773999
  H 2.600757 0.979105 -2.070644
  H 5.211823 1.127660 -0.929351
  H 4.956867 -2.670749 -2.399456
  H 4.709920 -1.699276 -3.822873
  H 2.434318 -1.057593 -3.043585
  H 2.675786 -1.974254 -1.547964
  H 6.948321 0.045169 -1.804650
 26
 16.942061
  C 0.894899 0.739356 -0.296461
  C 2.349060 0.503517 -0.147233
  C 2.935989 -0.083036 1.090668
  C 1.964342 -0.567770 2.154763
  H 2.522235 -0.939062 3.010808
  C 3.184332 0.836543 -1.172855
  C 4.626071 0.694242 -1.158538
  C 5.381981 -0.297028 -1.705150
  C 4.874401 -1.491423 -2.445087
  C 3.374390 -1.713499 -2.471666
  H 3.161273 -2.619478 -3.034289
  O 6.710410 -0.284355 -1.636420
  H 0.317478 0.311998 0.512582
  H 0.538572 0.334318 -1.242281
  H 0.698055 1.811967 -0.331805
  H 3.598087 0.669975 1.536363
  H 3.597379 -0.904571 0.798004
  H 1.343345 -1.379202 1.782627
  H 1.319986 0.235675 2.505259
  H 2.768404 1.343096 -2.038257
  H 5.145564 1.530604 -0.697892
  H 5.376777 -2.365732 -2.021244
  H 5.254072 -1.404400 -3.469799
  H 2.862075 -0.891905 -2.967099
  H 2.972117 -1.841711 -1.471753
  H 7.079649 0.491926 -1.180802
 26
 13.229482
  C 0.954350 0.856678 -0.262412
  C 2.398313 0.550226 -0.172174
  C 2.991592 -0.135474 1.006871
  C 2.028934 -0.696294 2.038110
  H 2.592799 -1.145950 2.849977
  C 3.232095 0.948131 -1.177973
  C 4.650293 0.730109 -1.234980
  C 5.331589 -0.357189 -1.695575
  C 4.740810 -1.576482 -2.329149
  C 3.233552 -1.742167 -2.291772
  H 2.969423 -2.666255 -2.800652
  O 6.659224 -0.389402 -1.715003
  H 0.377482 0.385646 0.522881
  H 0.561628 0.550996 -1.230582
  H 0.801689 1.935447 -0.197690
  H 3.667531 0.563879 1.508886
  H 3.643305 -0.931321 0.629004
  H 1.388324 -1.462702 1.606185
  H 1.404331 0.081472 2.466937
  H 2.825580 1.594599 -1.955605
  H 5.242570 1.603345 -0.968178
  H 5.223841 -2.440684 -1.865618
  H 5.084990 -1.575491 -3.367201
  H 2.737547 -0.925372 -2.810196
  H 2.856222 -1.803305 -1.275612
  H 7.085479 0.397777 -1.336532
 26
 9.905420
  C 0.980832 0.874004 -0.216276
  C 2.429398 0.579281 -0.179326
  C 3.063743 -0.137305 0.961350
  C 2.134856 -0.768697 1.987871
  H 2.728512 -1.231252 2.773971
  C 3.226017 1.024480 -1.200789
  C 4.622303 0.778871 -1.361562
  C 5.266656 -0.383340 -1.707483
  C 4.646644 -1.646010 -2.210106
  C 3.130535 -1.766587 -2.230011
  H 2.865160 -2.724591 -2.672456
  O 6.589138 -0.456047 -1.729262
  H 0.436313 0.396406 0.587738
  H 0.557289 0.563454 -1.170871
  H 0.819985 1.951649 -0.146993
  H 3.725904 0.567341 1.478210
  H 3.734580 -0.898565 0.547013
  H 1.512089 -1.537960 1.537767
  H 1.492846 -0.028252 2.458714
  H 2.802515 1.746584 -1.890951
  H 5.241389 1.672288 -1.299893
  H 5.085392 -2.470415 -1.637951
  H 5.028424 -1.769921 -3.229215
  H 2.685374 -0.982376 -2.841273
  H 2.698163 -1.731257 -1.234971
  H 7.043625 0.343795 -1.407840
 26
 7.318871
  C 1.009424 0.886606 -0.166217
  C 2.454384 0.580884 -0.189655
  C 3.124923 -0.144222 0.925956
  C 2.229996 -0.842756 1.939570
  H 2.847969 -1.313058 2.699475
  C 3.215232 1.074718 -1.224864
  C 4.581906 0.803777 -1.483141
  C 5.209786 -0.403942 -1.697889
  C 4.571825 -1.703379 -2.069027
  C 3.057732 -1.784769 -2.174119
  H 2.791854 -2.770929 -2.548140
  O 6.527680 -0.484622 -1.765501
  H 0.490908 0.403436 0.650398
  H 0.548927 0.590402 -1.107763
  H 0.859381 1.963216 -0.082936
  H 3.753276 0.579965 1.458305
  H 3.829587 -0.863218 0.498256
  H 1.628166 -1.616224 1.468167
  H 1.570055 -0.144007 2.445712
  H 2.765796 1.844656 -1.845309
  H 5.193007 1.690548 -1.636638
  H 4.953244 -2.470005 -1.387486
  H 5.002296 -1.954064 -3.045370
  H 2.679548 -1.047703 -2.876946
  H 2.561181 -1.650403 -1.219715
  H 6.997839 0.343004 -1.549295
 26
 6.742531
  C 1.034102 0.943768 -0.098823
  C 2.467622 0.602558 -0.191005
  C 3.154228 -0.187945 0.867001
  C 2.274688 -0.925664 1.864173
  H 2.906102 -1.452706 2.579089
  C 3.200472 1.129940 -1.233101
  C 4.527067 0.824602 -1.598629
  C 5.166475 -0.396187 -1.706599
  C 4.543456 -1.735841 -1.940257
  C 3.032980 -1.847816 -2.096435
  H 2.794333 -2.865072 -2.398268
  O 6.479748 -0.460635 -1.811654
  H 0.567208 0.562403 0.794149
  H 0.508022 0.544764 -0.965593
  H 0.897476 2.021897 -0.137741
  H 3.798255 0.509479 1.419950
  H 3.846726 -0.893566 0.394873
  H 1.644608 -1.657122 1.367433
  H 1.641828 -0.246037 2.429995
  H 2.760622 1.961004 -1.770538
  H 5.118186 1.687558 -1.885996
  H 4.914531 -2.422351 -1.176478
  H 5.002834 -2.081190 -2.874850
  H 2.677203 -1.172265 -2.875732
  H 2.488566 -1.643327 -1.176743
  H 6.940728 0.392070 -1.705828
