 14
 0.000000
  H 1.365650 0.141294 0.403454
  C 2.435627 0.138812 0.396949
  C 3.229471 0.606512 1.560312
  H 2.691778 0.951460 2.418681
  C 3.047724 -0.326485 -0.761128
  C 4.427680 -0.410350 -0.970580
  C 5.111749 -0.860636 -2.093538
  H 4.760337 -1.236769 -3.031586
  O 6.434575 -0.852273 -2.073085
  H 3.886571 1.416144 1.222870
  H 3.886751 -0.211308 1.877002
  H 2.388559 -0.643775 -1.550690
  H 5.047217 -0.079018 -0.145404
  H 6.800018 -0.516405 -1.234749
 14
 0.000000
  H 1.361460 0.142118 0.405479
  C 2.431433 0.145112 0.412637
  C 3.207955 0.616835 1.586025
  H 2.657587 0.959003 2.437446
  C 3.060640 -0.317015 -0.737514
  C 4.443570 -0.393811 -0.929326
  C 5.208831 -0.881770 -2.146213
  H 4.871353 -1.259670 -3.088658
  O 6.386385 -0.881774 -2.146598
  H 3.865159 1.429829 1.256970
  H 3.865314 -0.197620 1.911112
  H 2.413242 -0.637651 -1.535417
  H 5.050818 -0.059337 -0.096318
  H 6.689958 -0.547046 -1.311116
 14
 0.000000
  H 1.351649 0.145419 0.413674
  C 2.421453 0.153169 0.432704
  C 3.182802 0.628317 1.614624
  H 2.621504 0.968018 2.459876
  C 3.065434 -0.306132 -0.710381
  C 4.450736 -0.376776 -0.886832
  C 5.303814 -0.906112 -2.206885
  H 4.978499 -1.285490 -3.153007
  O 6.360276 -0.914615 -2.228438
  H 3.839996 1.444231 1.292859
  H 3.840128 -0.183214 1.947009
  H 2.428361 -0.629628 -1.515410
  H 5.047209 -0.039621 -0.047147
  H 6.617329 -0.577917 -1.388048
 14
 0.000000
  H 1.336413 0.151225 0.428110
  C 2.405954 0.163012 0.457220
  C 3.154333 0.641014 1.646251
  H 2.583817 0.978582 2.486170
  C 3.062407 -0.293840 -0.679736
  C 4.449567 -0.359253 -0.843125
  C 5.396859 -0.933766 -2.275811
  H 5.081908 -1.314356 -3.224948
  O 6.355721 -0.950486 -2.317830
  H 3.811447 1.459407 1.330676
  H 3.811557 -0.168035 1.984834
  H 2.434174 -0.619727 -1.490726
  H 5.036825 -0.019861 0.002137
  H 6.578301 -0.608616 -1.464547
 14
 0.000000
  H 1.316366 0.159346 0.448317
  C 2.385605 0.174476 0.485775
  C 3.123182 0.654805 1.680605
  H 2.545075 0.990582 2.516039
  C 3.052338 -0.280313 -0.646015
  C 4.440929 -0.341389 -0.798569
  C 5.487378 -0.964249 -2.351788
  H 5.181036 -1.345814 -3.303349
  O 6.370510 -0.988646 -2.412928
  H 3.780179 1.475250 1.370155
  H 3.780268 -0.152189 2.024321
  H 2.431476 -0.608156 -1.461879
  H 5.020508 -0.000170 0.051246
  H 6.567936 -0.638503 -1.539014
 14
 0.000000
  H 1.292505 0.169384 0.473300
  C 2.361441 0.187247 0.517587
  C 3.090142 0.669455 1.717098
  H 2.505853 1.003750 2.548818
  C 3.036550 -0.265832 -0.609916
  C 4.426239 -0.323358 -0.753597
  C 5.574706 -0.996611 -2.432447
  H 5.275425 -1.378954 -3.385941
  O 6.400627 -1.028068 -2.511172
  H 3.747008 1.491578 1.410841
  H 3.747079 -0.135858 2.065013
  H 2.421751 -0.595258 -1.429725
  H 4.999504 0.019338 0.099898
  H 6.579475 -0.667014 -1.610050
 14
 0.000000
  H 1.265802 0.180909 0.501991
  C 2.334449 0.201030 0.551923
  C 3.055783 0.684775 1.755262
  H 2.466405 1.017833 2.583881
  C 3.016460 -0.250619 -0.571994
  C 4.407008 -0.305208 -0.708333
  C 5.658795 -1.029905 -2.515426
  H 5.365363 -1.412876 -3.470484
  O 6.441642 -1.067868 -2.610359
  H 3.712520 1.508284 1.452471
  H 3.712575 -0.119149 2.106650
  H 2.406698 -0.581342 -1.395036
  H 4.975031 0.038697 0.148176
  H 6.605807 -0.693980 -1.677233
 14
 0.000000
  H 1.236893 0.193617 0.533631
  C 2.305268 0.215659 0.588366
  C 3.020315 0.700699 1.794931
  H 2.426620 1.032697 2.620890
  C 2.993133 -0.234764 -0.532472
  C 4.384376 -0.286853 -0.662558
  C 5.740134 -1.063469 -2.599081
  H 5.451687 -1.446966 -3.555446
  O 6.490092 -1.107509 -2.709153
  H 3.676925 1.525388 1.495088
  H 3.676964 -0.102043 2.149274
  H 2.387672 -0.566581 -1.358244
  H 4.947925 0.058072 0.196492
  H 6.641225 -0.719558 -1.740954
 14
 0.000000
  H 1.206070 0.207348 0.567821
  C 2.274183 0.231081 0.626785
  C 2.983679 0.717252 1.836169
  H 2.386193 1.048311 2.659770
  C 2.967194 -0.218253 -0.491316
  C 4.359022 -0.268139 -0.615892
  C 5.819324 -1.096902 -2.682404
  H 5.535273 -1.480854 -3.639902
  O 6.543759 -1.146716 -2.806862
  H 3.640164 1.542980 1.538924
  H 3.640190 -0.084449 2.193115
  H 2.365534 -0.551028 -1.319477
  H 4.918618 0.077678 0.245381
  H 6.681817 -0.744002 -1.801848
 14
 0.000000
  H 1.173374 0.222047 0.604426
  C 2.241233 0.247321 0.667243
  C 2.945660 0.734515 1.879176
  H 2.344730 1.064712 2.700613
  C 2.938919 -0.201014 -0.448349
  C 4.331258 -0.248894 -0.567904
  C 5.896817 -1.129929 -2.764716
  H 5.616775 -1.514289 -3.723230
  O 6.601343 -1.185331 -2.903096
  H 3.602022 1.561188 1.584295
  H 3.602034 -0.066238 2.238492
  H 2.340730 -0.534657 -1.278673
  H 4.887244 0.097730 0.295380
  H 6.725036 -0.767522 -1.860441
 14
 0.000000
  H 1.138666 0.237737 0.643500
  C 2.206270 0.264455 0.709929
  C 2.905933 0.752603 1.924236
  H 2.301782 1.081987 2.743634
  C 2.908333 -0.182937 -0.403293
  C 4.301132 -0.228935 -0.518136
  C 5.972840 -1.162314 -2.845428
  H 5.696563 -1.547052 -3.804883
  O 6.662083 -1.223227 -2.997537
  H 3.562171 1.580162 1.631573
  H 3.562170 -0.047262 2.285775
  H 2.313408 -0.517390 -1.235635
  H 4.853725 0.118442 0.347022
  H 6.769177 -0.790231 -1.917012
 14
 0.000000
  H 1.101631 0.254503 0.685255
  C 2.168978 0.282610 0.755161
  C 2.864046 0.771670 1.971737
  H 2.256801 1.100268 2.789162
  C 2.875245 -0.163868 -0.355767
  C 4.268469 -0.208053 -0.466072
  C 6.047381 -1.193796 -2.923886
  H 5.774731 -1.578892 -3.884235
  O 6.725472 -1.260249 -3.089799
  H 3.520156 1.600082 1.681210
  H 3.520143 -0.027340 2.335416
  H 2.283471 -0.499096 -1.190040
  H 4.817789 0.140044 0.400880
  H 6.812992 -0.812117 -1.971536
 14
 0.000000
  H 1.061726 0.272507 0.730095
  C 2.128806 0.301986 0.803433
  C 2.819329 0.791939 2.022236
  H 2.209036 1.119758 2.837702
  C 2.839215 -0.143586 -0.305216
  C 4.232842 -0.185979 -0.411040
  C 6.120155 -1.224024 -2.999217
  H 5.851090 -1.609469 -3.960437
  O 6.791042 -1.296155 -3.179279
  H 3.475305 1.621194 1.733816
  H 3.475279 -0.006226 2.388027
  H 2.250558 -0.479574 -1.141386
  H 4.778923 0.162823 0.457672
  H 6.855398 -0.833017 -2.023603
 14
 0.000000
  H 1.017983 0.292045 0.778757
  C 2.084778 0.322917 0.855581
  C 2.770675 0.813772 2.076631
  H 2.157294 1.140795 2.890097
  C 2.799387 -0.121727 -0.250739
  C 4.193406 -0.162301 -0.352009
  C 6.190498 -1.252460 -3.070080
  H 5.925079 -1.638254 -4.032173
  O 6.858119 -1.330516 -3.264904
  H 3.426506 1.643883 1.790351
  H 3.426468 0.016464 2.444566
  H 2.213904 -0.458484 -1.088826
  H 4.736190 0.187215 0.518481
  H 6.895190 -0.852529 -2.072216
