 20
 0.000000
  C 0.961392 0.061164 0.186547
  C 2.464105 0.061551 0.154007
  C 3.253417 -0.010741 1.445297
  C 2.456032 -0.095422 2.742684
  H 3.139576 -0.145178 3.586714
  C 3.094093 0.121192 -1.025542
  H 2.586560 0.177406 -1.977274
  C 4.533164 0.132234 -1.173483
  C 5.154416 0.196870 -2.352290
  O 6.500409 0.209457 -2.529186
  H 0.561632 0.008696 1.193096
  H 0.570946 -0.794548 -0.363433
  H 0.572528 0.970527 -0.270695
  H 3.900271 0.873755 1.512674
  H 3.905487 -0.888659 1.398655
  H 1.830199 -0.985438 2.760752
  H 1.822471 0.779862 2.871342
  H 5.144197 0.086009 -0.281762
  H 4.645397 0.246778 -3.303323
  H 6.939107 0.164405 -1.669842
 20
 -0.709809
  C 0.991173 -0.027450 0.160913
  C 2.493521 -0.009828 0.185974
  C 3.237149 -0.154724 1.493336
  C 2.422192 0.045680 2.763139
  H 3.084545 0.010598 3.623937
  C 3.151377 0.126297 -0.976267
  H 2.575003 0.235807 -1.886092
  C 4.578785 0.137291 -1.167113
  C 5.143475 0.299477 -2.366164
  O 6.476143 0.313940 -2.619328
  H 0.562995 -0.199679 1.137698
  H 0.636848 -0.810300 -0.510220
  H 0.609638 0.923060 -0.215022
  H 4.049954 0.573496 1.499004
  H 3.693687 -1.147554 1.526644
  H 1.677910 -0.734431 2.889134
  H 1.924994 1.013872 2.756731
  H 5.215032 -0.003313 -0.303219
  H 4.570385 0.437057 -3.270680
  H 6.962577 0.188894 -1.795945
 20
 -0.797678
  C 0.983941 -0.149987 0.149740
  C 2.486495 -0.110547 0.185176
  C 3.201712 -0.319072 1.496596
  C 2.469512 0.208865 2.728261
  H 3.114246 0.116373 3.600176
  C 3.151177 0.112294 -0.955702
  H 2.582604 0.306127 -1.857371
  C 4.579226 0.127298 -1.155932
  C 5.134741 0.424716 -2.334079
  O 6.464242 0.444922 -2.600798
  H 0.559245 -0.426780 1.108111
  H 0.646016 -0.871595 -0.593272
  H 0.583613 0.823390 -0.132958
  H 4.158419 0.201726 1.434031
  H 3.406457 -1.385939 1.634663
  H 1.558563 -0.348067 2.932404
  H 2.215499 1.258726 2.599424
  H 5.224924 -0.134860 -0.327595
  H 4.555125 0.683804 -3.207812
  H 6.958645 0.209939 -1.803547
 20
 0.052421
  C 0.961934 -0.300205 0.148535
  C 2.459398 -0.189380 0.189042
  C 3.172304 -0.426303 1.495882
  C 2.549883 0.358117 2.653425
  H 3.164245 0.245754 3.544735
  C 3.131908 0.178266 -0.905370
  H 2.593876 0.513330 -1.784678
  C 4.556730 0.116389 -1.123884
  C 5.130519 0.571783 -2.239150
  O 6.452638 0.501283 -2.535562
  H 0.561453 -0.643007 1.097315
  H 0.664299 -1.009260 -0.623418
  H 0.503883 0.658841 -0.092637
  H 4.182848 -0.042705 1.357330
  H 3.194930 -1.488712 1.749387
  H 1.549373 0.007255 2.891209
  H 2.494236 1.415368 2.403583
  H 5.181447 -0.354526 -0.375734
  H 4.575216 1.048402 -3.033387
  H 6.924839 0.069957 -1.811467
 20
 4.768222
  C 0.954061 -0.444645 0.116109
  C 2.434784 -0.222918 0.193486
  C 3.149557 -0.495392 1.491966
  C 2.619079 0.459344 2.570696
  H 3.253602 0.408719 3.452951
  C 3.128715 0.315393 -0.818626
  H 2.626872 0.818310 -1.639433
  C 4.528706 0.107840 -1.103542
  C 5.145820 0.673964 -2.141716
  O 6.433125 0.456904 -2.510014
  H 0.580119 -0.887404 1.035020
  H 0.728960 -1.116632 -0.710828
  H 0.414420 0.485959 -0.062207
  H 4.168159 -0.165320 1.288020
  H 3.056860 -1.523805 1.835377
  H 1.604717 0.203219 2.868529
  H 2.619201 1.480996 2.198982
  H 5.089044 -0.574361 -0.475934
  H 4.658563 1.369637 -2.808263
  H 6.841070 -0.174230 -1.903505
 20
 17.004692
  C 0.969181 -0.530005 0.024490
  C 2.408973 -0.181750 0.219263
  C 3.130121 -0.493803 1.508824
  C 2.663493 0.493538 2.593494
  H 3.307501 0.408083 3.465732
  C 3.160827 0.472946 -0.687855
  H 2.698398 1.125678 -1.427127
  C 4.495617 0.106249 -1.084971
  C 5.153283 0.708259 -2.078951
  O 6.364997 0.331698 -2.561877
  H 0.582458 -1.055308 0.893979
  H 0.868159 -1.168531 -0.851426
  H 0.352224 0.354845 -0.143952
  H 4.101588 -0.082770 1.225185
  H 3.025728 -1.511885 1.867739
  H 1.640495 0.289538 2.907351
  H 2.706427 1.513311 2.220183
  H 4.973440 -0.715473 -0.563688
  H 4.745387 1.534928 -2.640354
  H 6.695305 -0.419551 -2.053206
 20
 35.388641
  C 0.961030 -0.567825 -0.084594
  C 2.375949 -0.200471 0.222105
  C 3.071046 -0.517000 1.524042
  C 2.739166 0.522965 2.616033
  H 3.522980 0.517315 3.369756
  C 3.188658 0.535655 -0.579415
  H 2.771775 1.292420 -1.250213
  C 4.454783 0.070471 -1.073951
  C 5.141216 0.694685 -2.045072
  O 6.350206 0.300001 -2.535886
  H 0.552814 -1.191959 0.707695
  H 0.921291 -1.104319 -1.031513
  H 0.326983 0.317304 -0.190126
  H 4.010173 -0.024709 1.172254
  H 2.927492 -1.523052 1.906434
  H 1.797323 0.293138 3.112726
  H 2.657179 1.517634 2.186539
  H 4.855883 -0.846174 -0.651736
  H 4.823785 1.626695 -2.488660
  H 6.607739 -0.532392 -2.118744
 20
 63.467816
  C 0.985999 -0.649073 -0.220635
  C 2.324780 -0.194283 0.236387
  C 2.979483 -0.480759 1.534909
  C 2.831361 0.551206 2.673350
  H 3.660222 0.456373 3.369425
  C 3.213141 0.604029 -0.460485
  H 2.841005 1.434369 -1.072802
  C 4.427227 0.074510 -1.034461
  C 5.136626 0.704893 -1.976639
  O 6.245128 0.206900 -2.589742
  H 0.528172 -1.297526 0.522997
  H 1.066595 -1.186567 -1.164670
  H 0.322246 0.203792 -0.386338
  H 3.873380 0.175621 1.072765
  H 2.859582 -1.487146 1.929164
  H 1.907859 0.377274 3.231315
  H 2.801461 1.567976 2.289408
  H 4.753569 -0.898570 -0.681673
  H 4.870247 1.673830 -2.368685
  H 6.448131 -0.662735 -2.225917
 20
 80.083401
  C 0.982062 -0.689127 -0.243290
  C 2.304732 -0.239639 0.271968
  C 2.886745 -0.489417 1.537712
  C 2.861501 0.550105 2.656937
  H 3.730931 0.453437 3.306451
  C 3.238584 0.622946 -0.388649
  H 2.860241 1.465853 -0.977525
  C 4.449236 0.065194 -1.015853
  C 5.132617 0.686659 -1.972887
  O 6.240277 0.194230 -2.600308
  H 0.492590 -1.344190 0.473883
  H 1.075593 -1.210522 -1.197451
  H 0.346517 0.182529 -0.410779
  H 3.868487 0.376022 0.875794
  H 2.744239 -1.486299 1.976138
  H 1.971838 0.387008 3.270054
  H 2.825301 1.567010 2.270446
  H 4.772495 -0.911726 -0.673654
  H 4.867866 1.661707 -2.352090
  H 6.445436 -0.678660 -2.245659
 20
 64.479967
  C 1.046601 -0.727641 -0.279030
  C 2.305713 -0.254330 0.331999
  C 2.769566 -0.494420 1.577854
  C 2.848015 0.538361 2.675580
  H 3.742643 0.422155 3.284616
  C 3.283503 0.681756 -0.291971
  H 2.883935 1.516454 -0.854733
  C 4.457634 0.073438 -0.995061
  C 5.100635 0.662081 -1.983852
  O 6.167480 0.139593 -2.660057
  H 0.529605 -1.414024 0.387863
  H 1.209520 -1.221704 -1.236568
  H 0.409128 0.138524 -0.460892
  H 3.856206 0.564990 0.749658
  H 2.606728 -1.473766 2.038800
  H 1.986761 0.392693 3.327106
  H 2.822945 1.556620 2.289596
  H 4.760339 -0.916291 -0.667722
  H 4.845466 1.644559 -2.355096
  H 6.367914 -0.734209 -2.310860
 20
 38.994657
  C 1.222766 -0.755595 -0.354573
  C 2.396570 -0.238064 0.397725
  C 2.725235 -0.502299 1.666277
  C 2.794379 0.521288 2.765586
  H 3.599298 0.330167 3.478582
  C 3.365239 0.760450 -0.198556
  H 2.947438 1.607092 -0.728817
  C 4.444298 0.086798 -1.009447
  C 5.003559 0.622353 -2.081960
  O 5.993468 0.057887 -2.828883
  H 0.649988 -1.453512 0.251530
  H 1.491513 -1.241227 -1.295578
  H 0.597585 0.103383 -0.595736
  H 3.960432 0.825473 0.742012
  H 2.451774 -1.465609 2.108870
  H 1.851056 0.458703 3.305776
  H 2.910840 1.534030 2.383941
  H 4.766511 -0.884870 -0.655460
  H 4.724711 1.589203 -2.473153
  H 6.221494 -0.803625 -2.458281
 20
 20.237521
  C 1.356471 -0.766459 -0.460042
  C 2.432616 -0.217031 0.414331
  C 2.593667 -0.488505 1.712750
  C 2.818043 0.493303 2.827531
  H 3.638731 0.203932 3.487620
  C 3.386666 0.818060 -0.145058
  H 2.935749 1.621058 -0.716934
  C 4.427970 0.111535 -0.975880
  C 4.908889 0.579511 -2.116898
  O 5.855279 -0.021310 -2.889039
  H 0.758008 -1.501491 0.072373
  H 1.739859 -1.217993 -1.376943
  H 0.719469 0.069350 -0.746080
  H 3.946979 1.062383 0.765995
  H 2.225914 -1.425883 2.131723
  H 1.905347 0.499745 3.421338
  H 3.003142 1.503901 2.472246
  H 4.770800 -0.841039 -0.590465
  H 4.597251 1.519777 -2.547007
  H 6.113703 -0.859039 -2.485278
 20
 7.978964
  C 1.509684 -0.829834 -0.528809
  C 2.426832 -0.160170 0.445883
  C 2.438869 -0.425001 1.751977
  C 2.820049 0.498162 2.872966
  H 3.552042 0.043215 3.542376
  C 3.387503 0.859689 -0.119244
  H 2.908014 1.632044 -0.715791
  C 4.404347 0.132599 -0.957951
  C 4.809156 0.537271 -2.164525
  O 5.746678 -0.075021 -2.939719
  H 0.896323 -1.581032 -0.037707
  H 2.052829 -1.295819 -1.351845
  H 0.857323 -0.068175 -0.954278
  H 3.942811 1.246912 0.743276
  H 1.947543 -1.304629 2.159463
  H 1.918644 0.688680 3.454598
  H 3.210625 1.452856 2.533280
  H 4.817273 -0.767816 -0.517735
  H 4.427449 1.425735 -2.647042
  H 6.072254 -0.863468 -2.487780
 20
 2.570441
  C 1.605833 -0.826414 -0.572005
  C 2.412475 -0.092214 0.456016
  C 2.292817 -0.338616 1.753594
  C 2.840149 0.447487 2.905069
  H 3.542912 -0.152898 3.484840
  C 3.403389 0.906085 -0.093650
  H 2.916212 1.668241 -0.701755
  C 4.428339 0.182907 -0.918452
  C 4.706558 0.473914 -2.179343
  O 5.627323 -0.153255 -2.958886
  H 1.016018 -1.617725 -0.116538
  H 2.244618 -1.254691 -1.343144
  H 0.927483 -0.125562 -1.058992
  H 3.923525 1.357302 0.753695
  H 1.702237 -1.181832 2.095044
  H 2.015280 0.712764 3.565988
  H 3.339189 1.362555 2.601659
  H 4.945070 -0.626535 -0.416838
  H 4.211852 1.266870 -2.720870
  H 6.044968 -0.862186 -2.454041
 20
 1.532035
  C 1.688919 -0.837308 -0.586502
  C 2.433694 -0.079188 0.473102
  C 2.182746 -0.263182 1.762342
  C 2.787062 0.457065 2.927954
  H 3.560294 -0.156594 3.393947
  C 3.478480 0.885569 -0.041934
  H 3.003836 1.694426 -0.601937
  C 4.467683 0.178877 -0.918719
  C 4.642483 0.442802 -2.203958
  O 5.520498 -0.179295 -3.034443
  H 1.112548 -1.651057 -0.154930
  H 2.375257 -1.239713 -1.328400
  H 1.002494 -0.165251 -1.103622
  H 4.020242 1.305244 0.810332
  H 1.493909 -1.041355 2.069244
  H 2.018421 0.638172 3.677013
  H 3.225999 1.412337 2.652884
  H 5.049102 -0.598343 -0.437433
  H 4.076582 1.197120 -2.730319
  H 6.006000 -0.854129 -2.543229
