 23
 0.000000
  H 1.513806 0.150486 0.425881
  C 2.593968 0.140047 0.399948
  C 3.326526 0.614002 1.579274
  C 2.439840 1.077005 2.731186
  C 3.276709 1.552491 3.914630
  C 3.178118 -0.326020 -0.760030
  C 4.556113 -0.411247 -0.972300
  C 5.186219 -0.874712 -2.128948
  C 4.534677 -1.366247 -3.355311
  H 3.453390 -1.358501 -3.336739
  O 6.493468 -0.900605 -2.194321
  H 3.988599 1.437775 1.286050
  H 3.988622 -0.183571 1.937615
  H 1.796330 0.257801 3.057043
  H 1.796539 1.894021 2.399503
  H 3.909976 0.752175 4.290691
  H 2.632007 1.878907 4.726750
  H 3.910148 2.390362 3.632351
  H 2.517567 -0.644320 -1.553143
  H 5.200609 -0.087679 -0.165155
  H 4.890332 -2.379099 -3.550759
  H 4.890829 -0.769144 -4.196257
  H 6.953995 -0.579953 -1.394776
 23
 0.663500
  H 1.550910 0.033270 0.478309
  C 2.630266 -0.023265 0.445722
  C 3.351010 0.596884 1.563729
  C 2.450331 1.024825 2.719317
  C 3.255511 1.671127 3.841222
  C 3.205952 -0.599922 -0.661821
  C 4.585871 -0.741275 -0.850003
  C 5.211502 -0.980472 -2.074805
  C 4.514957 -1.118532 -3.368095
  H 3.439299 -1.043452 -3.286434
  O 6.513156 -1.023921 -2.166621
  H 3.892547 1.477908 1.195367
  H 4.129185 -0.080147 1.933974
  H 1.921732 0.154214 3.112297
  H 1.700713 1.733286 2.362110
  H 3.997978 0.980575 4.234706
  H 2.600825 1.960777 4.659211
  H 3.767033 2.563898 3.488767
  H 2.541301 -0.939552 -1.442379
  H 5.225713 -0.605420 0.012288
  H 4.785698 -2.075678 -3.815267
  H 4.885496 -0.358384 -4.055899
  H 6.997598 -0.973816 -1.320247
 23
 3.573801
  H 1.515265 -0.130605 0.509266
  C 2.593989 -0.185013 0.461931
  C 3.332625 0.582842 1.473846
  C 2.477404 1.012103 2.663930
  C 3.293919 1.811560 3.673018
  C 3.166931 -0.862328 -0.578058
  C 4.556553 -1.023306 -0.749558
  C 5.204366 -0.996084 -1.980423
  C 4.522236 -0.773383 -3.270916
  H 3.451854 -0.655363 -3.169342
  O 6.506524 -1.061665 -2.069301
  H 3.747700 1.483773 1.004681
  H 4.202403 0.013610 1.818568
  H 2.065204 0.127646 3.153462
  H 1.638997 1.620099 2.319178
  H 4.127914 1.224363 4.050550
  H 2.674522 2.097264 4.519481
  H 3.687466 2.720042 3.222846
  H 2.511343 -1.271859 -1.335068
  H 5.165281 -1.118703 0.141070
  H 4.743168 -1.609490 -3.935648
  H 4.945688 0.106180 -3.755115
  H 6.975918 -1.262419 -1.237357
 23
 8.347206
  H 1.475626 -0.288956 0.519391
  C 2.553169 -0.333066 0.448814
  C 3.312381 0.553407 1.349549
  C 2.508053 1.016382 2.562183
  C 3.335950 1.929173 3.459558
  C 3.124376 -1.101909 -0.509527
  C 4.530452 -1.260916 -0.679432
  C 5.194679 -0.954741 -1.856860
  C 4.513025 -0.425266 -3.056186
  H 3.448070 -0.301483 -2.906891
  O 6.497348 -1.026031 -1.960033
  H 3.635252 1.441828 0.793917
  H 4.235190 0.053966 1.663756
  H 2.180559 0.146074 3.134313
  H 1.614673 1.551253 2.234426
  H 4.226047 1.417547 3.818237
  H 2.753556 2.237555 4.324251
  H 3.644895 2.824749 2.925392
  H 2.480880 -1.612276 -1.217759
  H 5.103914 -1.607180 0.171892
  H 4.696768 -1.101089 -3.892497
  H 4.961526 0.525129 -3.343281
  H 6.960762 -1.413565 -1.193928
 23
 14.064590
  H 1.460640 -0.464409 0.531254
  C 2.535296 -0.483758 0.430994
  C 3.301777 0.500841 1.231893
  C 2.531858 0.999755 2.449990
  C 3.351943 2.006511 3.247296
  C 3.111893 -1.323026 -0.441286
  C 4.531631 -1.465997 -0.649384
  C 5.196033 -0.904967 -1.727390
  C 4.502743 -0.123652 -2.770790
  H 3.445821 -0.007822 -2.558003
  O 6.493588 -0.986345 -1.868984
  H 3.548782 1.365737 0.606208
  H 4.259243 0.056959 1.526575
  H 2.275119 0.152918 3.088806
  H 1.598688 1.469518 2.134475
  H 4.281692 1.561318 3.592738
  H 2.793261 2.341713 4.117830
  H 3.591188 2.879230 2.644324
  H 2.482195 -1.960888 -1.056553
  H 5.084830 -2.050348 0.075543
  H 4.636425 -0.623368 -3.731791
  H 4.975634 0.851956 -2.881304
  H 6.961037 -1.518484 -1.197488
 23
 14.911697
  H 1.484464 -0.549749 0.509808
  C 2.561386 -0.566213 0.400219
  C 3.312648 0.451668 1.184803
  C 2.519548 1.007952 2.363952
  C 3.320920 2.059621 3.128979
  C 3.147664 -1.466781 -0.396799
  C 4.552340 -1.598689 -0.693131
  C 5.210222 -0.858372 -1.657942
  C 4.488545 0.051943 -2.572387
  H 3.437849 0.125245 -2.320273
  O 6.504264 -0.921702 -1.845914
  H 3.552791 1.275816 0.499925
  H 4.263448 0.050900 1.538438
  H 2.260200 0.193823 3.045815
  H 1.586905 1.452929 2.008116
  H 4.249350 1.637825 3.512630
  H 2.745988 2.434449 3.974271
  H 3.565575 2.903833 2.485646
  H 2.530621 -2.245965 -0.839810
  H 5.091060 -2.363550 -0.142499
  H 4.593303 -0.303039 -3.600646
  H 4.961489 1.033876 -2.554153
  H 6.989879 -1.516864 -1.247433
 23
 9.657150
  H 1.496853 -0.700981 0.552274
  C 2.565554 -0.694064 0.391446
  C 3.308781 0.372517 1.097218
  C 2.533422 0.989353 2.258635
  C 3.315715 2.126663 2.907038
  C 3.136952 -1.652200 -0.376683
  C 4.506396 -1.756491 -0.757197
  C 5.195196 -0.831188 -1.527914
  C 4.524080 0.294679 -2.214260
  H 3.484148 0.388150 -1.925428
  O 6.472423 -0.936057 -1.786910
  H 3.521818 1.165291 0.368814
  H 4.278832 0.016042 1.448051
  H 2.332826 0.222619 3.009660
  H 1.572255 1.367907 1.906101
  H 4.268172 1.770995 3.294698
  H 2.752874 2.550412 3.735478
  H 3.510188 2.922227 2.190940
  H 2.519050 -2.493613 -0.679818
  H 5.015719 -2.662835 -0.450730
  H 4.579156 0.135409 -3.292566
  H 5.073422 1.216385 -2.025601
  H 6.946895 -1.632417 -1.294700
 23
 7.372498
  H 1.519239 -0.703051 0.519183
  C 2.589688 -0.718641 0.365454
  C 3.333698 0.356923 1.048621
  C 2.531824 1.034662 2.159808
  C 3.341502 2.138424 2.830826
  C 3.154107 -1.736751 -0.345913
  C 4.483254 -1.810686 -0.815633
  C 5.165667 -0.782434 -1.458312
  C 4.481733 0.366321 -2.093051
  H 3.417136 0.376101 -1.896869
  O 6.456949 -0.798890 -1.653183
  H 3.594658 1.123289 0.309811
  H 4.281016 -0.014199 1.445596
  H 2.249812 0.293232 2.910016
  H 1.613732 1.459596 1.750426
  H 4.257102 1.740157 3.262097
  H 2.766124 2.597851 3.630601
  H 3.605739 2.915757 2.117709
  H 2.554520 -2.628105 -0.501343
  H 4.972660 -2.773292 -0.729001
  H 4.643855 0.300796 -3.169993
  H 4.951096 1.299547 -1.785070
  H 6.934170 -1.554653 -1.261541
 23
 8.787642
  H 1.513421 -0.529734 0.324662
  C 2.587585 -0.639959 0.256933
  C 3.349922 0.402992 0.968385
  C 2.555437 1.038829 2.114388
  C 3.390549 2.082730 2.846256
  C 3.138540 -1.744912 -0.337785
  C 4.456372 -1.832543 -0.811177
  C 5.138089 -0.756001 -1.383748
  C 4.438390 0.316849 -2.127053
  H 3.360589 0.234127 -2.063547
  O 6.437200 -0.661509 -1.435006
  H 3.597705 1.207773 0.266627
  H 4.296381 0.009823 1.342959
  H 2.252210 0.263586 2.820471
  H 1.651430 1.509042 1.724486
  H 4.298133 1.640035 3.250198
  H 2.826530 2.505466 3.673930
  H 3.670016 2.895171 2.179638
  H 2.531267 -2.640865 -0.403024
  H 4.942808 -2.798776 -0.783362
  H 4.743300 0.240214 -3.172055
  H 4.776753 1.298689 -1.799086
  H 6.934523 -1.387529 -1.011908
 23
 14.045571
  H 1.581180 -0.343091 0.121574
  C 2.643173 -0.547981 0.170535
  C 3.411134 0.436145 0.956542
  C 2.563068 1.067548 2.069957
  C 3.396697 2.028085 2.909143
  C 3.156988 -1.739793 -0.297772
  C 4.453405 -1.842968 -0.795323
  C 5.089858 -0.718826 -1.349376
  C 4.364688 0.216051 -2.239095
  H 3.300074 0.020376 -2.272063
  O 6.366821 -0.484260 -1.273308
  H 3.741376 1.259616 0.312047
  H 4.306452 -0.018895 1.381922
  H 2.164203 0.281342 2.713223
  H 1.720428 1.606042 1.634316
  H 4.246647 1.516868 3.355262
  H 2.795449 2.443995 3.713804
  H 3.767927 2.852263 2.304619
  H 2.535976 -2.626600 -0.254387
  H 4.961127 -2.797217 -0.801281
  H 4.785432 0.093414 -3.238802
  H 4.558969 1.253009 -1.968652
  H 6.894106 -1.140608 -0.778272
 23
 22.643632
  H 1.716876 -0.151641 -0.075698
  C 2.744843 -0.448154 0.096549
  C 3.501153 0.459294 0.980703
  C 2.583721 1.105476 2.031909
  C 3.389478 1.975528 2.988428
  C 3.180147 -1.726441 -0.264348
  C 4.434008 -1.861015 -0.811851
  C 5.016364 -0.683561 -1.355224
  C 4.300468 0.113636 -2.373333
  H 3.263057 -0.178508 -2.479367
  O 6.245769 -0.320778 -1.163029
  H 3.943641 1.286018 0.411113
  H 4.316730 -0.070833 1.474115
  H 2.072715 0.324781 2.597707
  H 1.826372 1.714999 1.537624
  H 4.155740 1.391769 3.493189
  H 2.737784 2.401173 3.747478
  H 3.871353 2.793909 2.458789
  H 2.531648 -2.578854 -0.106126
  H 4.956224 -2.804000 -0.869136
  H 4.818666 -0.050843 -3.320866
  H 4.382003 1.182114 -2.178259
  H 6.782727 -0.904282 -0.591673
 23
 30.874067
  H 1.908577 0.014558 -0.263172
  C 2.881574 -0.365478 0.027847
  C 3.605579 0.464460 1.009144
  C 2.626083 1.141046 1.986585
  C 3.385733 1.931600 3.044149
  C 3.205934 -1.728393 -0.242654
  C 4.397956 -1.897996 -0.855504
  C 4.920914 -0.650412 -1.369249
  C 4.244229 0.047646 -2.480654
  H 3.238126 -0.315778 -2.651004
  O 6.087884 -0.184885 -1.065070
  H 4.152035 1.278646 0.517119
  H 4.329626 -0.132423 1.565544
  H 2.014519 0.379823 2.473457
  H 1.961325 1.810334 1.439504
  H 4.058828 1.286163 3.603617
  H 2.688591 2.379924 3.747785
  H 3.968918 2.729308 2.590377
  H 2.526889 -2.528155 0.018899
  H 4.922679 -2.830382 -0.987482
  H 4.842345 -0.133427 -3.378128
  H 4.248216 1.127035 -2.337704
  H 6.616493 -0.717978 -0.438675
 23
 33.472952
  H 2.140850 0.118070 -0.434707
  C 3.047188 -0.329309 -0.041349
  C 3.714043 0.437163 1.028989
  C 2.682134 1.165655 1.914624
  C 3.382183 1.890489 3.056569
  C 3.247217 -1.760462 -0.223797
  C 4.376489 -1.940755 -0.908446
  C 4.807536 -0.604017 -1.353051
  C 4.170778 0.035855 -2.528247
  H 3.203900 -0.394259 -2.760727
  O 5.913253 -0.052984 -0.955459
  H 4.355735 1.220856 0.609339
  H 4.336486 -0.211718 1.647379
  H 1.977133 0.440033 2.322689
  H 2.121288 1.884081 1.316136
  H 3.951535 1.195132 3.668781
  H 2.647603 2.375867 3.694503
  H 4.058946 2.652814 2.678362
  H 2.544719 -2.508333 0.109042
  H 4.913689 -2.849367 -1.118033
  H 4.835542 -0.121226 -3.383403
  H 4.098997 1.113987 -2.400619
  H 6.434515 -0.563217 -0.306032
 23
 30.820052
  H 2.432705 0.213882 -0.561914
  C 3.274211 -0.294450 -0.102109
  C 3.839475 0.414525 1.075383
  C 2.731786 1.180623 1.830037
  C 3.310030 1.843658 3.072195
  C 3.308840 -1.772083 -0.160495
  C 4.351689 -1.956766 -0.962526
  C 4.686598 -0.551072 -1.328467
  C 4.075079 0.045053 -2.561152
  H 3.121843 -0.410181 -2.803258
  O 5.833421 0.004961 -0.988773
  H 4.570580 1.165485 0.762901
  H 4.337516 -0.282184 1.752000
  H 1.944592 0.483359 2.119033
  H 2.293849 1.940232 1.182050
  H 3.760068 1.108358 3.734609
  H 2.517260 2.349735 3.618360
  H 4.064262 2.581088 2.809444
  H 2.614793 -2.463294 0.280843
  H 4.901348 -2.838562 -1.238347
  H 4.772590 -0.134331 -3.383875
  H 3.978522 1.124029 -2.468172
  H 6.383961 -0.528291 -0.387504
 23
 30.993066
  H 2.550226 0.216321 -0.533793
  C 3.389616 -0.317581 -0.091883
  C 3.847026 0.311346 1.188890
  C 2.771629 1.236780 1.779981
  C 3.252965 1.858473 3.082633
  C 3.364471 -1.802184 -0.139949
  C 4.374983 -1.938247 -1.007540
  C 4.611174 -0.489351 -1.291847
  C 3.988698 0.061744 -2.564341
  H 3.072830 -0.463198 -2.811179
  O 5.800960 0.078481 -1.042890
  H 4.726565 0.935150 1.006054
  H 4.137654 -0.451203 1.915024
  H 1.867300 0.653859 1.962358
  H 2.522805 2.030788 1.073802
  H 3.549106 1.091933 3.794341
  H 2.451272 2.445023 3.525700
  H 4.098562 2.521608 2.917542
  H 2.708124 -2.499044 0.343698
  H 5.016534 -2.767424 -1.246652
  H 4.720291 -0.076366 -3.360341
  H 3.800971 1.128434 -2.477607
  H 6.481258 -0.541571 -0.731739
