 19
 0.000000
  C 0.987333 0.050482 0.175819
  C 2.491615 0.052781 0.173928
  C 3.259366 -0.024055 1.472523
  C 2.439162 -0.086148 2.758428
  H 3.112964 -0.136276 3.607950
  C 3.127378 0.120046 -1.003689
  H 2.524928 0.170058 -1.901064
  C 4.554280 0.134442 -1.224042
  C 5.101418 0.203635 -2.435782
  H 6.168496 0.213729 -2.582322
  H 0.573328 -0.020933 1.175346
  H 0.612323 -0.788382 -0.407631
  H 0.604050 0.963160 -0.281057
  H 3.918406 0.848795 1.531446
  H 3.903707 -0.909117 1.436223
  H 1.802901 -0.972493 2.782479
  H 1.816212 0.802192 2.875633
  H 5.194910 0.086227 -0.354238
  H 4.494359 0.252710 -3.325898
 19
 5.699583
  C 0.984722 -0.002606 0.183178
  C 2.450050 0.043384 0.158544
  C 3.254737 -0.036679 1.480994
  C 2.443006 -0.071570 2.761961
  H 3.120821 -0.124423 3.612454
  C 3.096456 0.115434 -1.015142
  H 2.502035 0.158724 -1.923298
  C 4.527126 0.150786 -1.223772
  C 5.083670 0.222607 -2.427599
  H 6.151091 0.241380 -2.563280
  H 0.532552 -0.032899 1.165265
  H 0.568715 -0.800338 -0.426475
  H 0.851684 0.952622 -0.296631
  H 3.926354 0.821433 1.523125
  H 3.878507 -0.930791 1.443932
  H 1.795243 -0.945359 2.797377
  H 1.838121 0.826630 2.871506
  H 5.160744 0.111300 -0.349377
  H 4.486118 0.262379 -3.323683
 19
 17.811487
  C 0.981818 -0.036671 0.197443
  C 2.430058 0.025602 0.161302
  C 3.259505 -0.054210 1.475027
  C 2.433499 -0.058374 2.755803
  H 3.105083 -0.114051 3.619994
  C 3.077225 0.100587 -1.007525
  H 2.481138 0.123725 -1.927652
  C 4.506946 0.171393 -1.214702
  C 5.067169 0.244181 -2.425040
  H 6.133023 0.284129 -2.558635
  H 0.515873 -0.013011 1.159971
  H 0.532651 -0.796769 -0.449250
  H 1.073224 0.914363 -0.272450
  H 3.950145 0.793959 1.498545
  H 3.858788 -0.966777 1.433872
  H 1.771865 -0.914071 2.793686
  H 1.844909 0.849445 2.847452
  H 5.140521 0.154437 -0.341828
  H 4.472185 0.259900 -3.321705
 19
 31.584284
  C 0.957528 -0.067199 0.204420
  C 2.414122 0.022019 0.148509
  C 3.254193 -0.054303 1.465388
  C 2.433172 -0.044880 2.759931
  H 3.105015 -0.099439 3.609941
  C 3.071126 0.095476 -1.023475
  H 2.487581 0.101156 -1.934764
  C 4.497800 0.180690 -1.222518
  C 5.065602 0.251498 -2.425702
  H 6.134778 0.307088 -2.550393
  H 0.485609 -0.052135 1.171241
  H 0.490779 -0.756933 -0.484807
  H 1.231850 0.888354 -0.209687
  H 3.948550 0.783616 1.479502
  H 3.841295 -0.976854 1.418439
  H 1.761073 -0.902817 2.809955
  H 1.848830 0.871536 2.852910
  H 5.127114 0.179105 -0.345065
  H 4.476457 0.252766 -3.329852
 19
 44.173961
  C 0.949145 -0.093625 0.219385
  C 2.407426 0.019988 0.139827
  C 3.230708 -0.050468 1.451589
  C 2.426724 -0.036463 2.747443
  H 3.111533 -0.089078 3.595757
  C 3.072438 0.093436 -1.037036
  H 2.489347 0.090462 -1.952763
  C 4.486817 0.185276 -1.224223
  C 5.067392 0.256216 -2.426129
  H 6.136057 0.315782 -2.539754
  H 0.484733 -0.082408 1.183174
  H 0.464029 -0.717116 -0.491903
  H 1.358877 0.854398 -0.138227
  H 3.934995 0.794872 1.463171
  H 3.815722 -0.978712 1.400907
  H 1.760381 -0.886592 2.808927
  H 1.847897 0.874048 2.845304
  H 5.108945 0.189342 -0.342798
  H 4.487301 0.252740 -3.334558
 19
 52.516661
  C 0.940137 -0.119575 0.230195
  C 2.402489 0.028443 0.136947
  C 3.227788 -0.041556 1.453706
  C 2.422620 -0.027302 2.748850
  H 3.106347 -0.079138 3.591050
  C 3.069499 0.097643 -1.049773
  H 2.481359 0.087965 -1.959321
  C 4.493881 0.187004 -1.240464
  C 5.075624 0.256223 -2.438804
  H 6.145876 0.316558 -2.549863
  H 0.477745 -0.131064 1.203552
  H 0.428228 -0.693797 -0.539429
  H 1.452981 0.848523 -0.065635
  H 3.929122 0.792291 1.470883
  H 3.804797 -0.963423 1.402490
  H 1.749389 -0.888098 2.812205
  H 1.836972 0.894210 2.847969
  H 5.119134 0.192473 -0.357555
  H 4.495508 0.250813 -3.349621
 19
 58.555043
  C 0.939169 -0.145753 0.227605
  C 2.402798 0.031344 0.139336
  C 3.222788 -0.035763 1.449487
  C 2.416855 -0.018928 2.750390
  H 3.107191 -0.064336 3.598331
  C 3.075428 0.097905 -1.056334
  H 2.487835 0.080377 -1.963429
  C 4.478064 0.189788 -1.241166
  C 5.068186 0.257065 -2.442377
  H 6.140687 0.315256 -2.548610
  H 0.470099 -0.178690 1.183807
  H 0.430529 -0.637703 -0.572710
  H 1.536426 0.836532 -0.001338
  H 3.928214 0.801920 1.465292
  H 3.806550 -0.966477 1.400113
  H 1.752182 -0.877648 2.817570
  H 1.830617 0.896125 2.844297
  H 5.095244 0.197626 -0.364180
  H 4.493060 0.245514 -3.354510
 19
 62.757185
  C 0.931193 -0.174760 0.226957
  C 2.394690 0.035534 0.143255
  C 3.221650 -0.031215 1.452736
  C 2.418210 -0.011609 2.744393
  H 3.105772 -0.050561 3.593821
  C 3.065373 0.098306 -1.060424
  H 2.470577 0.079811 -1.963152
  C 4.487028 0.190401 -1.250722
  C 5.073571 0.256570 -2.448851
  H 6.139211 0.310691 -2.555099
  H 0.443897 -0.232668 1.191827
  H 0.416338 -0.594096 -0.618165
  H 1.593804 0.838480 0.057927
  H 3.934528 0.814910 1.465039
  H 3.801281 -0.956114 1.405805
  H 1.760617 -0.867059 2.812514
  H 1.832380 0.894873 2.831110
  H 5.126430 0.197487 -0.349787
  H 4.496732 0.243823 -3.361509
 19
 65.239562
  C 0.935326 -0.219598 0.215391
  C 2.393097 0.041401 0.145337
  C 3.232629 -0.022513 1.462762
  C 2.425625 -0.001788 2.750884
  H 3.104138 -0.021195 3.596460
  C 3.068164 0.095792 -1.064921
  H 2.467767 0.074408 -1.970786
  C 4.477999 0.190590 -1.252290
  C 5.071118 0.252748 -2.451646
  H 6.136184 0.300848 -2.553934
  H 0.436186 -0.323101 1.157194
  H 0.406163 -0.490995 -0.673146
  H 1.646326 0.855321 0.137639
  H 3.926585 0.818129 1.466609
  H 3.818240 -0.941250 1.418940
  H 1.779082 -0.870006 2.825947
  H 1.822347 0.899120 2.827055
  H 5.104072 0.197531 -0.366036
  H 4.499882 0.231252 -3.363747
 19
 67.633651
  C 0.937731 -0.261595 0.211893
  C 2.389707 0.046077 0.145802
  C 3.235955 -0.023625 1.465821
  C 2.428944 0.005429 2.753236
  H 3.107081 -0.000587 3.600258
  C 3.071887 0.088693 -1.072707
  H 2.473025 0.066311 -1.974304
  C 4.472940 0.188848 -1.255828
  C 5.072082 0.251875 -2.455913
  H 6.139301 0.310290 -2.554466
  H 0.426258 -0.365171 1.145353
  H 0.393651 -0.432953 -0.696862
  H 1.696511 0.876548 0.178612
  H 3.929710 0.817022 1.463589
  H 3.816535 -0.937417 1.426525
  H 1.784074 -0.871638 2.836787
  H 1.815097 0.909254 2.819468
  H 5.091220 0.203028 -0.376215
  H 4.507375 0.231187 -3.363875
 19
 69.163740
  C 0.941462 -0.304080 0.209310
  C 2.381824 0.059441 0.152984
  C 3.233981 -0.022950 1.465319
  C 2.430941 0.011259 2.751746
  H 3.111062 0.005925 3.599324
  C 3.070529 0.090898 -1.073853
  H 2.470907 0.063434 -1.971743
  C 4.472474 0.196920 -1.255471
  C 5.073526 0.254526 -2.455872
  H 6.144367 0.314144 -2.552851
  H 0.410900 -0.378121 1.137818
  H 0.396059 -0.420820 -0.709868
  H 1.741733 0.913186 0.194424
  H 3.935833 0.815269 1.461248
  H 3.806762 -0.940284 1.423362
  H 1.785241 -0.862206 2.837235
  H 1.821127 0.913865 2.815769
  H 5.094405 0.218788 -0.371293
  H 4.507279 0.226752 -3.367574
 19
 69.551560
  C 0.949282 -0.348548 0.204520
  C 2.376850 0.073526 0.157801
  C 3.232703 -0.023066 1.464963
  C 2.430146 0.020277 2.758198
  H 3.111174 0.011351 3.605491
  C 3.074878 0.092599 -1.077565
  H 2.472325 0.063590 -1.977460
  C 4.470141 0.194320 -1.255984
  C 5.073259 0.254220 -2.458661
  H 6.146431 0.330653 -2.554289
  H 0.402701 -0.377456 1.127200
  H 0.405353 -0.430181 -0.714001
  H 1.789483 0.956271 0.193452
  H 3.942420 0.806788 1.459651
  H 3.795350 -0.947996 1.420595
  H 1.778904 -0.844322 2.845776
  H 1.828887 0.924811 2.820555
  H 5.094082 0.226286 -0.369153
  H 4.505952 0.240110 -3.370184
 19
 69.817206
  C 0.966427 -0.385531 0.205598
  C 2.374088 0.097509 0.168127
  C 3.230482 -0.011223 1.463724
  C 2.428989 0.026608 2.754793
  H 3.107865 0.013759 3.601035
  C 3.077940 0.118492 -1.076920
  H 2.473253 0.090777 -1.973336
  C 4.468142 0.217823 -1.253911
  C 5.072971 0.263948 -2.459175
  H 6.142236 0.305679 -2.554095
  H 0.407653 -0.384502 1.122148
  H 0.424362 -0.448730 -0.719111
  H 1.829333 0.993947 0.202536
  H 3.942543 0.816703 1.462389
  H 3.793393 -0.942326 1.413652
  H 1.771074 -0.844955 2.837580
  H 1.831140 0.927826 2.819325
  H 5.092751 0.234361 -0.370307
  H 4.504210 0.226157 -3.373602
 19
 68.633164
  C 0.975249 -0.427983 0.199701
  C 2.362616 0.107666 0.168319
  C 3.227995 -0.021011 1.468388
  C 2.431925 0.039269 2.762403
  H 3.114755 0.016620 3.608338
  C 3.079832 0.113244 -1.082208
  H 2.476765 0.082795 -1.977128
  C 4.467476 0.210312 -1.255803
  C 5.074328 0.266378 -2.462551
  H 6.143977 0.339405 -2.555505
  H 0.399081 -0.375213 1.105955
  H 0.435729 -0.492452 -0.725239
  H 1.884505 1.046531 0.189087
  H 3.956613 0.789342 1.463599
  H 3.766356 -0.963093 1.417647
  H 1.763201 -0.808788 2.850297
  H 1.848036 0.959501 2.824241
  H 5.091574 0.246374 -0.371311
  H 4.504460 0.258774 -3.377516
