 20
 0.000000
  H 1.438950 0.170681 0.475485
  C 2.517217 0.140502 0.400131
  C 3.278549 0.621019 1.596480
  H 2.595253 0.935402 2.379402
  C 3.045062 -0.316191 -0.737226
  C 4.457671 -0.424162 -1.006412
  C 5.093146 -0.864497 -2.103807
  C 4.622702 -1.395878 -3.427999
  C 3.136709 -1.510749 -3.715021
  H 3.006770 -1.913242 -4.718218
  O 6.468649 -0.879046 -2.140258
  H 3.919105 1.462338 1.337769
  H 3.919210 -0.165445 1.991513
  H 2.366460 -0.628154 -1.513963
  H 5.097160 -0.097518 -0.192573
  H 5.085599 -2.381780 -3.538856
  H 5.085969 -0.760305 -4.189615
  H 2.651151 -0.539333 -3.676726
  H 2.650767 -2.186174 -3.015934
  H 6.837586 -0.546782 -1.312141
 20
 0.255116
  H 1.449904 0.023671 0.591108
  C 2.513818 0.091030 0.418223
  C 3.315522 0.630749 1.564919
  H 2.664972 0.886731 2.397515
  C 3.010829 -0.330118 -0.748675
  C 4.417426 -0.365368 -1.043077
  C 5.079255 -0.864430 -2.096796
  C 4.632858 -1.434950 -3.415045
  C 3.148109 -1.465078 -3.743263
  H 3.017978 -1.849095 -4.752912
  O 6.455779 -0.876035 -2.080576
  H 3.860747 1.528605 1.270909
  H 4.042845 -0.103570 1.915592
  H 2.324622 -0.691570 -1.494385
  H 5.042299 0.029439 -0.249071
  H 5.037396 -2.450156 -3.472138
  H 5.157002 -0.854283 -4.180417
  H 2.717980 -0.466332 -3.702502
  H 2.608443 -2.120396 -3.064216
  H 6.775265 -0.595119 -1.215508
 20
 1.533447
  H 1.480010 -0.129331 0.716448
  C 2.515069 0.034823 0.450458
  C 3.343346 0.650228 1.540491
  H 2.734519 0.834019 2.421879
  C 2.970592 -0.347637 -0.744629
  C 4.366999 -0.291942 -1.087868
  C 5.051293 -0.853615 -2.094517
  C 4.629038 -1.483945 -3.391526
  C 3.165202 -1.392957 -3.790310
  H 3.046578 -1.776747 -4.800631
  O 6.425659 -0.856208 -2.031459
  H 3.768838 1.601224 1.218522
  H 4.166057 -0.004921 1.827861
  H 2.281809 -0.783576 -1.447487
  H 4.978339 0.202236 -0.339601
  H 4.939074 -2.533653 -3.369536
  H 5.241569 -0.998491 -4.158549
  H 2.822041 -0.362519 -3.772691
  H 2.540892 -1.989017 -3.132236
  H 6.690626 -0.596902 -1.139838
 20
 4.612150
  H 1.512398 -0.179354 0.794052
  C 2.530076 -0.002068 0.480659
  C 3.381603 0.676727 1.510116
  H 2.801429 0.879225 2.404706
  C 2.940764 -0.403734 -0.726673
  C 4.329989 -0.332430 -1.086883
  C 5.032807 -0.894337 -2.085858
  C 4.643867 -1.488615 -3.401411
  C 3.187217 -1.369293 -3.806440
  H 3.068532 -1.713933 -4.830429
  O 6.402686 -0.901113 -1.943474
  H 3.765680 1.625357 1.138093
  H 4.232873 0.056072 1.789805
  H 2.239674 -0.873134 -1.399046
  H 4.912436 0.301773 -0.424836
  H 4.940511 -2.542001 -3.410172
  H 5.273488 -0.987279 -4.138726
  H 2.853659 -0.336284 -3.747959
  H 2.553983 -1.981055 -3.172744
  H 6.554339 -0.671904 -1.015303
 20
 10.557970
  H 1.565544 -0.306934 0.878247
  C 2.565570 -0.080668 0.525985
  C 3.390496 0.744863 1.465571
  H 2.811490 0.989317 2.351766
  C 2.972652 -0.580927 -0.644268
  C 4.330731 -0.398164 -1.074076
  C 5.034273 -0.941269 -2.088624
  C 4.643714 -1.526761 -3.408327
  C 3.212899 -1.261108 -3.854156
  H 3.077744 -1.628302 -4.870633
  O 6.396479 -0.988343 -1.877124
  H 3.711957 1.679483 1.005246
  H 4.274923 0.195726 1.793459
  H 2.311798 -1.209049 -1.216865
  H 4.858743 0.380474 -0.523805
  H 4.859723 -2.600403 -3.430158
  H 5.331132 -1.056137 -4.122137
  H 2.991541 -0.195276 -3.834847
  H 2.500742 -1.783747 -3.222834
  H 6.441193 -0.707739 -0.949346
 20
 19.831039
  H 1.589894 -0.302201 0.891346
  C 2.602288 -0.113149 0.563007
  C 3.433710 0.725263 1.490831
  H 2.889674 0.939188 2.406967
  C 2.972701 -0.574174 -0.635870
  C 4.299988 -0.344168 -1.108908
  C 5.014078 -0.948502 -2.092189
  C 4.639323 -1.601912 -3.378498
  C 3.238518 -1.287459 -3.874903
  H 3.133723 -1.617826 -4.906802
  O 6.377655 -0.910594 -1.837480
  H 3.723644 1.667143 1.026042
  H 4.351401 0.203390 1.758243
  H 2.301233 -1.188938 -1.210519
  H 4.752093 0.560795 -0.721082
  H 4.832093 -2.678425 -3.361456
  H 5.353706 -1.174053 -4.088963
  H 3.056616 -0.219697 -3.837621
  H 2.480664 -1.788127 -3.277004
  H 6.275199 -0.624514 -0.909753
 20
 33.149495
  H 1.668376 -0.400698 1.004247
  C 2.622840 -0.087601 0.577573
  C 3.455726 0.807167 1.422724
  H 2.924164 1.083755 2.315119
  C 2.979688 -0.596507 -0.602576
  C 4.319098 -0.444980 -1.060476
  C 5.025465 -1.012512 -2.071471
  C 4.671741 -1.496827 -3.426955
  C 3.224575 -1.300770 -3.893421
  H 3.122942 -1.585550 -4.936064
  O 6.364865 -1.068196 -1.700327
  H 3.668459 1.739182 0.888452
  H 4.401453 0.341578 1.691020
  H 2.282696 -1.225707 -1.142523
  H 4.761070 0.459307 -0.694807
  H 4.931179 -2.561995 -3.500631
  H 5.389120 -1.036969 -4.117471
  H 2.920576 -0.260516 -3.774257
  H 2.539850 -1.920416 -3.297962
  H 6.110603 -0.719364 -0.806972
 20
 54.965693
  H 1.669003 -0.349532 0.923795
  C 2.656680 -0.101812 0.565052
  C 3.445978 0.850118 1.412196
  H 2.865819 1.170742 2.272414
  C 3.118534 -0.661572 -0.555894
  C 4.460419 -0.457094 -1.053608
  C 5.111311 -1.078137 -2.142380
  C 4.636351 -1.576323 -3.462347
  C 3.202381 -1.225329 -3.833066
  H 3.005936 -1.527781 -4.859330
  O 6.367509 -1.184289 -1.854861
  H 3.730280 1.738853 0.846546
  H 4.362181 0.379544 1.772196
  H 2.496733 -1.367207 -1.085860
  H 4.871538 0.525651 -0.822621
  H 4.783969 -2.661128 -3.497215
  H 5.327681 -1.153607 -4.200255
  H 3.034157 -0.154578 -3.748811
  H 2.492639 -1.738360 -3.191109
  H 5.869974 -0.735791 -0.652367
 20
 26.954426
  H 1.725641 -0.472206 0.842214
  C 2.719955 -0.173512 0.522787
  C 3.371678 0.855093 1.396915
  H 2.748717 1.179829 2.221240
  C 3.313211 -0.715799 -0.548285
  C 4.649589 -0.395970 -1.080691
  C 5.278151 -1.086927 -2.222643
  C 4.655997 -1.616353 -3.487588
  C 3.222962 -1.168054 -3.758858
  H 2.946069 -1.496712 -4.758702
  O 6.453252 -1.246753 -2.053236
  H 3.656008 1.719761 0.797696
  H 4.286980 0.434782 1.814910
  H 2.771749 -1.488350 -1.086612
  H 5.016945 0.619514 -0.902505
  H 4.768928 -2.703017 -3.526494
  H 5.244809 -1.214589 -4.313819
  H 3.138129 -0.086600 -3.734978
  H 2.520626 -1.568603 -3.044380
  H 5.606789 -0.729644 -0.488480
 20
 6.868546
  H 1.713972 -0.437346 0.801029
  C 2.725143 -0.158785 0.525832
  C 3.380236 0.836128 1.427744
  H 2.712587 1.129223 2.234273
  C 3.319038 -0.686864 -0.541824
  C 4.708213 -0.394351 -1.034080
  C 5.323662 -1.087514 -2.231798
  C 4.642156 -1.561402 -3.506820
  C 3.198982 -1.181848 -3.770766
  H 2.926483 -1.506329 -4.773043
  O 6.520635 -1.269327 -2.109287
  H 3.652663 1.732429 0.877626
  H 4.285651 0.417235 1.866563
  H 2.785068 -1.440448 -1.087643
  H 4.902327 0.700663 -1.107837
  H 4.761687 -2.655962 -3.511594
  H 5.274104 -1.181474 -4.315034
  H 3.056995 -0.110061 -3.703798
  H 2.518538 -1.668022 -3.081977
  H 5.508460 -0.682667 -0.307113
 20
 2.214667
  H 1.760739 -0.632097 0.755733
  C 2.749585 -0.284157 0.497920
  C 3.303470 0.857969 1.288767
  H 2.589231 1.197119 2.033982
  C 3.397974 -0.872353 -0.496507
  C 4.733979 -0.453597 -1.012816
  C 5.362449 -1.107003 -2.220600
  C 4.620961 -1.538578 -3.462509
  C 3.179304 -1.082436 -3.644279
  H 2.844986 -1.342590 -4.646595
  O 6.554526 -1.259510 -2.152733
  H 3.541402 1.700664 0.639140
  H 4.219338 0.560740 1.798455
  H 2.938321 -1.713470 -0.990871
  H 4.856387 0.634803 -1.050257
  H 4.706767 -2.623735 -3.549657
  H 5.218285 -1.121048 -4.281733
  H 3.097717 -0.005704 -3.519485
  H 2.504969 -1.560105 -2.941599
  H 5.526592 -0.695043 -0.275240
 20
 0.694128
  H 1.740280 -0.495651 0.809067
  C 2.740678 -0.208020 0.518655
  C 3.446963 0.738736 1.436547
  H 2.798876 1.048351 2.251263
  C 3.264519 -0.692903 -0.599311
  C 4.646527 -0.331081 -1.041170
  C 5.354661 -0.988333 -2.206231
  C 4.686600 -1.519056 -3.461872
  C 3.205843 -1.292680 -3.731938
  H 2.980769 -1.628715 -4.742851
  O 6.562835 -1.042325 -2.145819
  H 3.777476 1.627670 0.899206
  H 4.333614 0.266920 1.861624
  H 2.692878 -1.381819 -1.191407
  H 4.693348 0.746275 -1.251276
  H 4.914421 -2.588529 -3.500949
  H 5.259267 -1.063748 -4.277889
  H 2.949548 -0.238698 -3.659861
  H 2.573318 -1.859565 -3.058128
  H 5.331974 -0.478039 -0.198662
 20
 2.273909
  H 1.651247 -0.206226 0.678855
  C 2.696027 -0.048392 0.448573
  C 3.529044 0.485957 1.571465
  H 2.909992 0.719459 2.432858
  C 3.138677 -0.315520 -0.772789
  C 4.574613 -0.104089 -1.128547
  C 5.321045 -0.799678 -2.249192
  C 4.711398 -1.521246 -3.437812
  C 3.212504 -1.553564 -3.689044
  H 3.031261 -2.052426 -4.639979
  O 6.531692 -0.743949 -2.201267
  H 4.061510 1.387522 1.270928
  H 4.274669 -0.249036 1.879274
  H 2.451520 -0.687456 -1.508553
  H 4.760224 0.968604 -1.270167
  H 5.091438 -2.546353 -3.387280
  H 5.204594 -1.065789 -4.303718
  H 2.798312 -0.550342 -3.750748
  H 2.690574 -2.120314 -2.922924
  H 5.156138 -0.360632 -0.235496
 20
 -5.975639
  H 2.156986 -1.206590 1.048397
  C 2.935465 -0.610883 0.593780
  C 3.165411 0.747267 1.175187
  H 2.411449 0.987011 1.919133
  C 3.625888 -1.103368 -0.422240
  C 4.741444 -0.347914 -1.087739
  C 5.407814 -1.118605 -2.202053
  C 4.528207 -1.575281 -3.348419
  C 3.303135 -0.716018 -3.634630
  H 2.808740 -1.074568 -4.534925
  O 6.585899 -1.377106 -2.177298
  H 3.143258 1.510098 0.397090
  H 4.145950 0.795185 1.649694
  H 3.421741 -2.099401 -0.784968
  H 4.356371 0.590250 -1.498128
  H 4.216748 -2.597318 -3.110408
  H 5.159426 -1.641888 -4.237726
  H 3.590023 0.320383 -3.800181
  H 2.589164 -0.753551 -2.815730
  H 5.503361 -0.091172 -0.344402
