 19
 0.000000
  C 0.993913 0.130964 0.377288
  C 2.458529 0.139916 0.399263
  C 3.221878 0.608989 1.566168
  C 2.434312 1.093181 2.771977
  H 3.121096 1.407546 3.554376
  C 3.109552 -0.321181 -0.748305
  C 4.505506 -0.394216 -0.931191
  C 5.083292 -0.850412 -2.068164
  H 4.511664 -1.191058 -2.916706
  H 6.155185 -0.891688 -2.171513
  H 0.547159 0.498888 1.292542
  H 0.631655 -0.881672 0.185716
  H 0.631459 0.729220 -0.461803
  H 3.892839 1.412017 1.236028
  H 3.893210 -0.198899 1.883293
  H 1.800880 0.306448 3.174318
  H 1.800577 1.939499 2.518486
  H 2.475073 -0.647973 -1.561242
  H 5.138808 -0.067409 -0.117843
 19
 0.193690
  C 0.993901 0.077877 0.393341
  C 2.459292 0.116081 0.411592
  C 3.217497 0.634589 1.561740
  C 2.424786 1.150844 2.748790
  H 3.108745 1.491232 3.520066
  C 3.125698 -0.335469 -0.729424
  C 4.518121 -0.498577 -0.879566
  C 5.069800 -0.790052 -2.084899
  H 4.466880 -0.876900 -2.973569
  H 6.131062 -0.915745 -2.200720
  H 0.541386 0.410754 1.318682
  H 0.648632 -0.931345 0.158361
  H 0.622234 0.692474 -0.430772
  H 3.891547 1.423110 1.206067
  H 3.892717 -0.161952 1.903753
  H 1.798885 0.373785 3.178801
  H 1.794904 1.991687 2.470596
  H 2.523031 -0.624428 -1.581890
  H 5.164762 -0.409582 -0.017631
 19
 1.412013
  C 0.979985 0.057271 0.404456
  C 2.447847 0.107895 0.402313
  C 3.218733 0.655104 1.530327
  C 2.440375 1.177001 2.724142
  H 3.133347 1.536560 3.477900
  C 3.109650 -0.356489 -0.732978
  C 4.497270 -0.595784 -0.855556
  C 5.090450 -0.720686 -2.067285
  H 4.533734 -0.608488 -2.979939
  H 6.149097 -0.897122 -2.159421
  H 0.538574 0.421648 1.325679
  H 0.638940 -0.963018 0.214639
  H 0.592181 0.640362 -0.433200
  H 3.880303 1.442841 1.154358
  H 3.907328 -0.132350 1.868527
  H 1.830843 0.396545 3.175159
  H 1.795657 2.008272 2.446845
  H 2.502516 -0.646445 -1.582916
  H 5.099592 -0.715459 0.034048
 19
 3.196636
  C 0.962761 0.035691 0.417574
  C 2.428620 0.076749 0.398407
  C 3.220300 0.659960 1.497494
  C 2.465726 1.208668 2.692907
  H 3.177118 1.594657 3.425158
  C 3.081696 -0.399054 -0.734827
  C 4.464920 -0.706529 -0.846788
  C 5.118520 -0.642776 -2.028585
  H 4.628851 -0.312008 -2.926758
  H 6.163965 -0.871838 -2.102753
  H 0.538134 0.407733 1.341332
  H 0.611472 -0.984063 0.238515
  H 0.569852 0.619291 -0.414633
  H 3.864174 1.444335 1.084311
  H 3.931120 -0.110189 1.833581
  H 1.869534 0.435077 3.179152
  H 1.811042 2.028101 2.408415
  H 2.476331 -0.671940 -1.591331
  H 5.006683 -1.018739 0.039681
 19
 5.606920
  C 0.940972 0.020840 0.430720
  C 2.408025 0.023515 0.395418
  C 3.229078 0.636076 1.456873
  C 2.503970 1.231139 2.649608
  H 3.233656 1.645163 3.346699
  C 3.042675 -0.478954 -0.731198
  C 4.429062 -0.792626 -0.846567
  C 5.143423 -0.528515 -1.960176
  H 4.708342 -0.026713 -2.808987
  H 6.189963 -0.768403 -2.024000
  H 0.538722 0.385536 1.370764
  H 0.559947 -0.982665 0.232733
  H 0.552947 0.636559 -0.383668
  H 3.863631 1.406555 0.999702
  H 3.948492 -0.121690 1.796026
  H 1.923344 0.480172 3.180134
  H 1.843150 2.043333 2.350232
  H 2.431171 -0.770652 -1.583126
  H 4.917973 -1.262425 -0.001817
 19
 10.063795
  C 0.940908 -0.058738 0.480798
  C 2.402224 0.036959 0.388590
  C 3.233157 0.653775 1.443837
  C 2.507927 1.313474 2.601175
  H 3.239567 1.719860 3.298860
  C 3.035703 -0.439121 -0.737427
  C 4.384810 -0.895455 -0.918252
  C 5.176619 -0.459511 -1.909404
  H 4.845451 0.278487 -2.620095
  H 6.183246 -0.823708 -2.020779
  H 0.567938 0.190512 1.467452
  H 0.602831 -1.057648 0.199580
  H 0.482978 0.621166 -0.244203
  H 3.907213 1.378217 0.975240
  H 3.905781 -0.131117 1.823693
  H 1.887142 0.610025 3.143831
  H 1.891733 2.148441 2.260185
  H 2.470286 -0.737715 -1.620632
  H 4.777569 -1.588165 -0.182291
 19
 17.079389
  C 0.968628 -0.029653 0.460098
  C 2.436740 0.110112 0.398076
  C 3.221859 0.816386 1.437234
  C 2.477747 1.242721 2.682965
  H 3.176828 1.689827 3.379090
  C 3.104170 -0.330946 -0.711074
  C 4.366174 -0.963988 -0.961299
  C 5.196202 -0.546687 -1.928874
  H 4.916940 0.218454 -2.626356
  H 6.167678 -0.997467 -2.062273
  H 0.550612 0.393112 1.365793
  H 0.675650 -1.073620 0.374985
  H 0.523797 0.475910 -0.393120
  H 3.712726 1.682157 0.979182
  H 4.022801 0.120121 1.716797
  H 2.022431 0.391258 3.181333
  H 1.712409 1.981376 2.465845
  H 2.568064 -0.645287 -1.618250
  H 4.667432 -1.789345 -0.325019
 19
 27.603374
  C 1.002714 -0.042169 0.460420
  C 2.473995 0.079674 0.443988
  C 3.220771 0.772007 1.525909
  C 2.412357 1.305608 2.686109
  H 3.087943 1.773674 3.402751
  C 3.166235 -0.378346 -0.594586
  C 4.398236 -1.004513 -1.028118
  C 5.162247 -0.522790 -2.028146
  H 4.871108 0.303872 -2.644755
  H 6.118821 -0.974211 -2.258757
  H 0.563496 0.366406 1.367893
  H 0.700171 -1.083003 0.364174
  H 0.579447 0.491267 -0.393503
  H 3.768425 1.606726 1.075487
  H 3.975194 0.065810 1.893090
  H 1.885627 0.512608 3.210999
  H 1.710414 2.074065 2.376399
  H 2.719295 -0.722072 -1.558117
  H 4.722438 -1.893116 -0.496402
 19
 32.533867
  C 1.018443 -0.090477 0.491737
  C 2.485746 0.074737 0.451516
  C 3.230885 0.774294 1.548687
  C 2.395384 1.348255 2.679397
  H 3.059858 1.800229 3.420673
  C 3.173533 -0.326241 -0.624960
  C 4.379098 -0.980712 -1.098672
  C 5.209560 -0.501575 -2.039085
  H 4.965221 0.361415 -2.634008
  H 6.119066 -1.031436 -2.293921
  H 0.594898 0.297068 1.410867
  H 0.748171 -1.147351 0.402540
  H 0.565021 0.440419 -0.354713
  H 3.817505 1.579300 1.114568
  H 3.944650 0.049328 1.946702
  H 1.823983 0.583269 3.179325
  H 1.723774 2.127010 2.329758
  H 2.696874 -0.742289 -1.548161
  H 4.647616 -1.893249 -0.584495
 19
 42.619963
  C 1.075575 -0.028005 0.427466
  C 2.561868 0.121463 0.476485
  C 3.240316 0.847844 1.622271
  C 2.326418 1.319699 2.739972
  H 2.938104 1.796941 3.502759
  C 3.315511 -0.350021 -0.488715
  C 4.380675 -1.061284 -1.122500
  C 5.120200 -0.553899 -2.152254
  H 4.830431 0.345923 -2.670021
  H 5.992978 -1.075278 -2.505023
  H 0.603299 0.399606 1.302627
  H 0.803721 -1.079276 0.362679
  H 0.685512 0.470249 -0.456228
  H 3.775276 1.709227 1.217553
  H 3.990376 0.165355 2.028898
  H 1.802156 0.491962 3.210537
  H 1.608276 2.058906 2.394330
  H 2.913221 -0.880657 -1.435245
  H 4.709186 -1.987212 -0.661452
 19
 48.248889
  C 1.101762 -0.047097 0.427609
  C 2.596312 0.053723 0.537000
  C 3.253037 0.788248 1.701198
  C 2.300009 1.398110 2.714792
  H 2.890861 1.872952 3.496687
  C 3.375502 -0.447584 -0.375028
  C 4.350931 -1.084173 -1.180774
  C 5.056257 -0.471520 -2.207253
  H 4.768792 0.489132 -2.599889
  H 5.907303 -0.963080 -2.644630
  H 0.615152 0.395487 1.286894
  H 0.800308 -1.090236 0.356957
  H 0.756906 0.467607 -0.466311
  H 3.884679 1.575361 1.288723
  H 3.909339 0.077926 2.209131
  H 1.676320 0.644715 3.189287
  H 1.671701 2.164080 2.268807
  H 3.077467 -1.089986 -1.413436
  H 4.739754 -2.031186 -0.811925
 19
 49.956028
  C 1.106742 0.016614 0.403664
  C 2.602335 0.032312 0.552167
  C 3.271994 0.722867 1.740634
  C 2.321277 1.387454 2.723015
  H 2.913261 1.834605 3.518011
  C 3.383253 -0.518798 -0.315416
  C 4.294584 -1.119096 -1.202828
  C 4.998383 -0.403191 -2.204314
  H 4.667970 0.563071 -2.538683
  H 5.880362 -0.823565 -2.649687
  H 0.625055 0.498676 1.243222
  H 0.748389 -1.007157 0.338356
  H 0.818789 0.538010 -0.506171
  H 3.960769 1.471569 1.348519
  H 3.865702 -0.023724 2.269264
  H 1.646958 0.670668 3.181867
  H 1.745942 2.182812 2.253524
  H 3.166299 -1.279217 -1.550611
  H 4.734363 -2.062080 -0.881285
 19
 49.457203
  C 1.132225 0.047035 0.383742
  C 2.627029 0.040371 0.567881
  C 3.271446 0.715823 1.784919
  C 2.300366 1.388210 2.740595
  H 2.876033 1.822770 3.554469
  C 3.417046 -0.516389 -0.278252
  C 4.237935 -1.147165 -1.230802
  C 4.963324 -0.393848 -2.222758
  H 4.631673 0.578654 -2.533702
  H 5.844723 -0.808414 -2.677470
  H 0.641435 0.532499 1.216052
  H 0.764444 -0.972352 0.306836
  H 0.875231 0.576528 -0.529896
  H 3.981431 1.456391 1.416954
  H 3.837317 -0.044332 2.325074
  H 1.602418 0.677718 3.176474
  H 1.751433 2.192879 2.259561
  H 3.259053 -1.408943 -1.749387
  H 4.712807 -2.071239 -0.899365
 19
 49.800828
  C 1.138025 0.095660 0.358052
  C 2.631334 0.047595 0.568077
  C 3.266314 0.663604 1.821945
  C 2.302301 1.395393 2.739783
  H 2.876138 1.814531 3.563717
  C 3.414350 -0.513746 -0.276862
  C 4.221909 -1.143755 -1.244799
  C 4.885223 -0.374889 -2.283669
  H 4.394953 0.463411 -2.743748
  H 5.873889 -0.637862 -2.607961
  H 0.653338 0.637654 1.158809
  H 0.739367 -0.914931 0.323838
  H 0.913354 0.586315 -0.585371
  H 4.045362 1.353455 1.496043
  H 3.747855 -0.143077 2.376415
  H 1.558041 0.726209 3.162725
  H 1.808439 2.220746 2.233023
  H 3.387766 -1.599394 -1.834271
  H 4.813716 -1.965162 -0.832164
