 17
 0.000000
  H 1.437019 0.108604 0.323998
  C 2.517085 0.110176 0.327190
  C 3.186193 0.597673 1.535866
  H 2.471682 0.901767 2.291019
  C 3.147690 -0.346955 -0.808552
  C 4.537827 -0.407932 -0.960823
  C 5.212280 -0.863352 -2.098525
  C 4.568594 -1.355580 -3.329691
  H 3.489999 -1.338498 -3.289163
  O 6.512676 -0.879233 -2.138294
  H 3.838750 1.441798 1.301928
  H 3.839612 -0.172041 1.952490
  H 2.520995 -0.674506 -1.623139
  H 5.147396 -0.075151 -0.130233
  H 4.915689 -2.370244 -3.530709
  H 4.916962 -0.760078 -4.174956
  H 6.962679 -0.558130 -1.336169
 17
 9.138295
  H 1.412633 0.120590 0.354281
  C 2.492909 0.125540 0.365592
  C 3.152720 0.616480 1.582459
  H 2.430419 0.918476 2.332610
  C 3.134893 -0.330307 -0.766902
  C 4.512571 -0.385333 -0.904480
  C 5.259464 -0.893574 -2.173995
  C 4.597036 -1.378596 -3.387399
  H 3.516689 -1.353909 -3.328382
  O 6.549811 -0.905952 -2.204612
  H 3.803111 1.463237 1.354243
  H 3.804202 -0.151012 2.005029
  H 2.515851 -0.660677 -1.588203
  H 5.125452 -0.055502 -0.081342
  H 4.934083 -2.395606 -3.592880
  H 4.935656 -0.784624 -4.237503
  H 6.998953 -0.583190 -1.398049
 17
 27.417188
  H 1.408595 0.106418 0.322542
  C 2.489363 0.123186 0.361328
  C 3.116581 0.622916 1.596712
  H 2.369149 0.918148 2.330036
  C 3.164655 -0.321690 -0.743247
  C 4.515421 -0.356494 -0.831692
  C 5.317184 -0.920960 -2.241774
  C 4.575184 -1.383827 -3.402276
  H 3.499706 -1.330429 -3.274475
  O 6.606409 -0.921343 -2.240447
  H 3.759055 1.478443 1.384754
  H 3.761575 -0.138169 2.037679
  H 2.574531 -0.659062 -1.579761
  H 5.161439 -0.039115 -0.040336
  H 4.873335 -2.408689 -3.628344
  H 4.876045 -0.797706 -4.271829
  H 7.057983 -0.595755 -1.424879
 17
 47.671269
  H 1.371117 0.110330 0.336199
  C 2.454953 0.136062 0.395328
  C 3.060487 0.643899 1.646337
  H 2.295827 0.934602 2.368450
  C 3.171845 -0.309726 -0.710185
  C 4.529939 -0.332736 -0.770530
  C 5.379807 -0.954359 -2.324177
  C 4.586803 -1.399071 -3.443403
  H 3.517698 -1.324259 -3.263207
  O 6.648604 -0.951592 -2.312735
  H 3.697726 1.505501 1.444583
  H 3.701601 -0.112804 2.099913
  H 2.599456 -0.653243 -1.559723
  H 5.220368 -0.030630 -0.018100
  H 4.852342 -2.428737 -3.683995
  H 4.856354 -0.818853 -4.325886
  H 7.112318 -0.626286 -1.496188
 17
 67.924221
  H 1.355251 0.112751 0.340524
  C 2.429150 0.147567 0.423125
  C 3.007820 0.660125 1.687087
  H 2.231006 0.942343 2.387944
  C 3.179164 -0.291950 -0.666736
  C 4.526464 -0.303615 -0.698367
  C 5.426414 -0.982408 -2.394056
  C 4.596388 -1.413323 -3.478425
  H 3.539589 -1.322520 -3.257572
  O 6.684636 -0.980413 -2.384585
  H 3.640650 1.530449 1.498658
  H 3.643690 -0.094088 2.156176
  H 2.627319 -0.640758 -1.529959
  H 5.252526 -0.013166 0.024811
  H 4.837252 -2.451439 -3.729184
  H 4.841041 -0.833797 -4.374591
  H 7.155181 -0.661378 -1.584492
 17
 86.202210
  H 1.323720 0.127198 0.375097
  C 2.400442 0.165905 0.467937
  C 2.966172 0.678061 1.732199
  H 2.179024 0.958906 2.429677
  C 3.160389 -0.269003 -0.610730
  C 4.507907 -0.276393 -0.631283
  C 5.468327 -1.010409 -2.464077
  C 4.621418 -1.438588 -3.541004
  H 3.564177 -1.342227 -3.306072
  O 6.720598 -1.009601 -2.457768
  H 3.596463 1.548874 1.549101
  H 3.599172 -0.073445 2.205285
  H 2.617209 -0.619128 -1.477802
  H 5.245139 0.010048 0.082116
  H 4.853137 -2.475970 -3.794361
  H 4.856771 -0.861726 -4.438565
  H 7.198178 -0.689410 -1.655656
 17
 102.029762
  H 1.295868 0.139701 0.404330
  C 2.367760 0.184289 0.512893
  C 2.915831 0.700607 1.788627
  H 2.119736 0.976383 2.472980
  C 3.151207 -0.248935 -0.561302
  C 4.489375 -0.250170 -0.565617
  C 5.506820 -1.039621 -2.537156
  C 4.643891 -1.461948 -3.598694
  H 3.593330 -1.358943 -3.346279
  O 6.760897 -1.041303 -2.537778
  H 3.544282 1.576404 1.614759
  H 3.546185 -0.048635 2.271779
  H 2.620733 -0.602107 -1.436923
  H 5.240621 0.030421 0.133759
  H 4.864750 -2.502309 -3.855675
  H 4.868006 -0.885377 -4.501201
  H 7.244216 -0.723854 -1.743384
 17
 114.862796
  H 1.267904 0.150853 0.430862
  C 2.339030 0.201986 0.556159
  C 2.866996 0.719561 1.836335
  H 2.058170 0.991193 2.510531
  C 3.140437 -0.225648 -0.504481
  C 4.475706 -0.220647 -0.492827
  C 5.544929 -1.066772 -2.605192
  C 4.663714 -1.484827 -3.655271
  H 3.615861 -1.374984 -3.385541
  O 6.794968 -1.073127 -2.617603
  H 3.492391 1.598370 1.671469
  H 3.493946 -0.026151 2.327790
  H 2.622650 -0.581201 -1.386588
  H 5.241366 0.053384 0.190487
  H 4.873597 -2.526343 -3.915332
  H 4.876735 -0.909912 -4.561028
  H 7.289677 -0.755837 -1.824012
 17
 124.731796
  H 1.237861 0.166387 0.469358
  C 2.305229 0.223702 0.609723
  C 2.813353 0.743049 1.895524
  H 1.995747 1.009426 2.557720
  C 3.127227 -0.201472 -0.445872
  C 4.454982 -0.191766 -0.422763
  C 5.578994 -1.094433 -2.674357
  C 4.689161 -1.511206 -3.720605
  H 3.645671 -1.397850 -3.442502
  O 6.833767 -1.107689 -2.703481
  H 3.436485 1.625387 1.739230
  H 3.438221 0.000523 2.394964
  H 2.620405 -0.559810 -1.335073
  H 5.230296 0.079074 0.252716
  H 4.893194 -2.554202 -3.981597
  H 4.896547 -0.936429 -4.628466
  H 7.333038 -0.793954 -1.918816
 17
 131.677374
  H 1.204366 0.185522 0.516967
  C 2.270619 0.247151 0.667867
  C 2.763291 0.765544 1.952083
  H 1.939138 1.028949 2.607811
  C 3.100820 -0.174172 -0.378997
  C 4.430601 -0.162377 -0.351065
  C 5.611466 -1.121080 -2.740992
  C 4.719946 -1.539784 -3.791549
  H 3.676822 -1.425638 -3.511875
  O 6.867584 -1.142935 -2.791079
  H 3.385622 1.648995 1.800716
  H 3.387674 0.025534 2.455326
  H 2.600268 -0.533675 -1.271327
  H 5.207855 0.107631 0.322587
  H 4.922974 -2.583257 -4.051707
  H 4.926493 -0.964641 -4.699484
  H 7.374107 -0.830004 -2.008637
 17
 136.407243
  H 1.167285 0.207684 0.572532
  C 2.231980 0.272747 0.731603
  C 2.712327 0.791665 2.017605
  H 1.884422 1.052431 2.667849
  C 3.070010 -0.147134 -0.312555
  C 4.398920 -0.134365 -0.282886
  C 5.642471 -1.148142 -2.808621
  C 4.755564 -1.570821 -3.868711
  H 3.712426 -1.458281 -3.593575
  O 6.903403 -1.178593 -2.879473
  H 3.334888 1.675963 1.870261
  H 3.337443 0.053916 2.523803
  H 2.574056 -0.507761 -1.207780
  H 5.174490 0.137449 0.395391
  H 4.961280 -2.614364 -4.126693
  H 4.965041 -0.994674 -4.775421
  H 7.412076 -0.868194 -2.103449
 17
 139.524587
  H 1.129297 0.231383 0.631471
  C 2.193402 0.298894 0.796549
  C 2.663432 0.816653 2.080587
  H 1.832544 1.075751 2.727749
  C 3.033621 -0.118722 -0.242898
  C 4.365995 -0.105817 -0.213699
  C 5.672415 -1.174792 -2.875096
  C 4.792293 -1.601842 -3.945507
  H 3.747462 -1.491527 -3.676396
  O 6.934730 -1.213429 -2.965865
  H 3.286891 1.700756 1.935871
  H 3.289811 0.080731 2.587911
  H 2.540352 -0.479704 -1.139281
  H 5.137337 0.167966 0.469395
  H 5.002023 -2.645004 -4.200822
  H 5.005971 -1.024685 -4.850340
  H 7.447893 -0.903122 -2.190603
 17
 141.583151
  H 1.089077 0.256819 0.692271
  C 2.152750 0.325886 0.863299
  C 2.613602 0.844183 2.148983
  H 1.780152 1.102481 2.792722
  C 2.996885 -0.091620 -0.174398
  C 4.329839 -0.079353 -0.145699
  C 5.702160 -1.201662 -2.942014
  C 4.829898 -1.633403 -4.023337
  H 3.783398 -1.526414 -3.761269
  O 6.967497 -1.246406 -3.049663
  H 3.238889 1.727816 2.006984
  H 3.240853 0.109947 2.658270
  H 2.506312 -0.452823 -1.072657
  H 5.096778 0.196809 0.544454
  H 5.044821 -2.675864 -4.276122
  H 5.048074 -1.054772 -4.925835
  H 7.480919 -0.936503 -2.278055
 17
 142.888527
  H 1.047853 0.282709 0.756279
  C 2.111111 0.353027 0.930899
  C 2.565216 0.870520 2.214857
  H 1.730536 1.128110 2.857075
  C 2.955870 -0.063501 -0.104439
  C 4.291616 -0.051442 -0.076747
  C 5.731632 -1.227625 -3.006883
  C 4.866720 -1.663102 -4.097028
  H 3.818514 -1.558576 -3.841131
  O 6.997808 -1.278425 -3.129761
  H 3.192126 1.753325 2.074269
  H 3.194171 0.137753 2.724372
  H 2.466900 -0.424954 -1.003543
  H 5.052558 0.226899 0.619391
  H 5.085926 -2.704950 -4.347264
  H 5.089180 -1.083351 -4.997381
  H 7.515483 -0.968465 -2.358733
