 20
 0.000000
  C 0.955153 0.053482 0.177211
  C 2.457050 0.057615 0.071426
  C 3.209777 -0.013876 1.374353
  H 2.516700 -0.060880 2.210064
  C 3.085718 0.125636 -1.117016
  C 2.337315 0.199454 -2.419908
  H 1.265305 0.190323 -2.262346
  C 4.535308 0.131598 -1.211495
  C 5.239822 0.196667 -2.345919
  O 6.596480 0.201515 -2.417201
  H 0.643822 -0.014547 1.216258
  H 0.525103 -0.793395 -0.357176
  H 0.531495 0.966790 -0.240922
  H 3.844876 0.861202 1.511545
  H 3.846626 -0.897549 1.413991
  H 2.602355 -0.645923 -3.053084
  H 2.601669 1.111520 -2.952921
  H 5.087663 0.078858 -0.282636
  H 4.808660 0.252716 -3.332094
  H 6.968041 0.150906 -1.527241
 20
 4.114950
  C 0.959678 0.027740 0.190570
  C 2.435898 0.055044 0.074134
  C 3.202779 -0.018657 1.375194
  H 2.521754 -0.045760 2.219889
  C 3.066791 0.122490 -1.115299
  C 2.324609 0.189291 -2.423229
  H 1.249329 0.172627 -2.286044
  C 4.517248 0.140756 -1.207818
  C 5.222975 0.207056 -2.337981
  O 6.578131 0.218251 -2.404313
  H 0.615782 -0.003853 1.214557
  H 0.492498 -0.780702 -0.362765
  H 0.753933 0.966952 -0.255323
  H 3.854265 0.845185 1.499503
  H 3.821099 -0.914588 1.416095
  H 2.600796 -0.656458 -3.051189
  H 2.588738 1.103038 -2.954076
  H 5.068699 0.093329 -0.278325
  H 4.795071 0.257648 -3.325156
  H 6.945077 0.171829 -1.512990
 20
 11.731225
  C 0.950623 0.021785 0.200518
  C 2.425630 0.039262 0.079035
  C 3.194334 -0.038582 1.371470
  H 2.513759 -0.028146 2.219565
  C 3.055765 0.106079 -1.109837
  C 2.315160 0.156233 -2.419693
  H 1.240637 0.121467 -2.289563
  C 4.502468 0.153201 -1.205329
  C 5.202396 0.225230 -2.333669
  O 6.572782 0.259403 -2.402848
  H 0.592333 0.016436 1.205494
  H 0.448430 -0.712313 -0.389815
  H 0.968501 0.999538 -0.243383
  H 3.877250 0.802234 1.482009
  H 3.777007 -0.958971 1.421940
  H 2.608223 -0.687554 -3.042452
  H 2.565885 1.071897 -2.954556
  H 5.057401 0.116982 -0.279516
  H 4.769757 0.264209 -3.324135
  H 6.949719 0.222521 -1.495752
 20
 22.070455
  C 0.920283 0.007890 0.202497
  C 2.421390 0.033749 0.078664
  C 3.191829 -0.035475 1.375121
  H 2.507626 -0.008291 2.226284
  C 3.055255 0.101162 -1.109278
  C 2.314911 0.146297 -2.416439
  H 1.237365 0.106963 -2.284572
  C 4.499205 0.155842 -1.203300
  C 5.199206 0.231803 -2.332586
  O 6.573964 0.275208 -2.402540
  H 0.549157 0.005730 1.208021
  H 0.398737 -0.678762 -0.427685
  H 1.120044 0.978666 -0.215373
  H 3.887647 0.799672 1.478415
  H 3.763751 -0.965029 1.433847
  H 2.610384 -0.696412 -3.039038
  H 2.561619 1.062689 -2.952620
  H 5.053451 0.120896 -0.278558
  H 4.766029 0.268540 -3.323731
  H 6.941125 0.240112 -1.517077
 20
 32.456785
  C 0.911958 -0.006969 0.215746
  C 2.412905 0.036385 0.077050
  C 3.189043 -0.028333 1.369655
  H 2.516381 0.010812 2.218608
  C 3.049293 0.101704 -1.114549
  C 2.303761 0.140291 -2.426290
  H 1.232069 0.100391 -2.292406
  C 4.496661 0.161096 -1.202177
  C 5.205459 0.237077 -2.331564
  O 6.566919 0.280557 -2.391433
  H 0.532508 -0.021628 1.220708
  H 0.362734 -0.653234 -0.449180
  H 1.241866 0.962382 -0.170824
  H 3.891586 0.796170 1.462525
  H 3.748902 -0.959517 1.430098
  H 2.598330 -0.704569 -3.047312
  H 2.547035 1.054382 -2.966656
  H 5.047500 0.127691 -0.271202
  H 4.780703 0.271957 -3.323067
  H 6.928228 0.245035 -1.498448
 20
 40.834142
  C 0.898345 -0.029081 0.219623
  C 2.409262 0.040451 0.072534
  C 3.178922 -0.010745 1.370143
  H 2.501621 0.031403 2.217303
  C 3.051444 0.101703 -1.119259
  C 2.304993 0.134298 -2.427928
  H 1.228110 0.101986 -2.289013
  C 4.496460 0.162206 -1.206290
  C 5.204210 0.238093 -2.335521
  O 6.567243 0.279254 -2.395573
  H 0.528571 -0.094260 1.226519
  H 0.339865 -0.597511 -0.500809
  H 1.332045 0.947329 -0.089962
  H 3.881759 0.817200 1.461798
  H 3.737392 -0.942717 1.436067
  H 2.592578 -0.714907 -3.045144
  H 2.551057 1.044478 -2.975748
  H 5.049720 0.127544 -0.275822
  H 4.779959 0.274168 -3.323812
  H 6.928069 0.239952 -1.501386
 20
 47.502484
  C 0.904577 -0.045499 0.234020
  C 2.398570 0.042442 0.068141
  C 3.166726 0.001453 1.368070
  H 2.490348 0.051405 2.215682
  C 3.050134 0.100553 -1.125651
  C 2.309972 0.130868 -2.438647
  H 1.246177 0.104968 -2.305867
  C 4.485703 0.164212 -1.205153
  C 5.198642 0.239504 -2.334334
  O 6.560862 0.278761 -2.388284
  H 0.549831 -0.147235 1.238426
  H 0.325531 -0.551364 -0.519257
  H 1.407293 0.931730 -0.021697
  H 3.868105 0.824707 1.452783
  H 3.722759 -0.931233 1.439672
  H 2.595973 -0.722137 -3.053569
  H 2.559779 1.036086 -2.988201
  H 5.034299 0.129274 -0.275468
  H 4.773436 0.273869 -3.334932
  H 6.915413 0.238772 -1.494923
 20
 52.003893
  C 0.895090 -0.062566 0.243244
  C 2.396614 0.044912 0.065781
  C 3.158116 0.010249 1.361275
  H 2.480428 0.064903 2.205823
  C 3.051690 0.099787 -1.130707
  C 2.308450 0.126867 -2.441599
  H 1.235516 0.105013 -2.303550
  C 4.489282 0.165754 -1.208628
  C 5.204200 0.239767 -2.336279
  O 6.571092 0.279944 -2.388725
  H 0.543064 -0.196636 1.246170
  H 0.300916 -0.508793 -0.532624
  H 1.463425 0.923560 0.029817
  H 3.863597 0.838016 1.442264
  H 3.714165 -0.924381 1.438378
  H 2.589926 -0.730119 -3.054956
  H 2.559797 1.031810 -2.997156
  H 5.039577 0.131865 -0.274865
  H 4.785905 0.271796 -3.324689
  H 6.924298 0.240595 -1.494548
 20
 55.975560
  C 0.895729 -0.072980 0.233678
  C 2.389662 0.050165 0.061700
  C 3.151543 0.014005 1.374461
  H 2.470077 0.071754 2.216703
  C 3.052139 0.098507 -1.135876
  C 2.313375 0.121670 -2.433767
  H 1.237546 0.106074 -2.292427
  C 4.494127 0.161831 -1.215639
  C 5.208197 0.234586 -2.344913
  O 6.568745 0.288149 -2.395807
  H 0.535963 -0.230374 1.236360
  H 0.302823 -0.464638 -0.555792
  H 1.511091 0.912338 0.057583
  H 3.853752 0.832224 1.458127
  H 3.697409 -0.909459 1.456239
  H 2.586171 -0.730223 -3.035027
  H 2.567539 1.017749 -2.993220
  H 5.044394 0.131809 -0.287600
  H 4.784503 0.269354 -3.344234
  H 6.921763 0.252882 -1.497688
 20
 59.110701
  C 0.897137 -0.091105 0.249676
  C 2.388466 0.058177 0.069231
  C 3.148484 0.022428 1.361517
  H 2.472209 0.075196 2.202261
  C 3.054069 0.107348 -1.135889
  C 2.320133 0.123146 -2.440088
  H 1.242622 0.104242 -2.305183
  C 4.479087 0.181530 -1.209369
  C 5.198439 0.246275 -2.338888
  O 6.565849 0.267569 -2.388472
  H 0.543332 -0.265319 1.247743
  H 0.288623 -0.445169 -0.559654
  H 1.544062 0.900721 0.095815
  H 3.850613 0.849750 1.442427
  H 3.701915 -0.904636 1.438129
  H 2.601522 -0.735797 -3.040941
  H 2.574775 1.022724 -3.005242
  H 5.029801 0.148699 -0.273528
  H 4.782871 0.265442 -3.327286
  H 6.915796 0.229274 -1.492332
 20
 61.698812
  C 0.882590 -0.105133 0.242451
  C 2.386761 0.066215 0.066451
  C 3.156318 0.026727 1.373149
  H 2.472296 0.080518 2.224819
  C 3.049832 0.108878 -1.137263
  C 2.302913 0.122965 -2.443543
  H 1.235532 0.111357 -2.302216
  C 4.495599 0.181374 -1.212854
  C 5.215861 0.242758 -2.338282
  O 6.577991 0.271328 -2.381251
  H 0.522307 -0.288064 1.237385
  H 0.275841 -0.421913 -0.574695
  H 1.569286 0.901542 0.106116
  H 3.862661 0.857505 1.454266
  H 3.716183 -0.912948 1.449980
  H 2.574727 -0.742584 -3.044706
  H 2.555428 1.010719 -3.010185
  H 5.044145 0.152035 -0.283299
  H 4.801507 0.261937 -3.334708
  H 6.924586 0.237129 -1.479602
 20
 64.259552
  C 0.888408 -0.122456 0.245809
  C 2.378692 0.073349 0.068314
  C 3.151713 0.032245 1.370479
  H 2.473193 0.083736 2.215554
  C 3.048786 0.109577 -1.139537
  C 2.309358 0.126302 -2.441784
  H 1.252236 0.123959 -2.306141
  C 4.484050 0.176178 -1.212886
  C 5.206575 0.236633 -2.338768
  O 6.574791 0.272018 -2.381316
  H 0.528460 -0.303074 1.241603
  H 0.278577 -0.410761 -0.577494
  H 1.592656 0.892126 0.117619
  H 3.858519 0.868927 1.448933
  H 3.713634 -0.909601 1.444362
  H 2.574190 -0.738805 -3.035815
  H 2.569624 1.006473 -3.008302
  H 5.036159 0.149755 -0.276853
  H 4.800754 0.257969 -3.316543
  H 6.920161 0.239512 -1.480982
 20
 66.341540
  C 0.885915 -0.136181 0.247327
  C 2.384245 0.081409 0.074917
  C 3.158672 0.034116 1.378635
  H 2.483013 0.087521 2.221547
  C 3.057155 0.105941 -1.135150
  C 2.310533 0.126958 -2.448666
  H 1.227489 0.140557 -2.309935
  C 4.488249 0.160441 -1.207028
  C 5.213351 0.222733 -2.333240
  O 6.575953 0.290085 -2.370432
  H 0.515924 -0.308499 1.246054
  H 0.276638 -0.393744 -0.581160
  H 1.620558 0.898572 0.126009
  H 3.858901 0.857276 1.455927
  H 3.713748 -0.904522 1.451561
  H 2.566513 -0.757221 -3.047999
  H 2.584047 1.005274 -3.023172
  H 5.034847 0.141044 -0.280688
  H 4.801084 0.254563 -3.331948
  H 6.918678 0.265212 -1.467797
 20
 68.052877
  C 0.884944 -0.183928 0.247801
  C 2.384163 0.092344 0.075356
  C 3.163684 0.045404 1.378819
  H 2.486195 0.086088 2.229206
  C 3.057014 0.116123 -1.140326
  C 2.310858 0.137164 -2.448242
  H 1.237951 0.156982 -2.307341
  C 4.486239 0.181375 -1.208345
  C 5.213787 0.233346 -2.333132
  O 6.579898 0.257684 -2.368222
  H 0.508642 -0.333841 1.240780
  H 0.263376 -0.411453 -0.586202
  H 1.627411 0.898996 0.129921
  H 3.859479 0.880970 1.460589
  H 3.726284 -0.880443 1.444937
  H 2.557622 -0.743493 -3.039147
  H 2.591893 1.020737 -3.033160
  H 5.034831 0.158584 -0.271046
  H 4.804501 0.247772 -3.331790
  H 6.920270 0.228350 -1.465549
