 25
 0.000000
  C 1.008564 0.119912 0.351133
  C 2.480135 0.130950 0.377844
  C 3.241016 0.603595 1.553009
  C 2.447583 1.089435 2.761722
  C 3.388285 1.537525 3.876166
  C 3.132052 -0.328723 -0.766070
  C 4.522310 -0.401283 -0.947723
  C 5.148567 -0.856259 -2.082444
  C 4.539861 -1.351732 -3.318331
  H 3.457768 -1.367019 -3.357017
  H 6.229438 -0.864336 -2.102777
  H 0.556170 0.487087 1.264449
  H 0.649932 -0.894208 0.167490
  H 0.649553 0.724495 -0.483329
  H 3.902325 1.415132 1.227886
  H 3.902598 -0.206935 1.880042
  H 1.810209 0.289684 3.143094
  H 1.810071 1.930514 2.483482
  H 4.024296 0.718106 4.203524
  H 2.818013 1.882665 4.734941
  H 4.024124 2.355611 3.545218
  H 2.500695 -0.656044 -1.580349
  H 5.152730 -0.074079 -0.132808
  H 4.922340 -2.359013 -3.504410
  H 4.922694 -0.752261 -4.148700
 25
 13.685417
  C 0.977182 0.139365 0.399657
  C 2.437858 0.156734 0.442248
  C 3.203922 0.623678 1.603174
  C 2.420033 1.112114 2.818153
  C 3.372321 1.556766 3.923963
  C 3.159731 -0.346482 -0.809991
  C 4.525968 -0.408016 -0.964294
  C 5.212591 -0.903459 -2.200079
  C 4.593354 -1.392730 -3.420657
  H 3.509301 -1.398837 -3.436506
  H 6.291353 -0.906893 -2.208783
  H 0.516198 0.505054 1.309172
  H 0.624518 -0.876349 0.209550
  H 0.624231 0.740644 -0.440602
  H 3.867517 1.432032 1.272117
  H 3.867771 -0.188660 1.923777
  H 1.783652 0.314250 3.204847
  H 1.783560 1.955540 2.544978
  H 4.008300 0.735004 4.245492
  H 2.811274 1.904052 4.787929
  H 4.008182 2.372468 3.587115
  H 2.531087 -0.673271 -1.622966
  H 5.156225 -0.082077 -0.152414
  H 4.965829 -2.402755 -3.613494
  H 4.966227 -0.795891 -4.257791
 25
 40.776149
  C 0.949017 0.144622 0.413263
  C 2.380022 0.182066 0.506144
  C 3.179151 0.629169 1.617393
  C 2.414082 1.124003 2.847282
  C 3.382986 1.561745 3.935759
  C 3.185859 -0.369532 -0.866077
  C 4.518306 -0.395612 -0.932665
  C 5.277656 -0.921443 -2.244830
  C 4.612576 -1.405316 -3.453026
  H 3.523828 -1.384224 -3.401999
  H 6.351897 -0.897839 -2.185644
  H 0.460000 0.506197 1.312420
  H 0.615987 -0.875557 0.195957
  H 0.615942 0.730344 -0.449791
  H 3.849055 1.426250 1.267027
  H 3.849156 -0.188368 1.916557
  H 1.777150 0.324541 3.230483
  H 1.777400 1.966299 2.570039
  H 4.018332 0.735592 4.246858
  H 2.838285 1.912861 4.808491
  H 4.018647 2.372944 3.588114
  H 2.527605 -0.686736 -1.655029
  H 5.175434 -0.077126 -0.139226
  H 4.948522 -2.430147 -3.666962
  H 4.949338 -0.812117 -4.315294
 25
 73.231396
  C 0.891063 0.160396 0.452958
  C 2.312691 0.207862 0.570785
  C 3.136954 0.645370 1.657847
  C 2.400994 1.142683 2.893589
  C 3.392631 1.574239 3.966407
  C 3.192014 -0.393948 -0.926177
  C 4.512902 -0.404271 -0.953423
  C 5.344393 -0.960666 -2.342365
  C 4.679933 -1.433646 -3.524368
  H 3.592435 -1.406162 -3.457763
  H 6.415720 -0.920747 -2.242079
  H 0.390278 0.517877 1.341694
  H 0.568482 -0.855235 0.232001
  H 0.568501 0.740215 -0.409706
  H 3.803980 1.431774 1.292909
  H 3.804108 -0.174467 1.939168
  H 1.767188 0.350321 3.293192
  H 1.767398 1.991235 2.632892
  H 4.027322 0.743879 4.266602
  H 2.865866 1.929015 4.848127
  H 4.027752 2.380789 3.607843
  H 2.510603 -0.698931 -1.684927
  H 5.180770 -0.095270 -0.183341
  H 5.009178 -2.454732 -3.743561
  H 5.010343 -0.846612 -4.387661
 25
 105.482731
  C 0.838081 0.176852 0.493846
  C 2.250656 0.233663 0.634727
  C 3.094959 0.661272 1.697866
  C 2.379408 1.169908 2.962265
  C 3.394930 1.594193 4.016032
  C 3.216900 -0.425098 -1.005263
  C 4.518293 -0.418101 -0.989076
  C 5.411624 -0.997550 -2.434556
  C 4.741283 -1.468126 -3.609742
  H 3.664887 -1.435823 -3.531348
  H 6.466327 -0.943539 -2.298947
  H 0.315693 0.534384 1.383794
  H 0.524233 -0.849655 0.263688
  H 0.524025 0.758555 -0.382589
  H 3.769769 1.443281 1.314507
  H 3.770052 -0.168362 1.962473
  H 1.746941 0.382241 3.373522
  H 1.747573 2.023160 2.713073
  H 4.029195 0.758848 4.304878
  H 2.886672 1.953261 4.907686
  H 4.029355 2.396424 3.645325
  H 2.505474 -0.722334 -1.744999
  H 5.204678 -0.111928 -0.225867
  H 5.061816 -2.492046 -3.832535
  H 5.063086 -0.882112 -4.477859
 25
 133.944111
  C 0.755930 0.196807 0.542709
  C 2.171822 0.262056 0.704720
  C 3.042524 0.685236 1.757162
  C 2.365503 1.198965 3.034778
  C 3.414069 1.612674 4.063436
  C 3.248687 -0.467263 -1.111018
  C 4.524182 -0.442562 -1.052517
  C 5.473774 -1.027863 -2.511357
  C 4.817816 -1.505385 -3.700827
  H 3.734083 -1.479248 -3.636578
  H 6.525358 -0.958404 -2.338635
  H 0.212115 0.549809 1.421648
  H 0.454602 -0.828562 0.307449
  H 0.454272 0.774227 -0.336506
  H 3.716849 1.456979 1.360397
  H 3.717032 -0.146211 2.004750
  H 1.735275 0.414980 3.461137
  H 1.735738 2.060262 2.799574
  H 4.046972 0.771039 4.336534
  H 2.931298 1.976515 4.967555
  H 4.047142 2.408773 3.677442
  H 2.514235 -0.755705 -1.827518
  H 5.212420 -0.137106 -0.292519
  H 5.144185 -2.529540 -3.918465
  H 5.144679 -0.916457 -4.566304
 25
 158.068310
  C 0.712675 0.227535 0.618609
  C 2.120839 0.292561 0.780417
  C 2.995708 0.708778 1.815773
  C 2.332794 1.227420 3.105595
  C 3.392371 1.635154 4.120495
  C 3.278405 -0.496677 -1.184607
  C 4.543482 -0.465835 -1.112701
  C 5.544329 -1.074954 -2.629914
  C 4.891282 -1.553998 -3.820588
  H 3.810493 -1.529306 -3.758719
  H 6.594733 -0.999801 -2.444377
  H 0.164362 0.580580 1.497596
  H 0.413407 -0.799251 0.382077
  H 0.413205 0.805232 -0.262487
  H 3.670336 1.477284 1.410202
  H 3.670484 -0.126561 2.054873
  H 1.705114 0.447941 3.537715
  H 1.705991 2.089662 2.877816
  H 4.023924 0.790693 4.386396
  H 2.921015 2.000864 5.029308
  H 4.024500 2.428104 3.727699
  H 2.532105 -0.779747 -1.886172
  H 5.234015 -0.162552 -0.359603
  H 5.217887 -2.579075 -4.036757
  H 5.217578 -0.964005 -4.686326
 25
 147.041786
  C 0.544334 0.394509 0.891801
  C 1.972492 0.367918 0.929549
  C 2.838843 0.765905 1.973437
  C 2.264936 1.301460 3.289682
  C 3.385173 1.621819 4.270610
  C 3.374701 -0.720466 -1.690921
  C 4.688341 -0.577036 -1.696604
  C 5.548129 -1.033840 -2.737961
  C 5.131582 -1.694904 -3.964073
  H 4.060554 -1.837963 -4.050087
  H 6.599261 -0.849840 -2.577313
  H 0.027064 0.771357 1.778046
  H 0.197025 -0.616259 0.657527
  H 0.249672 0.982252 0.016664
  H 3.530452 1.496381 1.540901
  H 3.494274 -0.089510 2.174385
  H 1.602080 0.554025 3.735901
  H 1.686204 2.210338 3.097871
  H 3.968265 0.732673 4.501882
  H 2.971464 2.003476 5.201964
  H 4.055564 2.378091 3.865573
  H 2.538603 -1.063587 -2.257530
  H 5.269338 -0.138705 -0.892579
  H 5.641069 -2.662804 -4.047195
  H 5.481839 -1.105559 -4.824215
 25
 144.862498
  C 0.574304 0.410187 0.903526
  C 2.001494 0.368221 0.932608
  C 2.872236 0.770173 2.001724
  C 2.258504 1.304234 3.298639
  C 3.343180 1.626806 4.319203
  C 3.392455 -0.737186 -1.705998
  C 4.712419 -0.574449 -1.752750
  C 5.551309 -1.022953 -2.771098
  C 5.125882 -1.717877 -3.972319
  H 4.051077 -1.867252 -4.009661
  H 6.612427 -0.826000 -2.649729
  H 0.103649 0.792105 1.809555
  H 0.207073 -0.590527 0.671036
  H 0.269172 0.994718 0.032839
  H 3.574392 1.505349 1.577208
  H 3.527291 -0.089948 2.212929
  H 1.581146 0.558780 3.712471
  H 1.683897 2.203992 3.083292
  H 3.917209 0.738016 4.570067
  H 2.898710 2.007883 5.235297
  H 4.023270 2.383936 3.937324
  H 2.583537 -1.102400 -2.283483
  H 5.170140 -0.092713 -0.907351
  H 5.641973 -2.672477 -4.065238
  H 5.451295 -1.149577 -4.846950
