 12
 0.000000
  C 0.932763 0.048800 0.259591
  C 2.427392 0.057395 0.096089
  C 3.264758 -0.011206 1.344317
  H 2.650611 -0.057353 2.239803
  C 2.994847 0.123777 -1.098315
  H 2.425175 0.172456 -2.011144
  H 4.066119 0.131927 -1.215401
  H 0.651384 -0.022847 1.307687
  H 0.492115 -0.798314 -0.263883
  H 0.493228 0.961059 -0.141219
  H 3.913657 0.861070 1.414568
  H 3.908983 -0.889520 1.321137
 12
 3.415508
  C 0.933405 0.002310 0.275777
  C 2.406308 0.054616 0.108597
  C 3.254819 -0.003974 1.340445
  H 2.644450 -0.033408 2.242396
  C 2.967193 0.133192 -1.089433
  H 2.378932 0.169465 -1.992354
  H 4.035037 0.175029 -1.213854
  H 0.614235 -0.039322 1.309684
  H 0.472683 -0.801784 -0.280876
  H 0.705744 0.948479 -0.168588
  H 3.910567 0.864185 1.394906
  H 3.886865 -0.891419 1.323379
 12
 11.572324
  C 0.913685 -0.033644 0.284815
  C 2.389843 0.047363 0.111022
  C 3.255079 0.002981 1.341052
  H 2.652710 -0.004335 2.247937
  C 2.947629 0.141893 -1.087531
  H 2.359563 0.158681 -1.990199
  H 4.013028 0.226151 -1.210085
  H 0.572458 -0.050073 1.312807
  H 0.429573 -0.802766 -0.308628
  H 0.878366 0.926469 -0.169663
  H 3.922676 0.863598 1.375695
  H 3.874754 -0.893346 1.334091
 12
 21.503252
  C 0.898994 -0.062699 0.291343
  C 2.375371 0.047739 0.103115
  C 3.249831 0.014852 1.341455
  H 2.650854 0.024772 2.248688
  C 2.934923 0.147142 -1.095085
  H 2.352685 0.149791 -2.000251
  H 3.995074 0.249405 -1.212221
  H 0.555821 -0.082380 1.315439
  H 0.399695 -0.783184 -0.331635
  H 1.016098 0.908042 -0.140786
  H 3.930059 0.871078 1.364839
  H 3.859076 -0.890659 1.344588
 12
 32.191760
  C 0.890744 -0.084550 0.308048
  C 2.375060 0.054246 0.097833
  C 3.241273 0.024110 1.335786
  H 2.640902 0.042417 2.236502
  C 2.934097 0.156374 -1.102504
  H 2.350222 0.154963 -2.007700
  H 3.999760 0.264099 -1.220981
  H 0.539666 -0.102187 1.324379
  H 0.365023 -0.786570 -0.326819
  H 1.136250 0.895922 -0.129255
  H 3.922620 0.870270 1.357534
  H 3.841820 -0.881283 1.345747
 12
 40.670641
  C 0.874241 -0.108120 0.308967
  C 2.359552 0.057918 0.097815
  C 3.240071 0.043987 1.329412
  H 2.650928 0.081052 2.236558
  C 2.929983 0.150519 -1.103913
  H 2.354951 0.118700 -2.014097
  H 3.992739 0.272619 -1.211937
  H 0.532824 -0.167062 1.328844
  H 0.344598 -0.726301 -0.391287
  H 1.223158 0.886588 -0.047489
  H 3.933739 0.881788 1.327986
  H 3.824797 -0.869649 1.346363
 12
 46.306105
  C 0.879428 -0.130271 0.317011
  C 2.358909 0.053730 0.087960
  C 3.226560 0.065627 1.323160
  H 2.632404 0.141360 2.224875
  C 2.932568 0.134498 -1.117925
  H 2.358020 0.069745 -2.027787
  H 3.992041 0.293035 -1.226297
  H 0.559438 -0.275898 1.329753
  H 0.314407 -0.628493 -0.449519
  H 1.312806 0.885504 0.063773
  H 3.936638 0.890419 1.300126
  H 3.793185 -0.860489 1.371474
 12
 50.718535
  C 0.881156 -0.150171 0.320188
  C 2.360420 0.051487 0.081268
  C 3.220585 0.083637 1.318387
  H 2.622856 0.198219 2.215383
  C 2.936776 0.124909 -1.128696
  H 2.367144 0.044180 -2.031848
  H 3.989574 0.301603 -1.236620
  H 0.570714 -0.369819 1.321294
  H 0.288272 -0.541496 -0.484950
  H 1.382632 0.872647 0.145679
  H 3.944821 0.896841 1.275924
  H 3.770982 -0.849666 1.394827
 12
 54.698366
  C 0.878347 -0.166518 0.320124
  C 2.362064 0.055955 0.079585
  C 3.221328 0.097105 1.317956
  H 2.623611 0.239806 2.211811
  C 2.941129 0.121780 -1.133408
  H 2.371016 0.030612 -2.038021
  H 3.989549 0.312676 -1.240958
  H 0.568645 -0.426926 1.311135
  H 0.274066 -0.486251 -0.507261
  H 1.432568 0.859297 0.194419
  H 3.959284 0.899111 1.259301
  H 3.757293 -0.844321 1.415422
 12
 58.579484
  C 0.883172 -0.176487 0.317502
  C 2.350176 0.062465 0.077980
  C 3.218127 0.102227 1.318914
  H 2.625052 0.257863 2.213578
  C 2.934459 0.123653 -1.136269
  H 2.371909 0.032396 -2.027205
  H 4.011273 0.323092 -1.245950
  H 0.573243 -0.442618 1.310401
  H 0.278525 -0.467452 -0.513395
  H 1.467742 0.849952 0.202802
  H 3.970687 0.900869 1.252210
  H 3.740999 -0.839805 1.421044
 12
 61.596774
  C 0.885095 -0.186629 0.319029
  C 2.361381 0.072967 0.081155
  C 3.227705 0.110393 1.323150
  H 2.630809 0.273930 2.222515
  C 2.949318 0.131049 -1.135855
  H 2.376580 0.038241 -2.049233
  H 3.987072 0.322092 -1.236908
  H 0.571880 -0.448939 1.303533
  H 0.273770 -0.461379 -0.522411
  H 1.504367 0.850941 0.207332
  H 3.973399 0.891037 1.254118
  H 3.743168 -0.830684 1.429293
 12
 64.568175
  C 0.885164 -0.196377 0.316942
  C 2.358277 0.080335 0.081949
  C 3.229687 0.112953 1.324484
  H 2.636447 0.280700 2.224322
  C 2.949460 0.135082 -1.136963
  H 2.381497 0.041696 -2.042374
  H 4.002026 0.332751 -1.237694
  H 0.566030 -0.448268 1.305136
  H 0.274258 -0.454717 -0.525988
  H 1.528976 0.846867 0.204004
  H 3.985107 0.894146 1.251461
  H 3.738399 -0.826992 1.430789
 12
 67.116327
  C 0.892407 -0.206983 0.315138
  C 2.361947 0.089698 0.083963
  C 3.234549 0.118065 1.328301
  H 2.640501 0.289580 2.229823
  C 2.953613 0.141590 -1.138626
  H 2.383232 0.050991 -2.045790
  H 4.001873 0.331501 -1.238746
  H 0.567854 -0.446639 1.302592
  H 0.277021 -0.448972 -0.532020
  H 1.555242 0.845736 0.202716
  H 3.992122 0.893870 1.254724
  H 3.736246 -0.820690 1.435038
 12
 69.417526
  C 0.893526 -0.220201 0.314964
  C 2.365253 0.099954 0.086137
  C 3.237560 0.123621 1.327857
  H 2.644955 0.299114 2.225831
  C 2.961327 0.148727 -1.138266
  H 2.391365 0.059701 -2.046170
  H 4.011778 0.335976 -1.236484
  H 0.561578 -0.441909 1.305347
  H 0.276681 -0.447414 -0.531072
  H 1.576128 0.852310 0.199491
  H 3.998199 0.897799 1.252526
  H 3.739927 -0.828156 1.436416
