 20
 0.000000
  H 1.420204 0.162407 0.461100
  C 2.500416 0.139581 0.401697
  C 3.243028 0.613470 1.574221
  H 2.570832 0.931880 2.365712
  C 3.053257 -0.334143 -0.775308
  C 4.432702 -0.419865 -0.990725
  C 5.124649 -0.870726 -2.116804
  C 4.621115 -1.389292 -3.412856
  C 3.132047 -1.499740 -3.690605
  H 3.001794 -1.901153 -4.694266
  O 6.435549 -0.862240 -2.096031
  H 3.897430 1.445779 1.308777
  H 3.899619 -0.168465 1.959961
  H 2.371900 -0.645610 -1.548083
  H 5.061189 -0.090718 -0.171521
  H 5.086401 -2.373405 -3.541744
  H 5.087269 -0.766402 -4.185131
  H 2.645381 -0.529078 -3.661648
  H 2.644600 -2.182343 -3.000347
  H 6.841974 -0.532762 -1.269924
 20
 8.819513
  H 1.411015 0.168307 0.475612
  C 2.489933 0.142349 0.408566
  C 3.241644 0.613105 1.573165
  H 2.578308 0.933648 2.369732
  C 3.030990 -0.332011 -0.769842
  C 4.410722 -0.421515 -0.994524
  C 5.082373 -0.870846 -2.116924
  C 4.605396 -1.387033 -3.407198
  C 3.120895 -1.503908 -3.701112
  H 3.004198 -1.905275 -4.704869
  O 6.552466 -0.858777 -2.087636
  H 3.897348 1.443092 1.301985
  H 3.899514 -0.171140 1.953264
  H 2.343549 -0.641261 -1.537198
  H 5.046319 -0.094123 -0.179250
  H 5.078960 -2.369293 -3.531558
  H 5.079868 -0.762316 -4.174828
  H 2.629619 -0.535175 -3.677571
  H 2.628842 -2.188909 -3.016264
  H 6.933572 -0.528282 -1.259495
 20
 26.088984
  H 1.419644 0.175010 0.490299
  C 2.496650 0.145854 0.416447
  C 3.256762 0.611116 1.569055
  H 2.602729 0.933861 2.370847
  C 3.017055 -0.323473 -0.749568
  C 4.385861 -0.417018 -0.983512
  C 4.997873 -0.870144 -2.115351
  C 4.594212 -1.387348 -3.407795
  C 3.114705 -1.517019 -3.733297
  H 3.014347 -1.918793 -4.737494
  O 6.626843 -0.850404 -2.068002
  H 3.913170 1.439848 1.293724
  H 3.914563 -0.175822 1.945135
  H 2.325097 -0.630904 -1.513447
  H 5.034028 -0.094490 -0.180011
  H 5.090659 -2.361009 -3.526686
  H 5.091594 -0.765206 -4.165588
  H 2.616962 -0.551764 -3.706852
  H 2.616449 -2.197491 -3.048610
  H 6.925810 -0.511527 -1.219709
 20
 44.748995
  H 1.396448 0.186488 0.519155
  C 2.476911 0.154777 0.438622
  C 3.246990 0.616901 1.583841
  H 2.601803 0.943839 2.396460
  C 2.993460 -0.319724 -0.740725
  C 4.381283 -0.418841 -0.989021
  C 4.940816 -0.878630 -2.137032
  C 4.588959 -1.389155 -3.412146
  C 3.111668 -1.522166 -3.746232
  H 3.020447 -1.925631 -4.754190
  O 6.729197 -0.858965 -2.089545
  H 3.907690 1.440316 1.301200
  H 3.909209 -0.171233 1.950647
  H 2.299385 -0.627635 -1.505442
  H 5.044232 -0.099847 -0.195116
  H 5.097073 -2.359104 -3.523918
  H 5.098204 -0.765064 -4.162226
  H 2.612291 -0.556408 -3.725621
  H 2.611508 -2.206781 -3.065014
  H 6.978898 -0.509058 -1.212850
 20
 62.601646
  H 1.394872 0.194863 0.542410
  C 2.471032 0.162196 0.458405
  C 3.248245 0.623372 1.597845
  H 2.615431 0.951378 2.412558
  C 2.979709 -0.313499 -0.722724
  C 4.368044 -0.416592 -0.981634
  C 4.864652 -0.878493 -2.136487
  C 4.579119 -1.393073 -3.423286
  C 3.105265 -1.535527 -3.780030
  H 3.031365 -1.936664 -4.783739
  O 6.812111 -0.854574 -2.078680
  H 3.913067 1.441773 1.308984
  H 3.915707 -0.164234 1.957424
  H 2.287364 -0.622065 -1.488324
  H 5.044215 -0.102326 -0.198920
  H 5.101546 -2.352914 -3.526513
  H 5.102114 -0.769307 -4.159653
  H 2.602518 -0.572492 -3.763240
  H 2.602531 -2.221740 -3.104345
  H 6.995751 -0.503431 -1.193277
 20
 78.399549
  H 1.373915 0.199945 0.556756
  C 2.453738 0.165626 0.467700
  C 3.238605 0.626954 1.605655
  H 2.607802 0.957552 2.426827
  C 2.957212 -0.311753 -0.717152
  C 4.346368 -0.417064 -0.982122
  C 4.839873 -0.880430 -2.141175
  C 4.566639 -1.393641 -3.425201
  C 3.089510 -1.539568 -3.790814
  H 3.021782 -1.942622 -4.799947
  O 6.946539 -0.853970 -2.077159
  H 3.904134 1.444147 1.313157
  H 3.907475 -0.161557 1.962009
  H 2.262241 -0.619888 -1.480922
  H 5.024713 -0.103510 -0.201054
  H 5.092401 -2.356314 -3.525333
  H 5.092981 -0.765402 -4.161130
  H 2.584775 -0.576802 -3.775741
  H 2.584653 -2.227202 -3.116695
  H 7.128575 -0.507085 -1.199793
 20
 91.519953
  H 1.368347 0.205097 0.571358
  C 2.444285 0.168070 0.474565
  C 3.239951 0.627060 1.604931
  H 2.620332 0.958851 2.429173
  C 2.934310 -0.309474 -0.710263
  C 4.325119 -0.419227 -0.987015
  C 4.785477 -0.879696 -2.139153
  C 4.552184 -1.394189 -3.426851
  C 3.076337 -1.545672 -3.806710
  H 3.021769 -1.947080 -4.812227
  O 7.051094 -0.847936 -2.062157
  H 3.906012 1.440997 1.306545
  H 3.910114 -0.162488 1.954938
  H 2.235861 -0.616638 -1.470656
  H 5.012536 -0.108010 -0.212185
  H 5.083278 -2.352911 -3.520214
  H 5.083922 -0.763958 -4.154941
  H 2.569767 -0.585119 -3.795123
  H 2.569660 -2.234194 -3.137018
  H 7.210391 -0.495740 -1.169297
 20
 100.839953
  H 1.349963 0.214977 0.597502
  C 2.426693 0.173032 0.487628
  C 3.240948 0.629304 1.609553
  H 2.632474 0.965207 2.444035
  C 2.896043 -0.303985 -0.695334
  C 4.296770 -0.420758 -0.990226
  C 4.735183 -0.882977 -2.147079
  C 4.545605 -1.395573 -3.430521
  C 3.070624 -1.552865 -3.825417
  H 3.030916 -1.955562 -4.834822
  O 7.159565 -0.844435 -2.053593
  H 3.907381 1.440325 1.302253
  H 3.912152 -0.163705 1.951263
  H 2.190766 -0.609155 -1.449842
  H 4.992535 -0.111432 -0.220530
  H 5.080705 -2.353143 -3.515276
  H 5.081407 -0.760036 -4.151309
  H 2.561182 -0.592684 -3.817719
  H 2.560894 -2.244097 -3.159048
  H 7.301855 -0.495423 -1.166843
 20
 104.805175
  H 1.348710 0.282141 0.767185
  C 2.413813 0.209440 0.579550
  C 3.314804 0.644918 1.647218
  H 2.766612 0.995486 2.518049
  C 2.786216 -0.284059 -0.643353
  C 4.161590 -0.433463 -1.021538
  C 4.565663 -0.890479 -2.166104
  C 4.568778 -1.405055 -3.454889
  C 3.113154 -1.600605 -3.945313
  H 3.170151 -2.002156 -4.952803
  O 7.144306 -0.817435 -1.987724
  H 3.972435 1.445959 1.297027
  H 3.978544 -0.169829 1.951345
  H 2.041706 -0.576880 -1.364821
  H 4.876954 -0.129755 -0.267304
  H 5.117170 -2.355766 -3.497248
  H 5.117272 -0.744540 -4.139965
  H 2.583176 -0.651527 -3.969537
  H 2.583470 -2.306436 -3.309967
  H 7.318784 -0.474747 -1.111110
 20
 106.710435
  H 1.340278 0.303322 0.821530
  C 2.396336 0.217274 0.599142
  C 3.342126 0.642070 1.640283
  H 2.828111 0.998327 2.527210
  C 2.720477 -0.274084 -0.619490
  C 4.093817 -0.441731 -1.044698
  C 4.479167 -0.895672 -2.180794
  C 4.582910 -1.405139 -3.455687
  C 3.128901 -1.611864 -3.972990
  H 3.210715 -2.013147 -4.979251
  O 7.214362 -0.807888 -1.963941
  H 3.993152 1.436191 1.270681
  H 4.000338 -0.180872 1.924248
  H 1.957014 -0.559928 -1.322287
  H 4.826589 -0.142799 -0.303855
  H 5.133683 -2.351487 -3.473828
  H 5.133268 -0.731152 -4.120566
  H 2.593477 -0.668068 -4.005631
  H 2.594278 -2.319525 -3.346915
  H 7.426899 -0.469401 -1.092645
 20
 107.552314
  H 1.330997 0.319045 0.860924
  C 2.381454 0.224958 0.618455
  C 3.349703 0.643311 1.642993
  H 2.852743 1.002771 2.537974
  C 2.680831 -0.269026 -0.606389
  C 4.048924 -0.445919 -1.054800
  C 4.441423 -0.897982 -2.186380
  C 4.580047 -1.409271 -3.466074
  C 3.130483 -1.622284 -3.999267
  H 3.229109 -2.022109 -5.002234
  O 7.334072 -0.799677 -1.943118
  H 3.997997 1.436244 1.262008
  H 4.005606 -0.186457 1.917824
  H 1.903877 -0.550551 -1.298178
  H 4.791452 -0.147844 -0.316172
  H 5.131194 -2.358484 -3.474320
  H 5.130701 -0.726256 -4.125723
  H 2.591037 -0.681155 -4.038871
  H 2.591887 -2.332928 -3.380230
  H 7.579874 -0.465257 -1.080785
 20
 107.857762
  H 1.324336 0.329073 0.886262
  C 2.370062 0.228636 0.627811
  C 3.358019 0.642032 1.639503
  H 2.876454 1.004141 2.541249
  C 2.648526 -0.266394 -0.599459
  C 4.007915 -0.450979 -1.067412
  C 4.399573 -0.902451 -2.197534
  C 4.577157 -1.410336 -3.468750
  C 3.131310 -1.628494 -4.015064
  H 3.243102 -2.027991 -5.017392
  O 7.449465 -0.793214 -1.926405
  H 4.002932 1.431916 1.249919
  H 4.010953 -0.191292 1.905870
  H 1.863277 -0.544072 -1.281212
  H 4.758238 -0.155529 -0.335770
  H 5.127875 -2.356326 -3.466944
  H 5.127364 -0.722756 -4.118927
  H 2.588829 -0.689646 -4.060019
  H 2.589632 -2.341159 -3.401565
  H 7.717614 -0.461127 -1.069171
 20
 107.930477
  H 1.317154 0.340389 0.913483
  C 2.358278 0.233391 0.639402
  C 3.362408 0.640347 1.635373
  H 2.895166 1.005371 2.544100
  C 2.617317 -0.263062 -0.590992
  C 3.970316 -0.455404 -1.077934
  C 4.363819 -0.906014 -2.205851
  C 4.573191 -1.412863 -3.474530
  C 3.129899 -1.635078 -4.031860
  H 3.252674 -2.034042 -5.033148
  O 7.571018 -0.785791 -1.908363
  H 4.005136 1.428080 1.236643
  H 4.012966 -0.197920 1.893688
  H 1.821491 -0.537180 -1.263982
  H 4.730260 -0.162250 -0.351974
  H 5.124412 -2.359965 -3.464625
  H 5.124100 -0.719015 -4.119519
  H 2.584666 -0.697881 -4.081748
  H 2.585097 -2.349878 -3.423271
  H 7.862668 -0.456349 -1.058025
 20
 107.962686
  H 1.309157 0.348323 0.931180
  C 2.346169 0.235939 0.645068
  C 3.365854 0.638411 1.630882
  H 2.911193 1.005619 2.544449
  C 2.589518 -0.261455 -0.587216
  C 3.935108 -0.460188 -1.089040
  C 4.330695 -0.910378 -2.215900
  C 4.567014 -1.415082 -3.479340
  C 3.126321 -1.640342 -4.045096
  H 3.257361 -2.038752 -5.045353
  O 7.695131 -0.778738 -1.892024
  H 4.006888 1.423532 1.225335
  H 4.014026 -0.203186 1.882650
  H 1.786510 -0.531876 -1.251793
  H 4.703104 -0.169830 -0.369233
  H 5.117411 -2.360784 -3.462628
  H 5.117263 -0.717606 -4.118324
  H 2.579118 -0.704966 -4.098974
  H 2.579253 -2.356501 -3.440917
  H 8.007218 -0.451255 -1.047551
