19

C 0.968447 0.139898 0.39989
C 2.446474 0.138114 0.394891
H 3.01458136197982 0.4762758376046018 1.2361998593686678
C 3.059307 -0.326368 -0.761433
C 4.438278 -0.411977 -0.975155
C 5.117422 -0.861992 -2.097132
C 4.624911 -1.385516 -3.402402
C 3.134208 -1.503992 -3.698533
H 2.9771605264440697 -1.8979778748566996 -4.6808828467771555
H 6.187344434823123 -0.8571231403070829 -2.0852039797345743
H 0.534833 0.51036 1.321889
H 0.596231 -0.872337 0.23476
H 0.59588 0.756247 -0.419717
H 2.399248 -0.643034 -1.54976
H 5.049667 -0.078472 -0.144672
H 5.081212 -2.374287 -3.527603
H 5.081559 -0.757573 -4.176195
H 2.658608 -0.523648 -3.645194
H 2.658262 -2.17557 -2.982604
