 19
 0.000000
  C -2.297695 -2.407271 -1.607054
  C -1.929524 -2.683889 -0.182921
  C -0.900892 -3.779718 -0.024979
  C -1.355860 -1.481287 0.679937
  C -1.088393 -0.236310 -0.076864
  O -1.159198 -1.647338 1.837179
  H -2.754436 -3.310603 -2.018680
  H -1.431809 -2.196453 -2.230659
  H -3.038352 -1.617997 -1.697175
  H -2.836377 -2.916930 0.388793
  H 0.040730 -3.538285 -0.516261
  H -1.280017 -4.680251 -0.511679
  H -0.702047 -3.988022 1.022572
  H -1.390135 -0.255776 -1.113633
  H -0.008398 -0.057234 -0.011884
  H -1.590588 0.574994 0.453375
  O 2.256996 -0.069083 0.006934
  H 2.904858 0.193817 0.664305
  H 2.743925 -0.504013 -0.699523
 19
 -0.331577
  C -2.257632 -2.380445 -1.601237
  C -1.888821 -2.664422 -0.180129
  C -0.878725 -3.773156 -0.024066
  C -1.285129 -1.463273 0.677757
  C -0.997353 -0.243677 -0.084788
  O -1.093402 -1.632472 1.834168
  H -2.741114 -3.273036 -2.003996
  H -1.390490 -2.196704 -2.230273
  H -2.980493 -1.575840 -1.689898
  H -2.793265 -2.868701 0.407559
  H 0.058878 -3.549867 -0.529194
  H -1.277722 -4.670021 -0.502672
  H -0.674223 -3.982353 1.021009
  H -1.315106 -0.262674 -1.127254
  H 0.076860 -0.102979 -0.023540
  H -1.479910 0.589151 0.455504
  O 1.995036 -0.125027 0.003353
  H 2.621522 0.136171 0.658290
  H 2.484236 -0.549088 -0.696158
 19
 0.709194
  C -2.244949 -2.384405 -1.591607
  C -1.860252 -2.648156 -0.175820
  C -0.838459 -3.738060 -0.018478
  C -1.249121 -1.420550 0.662082
  C -0.968478 -0.214311 -0.123669
  O -1.064023 -1.592285 1.822103
  H -2.731102 -3.286067 -1.970312
  H -1.388816 -2.205735 -2.233237
  H -2.970980 -1.586205 -1.682841
  H -2.751288 -2.845622 0.425804
  H 0.082880 -3.507283 -0.540846
  H -1.231994 -4.645118 -0.475374
  H -0.616957 -3.931906 1.023322
  H -1.272006 -0.237667 -1.144928
  H 0.110311 -0.064265 -0.049906
  H -1.430539 0.624431 0.397773
  O 1.827648 -0.246100 0.006271
  H 2.460376 0.011522 0.715775
  H 2.321619 -0.658649 -0.677686
 19
 3.767792
  C -2.247140 -2.374221 -1.591447
  C -1.859717 -2.640438 -0.166368
  C -0.841625 -3.747245 -0.019349
  C -1.224864 -1.427350 0.665655
  C -0.917963 -0.241149 -0.122163
  O -1.052860 -1.595132 1.833193
  H -2.749204 -3.269347 -1.965934
  H -1.387656 -2.205809 -2.234444
  H -2.960978 -1.561618 -1.681212
  H -2.751581 -2.830036 0.437808
  H 0.079032 -3.522424 -0.551591
  H -1.250683 -4.648961 -0.477896
  H -0.613032 -3.948110 1.022909
  H -1.218205 -0.260860 -1.152244
  H 0.231864 -0.150401 -0.053863
  H -1.352882 0.615980 0.391173
  O 1.728412 -0.218905 0.011963
  H 2.310500 0.071485 0.719937
  H 2.269653 -0.610587 -0.686129
 19
 8.500096
  C -2.244699 -2.364029 -1.591455
  C -1.868753 -2.638651 -0.156153
  C -0.861939 -3.767438 -0.016275
  C -1.220367 -1.448203 0.671995
  C -0.874764 -0.277041 -0.110391
  O -1.083356 -1.619844 1.851112
  H -2.759297 -3.255298 -1.973359
  H -1.374535 -2.202513 -2.225045
  H -2.940350 -1.540437 -1.683180
  H -2.756809 -2.829105 0.430359
  H 0.062251 -3.546820 -0.541548
  H -1.286636 -4.662025 -0.479623
  H -0.641331 -3.979557 1.026712
  H -1.142944 -0.289642 -1.155044
  H 0.353617 -0.230116 -0.005373
  H -1.274691 0.609884 0.392525
  O 1.674324 -0.154950 -0.021294
  H 2.233369 0.169599 0.698180
  H 2.214042 -0.528254 -0.725922
 19
 10.728543
  C -2.272805 -2.381838 -1.588083
  C -1.879162 -2.641015 -0.147720
  C -0.872973 -3.774733 -0.034171
  C -1.221268 -1.452227 0.661020
  C -0.856548 -0.294846 -0.107464
  O -1.100415 -1.601992 1.856431
  H -2.783492 -3.272899 -1.959680
  H -1.407358 -2.216256 -2.226202
  H -2.969861 -1.555440 -1.677117
  H -2.768341 -2.862075 0.445299
  H 0.043682 -3.547803 -0.573434
  H -1.309433 -4.666502 -0.485216
  H -0.636376 -3.987501 1.007469
  H -1.078335 -0.296494 -1.162551
  H 0.493298 -0.248142 -0.029394
  H -1.183210 0.614945 0.381751
  O 1.664135 -0.091876 -0.018524
  H 2.155045 0.220550 0.753305
  H 2.225042 -0.484716 -0.704728
 19
 10.927178
  C -2.280410 -2.383855 -1.579859
  C -1.889617 -2.643394 -0.148138
  C -0.873312 -3.790715 -0.040634
  C -1.245739 -1.452439 0.645917
  C -0.879752 -0.319132 -0.103918
  O -1.136693 -1.588767 1.853133
  H -2.780897 -3.261437 -1.952851
  H -1.421398 -2.213637 -2.207212
  H -2.982393 -1.550018 -1.665032
  H -2.783478 -2.880260 0.443643
  H 0.037354 -3.562484 -0.578661
  H -1.304191 -4.678626 -0.485221
  H -0.636842 -4.000633 0.990169
  H -1.063771 -0.324274 -1.169608
  H 0.627214 -0.244846 -0.020414
  H -1.164955 0.613195 0.389854
  O 1.683627 -0.044597 -0.034116
  H 2.145664 0.251542 0.769259
  H 2.242445 -0.464034 -0.709534
 19
 10.359579
  C -2.301536 -2.398179 -1.578697
  C -1.904890 -2.655086 -0.144841
  C -0.890134 -3.794373 -0.047026
  C -1.274175 -1.467069 0.641400
  C -0.906425 -0.333016 -0.098397
  O -1.173955 -1.598464 1.858008
  H -2.812392 -3.300163 -1.961142
  H -1.423457 -2.217414 -2.221113
  H -3.004530 -1.566126 -1.659414
  H -2.795566 -2.903304 0.446622
  H 0.020782 -3.558987 -0.595525
  H -1.327533 -4.692233 -0.492133
  H -0.641784 -4.005689 1.000285
  H -1.046899 -0.332363 -1.158928
  H 0.767860 -0.227488 -0.006984
  H -1.136548 0.597684 0.394171
  O 1.740818 0.020970 -0.040795
  H 2.172993 0.297692 0.783767
  H 2.305940 -0.410507 -0.708154
 19
 10.837973
  C -2.333186 -2.422463 -1.585715
  C -1.934041 -2.678565 -0.145420
  C -0.907960 -3.819713 -0.051313
  C -1.318773 -1.483871 0.640379
  C -0.947774 -0.343508 -0.090425
  O -1.226071 -1.599579 1.862102
  H -2.827486 -3.308842 -1.967552
  H -1.472635 -2.236595 -2.212121
  H -3.036359 -1.595107 -1.666445
  H -2.820157 -2.941250 0.439842
  H -0.001769 -3.578390 -0.599835
  H -1.336303 -4.716029 -0.492102
  H -0.656834 -4.026634 0.987292
  H -1.048938 -0.342228 -1.160073
  H 0.944509 -0.206421 0.015040
  H -1.134636 0.593968 0.402320
  O 1.843909 0.108354 -0.041053
  H 2.266545 0.372341 0.796470
  H 2.420330 -0.330374 -0.703647
 19
 11.784149
  C -2.380090 -2.451482 -1.585431
  C -1.973573 -2.706895 -0.144850
  C -0.932401 -3.828893 -0.059159
  C -1.386800 -1.513770 0.632066
  C -1.018617 -0.375132 -0.097413
  O -1.300030 -1.605421 1.857806
  H -2.865257 -3.347663 -1.972783
  H -1.523211 -2.248802 -2.213636
  H -3.089998 -1.639884 -1.658730
  H -2.860757 -2.996864 0.442374
  H -0.029859 -3.569467 -0.614345
  H -1.351901 -4.736753 -0.501039
  H -0.675220 -4.033568 0.977669
  H -1.091517 -0.367746 -1.167842
  H 1.192896 -0.206554 0.049545
  H -1.175025 0.566726 0.398556
  O 2.017644 0.215231 -0.031288
  H 2.432677 0.481680 0.814627
  H 2.626588 -0.206614 -0.679888
 19
 13.400758
  C -2.429140 -2.486163 -1.590244
  C -2.017288 -2.743003 -0.141713
  C -0.957220 -3.848201 -0.064955
  C -1.459201 -1.541955 0.637840
  C -1.084122 -0.390226 -0.096946
  O -1.375937 -1.626578 1.865641
  H -2.892597 -3.387672 -1.981269
  H -1.571936 -2.267419 -2.219164
  H -3.158114 -1.683445 -1.662341
  H -2.902890 -3.060109 0.433870
  H -0.063263 -3.566397 -0.611133
  H -1.354414 -4.752231 -0.511250
  H -0.697757 -4.055106 0.966406
  H -1.149659 -0.383610 -1.168238
  H 1.456637 -0.177377 0.080263
  H -1.230283 0.553120 0.390688
  O 2.223009 0.307484 -0.019959
  H 2.619996 0.600241 0.826551
  H 2.860457 -0.085713 -0.661829
 19
 12.950784
  C -2.468259 -2.524260 -1.594551
  C -2.078540 -2.780159 -0.141481
  C -0.992618 -3.866152 -0.070369
  C -1.535453 -1.574369 0.635761
  C -1.164653 -0.410879 -0.089696
  O -1.472692 -1.647632 1.867632
  H -2.920948 -3.432654 -2.000269
  H -1.599470 -2.293657 -2.206403
  H -3.197010 -1.726627 -1.675577
  H -2.959659 -3.121246 0.418226
  H -0.105037 -3.558117 -0.612569
  H -1.369441 -4.779550 -0.524793
  H -0.729495 -4.075023 0.962691
  H -1.213875 -0.397292 -1.160404
  H 1.772801 -0.187012 0.131361
  H -1.270486 0.526274 0.423191
  O 2.443984 0.410897 -0.020388
  H 2.830025 0.764014 0.811341
  H 3.112343 0.067578 -0.661260
 19
 12.478653
  C -2.526372 -2.565109 -1.599006
  C -2.110930 -2.818181 -0.151019
  C -1.049596 -3.926228 -0.080911
  C -1.568236 -1.614688 0.626081
  C -1.198755 -0.443932 -0.102324
  O -1.515847 -1.679220 1.860733
  H -3.010175 -3.462799 -1.985054
  H -1.666214 -2.363819 -2.228908
  H -3.236855 -1.743188 -1.673436
  H -2.993597 -3.150004 0.408954
  H -0.158576 -3.637380 -0.625534
  H -1.448462 -4.837760 -0.529499
  H -0.786892 -4.134057 0.949198
  H -1.223271 -0.429964 -1.175204
  H 2.119529 -0.120502 0.203622
  H -1.295548 0.489612 0.414700
  O 2.696109 0.559566 0.011300
  H 3.041620 0.991097 0.822880
  H 3.394813 0.283923 -0.628676
 19
 11.816233
  C -2.587012 -2.600618 -1.599124
  C -2.129031 -2.847252 -0.164926
  C -1.083268 -3.963803 -0.094181
  C -1.609909 -1.642355 0.616261
  C -1.245093 -0.472815 -0.118126
  O -1.550690 -1.708594 1.849150
  H -3.095126 -3.496204 -1.960708
  H -1.746923 -2.417841 -2.260515
  H -3.284564 -1.770835 -1.655247
  H -3.011086 -3.184187 0.404388
  H -0.187265 -3.687599 -0.648481
  H -1.494815 -4.870606 -0.529931
  H -0.819273 -4.168029 0.939172
  H -1.248843 -0.463872 -1.192354
  H 2.450951 -0.056173 0.257344
  H -1.326202 0.468697 0.388638
  O 2.952836 0.676987 0.049774
  H 3.223184 1.190179 0.840678
  H 3.692726 0.451721 -0.562795
