9

C 0.958363 -0.017704 -0.006268
C 2.454156 0.000623 0.012364
C 3.16815 0.814335 0.797639
H 4.2380203649939485 0.8265156378592643 0.8089983208008983
H 0.599064 -0.758433 -0.719829
H 0.561924 0.953126 -0.303865
H 0.560771 -0.277025 0.974949
H 2.955782 -0.689639 -0.653275
H 2.655949 1.500729 1.460974
