 9
 0.000000
  C 0.958535 -0.016568 -0.005578
  C 2.457929 0.006756 0.017550
  C 3.162503 0.809526 0.793511
  H 4.235380 0.820216 0.803786
  H 0.602016 -0.758160 -0.718258
  H 0.559181 0.952695 -0.303246
  H 0.560432 -0.274496 0.974726
  H 2.961910 -0.681953 -0.646610
  H 2.654293 1.494510 1.455807
 9
 -0.325823
  C 0.958543 -0.030630 -0.000091
  C 2.456481 -0.032757 0.050714
  C 3.155400 0.843341 0.746203
  H 4.230771 0.847326 0.790320
  H 0.594020 -0.600704 -0.846810
  H 0.584311 0.989886 -0.072932
  H 0.550683 -0.474027 0.910078
  H 2.957972 -0.806332 -0.518404
  H 2.664284 1.616010 1.312315
 9
 -0.728848
  C 0.960221 -0.039688 0.031421
  C 2.456169 -0.068752 0.088638
  C 3.159615 0.873648 0.682831
  H 4.234270 0.899659 0.747510
  H 0.600451 -0.408315 -0.927277
  H 0.602984 0.980430 0.177528
  H 0.539043 -0.672129 0.813621
  H 2.941963 -0.907886 -0.392055
  H 2.663990 1.709864 1.152647
 9
 -0.183180
  C 0.959410 -0.058241 0.078379
  C 2.450411 -0.095498 0.146573
  C 3.157624 0.916288 0.611521
  H 4.236277 0.980851 0.575660
  H 0.641327 -0.203802 -0.957687
  H 0.621901 0.932291 0.379324
  H 0.507001 -0.834477 0.683023
  H 2.931460 -0.986156 -0.236417
  H 2.664698 1.741983 1.104400
 9
 8.589477
  C 0.972831 -0.080085 0.116960
  C 2.462201 -0.140947 0.169692
  C 3.119157 0.952866 0.516818
  H 4.171969 1.146344 0.383324
  H 0.671408 -0.057008 -0.929900
  H 0.722249 0.922109 0.463800
  H 0.452323 -0.906603 0.598130
  H 2.949926 -1.059220 -0.127493
  H 2.668043 1.650204 1.207430
 9
 28.919065
  C 0.981727 -0.140783 0.133997
  C 2.467409 -0.213213 0.203289
  C 3.017448 0.976271 0.452958
  H 4.057135 1.226973 0.249955
  H 0.659539 0.102386 -0.883528
  H 0.912602 0.912644 0.471710
  H 0.379754 -0.952398 0.516753
  H 3.013772 -1.122094 0.000682
  H 2.664976 1.575759 1.274736
 9
 56.055673
  C 0.991988 -0.121495 0.119898
  C 2.469872 -0.234866 0.166501
  C 2.947191 0.992285 0.477137
  H 3.935339 1.344212 0.137978
  H 0.611613 0.132063 -0.875237
  H 1.110267 1.002672 0.370807
  H 0.426702 -0.938944 0.540152
  H 3.034152 -1.153605 0.064052
  H 2.694923 1.444276 1.415953
 9
 79.810809
  C 1.029683 -0.215830 0.101787
  C 2.430378 -0.300717 0.217957
  C 2.860464 1.017107 0.463157
  H 3.810877 1.377504 0.065375
  H 0.618161 0.223248 -0.796660
  H 1.408947 1.178543 0.355613
  H 0.388426 -1.024151 0.459674
  H 3.043622 -1.185932 0.129960
  H 2.677861 1.439595 1.441686
 9
 62.877012
  C 1.023175 -0.283431 0.076489
  C 2.371887 -0.321902 0.259336
  C 2.798510 1.070934 0.464859
  H 3.728818 1.391166 0.026452
  H 0.612576 0.205282 -0.782183
  H 1.665549 1.362190 0.348625
  H 0.378983 -1.104999 0.414660
  H 3.014731 -1.177906 0.150635
  H 2.735635 1.414240 1.503455
 9
 36.698785
  C 1.016477 -0.363131 0.098780
  C 2.337850 -0.307090 0.251938
  C 2.805920 1.087991 0.458774
  H 3.758401 1.372586 0.054470
  H 0.538177 0.253306 -0.630703
  H 1.812954 1.549436 0.230148
  H 0.403558 -1.236228 0.297694
  H 3.010260 -1.161564 0.220735
  H 2.723816 1.409844 1.505080
 9
 17.966724
  C 0.995972 -0.403741 0.061092
  C 2.305686 -0.279776 0.272552
  C 2.791209 1.119702 0.460318
  H 3.768809 1.365554 0.066954
  H 0.454979 0.276870 -0.579119
  H 1.927150 1.701165 0.145152
  H 0.450399 -1.314588 0.273304
  H 3.003881 -1.108704 0.268606
  H 2.802893 1.305123 1.536005
 9
 5.107492
  C 0.979481 -0.453625 0.016223
  C 2.252918 -0.254534 0.317264
  C 2.787059 1.131366 0.471290
  H 3.753050 1.300391 0.009399
  H 0.373358 0.293151 -0.469730
  H 2.003444 1.808674 0.135516
  H 0.522923 -1.428072 0.098685
  H 2.955768 -1.072583 0.384692
  H 2.872976 1.336836 1.541525
 9
 -0.949257
  C 0.975257 -0.490404 -0.057267
  C 2.208868 -0.220463 0.328101
  C 2.774847 1.149904 0.484133
  H 3.726691 1.233931 -0.037591
  H 0.271610 0.277198 -0.334171
  H 2.081841 1.897689 0.114149
  H 0.605954 -1.503489 -0.066336
  H 2.897535 -1.031547 0.533465
  H 2.958376 1.348784 1.540382
 9
 -1.377595
  C 0.976966 -0.495937 -0.051630
  C 2.207477 -0.226189 0.340654
  C 2.770527 1.148591 0.484107
  H 3.705318 1.234818 -0.069866
  H 0.279590 0.285796 -0.307755
  H 2.073028 1.896692 0.119286
  H 0.612242 -1.505095 -0.134950
  H 2.886477 -1.031876 0.592290
  H 2.989354 1.354804 1.532728
