 28
 0.000000
  C 0.955806 0.142228 0.412835
  C 2.429842 0.137331 0.398225
  C 3.222111 0.603019 1.557705
  C 2.461199 1.101227 2.782985
  C 3.430597 1.540073 3.876377
  C 3.038865 -0.328511 -0.763066
  C 4.421710 -0.412810 -0.974530
  C 5.093845 -0.858163 -2.087165
  C 4.630158 -1.377787 -3.385004
  C 3.148890 -1.506494 -3.706322
  H 3.024000 -1.906497 -4.705646
  H 6.174210 -0.842527 -2.048614
  H 0.534931 0.506538 1.342651
  H 0.581219 -0.867763 0.239419
  H 0.568757 0.760345 -0.399163
  H 3.884013 1.407769 1.217365
  H 3.878089 -0.216313 1.873953
  H 1.822362 0.310288 3.180182
  H 1.828010 1.949591 2.516835
  H 4.063394 0.713601 4.192167
  H 2.882009 1.893675 4.745890
  H 4.069155 2.349839 3.530344
  H 2.377048 -0.645154 -1.551869
  H 5.044117 -0.083057 -0.152078
  H 5.102487 -2.361852 -3.505085
  H 5.102497 -0.748532 -4.151062
  H 2.660570 -0.535108 -3.669543
  H 2.660705 -2.184310 -3.009458
 28
 4.294522
  C 0.933204 0.081473 0.441136
  C 2.380647 0.126236 0.406432
  C 3.203592 0.600986 1.566585
  C 2.459631 1.122954 2.797361
  C 3.450692 1.549026 3.879852
  C 3.009467 -0.331124 -0.769544
  C 4.411905 -0.399785 -0.976088
  C 5.074962 -0.839878 -2.088166
  C 4.624974 -1.366800 -3.382826
  C 3.146959 -1.512481 -3.705013
  H 3.043435 -1.918807 -4.707389
  H 6.155857 -0.800075 -2.018961
  H 0.467506 0.453032 1.333102
  H 0.512661 -0.871507 0.167188
  H 0.821326 0.750676 -0.406091
  H 3.893616 1.383099 1.224748
  H 3.844392 -0.233660 1.881724
  H 1.810118 0.348157 3.206827
  H 1.845229 1.983976 2.529199
  H 4.068383 0.710989 4.194501
  H 2.921394 1.921548 4.753792
  H 4.103880 2.341244 3.520942
  H 2.352135 -0.654042 -1.565379
  H 5.043681 -0.072820 -0.167818
  H 5.119453 -2.341124 -3.504260
  H 5.102612 -0.740963 -4.150075
  H 2.641612 -0.550908 -3.686806
  H 2.658745 -2.199941 -3.019679
 28
 13.427189
  C 0.940194 0.041889 0.489874
  C 2.379697 0.113378 0.412037
  C 3.195309 0.596301 1.554615
  C 2.449509 1.121410 2.762627
  C 3.431599 1.547935 3.848984
  C 3.022451 -0.339191 -0.776228
  C 4.410517 -0.398624 -0.976639
  C 5.083237 -0.835721 -2.097938
  C 4.622073 -1.358933 -3.381729
  C 3.145079 -1.499956 -3.673535
  H 3.019823 -1.903452 -4.667386
  H 6.157763 -0.798295 -2.049653
  H 0.456811 0.420086 1.393546
  H 0.480348 -0.840092 0.135721
  H 1.040959 0.769746 -0.320488
  H 3.894470 1.371184 1.219280
  H 3.816634 -0.247869 1.869059
  H 1.796051 0.353185 3.168758
  H 1.844340 1.981851 2.482983
  H 4.042217 0.708749 4.172882
  H 2.895950 1.927130 4.714687
  H 4.091292 2.334410 3.491567
  H 2.381849 -0.667022 -1.580685
  H 5.029383 -0.070346 -0.162226
  H 5.108400 -2.333409 -3.511017
  H 5.082866 -0.732621 -4.155047
  H 2.644821 -0.533960 -3.644821
  H 2.671532 -2.187914 -2.976105
 28
 21.177805
  C 0.917714 0.013178 0.519436
  C 2.350704 0.121618 0.406343
  C 3.182094 0.604744 1.547701
  C 2.451455 1.134213 2.781318
  C 3.453752 1.552709 3.850428
  C 2.989117 -0.331389 -0.779098
  C 4.382624 -0.387397 -0.976223
  C 5.062536 -0.821231 -2.081783
  C 4.631462 -1.360174 -3.380603
  C 3.158167 -1.523418 -3.713251
  H 3.066925 -1.939800 -4.716885
  H 6.145931 -0.770937 -2.010812
  H 0.444662 0.367300 1.404013
  H 0.411980 -0.823098 0.069589
  H 1.183939 0.808869 -0.226855
  H 3.884651 1.373403 1.205721
  H 3.792570 -0.255763 1.848381
  H 1.801935 0.365723 3.200012
  H 1.845089 2.000859 2.517460
  H 4.066511 0.709480 4.159556
  H 2.936316 1.931360 4.727839
  H 4.110552 2.337707 3.483055
  H 2.342976 -0.665297 -1.573234
  H 5.003287 -0.055464 -0.159543
  H 5.132037 -2.329595 -3.490182
  H 5.103561 -0.730963 -4.145194
  H 2.645870 -0.568002 -3.707657
  H 2.674695 -2.211176 -3.028011
 28
 26.835019
  C 0.940452 -0.006468 0.533337
  C 2.358978 0.125771 0.405486
  C 3.191686 0.607008 1.548665
  C 2.449010 1.126361 2.769471
  C 3.438226 1.556755 3.842616
  C 2.999493 -0.331087 -0.785468
  C 4.374082 -0.382812 -0.977128
  C 5.058747 -0.817861 -2.084356
  C 4.626934 -1.364999 -3.387631
  C 3.150877 -1.530927 -3.710151
  H 3.053960 -1.950345 -4.708621
  H 6.137956 -0.760748 -2.010101
  H 0.448672 0.321163 1.438047
  H 0.408715 -0.770147 -0.024132
  H 1.330815 0.850948 -0.126606
  H 3.890587 1.375218 1.214708
  H 3.794825 -0.251053 1.852288
  H 1.808057 0.350718 3.183416
  H 1.833829 1.984088 2.502068
  H 4.059159 0.722294 4.155348
  H 2.911656 1.928708 4.715948
  H 4.086977 2.348689 3.479516
  H 2.352542 -0.669827 -1.571508
  H 4.995225 -0.044552 -0.161339
  H 5.128525 -2.335787 -3.495731
  H 5.093427 -0.736108 -4.157222
  H 2.636749 -0.574545 -3.705630
  H 2.671984 -2.217551 -3.018410
 28
 29.573793
  C 0.937119 -0.037322 0.542371
  C 2.350458 0.125172 0.407091
  C 3.193307 0.607111 1.554733
  C 2.445820 1.122606 2.781647
  C 3.436987 1.579926 3.850240
  C 2.993035 -0.337114 -0.796350
  C 4.372542 -0.391972 -0.989595
  C 5.059442 -0.828067 -2.096031
  C 4.631124 -1.373199 -3.398087
  C 3.157878 -1.534700 -3.722515
  H 3.062669 -1.952330 -4.715167
  H 6.134915 -0.774939 -2.019928
  H 0.439668 0.224895 1.457621
  H 0.389060 -0.683909 -0.129136
  H 1.432951 0.904753 -0.007959
  H 3.880181 1.382616 1.215466
  H 3.806189 -0.245446 1.859229
  H 1.822594 0.335402 3.205695
  H 1.811163 1.968693 2.514120
  H 4.076703 0.759257 4.163254
  H 2.909238 1.946532 4.726068
  H 4.068365 2.382564 3.478827
  H 2.337963 -0.674008 -1.583959
  H 4.994537 -0.056312 -0.172373
  H 5.127851 -2.344753 -3.503904
  H 5.098840 -0.746409 -4.165348
  H 2.646896 -0.576150 -3.719945
  H 2.676158 -2.219875 -3.030948
 28
 33.190922
  C 0.934171 -0.062949 0.545991
  C 2.342645 0.123053 0.396025
  C 3.196211 0.605771 1.552460
  C 2.453115 1.111793 2.760602
  C 3.443465 1.586501 3.830226
  C 2.983803 -0.332450 -0.791505
  C 4.356413 -0.392114 -0.978813
  C 5.049839 -0.828266 -2.079737
  C 4.628901 -1.370345 -3.386964
  C 3.165047 -1.524512 -3.718952
  H 3.075995 -1.940775 -4.714645
  H 6.125455 -0.779296 -1.996693
  H 0.440365 0.173919 1.479249
  H 0.370259 -0.654362 -0.176529
  H 1.516664 0.915486 0.049915
  H 3.881012 1.393597 1.207177
  H 3.817398 -0.242601 1.865385
  H 1.843141 0.322618 3.182769
  H 1.811094 1.943734 2.488681
  H 4.089679 0.780624 4.145156
  H 2.916713 1.948355 4.699760
  H 4.062011 2.389707 3.458961
  H 2.344949 -0.657536 -1.569701
  H 4.965656 -0.065110 -0.169020
  H 5.119289 -2.340246 -3.491944
  H 5.098628 -0.748853 -4.145414
  H 2.655599 -0.556196 -3.718402
  H 2.674940 -2.214619 -3.026863
 28
 36.015507
  C 0.933416 -0.079660 0.555066
  C 2.339897 0.133684 0.402458
  C 3.194193 0.605727 1.552371
  C 2.448047 1.118434 2.780935
  C 3.438719 1.595082 3.837496
  C 2.990998 -0.331775 -0.806511
  C 4.366493 -0.391325 -0.985804
  C 5.062742 -0.832443 -2.089796
  C 4.638438 -1.375757 -3.396154
  C 3.159155 -1.528621 -3.726436
  H 3.063279 -1.947937 -4.726740
  H 6.145148 -0.784097 -2.005557
  H 0.437640 0.141817 1.473371
  H 0.376565 -0.617092 -0.188110
  H 1.574767 0.931734 0.088966
  H 3.869017 1.386920 1.203118
  H 3.814913 -0.239162 1.857914
  H 1.839819 0.323563 3.214843
  H 1.798116 1.954137 2.514628
  H 4.094808 0.783069 4.150073
  H 2.911366 1.959418 4.718211
  H 4.057133 2.407369 3.455353
  H 2.329665 -0.664874 -1.610299
  H 4.988933 -0.055119 -0.155019
  H 5.130306 -2.352242 -3.500423
  H 5.113807 -0.749416 -4.163493
  H 2.654546 -0.567349 -3.724369
  H 2.671391 -2.211356 -3.036534
 28
 38.459425
  C 0.940798 -0.093992 0.562884
  C 2.344350 0.150026 0.400571
  C 3.205957 0.610899 1.556024
  C 2.451838 1.113798 2.771568
  C 3.438095 1.597990 3.847058
  C 2.988656 -0.320374 -0.806764
  C 4.356688 -0.382245 -0.988932
  C 5.054312 -0.828871 -2.091131
  C 4.635282 -1.378807 -3.397224
  C 3.164631 -1.535553 -3.734155
  H 3.076592 -1.956313 -4.725739
  H 6.142608 -0.779906 -2.004305
  H 0.438596 0.125494 1.483180
  H 0.375501 -0.603375 -0.209344
  H 1.635175 0.948172 0.105396
  H 3.884474 1.401194 1.209439
  H 3.831574 -0.241315 1.863845
  H 1.846401 0.317937 3.194553
  H 1.801941 1.940766 2.501582
  H 4.093068 0.794602 4.162463
  H 2.903816 1.955460 4.720088
  H 4.052320 2.410575 3.475423
  H 2.318169 -0.652695 -1.604070
  H 4.974042 -0.046319 -0.169548
  H 5.129084 -2.355936 -3.494366
  H 5.112100 -0.755959 -4.163630
  H 2.657282 -0.573470 -3.739444
  H 2.673717 -2.217621 -3.042642
 28
 40.407034
  C 0.938233 -0.109838 0.565691
  C 2.336874 0.177999 0.395852
  C 3.207784 0.616899 1.559396
  C 2.455703 1.115713 2.786736
  C 3.440539 1.588551 3.853129
  C 2.991619 -0.309591 -0.824281
  C 4.360176 -0.365723 -1.004354
  C 5.059461 -0.820475 -2.099774
  C 4.642378 -1.385839 -3.399345
  C 3.169119 -1.552047 -3.733822
  H 3.080350 -1.985101 -4.724501
  H 6.139911 -0.767256 -2.013628
  H 0.423299 0.111538 1.485865
  H 0.373944 -0.583029 -0.223771
  H 1.675981 0.994939 0.102856
  H 3.884240 1.401440 1.222321
  H 3.823082 -0.234872 1.854812
  H 1.847799 0.313387 3.211110
  H 1.801283 1.951269 2.523822
  H 4.098657 0.778132 4.160579
  H 2.908078 1.941850 4.733630
  H 4.055655 2.406040 3.481250
  H 2.326780 -0.644584 -1.608674
  H 4.977488 -0.015432 -0.184449
  H 5.139254 -2.360624 -3.486151
  H 5.116450 -0.769281 -4.172601
  H 2.659988 -0.595661 -3.748092
  H 2.683506 -2.225443 -3.037194
 28
 42.035924
  C 0.943217 -0.132338 0.561852
  C 2.341097 0.187448 0.386188
  C 3.212247 0.616363 1.555961
  C 2.452528 1.119403 2.790670
  C 3.429656 1.587638 3.854669
  C 3.000480 -0.302837 -0.827157
  C 4.381634 -0.359572 -1.008962
  C 5.076519 -0.818817 -2.104960
  C 4.647561 -1.386196 -3.397106
  C 3.157840 -1.546257 -3.716200
  H 3.053671 -1.987264 -4.715253
  H 6.151169 -0.769059 -2.024631
  H 0.430041 0.089365 1.471920
  H 0.386664 -0.593772 -0.232438
  H 1.729646 1.011219 0.088920
  H 3.902532 1.408472 1.218671
  H 3.823362 -0.242748 1.851192
  H 1.846509 0.323505 3.211535
  H 1.803209 1.952653 2.528361
  H 4.082358 0.779699 4.161355
  H 2.898133 1.939204 4.729488
  H 4.043785 2.400625 3.486451
  H 2.346926 -0.634173 -1.600858
  H 4.994519 -0.010572 -0.200677
  H 5.140946 -2.364694 -3.485338
  H 5.119898 -0.773038 -4.178640
  H 2.646911 -0.573084 -3.727729
  H 2.669248 -2.224059 -3.000406
 28
 43.218479
  C 0.938793 -0.146379 0.572063
  C 2.330135 0.205620 0.385277
  C 3.209051 0.618130 1.558683
  C 2.455356 1.118598 2.785882
  C 3.447789 1.590421 3.870223
  C 2.988987 -0.294046 -0.830791
  C 4.366183 -0.349145 -1.012881
  C 5.060964 -0.810701 -2.101471
  C 4.640996 -1.390376 -3.402394
  C 3.179331 -1.560184 -3.736311
  H 3.093149 -2.006525 -4.734429
  H 6.145147 -0.756409 -2.014147
  H 0.422035 0.080604 1.490097
  H 0.380907 -0.594214 -0.228399
  H 1.765257 1.043930 0.084977
  H 3.899129 1.400427 1.228069
  H 3.807457 -0.241341 1.847992
  H 1.845115 0.323531 3.202558
  H 1.806314 1.953233 2.521250
  H 4.108462 0.768925 4.182010
  H 2.908633 1.946837 4.757200
  H 4.073044 2.413134 3.500786
  H 2.335238 -0.626500 -1.599507
  H 4.985048 0.009236 -0.198564
  H 5.136499 -2.359823 -3.481795
  H 5.112316 -0.784743 -4.175356
  H 2.668728 -0.601642 -3.758795
  H 2.693762 -2.229580 -3.032904
 28
 42.705680
  C 0.946299 -0.165704 0.582076
  C 2.324602 0.236591 0.380338
  C 3.209913 0.619883 1.565153
  C 2.458086 1.123237 2.794491
  C 3.448324 1.580201 3.874994
  C 2.996605 -0.283239 -0.845850
  C 4.368477 -0.327036 -1.025853
  C 5.067025 -0.799544 -2.113344
  C 4.648501 -1.394290 -3.400613
  C 3.180409 -1.572568 -3.731164
  H 3.093232 -2.030349 -4.720708
  H 6.148732 -0.742445 -2.027045
  H 0.426114 0.068909 1.494311
  H 0.386598 -0.611379 -0.219933
  H 1.819068 1.112396 0.058971
  H 3.910403 1.393819 1.247029
  H 3.794127 -0.256033 1.850905
  H 1.839764 0.330965 3.209508
  H 1.818310 1.963020 2.533077
  H 4.095123 0.760466 4.180318
  H 2.916720 1.934087 4.754831
  H 4.074605 2.391697 3.512173
  H 2.335779 -0.626410 -1.613989
  H 4.986352 0.043962 -0.213414
  H 5.150180 -2.367375 -3.469490
  H 5.121694 -0.792948 -4.187251
  H 2.666105 -0.615224 -3.765016
  H 2.696439 -2.234538 -3.018532
 28
 43.669482
  C 0.957401 -0.181723 0.585630
  C 2.331529 0.248585 0.375096
  C 3.218320 0.619985 1.568253
  C 2.465589 1.124079 2.784410
  C 3.454037 1.576268 3.872592
  C 2.995568 -0.272415 -0.836423
  C 4.363954 -0.318298 -1.019428
  C 5.064439 -0.794001 -2.110514
  C 4.653449 -1.389499 -3.390582
  C 3.179113 -1.578289 -3.732712
  H 3.101045 -2.037593 -4.722613
  H 6.139356 -0.733002 -2.025005
  H 0.438381 0.052658 1.495154
  H 0.397305 -0.630843 -0.220189
  H 1.872687 1.126958 0.051604
  H 3.930037 1.394536 1.255899
  H 3.794039 -0.262961 1.856487
  H 1.832906 0.325326 3.198676
  H 1.821900 1.979681 2.511874
  H 4.099765 0.746779 4.184240
  H 2.914750 1.935909 4.756640
  H 4.091688 2.390188 3.511399
  H 2.330560 -0.617717 -1.606901
  H 4.973300 0.052683 -0.223507
  H 5.162937 -2.361148 -3.455849
  H 5.127473 -0.787852 -4.172903
  H 2.658168 -0.624138 -3.770842
  H 2.691713 -2.246233 -3.020116
