 17
 0.000000
  H 1.433893 -0.076841 0.037208
  C 2.507034 -0.084338 0.022491
  C 3.218077 -0.595685 -0.981370
  C 4.655773 -0.606023 -1.001664
  C 5.379872 -1.120144 -2.010964
  C 6.817821 -1.129389 -2.029112
  C 7.533940 -1.641084 -3.033663
  C 9.022977 -1.662023 -3.074763
  H 3.005646 0.350456 0.876067
  H 2.706205 -1.028716 -1.831470
  H 5.157974 -0.170802 -0.147256
  H 4.878067 -1.555487 -2.865620
  H 7.325205 -0.695393 -1.177104
  H 7.033544 -2.076733 -3.888899
  H 9.457734 -1.209326 -2.186049
  H 9.381190 -1.117064 -3.949069
  H 9.381190 -2.689649 -3.148024
 17
 1.528659
  H 1.429429 -0.222712 0.050076
  C 2.504213 -0.228911 0.069701
  C 3.229059 -0.436961 -1.025486
  C 4.668668 -0.492247 -1.047968
  C 5.377052 -1.005183 -2.068386
  C 6.812392 -1.036394 -2.101242
  C 7.535927 -1.705049 -3.001739
  C 9.023970 -1.697854 -3.067219
  H 2.967538 -0.041222 1.024241
  H 2.734617 -0.623320 -1.970891
  H 5.180798 -0.164982 -0.152281
  H 4.861185 -1.494184 -2.883428
  H 7.309059 -0.390067 -1.385976
  H 7.036833 -2.323804 -3.736292
  H 9.447982 -1.080395 -2.279417
  H 9.357277 -1.314908 -4.032653
  H 9.412268 -2.713051 -2.968066
 17
 21.454721
  H 1.654976 0.237066 0.179182
  C 2.710663 0.039292 0.110711
  C 3.290415 -0.302442 -1.040362
  C 4.664641 -0.704522 -1.166012
  C 5.186143 -1.390702 -2.222085
  C 6.613524 -1.396975 -2.261945
  C 7.559640 -1.725515 -3.148677
  C 9.014307 -1.525905 -2.903076
  H 3.272081 0.102764 1.028497
  H 2.703809 -0.326923 -1.947287
  H 5.219859 -0.668285 -0.235854
  H 4.598004 -2.065575 -2.823025
  H 6.929063 -0.677737 -1.487292
  H 7.296452 -2.060981 -4.146379
  H 9.197151 -1.184322 -1.884985
  H 9.432457 -0.809528 -3.611042
  H 9.542779 -2.470665 -3.047902
 17
 51.095160
  H 1.929756 0.464426 0.330925
  C 2.934717 0.113157 0.178153
  C 3.368689 -0.279632 -1.025506
  C 4.667696 -0.795733 -1.296740
  C 5.048777 -1.616830 -2.362749
  C 6.444797 -1.485633 -2.572270
  C 7.576314 -1.724718 -3.263143
  C 8.926156 -1.447497 -2.703230
  H 3.576130 0.115180 1.035369
  H 2.713092 -0.221174 -1.877733
  H 5.287892 -0.834057 -0.406603
  H 4.452153 -2.436487 -2.728598
  H 6.572670 -0.558201 -1.915112
  H 7.557502 -2.017158 -4.306946
  H 8.860188 -1.142410 -1.659816
  H 9.445218 -0.680006 -3.276162
  H 9.521203 -2.364875 -2.753276
 17
 51.859198
  H 1.945227 0.480179 0.146192
  C 2.967259 0.125558 0.059166
  C 3.498994 -0.224634 -1.098738
  C 4.877393 -0.787286 -1.199817
  C 5.199385 -1.748188 -2.267893
  C 6.453165 -1.606324 -2.562846
  C 7.544119 -1.684583 -3.292005
  C 8.936185 -1.574110 -2.744605
  H 3.546174 0.117396 0.958985
  H 2.918424 -0.146533 -2.014061
  H 5.304613 -1.055032 -0.231955
  H 4.533277 -2.586369 -2.509214
  H 5.786727 -0.105869 -1.389495
  H 7.472581 -1.668284 -4.369231
  H 8.941386 -1.554424 -1.657363
  H 9.436393 -0.673447 -3.132747
  H 9.534319 -2.416528 -3.084095
 17
 33.103336
  H -nan -nan -nan
  C -nan -nan -nan
  C -nan -nan -nan
  C -nan -nan -nan
  C -nan -nan -nan
  C -nan -nan -nan
  C -nan -nan -nan
  C -nan -nan -nan
  H -nan -nan -nan
  H -nan -nan -nan
  H -nan -nan -nan
  H -nan -nan -nan
  H -nan -nan -nan
  H -nan -nan -nan
  H -nan -nan -nan
  H -nan -nan -nan
  H -nan -nan -nan
 17
 57.033776
  H 2.148022 -0.161414 0.466769
  C 3.187737 -0.237705 0.207360
  C 3.600577 -0.252900 -1.052105
  C 5.037391 -0.344777 -1.451164
  C 5.058163 -1.173460 -2.754581
  C 6.337944 -1.410095 -2.909061
  C 7.511650 -1.802411 -3.320046
  C 8.773667 -1.771440 -2.513761
  H 3.888216 -0.294674 1.032385
  H 2.893345 -0.118374 -1.862163
  H 5.528785 -0.870475 -0.623485
  H 4.461998 -2.072292 -2.609340
  H 5.584264 0.600470 -1.611111
  H 7.649987 -1.948323 -4.390776
  H 8.564991 -1.529037 -1.471304
  H 9.445852 -1.017418 -2.920699
  H 9.292864 -2.734647 -2.558760
 17
 89.591080
  H 2.639082 -0.217932 0.481637
  C 3.638129 -0.373619 0.128413
  C 3.919104 -0.357896 -1.160435
  C 5.344244 -0.472011 -1.660703
  C 4.711614 -1.177530 -3.161710
  C 6.022475 -1.329304 -2.919902
  C 7.258228 -1.770253 -3.108939
  C 8.440273 -1.561356 -2.208507
  H 4.403179 -0.534352 0.887291
  H 3.150352 -0.150130 -1.904511
  H 5.905917 -0.968647 -0.870925
  H 4.084463 -2.040434 -2.983521
  H 5.737928 0.525930 -1.825408
  H 7.468373 -2.186174 -4.088065
  H 8.151133 -1.077717 -1.270735
  H 9.196798 -0.941175 -2.686631
  H 8.905193 -2.528184 -1.986398
 17
 88.852343
  H 2.471016 -0.301946 -0.005419
  C 3.541896 -0.412331 -0.090271
  C 4.175101 -0.509174 -1.245646
  C 5.650866 -0.407572 -1.354785
  C 4.498870 -1.224096 -2.920547
  C 5.909141 -1.241312 -2.617798
  C 7.076781 -1.705046 -3.037702
  C 8.376907 -1.575820 -2.298256
  H 4.111342 -0.436692 0.839740
  H 3.745927 -0.363814 -2.405089
  H 6.272364 -0.751073 -0.528428
  H 3.892791 -2.099986 -2.796037
  H 5.932264 0.605349 -1.501308
  H 7.148916 -2.106809 -4.031045
  H 8.252237 -1.131125 -1.317628
  H 9.083678 -0.971533 -2.868311
  H 8.839385 -2.564732 -2.176685
 17
 2.922060
  H 2.369309 -0.401457 -0.321823
  C 3.442565 -0.386342 -0.182093
  C 4.296059 -0.598961 -1.164479
  C 5.788781 -0.438542 -1.064988
  C 4.428470 -1.233282 -2.525042
  C 5.930013 -1.234856 -2.342199
  C 6.996677 -1.717912 -2.949938
  C 8.403270 -1.543095 -2.475623
  H 3.791077 -0.158152 0.815877
  H 4.010524 -0.567889 -3.266088
  H 6.413701 -0.747940 -0.228377
  H 3.843083 -2.147973 -2.486038
  H 6.070355 0.607674 -1.245961
  H 6.893004 -2.197749 -3.908773
  H 8.435091 -1.053137 -1.501061
  H 8.961243 -0.933967 -3.193576
  H 8.899551 -2.504159 -2.396677
 17
 0.754744
  H 2.470687 -0.788547 -0.186470
  C 3.474589 -0.410348 -0.138505
  C 4.337704 -0.588340 -1.108976
  C 5.770499 -0.158709 -1.263305
  C 4.417477 -1.366277 -2.399648
  C 5.918089 -1.226212 -2.303626
  C 6.991186 -1.800079 -2.843919
  C 8.406498 -1.491042 -2.461695
  H 3.731982 0.164559 0.735067
  H 4.032084 -0.774584 -3.208914
  H 6.486227 -0.116531 -0.443071
  H 3.856673 -2.288224 -2.479594
  H 5.798589 0.838702 -1.765542
  H 6.865021 -2.628374 -3.532278
  H 8.450356 -0.961050 -1.512927
  H 8.993554 -1.052583 -3.260679
  H 8.877595 -2.454929 -2.204045
