 19
 0.000000
  C 0.994216 0.160202 0.449398
  C 2.453347 0.123058 0.356835
  H 3.043078 0.460597 1.197174
  C 3.051116 -0.339150 -0.794057
  C 4.438850 -0.417743 -0.990283
  C 5.100497 -0.867753 -2.112033
  C 4.628456 -1.383932 -3.398535
  C 3.151578 -1.514804 -3.725042
  H 3.043152 -1.917462 -4.728691
  H 6.183493 -0.851737 -2.072279
  H 0.641616 0.543052 1.402882
  H 0.582287 -0.839571 0.292559
  H 0.582115 0.773902 -0.355220
  H 2.393103 -0.657535 -1.586527
  H 5.057741 -0.086373 -0.164810
  H 5.108458 -2.365364 -3.524782
  H 5.108726 -0.762130 -4.168187
  H 2.655070 -0.547547 -3.699889
  H 2.654928 -2.196433 -3.038376
 19
 -0.174489
  C 0.991389 0.207026 0.495681
  C 2.432551 0.154512 0.276609
  H 3.072635 0.733936 0.929169
  C 3.002958 -0.534946 -0.766544
  C 4.393705 -0.530355 -0.975429
  C 5.095373 -0.949029 -2.081975
  C 4.654800 -1.361094 -3.412739
  C 3.181095 -1.451336 -3.760363
  H 3.076905 -1.682323 -4.817814
  H 6.174585 -0.917143 -1.988969
  H 0.727233 0.747408 1.397778
  H 0.570156 -0.800138 0.519124
  H 0.501364 0.684500 -0.358010
  H 2.358187 -1.091651 -1.426904
  H 4.985648 -0.123272 -0.163487
  H 5.143838 -2.325794 -3.618042
  H 5.159192 -0.690795 -4.124404
  H 2.673419 -0.508447 -3.572645
  H 2.690837 -2.244388 -3.202450
 19
 1.592557
  C 1.004550 0.193607 0.384690
  C 2.447005 0.160013 0.160618
  H 3.048364 0.945568 0.600462
  C 3.055822 -0.737782 -0.677415
  C 4.448715 -0.700020 -0.912615
  C 5.133995 -1.022406 -2.054077
  C 4.640306 -1.307430 -3.401993
  C 3.148722 -1.374336 -3.666452
  H 2.974640 -1.471999 -4.734826
  H 6.213495 -0.977739 -1.991860
  H 0.727093 0.890932 1.168005
  H 0.620980 -0.805213 0.599447
  H 0.492300 0.497826 -0.533075
  H 2.450319 -1.486740 -1.164028
  H 5.043995 -0.301961 -0.096376
  H 5.115472 -2.249505 -3.716699
  H 5.106011 -0.570119 -4.070962
  H 2.650072 -0.468784 -3.323308
  H 2.697808 -2.234463 -3.178512
 19
 5.096875
  C 1.018452 0.199642 0.249551
  C 2.460717 0.156642 0.007042
  H 3.035981 1.040728 0.251574
  C 3.098325 -0.881714 -0.606316
  C 4.501573 -0.846721 -0.854069
  C 5.156087 -1.025557 -2.033513
  C 4.603687 -1.208376 -3.380175
  C 3.100800 -1.278351 -3.556640
  H 2.859213 -1.334604 -4.614958
  H 6.236090 -0.951951 -2.009537
  H 0.740045 1.035424 0.883227
  H 0.667567 -0.743049 0.671227
  H 0.478132 0.307593 -0.695751
  H 2.524194 -1.742668 -0.920731
  H 5.106190 -0.538825 -0.006185
  H 5.059295 -2.130421 -3.772791
  H 5.028863 -0.426154 -4.022361
  H 2.623233 -0.388941 -3.148080
  H 2.683075 -2.155048 -3.072175
 19
 9.220698
  C 1.031013 0.192530 0.092702
  C 2.474399 0.139187 -0.156820
  H 3.023179 1.071993 -0.119801
  C 3.142006 -0.985978 -0.535639
  C 4.551428 -0.961647 -0.820163
  C 5.177978 -1.036783 -2.010528
  C 4.562410 -1.105439 -3.347529
  C 3.051821 -1.153003 -3.426125
  H 2.736035 -1.171986 -4.466719
  H 6.258069 -0.980487 -2.016792
  H 0.743515 1.120723 0.576663
  H 0.703413 -0.670781 0.672453
  H 0.476891 0.133097 -0.848799
  H 2.609233 -1.926631 -0.609405
  H 5.170967 -0.755042 0.049576
  H 4.977713 -2.008782 -3.819098
  H 4.956555 -0.278543 -3.949324
  H 2.617883 -0.264786 -2.966374
  H 2.654770 -2.035465 -2.936170
 19
 13.022577
  C 1.024745 0.147408 -0.047605
  C 2.463535 0.116764 -0.306742
  H 2.978744 1.063870 -0.408223
  C 3.179253 -1.030723 -0.484050
  C 4.591134 -1.043715 -0.798795
  C 5.211047 -1.056383 -1.979989
  C 4.549521 -1.066738 -3.315568
  C 3.039654 -0.993771 -3.319060
  H 2.666995 -1.019280 -4.342100
  H 6.291139 -1.060822 -2.012170
  H 0.703076 1.116101 0.323053
  H 0.728126 -0.652501 0.632080
  H 0.470045 -0.047646 -0.971993
  H 2.704624 -1.991155 -0.313698
  H 5.211336 -1.029581 0.096765
  H 4.879309 -1.985347 -3.818162
  H 4.968430 -0.238282 -3.894986
  H 2.698488 -0.059567 -2.876563
  H 2.604736 -1.839406 -2.791600
 19
 9.980149
  C 1.014341 0.150598 -0.096368
  C 2.449999 0.096820 -0.369122
  H 2.964665 1.035116 -0.531733
  C 3.180287 -1.050339 -0.441275
  C 4.581620 -1.101168 -0.758446
  C 5.202792 -1.037897 -1.948303
  C 4.562201 -1.035339 -3.284875
  C 3.050624 -0.932628 -3.332012
  H 2.713789 -0.961910 -4.367123
  H 6.284047 -1.047272 -1.977143
  H 0.697243 1.141688 0.215671
  H 0.716038 -0.598414 0.637646
  H 0.460309 -0.105372 -1.005716
  H 2.730357 -1.993338 -0.139311
  H 5.202435 -1.274759 0.117496
  H 4.897453 -1.939876 -3.806347
  H 5.007294 -0.199849 -3.840265
  H 2.704960 -0.000297 -2.898604
  H 2.586823 -1.774495 -2.815366
 19
 7.477579
  C 1.016899 0.174534 -0.157030
  C 2.444976 0.061968 -0.453979
  H 2.976239 0.970213 -0.709531
  C 3.163914 -1.094106 -0.387578
  C 4.554329 -1.167294 -0.708340
  C 5.181090 -0.988640 -1.893700
  C 4.574038 -0.966213 -3.239317
  C 3.063254 -0.910969 -3.345299
  H 2.773330 -0.948742 -4.393313
  H 6.262751 -0.958776 -1.903360
  H 0.724481 1.198692 0.050304
  H 0.721735 -0.482385 0.660610
  H 0.439594 -0.170011 -1.021400
  H 2.713117 -1.986009 0.032874
  H 5.177480 -1.465030 0.133155
  H 4.957798 -1.843874 -3.773914
  H 5.014306 -0.110732 -3.768482
  H 2.667094 0.005294 -2.922189
  H 2.605988 -1.766297 -2.848892
 19
 6.079810
  C 1.032780 0.205876 -0.205350
  C 2.450709 0.027081 -0.513902
  H 2.998056 0.898762 -0.850792
  C 3.154162 -1.129496 -0.338731
  C 4.531921 -1.230457 -0.673779
  C 5.154415 -0.938404 -1.846430
  C 4.570993 -0.880379 -3.198261
  C 3.062750 -0.906282 -3.358865
  H 2.817367 -0.936923 -4.418184
  H 6.235052 -0.865689 -1.845209
  H 0.766400 1.253049 -0.107284
  H 0.741026 -0.350220 0.685402
  H 0.430180 -0.220148 -1.014319
  H 2.696674 -1.970143 0.167555
  H 5.160540 -1.616408 0.125167
  H 5.013105 -1.720027 -3.751509
  H 4.987869 0.006617 -3.693698
  H 2.596233 -0.024273 -2.935092
  H 2.635585 -1.794570 -2.895935
 19
 5.108666
  C 1.057397 0.241133 -0.220502
  C 2.456822 0.001929 -0.556020
  H 3.009303 0.827945 -0.984573
  C 3.149500 -1.148697 -0.293614
  C 4.506711 -1.290732 -0.660067
  C 5.123762 -0.906152 -1.817170
  C 4.559588 -0.799926 -3.170673
  C 3.059991 -0.913562 -3.381992
  H 2.853960 -0.934120 -4.449984
  H 6.203300 -0.810078 -1.802512
  H 0.810724 1.296335 -0.229177
  H 0.792004 -0.208246 0.735422
  H 0.418395 -0.260914 -0.953403
  H 2.697248 -1.927329 0.305969
  H 5.137742 -1.765976 0.086860
  H 5.059448 -1.591879 -3.747597
  H 4.944236 0.123092 -3.623791
  H 2.521118 -0.073856 -2.958436
  H 2.673816 -1.835487 -2.951346
 19
 4.935783
  C 1.073349 0.274913 -0.188079
  C 2.452833 0.029839 -0.599432
  H 2.984485 0.805807 -1.133480
  C 3.147476 -1.108178 -0.271431
  C 4.480768 -1.304616 -0.667343
  C 5.099722 -0.870728 -1.811110
  C 4.556395 -0.748986 -3.169591
  C 3.073291 -0.960582 -3.421783
  H 2.899670 -0.993773 -4.494577
  H 6.177519 -0.753920 -1.774348
  H 0.811626 1.327514 -0.233951
  H 0.872571 -0.131837 0.802344
  H 0.396764 -0.262948 -0.860501
  H 2.709318 -1.819031 0.415580
  H 5.105629 -1.839965 0.042337
  H 5.114796 -1.498673 -3.750437
  H 4.897547 0.201212 -3.599395
  H 2.464178 -0.161182 -3.016125
  H 2.737456 -1.904765 -2.998728
