 20
 0.000000
  C 1.008576 -0.070301 0.050050
  C 2.504770 -0.082848 0.025419
  C 3.217745 -0.596495 -0.982962
  C 4.655220 -0.607987 -1.005519
  C 5.376238 -1.122852 -2.016285
  C 6.814460 -1.131547 -2.033354
  C 7.535051 -1.642514 -3.036472
  C 9.025080 -1.660429 -3.071633
  H 0.648741 0.396313 0.966087
  H 0.611901 -1.084717 0.012111
  H 0.611901 0.495447 -0.792809
  H 3.007489 0.352037 0.879174
  H 2.704477 -1.029422 -1.832859
  H 5.159941 -0.173118 -0.151804
  H 4.873290 -1.558090 -2.870729
  H 7.319320 -0.696605 -1.179490
  H 7.037575 -2.079113 -3.893573
  H 9.456683 -1.206807 -2.181101
  H 9.385471 -1.114083 -3.944676
  H 9.385469 -2.687852 -3.143026
 20
 0.578542
  C 1.014684 -0.166456 0.076324
  C 2.504853 -0.069726 0.033310
  C 3.247017 -0.475128 -1.000457
  C 4.682554 -0.412379 -1.037786
  C 5.413675 -0.811355 -2.092608
  C 6.850406 -0.882333 -2.103877
  C 7.530768 -1.570769 -3.023244
  C 9.003053 -1.782922 -3.031219
  H 0.624541 0.214664 1.016663
  H 0.693294 -1.202449 -0.034074
  H 0.567761 0.405503 -0.737084
  H 2.991138 0.357526 0.901124
  H 2.760999 -0.903288 -1.870805
  H 5.179126 -0.046216 -0.146899
  H 4.908320 -1.176465 -2.979152
  H 7.373907 -0.399733 -1.287694
  H 6.986161 -2.058933 -3.823480
  H 9.473236 -1.309540 -2.171362
  H 9.441987 -1.370137 -3.941063
  H 9.227788 -2.849909 -3.013316
 20
 2.523435
  C 1.042087 -0.302338 0.079745
  C 2.527030 -0.132133 0.037595
  C 3.277304 -0.410917 -1.031190
  C 4.709320 -0.298915 -1.065156
  C 5.440558 -0.581533 -2.154269
  C 6.879159 -0.701529 -2.160656
  C 7.489601 -1.564139 -2.971661
  C 8.934622 -1.922084 -2.970188
  H 0.644720 -0.035249 1.055069
  H 0.769390 -1.335691 -0.134301
  H 0.561961 0.324515 -0.671993
  H 3.000136 0.243646 0.934963
  H 2.806156 -0.787641 -1.931039
  H 5.201602 -0.018963 -0.142513
  H 4.934278 -0.865317 -3.069132
  H 7.436228 -0.144812 -1.418576
  H 6.882925 -2.120871 -3.677035
  H 9.468722 -1.402224 -2.177814
  H 9.391288 -1.663448 -3.926483
  H 9.051737 -2.996311 -2.830737
 20
 5.266256
  C 1.070402 -0.422074 0.064517
  C 2.553970 -0.237103 0.035742
  C 3.300496 -0.384102 -1.060743
  C 4.733243 -0.265669 -1.086114
  C 5.460034 -0.415264 -2.202146
  C 6.904743 -0.579729 -2.214755
  C 7.436766 -1.589792 -2.893870
  C 8.856157 -2.040217 -2.908789
  H 0.677641 -0.284878 1.068263
  H 0.802739 -1.421089 -0.278965
  H 0.580970 0.292246 -0.597866
  H 3.029167 0.037157 0.968017
  H 2.827901 -0.658498 -1.996140
  H 5.228619 -0.106617 -0.136639
  H 4.951797 -0.582533 -3.144619
  H 7.506535 0.062048 -1.585118
  H 6.765524 -2.215828 -3.472866
  H 9.464101 -1.455670 -2.221363
  H 9.273616 -1.942494 -3.911541
  H 8.914509 -3.090983 -2.628672
 20
 7.308913
  C 1.069155 -0.431312 0.003758
  C 2.563498 -0.390463 0.023815
  C 3.320445 -0.335921 -1.072581
  C 4.758036 -0.336335 -1.063749
  C 5.498978 -0.268589 -2.173529
  C 6.949592 -0.500940 -2.202964
  C 7.407211 -1.584365 -2.813519
  C 8.805717 -2.089792 -2.891626
  H 0.665916 -0.520927 1.008724
  H 0.716809 -1.275167 -0.587763
  H 0.667002 0.474656 -0.449162
  H 3.037815 -0.402108 0.995391
  H 2.851504 -0.323325 -2.048600
  H 5.239198 -0.443865 -0.100539
  H 5.008417 -0.168998 -3.136076
  H 7.603312 0.179682 -1.671835
  H 6.678793 -2.232899 -3.290949
  H 9.486594 -1.461312 -2.322329
  H 9.138824 -2.114182 -3.928407
  H 8.854400 -3.105751 -2.505013
 20
 9.201848
  C 1.087664 -0.496081 -0.068572
  C 2.581177 -0.482726 -0.029463
  C 3.351461 -0.293049 -1.101050
  C 4.791106 -0.345949 -1.078910
  C 5.560804 -0.089566 -2.137541
  C 6.999692 -0.413476 -2.180999
  C 7.348908 -1.574573 -2.706904
  C 8.707171 -2.173602 -2.854072
  H 0.672026 -0.707509 0.912249
  H 0.730596 -1.251747 -0.766682
  H 0.703477 0.466047 -0.405136
  H 3.044042 -0.630099 0.936508
  H 2.893805 -0.141824 -2.071388
  H 5.248833 -0.664083 -0.150879
  H 5.107818 0.237615 -3.068086
  H 7.719138 0.271139 -1.747204
  H 6.551395 -2.195833 -3.102446
  H 9.453583 -1.603471 -2.306072
  H 8.992865 -2.196429 -3.905575
  H 8.704191 -3.198631 -2.488874
 20
 8.259638
  C 1.095665 -0.477326 -0.086756
  C 2.586005 -0.581821 -0.087480
  C 3.351201 -0.291225 -1.139452
  C 4.784033 -0.442386 -1.158405
  C 5.574133 -0.024565 -2.148147
  C 6.999455 -0.375599 -2.231601
  C 7.331890 -1.605621 -2.586070
  C 8.692381 -2.184253 -2.775304
  H 0.681376 -0.803495 0.860550
  H 0.669095 -1.089148 -0.880997
  H 0.782416 0.551282 -0.263530
  H 3.052386 -0.907818 0.834065
  H 2.892252 0.040006 -2.063607
  H 5.223170 -0.957140 -0.314483
  H 5.155362 0.516592 -2.989851
  H 7.740162 0.376926 -1.996033
  H 6.522293 -2.289236 -2.815749
  H 9.462619 -1.527479 -2.371933
  H 8.887579 -2.334420 -3.839060
  H 8.759515 -3.155085 -2.285200
 20
 7.107962
  C 1.123559 -0.544283 -0.137577
  C 2.614866 -0.651668 -0.153113
  C 3.379425 -0.231498 -1.159363
  C 4.806050 -0.422029 -1.218501
  C 5.614284 0.100908 -2.147921
  C 7.006317 -0.323655 -2.284275
  C 7.275383 -1.612168 -2.460074
  C 8.607934 -2.239787 -2.692684
  H 0.709961 -0.961194 0.776592
  H 0.694750 -1.077089 -0.986254
  H 0.810186 0.496972 -0.214529
  H 3.081102 -1.090324 0.718790
  H 2.916162 0.219628 -2.028890
  H 5.232907 -1.068439 -0.461132
  H 5.231873 0.798754 -2.882499
  H 7.788659 0.423185 -2.246833
  H 6.432956 -2.289722 -2.540689
  H 9.414606 -1.591769 -2.355855
  H 8.746105 -2.434710 -3.757054
  H 8.674609 -3.192485 -2.170448
 20
 9.977338
  C 1.211071 -0.699043 -0.223470
  C 2.705396 -0.717724 -0.243855
  C 3.443914 -0.163333 -1.208875
  C 4.864756 -0.312146 -1.298758
  C 5.680729 0.293358 -2.182209
  C 6.993345 -0.263511 -2.413292
  C 7.133170 -1.592382 -2.382512
  C 8.420230 -2.342721 -2.465507
  H 0.824862 -1.160102 0.681473
  H 0.812915 -1.239704 -1.082654
  H 0.835542 0.322580 -0.279901
  H 3.198880 -1.212538 0.581938
  H 2.943673 0.329123 -2.034653
  H 5.310625 -0.966592 -0.559918
  H 5.352801 1.152227 -2.751805
  H 7.839545 0.389477 -2.580491
  H 6.237934 -2.188452 -2.498742
  H 9.249081 -1.741676 -2.098062
  H 8.634842 -2.627372 -3.497616
  H 8.357103 -3.257932 -1.879827
 20
 20.363843
  C 1.347007 -0.905899 -0.327129
  C 2.833300 -0.752206 -0.307600
  C 3.534813 -0.152878 -1.278707
  C 4.956934 -0.155749 -1.330315
  C 5.748347 0.468086 -2.243444
  C 6.994999 -0.195450 -2.490608
  C 6.954483 -1.535026 -2.347314
  C 8.147187 -2.426752 -2.229342
  H 0.989139 -1.381569 0.581786
  H 1.038323 -1.513578 -1.178386
  H 0.859166 0.063874 -0.427094
  H 3.356033 -1.157123 0.548622
  H 3.001827 0.247772 -2.133250
  H 5.443418 -0.654332 -0.501402
  H 5.410794 1.324912 -2.809059
  H 7.917861 0.332531 -2.691071
  H 6.030821 -2.032113 -2.604937
  H 8.979701 -1.907685 -1.760123
  H 8.473671 -2.776927 -3.211440
  H 7.895241 -3.304902 -1.638368
 20
 32.829401
  C 1.483617 -1.086255 -0.403791
  C 2.956383 -0.837892 -0.371293
  C 3.631579 -0.214478 -1.348459
  C 5.047043 -0.104819 -1.380046
  C 5.797229 0.583503 -2.318533
  C 6.973457 -0.137932 -2.598236
  C 6.789905 -1.466847 -2.312445
  C 7.889843 -2.427566 -1.989097
  H 1.145350 -1.565071 0.510975
  H 1.223484 -1.729101 -1.245498
  H 0.937539 -0.151104 -0.529349
  H 3.493784 -1.190803 0.498830
  H 3.087197 0.130415 -2.220233
  H 5.554379 -0.463097 -0.495148
  H 5.431412 1.450009 -2.848608
  H 7.936153 0.280504 -2.857769
  H 5.883691 -1.931318 -2.668134
  H 8.705198 -1.932139 -1.467218
  H 8.292359 -2.877574 -2.900408
  H 7.507954 -3.236287 -1.369400
 20
 39.551996
  C 1.621986 -1.282440 -0.437155
  C 3.085053 -0.979812 -0.425602
  C 3.723034 -0.338639 -1.411100
  C 5.145163 -0.133007 -1.449904
  C 5.817401 0.659395 -2.425185
  C 6.937225 -0.066581 -2.733960
  C 6.632240 -1.377247 -2.296191
  C 7.645565 -2.338720 -1.754535
  H 1.313264 -1.765114 0.485695
  H 1.375021 -1.941304 -1.269875
  H 1.041099 -0.368932 -0.562741
  H 3.645288 -1.306337 0.440680
  H 3.162926 -0.021989 -2.282863
  H 5.669886 -0.366031 -0.535285
  H 5.406711 1.534974 -2.901275
  H 7.911629 0.268675 -3.053571
  H 5.768457 -1.860922 -2.725508
  H 8.426236 -1.822512 -1.199708
  H 8.112750 -2.887527 -2.574488
  H 7.170620 -3.068173 -1.101087
 20
 31.830860
  C 1.757393 -1.416590 -0.462816
  C 3.217262 -1.087012 -0.470703
  C 3.828869 -0.443360 -1.460539
  C 5.277238 -0.183292 -1.517790
  C 5.855868 0.713906 -2.520643
  C 6.918002 -0.028498 -2.869009
  C 6.473347 -1.297836 -2.301220
  C 7.404345 -2.251159 -1.603133
  H 1.468932 -1.897157 0.467875
  H 1.514362 -2.087582 -1.286924
  H 1.157480 -0.515666 -0.588528
  H 3.790758 -1.395843 0.393796
  H 3.263444 -0.143268 -2.334115
  H 5.808859 -0.309588 -0.581686
  H 5.413751 1.595524 -2.950181
  H 7.897427 0.233090 -3.228491
  H 5.646180 -1.804876 -2.787849
  H 8.160771 -1.718719 -1.029552
  H 7.907152 -2.871273 -2.344907
  H 6.855549 -2.911368 -0.933373
 20
 17.520070
  C 1.848364 -1.511760 -0.447149
  C 3.295021 -1.123605 -0.453935
  C 3.897786 -0.522880 -1.470318
  C 5.347585 -0.211859 -1.525513
  C 5.887633 0.759094 -2.527816
  C 6.864017 -0.041596 -2.964223
  C 6.344842 -1.258041 -2.275193
  C 7.239972 -2.191066 -1.493596
  H 1.565061 -1.948037 0.506626
  H 1.646518 -2.240350 -1.232314
  H 1.214684 -0.645549 -0.633887
  H 3.863299 -1.354498 0.437770
  H 3.342834 -0.294759 -2.372262
  H 5.831046 -0.169792 -0.549724
  H 5.441717 1.656577 -2.915587
  H 7.831260 0.144591 -3.393223
  H 5.593267 -1.811329 -2.842499
  H 7.961802 -1.633458 -0.899549
  H 7.785424 -2.836345 -2.180237
  H 6.650641 -2.820896 -0.830072
 20
 6.503906
  C 1.810721 -1.375884 -0.301471
  C 3.258007 -0.992191 -0.360691
  C 3.908904 -0.723144 -1.482825
  C 5.355312 -0.384033 -1.544308
  C 5.823207 0.574227 -2.613550
  C 6.636909 -0.300377 -3.194219
  C 6.282564 -1.430129 -2.260720
  C 7.385752 -2.061834 -1.432511
  H 1.510328 -1.607950 0.716529
  H 1.618692 -2.247020 -0.926926
  H 1.183079 -0.563793 -0.667836
  H 3.781460 -0.936006 0.584895
  H 3.392941 -0.777382 -2.433280
  H 5.733423 -0.127984 -0.552750
  H 5.506205 1.576634 -2.840932
  H 7.366222 -0.241875 -3.981932
  H 5.688859 -2.205384 -2.754003
  H 7.993531 -1.293639 -0.957711
  H 8.031139 -2.669552 -2.064856
  H 6.959592 -2.697570 -0.658702
