 20
 0.000000
  C -1.276457 0.643598 2.412136
  C -1.488598 -0.550171 1.484245
  C -1.066181 -0.201417 0.056409
  C -0.736961 -1.767779 1.982768
  O 0.035134 -1.713724 2.919419
  C -0.989654 -3.067668 1.267378
  H -1.858654 1.498578 2.078529
  H -0.230991 0.935249 2.446111
  H -1.583293 0.402551 3.427284
  H -2.553136 -0.806050 1.494353
  H 0.002249 -0.007826 -0.002555
  H -1.592528 0.683370 -0.289323
  H -1.291818 -1.010829 -0.633850
  H -1.800558 -2.974456 0.550152
  H -1.261556 -3.824928 1.996297
  H -0.086459 -3.372432 0.748672
  O 2.971538 0.182025 -0.058451
  H 2.010894 0.006596 -0.004831
  H 3.158600 1.144456 -0.079899
  H 3.376939 -0.279298 -0.823267
 20
 0.150625
  C -1.212794 0.642007 2.393981
  C -1.432322 -0.551625 1.464231
  C -0.985141 -0.227802 0.034176
  C -0.724439 -1.792019 1.982643
  O 0.068197 -1.748297 2.902002
  C -1.055215 -3.080587 1.282568
  H -1.759152 1.509428 2.034941
  H -0.157116 0.887649 2.467949
  H -1.562670 0.406097 3.397194
  H -2.501494 -0.794608 1.443035
  H 0.082779 -0.018553 -0.003675
  H -1.520073 0.653193 -0.314218
  H -1.201656 -1.051138 -0.642424
  H -1.874188 -2.970410 0.581232
  H -1.314990 -3.826895 2.030432
  H -0.172124 -3.449239 0.765296
  O 2.856178 0.257092 -0.025280
  H 1.893701 0.066583 0.012574
  H 3.028968 1.223391 -0.061383
  H 3.283689 -0.217567 -0.772099
 20
 0.436188
  C -1.157333 0.642898 2.373306
  C -1.406445 -0.543556 1.443710
  C -0.948036 -0.227984 0.013279
  C -0.714505 -1.794346 1.952547
  O 0.109589 -1.760038 2.844894
  C -1.094679 -3.079052 1.272255
  H -1.670998 1.527983 2.007687
  H -0.093595 0.850101 2.458142
  H -1.524856 0.420299 3.373084
  H -2.478053 -0.766256 1.422141
  H 0.117426 -0.014780 -0.002535
  H -1.479184 0.649649 -0.346621
  H -1.153998 -1.055631 -0.658792
  H -1.934620 -2.956886 0.595530
  H -1.342033 -3.817206 2.033402
  H -0.234079 -3.470355 0.730017
  O 2.758788 0.278439 0.068598
  H 1.796873 0.080474 0.038836
  H 2.931771 1.232890 -0.075454
  H 3.257369 -0.282963 -0.568110
 20
 0.819961
  C -1.131101 0.646217 2.361103
  C -1.386869 -0.539619 1.433599
  C -0.936617 -0.226633 0.002350
  C -0.687147 -1.791602 1.935041
  O 0.159221 -1.754781 2.806138
  C -1.085752 -3.078518 1.268922
  H -1.639738 1.533875 1.994599
  H -0.066321 0.846817 2.445765
  H -1.500611 0.426108 3.360843
  H -2.459995 -0.761037 1.418331
  H 0.127335 -0.002692 -0.012553
  H -1.474687 0.645852 -0.361319
  H -1.135218 -1.059642 -0.665057
  H -1.941296 -2.958324 0.614269
  H -1.313992 -3.815988 2.035746
  H -0.240160 -3.469825 0.706880
  O 2.666577 0.279184 0.118365
  H 1.702288 0.089227 0.018066
  H 2.864253 1.226672 -0.048925
  H 3.201890 -0.307782 -0.457280
 20
 1.559112
  C -0.776180 -0.331485 3.007153
  C -1.277668 -0.802556 1.643892
  C -1.061759 0.275045 0.567682
  C -0.599376 -2.091016 1.221737
  O 0.392140 -2.514506 1.783531
  C -1.212646 -2.801581 0.047373
  H -1.273728 0.589863 3.299008
  H 0.295353 -0.174301 2.985948
  H -0.979278 -1.086570 3.762923
  H -2.348675 -1.015737 1.709538
  H 0.001097 0.507651 0.489972
  H -1.586094 1.184310 0.856276
  H -1.426524 -0.051035 -0.398365
  H -2.161025 -2.370876 -0.249743
  H -1.352443 -3.849373 0.306862
  H -0.518131 -2.780869 -0.792515
  O 2.472694 0.648153 0.321709
  H 1.485821 0.579368 0.276510
  H 2.746906 1.520606 0.693956
  H 2.884861 0.496304 -0.552865
 20
 7.542406
  C -1.073545 0.670563 2.343519
  C -1.304518 -0.528466 1.425169
  C -0.886710 -0.233529 -0.009891
  C -0.640718 -1.793447 1.934764
  O 0.175010 -1.769984 2.827835
  C -1.051617 -3.065572 1.256942
  H -1.588573 1.543108 1.969068
  H -0.016299 0.887916 2.436328
  H -1.441607 0.447071 3.349026
  H -2.380454 -0.746386 1.390779
  H 0.197984 -0.009998 -0.016790
  H -1.332812 0.695616 -0.373872
  H -1.001674 -1.072687 -0.687130
  H -1.893729 -2.928434 0.585178
  H -1.303049 -3.800755 2.019599
  H -0.199222 -3.471750 0.711147
  O 2.428383 0.210837 0.192427
  H 1.408383 0.046075 0.005524
  H 2.630335 1.161705 0.068548
  H 2.958433 -0.310025 -0.438461
 20
 19.285315
  C -1.070553 0.663806 2.346298
  C -1.333073 -0.526996 1.430298
  C -0.947548 -0.240117 -0.017599
  C -0.644487 -1.787654 1.928769
  O 0.189998 -1.755077 2.810181
  C -1.066893 -3.067436 1.262704
  H -1.598918 1.545551 1.990488
  H -0.002764 0.873261 2.402441
  H -1.409717 0.444201 3.353907
  H -2.406188 -0.762853 1.422101
  H 0.142783 -0.037164 -0.027116
  H -1.319542 0.712791 -0.383098
  H -1.052908 -1.077619 -0.703261
  H -1.919485 -2.939021 0.607350
  H -1.302205 -3.803385 2.032177
  H -0.226028 -3.474005 0.702204
  O 2.538589 0.198975 0.175420
  H 1.291049 0.009549 -0.014223
  H 2.694440 1.157864 0.184199
  H 3.103039 -0.204913 -0.504246
 20
 35.180110
  C -1.330365 0.833550 1.916751
  C -1.421167 -0.523422 1.227226
  C -0.838617 -0.501765 -0.159996
  C -0.804811 -1.640278 2.071359
  O -0.127417 -1.393771 3.045577
  C -1.074086 -3.036557 1.598897
  H -1.803245 1.604820 1.315079
  H -0.289153 1.099279 2.095594
  H -1.824603 0.797359 2.882426
  H -2.477334 -0.797745 1.103177
  H 0.302406 -0.227423 -0.047438
  H -1.152593 0.349530 -0.756340
  H -0.807036 -1.449241 -0.683315
  H -1.807570 -3.082045 0.802900
  H -1.414414 -3.631970 2.444617
  H -0.139318 -3.487702 1.272469
  O 2.822221 0.239785 0.478129
  H 1.344443 -0.135161 0.106784
  H 2.966065 1.174168 0.275740
  H 3.508789 -0.265630 0.022140
 20
 45.720736
  C -1.115818 0.659686 2.347080
  C -1.407841 -0.539807 1.453696
  C -1.110568 -0.278104 0.013721
  C -0.708754 -1.814212 1.949383
  O 0.150049 -1.759641 2.800670
  C -1.132986 -3.087911 1.289382
  H -1.648870 1.539891 2.001369
  H -0.048053 0.867083 2.356809
  H -1.413837 0.450151 3.370730
  H -2.484635 -0.767791 1.488360
  H 0.107743 -0.056478 -0.043167
  H -1.424596 0.695810 -0.349224
  H -1.205831 -1.107811 -0.675199
  H -2.002942 -2.972215 0.654171
  H -1.337845 -3.829253 2.059476
  H -0.297403 -3.483029 0.713830
  O 2.928695 0.304297 0.112088
  H 1.104479 -0.027465 -0.071761
  H 3.098978 1.251900 0.042975
  H 3.543281 -0.128993 -0.492072
 20
 51.007498
  C -1.196516 0.658374 2.376472
  C -1.448612 -0.546184 1.472096
  C -1.170162 -0.257976 0.035024
  C -0.704195 -1.806570 1.948039
  O 0.140655 -1.734712 2.808203
  C -1.070577 -3.083991 1.257810
  H -1.774051 1.518179 2.046212
  H -0.137869 0.919364 2.372694
  H -1.470429 0.426865 3.402459
  H -2.516895 -0.811600 1.515866
  H 0.034131 -0.062214 -0.037360
  H -1.452812 0.737798 -0.302230
  H -1.279938 -1.070681 -0.670584
  H -1.941604 -2.992187 0.622787
  H -1.245388 -3.848457 2.013223
  H -0.216256 -3.436901 0.679564
  O 3.055880 0.292104 0.078689
  H 0.988490 -0.052206 -0.080911
  H 3.276043 1.229620 0.005718
  H 3.672108 -0.170877 -0.505689
 20
 55.810452
  C -1.351299 0.653784 2.416143
  C -1.534637 -0.551911 1.504913
  C -1.276540 -0.253041 0.084154
  C -0.762589 -1.792833 2.012999
  O -0.002583 -1.691372 2.944799
  C -1.003053 -3.057644 1.261820
  H -1.960536 1.488339 2.083720
  H -0.309171 0.958106 2.434479
  H -1.630985 0.406948 3.434117
  H -2.586356 -0.885496 1.552063
  H -0.010295 -0.077536 -0.010898
  H -1.498983 0.758811 -0.241029
  H -1.398958 -1.050368 -0.631113
  H -1.824521 -2.987491 0.568681
  H -1.198730 -3.857761 1.973564
  H -0.088648 -3.341792 0.740904
  O 3.378935 0.279751 -0.087207
  H 0.941567 -0.106029 -0.134204
  H 3.669692 1.189079 -0.126081
  H 3.919708 -0.210658 -0.706078
 20
 60.960521
  C -1.439505 0.682918 2.386606
  C -1.614877 -0.555738 1.495717
  C -1.425423 -0.320696 0.071554
  C -0.779789 -1.777528 2.010162
  O 0.030864 -1.609853 2.884810
  C -1.064558 -3.087240 1.343964
  H -2.087331 1.477114 2.073977
  H -0.418921 1.029590 2.349311
  H -1.654108 0.452220 3.384009
  H -2.650950 -0.945218 1.597494
  H 0.028127 -0.070590 -0.075328
  H -1.585692 0.664723 -0.305966
  H -1.470420 -1.177453 -0.652592
  H -1.936199 -3.066797 0.708765
  H -1.184924 -3.851175 2.109644
  H -0.196694 -3.384026 0.774231
  O 3.695602 0.358526 -0.067217
  H 0.932439 -0.092398 -0.143743
  H 3.969548 1.279458 -0.182253
  H 4.248835 -0.178843 -0.641843
 20
 66.757698
  C -1.447581 0.629402 2.444550
  C -1.673776 -0.579927 1.548646
  C -1.571124 -0.330039 0.142902
  C -0.805298 -1.828302 1.977148
  O 0.061681 -1.650078 2.785653
  C -1.117059 -3.102233 1.287411
  H -2.116077 1.441061 2.173524
  H -0.421576 0.978441 2.350978
  H -1.613907 0.371778 3.486321
  H -2.696259 -0.969613 1.711762
  H 0.161261 -0.038635 -0.071872
  H -1.686892 0.678871 -0.231847
  H -1.617387 -1.138537 -0.572799
  H -2.027703 -3.070325 0.701805
  H -1.185798 -3.892561 2.033996
  H -0.272798 -3.370052 0.652258
  O 3.844208 0.431288 -0.119932
  H 1.023890 -0.060419 -0.160495
  H 4.102176 1.349849 -0.244298
  H 4.379562 -0.090991 -0.725139
 20
 66.619052
  C -1.542563 0.634560 2.439965
  C -1.735407 -0.578870 1.551596
  C -1.626482 -0.330112 0.138199
  C -0.785845 -1.783332 1.970313
  O 0.099389 -1.545684 2.739694
  C -1.072700 -3.084259 1.327157
  H -2.256227 1.414167 2.178607
  H -0.537853 1.033019 2.327928
  H -1.682988 0.371506 3.483677
  H -2.724824 -1.035960 1.736302
  H 0.042850 -0.065704 -0.057593
  H -1.703207 0.686409 -0.230451
  H -1.662216 -1.145301 -0.574324
  H -1.999591 -3.097611 0.769024
  H -1.097390 -3.851885 2.093406
  H -0.241442 -3.346293 0.674203
  O 4.011662 0.395664 -0.141883
  H 0.909618 -0.117346 -0.144971
  H 4.307399 1.296372 -0.310130
  H 4.527043 -0.182461 -0.723236
 20
 66.218801
  C -1.699881 0.822439 2.178719
  C -1.806328 -0.497041 1.438103
  C -1.593717 -0.425180 0.017147
  C -0.866278 -1.624226 2.060160
  O -0.040886 -1.265147 2.843698
  C -1.060715 -3.002298 1.544144
  H -2.459988 1.510165 1.830353
  H -0.728853 1.275751 2.010182
  H -1.826740 0.701102 3.248076
  H -2.775952 -0.972824 1.663576
  H 0.086787 -0.238162 -0.096614
  H -1.594873 0.598758 -0.343032
  H -1.613595 -1.300795 -0.612388
  H -1.952991 -3.114417 0.942156
  H -1.150251 -3.668080 2.465828
  H -0.153704 -3.304136 0.958265
  O 4.214526 0.069568 -0.008377
  H 0.909369 -0.318983 -0.141445
  H 4.612108 0.960112 -0.209096
  H 4.731189 -0.539726 -0.541972
