 23
 0.000000
  C 0.976371 0.151554 0.429656
  C 2.450501 0.134934 0.387729
  C 3.231148 0.602064 1.548934
  H 2.624872 0.936461 2.381003
  C 3.052630 -0.332275 -0.774634
  C 4.429542 -0.415029 -0.981494
  C 5.118390 -0.864665 -2.103241
  C 4.629944 -1.387687 -3.408171
  C 3.142131 -1.505359 -3.702305
  H 3.006850 -1.905460 -4.700700
  O 6.438969 -0.856045 -2.082146
  H 0.585695 0.529413 1.369280
  H 0.585529 -0.854372 0.270360
  H 0.585176 0.766976 -0.381692
  H 3.883968 1.422548 1.244291
  H 3.884381 -0.200595 1.897018
  H 2.389273 -0.648368 -1.560790
  H 5.050862 -0.084040 -0.157496
  H 5.093437 -2.373143 -3.530767
  H 5.093749 -0.759938 -4.177507
  H 2.658690 -0.532418 -3.663348
  H 2.658478 -2.182035 -3.002269
  H 6.821109 -0.522815 -1.248604
 23
 9.484983
  C 0.941262 0.182861 0.507074
  C 2.404829 0.166353 0.465917
  C 3.200673 0.624425 1.605275
  H 2.596799 0.960036 2.440660
  C 3.068585 -0.355647 -0.833013
  C 4.434711 -0.431693 -1.023290
  C 5.136137 -0.879384 -2.140314
  C 4.658689 -1.404151 -3.449270
  C 3.173083 -1.525241 -3.751238
  H 3.048716 -1.926597 -4.752583
  O 6.457318 -0.866284 -2.108397
  H 0.555866 0.561418 1.448568
  H 0.548578 -0.822749 0.345878
  H 0.548492 0.797027 -0.305333
  H 3.854699 1.442511 1.295740
  H 3.854977 -0.180128 1.947920
  H 2.399604 -0.668225 -1.610581
  H 5.049482 -0.098503 -0.193907
  H 5.126859 -2.387845 -3.568269
  H 5.126902 -0.775164 -4.214886
  H 2.685557 -0.554431 -3.718610
  H 2.685650 -2.204841 -3.057136
  H 6.834099 -0.532418 -1.273096
 23
 28.503083
  C 0.903156 0.206977 0.565438
  C 2.355311 0.194002 0.534341
  C 3.230067 0.624642 1.607393
  H 2.662058 0.970407 2.469119
  C 3.050891 -0.387792 -0.913793
  C 4.403760 -0.444466 -1.055929
  C 5.134307 -0.880768 -2.144646
  C 4.687590 -1.408659 -3.460438
  C 3.206926 -1.535632 -3.775446
  H 3.101110 -1.939705 -4.783044
  O 6.446951 -0.854083 -2.080012
  H 0.525377 0.586814 1.510824
  H 0.507546 -0.795089 0.398549
  H 0.507908 0.815172 -0.248554
  H 3.886257 1.425262 1.269026
  H 3.885602 -0.188277 1.916602
  H 2.340650 -0.684270 -1.651707
  H 4.996196 -0.107643 -0.217025
  H 5.164634 -2.388661 -3.570808
  H 5.164038 -0.776334 -4.217616
  H 2.713289 -0.569026 -3.754425
  H 2.714032 -2.220314 -3.092271
  H 6.802022 -0.516760 -1.237204
 23
 49.954340
  C 0.863550 0.236572 0.636666
  C 2.302513 0.226535 0.615293
  C 3.233534 0.635896 1.638769
  H 2.706181 0.989573 2.519978
  C 3.031935 -0.414195 -0.980554
  C 4.376422 -0.456951 -1.087892
  C 5.146157 -0.890790 -2.170918
  C 4.724551 -1.421748 -3.492851
  C 3.246622 -1.554366 -3.819457
  H 3.151858 -1.956141 -4.820288
  O 6.462088 -0.852261 -2.078926
  H 0.484841 0.617211 1.584568
  H 0.466554 -0.769611 0.463488
  H 0.468171 0.844709 -0.184125
  H 3.895246 1.429040 1.270396
  H 3.893269 -0.193555 1.920649
  H 2.278863 -0.696052 -1.683253
  H 4.951971 -0.114019 -0.233213
  H 5.209693 -2.398812 -3.599143
  H 5.208100 -0.788648 -4.245604
  H 2.748630 -0.587999 -3.804182
  H 2.750357 -2.242924 -3.139969
  H 6.795831 -0.512061 -1.231311
 23
 71.126974
  C 0.821363 0.268245 0.714883
  C 2.259281 0.259183 0.696891
  C 3.212833 0.657343 1.693042
  H 2.704216 1.016790 2.588160
  C 3.035613 -0.438714 -1.040999
  C 4.381001 -0.475519 -1.133694
  C 5.165864 -0.904832 -2.206097
  C 4.757399 -1.438572 -3.534843
  C 3.281847 -1.574571 -3.869129
  H 3.191894 -1.979788 -4.878472
  O 6.484909 -0.859179 -2.097311
  H 0.441786 0.648608 1.661826
  H 0.425898 -0.733608 0.540048
  H 0.427857 0.872393 -0.104278
  H 3.870101 1.439323 1.312737
  H 3.867757 -0.172550 1.958796
  H 2.268659 -0.711801 -1.722099
  H 4.945073 -0.131589 -0.276438
  H 5.246000 -2.414385 -3.637249
  H 5.244037 -0.803478 -4.283999
  H 2.782888 -0.610528 -3.855865
  H 2.784909 -2.262977 -3.192592
  H 6.807870 -0.515727 -1.242052
 23
 90.531169
  C 0.782770 0.297009 0.785420
  C 2.215288 0.290419 0.774896
  C 3.197005 0.678616 1.747133
  H 2.711987 1.042855 2.653644
  C 3.038350 -0.464767 -1.104930
  C 4.376859 -0.493437 -1.177624
  C 5.183303 -0.918923 -2.241437
  C 4.791650 -1.453169 -3.571377
  C 3.318208 -1.591501 -3.910398
  H 3.232095 -1.994695 -4.914727
  O 6.497586 -0.866044 -2.116027
  H 0.398287 0.677831 1.733108
  H 0.388358 -0.707787 0.606989
  H 0.390979 0.901062 -0.038370
  H 3.856055 1.457010 1.349967
  H 3.853028 -0.160740 1.998423
  H 2.250083 -0.731501 -1.770516
  H 4.929097 -0.145575 -0.310352
  H 5.283505 -2.427644 -3.669844
  H 5.280997 -0.815982 -4.316803
  H 2.817708 -0.627285 -3.898301
  H 2.820220 -2.281088 -3.234522
  H 6.804823 -0.522342 -1.260932
 23
 107.254521
  C 0.743263 0.328771 0.863272
  C 2.172914 0.323023 0.856356
  C 3.176129 0.699696 1.801052
  H 2.715696 1.069116 2.719929
  C 3.039981 -0.489745 -1.166351
  C 4.377577 -0.512149 -1.223743
  C 5.201659 -0.932377 -2.275382
  C 4.824887 -1.468991 -3.610921
  C 3.353128 -1.610984 -3.957786
  H 3.271581 -2.015839 -4.966101
  O 6.518242 -0.871485 -2.131536
  H 0.355527 0.709438 1.810218
  H 0.350269 -0.674781 0.683242
  H 0.353565 0.931217 0.039063
  H 3.831842 1.469227 1.389179
  H 3.828113 -0.143940 2.035865
  H 2.239310 -0.748361 -1.812110
  H 4.917361 -0.162310 -0.351295
  H 5.320281 -2.442296 -3.705394
  H 5.317203 -0.829587 -4.352799
  H 2.851139 -0.648010 -3.947262
  H 2.854165 -2.300995 -3.283710
  H 6.813236 -0.523841 -1.267607
 23
 121.152774
  C 0.704030 0.360013 0.939418
  C 2.129984 0.355560 0.937630
  C 3.154007 0.723649 1.862901
  H 2.716344 1.097650 2.793030
  C 3.043998 -0.514050 -1.226885
  C 4.376401 -0.530377 -1.269226
  C 5.220785 -0.947046 -2.312754
  C 4.859667 -1.484839 -3.650357
  C 3.390646 -1.629926 -4.003229
  H 3.313248 -2.034108 -5.009241
  O 6.533613 -0.879277 -2.153487
  H 0.309952 0.740469 1.885936
  H 0.312896 -0.645073 0.756675
  H 0.317114 0.962481 0.112403
  H 3.809447 1.488872 1.436543
  H 3.804741 -0.127553 2.084289
  H 2.227990 -0.767302 -1.859938
  H 4.904878 -0.177371 -0.388433
  H 5.358092 -2.456800 -3.740853
  H 5.354337 -0.843532 -4.388772
  H 2.887151 -0.667498 -3.994059
  H 2.890856 -2.320538 -3.330112
  H 6.813345 -0.531788 -1.291480
 23
 132.124568
  C 0.665349 0.395353 1.026246
  C 2.088098 0.389172 1.021576
  C 3.112870 0.754089 1.939654
  H 2.690606 1.131745 2.878006
  C 3.056301 -0.536934 -1.281790
  C 4.389685 -0.551170 -1.319587
  C 5.246144 -0.965176 -2.358134
  C 4.893967 -1.503982 -3.698513
  C 3.425764 -1.651998 -4.057398
  H 3.351373 -2.056741 -5.065068
  O 6.557771 -0.892588 -2.188526
  H 0.262859 0.775909 1.972340
  H 0.277901 -0.609271 0.841445
  H 0.282762 0.996201 0.197860
  H 3.765588 1.513607 1.504980
  H 3.760152 -0.099143 2.151627
  H 2.237390 -0.787385 -1.908246
  H 4.911519 -0.196965 -0.435286
  H 5.394499 -2.475191 -3.786524
  H 5.390110 -0.860912 -4.434574
  H 2.920998 -0.690240 -4.048903
  H 2.925283 -2.343062 -3.385212
  H 6.830912 -0.541441 -1.317928
 23
 138.325498
  C 0.625694 0.439297 1.135012
  C 2.043594 0.424526 1.109929
  C 3.033826 0.802036 2.059128
  H 2.608824 1.182280 3.002949
  C 3.088089 -0.555104 -1.324105
  C 4.423849 -0.574637 -1.375952
  C 5.284882 -0.992675 -2.426625
  C 4.932951 -1.530474 -3.765338
  C 3.466165 -1.681224 -4.129976
  H 3.395212 -2.085038 -5.136084
  O 6.583724 -0.921322 -2.261348
  H 0.207844 0.820591 2.081948
  H 0.245858 -0.565052 0.945596
  H 0.251173 1.036530 0.303191
  H 3.686770 1.560090 1.625252
  H 3.680903 -0.049710 2.271247
  H 2.279734 -0.812749 -1.968846
  H 4.950368 -0.220228 -0.490613
  H 5.434073 -2.501081 -3.851932
  H 5.429062 -0.886057 -4.499675
  H 2.959836 -0.720168 -4.122231
  H 2.964717 -2.372949 -3.459074
  H 6.856595 -0.571910 -1.394356
 23
 140.375590
  C 0.576045 0.479246 1.233879
  C 2.003207 0.457752 1.193040
  C 2.961188 0.850119 2.178496
  H 2.525990 1.227994 3.115273
  C 3.133109 -0.574178 -1.368011
  C 4.466130 -0.598415 -1.432500
  C 5.323684 -1.017979 -2.489352
  C 4.961901 -1.554147 -3.825324
  C 3.493011 -1.704377 -4.187728
  H 3.419127 -2.107901 -5.194252
  O 6.620842 -0.948090 -2.329165
  H 0.149479 0.858777 2.175266
  H 0.200317 -0.528125 1.040470
  H 0.206107 1.075574 0.396708
  H 3.617196 1.611161 1.750350
  H 3.611076 0.000143 2.397465
  H 2.343595 -0.839827 -2.032916
  H 4.997250 -0.245077 -0.549302
  H 5.461760 -2.525231 -3.913549
  H 5.456140 -0.909491 -4.560713
  H 2.986731 -0.742996 -4.177977
  H 2.992202 -2.395828 -3.515583
  H 6.904138 -0.596519 -1.455724
 23
 141.704949
  C 0.532742 0.520873 1.336368
  C 1.956548 0.493095 1.281313
  C 2.880914 0.896127 2.293712
  H 2.430281 1.271465 3.223470
  C 3.169023 -0.590995 -1.407803
  C 4.508798 -0.620231 -1.485425
  C 5.362335 -1.041920 -2.549289
  C 4.992351 -1.576196 -3.880874
  C 3.524188 -1.726585 -4.242223
  H 3.449838 -2.129707 -5.248103
  O 6.648375 -0.974159 -2.396012
  H 0.104684 0.899743 2.275599
  H 0.159577 -0.486170 1.141643
  H 0.166038 1.116309 0.498351
  H 3.539089 1.659452 1.873777
  H 3.532414 0.049754 2.520485
  H 2.394905 -0.864156 -2.091761
  H 5.046257 -0.267766 -0.604119
  H 5.491991 -2.547301 -3.970795
  H 5.485651 -0.932042 -4.617379
  H 3.017367 -0.765577 -4.231883
  H 3.023568 -2.417954 -3.569970
  H 6.937937 -0.625980 -1.530890
 23
 142.757743
  C 0.479411 0.556863 1.424536
  C 1.914995 0.526411 1.364490
  C 2.822033 0.939228 2.401962
  H 2.357674 1.312332 3.325308
  C 3.210056 -0.609723 -1.452536
  C 4.540771 -0.640305 -1.534179
  C 5.390836 -1.060203 -2.595213
  C 5.013430 -1.594198 -3.926268
  C 3.544002 -1.744071 -4.284683
  H 3.467304 -2.147243 -5.290882
  O 6.685545 -0.991591 -2.441651
  H 0.047367 0.935390 2.362512
  H 0.107881 -0.451693 1.226643
  H 0.115060 1.151574 0.583152
  H 3.483493 1.704657 1.989282
  H 3.476048 0.095831 2.635800
  H 2.447227 -0.887645 -2.148634
  H 5.078703 -0.288974 -0.655451
  H 5.512804 -2.565493 -4.018098
  H 5.505722 -0.950608 -4.664251
  H 3.037074 -0.782977 -4.273049
  H 3.044063 -2.435150 -3.611415
  H 6.983594 -0.641354 -1.571320
 23
 143.708293
  C 0.437158 0.598655 1.527345
  C 1.862682 0.564611 1.459701
  C 2.752646 0.978601 2.500312
  H 2.280259 1.350024 3.418499
  C 3.223303 -0.626590 -1.491752
  C 4.564446 -0.657868 -1.575897
  C 5.419109 -1.077886 -2.639383
  C 5.044721 -1.610237 -3.966998
  C 3.577718 -1.762067 -4.328666
  H 3.504894 -2.165117 -5.335154
  O 6.695759 -1.008609 -2.485903
  H 0.009645 0.977090 2.464369
  H 0.065731 -0.408576 1.328986
  H 0.073608 1.192194 0.686299
  H 3.415321 1.743671 2.090692
  H 3.407252 0.137187 2.736550
  H 2.464007 -0.905410 -2.190352
  H 5.104043 -0.305957 -0.695091
  H 5.546456 -2.580455 -4.058280
  H 5.538524 -0.966206 -4.703682
  H 3.068908 -0.802005 -4.318436
  H 3.076738 -2.454121 -3.657232
  H 6.991696 -0.661513 -1.623421
