26

C 0.966881 0.140951 0.402175
C 2.445261 0.138532 0.395784
C 3.234973 0.607589 1.562934
C 2.461488 1.098287 2.784371
C 3.414253 1.542424 3.889631
C 3.056527 -0.32624 -0.761266
C 4.434557 -0.412807 -0.977341
C 5.116634 -0.862171 -2.097644
C 4.626711 -1.386353 -3.404443
H 3.580501149738091 -1.469732247707045 -3.6127525059443055
O 6.441363 -0.85411 -2.077903
H 0.534203 0.5116 1.324625
H 0.594015 -0.871193 0.237377
H 0.59375 0.757524 -0.417125
H 3.890881 1.41925 1.227711
H 3.891049 -0.210235 1.882449
H 1.823595 0.301943 3.173218
H 1.823488 1.942218 2.514202
H 4.05029 0.720083 4.21139
H 2.851219 1.889353 4.753283
H 4.050158 2.358871 3.552941
H 2.395882 -0.642369 -1.548407
H 5.050449 -0.080233 -0.149165
H 5.083529 -2.374996 -3.529298
H 5.083826 -0.758265 -4.177923
H 6.799446 -0.516763 -1.236311
