 26
 0.000000
  C 0.989995 0.144067 0.409910
  C 2.464814 0.139430 0.397847
  C 3.233520 0.608017 1.563676
  H 2.635570 0.944126 2.400480
  C 3.077204 -0.326377 -0.761647
  C 4.452103 -0.413085 -0.978115
  C 5.123810 -0.866964 -2.109690
  C 4.614279 -1.387798 -3.407921
  C 3.123025 -1.503673 -3.697854
  C 2.908190 -2.066510 -5.100711
  O 6.445092 -0.866973 -2.110214
  H 0.575385 0.518076 1.340998
  H 0.611688 -0.865170 0.242329
  H 0.611321 0.756765 -0.409230
  H 3.888604 1.426065 1.255544
  H 3.888953 -0.195522 1.907164
  H 2.414185 -0.642503 -1.548291
  H 5.083642 -0.084835 -0.160676
  H 5.072081 -2.375583 -3.536079
  H 5.072695 -0.762958 -4.183301
  H 2.648481 -0.523287 -3.646558
  H 2.647937 -2.176425 -2.983239
  H 3.351008 -1.418576 -5.853467
  H 1.845401 -2.151193 -5.312629
  H 3.350538 -3.055304 -5.196725
  H 6.830718 -0.533440 -1.278134
 26
 -0.217561
  C 0.972698 0.067961 0.507376
  C 2.455725 0.158859 0.367932
  C 3.258492 0.691765 1.475370
  H 2.642513 1.037567 2.306542
  C 3.031714 -0.311353 -0.806859
  C 4.403685 -0.399179 -1.014172
  C 5.105265 -0.915298 -2.107371
  C 4.620183 -1.434831 -3.400792
  C 3.137158 -1.477432 -3.716512
  C 2.931562 -2.032523 -5.117271
  O 6.428704 -0.978619 -2.041414
  H 0.623211 0.381170 1.490717
  H 0.631736 -0.956461 0.316457
  H 0.482561 0.690361 -0.253183
  H 3.879794 1.523107 1.129999
  H 3.940279 -0.078599 1.848361
  H 2.353466 -0.665011 -1.572486
  H 5.029187 -0.049321 -0.195998
  H 5.036266 -2.448887 -3.503429
  H 5.132100 -0.842763 -4.175148
  H 2.708417 -0.471171 -3.673284
  H 2.615187 -2.126870 -3.006311
  H 3.426475 -1.405044 -5.861298
  H 1.869348 -2.069082 -5.357519
  H 3.333200 -3.044563 -5.197894
  H 6.805241 -0.650285 -1.200463
 26
 0.535257
  C 1.001270 0.025466 0.624509
  C 2.442388 0.185957 0.359750
  C 3.286369 0.775666 1.420262
  H 2.686600 1.137970 2.249188
  C 2.968155 -0.287309 -0.836122
  C 4.341666 -0.374599 -1.052663
  C 5.078122 -0.936169 -2.092096
  C 4.639222 -1.471017 -3.406031
  C 3.162020 -1.459709 -3.776996
  C 2.971036 -2.020041 -5.183395
  O 6.383859 -1.040123 -1.936305
  H 0.737731 0.276787 1.645911
  H 0.683939 -0.994689 0.405904
  H 0.426330 0.660797 -0.053293
  H 3.878024 1.605678 1.035187
  H 3.982134 0.032629 1.811097
  H 2.274841 -0.666703 -1.566509
  H 4.954317 -0.000036 -0.240343
  H 5.020730 -2.496081 -3.473614
  H 5.202480 -0.913834 -4.163902
  H 2.775820 -0.440374 -3.751506
  H 2.595782 -2.078242 -3.080788
  H 3.508912 -1.423822 -5.916699
  H 1.918093 -2.015162 -5.452562
  H 3.330647 -3.044362 -5.246052
  H 6.709889 -0.716765 -1.075671
 26
 2.748124
  C 1.020035 0.005853 0.738075
  C 2.421973 0.214828 0.336268
  C 3.318361 0.831381 1.344040
  H 2.749682 1.212501 2.187413
  C 2.896316 -0.255704 -0.882027
  C 4.270470 -0.339277 -1.109315
  C 5.045953 -0.952448 -2.087994
  C 4.656982 -1.513945 -3.404497
  C 3.192845 -1.449896 -3.822643
  C 3.015202 -2.040560 -5.218374
  O 6.334144 -1.086388 -1.837599
  H 0.857083 0.207686 1.790076
  H 0.698756 -1.009589 0.504180
  H 0.365429 0.655530 0.151632
  H 3.890391 1.656592 0.921509
  H 4.023325 0.096288 1.733026
  H 2.185745 -0.658593 -1.583516
  H 4.871767 0.068995 -0.304476
  H 4.998391 -2.554922 -3.427514
  H 5.271513 -1.001042 -4.153612
  H 2.850960 -0.414341 -3.830708
  H 2.581756 -2.022178 -3.125041
  H 3.600096 -1.489925 -5.951671
  H 1.971237 -1.996050 -5.518358
  H 3.329599 -3.081462 -5.242633
  H 6.601939 -0.760519 -0.957192
 26
 7.510516
  C 1.125219 -0.207520 1.014401
  C 2.372647 0.166226 0.326539
  C 3.285258 0.992754 1.168873
  H 2.772314 1.336339 2.062804
  C 2.757308 -0.292855 -0.926435
  C 4.095419 -0.111477 -1.288110
  C 4.980594 -0.640699 -2.221819
  C 4.703122 -1.394958 -3.464807
  C 3.239134 -1.643609 -3.809201
  C 3.118831 -2.408265 -5.122420
  O 6.265799 -0.475413 -1.965925
  H 1.127784 0.065038 2.059655
  H 0.938133 -1.277850 0.917680
  H 0.273220 0.272004 0.526716
  H 3.645009 1.875510 0.641348
  H 4.142859 0.409087 1.501977
  H 2.069668 -0.882730 -1.508543
  H 4.629319 0.508875 -0.577558
  H 5.235016 -2.350746 -3.399950
  H 5.189193 -0.852194 -4.283462
  H 2.710465 -0.694253 -3.897459
  H 2.769947 -2.229171 -3.019565
  H 3.565785 -1.848790 -5.940640
  H 2.074164 -2.582895 -5.365690
  H 3.616278 -3.372833 -5.056641
  H 6.443949 -0.033200 -1.114109
 26
 14.048401
  C 1.158613 -0.123782 1.140580
  C 2.374693 0.130172 0.341536
  C 3.383801 0.901560 1.141092
  H 2.946027 1.253588 2.070168
  C 2.650179 -0.315637 -0.942868
  C 3.970826 -0.110392 -1.367874
  C 4.920625 -0.596833 -2.261889
  C 4.724905 -1.376055 -3.501195
  C 3.272898 -1.680116 -3.854451
  C 3.183903 -2.488704 -5.143218
  O 6.176855 -0.351377 -1.929883
  H 1.253123 0.196600 2.168193
  H 0.900519 -1.184978 1.118575
  H 0.304315 0.384300 0.685864
  H 3.746088 1.783801 0.615586
  H 4.231355 0.273267 1.410676
  H 1.922403 -0.892381 -1.488581
  H 4.477179 0.556040 -0.678048
  H 5.288933 -2.310241 -3.406524
  H 5.208648 -0.832654 -4.319697
  H 2.716366 -0.749785 -3.970889
  H 2.816344 -2.253530 -3.048087
  H 3.622281 -1.943706 -5.975789
  H 2.145983 -2.698109 -5.387760
  H 3.706341 -3.436822 -5.042487
  H 6.273522 0.102332 -1.070240
 26
 16.436064
  C 1.198380 -0.172614 1.159405
  C 2.388276 0.133949 0.342463
  C 3.412849 0.879916 1.151512
  H 2.985816 1.221530 2.092761
  C 2.624671 -0.242123 -0.970653
  C 3.913026 0.035930 -1.447889
  C 4.885153 -0.536852 -2.264851
  C 4.716809 -1.382368 -3.467989
  C 3.266925 -1.654950 -3.877998
  C 3.216735 -2.521765 -5.127874
  O 6.133337 -0.322375 -1.882580
  H 1.329820 0.062702 2.201228
  H 0.918275 -1.226751 1.059098
  H 0.337128 0.380991 0.773690
  H 3.781437 1.773702 0.641710
  H 4.262874 0.242151 1.382025
  H 1.898757 -0.838910 -1.505018
  H 4.393440 0.786512 -0.828556
  H 5.247278 -2.327325 -3.306780
  H 5.252511 -0.895808 -4.289449
  H 2.753872 -0.711119 -4.063632
  H 2.757449 -2.172216 -3.067146
  H 3.723613 -2.036410 -5.958842
  H 2.185264 -2.704663 -5.422145
  H 3.694222 -3.481958 -4.952550
  H 6.213214 0.158460 -1.039453
 26
 16.281134
  C 1.257117 -0.298806 1.115691
  C 2.424180 0.138390 0.329286
  C 3.402284 0.913309 1.140872
  H 2.954437 1.217863 2.081185
  C 2.655232 -0.180143 -0.980561
  C 3.912148 0.159599 -1.492918
  C 4.879093 -0.516364 -2.254781
  C 4.693161 -1.418564 -3.414213
  C 3.253937 -1.626165 -3.878021
  C 3.211835 -2.548861 -5.090781
  O 6.133107 -0.371700 -1.852938
  H 1.380339 -0.120971 2.175713
  H 1.048179 -1.357248 0.954271
  H 0.364503 0.228683 0.768919
  H 3.763595 1.810027 0.640844
  H 4.258799 0.288349 1.391171
  H 1.960949 -0.816508 -1.503355
  H 4.381272 0.962708 -0.923739
  H 5.159201 -2.383240 -3.184032
  H 5.289908 -1.005294 -4.235743
  H 2.806427 -0.666238 -4.137525
  H 2.671616 -2.076749 -3.075883
  H 3.789269 -2.134683 -5.914403
  H 2.188392 -2.681494 -5.432036
  H 3.617537 -3.528001 -4.847787
  H 6.230726 0.159145 -1.040664
 26
 21.127122
  C 1.474152 -0.584474 1.080743
  C 2.526481 0.132688 0.320387
  C 3.453753 0.967394 1.127314
  H 2.989592 1.234030 2.073449
  C 2.641180 -0.040459 -1.034934
  C 3.792314 0.461328 -1.687768
  C 4.756529 -0.412324 -2.212402
  C 4.599318 -1.450328 -3.255882
  C 3.237004 -1.550592 -3.937760
  C 3.270816 -2.606766 -5.037424
  O 5.948020 -0.350820 -1.670419
  H 1.630177 -0.514507 2.151484
  H 1.429979 -1.635555 0.797703
  H 0.496245 -0.163491 0.841016
  H 3.748992 1.883180 0.621477
  H 4.352392 0.397613 1.364260
  H 1.987563 -0.741807 -1.531336
  H 4.211578 1.363038 -1.246522
  H 4.896645 -2.422254 -2.848447
  H 5.360510 -1.220869 -4.012397
  H 2.970473 -0.585812 -4.371524
  H 2.469115 -1.824898 -3.217929
  H 4.018801 -2.364085 -5.788602
  H 2.305123 -2.668692 -5.532463
  H 3.503508 -3.586406 -4.626744
  H 6.060373 0.354363 -1.002424
 26
 25.074844
  C 1.517882 -0.641044 1.024842
  C 2.564356 0.122728 0.298474
  C 3.487055 0.937716 1.128035
  H 3.011468 1.193013 2.071463
  C 2.665626 -0.000021 -1.060742
  C 3.806640 0.523503 -1.734425
  C 4.743452 -0.436402 -2.159667
  C 4.570004 -1.494050 -3.174693
  C 3.261003 -1.505019 -3.958341
  C 3.291131 -2.590737 -5.028984
  O 5.899138 -0.447475 -1.546366
  H 1.670264 -0.608864 2.098471
  H 1.497527 -1.681619 0.704381
  H 0.533530 -0.229349 0.797401
  H 3.791962 1.857938 0.636495
  H 4.378034 0.358218 1.370104
  H 2.017265 -0.696427 -1.569025
  H 4.233977 1.426328 -1.310601
  H 4.764509 -2.473754 -2.726801
  H 5.396177 -1.339204 -3.880567
  H 3.106578 -0.534483 -4.431885
  H 2.415712 -1.693083 -3.299938
  H 4.110814 -2.429957 -5.725441
  H 2.363897 -2.589156 -5.595874
  H 3.410646 -3.574063 -4.580437
  H 6.038991 0.280266 -0.910123
