17

C 0.911306 0.048787 0.267603
C 2.404677 0.057569 0.083761
C 3.242209 -0.013474 1.354656
H 2.7390672173059905 -0.06557934776941063 2.297541666049348
C 2.997348 0.12661 -1.123068
H 2.543694490379219 0.18167347746216203 -2.0905733005841993
C 4.45665 0.131839 -1.209923
C 5.196359 0.195168 -2.31705
O 6.556457 0.196366 -2.332664
H 0.605811 -0.013202 1.307116
H 0.467229 -0.816456 -0.218772
H 0.467572 0.966559 -0.112261
H 3.888796 0.870169 1.385982
H 3.887871 -0.895848 1.287882
H 5.001931 0.078729 -0.27784
H 4.819713 0.252638 -3.325153
H 6.885709 0.14467 -1.425658
