 17
 0.000000
  C 0.968776 0.052268 0.181271
  C 2.471960 0.054018 0.167266
  C 3.181269 -0.018561 1.490256
  H 2.472420 -0.060742 2.313360
  C 3.128120 0.119250 -0.998351
  H 2.555694 0.169678 -1.915994
  C 4.559696 0.129235 -1.163368
  C 5.150305 0.195846 -2.357659
  O 6.488283 0.208980 -2.579954
  H 0.579960 -0.024720 1.193508
  H 0.581122 -0.784940 -0.398647
  H 0.578677 0.967679 -0.264993
  H 3.817419 0.853495 1.635258
  H 3.812653 -0.904589 1.540920
  H 5.171765 0.080182 -0.273220
  H 4.596591 0.246832 -3.283804
  H 6.957689 0.162309 -1.734271
 17
 6.024050
  C 0.967977 0.008622 0.188746
  C 2.434997 0.049901 0.158590
  C 3.182604 -0.019571 1.507921
  H 2.480692 -0.032854 2.333514
  C 3.102815 0.110111 -1.001651
  H 2.535143 0.148438 -1.924887
  C 4.538217 0.139749 -1.161630
  C 5.132673 0.202866 -2.356905
  O 6.470069 0.225281 -2.574929
  H 0.537653 -0.019566 1.182509
  H 0.535954 -0.787574 -0.412650
  H 0.836533 0.966961 -0.287234
  H 3.837221 0.837176 1.629451
  H 3.789692 -0.917566 1.561291
  H 5.149473 0.104338 -0.269378
  H 4.582424 0.239757 -3.285185
  H 6.936661 0.189775 -1.725987
 17
 18.234322
  C 0.951821 -0.014144 0.198020
  C 2.415615 0.031490 0.162550
  C 3.179522 -0.026080 1.506102
  H 2.480986 0.004600 2.333458
  C 3.091098 0.082211 -0.997113
  H 2.530200 0.090148 -1.923808
  C 4.520796 0.146756 -1.154541
  C 5.118347 0.204195 -2.353490
  O 6.467496 0.259937 -2.570858
  H 0.494793 0.004822 1.181675
  H 0.485498 -0.747784 -0.442996
  H 1.072269 0.945842 -0.260308
  H 3.861770 0.809508 1.598085
  H 3.748056 -0.945978 1.567738
  H 5.131508 0.140209 -0.263239
  H 4.568255 0.211725 -3.286350
  H 6.928540 0.250492 -1.726519
 17
 32.391368
  C 0.944437 -0.040032 0.202708
  C 2.403068 0.032711 0.147374
  C 3.179113 -0.013906 1.502519
  H 2.479461 0.034638 2.332587
  C 3.083990 0.077981 -1.010860
  H 2.526897 0.067971 -1.940313
  C 4.505564 0.155289 -1.160060
  C 5.107445 0.205721 -2.349925
  O 6.447543 0.261207 -2.554873
  H 0.492004 -0.041760 1.181418
  H 0.462520 -0.701103 -0.486489
  H 1.231257 0.924795 -0.190361
  H 3.876386 0.818426 1.581466
  H 3.735339 -0.946778 1.568021
  H 5.111105 0.160199 -0.265680
  H 4.566825 0.199631 -3.285536
  H 6.901672 0.258132 -1.701029
 17
 43.963102
  C 0.928895 -0.063043 0.215949
  C 2.396184 0.033696 0.140464
  C 3.167640 0.003908 1.498850
  H 2.469520 0.070017 2.326502
  C 3.080788 0.067248 -1.024042
  H 2.522831 0.039003 -1.950864
  C 4.503175 0.146149 -1.170209
  C 5.113459 0.192283 -2.359742
  O 6.457130 0.276388 -2.556236
  H 0.482038 -0.121614 1.197483
  H 0.418294 -0.620621 -0.543870
  H 1.360689 0.912529 -0.074940
  H 3.874690 0.827357 1.569514
  H 3.711725 -0.934019 1.575508
  H 5.105570 0.165616 -0.272424
  H 4.579706 0.177019 -3.297875
  H 6.903723 0.287521 -1.699096
 17
 51.947142
  C 0.924354 -0.093632 0.229526
  C 2.392906 0.034466 0.137360
  C 3.151054 0.024456 1.491562
  H 2.447926 0.102535 2.321691
  C 3.078721 0.060515 -1.034526
  H 2.517297 0.018856 -1.955661
  C 4.504025 0.153151 -1.181336
  C 5.118744 0.192660 -2.367318
  O 6.469091 0.269696 -2.557552
  H 0.488335 -0.224122 1.204949
  H 0.386709 -0.531299 -0.596050
  H 1.466360 0.898308 0.042716
  H 3.858575 0.846204 1.555155
  H 3.694330 -0.912162 1.584655
  H 5.105254 0.180752 -0.284723
  H 4.590379 0.164960 -3.306426
  H 6.908580 0.283797 -1.699142
 17
 58.752687
  C 0.923943 -0.116407 0.236479
  C 2.390525 0.038162 0.138586
  C 3.143516 0.033638 1.477664
  H 2.446212 0.116505 2.317805
  C 3.076793 0.061969 -1.041487
  H 2.499000 0.012245 -1.985058
  C 4.499149 0.169135 -1.182583
  C 5.121291 0.202884 -2.364546
  O 6.470816 0.256357 -2.541404
  H 0.492544 -0.269340 1.216081
  H 0.378158 -0.492048 -0.610761
  H 1.548299 0.875478 0.095137
  H 3.858732 0.858261 1.542362
  H 3.685453 -0.895044 1.578959
  H 5.103003 0.199502 -0.279547
  H 4.592850 0.164254 -3.320997
  H 6.901899 0.267477 -1.675783
 17
 63.503144
  C 0.912355 -0.130947 0.233622
  C 2.384572 0.047484 0.138035
  C 3.143629 0.040181 1.493572
  H 2.446720 0.131137 2.322129
  C 3.079347 0.054926 -1.047602
  H 2.516154 0.002859 -1.963547
  C 4.496915 0.148693 -1.189122
  C 5.121850 0.183036 -2.373924
  O 6.473313 0.280646 -2.552725
  H 0.476381 -0.287727 1.198981
  H 0.366379 -0.449316 -0.626902
  H 1.604889 0.877858 0.121145
  H 3.856076 0.854283 1.552151
  H 3.683204 -0.899504 1.600928
  H 5.096160 0.188657 -0.292000
  H 4.605092 0.149276 -3.310321
  H 6.903992 0.306733 -1.688315
 17
 67.752938
  C 0.913674 -0.160582 0.236714
  C 2.384120 0.060821 0.148223
  C 3.147249 0.050553 1.494181
  H 2.449084 0.138322 2.323494
  C 3.081962 0.066524 -1.043786
  H 2.506678 0.010437 -1.974353
  C 4.497731 0.168116 -1.184771
  C 5.125199 0.194788 -2.369466
  O 6.475746 0.261429 -2.543378
  H 0.463432 -0.318472 1.198941
  H 0.366305 -0.435147 -0.642635
  H 1.651877 0.874670 0.145352
  H 3.850313 0.865564 1.545750
  H 3.693454 -0.894231 1.593820
  H 5.094326 0.203440 -0.291350
  H 4.603636 0.148665 -3.320914
  H 6.903815 0.283274 -1.677005
 17
 70.236878
  C 0.913320 -0.205001 0.237718
  C 2.376554 0.078058 0.149423
  C 3.156111 0.053371 1.497495
  H 2.460625 0.136524 2.330574
  C 3.081638 0.063942 -1.048801
  H 2.511069 0.003777 -1.967177
  C 4.494938 0.165352 -1.187007
  C 5.127519 0.188538 -2.369746
  O 6.480915 0.264585 -2.538727
  H 0.445162 -0.330542 1.190810
  H 0.349090 -0.410376 -0.651686
  H 1.686193 0.902901 0.159636
  H 3.863179 0.872603 1.544848
  H 3.696555 -0.888972 1.582652
  H 5.090365 0.208552 -0.289576
  H 4.612504 0.142060 -3.315724
  H 6.905366 0.292141 -1.671192
 17
 71.711409
  C 0.918480 -0.246383 0.237835
  C 2.372875 0.092943 0.154794
  C 3.159116 0.052310 1.503652
  H 2.465551 0.140840 2.336769
  C 3.085746 0.052682 -1.050826
  H 2.513241 -0.010620 -1.966298
  C 4.493573 0.152543 -1.187398
  C 5.129608 0.179204 -2.371636
  O 6.481380 0.282982 -2.536820
  H 0.427669 -0.313576 1.186259
  H 0.346371 -0.399127 -0.654601
  H 1.732090 0.942974 0.157931
  H 3.874789 0.865982 1.549667
  H 3.687644 -0.894825 1.582406
  H 5.088740 0.212900 -0.287999
  H 4.616946 0.142621 -3.316525
  H 6.903350 0.316120 -1.668338
 17
 72.291884
  C 0.934243 -0.296887 0.242432
  C 2.369724 0.116626 0.168036
  C 3.154006 0.061033 1.497546
  H 2.462249 0.138828 2.336228
  C 3.088164 0.078176 -1.049304
  H 2.509161 0.013302 -1.966028
  C 4.490048 0.183112 -1.184967
  C 5.130195 0.194871 -2.371243
  O 6.484085 0.256940 -2.533233
  H 0.427948 -0.329007 1.186102
  H 0.362015 -0.416004 -0.656113
  H 1.771643 0.980428 0.165710
  H 3.864773 0.873248 1.549991
  H 3.687154 -0.888428 1.564993
  H 5.086551 0.226673 -0.287308
  H 4.619847 0.134565 -3.315769
  H 6.905241 0.293124 -1.664103
 17
 71.870888
  C 0.944109 -0.343109 0.242355
  C 2.362541 0.134179 0.174815
  C 3.154714 0.066057 1.501035
  H 2.467712 0.148074 2.341124
  C 3.089754 0.081456 -1.051550
  H 2.509892 0.019505 -1.962255
  C 4.488169 0.177266 -1.184445
  C 5.131727 0.194450 -2.371854
  O 6.483324 0.263168 -2.529122
  H 0.421366 -0.326747 1.179021
  H 0.370267 -0.433642 -0.658369
  H 1.815824 1.027969 0.158228
  H 3.878192 0.877873 1.552051
  H 3.674433 -0.882557 1.562394
  H 5.087152 0.228324 -0.282594
  H 4.619983 0.147711 -3.321354
  H 6.902976 0.293535 -1.659492
 17
 70.754258
  C 0.957677 -0.382373 0.247424
  C 2.354795 0.155779 0.179070
  C 3.151891 0.074434 1.504266
  H 2.466863 0.163428 2.345565
  C 3.092443 0.088082 -1.054630
  H 2.512443 0.028490 -1.962150
  C 4.487278 0.173646 -1.184970
  C 5.134824 0.192657 -2.375083
  O 6.485307 0.273717 -2.529597
  H 0.420892 -0.318111 1.174445
  H 0.381278 -0.462455 -0.654161
  H 1.864797 1.080508 0.147546
  H 3.883812 0.875712 1.556159
  H 3.660446 -0.882914 1.562828
  H 5.085319 0.229294 -0.285268
  H 4.625081 0.158557 -3.321627
  H 6.904951 0.304063 -1.659427
