 17
 0.000000
  C 1.000195 0.124640 0.360652
  C 2.460875 0.089947 0.274893
  H 3.032238 0.432162 1.126443
  C 3.106296 -0.362922 -0.851837
  C 4.496349 -0.408484 -0.966578
  C 5.203698 -0.857436 -2.086172
  C 4.592917 -1.357106 -3.331596
  H 3.512913 -1.349142 -3.312523
  O 6.509547 -0.860685 -2.095418
  H 0.649647 0.507246 1.313103
  H 0.588271 -0.874027 0.197873
  H 0.588811 0.733836 -0.447551
  H 2.497224 -0.695827 -1.679707
  H 5.073401 -0.066742 -0.116294
  H 4.952776 -2.368373 -3.522389
  H 4.953233 -0.758478 -4.168452
  H 6.938187 -0.534058 -1.281204
 17
 0.078914
  C 0.983736 0.112598 0.369262
  C 2.441066 0.059170 0.252132
  H 3.031402 0.556213 1.007919
  C 3.084145 -0.517118 -0.815047
  C 4.478628 -0.486445 -0.946621
  C 5.197054 -0.860226 -2.083347
  C 4.589032 -1.311763 -3.348402
  H 3.528131 -1.112834 -3.404861
  O 6.502675 -0.792856 -2.109666
  H 0.661421 0.477594 1.338508
  H 0.537206 -0.860436 0.160942
  H 0.582183 0.777802 -0.397281
  H 2.486169 -0.989786 -1.577288
  H 5.042180 -0.107365 -0.103450
  H 4.758220 -2.380203 -3.457477
  H 5.106336 -0.841088 -4.183872
  H 6.928493 -0.538541 -1.271121
 17
 2.783646
  C 1.009435 0.146777 0.294811
  C 2.463578 0.058950 0.206649
  H 3.042791 0.756686 0.797172
  C 3.126153 -0.732171 -0.694615
  C 4.518581 -0.659085 -0.843979
  C 5.202774 -0.864459 -2.042522
  C 4.540661 -1.178045 -3.325412
  H 3.476951 -0.968623 -3.314032
  O 6.496376 -0.710994 -2.130271
  H 0.689031 0.687969 1.178262
  H 0.550238 -0.839723 0.259202
  H 0.625487 0.682213 -0.576973
  H 2.554760 -1.381069 -1.343158
  H 5.088967 -0.326089 0.014696
  H 4.692368 -2.238035 -3.546935
  H 5.028240 -0.628084 -4.128911
  H 6.964853 -0.575466 -1.285471
 17
 8.217966
  C 1.035700 0.175824 0.179973
  C 2.495225 0.071331 0.093691
  H 3.069287 0.896352 0.497060
  C 3.169142 -0.891562 -0.588852
  C 4.576841 -0.809035 -0.762923
  C 5.200580 -0.842924 -2.002230
  C 4.462856 -1.026880 -3.270250
  H 3.404083 -0.825109 -3.169861
  O 6.483482 -0.645141 -2.146848
  H 0.733756 0.870762 0.957721
  H 0.575049 -0.799075 0.334697
  H 0.638401 0.556132 -0.764804
  H 2.623389 -1.688157 -1.079660
  H 5.172742 -0.588062 0.114659
  H 4.594496 -2.059666 -3.600223
  H 4.901468 -0.401805 -4.044925
  H 7.000074 -0.592852 -1.320284
 17
 14.997903
  C 1.050007 0.159464 0.072677
  C 2.514787 0.080619 -0.042543
  H 3.064362 0.990260 0.165562
  C 3.210155 -0.982595 -0.489815
  C 4.630564 -0.926577 -0.699682
  C 5.198194 -0.817966 -1.959491
  C 4.393209 -0.875920 -3.198013
  H 3.348582 -0.651266 -3.020273
  O 6.475772 -0.623685 -2.144394
  H 0.756451 0.964091 0.740665
  H 0.621886 -0.784664 0.404711
  H 0.613964 0.378867 -0.904495
  H 2.691201 -1.896221 -0.763852
  H 5.263988 -0.874465 0.178130
  H 4.464964 -1.885283 -3.609646
  H 4.813511 -0.209529 -3.947771
  H 7.030957 -0.639271 -1.341169
 17
 17.243989
  C 1.034974 0.150233 -0.033377
  C 2.502767 0.098962 -0.193900
  H 3.030713 1.040580 -0.109138
  C 3.226883 -0.999323 -0.454164
  C 4.654149 -1.022560 -0.672704
  C 5.221619 -0.795225 -1.919162
  C 4.385704 -0.724498 -3.132509
  H 3.360862 -0.459530 -2.894768
  O 6.504336 -0.657949 -2.113775
  H 0.739156 1.002954 0.571033
  H 0.640008 -0.762787 0.406050
  H 0.568289 0.263428 -1.013542
  H 2.757243 -1.977730 -0.381114
  H 5.281951 -1.272721 0.174227
  H 4.371214 -1.707678 -3.612260
  H 4.829633 -0.043777 -3.854217
  H 7.067324 -0.715743 -1.318035
 17
 11.644128
  C 1.057576 0.131070 -0.136378
  C 2.509702 0.059709 -0.351259
  H 3.021838 1.002465 -0.498662
  C 3.256926 -1.067666 -0.342258
  C 4.657819 -1.098778 -0.630093
  C 5.198327 -0.763416 -1.863805
  C 4.354443 -0.616087 -3.067238
  H 3.329794 -0.369291 -2.808969
  O 6.481168 -0.624732 -2.072522
  H 0.765846 1.087138 0.288402
  H 0.692681 -0.682645 0.486559
  H 0.554127 0.038475 -1.102444
  H 2.803557 -2.009293 -0.048318
  H 5.316858 -1.403928 0.174216
  H 4.344601 -1.561329 -3.613504
  H 4.789429 0.122812 -3.736731
  H 7.051627 -0.731849 -1.288901
 17
 6.397645
  C 1.076774 0.111483 -0.202247
  C 2.509549 -0.003715 -0.483490
  H 2.994851 0.889152 -0.859221
  C 3.286363 -1.101406 -0.249285
  C 4.647675 -1.184048 -0.620254
  C 5.172359 -0.736788 -1.830404
  C 4.338961 -0.506347 -3.029269
  H 3.305377 -0.302204 -2.778827
  O 6.452472 -0.588321 -2.034082
  H 0.809701 1.122704 0.095330
  H 0.739158 -0.609015 0.540136
  H 0.523977 -0.098400 -1.123557
  H 2.880612 -1.926240 0.325205
  H 5.320622 -1.643335 0.094675
  H 4.360726 -1.411403 -3.640605
  H 4.769898 0.286971 -3.636052
  H 7.027079 -0.752796 -1.260659
 17
 5.695755
  C 1.099033 0.131069 -0.240611
  C 2.521490 -0.040373 -0.533403
  H 2.996834 0.796526 -1.029139
  C 3.304404 -1.105635 -0.179000
  C 4.630735 -1.258137 -0.621760
  C 5.141266 -0.715917 -1.804770
  C 4.324611 -0.523174 -3.022042
  H 3.260102 -0.526551 -2.821605
  O 6.407226 -0.449087 -1.970067
  H 0.893991 1.136389 0.124521
  H 0.719314 -0.614561 0.453823
  H 0.537593 0.038632 -1.174972
  H 2.930977 -1.813133 0.550642
  H 5.297553 -1.852883 -0.009591
  H 4.542251 -1.358371 -3.692563
  H 4.632964 0.376920 -3.549946
  H 6.983029 -0.626591 -1.202547
 17
 10.807577
  C 1.167402 0.185446 -0.315003
  C 2.613147 0.002650 -0.471468
  H 3.171664 0.882734 -0.766242
  C 3.334712 -1.120681 -0.139566
  C 4.630176 -1.320306 -0.620945
  C 5.082570 -0.682120 -1.794432
  C 4.247830 -0.657790 -3.016055
  H 3.195992 -0.813346 -2.805993
  O 6.280718 -0.205602 -1.951075
  H 0.943844 1.120986 0.196456
  H 0.691291 -0.648934 0.196017
  H 0.720542 0.286313 -1.307213
  H 2.919501 -1.830406 0.559870
  H 5.288238 -2.014584 -0.116821
  H 4.594571 -1.476465 -3.651126
  H 4.411083 0.256325 -3.584150
  H 6.878899 -0.290498 -1.186033
 17
 19.698216
  C 1.286126 0.240729 -0.407144
  C 2.739779 0.045301 -0.401863
  H 3.341799 0.939287 -0.509881
  C 3.387389 -1.137293 -0.061844
  C 4.618921 -1.401081 -0.622982
  C 4.969673 -0.652522 -1.788363
  C 4.157024 -0.761715 -3.014195
  H 3.130322 -1.043179 -2.812757
  O 6.080047 -0.002629 -1.923912
  H 1.003107 1.132442 0.154148
  H 0.747610 -0.627923 -0.033202
  H 0.963446 0.433145 -1.434484
  H 2.938700 -1.813622 0.652042
  H 5.275594 -2.177629 -0.262227
  H 4.611680 -1.552622 -3.616676
  H 4.212577 0.148896 -3.607150
  H 6.690597 -0.022183 -1.158189
 17
 28.789487
  C 1.454275 0.269778 -0.546265
  C 2.893798 0.060062 -0.369208
  H 3.500066 0.952079 -0.313184
  C 3.466601 -1.173053 0.039057
  C 4.610645 -1.486952 -0.612824
  C 4.819349 -0.619815 -1.760695
  C 4.029884 -0.817896 -2.989807
  H 3.034539 -1.200220 -2.793813
  O 5.849207 0.153476 -1.884987
  H 1.109784 1.128963 0.031631
  H 0.875108 -0.613475 -0.290228
  H 1.250426 0.529357 -1.588368
  H 3.000011 -1.792250 0.790732
  H 5.272800 -2.307577 -0.393930
  H 4.562887 -1.564705 -3.585484
  H 3.996942 0.092460 -3.584569
  H 6.472377 0.174068 -1.129968
 17
 32.571065
  C 1.653281 0.258128 -0.727952
  C 3.059164 0.037884 -0.374900
  H 3.639907 0.928612 -0.174535
  C 3.550978 -1.229321 0.137007
  C 4.604608 -1.575945 -0.606460
  C 4.659377 -0.580709 -1.700694
  C 3.895879 -0.825394 -2.946021
  H 2.937237 -1.298036 -2.765181
  O 5.624359 0.287774 -1.807504
  H 1.248865 1.089689 -0.147742
  H 1.049102 -0.632170 -0.580507
  H 1.561944 0.576166 -1.768447
  H 3.079299 -1.788375 0.927525
  H 5.265826 -2.419901 -0.523832
  H 4.492342 -1.508314 -3.558609
  H 3.783815 0.095282 -3.514175
  H 6.260206 0.314209 -1.066125
 17
 32.383637
  C 1.775680 0.223605 -0.837322
  C 3.165057 0.006051 -0.403265
  H 3.692309 0.901623 -0.090382
  C 3.603838 -1.266619 0.187978
  C 4.597904 -1.617392 -0.623551
  C 4.557920 -0.539536 -1.659267
  C 3.850711 -0.824780 -2.940112
  H 2.910999 -1.344101 -2.792109
  O 5.509856 0.363675 -1.769084
  H 1.339352 1.024898 -0.235937
  H 1.172869 -0.676203 -0.751001
  H 1.724609 0.589396 -1.863934
  H 3.148642 -1.789406 1.009223
  H 5.249130 -2.472770 -0.639094
  H 4.505594 -1.473769 -3.528753
  H 3.710575 0.089871 -3.510572
  H 6.149848 0.391267 -1.033297
 17
 32.142458
  C 1.862680 0.185586 -0.916796
  C 3.249801 -0.031368 -0.440574
  H 3.711613 0.856553 -0.011703
  C 3.644654 -1.299947 0.219859
  C 4.588444 -1.639063 -0.651998
  C 4.479267 -0.500710 -1.637177
  C 3.861660 -0.849348 -2.958570
  H 2.917987 -1.370647 -2.849541
  O 5.444036 0.408363 -1.767728
  H 1.409567 0.955118 -0.285499
  H 1.264530 -0.720090 -0.867182
  H 1.824637 0.591248 -1.926087
  H 3.220168 -1.791775 1.072452
  H 5.227006 -2.497594 -0.760235
  H 4.561768 -1.507336 -3.477702
  H 3.747926 0.040192 -3.573557
  H 6.054041 0.476672 -1.010971
