9

H -2.478338671863349 0.7000986156409612 -0.057632496506384426
C -2.066376 0.586476 -0.028277
C -1.651863 -0.475354 0.642335
C -0.236842 -0.946096 0.802378
H 0.07687691748475478 -0.6864366794810756 0.5947323218997518
H -1.361518 1.223916 -0.537547
H -2.384408 -1.09925 1.143229
H -0.010725 -0.99895 1.873006
H -0.172391 -1.967845 0.413533
