 14
 0.000000
  C -0.708638 -2.652913 -0.715710
  C -1.740562 -1.583885 -0.373736
  H -2.336146 -1.884700 0.489383
  C -1.141566 -0.256116 -0.074223
  O 0.041017 -0.023704 -0.000951
  H -1.874603 0.550932 0.086418
  H -1.205069 -3.590934 -0.946996
  H -0.036803 -2.817865 0.121962
  H -0.123722 -2.351152 -1.580286
  H -2.430267 -1.441972 -1.209796
  O 3.276039 0.230683 0.068381
  H 3.430855 1.196538 0.138120
  H 2.316388 0.040035 0.009693
  H 3.680598 -0.254034 0.818909
 14
 -0.931204
  C -0.702127 -2.662053 -0.719604
  C -1.701336 -1.565023 -0.380043
  H -2.306597 -1.855997 0.481896
  C -1.074691 -0.255512 -0.063520
  O 0.111248 -0.037482 0.004318
  H -1.801126 0.559488 0.122333
  H -1.225428 -3.583611 -0.949659
  H -0.038641 -2.846137 0.118457
  H -0.109594 -2.379178 -1.583496
  H -2.399194 -1.413805 -1.206358
  O 3.197035 0.220565 0.066261
  H 3.350212 1.188621 0.095195
  H 2.233331 0.034080 0.014292
  H 3.593627 -0.241204 0.834649
 14
 -1.808681
  C -0.689492 -2.662502 -0.721401
  C -1.669832 -1.552927 -0.372616
  H -2.277659 -1.828688 0.497556
  C -1.024610 -0.251633 -0.060841
  O 0.165222 -0.045530 0.001333
  H -1.737626 0.570196 0.125119
  H -1.228493 -3.579014 -0.951476
  H -0.022030 -2.858326 0.113855
  H -0.098143 -2.386212 -1.588599
  H -2.371610 -1.379687 -1.192723
  O 3.115818 0.202236 0.057539
  H 3.263119 1.170656 0.085993
  H 2.149857 0.013889 0.007018
  H 3.506864 -0.243582 0.838260
 14
 -2.627211
  C -0.658772 -2.647791 -0.718300
  C -1.634962 -1.531983 -0.369993
  H -2.249600 -1.808713 0.492678
  C -0.984341 -0.239089 -0.045422
  O 0.207243 -0.038401 0.015236
  H -1.691714 0.583499 0.154414
  H -1.203142 -3.557629 -0.957010
  H 0.000830 -2.854678 0.120680
  H -0.058585 -2.372162 -1.580677
  H -2.335895 -1.347582 -1.189526
  O 3.015165 0.151244 0.043566
  H 3.169457 1.118130 0.018149
  H 2.042437 -0.027865 0.005544
  H 3.397223 -0.246479 0.853249
 14
 -3.101594
  C -0.598519 -2.605638 -0.701052
  C -1.596391 -1.504116 -0.364501
  H -2.225849 -1.793541 0.481232
  C -0.971700 -0.205317 -0.018725
  O 0.216651 0.014995 0.048402
  H -1.691098 0.604263 0.188992
  H -1.125389 -3.518579 -0.962538
  H 0.041264 -2.815107 0.152711
  H 0.019070 -2.315537 -1.544561
  H -2.282596 -1.324055 -1.198578
  O 2.891155 0.054615 0.006996
  H 3.077438 1.013356 -0.059797
  H 1.906204 -0.087883 -0.007345
  H 3.271785 -0.322365 0.826475
 14
 -3.612103
  C -0.409225 -2.440456 -0.728145
  C -1.533156 -1.476518 -0.370101
  H -2.165906 -1.888008 0.420337
  C -1.066083 -0.147280 0.088148
  O 0.091709 0.189123 0.211286
  H -1.869974 0.568828 0.320490
  H -0.825754 -3.380770 -1.083922
  H 0.200601 -2.650829 0.139847
  H 0.215966 -2.025217 -1.516085
  H -2.198958 -1.309623 -1.224436
  O 2.671206 -0.208488 -0.031073
  H 3.006730 0.691036 -0.220126
  H 1.668691 -0.160795 0.044125
  H 3.055016 -0.549940 0.801665
 14
 -4.022796
  C -0.309798 -2.358104 -0.688807
  C -1.487532 -1.444546 -0.365919
  H -2.131516 -1.888134 0.398792
  C -1.103154 -0.096436 0.112720
  O 0.033414 0.304361 0.258973
  H -1.949129 0.574065 0.326589
  H -0.674811 -3.305961 -1.070911
  H 0.273422 -2.559998 0.205116
  H 0.328591 -1.911108 -1.448478
  H -2.128014 -1.302719 -1.239006
  O 2.519667 -0.378483 -0.074287
  H 2.932752 0.444519 -0.401829
  H 1.527511 -0.212102 0.048441
  H 2.922252 -0.643864 0.776046
 14
 -4.000896
  C -0.232120 -2.311242 -0.668753
  C -1.430429 -1.422975 -0.360763
  H -2.073969 -1.880387 0.397061
  C -1.106624 -0.059572 0.111029
  O 0.003257 0.410214 0.249599
  H -1.985847 0.556760 0.348001
  H -0.577285 -3.267913 -1.047638
  H 0.344300 -2.499563 0.232328
  H 0.401662 -1.861863 -1.427102
  H -2.070377 -1.305830 -1.242538
  O 2.378635 -0.476927 -0.107242
  H 2.863669 0.302190 -0.447905
  H 1.399565 -0.192107 0.035945
  H 2.786934 -0.778813 0.727373
 14
 -2.851291
  C -0.208357 -2.321896 -0.655764
  C -1.396145 -1.417968 -0.363804
  H -2.059276 -1.866785 0.381445
  C -1.075477 -0.057069 0.111985
  O 0.030622 0.422070 0.278976
  H -1.953039 0.572072 0.317591
  H -0.564968 -3.272242 -1.040061
  H 0.354774 -2.520608 0.248445
  H 0.446059 -1.880807 -1.408345
  H -2.026042 -1.294390 -1.255669
  O 2.306840 -0.491356 -0.125660
  H 2.789633 0.276691 -0.488867
  H 1.310221 -0.192479 0.044259
  H 2.739874 -0.784293 0.696597
 14
 0.248452
  C -0.177578 -2.324772 -0.647816
  C -1.367547 -1.418110 -0.371095
  H -2.038818 -1.863402 0.369806
  C -1.058627 -0.065211 0.093972
  O 0.049443 0.432696 0.275132
  H -1.927447 0.579316 0.294979
  H -0.529232 -3.281112 -1.023534
  H 0.384101 -2.514294 0.259086
  H 0.481998 -1.894478 -1.398181
  H -1.994889 -1.305617 -1.265280
  O 2.290914 -0.513821 -0.143849
  H 2.779925 0.242997 -0.495665
  H 1.105578 -0.151516 0.063534
  H 2.736259 -0.826362 0.659144
 14
 1.156225
  C -0.160268 -2.327455 -0.630263
  C -1.361567 -1.425313 -0.383437
  H -2.050573 -1.874793 0.342045
  C -1.074644 -0.074548 0.076663
  O 0.028906 0.442828 0.267981
  H -1.937075 0.567903 0.271009
  H -0.495720 -3.286674 -1.013828
  H 0.380525 -2.512560 0.291946
  H 0.517970 -1.897409 -1.359549
  H -1.973571 -1.324011 -1.288594
  O 2.318206 -0.520590 -0.151027
  H 2.821424 0.228221 -0.506224
  H 0.958216 -0.106921 0.082454
  H 2.806525 -0.873951 0.596930
 14
 0.993395
  C -0.157478 -2.330206 -0.629210
  C -1.356696 -1.422855 -0.386337
  H -2.055185 -1.873935 0.329699
  C -1.070475 -0.075253 0.084150
  O 0.030631 0.444962 0.279799
  H -1.937290 0.561940 0.284142
  H -0.494878 -3.283131 -1.020880
  H 0.375051 -2.524394 0.296585
  H 0.530355 -1.898515 -1.351700
  H -1.958344 -1.312132 -1.297082
  O 2.302049 -0.531690 -0.151422
  H 2.800131 0.199032 -0.549440
  H 0.977911 -0.100809 0.091007
  H 2.792572 -0.838289 0.616795
