9

C 1.007536 -0.071605 0.046749
C 2.503489 -0.082828 0.02625
C 3.219158 -0.595557 -0.980424
H 4.2890182015633895 -0.6031676338343686 -0.9959554958514285
H 0.645993 0.393701 0.963115
H 0.611124 -1.086219 0.006975
H 0.612074 0.496459 -0.795518
H 3.003542 0.352132 0.881802
H 2.708172 -1.029878 -1.831073
