 9
 0.000000
  C 1.008249 -0.071921 0.045476
  C 2.506865 -0.085982 0.018843
  C 3.212412 -0.592671 -0.974547
  H 4.285291 -0.599242 -0.987513
  H 0.649486 0.392325 0.962379
  H 0.611181 -1.085180 0.004519
  H 0.610447 0.495626 -0.795042
  H 3.009440 0.347834 0.872460
  H 2.706734 -1.027753 -1.824654
 9
 1.305382
  C 1.036663 -0.085801 0.049385
  C 2.530671 -0.090637 0.076542
  C 3.182439 -0.566348 -0.961387
  H 4.248898 -0.608473 -1.045078
  H 0.602384 0.437161 0.899386
  H 0.651361 -1.108271 0.037185
  H 0.729118 0.393242 -0.884162
  H 3.034463 0.325850 0.940186
  H 2.584556 -0.923587 -1.789666
 9
 4.149538
  C 1.053944 -0.100686 0.046387
  C 2.546250 -0.111795 0.124016
  C 3.164780 -0.534533 -0.959848
  H 4.228150 -0.608456 -1.100364
  H 0.569705 0.509879 0.808243
  H 0.668096 -1.122470 0.123273
  H 0.835671 0.254394 -0.963821
  H 3.045572 0.269019 1.000310
  H 2.485085 -0.783428 -1.767910
 9
 8.689275
  C 1.067140 -0.115733 0.040753
  C 2.556081 -0.130625 0.158488
  C 3.149294 -0.498422 -0.962344
  H 4.199628 -0.589514 -1.151369
  H 0.555505 0.571161 0.701506
  H 0.670230 -1.118866 0.207939
  H 0.939518 0.122054 -1.022506
  H 3.054606 0.199893 1.057957
  H 2.399001 -0.668545 -1.741300
 9
 14.927817
  C 1.074260 -0.132693 0.035801
  C 2.561070 -0.151361 0.178313
  C 3.137057 -0.463339 -0.969445
  H 4.181384 -0.558317 -1.195062
  H 0.548671 0.632861 0.601510
  H 0.656812 -1.102553 0.294117
  H 1.031126 -0.007385 -1.068400
  H 3.058425 0.120885 1.097949
  H 2.334058 -0.567689 -1.713371
 9
 24.364953
  C 1.082864 -0.143697 0.028517
  C 2.563929 -0.161287 0.190540
  C 3.127775 -0.439073 -0.974596
  H 4.165064 -0.536899 -1.225257
  H 0.552645 0.661174 0.530544
  H 0.642807 -1.090486 0.334321
  H 1.117967 -0.083917 -1.097685
  H 3.058640 0.074874 1.122152
  H 2.262483 -0.510782 -1.678477
 9
 35.457433
  C 1.084943 -0.151532 0.022355
  C 2.566265 -0.170888 0.196600
  C 3.128367 -0.415647 -0.979616
  H 4.160963 -0.513362 -1.252473
  H 0.557264 0.685584 0.466593
  H 0.627991 -1.075281 0.369174
  H 1.183045 -0.148056 -1.121357
  H 3.056191 0.027647 1.138518
  H 2.199259 -0.469887 -1.643498
 9
 47.315019
  C 1.085483 -0.159658 0.021416
  C 2.563935 -0.181806 0.194987
  C 3.129842 -0.399880 -0.985812
  H 4.162508 -0.484558 -1.264489
  H 0.566108 0.708614 0.417035
  H 0.610883 -1.057376 0.404523
  H 1.232266 -0.205510 -1.148809
  H 3.052790 -0.016750 1.146013
  H 2.148416 -0.437511 -1.623933
 9
 59.211822
  C 1.086103 -0.166684 0.020857
  C 2.562278 -0.190978 0.191440
  C 3.134557 -0.380401 -0.989359
  H 4.167082 -0.470746 -1.269129
  H 0.577428 0.720025 0.390039
  H 0.595921 -1.045879 0.421080
  H 1.266282 -0.232935 -1.177876
  H 3.047279 -0.041747 1.147976
  H 2.102154 -0.427432 -1.610359
 9
 69.004405
  C 1.082094 -0.171181 0.027123
  C 2.560872 -0.202832 0.186910
  C 3.143137 -0.362221 -0.992909
  H 4.178329 -0.439224 -1.268424
  H 0.591998 0.741275 0.354216
  H 0.574901 -1.028917 0.454788
  H 1.281423 -0.276136 -1.209338
  H 3.042710 -0.086134 1.148148
  H 2.067765 -0.415114 -1.613594
 9
 79.009366
  C 1.079659 -0.173861 0.036775
  C 2.558108 -0.202378 0.177804
  C 3.153732 -0.353788 -0.991288
  H 4.191696 -0.435995 -1.252409
  H 0.597414 0.748364 0.346110
  H 0.569121 -1.024120 0.473146
  H 1.286897 -0.290352 -1.252606
  H 3.036962 -0.106033 1.140308
  H 2.030468 -0.407230 -1.632894
 9
 89.667039
  C 1.074328 -0.176070 0.058231
  C 2.552500 -0.209878 0.167353
  C 3.174232 -0.362375 -0.985982
  H 4.218442 -0.429871 -1.229091
  H 0.600580 0.755256 0.355123
  H 0.562245 -1.021669 0.500730
  H 1.279789 -0.301512 -1.320765
  H 3.027846 -0.114424 1.132053
  H 1.989379 -0.393450 -1.682286
 9
 100.042181
  C 1.072487 -0.172926 0.084917
  C 2.542524 -0.225983 0.151565
  C 3.200777 -0.366270 -0.976844
  H 4.250735 -0.411478 -1.197623
  H 0.614809 0.767288 0.373417
  H 0.553903 -1.015268 0.526675
  H 1.257585 -0.312993 -1.405658
  H 3.011567 -0.125704 1.120932
  H 1.939765 -0.390183 -1.750913
 9
 109.041616
  C 1.071154 -0.164640 0.119604
  C 2.530249 -0.218949 0.125202
  C 3.233845 -0.353254 -0.964344
  H 4.288050 -0.415987 -1.149207
  H 0.618374 0.777736 0.405353
  H 0.559746 -1.013757 0.556561
  H 1.216009 -0.315713 -1.519191
  H 2.989260 -0.147058 1.103430
  H 1.881520 -0.388075 -1.853570
