19
 0
 C -2.97129880 -1.06349811 1.99507669
 C -2.84458709 -1.69875363 0.61578116
 C -4.20419538 -1.71735872 -0.08082969
 C -1.80862369 -1.07182961 -0.31886362
 C -1.07567953 0.18967116 0.05982153
 O -1.57760259 -1.59082321 -1.41705822
 H -3.68332371 -1.62122751 2.61325951
 H -3.32713443 -0.02942754 1.93163043
 H -2.01023268 -1.06512704 2.51988064
 H -2.51524863 -2.73512018 0.76729818
 H -4.55744795 -0.70082931 -0.28582131
 H -4.95374595 -2.22346377 0.53685332
 H -4.15053196 -2.24690307 -1.03830357
 H -1.29674673 0.53414504 1.06834779
 H -1.35018768 0.98296072 -0.64060434
 H 0.00000000 0.00000000 0.00000000
 O 2.40000000 0.00000000 0.00000000
 H 2.96165789 -0.45890637 -0.64258244
 H 3.01189510 0.25197749 0.70784698
