 25
 0.000000
  C 0.930629 0.047740 0.289681
  C 2.420593 0.059952 0.073181
  C 3.241024 -0.011365 1.337159
  H 2.634626 -0.062067 2.235647
  C 3.002170 0.128421 -1.140201
  C 2.351096 0.205519 -2.506559
  C 0.838091 0.217062 -2.711072
  C 0.515888 0.301141 -4.201133
  C 4.463554 0.133718 -1.234018
  C 5.201356 0.196024 -2.338300
  H 6.279119 0.194347 -2.308517
  H 0.658941 -0.011711 1.343225
  H 0.475448 -0.813279 -0.193238
  H 0.475450 0.957621 -0.093309
  H 3.882995 0.866340 1.420325
  H 3.882997 -0.892853 1.321061
  H 2.739851 -0.642462 -3.081260
  H 2.739851 1.112773 -2.982218
  H 0.387973 1.076927 -2.216505
  H 0.387976 -0.692980 -2.316376
  H 0.928150 1.209490 -4.635993
  H -0.561330 0.309748 -4.353664
  H 0.928150 -0.552524 -4.735416
  H 5.004439 0.081106 -0.301605
  H 4.812192 0.252610 -3.341102
 25
 3.612135
  C 0.929974 0.049107 0.265452
  C 2.395346 0.060573 0.062189
  C 3.227310 -0.010749 1.326241
  H 2.601206 -0.060829 2.213729
  C 2.993576 0.128503 -1.141657
  C 2.347856 0.205752 -2.510696
  C 0.834187 0.217100 -2.711755
  C 0.513486 0.301204 -4.202265
  C 4.453358 0.133421 -1.228784
  C 5.200220 0.195518 -2.329326
  H 6.276363 0.192031 -2.267435
  H 0.901512 -0.010433 1.320581
  H 0.433096 -0.814965 -0.176736
  H 0.433097 0.957443 -0.076724
  H 3.867861 0.866431 1.422690
  H 3.867864 -0.893209 1.323402
  H 2.740139 -0.642117 -3.083373
  H 2.740140 1.112663 -2.984353
  H 0.385107 1.076846 -2.215225
  H 0.385107 -0.693051 -2.315096
  H 0.928687 1.209218 -4.634962
  H -0.563050 0.310069 -4.359396
  H 0.928678 -0.552358 -4.734354
  H 4.985507 0.080497 -0.290806
  H 4.809463 0.251990 -3.330135
 25
 12.359152
  C 0.901785 0.050243 0.245316
  C 2.372884 0.060966 0.055285
  C 3.221626 -0.010438 1.320726
  H 2.617571 -0.061321 2.222443
  C 2.996131 0.128696 -1.145019
  C 2.354457 0.206524 -2.524350
  C 0.837177 0.217492 -2.718767
  C 0.507289 0.301450 -4.206662
  C 4.447457 0.132953 -1.220442
  C 5.188296 0.193832 -2.299394
  H 6.262509 0.189457 -2.221817
  H 1.089558 -0.008483 1.286020
  H 0.389731 -0.829554 -0.154661
  H 0.389732 0.969454 -0.053146
  H 3.859135 0.867206 1.412609
  H 3.859142 -0.892846 1.313295
  H 2.747405 -0.641921 -3.097313
  H 2.747386 1.113995 -2.998205
  H 0.393707 1.075472 -2.219062
  H 0.393724 -0.691227 -2.318766
  H 0.921112 1.209200 -4.641386
  H -0.570060 0.310035 -4.358816
  H 0.921101 -0.551611 -4.740728
  H 4.975165 0.079789 -0.278167
  H 4.797932 0.250307 -3.300315
 25
 25.357890
  C 0.859869 0.050809 0.235346
  C 2.349658 0.060682 0.060356
  C 3.198795 -0.009706 1.307765
  H 2.608338 -0.061484 2.225355
  C 2.985940 0.128156 -1.135414
  C 2.353772 0.205579 -2.507533
  C 0.841369 0.216851 -2.707328
  C 0.517508 0.300950 -4.197724
  C 4.454367 0.132590 -1.213991
  C 5.203805 0.194493 -2.311120
  H 6.279716 0.190325 -2.237283
  H 1.214998 -0.005156 1.227125
  H 0.352520 -0.827317 -0.134090
  H 0.352522 0.964927 -0.032956
  H 3.835693 0.870236 1.390839
  H 3.835718 -0.893431 1.291320
  H 2.749779 -0.645858 -3.079484
  H 2.749772 1.115951 -2.980066
  H 0.396131 1.076044 -2.208068
  H 0.396126 -0.693067 -2.307892
  H 0.933180 1.208491 -4.631069
  H -0.559080 0.309774 -4.354112
  H 0.933188 -0.552090 -4.730425
  H 4.986482 0.079535 -0.273659
  H 4.809626 0.251120 -3.314806
 25
 40.240220
  C 0.833613 0.050981 0.232242
  C 2.340017 0.060447 0.064511
  C 3.196962 -0.009265 1.299991
  H 2.620399 -0.061491 2.225575
  C 2.988081 0.127779 -1.128750
  C 2.355864 0.205428 -2.504808
  C 0.840710 0.216707 -2.704706
  C 0.517498 0.300860 -4.196122
  C 4.454484 0.132034 -1.204218
  C 5.208689 0.193733 -2.297715
  H 6.284365 0.189274 -2.218764
  H 1.311254 -0.000960 1.152739
  H 0.323610 -0.831001 -0.116062
  H 0.323607 0.966553 -0.014631
  H 3.832545 0.871374 1.375234
  H 3.832595 -0.892815 1.275683
  H 2.751662 -0.647267 -3.075506
  H 2.751700 1.116970 -2.975994
  H 0.394760 1.076688 -2.203790
  H 0.394728 -0.694216 -2.303685
  H 0.933414 1.208502 -4.629564
  H -0.559152 0.309712 -4.352941
  H 0.933424 -0.552291 -4.728931
  H 4.985832 0.078853 -0.261734
  H 4.819601 0.250707 -3.307438
 25
 52.625764
  C 0.804529 0.051749 0.218702
  C 2.335428 0.060369 0.065888
  C 3.216127 -0.010839 1.327850
  H 2.640916 -0.063561 2.262201
  C 2.975904 0.127790 -1.128978
  C 2.345808 0.205404 -2.504526
  C 0.838252 0.216983 -2.709685
  C 0.522653 0.300970 -4.198089
  C 4.446773 0.131969 -1.202971
  C 5.200376 0.193623 -2.295661
  H 6.276938 0.189177 -2.216692
  H 1.388087 0.001826 1.103408
  H 0.309299 -0.833879 -0.128771
  H 0.309305 0.970841 -0.026933
  H 3.853984 0.871144 1.400849
  H 3.854002 -0.895460 1.301163
  H 2.742050 -0.644592 -3.073199
  H 2.742014 1.113910 -2.973939
  H 0.393709 1.071571 -2.213602
  H 0.393715 -0.687972 -2.312888
  H 0.940356 1.208330 -4.629375
  H -0.552439 0.310049 -4.359003
  H 0.940344 -0.552098 -4.728699
  H 4.977777 0.078817 -0.260849
  H 4.812902 0.250331 -3.300690
 25
 63.952503
  C 0.788835 0.050811 0.235264
  C 2.339384 0.059597 0.079430
  C 3.221993 -0.010993 1.330446
  H 2.654181 -0.063079 2.253560
  C 2.977072 0.127088 -1.116691
  C 2.349672 0.204864 -2.494963
  C 0.833412 0.217212 -2.713735
  C 0.528899 0.301847 -4.213551
  C 4.446426 0.131542 -1.195579
  C 5.195688 0.193454 -2.292754
  H 6.271818 0.189314 -2.219198
  H 1.450936 0.004215 1.060967
  H 0.303007 -0.843181 -0.107724
  H 0.303015 0.977719 -0.004977
  H 3.853783 0.864744 1.399567
  H 3.853761 -0.888923 1.300620
  H 2.747575 -0.639767 -3.057564
  H 2.747593 1.107442 -2.958984
  H 0.379034 1.083835 -2.214431
  H 0.379013 -0.700104 -2.315088
  H 0.951342 1.211035 -4.642729
  H -0.546724 0.311461 -4.383840
  H 0.951350 -0.553319 -4.742312
  H 4.976444 0.078985 -0.264022
  H 4.804010 0.249889 -3.292800
 25
 73.269542
  C 0.767134 0.051208 0.228515
  C 2.337475 0.059578 0.079909
  C 3.226486 -0.011328 1.336505
  H 2.652440 -0.063424 2.259893
  C 2.973714 0.127035 -1.115754
  C 2.340058 0.204974 -2.497117
  C 0.838835 0.217019 -2.710529
  C 0.535026 0.301056 -4.199545
  C 4.451334 0.131645 -1.197302
  C 5.198175 0.193455 -2.292783
  H 6.279895 0.189339 -2.219194
  H 1.490689 0.006772 1.015923
  H 0.296051 -0.846393 -0.120456
  H 0.296084 0.982353 -0.017262
  H 3.858692 0.868148 1.405006
  H 3.858658 -0.892928 1.305648
  H 2.734627 -0.637284 -3.060231
  H 2.734515 1.105056 -2.961774
  H 0.391782 1.071728 -2.216281
  H 0.391826 -0.687841 -2.315621
  H 0.956434 1.209328 -4.628309
  H -0.539650 0.310527 -4.367601
  H 0.956411 -0.553127 -4.727747
  H 4.987690 0.078706 -0.258596
  H 4.805614 0.249898 -3.292954
 25
 81.364894
  C 0.750491 0.050665 0.238371
  C 2.342472 0.058986 0.090358
  C 3.236662 -0.012034 1.348914
  H 2.656517 -0.064402 2.277369
  C 2.976107 0.126557 -1.107499
  C 2.349901 0.204313 -2.485515
  C 0.841263 0.216989 -2.710141
  C 0.545551 0.301773 -4.212245
  C 4.441881 0.131536 -1.195728
  C 5.180185 0.193941 -2.301609
  H 6.258359 0.190462 -2.238695
  H 1.528704 0.008273 0.989454
  H 0.293954 -0.848671 -0.118553
  H 0.293996 0.984452 -0.015120
  H 3.871608 0.873291 1.415706
  H 3.871578 -0.899294 1.315699
  H 2.751350 -0.644127 -3.049890
  H 2.751294 1.110794 -2.950790
  H 0.387305 1.078803 -2.214786
  H 0.387320 -0.695104 -2.314916
  H 0.970541 1.211199 -4.639197
  H -0.529943 0.311677 -4.387957
  H 0.970535 -0.553794 -4.738800
  H 4.982627 0.079080 -0.265305
  H 4.777677 0.250142 -3.296889
 25
 88.546293
  C 0.735098 0.049665 0.256507
  C 2.343035 0.058884 0.092254
  C 3.250055 -0.011659 1.342288
  H 2.677550 -0.063876 2.268404
  C 2.965858 0.126828 -1.112497
  C 2.343566 0.204163 -2.483253
  C 0.846038 0.217075 -2.711766
  C 0.559062 0.301615 -4.209494
  C 4.429529 0.131493 -1.195347
  C 5.174440 0.193593 -2.295650
  H 6.265785 0.189637 -2.222705
  H 1.558998 0.010205 0.955548
  H 0.291144 -0.854416 -0.113815
  H 0.291234 0.989626 -0.009758
  H 3.884495 0.874147 1.402655
  H 3.884450 -0.898687 1.302651
  H 2.742456 -0.635186 -3.039579
  H 2.742301 1.100492 -2.941437
  H 0.391729 1.075779 -2.219946
  H 0.391750 -0.691489 -2.319715
  H 0.988015 1.214573 -4.635514
  H -0.518633 0.311786 -4.389879
  H 0.987929 -0.557452 -4.735438
  H 4.963513 0.078800 -0.259997
  H 4.775397 0.250530 -3.302845
 25
 94.503652
  C 0.710721 0.050476 0.242057
  C 2.361446 0.058824 0.092840
  C 3.262601 -0.012431 1.355684
  H 2.677182 -0.064321 2.276310
  C 2.979889 0.126626 -1.109733
  C 2.351205 0.204227 -2.484801
  C 0.834541 0.216968 -2.709636
  C 0.539394 0.301299 -4.203938
  C 4.453072 0.131263 -1.192786
  C 5.199442 0.193331 -2.291676
  H 6.269394 0.189440 -2.217338
  H 1.580264 0.012020 0.923273
  H 0.293869 -0.847612 -0.155636
  H 0.293945 0.987640 -0.052125
  H 3.894473 0.870765 1.423137
  H 3.894412 -0.897670 1.323409
  H 2.755741 -0.648775 -3.051438
  H 2.755815 1.115568 -2.951905
  H 0.382287 1.073390 -2.217245
  H 0.382212 -0.689402 -2.316704
  H 0.962606 1.207798 -4.629321
  H -0.532894 0.311140 -4.377746
  H 0.962546 -0.551629 -4.728606
  H 4.985159 0.078591 -0.257224
  H 4.809119 0.249689 -3.285837
 25
 100.083106
  C 0.688766 0.049562 0.258482
  C 2.377050 0.058275 0.102738
  C 3.270721 -0.013144 1.368636
  H 2.675509 -0.064984 2.288423
  C 2.983902 0.126241 -1.102832
  C 2.353193 0.203869 -2.478356
  C 0.840562 0.216871 -2.707518
  C 0.549259 0.301595 -4.209112
  C 4.452274 0.131503 -1.197104
  C 5.187220 0.194009 -2.303498
  H 6.270215 0.190775 -2.240447
  H 1.598484 0.013667 0.894315
  H 0.300601 -0.844827 -0.173123
  H 0.300697 0.986781 -0.069785
  H 3.903848 0.873002 1.441161
  H 3.903813 -0.901913 1.341077
  H 2.757114 -0.647495 -3.042615
  H 2.757166 1.113178 -2.943250
  H 0.385911 1.073069 -2.216195
  H 0.385812 -0.689122 -2.315599
  H 0.976765 1.214189 -4.636417
  H -0.529046 0.311706 -4.387382
  H 0.976654 -0.557149 -4.736312
  H 4.996068 0.078901 -0.262807
  H 4.784253 0.250395 -3.297728
 25
 104.777183
  C 0.649319 0.047496 0.293539
  C 2.395938 0.058182 0.106173
  C 3.288264 -0.012720 1.361869
  H 2.693365 -0.064460 2.276902
  C 2.983220 0.126624 -1.104734
  C 2.349248 0.204373 -2.483051
  C 0.845462 0.217258 -2.714836
  C 0.563327 0.301450 -4.205999
  C 4.456194 0.131994 -1.197404
  C 5.194144 0.194121 -2.301257
  H 6.261995 0.189625 -2.235279
  H 1.612068 0.015234 0.865312
  H 0.288819 -0.843163 -0.182303
  H 0.288657 0.986155 -0.078910
  H 3.920993 0.872035 1.433637
  H 3.921209 -0.899970 1.333501
  H 2.749969 -0.641581 -3.044315
  H 2.749639 1.108117 -2.945391
  H 0.386693 1.079041 -2.222565
  H 0.386899 -0.694710 -2.322681
  H 0.987161 1.202779 -4.626446
  H -0.499844 0.311498 -4.386556
  H 0.987414 -0.546689 -4.725270
  H 4.993755 0.079243 -0.266638
  H 4.792997 0.250108 -3.304942
 25
 109.783729
  C 0.583059 0.047074 0.309354
  C 2.420194 0.057739 0.104501
  C 3.309615 -0.012959 1.361679
  H 2.712112 -0.063795 2.274904
  C 2.997159 0.125459 -1.107871
  C 2.359116 0.203312 -2.484732
  C 0.857127 0.217161 -2.711239
  C 0.568797 0.301472 -4.208341
  C 4.467049 0.130174 -1.206002
  C 5.200675 0.193605 -2.312519
  H 6.276973 0.194748 -2.249537
  H 1.620411 0.016804 0.842097
  H 0.238593 -0.837159 -0.192232
  H 0.239412 0.982069 -0.090618
  H 3.942488 0.870564 1.435723
  H 3.941691 -0.899703 1.336694
  H 2.762800 -0.645174 -3.045758
  H 2.764223 1.108712 -2.947305
  H 0.403434 1.078324 -2.217854
  H 0.402142 -0.693119 -2.317406
  H 0.992368 1.204188 -4.631375
  H -0.498079 0.312250 -4.386039
  H 0.991072 -0.548836 -4.729874
  H 5.009098 0.079026 -0.274020
  H 4.795703 0.254010 -3.313073
