 20
 0.000000
  C 0.996384 0.132972 0.381868
  C 2.475139 0.140018 0.399085
  C 3.241227 0.613797 1.578372
  C 2.445071 1.099206 2.786946
  H 3.098730 1.415018 3.573007
  C 3.096863 -0.322475 -0.752613
  C 4.472906 -0.413204 -0.978851
  C 5.132414 -0.867699 -2.111643
  H 4.763744 -1.241749 -3.043882
  O 6.457488 -0.870547 -2.119086
  H 0.547238 0.500715 1.297563
  H 0.632250 -0.881396 0.212641
  H 0.631990 0.748397 -0.441931
  H 3.897288 1.429656 1.253616
  H 3.897458 -0.199872 1.908184
  H 1.806291 0.298662 3.165430
  H 1.806160 1.939037 2.506526
  H 2.436796 -0.639606 -1.542199
  H 5.100515 -0.083792 -0.158214
  H 6.834017 -0.535875 -1.285013
 20
 0.000000
  C 1.021468 0.117619 0.343632
  C 2.530260 0.127848 0.368771
  C 3.289462 0.603165 1.551887
  C 2.486272 1.086963 2.756447
  H 3.135340 1.404088 3.545778
  C 3.121301 -0.320167 -0.746870
  C 4.432442 -0.406621 -0.962463
  C 5.064505 -0.845487 -2.056314
  H 4.711408 -1.221617 -2.993733
  O 6.326521 -0.832159 -2.023464
  H 0.566990 0.484452 1.257058
  H 0.660233 -0.897480 0.172584
  H 0.659974 0.732312 -0.481990
  H 3.945500 1.420346 1.230424
  H 3.945668 -0.209182 1.884993
  H 1.847215 0.285131 3.131723
  H 1.847086 1.925506 2.472818
  H 2.458048 -0.636374 -1.534153
  H 5.061446 -0.077575 -0.142747
  H 6.658831 -0.479503 -1.144575
 20
 0.000000
  C 1.044730 0.102053 0.304864
  C 2.586992 0.116030 0.339333
  C 3.338364 0.593072 1.526746
  C 2.527231 1.075027 2.726715
  H 3.171072 1.393629 3.519724
  C 3.149156 -0.317963 -0.741386
  C 4.395086 -0.400680 -0.947672
  C 5.000297 -0.824522 -2.004088
  H 4.662595 -1.202609 -2.946383
  O 6.198308 -0.796649 -1.935010
  H 0.584227 0.467841 1.215689
  H 0.686793 -0.913868 0.131771
  H 0.686537 0.715923 -0.522805
  H 3.994352 1.411751 1.209015
  H 3.994518 -0.217776 1.863586
  H 1.887881 0.271736 3.098355
  H 1.887754 1.912110 2.439449
  H 2.482355 -0.633132 -1.526085
  H 5.026184 -0.072186 -0.129346
  H 6.482061 -0.424511 -1.007576
 20
 0.000000
  C 1.065875 0.086265 0.265547
  C 2.645302 0.104604 0.310872
  C 3.387904 0.583550 1.503028
  C 2.567943 1.063428 2.697820
  H 3.205924 1.383664 3.494898
  C 3.180389 -0.315862 -0.736161
  C 4.361135 -0.395280 -0.934230
  C 4.940059 -0.804770 -1.954888
  H 4.617351 -1.184672 -2.901699
  O 6.073414 -0.764106 -1.853949
  H 0.598668 0.450873 1.173427
  H 0.711633 -0.930563 0.090193
  H 0.711379 0.699227 -0.564385
  H 4.043808 1.403901 1.189460
  H 4.043971 -0.225625 1.844033
  H 1.928296 0.258507 3.065401
  H 1.928171 1.898881 2.406493
  H 2.509724 -0.629892 -1.518019
  H 4.995044 -0.067533 -0.117778
  H 6.303355 -0.371286 -0.874974
 20
 0.000000
  C 1.083700 0.070205 0.225550
  C 2.705665 0.093664 0.283622
  C 3.438410 0.574716 1.481020
  C 2.608615 1.052242 2.669953
  H 3.240001 1.374288 3.471542
  C 3.215504 -0.313888 -0.731251
  C 4.331030 -0.390449 -0.922205
  C 4.884148 -0.786406 -1.909141
  H 4.575817 -1.167963 -2.860071
  O 5.952214 -0.734738 -1.780795
  H 0.609015 0.433470 1.130086
  H 0.733614 -0.947628 0.047694
  H 0.733362 0.682161 -0.606887
  H 4.094184 1.396937 1.172112
  H 4.094344 -0.232588 1.826686
  H 1.968671 0.245496 3.032989
  H 1.968548 1.885869 2.374080
  H 2.540568 -0.626646 -1.509938
  H 4.968668 -0.063702 -0.108259
  H 6.121862 -0.319625 -0.746267
 20
 0.000000
  C 1.096609 0.054063 0.185353
  C 2.767510 0.083478 0.258249
  C 3.489357 0.566814 1.461336
  C 2.648794 1.041719 2.643740
  H 3.272880 1.365737 3.450238
  C 3.254365 -0.312107 -0.726823
  C 4.305819 -0.386281 -0.911830
  C 4.833971 -0.769894 -1.868009
  H 4.538907 -1.152906 -2.822558
  O 5.837303 -0.709205 -1.717195
  H 0.613727 0.415827 1.086146
  H 0.751121 -0.964861 0.004777
  H 0.750872 0.664927 -0.649806
  H 4.144942 1.391094 1.157555
  H 4.145100 -0.238431 1.812131
  H 2.008565 0.232964 3.001771
  H 2.008446 1.873336 2.342861
  H 2.574754 -0.623457 -1.502002
  H 4.948215 -0.060822 -0.101113
  H 5.939879 -0.270290 -0.623352
 20
 0.000000
  C 1.103712 0.037769 0.144775
  C 2.830974 0.074117 0.234932
  C 3.540832 0.559915 1.444149
  C 2.688550 1.031912 2.619309
  H 3.304594 1.358062 3.431116
  C 3.297061 -0.310520 -0.722876
  C 4.285810 -0.382707 -0.902938
  C 4.789784 -0.755250 -1.831532
  H 4.506654 -1.139512 -2.789187
  O 5.729137 -0.687481 -1.663083
  H 0.611896 0.397858 1.041398
  H 0.763285 -0.982335 -0.038737
  H 0.763039 0.647452 -0.693323
  H 4.196158 1.386447 1.145978
  H 4.196313 -0.243077 1.800556
  H 2.048062 0.220956 2.971859
  H 2.047945 1.861328 2.312947
  H 2.612357 -0.620318 -1.494187
  H 4.934074 -0.058859 -0.096254
  H 5.756688 -0.223370 -0.506452
 20
 0.000000
  C 1.102910 0.021361 0.103917
  C 2.895950 0.065824 0.214273
  C 3.592669 0.554258 1.430055
  C 2.727693 1.023039 2.597205
  H 3.334909 1.351481 3.414722
  C 3.343756 -0.309169 -0.719521
  C 4.271892 -0.379805 -0.895719
  C 4.752644 -0.742869 -1.800690
  H 4.479690 -1.128154 -2.760886
  O 5.629441 -0.669967 -1.619459
  H 0.601402 0.379591 0.995906
  H 0.768034 -1.000009 -0.082747
  H 0.767791 0.629778 -0.737336
  H 4.247649 1.383245 1.137999
  H 4.247801 -0.246278 1.792578
  H 2.086984 0.209683 2.943777
  H 2.086870 1.850054 2.284863
  H 2.653483 -0.617249 -1.486547
  H 4.927313 -0.057954 -0.094030
  H 5.573089 -0.179045 -0.396018
 20
 0.000000
  C 1.092183 0.004889 0.062901
  C 2.962082 0.058849 0.196897
  C 3.644533 0.550075 1.419632
  C 2.765948 1.015329 2.577998
  H 3.363561 1.346210 3.401588
  C 3.394317 -0.308081 -0.716818
  C 4.264771 -0.377622 -0.890289
  C 4.723404 -0.733093 -1.776341
  H 4.458439 -1.119156 -2.738459
  O 5.539805 -0.656959 -1.587059
  H 0.580264 0.361070 0.949785
  H 0.763339 -1.017824 -0.127108
  H 0.763099 0.611961 -0.781700
  H 4.299065 1.381711 1.134174
  H 4.299214 -0.247812 1.788755
  H 2.125074 0.199380 2.918112
  H 2.124963 1.839751 2.259198
  H 2.697958 -0.614255 -1.479093
  H 4.928773 -0.058211 -0.094703
  H 5.389899 -0.137594 -0.292741
 20
 0.000000
  C 1.069629 -0.011544 0.021984
  C 3.028718 0.053475 0.183509
  C 3.695891 0.547608 1.413484
  C 2.802934 1.009048 2.562349
  H 3.390248 1.342481 3.392296
  C 3.448243 -0.307224 -0.714690
  C 4.264834 -0.376148 -0.886625
  C 4.702544 -0.726175 -1.759110
  H 4.442972 -1.112751 -2.722492
  O 5.461467 -0.648597 -1.566233
  H 0.546696 0.342409 0.903319
  H 0.747249 -1.035659 -0.171518
  H 0.747013 0.594124 -0.826114
  H 4.349860 1.382063 1.135044
  H 4.350006 -0.247459 1.789627
  H 2.161968 0.190339 2.895588
  H 2.161860 1.830709 2.236672
  H 2.745248 -0.611287 -1.471702
  H 4.938922 -0.059671 -0.098377
  H 5.207942 -0.099299 -0.197324
 20
 0.000000
  C 1.032521 -0.027949 -0.018856
  C 3.095569 0.050028 0.174920
  C 3.746439 0.547173 1.412394
  C 2.838368 1.004498 2.551013
  H 3.414671 1.340590 3.387580
  C 3.505414 -0.306526 -0.712961
  C 4.272659 -0.375362 -0.884677
  C 4.690591 -0.722373 -1.749641
  H 4.433426 -1.109178 -2.713575
  O 5.395366 -0.644977 -1.557219
  H 0.497981 0.323590 0.856461
  H 0.717045 -1.053521 -0.215987
  H 0.716813 0.576261 -0.870587
  H 4.399715 1.384614 1.141392
  H 4.399858 -0.244907 1.795977
  H 2.197399 0.182860 2.876958
  H 2.197293 1.823229 2.218040
  H 2.795176 -0.608247 -1.464129
  H 4.958466 -0.062389 -0.105185
  H 5.027282 -0.064016 -0.109414
 20
 0.000000
  C 0.978074 -0.043698 -0.058062
  C 3.160664 0.048945 0.172218
  C 3.795040 0.549042 1.417045
  C 2.871907 1.002160 2.545185
  H 3.437049 1.340875 3.388283
  C 3.564025 -0.306019 -0.711705
  C 4.288512 -0.375505 -0.885041
  C 4.687880 -0.722399 -1.749710
  H 4.429288 -1.109080 -2.713313
  O 5.343698 -0.646689 -1.561487
  H 0.431944 0.305360 0.811071
  H 0.669590 -1.070703 -0.258761
  H 0.669361 0.559077 -0.913365
  H 4.447518 1.389484 1.153514
  H 4.447659 -0.240037 1.808101
  H 2.231034 0.177577 2.863797
  H 2.230930 1.817946 2.204877
  H 2.845801 -0.605106 -1.456304
  H 4.987781 -0.066684 -0.115923
  H 4.853195 -0.032462 -0.030791
 20
 0.000000
  C 0.953567 -0.050328 -0.074568
  C 3.181536 0.048134 0.170198
  C 3.809687 0.549322 1.417741
  C 2.880929 1.000841 2.541899
  H 3.441854 1.340528 3.387418
  C 3.584110 -0.306999 -0.714146
  C 4.296343 -0.376846 -0.888380
  C 4.690201 -0.724521 -1.754995
  H 4.430462 -1.111098 -2.718331
  O 5.331019 -0.649597 -1.568729
  H 0.403101 0.297783 0.792207
  H 0.647722 -1.077864 -0.276589
  H 0.647496 0.551915 -0.931194
  H 4.461841 1.390890 1.157015
  H 4.461980 -0.238631 1.811603
  H 2.240116 0.175150 2.857754
  H 2.240013 1.815519 2.198834
  H 2.863366 -0.605244 -1.456645
  H 5.000258 -0.069488 -0.122918
  H 4.797060 -0.023342 -0.008064
 20
 0.000000
  C 0.812198 -0.076444 -0.139569
  C 3.295357 0.054238 0.185393
  C 3.893505 0.560496 1.445560
  C 2.938090 1.004218 2.550302
  H 3.478645 1.348460 3.407162
  C 3.691288 -0.303674 -0.705878
  C 4.337552 -0.376214 -0.886820
  C 4.696560 -0.730025 -1.768712
  H 4.424095 -1.115401 -2.729009
  O 5.256844 -0.661448 -1.598252
  H 0.241137 0.267028 0.715646
  H 0.519091 -1.106456 -0.347755
  H 0.518870 0.523321 -1.002368
  H 4.543902 1.407453 1.198251
  H 4.544038 -0.222066 1.852842
  H 2.297763 0.173228 2.852960
  H 2.297663 1.813595 2.194038
  H 2.953101 -0.595939 -1.433460
  H 5.071207 -0.078652 -0.145825
  H 4.467999 0.025578 0.113833
