22

C 0.993261 0.133595 0.38395
C 2.471599 0.140321 0.400275
C 3.239201 0.613746 1.578315
C 2.445089 1.099678 2.787964
H 3.100169690166666 1.4151732433429665 3.572968484572366
C 3.094519 -0.322246 -0.751479
C 4.470156 -0.413577 -0.979476
C 5.130316 -0.867893 -2.111975
C 4.619381 -1.389077 -3.411201
H 3.5707685060806353 -1.4681211408106387 -3.608846797829651
H 6.20031104457509 -0.8690311131335491 -2.1150261118048337
H 0.545013 0.501552 1.299954
H 0.628787 -0.880681 0.214986
H 0.628483 0.748957 -0.439708
H 3.895368 1.429041 1.252415
H 3.895597 -0.200208 1.907036
H 1.806441 0.299547 3.167475
H 1.806237 1.939832 2.508438
H 2.434694 -0.63959 -1.541385
H 5.104736 -0.086787 -0.165738
H 5.069941 -2.379791 -3.54125
H 5.070324 -0.763208 -4.189928
