 22
 0.000000
  C 1.018808 0.115124 0.337958
  C 2.490644 0.129203 0.372765
  C 3.242424 0.603391 1.552404
  C 2.433213 1.084242 2.749364
  H 3.102547 1.402764 3.541913
  C 3.141276 -0.330011 -0.770286
  C 4.527635 -0.403252 -0.953361
  C 5.157038 -0.856934 -2.084561
  C 4.555690 -1.353129 -3.321939
  H 3.473678 -1.371090 -3.367400
  H 6.238813 -0.863547 -2.101169
  H 0.561055 0.481294 1.249125
  H 0.662849 -0.899777 0.153543
  H 0.662708 0.720162 -0.497406
  H 3.904007 1.415906 1.230342
  H 3.904284 -0.205794 1.882091
  H 1.800595 0.289628 3.138595
  H 1.800416 1.927134 2.480676
  H 2.508806 -0.656984 -1.583990
  H 5.151697 -0.074981 -0.135786
  H 4.940889 -2.359817 -3.505146
  H 4.941321 -0.752300 -4.149968
 22
 -0.333937
  C 1.015636 0.052450 0.361503
  C 2.485714 0.092314 0.374463
  C 3.238321 0.610964 1.536011
  C 2.428457 1.156301 2.703115
  H 3.105702 1.531400 3.466927
  C 3.145732 -0.366951 -0.762973
  C 4.534681 -0.473079 -0.918918
  C 5.166182 -0.899605 -2.062201
  C 4.554074 -1.293891 -3.329955
  H 3.475021 -1.227880 -3.345120
  H 6.246229 -0.947974 -2.038390
  H 0.572674 0.262293 1.328159
  H 0.662865 -0.909842 -0.006946
  H 0.644170 0.789385 -0.352792
  H 3.918502 1.390930 1.184395
  H 3.890487 -0.191807 1.903071
  H 1.811038 0.382261 3.160721
  H 1.790675 1.977174 2.392721
  H 2.520701 -0.678678 -1.588629
  H 5.163151 -0.217201 -0.077919
  H 4.863686 -2.314212 -3.574317
  H 4.970503 -0.682194 -4.132961
 22
 -0.805465
  C 1.018409 0.048768 0.378370
  C 2.488025 0.075529 0.374195
  C 3.237732 0.614659 1.528108
  C 2.417393 1.191911 2.670915
  H 3.085932 1.603849 3.423728
  C 3.147737 -0.388237 -0.760152
  C 4.535973 -0.511442 -0.908593
  C 5.170739 -0.925492 -2.054565
  C 4.561460 -1.303718 -3.327362
  H 3.483089 -1.228560 -3.345459
  H 6.251454 -0.977395 -2.027661
  H 0.606915 -0.006270 1.381255
  H 0.629571 -0.758489 -0.238232
  H 0.650717 0.980314 -0.061838
  H 3.929468 1.382554 1.165182
  H 3.876923 -0.183272 1.918976
  H 1.810226 0.430201 3.154384
  H 1.765881 1.991297 2.326033
  H 2.525820 -0.683376 -1.591981
  H 5.161122 -0.282506 -0.057577
  H 4.861361 -2.326504 -3.575696
  H 4.986892 -0.690891 -4.125134
 22
 -0.977218
  C 1.015223 0.026921 0.412289
  C 2.480873 0.066842 0.365623
  C 3.237259 0.634784 1.502043
  C 2.418436 1.252280 2.627586
  H 3.086597 1.686518 3.364514
  C 3.136575 -0.414549 -0.762562
  C 4.524379 -0.586743 -0.882336
  C 5.171317 -0.987917 -2.024911
  C 4.581003 -1.260592 -3.334940
  H 3.512339 -1.110585 -3.381350
  H 6.247468 -1.107829 -1.967864
  H 0.650177 -0.191462 1.410988
  H 0.601230 -0.676814 -0.308373
  H 0.625146 1.020027 0.158490
  H 3.939027 1.385466 1.117981
  H 3.868061 -0.160250 1.919256
  H 1.805875 0.509887 3.136045
  H 1.768767 2.041030 2.256723
  H 2.515840 -0.699964 -1.601439
  H 5.130012 -0.427332 -0.001706
  H 4.819028 -2.286993 -3.627047
  H 5.072369 -0.641200 -4.085611
 22
 0.523994
  C 0.966562 0.026446 0.480914
  C 2.425285 -0.002578 0.335721
  C 3.237998 0.630285 1.407118
  C 2.485593 1.315601 2.539570
  H 3.200839 1.769180 3.221379
  C 3.058578 -0.572739 -0.757417
  C 4.449651 -0.773856 -0.817592
  C 5.160207 -1.085021 -1.948967
  C 4.651338 -1.096928 -3.319839
  H 3.607886 -0.814377 -3.401142
  H 6.209481 -1.326959 -1.833036
  H 0.664890 -0.068010 1.518665
  H 0.482787 -0.735880 -0.127923
  H 0.589203 0.995648 0.139649
  H 3.908885 1.364432 0.947053
  H 3.891845 -0.132874 1.841535
  H 1.888724 0.612218 3.114263
  H 1.832165 2.101146 2.166197
  H 2.443200 -0.921780 -1.574746
  H 4.997770 -0.672309 0.116407
  H 4.807188 -2.086233 -3.755378
  H 5.259118 -0.427156 -3.932731
 22
 5.776564
  C 0.907998 0.050195 0.515723
  C 2.347830 -0.143674 0.316671
  C 3.239090 0.555931 1.318259
  C 2.567923 1.349678 2.454082
  H 3.333083 1.810148 3.065778
  C 2.947366 -0.813312 -0.736758
  C 4.347101 -0.975218 -0.780642
  C 5.146141 -1.146537 -1.900010
  C 4.705019 -0.911520 -3.284228
  H 3.677041 -0.578219 -3.343430
  H 6.184498 -1.446083 -1.758399
  H 0.662703 0.210329 1.565808
  H 0.333364 -0.787195 0.113942
  H 0.572044 0.931881 -0.018841
  H 3.878913 1.245053 0.793148
  H 3.893069 -0.188565 1.792276
  H 1.971645 0.722206 3.113733
  H 1.932004 2.146424 2.050067
  H 2.337979 -1.251589 -1.515339
  H 4.849510 -0.823885 0.177000
  H 4.843966 -1.809041 -3.887118
  H 5.365527 -0.154584 -3.737874
 22
 13.815423
  C 0.878116 0.069260 0.574198
  C 2.286836 -0.227710 0.307836
  C 3.251254 0.528064 1.187004
  C 2.686642 1.372005 2.333888
  H 3.511711 1.855285 2.849303
  C 2.827075 -0.984472 -0.702911
  C 4.223366 -1.137812 -0.778869
  C 5.079942 -1.228589 -1.834046
  C 4.811592 -0.684553 -3.165543
  H 3.839780 -0.198670 -3.224258
  H 6.036574 -1.724345 -1.693989
  H 0.711017 0.419731 1.580876
  H 0.250763 -0.808461 0.378753
  H 0.529389 0.844506 -0.118235
  H 3.853401 1.195276 0.564635
  H 3.921741 -0.189000 1.678627
  H 2.153691 0.764458 3.059167
  H 2.025173 2.155713 1.975048
  H 2.187848 -1.507676 -1.399066
  H 4.694960 -0.927050 0.206740
  H 4.877834 -1.484139 -3.912809
  H 5.595701 0.028274 -3.428071
 22
 39.832539
  C 0.769632 0.026557 0.753962
  C 2.135769 -0.282546 0.276821
  C 3.252122 0.491856 0.937987
  C 2.895988 1.415889 2.109644
  H 3.794381 1.918940 2.464709
  C 2.527067 -1.127804 -0.728698
  C 3.887540 -1.302811 -0.954167
  C 4.949776 -1.309463 -1.778098
  C 5.077292 -0.473915 -2.985991
  H 4.204881 0.157439 -3.139883
  H 5.800107 -1.939513 -1.556112
  H 0.771503 0.492535 1.730118
  H 0.154477 -0.887185 0.783527
  H 0.267606 0.711933 0.058756
  H 3.778531 1.098184 0.205478
  H 3.967302 -0.212284 1.444443
  H 2.449718 0.873932 2.944270
  H 2.206726 2.181818 1.788984
  H 1.811571 -1.697534 -1.292860
  H 4.360864 -0.996917 0.227997
  H 5.213220 -1.119576 -3.862346
  H 5.968167 0.146178 -2.903485
 22
 61.576895
  C 0.744599 -0.051188 0.839918
  C 2.098380 -0.224369 0.286363
  C 3.236844 0.517351 0.877858
  C 2.945571 1.439233 2.068623
  H 3.857527 1.923857 2.399366
  C 2.430572 -1.003022 -0.805529
  C 3.739402 -1.246857 -1.108883
  C 4.867645 -1.335280 -1.783424
  C 5.210356 -0.495877 -2.970360
  H 4.406472 0.188309 -3.217118
  H 5.599691 -2.085518 -1.529394
  H 0.761047 0.321527 1.861882
  H 0.197453 -0.996193 0.810106
  H 0.170785 0.654604 0.233763
  H 3.748372 1.118691 0.124540
  H 3.973116 -0.207783 1.402868
  H 2.510393 0.905806 2.907974
  H 2.253686 2.222617 1.759533
  H 1.663620 -1.535970 -1.351704
  H 4.301137 -0.808050 0.384733
  H 5.401400 -1.140166 -3.826073
  H 6.119568 0.062559 -2.773070
 22
 71.592096
  C 0.737253 -0.088937 0.822558
  C 2.119281 -0.217003 0.296587
  C 3.285760 0.513166 0.884556
  C 2.975821 1.437069 2.078491
  H 3.864708 1.972599 2.400367
  C 2.398208 -1.022571 -0.806551
  C 3.643826 -1.228122 -1.270956
  C 4.782217 -1.362758 -1.874752
  C 5.263772 -0.491752 -3.001007
  H 4.525058 0.261125 -3.260839
  H 5.480841 -2.138836 -1.578128
  H 0.706900 0.357749 1.809135
  H 0.258961 -1.067323 0.866183
  H 0.122894 0.525182 0.159348
  H 3.780002 1.127150 0.123358
  H 4.084587 -0.100516 1.575565
  H 2.566234 0.899852 2.928624
  H 2.248818 2.176997 1.756124
  H 1.586356 -1.554725 -1.283844
  H 4.170096 -0.558885 0.676325
  H 5.459823 -1.109410 -3.875661
  H 6.196742 -0.004575 -2.723291
 22
 72.945193
  C 0.778247 -0.124990 0.853700
  C 2.158059 -0.240213 0.316985
  C 3.353272 0.501628 0.934299
  C 2.938443 1.458212 2.078033
  H 3.769089 2.084362 2.393400
  C 2.397723 -0.992412 -0.833082
  C 3.606234 -1.223530 -1.368423
  C 4.737430 -1.397229 -1.967831
  C 5.303148 -0.483952 -3.020973
  H 4.628389 0.341622 -3.229755
  H 5.368487 -2.247385 -1.726553
  H 0.744469 0.302393 1.848128
  H 0.305838 -1.106987 0.885711
  H 0.158365 0.495146 0.201511
  H 3.830635 1.084043 0.136774
  H 4.255285 0.122349 1.666544
  H 2.560379 0.924499 2.944217
  H 2.158896 2.120645 1.714236
  H 1.547171 -1.456099 -1.316570
  H 3.923450 -0.570301 0.942549
  H 5.465169 -1.045412 -3.939559
  H 6.265888 -0.092699 -2.696610
 22
 71.072200
  C 0.837184 -0.181705 0.937723
  C 2.182088 -0.276761 0.323527
  C 3.433146 0.536381 0.950054
  C 2.935267 1.510842 2.038332
  H 3.737350 2.180367 2.330373
  C 2.356641 -0.969758 -0.884488
  C 3.530848 -1.198888 -1.482137
  C 4.688701 -1.399275 -2.015957
  C 5.360336 -0.482179 -2.997697
  H 4.743081 0.385778 -3.212353
  H 5.254918 -2.294498 -1.778361
  H 0.855390 0.182942 1.954503
  H 0.351278 -1.157719 0.933993
  H 0.202609 0.485695 0.353306
  H 3.875210 1.089771 0.117037
  H 4.322522 0.167741 1.569747
  H 2.587155 0.991271 2.923671
  H 2.124812 2.124007 1.654195
  H 1.468525 -1.377323 -1.352646
  H 3.519601 -0.641324 0.885209
  H 5.549459 -1.017563 -3.927033
  H 6.320385 -0.156079 -2.600441
 22
 54.358097
  C 0.902892 -0.256591 1.047752
  C 2.230268 -0.337871 0.386036
  C 3.447780 0.589184 0.974748
  C 2.921803 1.607290 1.989698
  H 3.725763 2.298147 2.237905
  C 2.344502 -0.935713 -0.911766
  C 3.495705 -1.163523 -1.536887
  C 4.641689 -1.408172 -2.071567
  C 5.417927 -0.473309 -2.952522
  H 4.887323 0.464319 -3.098668
  H 5.117123 -2.369366 -1.903685
  H 0.967938 0.026565 2.089668
  H 0.389100 -1.215205 0.980470
  H 0.272444 0.471598 0.537793
  H 3.856035 1.106939 0.103878
  H 4.314967 0.167333 1.508158
  H 2.592361 1.135708 2.910995
  H 2.097473 2.187497 1.580666
  H 1.424132 -1.237899 -1.401179
  H 3.165274 -0.822563 0.883301
  H 5.584787 -0.940710 -3.922193
  H 6.391060 -0.275233 -2.505316
 22
 34.802424
  C 1.004163 -0.365243 1.146232
  C 2.354432 -0.372693 0.496638
  C 3.402915 0.703138 0.991851
  C 2.826651 1.705526 1.981071
  H 3.576436 2.466843 2.177445
  C 2.427498 -0.799280 -0.902334
  C 3.547400 -1.050956 -1.561584
  C 4.615630 -1.391489 -2.199824
  C 5.559409 -0.481519 -2.921857
  H 5.249074 0.557657 -2.840845
  H 4.863155 -2.447003 -2.269794
  H 1.074694 -0.210446 2.214264
  H 0.490344 -1.305974 0.956025
  H 0.380260 0.425726 0.734347
  H 3.743188 1.240379 0.103905
  H 4.294777 0.281436 1.453251
  H 2.574757 1.248501 2.932961
  H 1.942346 2.190178 1.583766
  H 1.484474 -1.048777 -1.381283
  H 3.043001 -1.119220 0.965663
  H 5.595234 -0.768941 -3.972822
  H 6.563205 -0.592917 -2.513369
 22
 29.969017
  C 1.051025 -0.435240 1.188068
  C 2.444708 -0.490837 0.642748
  C 3.375541 0.696781 1.001995
  C 2.745021 1.788581 1.848939
  H 3.478566 2.577269 2.003141
  C 2.456339 -0.881456 -0.811030
  C 3.511612 -1.098933 -1.536847
  C 4.528013 -1.370025 -2.305263
  C 5.507063 -0.405810 -2.863555
  H 5.284701 0.614547 -2.566619
  H 4.707044 -2.409436 -2.560441
  H 1.047732 -0.194685 2.242067
  H 0.549297 -1.391704 1.051244
  H 0.470628 0.319060 0.665101
  H 3.760505 1.141744 0.080843
  H 4.266589 0.334232 1.529560
  H 2.455399 1.428287 2.832127
  H 1.879545 2.223083 1.359141
  H 1.484636 -1.073350 -1.249926
  H 3.053420 -1.352976 0.973807
  H 5.492901 -0.488102 -3.950502
  H 6.513656 -0.665790 -2.538411
