 9
 0.000000
  H 5.750483 -1.124940 -2.020381
  C 6.825206 -1.131879 -2.034002
  C 7.530980 -1.639420 -3.030397
  C 9.021440 -1.661408 -3.073558
  H 7.328479 -0.698632 -1.183466
  H 7.034862 -2.076868 -3.889162
  H 9.453970 -1.208487 -2.184403
  H 9.379375 -1.117742 -3.948060
  H 9.379374 -2.688436 -3.147976
 9
 4.613179
  H 5.748482 -1.169412 -2.107675
  C 6.821267 -1.142277 -2.054420
  C 7.591180 -1.623584 -2.999310
  C 9.063942 -1.670278 -3.090970
  H 7.221220 -0.686000 -1.158669
  H 6.932842 -1.999021 -3.736340
  H 9.515143 -1.218095 -2.203263
  H 9.404781 -1.130085 -3.982863
  H 9.404772 -2.709325 -3.178420
 9
 15.502563
  H 5.740257 -1.203232 -2.174105
  C 6.811414 -1.151270 -2.072060
  C 7.631504 -1.614221 -2.980912
  C 9.096255 -1.677017 -3.104200
  H 7.140400 -0.679665 -1.146219
  H 6.856000 -1.934692 -3.610046
  H 9.567294 -1.231283 -2.229163
  H 9.421683 -1.143781 -3.996872
  H 9.421689 -2.712604 -3.197736
 9
 30.877204
  H 5.733877 -1.221333 -2.213371
  C 6.796481 -1.163301 -2.091708
  C 7.666104 -1.612346 -2.979536
  C 9.116389 -1.681787 -3.112075
  H 7.078964 -0.681162 -1.147938
  H 6.801530 -1.875041 -3.503837
  H 9.595567 -1.240214 -2.242367
  H 9.434371 -1.151558 -4.007115
  H 9.433682 -2.719537 -3.210454
 9
 46.003813
  H 5.710320 -1.233247 -2.237371
  C 6.776007 -1.169754 -2.105578
  C 7.682061 -1.609342 -2.973255
  C 9.137312 -1.685515 -3.118947
  H 7.029669 -0.684450 -1.153583
  H 6.759805 -1.832010 -3.418093
  H 9.629145 -1.246601 -2.255280
  H 9.446870 -1.154997 -4.018763
  H 9.446511 -2.725853 -3.219299
 9
 59.088130
  H 5.700244 -1.234671 -2.238176
  C 6.770139 -1.179269 -2.125996
  C 7.685959 -1.622448 -2.999029
  C 9.139723 -1.687190 -3.121529
  H 7.021327 -0.687444 -1.158468
  H 6.710738 -1.804040 -3.362371
  H 9.625823 -1.241363 -2.244861
  H 9.460825 -1.155628 -4.019560
  H 9.457343 -2.723348 -3.218269
 9
 69.925230
  H 5.686673 -1.230043 -2.228760
  C 6.767144 -1.186058 -2.140354
  C 7.680398 -1.635159 -3.025413
  C 9.139842 -1.684880 -3.119589
  H 7.029286 -0.695760 -1.174850
  H 6.670665 -1.780340 -3.315624
  H 9.604184 -1.236773 -2.239742
  H 9.472542 -1.152817 -4.008224
  H 9.472131 -2.720987 -3.211381
 9
 78.630569
  H 5.683367 -1.224937 -2.214849
  C 6.764997 -1.196012 -2.149603
  C 7.672481 -1.651061 -3.052517
  C 9.135094 -1.683181 -3.114285
  H 7.045040 -0.694047 -1.192151
  H 6.634323 -1.763462 -3.279719
  H 9.574337 -1.236131 -2.225621
  H 9.481795 -1.143039 -3.995605
  H 9.480089 -2.712771 -3.202998
 9
 84.922813
  H 5.675866 -1.208142 -2.204230
  C 6.767005 -1.192853 -2.162546
  C 7.661216 -1.661244 -3.076738
  C 9.125683 -1.678355 -3.108128
  H 7.071045 -0.721196 -1.195993
  H 6.604708 -1.751206 -3.251795
  H 9.545234 -1.215935 -2.211499
  H 9.484583 -1.142550 -3.987500
  H 9.484163 -2.706097 -3.179608
 9
 89.637114
  H 5.669004 -1.212172 -2.180988
  C 6.763232 -1.203902 -2.160982
  C 7.652557 -1.667163 -3.092526
  C 9.119086 -1.673540 -3.099700
  H 7.084259 -0.719734 -1.205338
  H 6.582046 -1.726771 -3.235650
  H 9.524816 -1.207396 -2.196599
  H 9.488558 -1.137735 -3.974076
  H 9.484372 -2.698329 -3.166919
 9
 94.464471
  H 5.652366 -1.222813 -2.165557
  C 6.748989 -1.189577 -2.158389
  C 7.657195 -1.664119 -3.091679
  C 9.123820 -1.673269 -3.091995
  H 7.064581 -0.682537 -1.210103
  H 6.559730 -1.729107 -3.203616
  H 9.529793 -1.226549 -2.180017
  H 9.488989 -1.119332 -3.953532
  H 9.491613 -2.699807 -3.181826
 9
 99.454245
  H 5.658719 -1.204245 -2.144691
  C 6.758448 -1.204120 -2.162639
  C 7.638193 -1.679455 -3.119119
  C 9.106766 -1.663444 -3.080470
  H 7.095852 -0.709063 -1.216704
  H 6.541548 -1.703647 -3.182032
  H 9.485479 -1.199210 -2.163304
  H 9.493188 -1.119558 -3.942640
  H 9.482346 -2.686818 -3.142363
 9
 96.713488
  H 5.671757 -1.200035 -2.121829
  C 6.769803 -1.189800 -2.162125
  C 7.627157 -1.672026 -3.125870
  C 9.082512 -1.651799 -3.064141
  H 7.135526 -0.737581 -1.202735
  H 6.539355 -1.693488 -3.193083
  H 9.434440 -1.175013 -2.150681
  H 9.487489 -1.124010 -3.922522
  H 9.460522 -2.669099 -3.100134
 9
 99.419801
  H 5.643230 -1.225247 -2.118983
  C 6.742116 -1.183972 -2.141473
  C 7.624480 -1.691354 -3.063938
  C 9.095962 -1.656176 -3.050445
  H 7.077319 -0.752746 -1.165175
  H 6.543586 -1.593227 -3.195651
  H 9.487026 -1.138706 -2.164446
  H 9.464768 -1.150168 -3.944428
  H 9.483279 -2.675912 -3.066671
