 26
 0.000000
  C 0.951143 0.144898 0.411019
  C 2.426492 0.138999 0.396582
  C 3.223550 0.604769 1.556115
  C 2.459704 1.096963 2.781177
  H 3.150859 1.406608 3.552502
  C 3.036743 -0.327370 -0.764405
  C 4.413939 -0.408492 -0.967426
  C 5.105081 -0.857962 -2.088092
  C 4.616275 -1.381395 -3.392534
  C 3.129109 -1.502314 -3.693806
  H 2.994717 -1.901809 -4.689380
  O 6.424044 -0.848209 -2.064485
  H 0.532860 0.517428 1.337901
  H 0.575256 -0.864395 0.236595
  H 0.575256 0.752843 -0.413314
  H 3.881969 1.412645 1.217731
  H 3.881795 -0.212795 1.870706
  H 1.826368 0.306532 3.180391
  H 1.826724 1.944171 2.522674
  H 2.375313 -0.643742 -1.551681
  H 5.037785 -0.078248 -0.145547
  H 5.082612 -2.366160 -3.514607
  H 5.082749 -0.754284 -4.161489
  H 2.648265 -0.527639 -3.650123
  H 2.648370 -2.176541 -2.988545
  H 6.803173 -0.513873 -1.230021
 26
 16.352506
  C 0.941314 0.160012 0.448587
  C 2.420879 0.140818 0.400983
  C 3.247939 0.601928 1.548776
  C 2.508730 1.098290 2.784467
  H 3.231362 1.401421 3.539740
  C 3.004820 -0.327487 -0.764763
  C 4.430709 -0.425293 -1.009323
  C 5.021304 -0.869701 -2.117596
  C 4.637273 -1.400361 -3.440306
  C 3.170270 -1.534787 -3.774428
  H 3.079919 -1.937990 -4.779613
  O 6.267033 -0.772346 -1.875448
  H 0.546687 0.536139 1.384124
  H 0.552925 -0.845363 0.279100
  H 0.552889 0.768331 -0.369585
  H 3.905812 1.402863 1.195788
  H 3.905782 -0.220576 1.847967
  H 1.884868 0.318886 3.213865
  H 1.885200 1.958412 2.555527
  H 2.334946 -0.645973 -1.557421
  H 5.033165 -0.093345 -0.182300
  H 5.127256 -2.368769 -3.535341
  H 5.127012 -0.766082 -4.178421
  H 2.671201 -0.570212 -3.756961
  H 2.671733 -2.220284 -3.095132
  H 6.549629 -0.427898 -1.014303
 26
 60.225618
  C 0.939143 0.164678 0.470220
  C 2.418392 0.140833 0.405056
  C 3.252907 0.603379 1.546666
  C 2.518003 1.102833 2.786314
  H 3.243859 1.406248 3.535383
  C 2.989146 -0.329020 -0.762857
  C 4.512334 -0.441356 -1.041033
  C 4.998542 -0.886499 -2.154195
  C 4.664652 -1.418821 -3.488988
  C 3.176106 -1.546037 -3.812575
  H 3.065948 -1.945991 -4.815768
  O 6.183633 -0.737502 -1.778010
  H 0.557934 0.543410 1.409441
  H 0.546708 -0.840073 0.306716
  H 0.543498 0.772262 -0.344946
  H 3.906519 1.406054 1.187711
  H 3.910314 -0.220697 1.844862
  H 1.898308 0.323139 3.223383
  H 1.895479 1.965681 2.561287
  H 2.341395 -0.644210 -1.546966
  H 5.037583 -0.094686 -0.173347
  H 5.162642 -2.397232 -3.573768
  H 5.164875 -0.768832 -4.223717
  H 2.684150 -0.580437 -3.784050
  H 2.682139 -2.226012 -3.127899
  H 6.445031 -0.396109 -0.914782
 26
 118.986895
  C 0.895489 0.181420 0.517582
  C 2.377384 0.146857 0.418487
  C 3.239650 0.605496 1.545428
  C 2.536431 1.108363 2.797755
  H 3.281990 1.407112 3.530656
  C 2.921411 -0.322355 -0.748854
  C 4.617562 -0.454736 -1.071463
  C 4.983424 -0.907338 -2.202282
  C 4.696608 -1.433525 -3.524487
  C 3.213167 -1.564539 -3.864084
  H 3.114406 -1.963572 -4.867146
  O 6.156226 -0.724924 -1.742240
  H 0.536935 0.563979 1.467514
  H 0.494778 -0.817306 0.365076
  H 0.488680 0.790069 -0.285501
  H 3.886637 1.405837 1.174873
  H 3.895313 -0.220481 1.835143
  H 1.922561 0.332989 3.248319
  H 1.914696 1.974943 2.587937
  H 2.277298 -0.639549 -1.541653
  H 5.033039 -0.093665 -0.162021
  H 5.201704 -2.412564 -3.595789
  H 5.206659 -0.774712 -4.248748
  H 2.719650 -0.600601 -3.836818
  H 2.714958 -2.243607 -3.182884
  H 6.447295 -0.393641 -0.896157
 26
 146.879402
  C 0.764224 0.220109 0.613008
  C 2.283393 0.151237 0.419317
  C 3.214896 0.600843 1.523949
  C 2.561554 1.106864 2.798520
  H 3.332590 1.394647 3.509608
  C 2.687057 -0.309775 -0.729170
  C 4.793819 -0.471678 -1.117580
  C 5.027642 -0.932615 -2.266750
  C 4.763225 -1.458075 -3.583683
  C 3.274452 -1.583399 -3.908864
  H 3.162990 -1.982483 -4.908541
  O 6.300730 -0.717047 -1.721525
  H 0.524538 0.611295 1.586353
  H 0.330114 -0.765207 0.522148
  H 0.319908 0.861774 -0.134749
  H 3.828388 1.407039 1.124331
  H 3.839642 -0.249058 1.794510
  H 1.949830 0.333549 3.264362
  H 1.936046 1.980337 2.609289
  H 2.139470 -0.652253 -1.582049
  H 5.020245 -0.084723 -0.147350
  H 5.252509 -2.440497 -3.664475
  H 5.258098 -0.805196 -4.318321
  H 2.788856 -0.619451 -3.871250
  H 2.783957 -2.253546 -3.218555
  H 6.677170 -0.395885 -0.885028
 26
 158.422672
  C 0.612121 0.276543 0.727062
  C 2.113760 0.174472 0.441934
  C 3.114792 0.612088 1.494725
  C 2.555294 1.098222 2.818854
  H 3.380755 1.351085 3.482627
  C 2.482298 -0.288112 -0.718093
  C 5.032542 -0.494541 -1.187680
  C 5.154481 -0.960015 -2.355801
  C 4.850487 -1.475584 -3.656946
  C 3.346080 -1.590995 -3.897115
  H 3.177568 -2.004952 -4.886062
  O 6.499046 -0.748251 -1.794737
  H 0.424279 0.677367 1.718063
  H 0.154236 -0.704136 0.649328
  H 0.139654 0.919153 -0.009702
  H 3.744519 1.392771 1.083920
  H 3.732033 -0.252861 1.732962
  H 1.962057 0.326284 3.309429
  H 1.942642 1.993923 2.696194
  H 1.940077 -0.628669 -1.567051
  H 5.138325 -0.105605 -0.207328
  H 5.309606 -2.471851 -3.738699
  H 5.322805 -0.849152 -4.420588
  H 2.871579 -0.621571 -3.845593
  H 2.889407 -2.244502 -3.169000
  H 6.953394 -0.432974 -0.988265
 26
 160.235388
  C 0.474559 0.349640 0.839506
  C 1.956608 0.163468 0.498371
  C 3.011739 0.578278 1.506366
  C 2.526823 1.102466 2.854656
  H 3.389173 1.335909 3.475490
  C 2.286537 -0.296784 -0.670880
  C 5.240794 -0.510948 -1.270255
  C 5.283727 -0.985878 -2.445591
  C 4.945900 -1.505512 -3.729724
  C 3.424568 -1.607115 -3.901548
  H 3.205965 -2.017335 -4.877714
  O 6.667831 -0.753459 -1.906568
  H 0.341842 0.768450 1.829111
  H -0.039496 -0.608502 0.785788
  H 0.008585 1.008852 0.108812
  H 3.669205 1.324890 1.059058
  H 3.621677 -0.303712 1.727567
  H 1.935257 0.356523 3.382093
  H 1.943493 2.017917 2.752074
  H 1.714942 -0.638717 -1.506929
  H 5.301270 -0.121916 -0.284968
  H 5.397646 -2.499413 -3.838367
  H 5.385792 -0.884593 -4.517846
  H 2.962768 -0.630815 -3.824874
  H 2.994922 -2.253975 -3.147782
  H 7.189507 -0.435296 -1.141031
 26
 153.596664
  C 0.363243 0.396873 0.926423
  C 1.806899 0.171282 0.488945
  C 2.946548 0.533489 1.431050
  C 2.567430 1.086310 2.798873
  H 3.474997 1.298012 3.361897
  C 2.059328 -0.296414 -0.695513
  C 5.503012 -0.534375 -1.300659
  C 5.305704 -1.018515 -2.460135
  C 5.009656 -1.484095 -3.751253
  C 3.467689 -1.604468 -3.796684
  H 3.199913 -1.967526 -4.785202
  O 6.885136 -0.760535 -1.869839
  H 0.310524 0.809306 1.927416
  H -0.179355 -0.546164 0.907776
  H -0.128075 1.082095 0.238890
  H 3.573867 1.271964 0.925817
  H 3.540499 -0.371020 1.588520
  H 1.983104 0.369150 3.371768
  H 2.006987 2.015343 2.715355
  H 1.485988 -0.625409 -1.531712
  H 5.162869 -0.180863 -0.359905
  H 5.480239 -2.458287 -3.930152
  H 5.371534 -0.788977 -4.517841
  H 2.999446 -0.637887 -3.632567
  H 3.108043 -2.307801 -3.050465
  H 7.506949 -0.478172 -1.168406
 26
 133.585130
  C 0.453657 0.296718 0.829113
  C 1.909119 0.119156 0.416587
  C 3.022009 0.561986 1.352162
  C 2.604046 1.158703 2.690256
  H 3.495674 1.431526 3.252889
  C 2.150643 -0.393596 -0.736667
  C 5.597237 -0.524186 -1.257078
  C 5.105049 -0.998087 -2.355668
  C 4.839819 -1.529125 -3.638511
  C 3.296043 -1.495451 -3.808260
  H 3.073588 -1.901741 -4.793106
  O 6.959415 -0.795001 -1.515848
  H 0.392512 0.748463 1.811543
  H -0.046189 -0.669862 0.849759
  H -0.060851 0.929042 0.108549
  H 3.621049 1.306464 0.820630
  H 3.649102 -0.310357 1.553316
  H 2.040753 0.444244 3.288274
  H 2.011828 2.061876 2.554833
  H 1.631135 -0.787875 -1.575224
  H 5.264001 -0.098181 -0.336655
  H 5.221098 -2.558117 -3.683727
  H 5.336458 -0.920872 -4.406546
  H 2.917150 -0.474103 -3.770283
  H 2.805071 -2.106990 -3.051344
  H 7.522756 -0.521317 -0.766599
 26
 115.130895
  C 0.669650 0.215718 0.589640
  C 2.160265 0.085809 0.267203
  C 3.190594 0.547327 1.274888
  C 2.662017 1.116852 2.584838
  H 3.508976 1.403937 3.205904
  C 2.401660 -0.430541 -0.888097
  C 5.608604 -0.515203 -1.115481
  C 4.826339 -0.906983 -2.078847
  C 4.510739 -1.400509 -3.375010
  C 3.027617 -1.510372 -3.772735
  H 2.970978 -1.892577 -4.788985
  O 6.956946 -0.693403 -1.155436
  H 0.558219 0.663330 1.569919
  H 0.201176 -0.764054 0.587843
  H 0.178801 0.840072 -0.150048
  H 3.798177 1.313891 0.788796
  H 3.824148 -0.312008 1.505829
  H 2.085087 0.382141 3.140363
  H 2.060295 2.008292 2.424040
  H 2.005283 -0.844002 -1.780491
  H 5.209417 -0.058918 -0.219684
  H 4.926381 -2.416087 -3.449851
  H 4.991118 -0.741799 -4.111003
  H 2.556663 -0.532995 -3.747495
  H 2.512787 -2.210236 -3.120229
  H 7.410235 -0.374365 -0.353476
