 14
 0.000000
  H 1.434851 0.130061 0.371544
  C 2.515582 0.136135 0.388257
  C 3.198080 0.616603 1.585802
  H 2.508078 0.928679 2.361902
  C 3.148372 -0.322348 -0.752632
  C 4.535494 -0.389007 -0.917677
  C 5.150487 -0.850239 -2.065924
  H 4.596863 -1.198602 -2.931892
  O 6.427432 -0.920339 -2.243214
  H 3.856710 1.452254 1.336590
  H 3.855666 -0.160078 1.984002
  H 2.527423 -0.651748 -1.574367
  H 5.161011 -0.060099 -0.097382
  H 6.970777 -0.613827 -1.486123
 14
 12.441361
  H 1.517069 0.158222 0.440225
  C 2.601980 0.104510 0.308746
  C 3.350249 0.575876 1.484923
  H 2.659847 0.891322 2.269001
  C 3.021329 -0.374956 -0.884080
  C 4.364148 -0.371685 -0.874576
  C 5.125478 -0.819045 -1.987456
  H 4.623039 -1.180327 -2.882625
  O 6.407506 -0.847906 -2.063846
  H 3.998415 1.424979 1.239612
  H 3.996676 -0.208436 1.895131
  H 2.384641 -0.695192 -1.683165
  H 4.935121 -0.027632 -0.018202
  H 6.888769 -0.528576 -1.275907
 14
 44.414707
  H 1.610275 0.187533 0.511317
  C 2.687149 0.084864 0.259902
  C 3.453975 0.550038 1.420601
  H 2.765539 0.864206 2.200036
  C 2.917672 -0.410410 -0.971854
  C 4.227000 -0.362861 -0.851841
  C 5.117836 -0.804892 -1.951718
  H 4.693034 -1.178398 -2.876834
  O 6.399774 -0.792812 -1.928359
  H 4.091256 1.406933 1.183881
  H 4.089040 -0.234022 1.843043
  H 2.227337 -0.724917 -1.757681
  H 4.782235 -0.025982 -0.010131
  H 6.814386 -0.457372 -1.100869
 14
 85.823777
  H 1.695482 0.193796 0.522710
  C 2.751114 0.065079 0.210743
  C 3.508624 0.543372 1.403777
  H 2.811381 0.854284 2.173635
  C 2.839827 -0.442783 -1.048558
  C 4.130862 -0.350643 -0.821846
  C 5.110270 -0.796128 -1.932747
  H 4.725796 -1.174166 -2.870790
  O 6.391314 -0.761688 -1.852364
  H 4.140256 1.405480 1.176227
  H 4.137918 -0.237831 1.837077
  H 2.136863 -0.744698 -1.802770
  H 4.746583 -0.030347 -0.015802
  H 6.762474 -0.423428 -1.013917
 14
 127.314523
  H 1.713161 0.207056 0.540021
  C 2.793876 0.059855 0.197324
  C 3.527699 0.545429 1.409575
  H 2.812982 0.859405 2.178304
  C 2.791198 -0.464749 -1.090363
  C 4.064076 -0.330349 -0.772479
  C 5.134389 -0.799381 -1.948693
  H 4.767494 -1.185401 -2.911639
  O 6.410438 -0.755708 -1.838474
  H 4.158550 1.407191 1.181368
  H 4.152803 -0.237757 1.845978
  H 2.087181 -0.759084 -1.824760
  H 4.749719 -0.035006 -0.017112
  H 6.749666 -0.413617 -0.989576
 14
 160.434663
  H 1.725416 0.285827 0.507339
  C 2.795689 0.065054 0.217342
  C 3.503098 0.564378 1.454995
  H 2.790868 0.927324 2.178872
  C 2.755915 -0.528748 -1.082471
  C 3.999298 -0.353683 -0.684811
  C 5.186836 -0.794429 -2.018606
  H 4.830029 -1.141179 -2.980663
  O 6.468685 -0.738701 -1.915855
  H 4.175493 1.388734 1.211814
  H 4.086510 -0.230565 1.927965
  H 2.040844 -0.810279 -1.820976
  H 4.779465 -0.115029 0.003979
  H 6.801971 -0.423429 -1.046283
 14
 167.364190
  H 1.562806 0.330963 0.515843
  C 2.631910 0.177737 0.453520
  C 3.265399 0.645231 1.729371
  H 2.498296 1.002406 2.402790
  C 2.768870 -0.497343 -0.967661
  C 3.912982 -0.265036 -0.494699
  C 5.508087 -0.942072 -2.367852
  H 5.130919 -1.337040 -3.335633
  O 6.797379 -0.951347 -2.435912
  H 3.965618 1.467514 1.549241
  H 3.810227 -0.156597 2.236359
  H 2.073912 -0.776742 -1.723238
  H 4.802608 0.002345 0.016368
  H 7.238588 -0.601148 -1.630633
 14
 162.600636
  H 1.555466 0.455631 0.436497
  C 2.607409 0.213405 0.512268
  C 3.186506 0.679794 1.813666
  H 2.404495 1.118442 2.422585
  C 2.779525 -0.586909 -0.896638
  C 3.864730 -0.211563 -0.384544
  C 5.596237 -0.924982 -2.489080
  H 5.186562 -1.273998 -3.464476
  O 6.886507 -0.982722 -2.606006
  H 3.954036 1.436672 1.645382
  H 3.643706 -0.133888 2.383107
  H 2.096957 -0.905203 -1.646593
  H 4.818241 -0.078446 0.065816
  H 7.357369 -0.678246 -1.800018
 14
 162.482214
  H 1.549398 0.507830 0.447790
  C 2.589364 0.233386 0.545311
  C 3.167113 0.690853 1.856064
  H 2.392296 1.153559 2.454206
  C 2.734892 -0.611030 -0.881697
  C 3.786673 -0.179549 -0.334340
  C 5.669577 -0.941704 -2.566247
  H 5.262794 -1.299010 -3.540891
  O 6.958838 -0.999506 -2.684441
  H 3.956282 1.423248 1.689929
  H 3.594778 -0.131200 2.434551
  H 2.064618 -0.955071 -1.629700
  H 4.733936 -0.039886 0.135456
  H 7.428525 -0.693725 -1.878749
 14
 134.728084
  H 1.816602 0.952227 0.079235
  C 2.609221 0.322231 0.471916
  C 3.026817 0.655897 1.878977
  H 2.315822 1.355270 2.323299
  C 2.823553 -0.818859 -0.535437
  C 3.900881 -0.161485 -0.263684
  C 5.653643 -0.834632 -2.568295
  H 5.073256 -1.196183 -3.429876
  O 6.886959 -0.889877 -2.817850
  H 4.013229 1.112030 1.900619
  H 3.063367 -0.237610 2.503799
  H 2.206894 -1.299081 -1.251049
  H 4.951700 -0.108415 -0.103930
  H 7.489612 -0.659350 -2.067268
