 17
 0.000000
  C 1.008346 -0.071215 0.048254
  C 2.504402 -0.082855 0.025404
  C 3.219492 -0.595422 -0.980853
  C 4.656844 -0.606340 -1.002284
  C 5.377842 -1.121526 -2.013677
  C 6.815493 -1.131591 -2.033434
  C 7.531807 -1.641781 -3.035031
  H 8.603875 -1.654417 -3.059835
  H 0.645965 0.394715 0.962945
  H 0.612848 -1.085612 0.008464
  H 0.612848 0.493023 -0.795678
  H 3.005728 0.352143 0.879378
  H 2.706158 -1.028539 -1.831123
  H 5.160896 -0.171519 -0.148662
  H 4.872940 -1.556090 -2.866801
  H 7.321541 -0.697083 -1.180424
  H 7.035578 -2.077783 -3.890964
 17
 0.272291
  C 0.998781 -0.024826 0.017588
  C 2.492228 -0.101194 0.024760
  C 3.215582 -0.631225 -0.967260
  C 4.653732 -0.690069 -0.959259
  C 5.391029 -1.221639 -1.944820
  C 6.825168 -1.147108 -2.017086
  C 7.535054 -1.577030 -3.058167
  H 8.607575 -1.497044 -3.098029
  H 0.627655 0.436174 0.927918
  H 0.561082 -1.019163 -0.067155
  H 0.648770 0.564803 -0.831310
  H 2.996399 0.297595 0.896076
  H 2.705403 -1.015410 -1.856169
  H 5.148421 -0.254108 -0.101868
  H 4.901016 -1.675580 -2.796237
  H 7.329243 -0.700144 -1.168157
  H 7.055743 -2.025821 -3.914943
 17
 0.433289
  C 1.009630 -0.013805 0.030186
  C 2.501771 -0.087678 0.021575
  C 3.212342 -0.656284 -0.953963
  C 4.648586 -0.696716 -0.971475
  C 5.381972 -1.256268 -1.949634
  C 6.812951 -1.142434 -2.035328
  C 7.528460 -1.570343 -3.074549
  H 8.598293 -1.458281 -3.115930
  H 0.646260 0.457653 0.936456
  H 0.572686 -1.011984 -0.045442
  H 0.651437 0.565580 -0.820094
  H 3.014480 0.345120 0.868527
  H 2.699952 -1.073347 -1.815719
  H 5.148358 -0.197334 -0.154548
  H 4.892783 -1.780790 -2.760248
  H 7.307699 -0.656305 -1.200779
  H 7.063575 -2.067103 -3.908328
 17
 2.452653
  C 0.997499 -0.036430 -0.045657
  C 2.489203 -0.067998 0.026363
  C 3.264727 -0.649506 -0.893628
  C 4.699788 -0.654338 -0.868588
  C 5.417003 -1.241690 -1.846522
  C 6.830771 -1.120983 -2.058405
  C 7.458775 -1.593111 -3.133430
  H 8.511761 -1.445255 -3.287470
  H 0.569988 0.415066 0.849152
  H 0.594561 -1.043616 -0.153268
  H 0.670349 0.539024 -0.911102
  H 2.944639 0.368604 0.903388
  H 2.826728 -1.021519 -1.815650
  H 5.195730 -0.169349 -0.038920
  H 4.901003 -1.894212 -2.541761
  H 7.385855 -0.587173 -1.296401
  H 6.932253 -2.127939 -3.905343
 17
 8.601274
  C 1.037492 0.054985 -0.136817
  C 2.522216 -0.055822 0.004780
  C 3.281461 -0.830224 -0.778306
  C 4.715760 -0.895281 -0.714079
  C 5.406025 -1.397975 -1.760502
  C 6.775492 -1.090084 -2.063989
  C 7.375820 -1.440219 -3.201160
  H 8.386420 -1.147396 -3.424739
  H 0.601192 0.571140 0.711751
  H 0.591549 -0.938262 -0.205343
  H 0.768371 0.597174 -1.043997
  H 2.987508 0.560108 0.758860
  H 2.904383 -1.216262 -1.711981
  H 5.222477 -0.484115 0.144903
  H 4.943272 -2.135772 -2.403112
  H 7.289891 -0.442617 -1.365988
  H 6.890677 -2.082614 -3.917591
 17
 20.048041
  C 1.050912 0.056317 -0.159640
  C 2.521930 -0.120301 0.058595
  C 3.301550 -0.811008 -0.780621
  C 4.721291 -0.944818 -0.670044
  C 5.387888 -1.356636 -1.787936
  C 6.746300 -1.018785 -2.109135
  C 7.356972 -1.425902 -3.226260
  H 8.373444 -1.151122 -3.448259
  H 0.604316 0.631648 0.647666
  H 0.562690 -0.915304 -0.206958
  H 0.846908 0.571928 -1.102160
  H 2.968876 0.486700 0.831749
  H 2.991337 -1.023930 -1.800416
  H 5.208600 -0.817474 0.285808
  H 4.940274 -2.108307 -2.404731
  H 7.263985 -0.377863 -1.408309
  H 6.863956 -2.047772 -3.945201
 17
 38.021775
  C 1.090558 0.051056 -0.294214
  C 2.560921 0.000698 0.020083
  C 3.412368 -0.802472 -0.654724
  C 4.791573 -1.016283 -0.473407
  C 5.374408 -1.469808 -1.646347
  C 6.647571 -1.020902 -2.113346
  C 7.190596 -1.397819 -3.272481
  H 8.124283 -0.994328 -3.625625
  H 0.569962 0.699512 0.408056
  H 0.663291 -0.952504 -0.214922
  H 0.895472 0.412545 -1.307740
  H 2.926822 0.695098 0.753055
  H 3.294042 -1.022299 -1.721706
  H 5.331364 -0.841444 0.449426
  H 5.008540 -2.390845 -2.089377
  H 7.153485 -0.282938 -1.501269
  H 6.687487 -2.090076 -3.924575
 17
 58.312289
  C 1.148270 0.004458 -0.417982
  C 2.568585 0.042401 0.060845
  C 3.534918 -0.726405 -0.507138
  C 4.863380 -1.041635 -0.295197
  C 5.339241 -1.437488 -1.566206
  C 6.603108 -1.039582 -2.103227
  C 7.028071 -1.372939 -3.335077
  H 7.947274 -0.987908 -3.746702
  H 0.515581 0.628121 0.209860
  H 0.770761 -1.016696 -0.397974
  H 1.056918 0.365697 -1.448485
  H 2.846291 0.893490 0.674872
  H 3.540056 -0.918662 -1.633034
  H 5.391643 -1.111263 0.626635
  H 4.955451 -2.361003 -1.975101
  H 7.188856 -0.351004 -1.504705
  H 6.461285 -2.045105 -3.961497
 17
 73.031857
  C 1.242294 0.007289 -0.520187
  C 2.632975 0.104912 0.029734
  C 3.623383 -0.715407 -0.324872
  C 4.858509 -1.209196 -0.149463
  C 5.239433 -1.499212 -1.531118
  C 6.476861 -1.015365 -2.097292
  C 6.892720 -1.284519 -3.335739
  H 7.802587 -0.872015 -3.735457
  H 0.593919 0.741152 -0.047897
  H 0.828306 -0.986002 -0.348587
  H 1.228950 0.187726 -1.597563
  H 2.874703 1.010417 0.573917
  H 3.856827 -0.928255 -1.659791
  H 5.425097 -1.387849 0.747614
  H 4.855411 -2.413884 -1.968532
  H 7.051361 -0.343724 -1.471368
  H 6.330095 -1.929193 -3.988994
 17
 62.291944
  C 1.260324 -0.008756 -0.535542
  C 2.643753 0.101129 0.038940
  C 3.635604 -0.711604 -0.254521
  C 4.809204 -1.292314 -0.150804
  C 5.174509 -1.520991 -1.586604
  C 6.456661 -1.034739 -2.101597
  C 6.908130 -1.265565 -3.329783
  H 7.844518 -0.865544 -3.678706
  H 0.605335 0.738189 -0.097420
  H 0.836520 -0.996021 -0.349027
  H 1.276188 0.145327 -1.615561
  H 2.875133 1.023281 0.560398
  H 4.061623 -0.957089 -1.798759
  H 5.369638 -1.575127 0.723104
  H 4.786371 -2.420310 -2.063524
  H 7.021442 -0.401117 -1.428544
  H 6.355029 -1.872827 -4.029644
 17
 41.725180
  C 1.195748 -0.041601 -0.384183
  C 2.621092 0.214191 0.031595
  C 3.626898 -0.577550 -0.203911
  C 4.773840 -1.200906 -0.209954
  C 5.137225 -1.444826 -1.661064
  C 6.452638 -0.983309 -2.158469
  C 6.979031 -1.337370 -3.317028
  H 7.934944 -0.968421 -3.646835
  H 0.551511 0.769850 -0.059320
  H 0.822643 -0.972014 0.039414
  H 1.126154 -0.120665 -1.474206
  H 2.835082 1.198651 0.434964
  H 4.196572 -0.903797 -1.995116
  H 5.370996 -1.487318 0.637657
  H 4.812240 -2.412333 -2.064637
  H 6.975479 -0.288338 -1.513433
  H 6.476525 -2.023080 -3.979215
 17
 27.557070
  C 1.177008 -0.055802 -0.277480
  C 2.609673 0.277399 0.030236
  C 3.625040 -0.493801 -0.219576
  C 4.694961 -1.220751 -0.326134
  C 5.104589 -1.437335 -1.766267
  C 6.479686 -1.023360 -2.140731
  C 7.069469 -1.340969 -3.276252
  H 8.059955 -0.996504 -3.521200
  H 0.515732 0.724428 0.089856
  H 0.885376 -1.000937 0.180103
  H 1.038276 -0.147660 -1.353865
  H 2.813232 1.309754 0.298643
  H 4.296726 -0.816393 -2.209018
  H 5.255906 -1.632301 0.497715
  H 4.803272 -2.413003 -2.163910
  H 6.992092 -0.403104 -1.417160
  H 6.579959 -1.949811 -4.018446
 17
 19.117503
  C 1.127319 -0.084564 -0.115717
  C 2.563246 0.355411 -0.026920
  C 3.585209 -0.402979 -0.285814
  C 4.618829 -1.158368 -0.499927
  C 5.083647 -1.362162 -1.918167
  C 6.526561 -1.048101 -2.145393
  C 7.208737 -1.421967 -3.210888
  H 8.241800 -1.153429 -3.350584
  H 0.464913 0.705366 0.227357
  H 0.954867 -0.972851 0.490518
  H 0.869461 -0.329250 -1.145759
  H 2.733282 1.405046 0.182626
  H 4.427993 -0.696380 -2.494438
  H 5.159373 -1.642420 0.301006
  H 4.827995 -2.365579 -2.275102
  H 6.999910 -0.450553 -1.376958
  H 6.761624 -2.019376 -3.989084
 17
 18.161256
  C 1.073733 -0.111604 -0.015157
  C 2.516891 0.313061 0.013498
  C 3.512690 -0.437437 -0.347001
  C 4.556529 -1.143973 -0.663616
  C 5.105722 -1.187165 -2.062635
  C 6.602847 -1.151387 -2.104337
  C 7.322662 -1.455556 -3.167527
  H 8.397704 -1.400268 -3.163775
  H 0.433477 0.689215 0.343883
  H 0.920497 -0.987657 0.613687
  H 0.769209 -0.371932 -1.028223
  H 2.715142 1.328587 0.334429
  H 4.691547 -0.322056 -2.591073
  H 5.058956 -1.750729 0.079565
  H 4.732579 -2.072458 -2.589063
  H 7.089214 -0.835120 -1.190534
  H 6.864908 -1.773880 -4.090347
 17
 17.339488
  C 1.088778 -0.117020 -0.014017
  C 2.527702 0.322661 0.047494
  C 3.532689 -0.412315 -0.319095
  C 4.536392 -1.141103 -0.696755
  C 5.084259 -1.156041 -2.098554
  C 6.583857 -1.098080 -2.119857
  C 7.326997 -1.500155 -3.133768
  H 8.401260 -1.427699 -3.118857
  H 0.436514 0.657201 0.381882
  H 0.940751 -1.028164 0.565230
  H 0.795522 -0.326401 -1.042814
  H 2.712965 1.318961 0.430467
  H 4.678040 -0.301939 -2.648801
  H 5.033274 -1.794837 0.010314
  H 4.745967 -2.063476 -2.609739
  H 7.049164 -0.681708 -1.235631
  H 6.890175 -1.920241 -4.025726
