18

H -2.4812628874330365 0.7015397373315746 -0.05741761257199089
C -2.066985 0.588964 -0.028806
C -1.64866 -0.472424 0.639736
C -0.236855 -0.940834 0.798491
C 0.812862 -0.077311 0.10676
C 2.224111 -0.614292 0.341103
C 3.286991 0.21245 -0.392033
H -1.363804 1.231141 -0.539821
H -2.379749 -1.098207 1.140499
H -0.011186 -0.993814 1.870669
H -0.173033 -1.963924 0.407299
H 0.609622 -0.055783 -0.96721
H 0.752025 0.944513 0.489967
H 2.424749 -0.595676 1.416303
H 2.268272 -1.657697 0.021538
H 3.992701 0.659702 0.305874
H 3.850982 -0.402368 -1.092069
H 2.824611 1.018342 -0.959597
