 13
 0.000000
  C 0.990302 0.139995 0.400901
  C 2.434818 0.106545 0.317153
  H 3.024388 0.445539 1.160490
  C 3.088313 -0.347178 -0.812682
  C 4.490614 -0.393639 -0.929973
  C 5.121792 -0.842422 -2.048565
  H 4.604187 -1.194766 -2.925993
  H 6.197931 -0.865132 -2.105720
  H 0.627305 0.522341 1.351076
  H 0.575869 -0.860231 0.224491
  H 0.576406 0.740966 -0.418166
  H 2.493763 -0.684980 -1.652925
  H 5.078393 -0.055140 -0.087616
 13
 -0.030591
  C 0.993449 0.153739 0.406231
  C 2.434387 0.101286 0.303578
  H 3.032808 0.469304 1.126977
  C 3.086079 -0.388672 -0.816201
  C 4.489909 -0.410929 -0.919092
  C 5.130293 -0.815117 -2.049272
  H 4.582333 -1.075280 -2.942091
  H 6.206742 -0.875337 -2.095207
  H 0.645724 0.575321 1.340234
  H 0.566362 -0.844840 0.255617
  H 0.569125 0.707074 -0.439563
  H 2.497297 -0.771131 -1.641867
  H 5.062742 -0.111394 -0.051751
 13
 0.217774
  C 0.992371 0.164186 0.402575
  C 2.432644 0.112215 0.299037
  H 3.031266 0.522787 1.101664
  C 3.082734 -0.415469 -0.803103
  C 4.488880 -0.454780 -0.903135
  C 5.129920 -0.796806 -2.052665
  H 4.582740 -1.008029 -2.957475
  H 6.206019 -0.832359 -2.107341
  H 0.644952 0.611820 1.326846
  H 0.566998 -0.838351 0.277064
  H 0.564454 0.696459 -0.456544
  H 2.494995 -0.829766 -1.611872
  H 5.062087 -0.209760 -0.017303
 13
 0.820036
  C 0.991919 0.190811 0.391086
  C 2.432565 0.098777 0.304094
  H 3.033617 0.518515 1.100114
  C 3.078821 -0.480274 -0.773294
  C 4.484506 -0.475782 -0.897053
  C 5.125891 -0.760808 -2.061553
  H 4.580560 -0.923556 -2.976301
  H 6.201169 -0.791042 -2.117818
  H 0.648211 0.678930 1.297273
  H 0.543899 -0.803668 0.294979
  H 0.584865 0.708734 -0.485793
  H 2.490622 -0.952077 -1.549031
  H 5.058222 -0.274820 -0.000099
 13
 1.431961
  C 0.989230 0.190268 0.400631
  C 2.431086 0.126604 0.288067
  H 3.035628 0.598069 1.054770
  C 3.069533 -0.470177 -0.784873
  C 4.476379 -0.482342 -0.904131
  C 5.133357 -0.774797 -2.054489
  H 4.606901 -0.871279 -2.992848
  H 6.207209 -0.859974 -2.082247
  H 0.652662 0.632747 1.335066
  H 0.556137 -0.800537 0.259583
  H 0.562440 0.748690 -0.439383
  H 2.468065 -0.972584 -1.531794
  H 5.030497 -0.317198 0.012565
 13
 1.620192
  C 0.984651 0.204545 0.402233
  C 2.425991 0.120293 0.294026
  H 3.037639 0.592491 1.050972
  C 3.061083 -0.481018 -0.772564
  C 4.466043 -0.529793 -0.888143
  C 5.127430 -0.754720 -2.051351
  H 4.611192 -0.795968 -2.996520
  H 6.202007 -0.859738 -2.072452
  H 0.650468 0.729634 1.292880
  H 0.541039 -0.793138 0.352428
  H 0.556994 0.688828 -0.485462
  H 2.462155 -0.950080 -1.543128
  H 5.047248 -0.407413 0.015204
 13
 2.472005
  C 0.986539 0.210127 0.407850
  C 2.425173 0.144020 0.284662
  H 3.033456 0.684075 0.996337
  C 3.048728 -0.487300 -0.775877
  C 4.459163 -0.568681 -0.879275
  C 5.128707 -0.750185 -2.040226
  H 4.628167 -0.650056 -2.990776
  H 6.192025 -0.932019 -2.061431
  H 0.664167 0.750547 1.290198
  H 0.560977 -0.800525 0.380185
  H 0.541256 0.670054 -0.484895
  H 2.445129 -0.974584 -1.537396
  H 5.013175 -0.511742 0.051830
 13
 3.476262
  C 0.984167 0.223028 0.418114
  C 2.421427 0.167644 0.262573
  H 3.042469 0.738229 0.942161
  C 3.033433 -0.492264 -0.784976
  C 4.437685 -0.602853 -0.882819
  C 5.137842 -0.735754 -2.033710
  H 4.676675 -0.554654 -2.990334
  H 6.194797 -0.952439 -2.030119
  H 0.671005 0.794160 1.285831
  H 0.568307 -0.790208 0.441895
  H 0.511239 0.640751 -0.477855
  H 2.415577 -0.983810 -1.528852
  H 4.984118 -0.650153 0.060931
 13
 5.003578
  C 0.986208 0.265781 0.397103
  C 2.425007 0.155647 0.258706
  H 3.058188 0.685901 0.957264
  C 3.020541 -0.574998 -0.747519
  C 4.430895 -0.635227 -0.887638
  C 5.129727 -0.682957 -2.037350
  H 4.677568 -0.407609 -2.978651
  H 6.184509 -0.896007 -2.048688
  H 0.688092 0.904413 1.221891
  H 0.546963 -0.733500 0.502591
  H 0.525905 0.628737 -0.528467
  H 2.393447 -1.120282 -1.440126
  H 4.960119 -0.769130 0.057220
 13
 6.753381
  C 0.978673 0.274000 0.401550
  C 2.420415 0.165172 0.260438
  H 3.051193 0.683569 0.973304
  C 3.009229 -0.571421 -0.739164
  C 4.421520 -0.603760 -0.922339
  C 5.146555 -0.667774 -2.046285
  H 4.745827 -0.330175 -2.992011
  H 6.174343 -0.987081 -2.048857
  H 0.686945 0.924752 1.220104
  H 0.548669 -0.723338 0.543017
  H 0.510618 0.623722 -0.523060
  H 2.378867 -1.156180 -1.400622
  H 4.894603 -0.790593 0.042007
 13
 8.633126
  C 0.976331 0.287254 0.398837
  C 2.417539 0.173762 0.249313
  H 3.053796 0.733639 0.923629
  C 2.997477 -0.608699 -0.720995
  C 4.407977 -0.623967 -0.925339
  C 5.143934 -0.638798 -2.040149
  H 4.774375 -0.215734 -2.965835
  H 6.160054 -0.991068 -2.052689
  H 0.694589 0.959064 1.203840
  H 0.548141 -0.705265 0.575452
  H 0.499619 0.615152 -0.529627
  H 2.359737 -1.229138 -1.339579
  H 4.866641 -0.895001 0.032731
 13
 11.488113
  C 0.968115 0.272610 0.424999
  C 2.412925 0.206241 0.240867
  H 3.041510 0.756183 0.927223
  C 2.987141 -0.562807 -0.738934
  C 4.393175 -0.572509 -0.989245
  C 5.182195 -0.665964 -2.050003
  H 4.888636 -0.227150 -2.994109
  H 6.170259 -1.090720 -2.019136
  H 0.693980 0.917142 1.253810
  H 0.573214 -0.733479 0.607972
  H 0.458568 0.618654 -0.477579
  H 2.346450 -1.195492 -1.346269
  H 4.724906 -0.848059 0.025031
 13
 13.825061
  C 0.974899 0.280138 0.433089
  C 2.422592 0.204386 0.247061
  H 3.043424 0.760175 0.920416
  C 2.988097 -0.578801 -0.725440
  C 4.386348 -0.601620 -1.000745
  C 5.191596 -0.661780 -2.039386
  H 4.886329 -0.219125 -2.997392
  H 6.176464 -1.053989 -2.017749
  H 0.711358 0.928835 1.262653
  H 0.570746 -0.722701 0.634742
  H 0.461897 0.630287 -0.468580
  H 2.328972 -1.203696 -1.336326
  H 4.658851 -0.893343 0.040539
