 23
 0.000000
  H 1.558854 0.157403 0.443014
  C 2.638949 0.139331 0.399682
  C 3.353785 0.617243 1.588867
  C 2.437367 1.073145 2.719986
  C 3.239409 1.556272 3.923074
  C 3.215603 -0.327367 -0.761027
  C 4.594416 -0.413902 -0.976386
  C 5.205520 -0.881211 -2.144257
  C 4.488351 -1.360335 -3.340586
  H 3.413931 -1.321300 -3.242707
  O 6.504719 -0.922299 -2.249485
  H 4.019132 1.443288 1.309712
  H 4.017869 -0.172862 1.959863
  H 1.793101 0.247724 3.027971
  H 1.794824 1.883070 2.370121
  H 3.870417 0.761586 4.314561
  H 2.572667 1.877240 4.719099
  H 3.872186 2.399534 3.655637
  H 2.546685 -0.642539 -1.546960
  H 5.242593 -0.091746 -0.171832
  H 4.803534 -2.381201 -3.558666
  H 4.803272 -0.771966 -4.202970
  H 7.000026 -0.607874 -1.468779
 23
 4.968307
  H 1.570948 0.156660 0.439431
  C 2.649657 0.151451 0.428385
  C 3.340216 0.631028 1.622993
  C 2.408257 1.082848 2.743854
  C 3.193767 1.569481 3.957088
  C 3.269484 -0.300289 -0.695329
  C 4.621726 -0.415168 -0.981074
  C 5.188017 -0.895078 -2.179197
  C 4.443195 -1.370916 -3.365153
  H 3.364271 -1.329438 -3.260215
  O 6.501786 -0.951727 -2.323445
  H 4.009529 1.457901 1.349836
  H 4.007762 -0.156332 1.998447
  H 1.763337 0.254320 3.043121
  H 1.765753 1.889618 2.385719
  H 3.823730 0.777466 4.355920
  H 2.516022 1.887493 4.745440
  H 3.826139 2.415478 3.697277
  H 2.800117 -0.654136 -1.577387
  H 5.334390 -0.108576 -0.215670
  H 4.747840 -2.394759 -3.585395
  H 4.746971 -0.782251 -4.231541
  H 7.027906 -0.641371 -1.554817
 23
 15.178836
  H 1.591331 0.153575 0.430747
  C 2.670625 0.161299 0.444251
  C 3.336237 0.647079 1.652121
  C 2.383930 1.086894 2.762443
  C 3.146727 1.579749 3.985781
  C 3.329466 -0.284653 -0.667299
  C 4.662813 -0.416193 -0.997546
  C 5.174470 -0.905806 -2.203646
  C 4.401560 -1.372132 -3.368089
  H 3.323538 -1.320138 -3.253622
  O 6.466347 -0.984933 -2.383028
  H 4.004717 1.480028 1.387983
  H 4.011591 -0.133363 2.033223
  H 1.744671 0.251235 3.051365
  H 1.736967 1.886079 2.397791
  H 3.780439 0.794716 4.391047
  H 2.455431 1.888046 4.765300
  H 3.772392 2.433094 3.735911
  H 3.029792 -0.661808 -1.599970
  H 5.438655 -0.121054 -0.272083
  H 4.691296 -2.400649 -3.589393
  H 4.699350 -0.787845 -4.240233
  H 7.011990 -0.688653 -1.637883
 23
 28.928490
  H 1.603862 0.157113 0.435827
  C 2.682140 0.169671 0.463419
  C 3.329704 0.655783 1.673971
  C 2.366558 1.090083 2.771012
  C 3.115638 1.587614 4.006356
  C 3.359723 -0.270868 -0.634559
  C 4.687859 -0.419051 -1.006912
  C 5.169524 -0.913357 -2.222471
  C 4.369139 -1.377762 -3.380051
  H 3.285092 -1.319803 -3.251802
  O 6.459682 -1.002057 -2.425669
  H 3.997048 1.487978 1.416351
  H 4.004223 -0.119461 2.059208
  H 1.726501 0.249542 3.052872
  H 1.718495 1.887961 2.397911
  H 3.749670 0.804240 4.419390
  H 2.412869 1.893296 4.779975
  H 3.741339 2.445204 3.763401
  H 3.205617 -0.660445 -1.597772
  H 5.500376 -0.137209 -0.316114
  H 4.649259 -2.407518 -3.604908
  H 4.657789 -0.796305 -4.256501
  H 7.020962 -0.708173 -1.688459
 23
 44.276984
  H 1.599233 0.160277 0.437975
  C 2.676730 0.173482 0.470457
  C 3.320930 0.660162 1.686030
  C 2.355200 1.093291 2.778243
  C 3.098053 1.590423 4.015770
  C 3.360448 -0.262215 -0.614696
  C 4.701547 -0.421321 -1.015955
  C 5.167630 -0.917072 -2.232661
  C 4.348563 -1.378868 -3.378826
  H 3.270646 -1.315678 -3.235840
  O 6.456871 -1.010804 -2.450834
  H 3.988072 1.490226 1.429779
  H 3.993597 -0.113591 2.071170
  H 1.714591 0.252517 3.057332
  H 1.708558 1.890502 2.402099
  H 3.730850 0.806950 4.431345
  H 2.391892 1.895514 4.786253
  H 3.724690 2.448652 3.775574
  H 3.338165 -0.654166 -1.583759
  H 5.543136 -0.152395 -0.359562
  H 4.620545 -2.411050 -3.606185
  H 4.627942 -0.799009 -4.260205
  H 7.026207 -0.717055 -1.718509
 23
 57.403305
  H 1.577141 0.243403 0.422867
  C 2.663065 0.214782 0.465565
  C 3.312420 0.656172 1.706551
  C 2.351863 1.109299 2.790132
  C 3.096458 1.561812 4.042473
  C 3.340295 -0.233676 -0.621683
  C 4.682051 -0.372839 -1.055240
  C 5.164918 -0.909996 -2.254369
  C 4.354939 -1.440056 -3.381424
  H 3.279399 -1.395559 -3.233689
  O 6.452029 -0.980466 -2.468999
  H 4.013176 1.464227 1.468167
  H 3.953030 -0.145646 2.091882
  H 1.677696 0.290160 3.049798
  H 1.740005 1.934134 2.417174
  H 3.693063 0.752228 4.453971
  H 2.393675 1.882212 4.806997
  H 3.755617 2.396976 3.822273
  H 3.418817 -0.645684 -1.601388
  H 5.520555 -0.053155 -0.407013
  H 4.649743 -2.468120 -3.566059
  H 4.614109 -0.894950 -4.283428
  H 7.017456 -0.643978 -1.747381
 23
 66.739871
  H 1.588843 0.345276 0.407717
  C 2.661847 0.252750 0.446285
  C 3.321213 0.629451 1.727288
  C 2.348772 1.123107 2.796784
  C 3.088158 1.529151 4.068234
  C 3.310711 -0.201970 -0.624088
  C 4.658108 -0.321259 -1.111926
  C 5.164164 -0.893491 -2.273943
  C 4.364378 -1.501284 -3.361227
  H 3.293119 -1.481894 -3.192957
  O 6.454857 -0.937049 -2.501675
  H 4.054836 1.413205 1.494255
  H 3.910696 -0.207699 2.126917
  H 1.631665 0.336816 3.038008
  H 1.787641 1.977841 2.416548
  H 3.636909 0.684495 4.485905
  H 2.383982 1.879363 4.821368
  H 3.795301 2.334961 3.866780
  H 3.457364 -0.621835 -1.610627
  H 5.474852 0.069893 -0.459998
  H 4.697641 -2.539184 -3.496463
  H 4.587452 -0.988842 -4.305459
  H 7.016933 -0.564838 -1.797496
 23
 71.772421
  H 1.598161 0.456311 0.404402
  C 2.669001 0.312424 0.440550
  C 3.325761 0.628752 1.752412
  C 2.353135 1.132232 2.798764
  C 3.077056 1.475430 4.088658
  C 3.304980 -0.142363 -0.615855
  C 4.652018 -0.259977 -1.175790
  C 5.171084 -0.886009 -2.290473
  C 4.371724 -1.585001 -3.335354
  H 3.296078 -1.578642 -3.149040
  O 6.466234 -0.907169 -2.528994
  H 4.083613 1.385665 1.552764
  H 3.857126 -0.239079 2.136056
  H 1.602397 0.370652 3.003877
  H 1.838409 2.018152 2.430437
  H 3.580288 0.601995 4.494212
  H 2.372800 1.834663 4.832258
  H 3.817499 2.252995 3.921904
  H 3.489374 -0.576970 -1.617946
  H 5.428673 0.213697 -0.545929
  H 4.721710 -2.616117 -3.408310
  H 4.567546 -1.129129 -4.306678
  H 7.019772 -0.470327 -1.859337
 23
 75.468829
  H 1.613665 0.548106 0.393360
  C 2.682309 0.370852 0.430765
  C 3.328507 0.631405 1.762386
  C 2.342206 1.139655 2.809256
  C 3.058124 1.427978 4.138795
  C 3.312392 -0.077591 -0.622796
  C 4.652250 -0.205762 -1.242852
  C 5.175222 -0.884134 -2.322604
  C 4.376980 -1.670552 -3.304580
  H 3.323391 -1.683424 -3.092108
  O 6.467536 -0.882921 -2.583291
  H 4.113326 1.376555 1.599414
  H 3.818611 -0.267237 2.127764
  H 1.559601 0.392095 2.977162
  H 1.862101 2.056699 2.453200
  H 3.529695 0.521731 4.533891
  H 2.345458 1.792694 4.884675
  H 3.831808 2.191529 4.006633
  H 3.519963 -0.501610 -1.635893
  H 5.406675 0.327879 -0.641444
  H 4.753246 -2.693602 -3.325901
  H 4.537043 -1.268741 -4.301278
  H 7.021034 -0.401732 -1.942785
 23
 78.541972
  H 1.632678 0.637326 0.385324
  C 2.693563 0.427546 0.428542
  C 3.330070 0.631768 1.777541
  C 2.345153 1.143466 2.817529
  C 3.040402 1.368591 4.157448
  C 3.319545 -0.015766 -0.626129
  C 4.643443 -0.150636 -1.296330
  C 5.174959 -0.878339 -2.338779
  C 4.382625 -1.752207 -3.253068
  H 3.334206 -1.787974 -3.007867
  O 6.460758 -0.847234 -2.620787
  H 4.138343 1.352527 1.653493
  H 3.778480 -0.294132 2.120650
  H 1.538195 0.422880 2.949257
  H 1.906919 2.081821 2.480454
  H 3.471888 0.437562 4.534541
  H 2.329001 1.737192 4.898844
  H 3.841386 2.106307 4.060064
  H 3.541267 -0.426672 -1.654082
  H 5.381131 0.447562 -0.727533
  H 4.795793 -2.767855 -3.223913
  H 4.505553 -1.403726 -4.281993
  H 7.007172 -0.314159 -2.017666
 23
 80.305900
  H 1.653422 0.699814 0.377220
  C 2.711560 0.470330 0.430214
  C 3.332545 0.630611 1.795134
  C 2.335823 1.139673 2.833109
  C 3.012990 1.319723 4.193358
  C 3.340844 0.038794 -0.624072
  C 4.655078 -0.102340 -1.347371
  C 5.180009 -0.881197 -2.364649
  C 4.386612 -1.819670 -3.197838
  H 3.341441 -1.868524 -2.911190
  O 6.457943 -0.835469 -2.687158
  H 4.162720 1.340625 1.703491
  H 3.755085 -0.318526 2.124103
  H 1.510541 0.431459 2.933777
  H 1.921753 2.097610 2.510216
  H 3.418088 0.373732 4.555181
  H 2.297924 1.685087 4.929226
  H 3.827666 2.040100 4.127832
  H 3.572486 -0.357827 -1.687727
  H 5.379084 0.541348 -0.834169
  H 4.824656 -2.813773 -3.128866
  H 4.464927 -1.527894 -4.240560
  H 7.007960 -0.253775 -2.133535
 23
 80.110346
  H 1.703494 0.776708 0.361404
  C 2.761387 0.547531 0.426968
  C 3.349222 0.647184 1.809988
  C 2.328051 1.118430 2.838827
  C 2.966000 1.237788 4.219189
  C 3.412391 0.137565 -0.619696
  C 4.680586 -0.021599 -1.409688
  C 5.180009 -0.883024 -2.376915
  C 4.366004 -1.910392 -3.088439
  H 3.340464 -1.952341 -2.745836
  O 6.437535 -0.829997 -2.766039
  H 4.188001 1.351192 1.772299
  H 3.753274 -0.323289 2.110162
  H 1.497272 0.415733 2.886566
  H 1.930861 2.092099 2.545560
  H 3.352892 0.276477 4.550838
  H 2.234666 1.575560 4.947555
  H 3.784517 1.950451 4.206961
  H 3.616655 -0.233603 -1.737979
  H 5.402618 0.671165 -0.973904
  H 4.830571 -2.891577 -2.960271
  H 4.384840 -1.704900 -4.161210
  H 6.992952 -0.178797 -2.301785
 23
 78.461784
  H 1.754771 0.845471 0.340813
  C 2.809130 0.601015 0.425339
  C 3.366236 0.654217 1.829444
  C 2.317433 1.082792 2.847316
  C 2.918513 1.159614 4.247138
  C 3.487772 0.220748 -0.611375
  C 4.700102 0.057233 -1.479595
  C 5.175181 -0.887789 -2.395614
  C 4.349030 -1.980471 -2.968325
  H 3.342671 -2.011745 -2.564994
  O 6.410759 -0.849032 -2.845238
  H 4.200625 1.358428 1.841439
  H 3.767170 -0.322267 2.101054
  H 1.492782 0.370523 2.849815
  H 1.917957 2.062214 2.576732
  H 3.308603 0.191458 4.555804
  H 2.164722 1.464621 4.968209
  H 3.729830 1.881534 4.279446
  H 3.648360 -0.114334 -1.801417
  H 5.420778 0.797959 -1.124775
  H 4.841292 -2.939014 -2.783512
  H 4.303690 -1.869872 -4.053843
  H 6.968075 -0.142075 -2.471380
