 20
 0.000000
  H 1.409017 0.173936 0.485551
  C 2.479169 0.137288 0.393601
  H 3.098278 0.465757 1.210251
  C 3.021248 -0.330470 -0.770881
  C 4.405484 -0.412911 -0.976967
  C 5.108853 -0.864383 -2.102812
  C 4.616293 -1.384532 -3.400153
  C 3.129141 -1.505990 -3.704351
  C 2.927458 -2.069368 -5.109055
  O 6.417443 -0.850970 -2.069239
  H 2.347033 -0.643596 -1.549981
  H 5.015557 -0.078259 -0.143666
  H 5.081083 -2.370299 -3.526718
  H 5.081847 -0.759893 -4.172754
  H 2.649472 -0.527729 -3.656439
  H 2.648877 -2.179717 -2.993865
  H 3.372828 -1.420332 -5.859086
  H 1.866632 -2.157001 -5.328457
  H 3.372355 -3.057060 -5.202565
  H 6.804259 -0.517599 -1.235438
 20
 12.293089
  H 1.360812 0.195141 0.538287
  C 2.427405 0.143069 0.408149
  H 3.073010 0.464862 1.208343
  C 2.922834 -0.325160 -0.757616
  C 4.435542 -0.422154 -0.999866
  C 5.105053 -0.870295 -2.117510
  C 4.620462 -1.385677 -3.402988
  C 3.136486 -1.505531 -3.703334
  C 2.929115 -2.068569 -5.107006
  O 6.540955 -0.857583 -2.085965
  H 2.240531 -0.634280 -1.526969
  H 5.047695 -0.089708 -0.171819
  H 5.088829 -2.371161 -3.531968
  H 5.089755 -0.763033 -4.177170
  H 2.658100 -0.526370 -3.653014
  H 2.657422 -2.178151 -2.990443
  H 3.372420 -1.420732 -5.858995
  H 1.867594 -2.154698 -5.322703
  H 3.371926 -3.056776 -5.202646
  H 6.917304 -0.525475 -1.255558
 20
 36.348552
  H 1.371524 0.251337 0.676456
  C 2.422815 0.161848 0.455362
  H 3.110297 0.469949 1.224858
  C 2.825564 -0.311556 -0.725110
  C 4.455647 -0.419357 -0.991529
  C 5.045036 -0.874264 -2.127524
  C 4.624600 -1.390045 -3.414434
  C 3.148585 -1.520821 -3.741497
  C 2.932876 -2.082347 -5.140724
  O 6.621147 -0.860731 -2.095753
  H 2.169855 -0.628825 -1.518077
  H 5.024428 -0.079408 -0.142440
  H 5.127269 -2.359244 -3.546360
  H 5.128430 -0.781472 -4.179571
  H 2.661447 -0.543829 -3.678247
  H 2.661018 -2.182900 -3.020505
  H 3.374236 -1.439181 -5.898682
  H 1.869870 -2.166666 -5.351157
  H 3.374297 -3.071272 -5.243730
  H 6.917029 -0.520842 -1.245388
 20
 65.727337
  H 1.341949 0.271665 0.726857
  C 2.386200 0.170541 0.476693
  H 3.091278 0.472676 1.231706
  C 2.745207 -0.303005 -0.703849
  C 4.475734 -0.425020 -1.005039
  C 5.006741 -0.876677 -2.133033
  C 4.618168 -1.391136 -3.416438
  C 3.158281 -1.523320 -3.747273
  C 2.937747 -2.082967 -5.142276
  O 6.737912 -0.867917 -2.114666
  H 2.104647 -0.621459 -1.499792
  H 5.032733 -0.084569 -0.154291
  H 5.132215 -2.362469 -3.548674
  H 5.133058 -0.781173 -4.182985
  H 2.667908 -0.544044 -3.681881
  H 2.667176 -2.185352 -3.023326
  H 3.379604 -1.442877 -5.903130
  H 1.873439 -2.165713 -5.349462
  H 3.379106 -3.071544 -5.249625
  H 7.001647 -0.531459 -1.273597
 20
 94.092608
  H 1.311563 0.281240 0.751841
  C 2.354093 0.175514 0.489569
  H 3.065686 0.475603 1.239239
  C 2.685935 -0.296215 -0.686920
  C 4.492645 -0.424597 -1.004934
  C 4.969286 -0.874014 -2.127198
  C 4.619348 -1.392378 -3.420795
  C 3.147170 -1.529922 -3.764423
  C 2.922315 -2.086941 -5.151779
  O 6.882710 -0.870489 -2.119827
  H 2.078015 -0.617494 -1.489499
  H 5.032660 -0.081561 -0.148393
  H 5.140257 -2.352953 -3.545257
  H 5.141476 -0.785112 -4.174806
  H 2.657054 -0.556041 -3.693482
  H 2.656471 -2.184188 -3.039894
  H 3.361852 -1.449522 -5.916239
  H 1.859162 -2.167535 -5.352951
  H 3.361662 -3.076089 -5.263072
  H 7.131252 -0.528270 -1.262724
 20
 117.054729
  H 1.291613 0.310153 0.772671
  C 2.332847 0.186601 0.506959
  H 3.053188 0.467407 1.255627
  C 2.636153 -0.278946 -0.666089
  C 4.473520 -0.439312 -1.008082
  C 4.904034 -0.878163 -2.125495
  C 4.592703 -1.387649 -3.412635
  C 3.131759 -1.536984 -3.767491
  C 2.928837 -2.093950 -5.162958
  O 7.040966 -0.870373 -2.135881
  H 2.026975 -0.589684 -1.488198
  H 5.014800 -0.111908 -0.148496
  H 5.123581 -2.349587 -3.537272
  H 5.114281 -0.765369 -4.163047
  H 2.629248 -0.562746 -3.696321
  H 2.638187 -2.200196 -3.044251
  H 3.370926 -1.450135 -5.921226
  H 1.866314 -2.185597 -5.376027
  H 3.381409 -3.077849 -5.272957
  H 7.308423 -0.521376 -1.276490
 20
 107.599885
  H 1.445609 0.494188 0.946057
  C 2.475065 0.282101 0.694914
  H 3.197715 0.491651 1.454285
  C 2.786221 -0.194477 -0.527257
  C 4.185948 -0.465233 -0.911264
  C 4.492901 -0.880690 -2.097161
  C 4.450113 -1.350917 -3.399639
  C 2.988521 -1.621468 -3.905004
  C 3.031081 -2.185059 -5.339893
  O 7.289477 -0.858573 -2.107196
  H 2.055394 -0.390495 -1.285712
  H 4.874020 -0.256966 -0.107902
  H 5.040512 -2.274534 -3.475765
  H 4.957150 -0.650460 -4.076270
  H 2.413691 -0.678411 -3.892904
  H 2.489266 -2.343513 -3.235630
  H 3.507380 -1.489148 -6.034263
  H 2.006636 -2.362767 -5.683102
  H 3.577472 -3.130009 -5.387639
  H 7.579009 -0.465208 -1.283021
 20
 102.597536
  H 1.568442 0.676091 1.213802
  C 2.534364 0.369551 0.850602
  H 3.352820 0.424769 1.548629
  C 2.681763 -0.049890 -0.410421
  C 3.960613 -0.472599 -0.943684
  C 4.285188 -0.882333 -2.114206
  C 4.455529 -1.351421 -3.396013
  C 3.030867 -1.630845 -4.000521
  C 3.190005 -2.198137 -5.398048
  O 6.967126 -1.000498 -2.150354
  H 1.845141 -0.089957 -1.090817
  H 4.790761 -0.422093 -0.236063
  H 5.017040 -2.294728 -3.391511
  H 5.002551 -0.644937 -4.029851
  H 2.473399 -0.696176 -4.037233
  H 2.501144 -2.337359 -3.363058
  H 3.704388 -1.503737 -6.056317
  H 2.200232 -2.382597 -5.810066
  H 3.734562 -3.137881 -5.389896
  H 7.583948 -0.705281 -1.476160
