 20
 0.000000
  C 1.007197 -0.072037 0.046640
  C 2.503311 -0.082656 0.025794
  C 3.218459 -0.595536 -0.981079
  C 4.656584 -0.605805 -1.001236
  C 5.377979 -1.120723 -2.012105
  C 6.816779 -1.129771 -2.029863
  C 7.534631 -1.641558 -3.034596
  C 9.024662 -1.662102 -3.074916
  H 0.645363 0.394414 0.962358
  H 0.611511 -1.087054 0.008890
  H 0.611512 0.494219 -0.796594
  H 3.003384 0.352975 0.881016
  H 2.707220 -1.029070 -1.832166
  H 5.160444 -0.170620 -0.146898
  H 4.874737 -1.556023 -2.866671
  H 7.323337 -0.695143 -1.176616
  H 7.034867 -2.077724 -3.890843
  H 9.463314 -1.209659 -2.186704
  H 9.382054 -1.116522 -3.949831
  H 9.382054 -2.690585 -3.148031
 20
 1.165192
  C 1.079926 -0.029386 0.130369
  C 2.563238 -0.083970 0.023213
  C 3.194295 -0.616700 -1.022631
  C 4.623190 -0.669099 -1.125499
  C 5.304443 -1.192240 -2.152511
  C 6.732760 -1.192838 -2.153672
  C 7.539770 -1.677135 -3.104434
  C 9.016089 -1.600025 -2.953062
  H 0.770950 0.442780 1.057305
  H 0.657645 -1.031128 0.099837
  H 0.657652 0.534895 -0.697864
  H 3.119176 0.336100 0.847889
  H 2.619886 -1.035386 -1.844574
  H 5.176438 -0.244689 -0.292312
  H 4.787721 -1.624747 -3.001594
  H 7.187371 -0.744741 -1.273997
  H 7.143907 -2.136770 -4.006759
  H 9.219429 -1.118026 -2.006820
  H 9.472337 -1.020326 -3.765860
  H 9.472350 -2.598357 -2.962052
 20
 4.178090
  C 1.159599 0.029253 0.231588
  C 2.644357 -0.120543 0.011553
  C 3.152897 -0.643300 -1.106834
  C 4.562943 -0.758382 -1.281031
  C 5.230236 -1.254002 -2.337203
  C 6.657864 -1.256047 -2.273521
  C 7.561910 -1.677016 -3.156742
  C 9.000881 -1.543072 -2.798942
  H 0.944786 0.476467 1.196306
  H 0.666533 -0.939890 0.187549
  H 0.718866 0.657639 -0.542449
  H 3.296802 0.219963 0.800352
  H 2.502986 -0.987246 -1.902336
  H 5.146533 -0.392584 -0.445861
  H 4.724525 -1.639630 -3.211686
  H 7.037505 -0.842789 -1.348082
  H 7.292121 -2.105654 -4.109447
  H 9.012703 -1.086146 -1.799315
  H 9.535141 -0.909030 -3.503093
  H 9.501046 -2.508601 -2.774263
 20
 8.462660
  C 1.289887 0.050159 0.343086
  C 2.723548 -0.107316 -0.051046
  C 3.099601 -0.660645 -1.209091
  C 4.487740 -0.804281 -1.467882
  C 5.152908 -1.317672 -2.516773
  C 6.573870 -1.296897 -2.385972
  C 7.577950 -1.695062 -3.165551
  C 8.949928 -1.479490 -2.622020
  H 1.198135 0.513293 1.325486
  H 0.791816 -0.922138 0.369883
  H 0.758030 0.668875 -0.382634
  H 3.470017 0.227387 0.654997
  H 2.378037 -1.000625 -1.931846
  H 5.099322 -0.428964 -0.650600
  H 4.672835 -1.721040 -3.387331
  H 6.873369 -0.859160 -1.441426
  H 7.448035 -2.147844 -4.135000
  H 8.792186 -1.012347 -1.642383
  H 9.542208 -0.822264 -3.260901
  H 9.496197 -2.416775 -2.507056
 20
 14.587555
  C 1.431675 0.026120 0.456691
  C 2.809414 -0.098364 -0.115945
  C 3.059466 -0.648293 -1.307075
  C 4.424978 -0.776967 -1.668497
  C 5.090520 -1.321150 -2.699623
  C 6.505871 -1.289594 -2.506702
  C 7.591642 -1.703806 -3.152181
  C 8.871915 -1.455075 -2.429410
  H 1.452452 0.490568 1.440056
  H 0.970378 -0.953258 0.547747
  H 0.797715 0.624306 -0.192631
  H 3.623121 0.250955 0.501615
  H 2.269692 -1.008854 -1.950307
  H 5.056503 -0.364837 -0.886079
  H 4.627241 -1.775176 -3.559353
  H 6.730137 -0.813752 -1.561657
  H 7.596352 -2.192134 -4.113609
  H 8.566743 -0.987095 -1.485028
  H 9.534085 -0.791631 -2.985554
  H 9.412357 -2.378791 -2.228662
 20
 22.268720
  C 1.588068 -0.010138 0.552037
  C 2.897391 -0.102443 -0.171909
  C 3.030250 -0.633062 -1.389242
  C 4.370653 -0.740842 -1.843330
  C 5.041191 -1.305421 -2.862802
  C 6.452271 -1.269516 -2.614788
  C 7.595422 -1.710388 -3.124830
  C 8.769744 -1.436337 -2.242411
  H 1.706186 0.445068 1.525202
  H 1.157940 -1.002765 0.685676
  H 0.870469 0.582523 -0.020827
  H 3.764854 0.262100 0.374078
  H 2.187029 -1.006688 -1.956579
  H 5.014886 -0.290070 -1.093122
  H 4.593604 -1.807818 -3.706158
  H 6.616605 -0.749790 -1.680991
  H 7.719663 -2.241091 -4.059846
  H 8.332274 -0.970018 -1.346259
  H 9.488669 -0.769477 -2.711122
  H 9.288115 -2.347947 -1.964448
 20
 30.604913
  C 1.751189 -0.048739 0.627355
  C 2.992733 -0.132724 -0.209629
  C 3.017007 -0.625240 -1.452243
  C 4.323276 -0.708951 -1.997791
  C 5.001433 -1.283197 -3.008644
  C 6.402243 -1.235317 -2.710259
  C 7.586141 -1.708927 -3.078047
  C 8.648875 -1.414453 -2.064663
  H 1.958720 0.388618 1.598289
  H 1.327312 -1.040797 0.779803
  H 0.992292 0.555808 0.131529
  H 3.899795 0.220085 0.267494
  H 2.134918 -0.996020 -1.947203
  H 4.977367 -0.214634 -1.285066
  H 4.571068 -1.840896 -3.831655
  H 6.510877 -0.654855 -1.806943
  H 7.811137 -2.287373 -3.956613
  H 8.100844 -0.954666 -1.216454
  H 9.415485 -0.743529 -2.447610
  H 9.138963 -2.322497 -1.723050
 20
 38.585684
  C 1.916776 -0.108140 0.689383
  C 3.097166 -0.174366 -0.235893
  C 3.021905 -0.611423 -1.500325
  C 4.288927 -0.645737 -2.137763
  C 4.976095 -1.239565 -3.134261
  C 6.368766 -1.166200 -2.796769
  C 7.558948 -1.710638 -3.014144
  C 8.509005 -1.401357 -1.894033
  H 2.201754 0.284966 1.664227
  H 1.482648 -1.099978 0.830951
  H 1.140260 0.527844 0.274036
  H 4.032254 0.160357 0.180291
  H 2.105912 -0.993651 -1.930087
  H 4.938171 -0.082655 -1.486323
  H 4.568535 -1.876866 -3.897119
  H 6.451804 -0.483964 -1.958803
  H 7.849542 -2.375143 -3.810243
  H 7.873078 -0.946180 -1.092531
  H 9.316733 -0.742054 -2.193626
  H 8.951688 -2.314133 -1.494697
 20
 45.904474
  C 2.088764 -0.193102 0.737282
  C 3.205874 -0.207489 -0.272496
  C 3.050028 -0.603340 -1.540273
  C 4.276387 -0.553112 -2.259475
  C 4.967029 -1.151732 -3.251771
  C 6.344614 -1.072866 -2.858155
  C 7.498932 -1.722176 -2.927967
  C 8.347175 -1.403657 -1.726435
  H 2.437589 0.154224 1.707849
  H 1.664594 -1.188312 0.862473
  H 1.285248 0.462593 0.403821
  H 4.161165 0.143455 0.092579
  H 2.125837 -1.021057 -1.904901
  H 4.916144 0.082950 -1.653616
  H 4.575006 -1.872333 -3.952979
  H 6.424324 -0.315361 -2.094942
  H 7.809651 -2.469074 -3.630367
  H 7.642728 -0.941045 -0.981492
  H 9.199242 -0.773533 -1.954861
  H 8.723169 -2.324925 -1.265267
 20
 46.197121
  C 2.270639 -0.332442 0.780815
  C 3.311639 -0.245519 -0.297965
  C 3.122459 -0.592163 -1.571924
  C 4.282852 -0.351696 -2.388987
  C 4.981299 -1.035883 -3.334468
  C 6.376264 -0.871581 -2.995570
  C 7.402984 -1.720030 -2.828448
  C 8.134682 -1.452637 -1.534013
  H 2.691533 -0.096666 1.752441
  H 1.831595 -1.329804 0.827227
  H 1.465242 0.368535 0.575436
  H 4.251439 0.183902 0.018991
  H 2.242121 -1.126409 -1.896830
  H 4.871199 0.407523 -1.884257
  H 4.617859 -1.937985 -3.797983
  H 6.517166 0.015492 -2.390672
  H 7.638300 -2.595179 -3.407593
  H 7.391435 -0.974051 -0.858887
  H 9.063692 -0.891632 -1.638791
  H 8.371532 -2.402882 -1.056594
 20
 44.036959
  C 2.475675 -0.553283 0.775320
  C 3.451356 -0.259916 -0.324734
  C 3.218889 -0.476174 -1.620588
  C 4.316140 -0.120428 -2.482567
  C 5.006393 -0.906235 -3.341951
  C 6.404102 -0.766405 -3.042756
  C 7.209431 -1.760131 -2.636593
  C 7.920222 -1.497584 -1.341198
  H 2.933674 -0.410169 1.750807
  H 2.107514 -1.571518 0.713168
  H 1.610053 0.113318 0.698097
  H 4.367624 0.214526 -0.011366
  H 2.375019 -1.048549 -1.959108
  H 4.871386 0.717664 -2.066495
  H 4.614046 -1.813435 -3.772718
  H 6.642607 0.194666 -2.597382
  H 7.233847 -2.753131 -3.066444
  H 7.188970 -0.950414 -0.712395
  H 8.877820 -1.002030 -1.422031
  H 8.080866 -2.448189 -0.826427
 20
 45.274301
  C 2.645776 -0.777576 0.732082
  C 3.584634 -0.317536 -0.349330
  C 3.315103 -0.354120 -1.651788
  C 4.376162 0.091252 -2.524906
  C 5.053028 -0.749923 -3.337114
  C 6.451110 -0.684907 -3.032353
  C 7.029661 -1.761804 -2.486006
  C 7.703096 -1.576709 -1.164984
  H 3.160767 -0.855900 1.685709
  H 2.213127 -1.742310 0.490960
  H 1.823534 -0.066009 0.844590
  H 4.498787 0.145493 0.000509
  H 2.458885 -0.879575 -2.035858
  H 4.928373 0.939519 -2.130550
  H 4.622180 -1.668288 -3.704855
  H 6.802363 0.286275 -2.691071
  H 6.791570 -2.767974 -2.806873
  H 6.978351 -0.986663 -0.561188
  H 8.671981 -1.080349 -1.211258
  H 7.829619 -2.532058 -0.671366
 20
 49.484763
  C 2.762384 -0.972315 0.667998
  C 3.706361 -0.412187 -0.358400
  C 3.395208 -0.233559 -1.640904
  C 4.459501 0.260949 -2.487001
  C 5.097386 -0.586876 -3.316432
  C 6.492784 -0.636342 -2.980339
  C 6.892420 -1.763907 -2.382869
  C 7.501628 -1.665452 -1.021775
  H 3.299187 -1.270872 1.564460
  H 2.225879 -1.836320 0.278039
  H 2.021980 -0.221599 0.949555
  H 4.642063 -0.050941 0.032160
  H 2.495234 -0.655946 -2.066002
  H 5.048052 1.076547 -2.052560
  H 4.609401 -1.457276 -3.726024
  H 6.945595 0.297527 -2.664499
  H 6.491419 -2.723714 -2.679089
  H 6.745037 -1.086631 -0.439188
  H 8.459783 -1.158034 -0.994927
  H 7.606365 -2.639333 -0.569517
 20
 54.964978
  C 2.836108 -1.141654 0.602456
  C 3.803099 -0.529739 -0.373918
  C 3.468874 -0.138414 -1.601657
  C 4.551532 0.393555 -2.418903
  C 5.164199 -0.439188 -3.285558
  C 6.543106 -0.599342 -2.908498
  C 6.797414 -1.774868 -2.315911
  C 7.295262 -1.769166 -0.908770
  H 3.366813 -1.657016 1.398062
  H 2.174702 -1.849014 0.107780
  H 2.215498 -0.366752 1.055998
  H 4.773547 -0.300530 0.038632
  H 2.522101 -0.414457 -2.035952
  H 5.160739 1.153284 -1.934737
  H 4.637319 -1.257153 -3.753354
  H 7.060681 0.286033 -2.559873
  H 6.277575 -2.670662 -2.636489
  H 6.478328 -1.231232 -0.364718
  H 8.235553 -1.243304 -0.773667
  H 7.382713 -2.773958 -0.504877
