10

H 3.587586132156246 -0.5976176662110836 -0.9851625575338372
C 4.657444 -0.605534 -1.000702
C 5.377524 -1.121235 -2.013108
C 6.815781 -1.130839 -2.031959
C 7.534274 -1.642585 -3.03661
H 8.603842062349974 -1.6563843545156662 -3.063697595239773
H 5.161698 -0.169888 -0.14546
H 4.873747 -1.556958 -2.868505
H 7.322271 -0.696354 -1.178992
H 7.035722 -2.078868 -3.893093
