 23
 0.000000
  H 1.424303 0.161925 0.455637
  C 2.502721 0.147504 0.418895
  C 3.257340 0.618003 1.588383
  C 2.400769 1.087499 2.757048
  H 3.029113 1.416826 3.575855
  C 3.072967 -0.321822 -0.749316
  C 4.448328 -0.412810 -0.977057
  C 5.119959 -0.868043 -2.112557
  C 4.603026 -1.386646 -3.405851
  C 3.110442 -1.494842 -3.676300
  H 2.963088 -1.894465 -4.672819
  O 6.434747 -0.866468 -2.109203
  H 3.918428 1.437024 1.280627
  H 3.919082 -0.185594 1.933021
  H 1.762513 0.282452 3.114906
  H 1.762012 1.915926 2.458322
  H 2.393430 -0.632926 -1.523236
  H 5.089449 -0.087076 -0.166093
  H 5.061825 -2.373802 -3.537052
  H 5.062249 -0.764016 -4.182810
  H 2.632226 -0.519654 -3.631932
  H 2.631934 -2.169044 -2.970493
  H 6.836727 -0.535715 -1.283011
 23
 -0.208983
  H 1.482801 0.482685 0.366898
  C 2.551519 0.319210 0.356763
  C 3.269160 0.581593 1.610636
  C 2.372383 1.074116 2.737708
  H 2.954401 1.245807 3.638457
  C 3.107883 -0.125088 -0.823329
  C 4.473568 -0.363903 -0.998951
  C 5.128571 -0.835631 -2.137498
  C 4.577613 -1.260793 -3.452156
  C 3.125313 -1.701384 -3.576201
  H 2.985705 -2.142376 -4.559415
  O 6.436962 -0.930015 -2.125464
  H 4.063897 1.315269 1.429953
  H 3.786571 -0.330850 1.931170
  H 1.600428 0.343417 2.967190
  H 1.884957 2.007340 2.465611
  H 2.438542 -0.278995 -1.651321
  H 5.107770 -0.152396 -0.146440
  H 5.228849 -2.072375 -3.791391
  H 4.761747 -0.436390 -4.151650
  H 2.432135 -0.870479 -3.498817
  H 2.877301 -2.452995 -2.831926
  H 6.870283 -0.688555 -1.284425
 23
 3.576518
  H 1.509449 0.657568 0.317099
  C 2.566971 0.418474 0.323607
  C 3.248585 0.520774 1.619612
  C 2.357642 1.046719 2.735015
  H 2.900972 1.071295 3.676985
  C 3.130333 0.017194 -0.867257
  C 4.488435 -0.272710 -1.027219
  C 5.130889 -0.770733 -2.161454
  C 4.546664 -1.220557 -3.452149
  C 3.145215 -1.812383 -3.487338
  H 2.991732 -2.260263 -4.465525
  O 6.448624 -0.765692 -2.202103
  H 4.133129 1.162206 1.518612
  H 3.641611 -0.462324 1.904138
  H 1.482352 0.411616 2.864959
  H 2.015382 2.054932 2.515695
  H 2.486932 -0.010660 -1.727971
  H 5.117406 -0.139497 -0.155499
  H 5.256775 -1.956962 -3.844366
  H 4.598808 -0.381017 -4.156294
  H 2.367730 -1.066847 -3.357393
  H 3.028004 -2.587266 -2.737523
  H 6.908814 -0.923322 -1.357236
 23
 11.413152
  H 1.549084 0.768344 0.224141
  C 2.607532 0.541195 0.248947
  C 3.240881 0.542264 1.570806
  C 2.280630 0.861901 2.709239
  H 2.806652 0.864275 3.661076
  C 3.213673 0.233078 -0.949026
  C 4.570423 -0.088514 -1.078187
  C 5.172546 -0.710978 -2.165835
  C 4.537363 -1.312258 -3.364011
  C 3.088133 -1.781887 -3.317008
  H 2.885377 -2.351254 -4.220435
  O 6.505032 -0.657317 -2.263645
  H 4.071330 1.258760 1.575347
  H 3.705498 -0.434602 1.754421
  H 1.482944 0.123441 2.764493
  H 1.827493 1.840390 2.571993
  H 2.614842 0.320858 -1.842194
  H 5.166827 0.050734 -0.188310
  H 5.176769 -2.160672 -3.635640
  H 4.663230 -0.601114 -4.190783
  H 2.372825 -0.970040 -3.286641
  H 2.921113 -2.430330 -2.465195
  H 7.019029 -1.181344 -1.627624
 23
 20.744648
  H 1.588596 0.764090 0.124547
  C 2.641114 0.537027 0.203776
  C 3.188170 0.435357 1.564396
  C 2.206244 0.871067 2.643857
  H 2.632866 0.711310 3.630828
  C 3.326048 0.346100 -0.975482
  C 4.699903 -0.007408 -1.055084
  C 5.226703 -0.637106 -2.168388
  C 4.512338 -1.296135 -3.290393
  C 3.094646 -1.835306 -3.130911
  H 2.842401 -2.407471 -4.023711
  O 6.548184 -0.495281 -2.386230
  H 4.104031 1.038488 1.645921
  H 3.493675 -0.601222 1.749754
  H 1.278815 0.301590 2.579703
  H 1.965807 1.923627 2.545427
  H 2.784975 0.512596 -1.896488
  H 5.087575 -0.065413 -0.044535
  H 5.154943 -2.132161 -3.581530
  H 4.563583 -0.596022 -4.137328
  H 2.344951 -1.064075 -3.026077
  H 3.029429 -2.505426 -2.277560
  H 7.105240 -1.241170 -2.102860
 23
 50.291031
  H 1.675039 0.649034 0.115992
  C 2.742226 0.500519 0.214567
  C 3.254496 0.579869 1.596380
  C 2.165876 0.878783 2.627854
  H 2.594429 0.953347 3.621700
  C 3.431180 0.162908 -0.915048
  C 4.886987 -0.097163 -0.942739
  C 5.217236 -0.816223 -2.071387
  C 4.482894 -1.325218 -3.253330
  C 3.016716 -1.743669 -3.259715
  H 2.806117 -2.195157 -4.232827
  O 6.539363 -0.629211 -2.412014
  H 4.038035 1.348469 1.675015
  H 3.724022 -0.368531 1.864709
  H 1.409948 0.092841 2.629667
  H 1.673281 1.822543 2.415758
  H 2.889999 0.153160 -1.840397
  H 4.915011 0.141128 0.100615
  H 5.063644 -2.201799 -3.567568
  H 4.659674 -0.575583 -4.037188
  H 2.314652 -0.924747 -3.145560
  H 2.821310 -2.494923 -2.498462
  H 7.098328 -1.353945 -2.096104
 23
 81.680182
  H 1.618552 0.365088 0.278760
  C 2.702288 0.338223 0.319012
  C 3.285261 0.647474 1.646847
  C 2.229335 0.968198 2.700500
  H 2.699836 1.175896 3.658524
  C 3.343638 -0.006249 -0.824598
  C 4.919103 -0.170081 -0.920057
  C 5.092944 -0.892440 -2.050692
  C 4.512458 -1.353954 -3.324306
  C 3.031465 -1.675585 -3.489036
  H 2.876732 -2.065089 -4.492363
  O 6.482257 -0.668298 -2.289031
  H 3.973496 1.497165 1.574990
  H 3.866763 -0.218980 1.992045
  H 1.546915 0.131130 2.834049
  H 1.647841 1.841830 2.413330
  H 2.796857 -0.150114 -1.738233
  H 4.760818 0.244655 0.041948
  H 5.079264 -2.255507 -3.579143
  H 4.807865 -0.591265 -4.053554
  H 2.395405 -0.802477 -3.394351
  H 2.710915 -2.438226 -2.779912
  H 7.056973 -1.369511 -1.946277
 23
 106.802207
  H 1.529939 0.517265 0.425445
  C 2.610723 0.392095 0.359667
  C 3.326990 0.653774 1.648226
  C 2.372668 1.060627 2.768713
  H 2.923482 1.227954 3.690876
  C 3.085001 0.017457 -0.801018
  C 4.886372 -0.258975 -0.982705
  C 4.924690 -0.988018 -2.065405
  C 4.556871 -1.493304 -3.386305
  C 3.065698 -1.635453 -3.689560
  H 2.952753 -2.066865 -4.680671
  O 6.396966 -0.726162 -2.018020
  H 4.068466 1.447934 1.514854
  H 3.843073 -0.261623 1.955041
  H 1.635693 0.282574 2.952245
  H 1.849922 1.980843 2.517400
  H 2.559836 -0.136283 -1.716734
  H 4.750637 0.227513 -0.050196
  H 5.029136 -2.475329 -3.487035
  H 5.025191 -0.820632 -4.110725
  H 2.562717 -0.672924 -3.692652
  H 2.580726 -2.295227 -2.975048
  H 6.927222 -1.436831 -1.609426
 23
 123.123199
  H 1.365311 0.392908 0.660360
  C 2.436915 0.315349 0.458476
  C 3.285433 0.593566 1.668465
  C 2.442627 0.935977 2.893651
  H 3.083228 1.129718 3.750724
  C 2.791059 -0.012294 -0.744404
  C 4.873712 -0.118637 -1.116411
  C 4.876545 -0.883242 -2.161344
  C 4.659539 -1.509635 -3.446710
  C 3.186793 -1.683504 -3.819252
  H 3.125437 -2.175493 -4.785325
  O 6.303321 -0.350947 -1.989376
  H 3.952504 1.436601 1.466127
  H 3.890348 -0.289148 1.894320
  H 1.774093 0.116333 3.147717
  H 1.844589 1.827021 2.714051
  H 2.239735 -0.205967 -1.632305
  H 4.769906 0.397384 -0.198803
  H 5.144964 -2.490754 -3.439753
  H 5.164627 -0.890324 -4.191813
  H 2.690844 -0.720985 -3.902922
  H 2.667918 -2.298801 -3.089955
  H 6.918898 -0.996948 -1.577417
 23
 129.636424
  H 1.297003 0.415543 0.696101
  C 2.354264 0.310435 0.419208
  C 3.283022 0.539249 1.582119
  C 2.524973 0.855139 2.867637
  H 3.222911 1.024536 3.684457
  C 2.637276 0.010661 -0.807856
  C 5.145186 -0.009334 -1.239678
  C 4.921324 -0.837761 -2.185136
  C 4.657773 -1.614934 -3.345406
  C 3.175666 -1.613603 -3.747348
  H 3.069637 -2.235531 -4.629647
  O 6.452129 -0.136189 -1.878407
  H 3.944912 1.380307 1.362110
  H 3.887762 -0.356418 1.745729
  H 1.872491 0.031506 3.147249
  H 1.919441 1.751135 2.746996
  H 2.043175 -0.164373 -1.674711
  H 5.016409 0.496575 -0.313867
  H 4.980761 -2.647100 -3.176147
  H 5.253698 -1.206074 -4.168702
  H 2.836801 -0.611470 -3.992533
  H 2.558521 -2.026266 -2.956118
  H 7.059846 -0.750678 -1.402852
 23
 117.148427
  H 1.528819 0.203614 0.468280
  C 2.596632 0.173605 0.264930
  C 3.431415 0.469490 1.449514
  C 2.613147 0.754299 2.700115
  H 3.275256 0.969017 3.528065
  C 2.865712 -0.130019 -0.945470
  C 5.178648 0.055723 -1.181308
  C 4.720463 -0.803543 -2.017464
  C 4.295044 -1.522084 -3.172984
  C 2.860033 -1.543548 -3.670614
  H 2.851179 -2.150681 -4.538488
  O 6.530118 0.069867 -1.651141
  H 4.042600 1.337988 1.251194
  H 4.076532 -0.389905 1.662196
  H 2.006361 -0.090668 2.965667
  H 1.977538 1.614618 2.526583
  H 2.239091 -0.346560 -1.786035
  H 5.074121 0.546339 -0.246757
  H 4.596370 -2.553260 -3.011400
  H 4.895660 -1.117327 -3.992024
  H 2.505546 -0.552134 -3.953018
  H 2.212155 -1.983858 -2.933228
  H 7.127213 -0.516939 -1.152806
 23
 57.683552
  H 1.658636 0.002465 0.292685
  C 2.738576 0.003556 0.164734
  C 3.447388 0.495051 1.361497
  C 2.490867 0.801828 2.513732
  H 3.047202 1.178159 3.367902
  C 3.130490 -0.477149 -1.042284
  C 5.306095 -0.093957 -1.051727
  C 4.478454 -0.977577 -1.635114
  C 4.148231 -1.577985 -2.961293
  C 2.841854 -1.337494 -3.695550
  H 2.931594 -1.841739 -4.656690
  O 6.601745 -0.029520 -1.436390
  H 3.977820 1.430628 1.126188
  H 4.186702 -0.244496 1.710685
  H 1.967101 -0.101987 2.829958
  H 1.755186 1.539569 2.220590
  H 2.379169 -0.806935 -1.731518
  H 5.111876 0.548562 -0.209019
  H 4.302704 -2.661830 -2.878178
  H 4.942281 -1.204776 -3.628092
  H 2.680308 -0.276067 -3.887755
  H 1.971350 -1.734854 -3.180875
  H 7.233948 -0.500132 -0.880583
 23
 16.226347
  H 1.521679 -0.300345 0.578158
  C 2.567659 -0.185406 0.326129
  C 3.370380 0.475272 1.368375
  C 2.539601 0.922986 2.557982
  H 3.171283 1.402598 3.298843
  C 2.922441 -0.719113 -0.886011
  C 5.256071 -0.055714 -1.168811
  C 4.186606 -0.855151 -1.539340
  C 4.208492 -1.562317 -2.856301
  C 3.111088 -1.178997 -3.850520
  H 3.240952 -1.777310 -4.751228
  O 6.402625 -0.083690 -1.809392
  H 3.882718 1.346912 0.955002
  H 4.150726 -0.215707 1.710833
  H 2.043833 0.081484 3.025408
  H 1.777573 1.642498 2.250880
  H 2.113638 -1.180466 -1.437761
  H 5.208521 0.569496 -0.286923
  H 4.142999 -2.639285 -2.674002
  H 5.175906 -1.382142 -3.316760
  H 3.192919 -0.132857 -4.126647
  H 2.108278 -1.374794 -3.478731
  H 7.200864 -0.322844 -1.302746
 23
 6.956101
  H 1.472153 -0.210336 0.551157
  C 2.525441 -0.130325 0.299574
  C 3.352494 0.479607 1.353486
  C 2.566176 0.768230 2.628917
  H 3.208697 1.229215 3.373495
  C 2.872363 -0.640056 -0.924286
  C 5.254699 -0.034837 -1.158867
  C 4.120234 -0.719611 -1.589632
  C 4.218142 -1.523771 -2.848617
  C 3.149945 -1.232274 -3.903684
  H 3.355255 -1.827371 -4.788432
  O 6.382711 -0.127548 -1.802483
  H 3.771282 1.423830 0.986362
  H 4.201354 -0.173696 1.588798
  H 2.165019 -0.148671 3.052102
  H 1.736286 1.444877 2.431482
  H 2.056063 -1.090539 -1.473221
  H 5.212718 0.610869 -0.288891
  H 4.156115 -2.585165 -2.579111
  H 5.201776 -1.366262 -3.290027
  H 3.173099 -0.182267 -4.185304
  H 2.148811 -1.481318 -3.568782
  H 7.196015 -0.007471 -1.277598
 23
 5.728811
  H 1.524482 -0.213799 0.532240
  C 2.577657 -0.131348 0.287879
  C 3.381171 0.504365 1.343263
  C 2.541592 0.932684 2.537732
  H 3.169955 1.389363 3.296926
  C 2.918352 -0.625078 -0.942663
  C 5.339203 -0.227771 -1.069949
  C 4.158324 -0.716434 -1.630664
  C 4.241831 -1.344478 -2.980106
  C 2.986838 -1.333155 -3.837027
  H 3.209632 -1.792408 -4.795492
  O 6.499989 -0.412240 -1.609435
  H 3.897920 1.383948 0.951510
  H 4.149830 -0.194482 1.684229
  H 2.037733 0.081261 2.985207
  H 1.789497 1.656592 2.240918
  H 2.098238 -1.034006 -1.506676
  H 5.280608 0.265552 -0.110155
  H 4.549329 -2.385620 -2.843104
  H 5.056937 -0.862991 -3.524044
  H 2.653668 -0.316948 -4.018180
  H 2.174212 -1.892478 -3.391915
  H 7.259851 -0.255419 -1.014058
