 23
 0.000000
  C 0.982979 0.161507 0.443838
  C 2.444642 0.122593 0.368440
  H 3.041216 0.453104 1.205267
  C 3.045818 -0.336579 -0.781564
  C 4.425167 -0.411511 -0.973748
  C 5.109627 -0.861992 -2.104304
  C 4.614164 -1.384441 -3.404555
  C 3.126829 -1.511200 -3.709933
  C 2.930444 -2.075192 -5.115163
  O 6.425430 -0.851396 -2.089086
  H 0.609902 0.545089 1.388456
  H 0.575655 -0.838890 0.284567
  H 0.588496 0.780285 -0.364900
  H 2.391330 -0.652653 -1.576300
  H 5.045793 -0.080826 -0.147771
  H 5.080485 -2.368854 -3.529640
  H 5.075915 -0.756736 -4.175901
  H 2.644255 -0.534490 -3.663785
  H 2.649048 -2.187844 -3.000812
  H 3.375613 -1.423983 -5.863623
  H 1.870502 -2.167374 -5.337414
  H 3.380417 -3.060845 -5.207318
  H 6.816416 -0.518238 -1.258831
 23
 0.927847
  C 1.021457 0.056275 0.669464
  C 2.374808 0.339967 0.194430
  H 2.960190 1.081492 0.721754
  C 2.935601 -0.309695 -0.882319
  C 4.314916 -0.320029 -1.085456
  C 5.059974 -0.950447 -2.083959
  C 4.608251 -1.532829 -3.373039
  C 3.148354 -1.446462 -3.801108
  C 2.999762 -1.937758 -5.238356
  O 6.362817 -1.037804 -1.952195
  H 0.762067 0.638642 1.546631
  H 0.951719 -1.008740 0.904110
  H 0.281492 0.228090 -0.115050
  H 2.285001 -0.871885 -1.531609
  H 4.898938 0.153628 -0.302921
  H 4.927151 -2.581552 -3.379783
  H 5.230237 -1.057251 -4.141883
  H 2.798450 -0.415302 -3.744933
  H 2.526986 -2.076335 -3.164553
  H 3.582654 -1.325521 -5.922735
  H 1.959231 -1.890113 -5.548392
  H 3.333175 -2.968763 -5.333680
  H 6.724606 -0.667806 -1.124421
 23
 8.011650
  C 1.146915 -0.042507 0.807630
  C 2.302548 0.488316 0.086320
  H 2.721457 1.436948 0.396047
  C 2.886498 -0.191791 -0.972511
  C 4.261072 -0.318103 -1.093317
  C 5.015891 -0.996478 -2.049620
  C 4.596406 -1.564685 -3.357549
  C 3.169198 -1.386123 -3.860422
  C 3.049473 -1.923080 -5.284639
  O 6.300903 -1.177345 -1.843851
  H 0.888806 0.559072 1.671975
  H 1.404017 -1.057139 1.118262
  H 0.269707 -0.136769 0.163746
  H 2.229761 -0.696287 -1.665914
  H 4.832100 0.091793 -0.266579
  H 4.840850 -2.632919 -3.335330
  H 5.287983 -1.142187 -4.096219
  H 2.899019 -0.329694 -3.861335
  H 2.472798 -1.941872 -3.232727
  H 3.710339 -1.385818 -5.960847
  H 2.031583 -1.808288 -5.648024
  H 3.305149 -2.979236 -5.324998
  H 6.641249 -0.824815 -0.999792
 23
 20.154334
  C 1.294677 -0.097813 0.930856
  C 2.208885 0.573949 0.009859
  H 2.376956 1.637745 0.114637
  C 2.851439 -0.114324 -1.041622
  C 4.199524 -0.369754 -1.064959
  C 4.963841 -1.044235 -2.021174
  C 4.572570 -1.583739 -3.350451
  C 3.174162 -1.349359 -3.909139
  C 3.085585 -1.898342 -5.331276
  O 6.235702 -1.269734 -1.777541
  H 1.014271 0.536068 1.764685
  H 1.774017 -1.011418 1.285512
  H 0.380725 -0.419076 0.420282
  H 2.213215 -0.475583 -1.838209
  H 4.750729 -0.040378 -0.190707
  H 4.770072 -2.661669 -3.321262
  H 5.309537 -1.189600 -4.059919
  H 2.953048 -0.281656 -3.936606
  H 2.430887 -1.866355 -3.302156
  H 3.795467 -1.398928 -5.986497
  H 2.088533 -1.743539 -5.735455
  H 3.295596 -2.965118 -5.350263
  H 6.556870 -0.943406 -0.915730
 23
 25.379225
  C 1.460112 -0.112420 1.049678
  C 2.118671 0.580281 -0.052880
  H 1.997640 1.653363 -0.134589
  C 2.853756 -0.070201 -1.083429
  C 4.163948 -0.466274 -1.010075
  C 4.920550 -1.113081 -1.998332
  C 4.539455 -1.594974 -3.351310
  C 3.157626 -1.324316 -3.937187
  C 3.095657 -1.843238 -5.372954
  O 6.193624 -1.351273 -1.763381
  H 1.121412 0.571395 1.822076
  H 2.056846 -0.919967 1.473402
  H 0.581533 -0.622531 0.635818
  H 2.297660 -0.231690 -1.998088
  H 4.689419 -0.227156 -0.098320
  H 4.719190 -2.675879 -3.347419
  H 5.294893 -1.194659 -4.036102
  H 2.955470 -0.252431 -3.953771
  H 2.391034 -1.839748 -3.357622
  H 3.829176 -1.343114 -5.999460
  H 2.111125 -1.663443 -5.798431
  H 3.288396 -2.911721 -5.408929
  H 6.511681 -1.063657 -0.886988
 23
 12.133647
  C 1.643504 -0.137174 1.114216
  C 2.058155 0.543596 -0.108224
  H 1.649585 1.530842 -0.288952
  C 2.843006 -0.007885 -1.116976
  C 4.122627 -0.527565 -0.993249
  C 4.877971 -1.146775 -1.987433
  C 4.503269 -1.591351 -3.357016
  C 3.142421 -1.271409 -3.961606
  C 3.075270 -1.807720 -5.391003
  O 6.139385 -1.438401 -1.739290
  H 1.278024 0.552374 1.868636
  H 2.390467 -0.817625 1.517640
  H 0.806780 -0.790595 0.838235
  H 2.401399 0.041118 -2.104073
  H 4.609639 -0.383304 -0.036925
  H 4.640968 -2.680073 -3.357887
  H 5.285208 -1.216062 -4.025990
  H 2.986733 -0.192861 -3.999874
  H 2.347837 -1.741753 -3.381124
  H 3.837959 -1.348792 -6.015197
  H 2.105096 -1.591598 -5.831065
  H 3.221484 -2.884812 -5.409986
  H 6.450463 -1.189313 -0.849409
 23
 3.982786
  C 1.831335 -0.164590 1.136866
  C 1.998491 0.496831 -0.154760
  H 1.338871 1.326962 -0.362270
  C 2.830425 0.075414 -1.168772
  C 4.071761 -0.543175 -1.005721
  C 4.846094 -1.163889 -1.985063
  C 4.481427 -1.586995 -3.362010
  C 3.142989 -1.208803 -3.984265
  C 3.039454 -1.803360 -5.386910
  O 6.078497 -1.522478 -1.697247
  H 1.485757 0.524459 1.904963
  H 2.707311 -0.722407 1.456933
  H 1.038351 -0.910997 1.016132
  H 2.505822 0.306057 -2.172145
  H 4.508025 -0.487862 -0.016274
  H 4.566241 -2.682099 -3.357201
  H 5.292564 -1.255570 -4.019754
  H 3.055722 -0.125174 -4.070925
  H 2.321027 -1.594513 -3.381982
  H 3.831198 -1.425699 -6.029445
  H 2.086170 -1.542143 -5.838540
  H 3.111890 -2.888131 -5.357180
  H 6.376783 -1.299225 -0.795244
 23
 2.243733
  C 1.882198 -0.279771 1.017386
  C 1.979941 0.438930 -0.252187
  H 1.184101 1.137777 -0.471074
  C 2.929599 0.220526 -1.216596
  C 4.122539 -0.495381 -1.021015
  C 4.896612 -1.138845 -1.983793
  C 4.514632 -1.530846 -3.364484
  C 3.157287 -1.141390 -3.934525
  C 2.921696 -1.859851 -5.260494
  O 6.087805 -1.593063 -1.667602
  H 1.667131 0.409800 1.833159
  H 2.756442 -0.885961 1.226082
  H 1.016379 -0.946726 0.972968
  H 2.760917 0.665742 -2.185344
  H 4.521627 -0.501310 -0.013110
  H 4.607329 -2.623940 -3.393368
  H 5.308546 -1.176900 -4.031725
  H 3.114667 -0.067753 -4.117876
  H 2.362227 -1.413720 -3.239625
  H 3.688920 -1.600078 -5.986008
  H 1.957307 -1.579364 -5.675757
  H 2.929320 -2.938982 -5.126736
  H 6.391841 -1.380653 -0.764651
 23
 7.165090
  C 1.862424 -0.535205 0.656882
  C 2.030562 0.481493 -0.388065
  H 1.263188 1.231838 -0.501556
  C 3.080669 0.437174 -1.250433
  C 4.266209 -0.313737 -1.016003
  C 4.975888 -1.069153 -1.937823
  C 4.483868 -1.581941 -3.241293
  C 3.134024 -1.118408 -3.769641
  C 2.769569 -1.885782 -5.037939
  O 6.163789 -1.549233 -1.636601
  H 1.458296 -0.118266 1.572566
  H 2.808141 -1.056538 0.790595
  H 1.154930 -1.295954 0.312438
  H 3.043491 1.041066 -2.147622
  H 4.757420 -0.123420 -0.068003
  H 4.484803 -2.675467 -3.155183
  H 5.258948 -1.369369 -3.985360
  H 3.164760 -0.055728 -4.008229
  H 2.356936 -1.280415 -3.021006
  H 3.517407 -1.735598 -5.813733
  H 1.811934 -1.545676 -5.422754
  H 2.692772 -2.952803 -4.839833
  H 6.524544 -1.257532 -0.778729
 23
 16.414842
  C 1.929210 -0.665003 0.381632
  C 2.031195 0.515391 -0.493422
  H 1.256391 1.271647 -0.481741
  C 3.118184 0.589352 -1.282910
  C 4.271073 -0.231361 -0.980404
  C 4.971861 -1.038536 -1.869894
  C 4.462246 -1.597453 -3.141439
  C 3.106684 -1.134868 -3.655429
  C 2.720962 -1.913529 -4.915456
  O 6.163473 -1.523141 -1.553392
  H 1.489378 -0.465721 1.346813
  H 2.960400 -1.052175 0.368032
  H 1.404031 -1.486756 -0.111353
  H 3.189039 1.307323 -2.092714
  H 4.842504 0.116371 -0.127908
  H 4.469188 -2.676632 -3.018863
  H 5.221596 -1.406202 -3.910409
  H 3.135200 -0.069233 -3.903162
  H 2.340428 -1.284334 -2.899664
  H 3.453907 -1.784616 -5.701685
  H 1.759185 -1.566863 -5.289585
  H 2.635901 -2.978026 -4.698301
  H 6.525318 -1.206922 -0.705116
 23
 28.953471
  C 2.004399 -0.730218 0.222402
  C 1.991562 0.507944 -0.570957
  H 1.196790 1.228144 -0.473640
  C 3.093515 0.681125 -1.322132
  C 4.205650 -0.200121 -0.936475
  C 4.941282 -1.019320 -1.807605
  C 4.451465 -1.588245 -3.084067
  C 3.091445 -1.150204 -3.602912
  C 2.734336 -1.936720 -4.856099
  O 6.123423 -1.458653 -1.479096
  H 1.580905 -0.678322 1.216341
  H 3.192754 -0.939587 0.046939
  H 1.728558 -1.638026 -0.304447
  H 3.236605 1.464350 -2.050416
  H 4.809557 0.245423 -0.148173
  H 4.464474 -2.683269 -2.965691
  H 5.212816 -1.385413 -3.842750
  H 3.098717 -0.091518 -3.848816
  H 2.318600 -1.320794 -2.851510
  H 3.473000 -1.784335 -5.635230
  H 1.766413 -1.617089 -5.236921
  H 2.673406 -3.002517 -4.645177
  H 6.475503 -1.131427 -0.627395
 23
 36.577709
  C 1.928712 -0.724446 0.159277
  C 1.970252 0.495046 -0.599135
  H 1.167194 1.213147 -0.529904
  C 3.097078 0.697230 -1.302994
  C 4.197879 -0.222001 -0.877939
  C 4.961293 -1.009308 -1.791764
  C 4.475995 -1.569284 -3.074031
  C 3.077683 -1.195902 -3.553640
  C 2.745242 -1.953446 -4.836073
  O 6.170032 -1.398737 -1.489757
  H 1.461529 -0.714495 1.132847
  H 3.462983 -0.880556 -0.133749
  H 1.825530 -1.665932 -0.362737
  H 3.268935 1.493781 -2.004015
  H 4.819958 0.269527 -0.124380
  H 4.548666 -2.660396 -2.987112
  H 5.210209 -1.308917 -3.844447
  H 3.017389 -0.127850 -3.755343
  H 2.334205 -1.446497 -2.798671
  H 3.454464 -1.713913 -5.624885
  H 1.751202 -1.687554 -5.185856
  H 2.768609 -3.028209 -4.671499
  H 6.526148 -1.073236 -0.640339
 23
 33.656759
  C 1.772571 -0.702536 0.127372
  C 1.980757 0.479080 -0.615945
  H 1.219561 1.248038 -0.603397
  C 3.153640 0.658587 -1.266244
  C 4.251440 -0.269638 -0.844742
  C 5.021966 -1.009567 -1.819174
  C 4.510894 -1.542201 -3.098145
  C 3.074776 -1.230673 -3.504049
  C 2.728672 -1.957785 -4.800535
  O 6.250332 -1.341190 -1.575511
  H 1.182982 -0.663210 1.030022
  H 3.635958 -0.947626 -0.162340
  H 1.796487 -1.669067 -0.347665
  H 3.354037 1.469365 -1.943938
  H 4.895253 0.242447 -0.120533
  H 4.644029 -2.630462 -3.056356
  H 5.197189 -1.217440 -3.888780
  H 2.945956 -0.160899 -3.659704
  H 2.380961 -1.551107 -2.728716
  H 3.387733 -1.648981 -5.608413
  H 1.707004 -1.736105 -5.097269
  H 2.818216 -3.034851 -4.679914
  H 6.625024 -1.029799 -0.727101
 23
 28.212350
  C 1.592661 -0.642348 0.055399
  C 1.989397 0.486898 -0.648536
  H 1.300816 1.321923 -0.695816
  C 3.220004 0.614067 -1.226509
  C 4.297352 -0.334679 -0.807811
  C 5.073456 -1.011811 -1.841485
  C 4.537669 -1.507878 -3.121311
  C 3.065134 -1.281330 -3.441173
  C 2.706027 -1.958659 -4.760686
  O 6.322821 -1.274297 -1.659550
  H 0.847071 -0.558901 0.827975
  H 3.751859 -1.059306 -0.167212
  H 1.773458 -1.640167 -0.303078
  H 3.471798 1.439782 -1.869564
  H 4.957999 0.183632 -0.102447
  H 4.746898 -2.584948 -3.146691
  H 5.160751 -1.097927 -3.925096
  H 2.852215 -0.216451 -3.525202
  H 2.436867 -1.694489 -2.653474
  H 3.299217 -1.557673 -5.578983
  H 1.657280 -1.796476 -4.995263
  H 2.877008 -3.031317 -4.708314
  H 6.716855 -0.981769 -0.811860
 23
 23.812332
  C 1.428688 -0.565047 -0.048871
  C 2.000371 0.522205 -0.651913
  H 1.412941 1.430723 -0.697618
  C 3.277507 0.575189 -1.173162
  C 4.315456 -0.422636 -0.768827
  C 5.107729 -1.010525 -1.855077
  C 4.551468 -1.478517 -3.137137
  C 3.049493 -1.366728 -3.365969
  C 2.675103 -1.978809 -4.712469
  O 6.376936 -1.175648 -1.732656
  H 0.551920 -0.453497 0.563512
  H 3.780954 -1.204135 -0.210548
  H 1.747606 -1.575170 -0.236938
  H 3.591055 1.412803 -1.773037
  H 4.970277 0.057877 -0.031633
  H 4.848911 -2.529347 -3.235262
  H 5.093897 -0.974586 -3.946628
  H 2.739664 -0.321866 -3.356113
  H 2.505443 -1.888677 -2.579184
  H 3.179465 -1.466239 -5.528083
  H 1.603965 -1.899907 -4.877634
  H 2.944617 -3.031559 -4.751393
  H 6.781973 -0.901523 -0.884436
