 19
 0.000000
  C 0.954344 0.149349 0.462868
  C 2.411280 0.117968 0.357736
  H 3.019477 0.455754 1.184344
  C 3.010992 -0.347075 -0.793406
  C 4.400026 -0.416487 -0.965816
  C 5.075980 -0.863469 -2.078390
  C 4.614767 -1.375736 -3.372233
  C 3.142864 -1.504535 -3.718979
  H 3.050832 -1.901679 -4.724617
  H 6.157178 -0.853039 -2.028623
  H 0.597448 0.533050 1.412380
  H 0.562898 -0.858135 0.299580
  H 0.535696 0.746327 -0.351383
  H 2.361443 -0.672009 -1.589159
  H 5.009174 -0.082780 -0.134634
  H 5.099224 -2.355188 -3.496676
  H 5.108668 -0.753712 -4.133019
  H 2.646540 -0.537127 -3.697166
  H 2.637378 -2.190922 -3.043695
 19
 0.055245
  C 0.963064 0.061722 0.585370
  C 2.387847 0.177268 0.300942
  H 3.039363 0.556111 1.080351
  C 2.944591 -0.243303 -0.884249
  C 4.337728 -0.317812 -1.045161
  C 5.043228 -0.926046 -2.059833
  C 4.631043 -1.478804 -3.346995
  C 3.199359 -1.360604 -3.835824
  H 3.141095 -1.722185 -4.860999
  H 6.108687 -1.019580 -1.887927
  H 0.667974 0.609425 1.472222
  H 0.738314 -0.999546 0.748809
  H 0.354874 0.347301 -0.273731
  H 2.287362 -0.586105 -1.666299
  H 4.925506 0.063250 -0.218190
  H 4.940023 -2.536007 -3.352818
  H 5.308133 -1.037654 -4.093845
  H 2.862744 -0.326744 -3.826093
  H 2.525222 -1.968213 -3.239543
 19
 3.497095
  C 1.032362 -0.094844 0.595025
  C 2.400945 0.279404 0.258298
  H 3.046284 0.642611 1.047800
  C 2.946693 -0.005615 -0.971638
  C 4.335700 -0.169764 -1.097597
  C 4.976984 -0.989515 -1.997001
  C 4.561640 -1.569662 -3.272925
  C 3.201415 -1.258672 -3.871478
  H 3.150492 -1.672280 -4.873516
  H 5.996101 -1.253155 -1.731116
  H 0.722679 0.264503 1.570032
  H 1.013261 -1.191026 0.597047
  H 0.321697 0.201707 -0.178023
  H 2.288953 -0.299138 -1.773528
  H 4.932736 0.207574 -0.277021
  H 4.706120 -2.657262 -3.209678
  H 5.343254 -1.268816 -3.987919
  H 3.034502 -0.187096 -3.942193
  H 2.400701 -1.714949 -3.294379
 19
 8.884942
  C 1.132975 -0.264754 0.554962
  C 2.426437 0.331811 0.236495
  H 3.054471 0.673577 1.048710
  C 2.969170 0.181181 -1.018655
  C 4.349694 -0.067267 -1.116057
  C 4.890191 -1.031410 -1.929503
  C 4.455300 -1.618472 -3.198618
  C 3.183896 -1.150850 -3.884568
  H 3.119611 -1.611302 -4.867860
  H 5.857187 -1.403727 -1.611618
  H 0.823752 -0.083370 1.577519
  H 1.287505 -1.339583 0.397719
  H 0.352238 0.020377 -0.147654
  H 2.313330 -0.053716 -1.842369
  H 4.968453 0.306289 -0.309368
  H 4.448918 -2.710715 -3.084989
  H 5.300199 -1.448348 -3.883645
  H 3.178323 -0.072726 -4.021148
  H 2.299458 -1.454385 -3.328863
 19
 15.600528
  C 1.235663 -0.393670 0.498071
  C 2.469321 0.345275 0.216985
  H 3.074541 0.683212 1.047602
  C 3.003992 0.325580 -1.052302
  C 4.375758 0.011119 -1.135649
  C 4.802270 -1.066605 -1.876089
  C 4.374267 -1.622381 -3.159879
  C 3.126196 -1.113970 -3.854578
  H 3.048128 -1.584415 -4.830861
  H 5.707043 -1.538009 -1.505767
  H 0.916354 -0.317838 1.530031
  H 1.516354 -1.428169 0.266388
  H 0.425624 -0.146622 -0.185679
  H 2.354590 0.184159 -1.902541
  H 4.999542 0.329214 -0.307282
  H 4.344509 -2.717464 -3.071403
  H 5.230142 -1.440748 -3.826228
  H 3.169133 -0.039128 -4.003283
  H 2.227041 -1.372312 -3.301504
 19
 24.409976
  C 1.394165 -0.556112 0.442849
  C 2.484162 0.391360 0.195964
  H 3.128229 0.643013 1.029745
  C 2.983975 0.482780 -1.084690
  C 4.345159 0.101291 -1.153223
  C 4.664110 -1.069478 -1.792768
  C 4.250100 -1.656028 -3.073131
  C 3.109364 -1.042384 -3.870966
  H 2.983180 -1.598393 -4.796498
  H 5.536581 -1.572373 -1.384072
  H 1.096729 -0.604768 1.481938
  H 1.850494 -1.509974 0.127582
  H 0.534012 -0.407800 -0.209762
  H 2.328273 0.343601 -1.928225
  H 4.992627 0.437168 -0.352269
  H 4.075552 -2.728373 -2.933026
  H 5.160840 -1.610628 -3.693429
  H 3.319292 -0.009760 -4.132792
  H 2.167632 -1.103172 -3.328051
 19
 36.618057
  C 1.573385 -0.672831 0.314699
  C 2.529623 0.429470 0.159529
  H 3.137626 0.703323 1.020521
  C 3.013999 0.632907 -1.128224
  C 4.354146 0.148430 -1.147552
  C 4.519350 -1.101828 -1.675704
  C 4.139682 -1.678988 -2.975184
  C 3.035089 -1.032964 -3.808800
  H 2.941477 -1.561573 -4.765551
  H 5.325484 -1.657485 -1.224149
  H 1.288204 -0.868357 1.333632
  H 2.175156 -1.498365 -0.099481
  H 0.712040 -0.600483 -0.326783
  H 2.341115 0.494670 -1.984624
  H 5.021004 0.480211 -0.357064
  H 3.936283 -2.736665 -2.833974
  H 5.047763 -1.649739 -3.589232
  H 3.267620 -0.004053 -4.039937
  H 2.079489 -1.101938 -3.304594
 19
 49.464953
  C 1.740517 -0.756791 0.233892
  C 2.568056 0.445916 0.140795
  H 3.170573 0.720168 1.007147
  C 3.018104 0.731897 -1.156041
  C 4.317258 0.184911 -1.141133
  C 4.374220 -1.119061 -1.585481
  C 4.034561 -1.703878 -2.914300
  C 2.994226 -1.025298 -3.783599
  H 2.913668 -1.561517 -4.728445
  H 5.146456 -1.696780 -1.099283
  H 1.520171 -1.075361 1.227485
  H 2.444549 -1.461584 -0.273394
  H 0.871941 -0.758389 -0.398971
  H 2.325470 0.591486 -2.012459
  H 4.999422 0.488231 -0.330242
  H 3.787935 -2.746870 -2.749605
  H 4.968590 -1.727416 -3.505083
  H 3.280686 -0.000737 -4.017650
  H 2.020461 -1.043912 -3.316770
 19
 67.255230
  C 1.875337 -0.787935 0.114709
  C 2.649574 0.483955 0.159293
  H 3.232981 0.745764 1.029740
  C 3.025033 0.840594 -1.140309
  C 4.275884 0.222562 -1.110766
  C 4.212033 -1.163935 -1.505983
  C 3.953033 -1.746161 -2.860667
  C 2.939658 -1.077907 -3.748960
  H 2.922957 -1.553262 -4.720401
  H 4.974494 -1.745366 -0.978452
  H 1.701825 -1.245950 1.080907
  H 2.693529 -1.421128 -0.492733
  H 1.020052 -0.824058 -0.533355
  H 2.315886 0.731077 -1.970132
  H 5.028370 0.507606 -0.331030
  H 3.703566 -2.818455 -2.747841
  H 4.925595 -1.732695 -3.390794
  H 3.191771 -0.029860 -3.907537
  H 1.941498 -1.165055 -3.327432
 19
 78.907987
  C 1.955518 -0.774050 0.102700
  C 2.642088 0.492753 0.162957
  H 3.207520 0.774691 1.036470
  C 2.984275 0.847266 -1.152301
  C 4.223064 0.211246 -1.105851
  C 4.125365 -1.232490 -1.438774
  C 3.918672 -1.783395 -2.812549
  C 2.936170 -1.066411 -3.727824
  H 2.946868 -1.541760 -4.705172
  H 4.895110 -1.795810 -0.915415
  H 1.828701 -1.300610 1.037356
  H 2.988930 -1.434954 -0.669632
  H 1.120146 -0.882363 -0.576904
  H 2.283985 0.712840 -1.962664
  H 4.995100 0.505244 -0.409161
  H 3.629830 -2.833813 -2.713767
  H 4.899487 -1.802156 -3.305832
  H 3.210600 -0.024700 -3.868196
  H 1.920874 -1.131822 -3.345370
 19
 60.757568
  C 1.756681 -0.569582 0.222013
  C 2.530030 0.542700 0.241887
  H 3.131008 0.792160 1.104335
  C 3.027739 0.748453 -1.086317
  C 4.260391 0.095997 -1.093487
  C 4.221111 -1.330100 -1.462361
  C 4.026915 -1.799359 -2.910557
  C 2.912834 -1.142755 -3.707100
  H 2.908106 -1.553677 -4.715227
  H 5.057143 -1.863088 -1.009735
  H 1.532398 -1.046741 1.166789
  H 3.282065 -1.603317 -0.860735
  H 1.014455 -0.737013 -0.538741
  H 2.328874 0.655259 -1.908053
  H 5.051647 0.420451 -0.433348
  H 3.869861 -2.881743 -2.883757
  H 4.972712 -1.658393 -3.437106
  H 3.061603 -0.071151 -3.789350
  H 1.940344 -1.344900 -3.267697
 19
 47.412419
  C 1.607719 -0.434194 0.422844
  C 2.514996 0.557328 0.275104
  H 3.144713 0.879637 1.089534
  C 2.982483 0.590773 -1.078133
  C 4.248989 0.031920 -1.120258
  C 4.258466 -1.397040 -1.511506
  C 4.114907 -1.808869 -2.986326
  C 2.984518 -1.158367 -3.765153
  H 2.998842 -1.534259 -4.788255
  H 5.144352 -1.873723 -1.100138
  H 1.413622 -0.838987 1.403961
  H 3.343068 -1.708970 -0.935173
  H 0.942398 -0.771708 -0.358572
  H 2.268657 0.459516 -1.882975
  H 4.988670 0.345487 -0.384360
  H 3.972102 -2.894312 -3.001712
  H 5.056586 -1.585640 -3.484529
  H 3.103754 -0.083980 -3.816605
  H 2.012433 -1.414346 -3.347569
 19
 37.169937
  C 1.456423 -0.328189 0.577486
  C 2.457964 0.536847 0.313848
  H 3.125749 0.880065 1.088134
  C 2.920904 0.457346 -1.030162
  C 4.204748 -0.044140 -1.145383
  C 4.365577 -1.444568 -1.568791
  C 4.207667 -1.838261 -3.051264
  C 3.071090 -1.166124 -3.803888
  H 3.070216 -1.525388 -4.829015
  H 5.315872 -1.831891 -1.198150
  H 1.197738 -0.591320 1.592251
  H 3.540986 -1.922721 -0.998276
  H 0.784480 -0.680342 -0.188182
  H 2.178577 0.235346 -1.792752
  H 4.966551 0.359670 -0.487631
  H 4.070005 -2.921255 -3.080439
  H 5.149617 -1.604169 -3.550285
  H 3.195257 -0.091136 -3.841643
  H 2.103516 -1.421915 -3.376172
 19
 28.848986
  C 1.327395 -0.129438 0.621107
  C 2.444254 0.569127 0.319900
  H 3.068039 1.008898 1.085736
  C 2.984292 0.313248 -0.973086
  C 4.259828 -0.210990 -1.032264
  C 4.469727 -1.548365 -1.603915
  C 4.318010 -1.777797 -3.128957
  C 3.046007 -1.283364 -3.789248
  H 3.108168 -1.482734 -4.858676
  H 5.440421 -1.938171 -1.298536
  H 0.993931 -0.246908 1.636854
  H 3.675400 -2.122794 -1.100099
  H 0.690742 -0.537499 -0.146665
  H 2.278195 0.132875 -1.776132
  H 5.014496 0.178357 -0.358477
  H 4.400217 -2.855032 -3.277589
  H 5.176303 -1.301963 -3.608809
  H 2.919883 -0.210982 -3.675882
  H 2.171909 -1.811412 -3.415826
 19
 23.278593
  C 1.260610 0.027325 0.809456
  C 2.390000 0.594461 0.329402
  H 3.075478 1.097945 0.995808
  C 2.864653 0.120339 -0.925831
  C 4.162701 -0.328939 -1.015491
  C 4.470803 -1.628081 -1.650149
  C 4.383227 -1.755707 -3.193981
  C 3.138579 -1.234093 -3.880120
  H 3.199802 -1.475727 -4.942332
  H 5.456067 -1.972726 -1.338372
  H 0.986253 0.102610 1.842799
  H 3.708813 -2.296826 -1.219930
  H 0.602702 -0.532784 0.162535
  H 2.125644 -0.188308 -1.655055
  H 4.916364 0.121039 -0.387971
  H 4.503103 -2.816929 -3.421089
  H 5.248519 -1.219371 -3.588353
  H 3.054283 -0.154809 -3.796590
  H 2.239613 -1.714364 -3.505303
