 19
 0.000000
  H 1.425983 0.165357 0.464820
  C 2.503849 0.141225 0.403805
  C 3.249758 0.611077 1.570355
  H 2.590297 0.931242 2.366750
  C 3.051057 -0.329648 -0.767638
  C 4.436476 -0.420169 -0.993491
  C 5.087188 -0.871215 -2.118989
  C 4.610920 -1.383675 -3.398291
  C 3.131101 -1.507628 -3.708511
  H 3.009943 -1.908542 -4.709582
  H 6.167713 -0.848074 -2.060906
  H 3.912492 1.436827 1.298971
  H 3.913456 -0.171813 1.946358
  H 2.367762 -0.640897 -1.542196
  H 5.076634 -0.095168 -0.182542
  H 5.097674 -2.361597 -3.537396
  H 5.098209 -0.772737 -4.174237
  H 2.636725 -0.538979 -3.679611
  H 2.636406 -2.188377 -3.019029
 19
 9.632614
  H 1.390354 0.203513 0.559564
  C 2.466385 0.179503 0.498928
  C 3.226693 0.640180 1.643007
  H 2.579587 0.964778 2.450564
  C 3.069849 -0.346967 -0.811036
  C 4.442325 -0.433355 -1.026577
  C 5.097847 -0.884737 -2.152831
  C 4.623233 -1.398527 -3.435278
  C 3.142752 -1.522386 -3.745148
  H 3.021040 -1.923991 -4.747826
  H 6.179634 -0.860554 -2.092171
  H 3.892095 1.460993 1.360404
  H 3.892971 -0.147019 2.007333
  H 2.380771 -0.653930 -1.575037
  H 5.078839 -0.107334 -0.213093
  H 5.109458 -2.376082 -3.573573
  H 5.109941 -0.787381 -4.210410
  H 2.648950 -0.553827 -3.716383
  H 2.648669 -2.203126 -3.055768
 19
 29.531907
  H 1.334587 0.236639 0.642700
  C 2.408993 0.218752 0.597100
  C 3.243636 0.653814 1.677354
  H 2.649004 0.994438 2.523529
  C 3.046272 -0.366808 -0.859964
  C 4.406246 -0.436698 -1.034783
  C 5.092889 -0.886117 -2.156208
  C 4.642177 -1.407147 -3.456739
  C 3.165255 -1.538159 -3.784775
  H 3.057681 -1.942197 -4.793514
  H 6.178178 -0.853119 -2.073582
  H 3.912104 1.457416 1.356428
  H 3.913676 -0.146898 2.002043
  H 2.321318 -0.655105 -1.577388
  H 5.023014 -0.107234 -0.212910
  H 5.133410 -2.382572 -3.585768
  H 5.133951 -0.791230 -4.223628
  H 2.668696 -0.572204 -3.763865
  H 2.668286 -2.222334 -3.102910
 19
 52.229749
  H 1.297036 0.263572 0.709680
  C 2.369534 0.249694 0.673945
  C 3.227948 0.675890 1.732287
  H 2.656257 1.021252 2.591008
  C 3.058376 -0.392112 -0.923267
  C 4.413613 -0.454915 -1.080436
  C 5.103053 -0.898248 -2.186555
  C 4.657634 -1.414512 -3.475007
  C 3.179306 -1.541531 -3.793069
  H 3.064193 -1.943627 -4.796845
  H 6.181797 -0.863646 -2.099961
  H 3.899810 1.471883 1.395274
  H 3.901289 -0.130555 2.039846
  H 2.308364 -0.677402 -1.633248
  H 5.025625 -0.122703 -0.251755
  H 5.146187 -2.390738 -3.603937
  H 5.146740 -0.798018 -4.242436
  H 2.685777 -0.573173 -3.768462
  H 2.685326 -2.224837 -3.106792
 19
 74.490337
  H 1.250143 0.309046 0.823055
  C 2.321620 0.296582 0.790675
  C 3.220482 0.706069 1.807471
  H 2.687073 1.060505 2.689211
  C 3.042186 -0.404301 -0.953833
  C 4.393742 -0.460721 -1.095218
  C 5.112274 -0.909863 -2.215657
  C 4.679615 -1.433330 -3.521813
  C 3.202513 -1.566080 -3.854195
  H 3.097068 -1.969325 -4.860643
  H 6.193556 -0.870005 -2.115985
  H 3.894705 1.489484 1.442831
  H 3.896238 -0.110547 2.086269
  H 2.271702 -0.675945 -1.629791
  H 4.996413 -0.126069 -0.260599
  H 5.172095 -2.409127 -3.645933
  H 5.172691 -0.813929 -4.285565
  H 2.706290 -0.599131 -3.834111
  H 2.705796 -2.251372 -3.172098
 19
 93.406362
  H 1.196667 0.333678 0.882712
  C 2.267253 0.326984 0.865850
  C 3.253760 0.708694 1.814464
  H 2.810506 1.081337 2.740925
  C 2.997320 -0.436034 -1.032997
  C 4.333548 -0.470655 -1.120393
  C 5.104596 -0.903753 -2.201047
  C 4.709272 -1.433532 -3.522486
  C 3.233287 -1.570899 -3.865589
  H 3.131198 -1.974727 -4.873366
  H 6.180217 -0.846429 -2.058392
  H 3.927632 1.466960 1.390597
  H 3.928040 -0.131430 2.033612
  H 2.174237 -0.679206 -1.638192
  H 4.899594 -0.128099 -0.266616
  H 5.205375 -2.408537 -3.635530
  H 5.205643 -0.806915 -4.277812
  H 2.737234 -0.604380 -3.845240
  H 2.737082 -2.255849 -3.183506
 19
 110.586069
  H 1.168326 0.370243 0.970786
  C 2.236100 0.361639 0.950969
  C 3.241940 0.728680 1.865609
  H 2.838696 1.107771 2.807926
  C 2.993485 -0.460556 -1.095734
  C 4.327280 -0.488840 -1.167501
  C 5.119583 -0.917024 -2.235479
  C 4.733536 -1.442302 -3.544357
  C 3.256853 -1.575307 -3.875355
  H 3.144564 -1.977120 -4.877075
  H 6.186591 -0.855297 -2.082293
  H 3.911865 1.476056 1.417659
  H 3.910896 -0.121565 2.060056
  H 2.129522 -0.693172 -1.674676
  H 4.883535 -0.140935 -0.301095
  H 5.227088 -2.418564 -3.657224
  H 5.227068 -0.815014 -4.300969
  H 2.764392 -0.605681 -3.849478
  H 2.764660 -2.258469 -3.186550
 19
 124.731645
  H 1.136043 0.412025 1.074127
  C 2.206851 0.401010 1.048841
  C 3.222574 0.760403 1.945824
  H 2.839485 1.142527 2.896328
  C 2.999032 -0.478834 -1.143313
  C 4.333743 -0.504793 -1.209039
  C 5.134111 -0.930590 -2.270203
  C 4.750274 -1.457628 -3.582147
  C 3.274406 -1.589948 -3.911028
  H 3.158957 -1.993576 -4.916182
  H 6.203811 -0.866219 -2.110435
  H 3.888961 1.500793 1.486907
  H 3.887469 -0.092736 2.127151
  H 2.128010 -0.703179 -1.701754
  H 4.883425 -0.156866 -0.342781
  H 5.242528 -2.433185 -3.694437
  H 5.242468 -0.831043 -4.338256
  H 2.783829 -0.620839 -3.883822
  H 2.784149 -2.271289 -3.221142
 19
 136.096881
  H 1.107302 0.452760 1.174619
  C 2.177450 0.438880 1.142777
  C 3.206115 0.794138 2.030404
  H 2.843461 1.180005 2.990297
  C 3.004378 -0.499220 -1.194475
  C 4.331607 -0.521313 -1.250653
  C 5.147757 -0.945218 -2.306982
  C 4.769986 -1.472873 -3.620005
  C 3.293866 -1.604596 -3.947101
  H 3.176105 -2.007407 -4.949874
  H 6.213284 -0.877548 -2.139204
  H 3.871126 1.529466 1.559417
  H 3.869141 -0.064157 2.199543
  H 2.115965 -0.717416 -1.737572
  H 4.874208 -0.170546 -0.377611
  H 5.262124 -2.449146 -3.731383
  H 5.261990 -0.845238 -4.376134
  H 2.804066 -0.634235 -3.918615
  H 2.804440 -2.285847 -3.255221
 19
 144.666122
  H 1.079872 0.495082 1.279849
  C 2.151439 0.476628 1.236740
  C 3.187080 0.826467 2.111005
  H 2.847656 1.215319 3.078345
  C 3.007107 -0.520562 -1.247246
  C 4.332245 -0.538702 -1.293697
  C 5.162810 -0.958657 -2.340369
  C 4.789626 -1.487212 -3.655697
  C 3.312555 -1.617550 -3.979319
  H 3.190140 -2.020524 -4.982536
  H 6.227148 -0.887175 -2.163168
  H 3.849169 1.555018 1.626898
  H 3.846984 -0.036085 2.266033
  H 2.108437 -0.729041 -1.766158
  H 4.865934 -0.186287 -0.416434
  H 5.280674 -2.463955 -3.766641
  H 5.280503 -0.858875 -4.411813
  H 2.824806 -0.646545 -3.948553
  H 2.825192 -2.297697 -3.285368
 19
 150.333312
  H 1.055976 0.541955 1.396939
  C 2.129826 0.515064 1.332639
  C 3.157496 0.868813 2.216566
  H 2.828794 1.260347 3.190838
  C 3.020497 -0.540238 -1.296186
  C 4.340881 -0.558036 -1.341832
  C 5.180874 -0.977293 -2.386756
  C 4.808515 -1.505267 -3.700532
  C 3.330174 -1.633931 -4.020121
  H 3.203501 -2.036238 -5.021579
  H 6.243434 -0.904509 -2.206195
  H 3.819512 1.592132 1.725451
  H 3.817420 0.005214 2.362753
  H 2.111730 -0.744896 -1.805739
  H 4.871543 -0.204154 -0.460662
  H 5.298446 -2.482746 -3.811267
  H 5.298325 -0.876317 -4.457016
  H 2.843787 -0.661846 -3.987195
  H 2.844084 -2.313292 -3.323796
 19
 153.206610
  H 1.036324 0.590529 1.519729
  C 2.109882 0.553860 1.430044
  C 3.121541 0.914887 2.330386
  H 2.795111 1.306220 3.304179
  C 3.036957 -0.559821 -1.342975
  C 4.356909 -0.578815 -1.392015
  C 5.200076 -0.997718 -2.436672
  C 4.825042 -1.523604 -3.746252
  C 3.345553 -1.650051 -4.061224
  H 3.214094 -2.051939 -5.062418
  H 6.263024 -0.924955 -2.255810
  H 3.784480 1.635741 1.837096
  H 3.783207 0.052241 2.473201
  H 2.126185 -0.761552 -1.845197
  H 4.887139 -0.224616 -0.509531
  H 5.313806 -2.501589 -3.857655
  H 5.313928 -0.894472 -4.503195
  H 2.860819 -0.677266 -4.025674
  H 2.860812 -2.328267 -3.362932
 19
 154.814635
  H 1.016136 0.639676 1.642761
  C 2.089746 0.593459 1.529002
  C 3.086726 0.962523 2.448857
  H 2.756118 1.353283 3.421304
  C 3.054303 -0.578091 -1.388013
  C 4.371990 -0.598021 -1.439677
  C 5.218211 -1.017260 -2.485232
  C 4.840572 -1.541855 -3.791594
  C 3.360965 -1.666982 -4.103676
  H 3.226412 -2.068586 -5.104164
  H 6.281101 -0.944474 -2.304129
  H 3.751280 1.682746 1.956989
  H 3.750382 0.101504 2.592165
  H 2.137671 -0.778443 -1.886861
  H 4.901634 -0.243182 -0.555610
  H 5.329153 -2.520040 -3.903427
  H 5.329420 -0.912953 -4.548941
  H 2.877154 -0.693644 -4.066473
  H 2.876954 -2.344342 -3.403823
 19
 155.729863
  H 0.996297 0.689544 1.764961
  C 2.069312 0.633960 1.629211
  C 3.051176 1.009103 2.566626
  H 2.713536 1.398584 3.536057
  C 3.070074 -0.594711 -1.432487
  C 4.387736 -0.615420 -1.485741
  C 5.235683 -1.034807 -2.530548
  C 4.855082 -1.558801 -3.833261
  C 3.375074 -1.683049 -4.142152
  H 3.237215 -2.085116 -5.142072
  H 6.298643 -0.961797 -2.349089
  H 3.717898 1.729359 2.078300
  H 3.715903 0.149624 2.712441
  H 2.151231 -0.792279 -1.925019
  H 4.916435 -0.259987 -0.600822
  H 5.343874 -2.537078 -3.945378
  H 5.343978 -0.930750 -4.591604
  H 2.892076 -0.709326 -4.103763
  H 2.892125 -2.359216 -3.440344
