 26
 0.000000
  C 1.006776 0.120578 0.351581
  C 2.482279 0.132147 0.380955
  C 3.240513 0.606960 1.561992
  C 2.440145 1.091891 2.767619
  C 3.378017 1.540489 3.884441
  C 3.131801 -0.326616 -0.760015
  C 4.513800 -0.396978 -0.936536
  C 5.159651 -0.855913 -2.081638
  C 4.516423 -1.351079 -3.315323
  H 3.438266 -1.356150 -3.326969
  O 6.471701 -0.881671 -2.148755
  H 0.557004 0.488209 1.265450
  H 0.648110 -0.893019 0.166814
  H 0.648327 0.724159 -0.483495
  H 3.900412 1.421138 1.241769
  H 3.900092 -0.202488 1.894620
  H 1.803096 0.291024 3.146701
  H 1.803653 1.932696 2.486767
  H 4.013382 0.720827 4.212552
  H 2.806702 1.885599 4.742570
  H 4.014004 2.358764 3.554121
  H 2.492391 -0.651262 -1.567375
  H 5.145823 -0.069330 -0.121640
  H 4.887121 -2.359929 -3.503274
  H 4.886657 -0.751662 -4.148442
  H 6.929909 -0.560960 -1.349564
 26
 -0.092506
  C 1.011120 0.276198 0.283902
  C 2.486279 0.244844 0.327407
  C 3.242564 0.670385 1.531653
  C 2.437846 1.035141 2.777389
  C 3.371032 1.389745 3.928578
  C 3.140067 -0.267361 -0.787918
  C 4.521243 -0.292747 -0.979778
  C 5.171079 -0.838604 -2.082841
  C 4.513713 -1.528287 -3.212891
  H 3.441310 -1.608622 -3.099590
  O 6.477431 -0.780430 -2.192584
  H 0.569849 0.792530 1.127861
  H 0.626512 -0.745437 0.265565
  H 0.670094 0.738163 -0.643857
  H 3.861760 1.535481 1.260807
  H 3.947915 -0.125323 1.797695
  H 1.812617 0.193918 3.078391
  H 1.790210 1.893080 2.577917
  H 4.015532 0.551782 4.179368
  H 2.798176 1.647486 4.813546
  H 3.996695 2.241587 3.674420
  H 2.505202 -0.685380 -1.556547
  H 5.147004 0.166412 -0.225232
  H 4.946473 -2.522468 -3.320619
  H 4.746048 -0.997784 -4.136593
  H 6.933275 -0.323582 -1.462766
 26
 1.171605
  C 1.013585 0.432292 0.239461
  C 2.483474 0.326091 0.295105
  C 3.240362 0.661857 1.523492
  C 2.433161 1.003199 2.772751
  C 3.362211 1.242985 3.959039
  C 3.129503 -0.196531 -0.824280
  C 4.501129 -0.150642 -1.059096
  C 5.165974 -0.795754 -2.097894
  C 4.538388 -1.703074 -3.082487
  H 3.477109 -1.832826 -2.922915
  O 6.458281 -0.646270 -2.269968
  H 0.607823 1.052417 1.029314
  H 0.571040 -0.561925 0.336776
  H 0.694594 0.814131 -0.729239
  H 3.903462 1.507764 1.301062
  H 3.906037 -0.175582 1.755790
  H 1.756144 0.183274 3.015584
  H 1.838514 1.903604 2.609725
  H 3.952393 0.356509 4.177616
  H 2.786223 1.489272 4.847671
  H 4.042100 2.068409 3.760631
  H 2.504009 -0.756060 -1.505358
  H 5.097852 0.480081 -0.413492
  H 5.036070 -2.671701 -3.041832
  H 4.715421 -1.314779 -4.085051
  H 6.891889 -0.043696 -1.637518
 26
 3.299288
  C 1.023822 0.575221 0.208560
  C 2.486876 0.398730 0.263887
  C 3.241521 0.675618 1.508372
  C 2.422802 0.983697 2.758751
  C 3.333958 1.104995 3.978044
  C 3.123672 -0.133116 -0.855199
  C 4.485276 -0.046674 -1.135724
  C 5.158405 -0.772537 -2.112083
  C 4.560570 -1.825188 -2.962382
  H 3.505826 -1.974207 -2.774850
  O 6.439944 -0.584674 -2.331584
  H 0.683977 1.344059 0.894712
  H 0.529394 -0.352888 0.504094
  H 0.693854 0.803229 -0.802475
  H 3.923806 1.514737 1.320755
  H 3.891746 -0.180957 1.714051
  H 1.697344 0.189292 2.936375
  H 1.879477 1.921348 2.637454
  H 3.871278 0.176553 4.156743
  H 2.749134 1.331178 4.867533
  H 4.061558 1.901402 3.843040
  H 2.518886 -0.826768 -1.422983
  H 5.058152 0.690255 -0.588929
  H 5.094865 -2.763012 -2.800901
  H 4.715936 -1.566029 -4.009180
  H 6.850885 0.111315 -1.785262
 26
 7.441918
  C 1.020974 0.747965 0.159113
  C 2.467208 0.452290 0.227755
  C 3.230048 0.687262 1.477332
  C 2.415872 0.892389 2.749767
  C 3.334090 0.991305 3.963969
  C 3.101400 -0.039487 -0.911467
  C 4.461069 0.033394 -1.187856
  C 5.150164 -0.773518 -2.084634
  C 4.587411 -1.946701 -2.786199
  H 3.549189 -2.130344 -2.545040
  O 6.413197 -0.548154 -2.367597
  H 0.756071 1.570312 0.814734
  H 0.440810 -0.113826 0.501837
  H 0.711127 0.969831 -0.858268
  H 3.872223 1.565607 1.323613
  H 3.919383 -0.148558 1.626309
  H 1.730903 0.055480 2.890785
  H 1.826463 1.808303 2.684645
  H 3.905233 0.077357 4.095457
  H 2.752417 1.155340 4.862027
  H 4.030640 1.821353 3.857130
  H 2.520269 -0.828381 -1.375316
  H 5.006515 0.858353 -0.754542
  H 5.178093 -2.826661 -2.542785
  H 4.687538 -1.801239 -3.859885
  H 6.812045 0.194551 -1.877767
 26
 15.871194
  C 1.028645 0.885629 0.137187
  C 2.451339 0.495545 0.194449
  C 3.216718 0.645144 1.458711
  C 2.401620 0.847625 2.732794
  C 3.320382 0.867186 3.953777
  C 3.076460 0.054561 -0.975931
  C 4.400559 0.189673 -1.378291
  C 5.140962 -0.748112 -2.079739
  C 4.630114 -2.043551 -2.578078
  H 3.589637 -2.212506 -2.328377
  O 6.413426 -0.543660 -2.357309
  H 0.839237 1.729142 0.797412
  H 0.390586 0.077449 0.493909
  H 0.725612 1.130459 -0.878240
  H 3.907019 1.492582 1.337302
  H 3.860122 -0.227944 1.579648
  H 1.678965 0.035110 2.845175
  H 1.850783 1.793933 2.699775
  H 3.866041 -0.065970 4.047380
  H 2.740715 1.008496 4.858978
  H 4.042118 1.684940 3.886029
  H 2.525022 -0.844643 -1.250108
  H 4.888737 1.123618 -1.129483
  H 5.245709 -2.853509 -2.181328
  H 4.751793 -2.073470 -3.658744
  H 6.761352 0.313164 -2.049544
 26
 29.553537
  C 1.079846 0.964583 0.099070
  C 2.514011 0.615451 0.162187
  C 3.218436 0.660307 1.474540
  C 2.348646 0.823610 2.717756
  C 3.206914 0.712433 3.976922
  C 3.191107 0.267213 -1.005696
  C 4.468995 0.314607 -1.525876
  C 5.141113 -0.715169 -2.159502
  C 4.650410 -2.112059 -2.277588
  H 3.681463 -2.258976 -1.809610
  O 6.329057 -0.524151 -2.711203
  H 0.845814 1.700554 0.861473
  H 0.451196 0.095210 0.313263
  H 0.806042 1.345397 -0.881316
  H 3.965985 1.462696 1.436983
  H 3.787965 -0.271565 1.578259
  H 1.574208 0.055759 2.744760
  H 1.861728 1.805272 2.721849
  H 3.679348 -0.268928 4.045182
  H 2.594856 0.851533 4.863944
  H 3.989663 1.470892 3.984105
  H 2.644227 -0.706236 -1.028097
  H 4.944271 1.291432 -1.507756
  H 5.376843 -2.789828 -1.822874
  H 4.593243 -2.382474 -3.327848
  H 6.656808 0.387138 -2.633565
 26
 44.768755
  C 1.175121 0.972755 0.070051
  C 2.596575 0.580659 0.216531
  C 3.228525 0.640588 1.571158
  C 2.286285 0.827347 2.749192
  C 3.052643 0.685858 4.058199
  C 3.369438 0.314811 -0.901171
  C 4.546920 0.330428 -1.597301
  C 5.143267 -0.718294 -2.278262
  C 4.645409 -2.119850 -2.270415
  H 3.761002 -2.241511 -1.657672
  O 6.251450 -0.542561 -3.012628
  H 0.948942 1.778160 0.766596
  H 0.511064 0.148741 0.310875
  H 0.953725 1.307928 -0.936245
  H 3.973534 1.436937 1.560634
  H 3.780949 -0.290249 1.729521
  H 1.481465 0.096141 2.722255
  H 1.845857 1.822386 2.723370
  H 3.495066 -0.305134 4.148452
  H 2.385695 0.843934 4.905846
  H 3.847202 1.420325 4.125464
  H 2.783506 -0.665436 -0.640911
  H 4.973413 1.314720 -1.703918
  H 5.429668 -2.783022 -1.906096
  H 4.425034 -2.430809 -3.290744
  H 6.556359 0.386229 -3.045082
 26
 51.521170
  C 1.247696 1.024611 0.020140
  C 2.661755 0.548047 0.220514
  C 3.250564 0.575504 1.625580
  C 2.250624 0.758386 2.767537
  C 2.966719 0.649909 4.111843
  C 3.500919 0.408525 -0.851629
  C 4.545816 0.380702 -1.696609
  C 5.106223 -0.703493 -2.356496
  C 4.669432 -2.111911 -2.176217
  H 3.871601 -2.205619 -1.448170
  O 6.106725 -0.554642 -3.233215
  H 1.029406 1.822118 0.721717
  H 0.533888 0.226871 0.202966
  H 1.104902 1.394073 -0.991441
  H 3.988177 1.380741 1.660241
  H 3.794570 -0.354541 1.804225
  H 1.475651 -0.006436 2.719186
  H 1.772991 1.736390 2.712322
  H 3.428793 -0.326797 4.231651
  H 2.262199 0.791418 4.927820
  H 3.742184 1.408181 4.200424
  H 2.782995 -0.584821 -0.334545
  H 4.932736 1.373526 -1.906558
  H 5.519035 -2.718496 -1.862711
  H 4.336679 -2.516118 -3.132876
  H 6.389219 0.366652 -3.346812
 26
 53.025802
  C 1.260207 0.988518 0.012152
  C 2.651311 0.411411 0.250982
  C 3.237913 0.456011 1.675927
  C 2.249406 0.804153 2.786881
  C 2.936218 0.705627 4.146080
  C 3.534706 0.356737 -0.800511
  C 4.523085 0.364383 -1.691072
  C 5.110275 -0.673955 -2.403211
  C 4.738693 -2.101757 -2.230275
  H 3.980025 -2.235643 -1.469108
  O 6.056132 -0.459494 -3.322039
  H 1.059021 1.777351 0.726879
  H 0.491871 0.230343 0.130916
  H 1.187593 1.401668 -0.989226
  H 4.055431 1.177548 1.689601
  H 3.670171 -0.518965 1.910579
  H 1.402438 0.118849 2.769632
  H 1.874440 1.820403 2.667625
  H 3.297549 -0.303642 4.329511
  H 2.240334 0.964488 4.940937
  H 3.782607 1.387441 4.202900
  H 2.624653 -0.696965 -0.113194
  H 4.846761 1.385524 -1.889107
  H 5.625147 -2.676810 -1.963756
  H 4.380602 -2.506291 -3.176982
  H 6.298093 0.474584 -3.427937
 26
 52.450504
  C 1.215371 1.025129 0.022452
  C 2.587445 0.373179 0.224804
  C 3.219127 0.404996 1.635661
  C 2.264305 0.764939 2.771799
  C 2.977430 0.634369 4.114228
  C 3.467215 0.376570 -0.841568
  C 4.455164 0.398937 -1.725140
  C 5.121698 -0.648888 -2.358663
  C 4.825319 -2.078762 -2.094303
  H 4.086270 -2.202028 -1.312708
  O 6.038435 -0.439148 -3.300606
  H 1.088368 1.846834 0.717506
  H 0.412300 0.316000 0.194066
  H 1.126439 1.412229 -0.988070
  H 4.047722 1.114066 1.631567
  H 3.639643 -0.577700 1.853990
  H 1.399497 0.100446 2.765096
  H 1.911703 1.791306 2.670932
  H 3.319144 -0.385348 4.277867
  H 2.304822 0.899122 4.926401
  H 3.839888 1.295679 4.160556
  H 2.461302 -0.718942 -0.082117
  H 4.698793 1.419102 -2.022168
  H 5.745726 -2.587716 -1.808902
  H 4.476620 -2.561712 -3.007426
  H 6.247228 0.496817 -3.455609
 26
 50.467472
  C 1.193896 1.106256 0.021642
  C 2.514553 0.326265 0.189161
  C 3.198270 0.340930 1.583804
  C 2.274611 0.682239 2.751624
  C 3.024620 0.532988 4.072892
  C 3.392664 0.392402 -0.890671
  C 4.364665 0.437591 -1.781490
  C 5.122629 -0.625307 -2.306769
  C 4.923821 -2.030651 -1.886277
  H 4.226961 -2.109361 -1.060151
  O 5.986674 -0.450188 -3.284040
  H 1.146026 1.918488 0.736312
  H 0.336142 0.460999 0.182595
  H 1.129516 1.526301 -0.978744
  H 4.027545 1.050289 1.569657
  H 3.620330 -0.646381 1.772265
  H 1.410292 0.015738 2.756629
  H 1.916249 1.709369 2.676410
  H 3.371103 -0.489477 4.212123
  H 2.374172 0.785659 4.907191
  H 3.887666 1.194560 4.104577
  H 2.284138 -0.737492 -0.050797
  H 4.519416 1.426371 -2.218597
  H 5.886788 -2.451901 -1.597521
  H 4.570125 -2.628848 -2.726407
  H 6.148168 0.477109 -3.531627
 26
 48.073528
  C 1.157037 1.125112 0.037355
  C 2.427482 0.246797 0.166718
  C 3.178727 0.262145 1.529220
  C 2.318054 0.636283 2.733969
  C 3.125353 0.485152 4.019954
  C 3.323751 0.383815 -0.910118
  C 4.299322 0.466604 -1.790719
  C 5.102366 -0.611637 -2.251123
  C 4.949425 -1.981617 -1.728469
  H 4.264370 -2.015983 -0.889481
  O 5.939390 -0.472054 -3.235213
  H 1.176545 1.930828 0.761852
  H 0.260864 0.536894 0.202115
  H 1.103878 1.565719 -0.953961
  H 4.025954 0.947001 1.470725
  H 3.577931 -0.737575 1.706112
  H 1.442205 -0.012681 2.784531
  H 1.975385 1.668522 2.664875
  H 3.456117 -0.542489 4.154637
  H 2.519682 0.761005 4.880065
  H 4.002765 1.128213 4.003096
  H 2.081913 -0.793124 0.007237
  H 4.441087 1.428088 -2.288573
  H 5.929148 -2.354153 -1.428523
  H 4.604372 -2.650701 -2.517600
  H 6.070464 0.440973 -3.557670
 26
 46.913469
  C 1.122936 1.118443 0.090817
  C 2.358399 0.179639 0.163658
  C 3.183555 0.241877 1.487002
  C 2.356955 0.527193 2.740272
  C 3.237495 0.424647 3.983047
  C 3.229920 0.367422 -0.931765
  C 4.185401 0.459786 -1.831627
  C 5.078477 -0.594632 -2.182879
  C 5.049097 -1.900780 -1.501369
  H 4.387172 -1.889192 -0.645155
  O 5.884886 -0.496098 -3.188486
  H 1.223360 1.936764 0.792422
  H 0.213097 0.576162 0.318007
  H 1.029517 1.543615 -0.905209
  H 3.971840 0.989821 1.397451
  H 3.663160 -0.728652 1.625306
  H 1.540835 -0.193818 2.819591
  H 1.924173 1.526720 2.708665
  H 3.652397 -0.576774 4.086423
  H 2.656569 0.644008 4.875712
  H 4.061411 1.133807 3.931857
  H 1.973212 -0.848648 0.085189
  H 4.249388 1.365272 -2.437335
  H 6.062753 -2.162115 -1.195118
  H 4.742053 -2.681257 -2.198410
  H 5.936326 0.379222 -3.619820
 26
 43.228004
  C 1.215676 1.308056 0.091805
  C 2.393254 0.304700 0.154891
  C 3.204042 0.418638 1.469169
  C 2.324308 0.297304 2.711930
  C 3.180619 0.285194 3.974269
  C 3.240924 0.400180 -0.971122
  C 4.162996 0.416228 -1.908581
  C 5.061658 -0.656435 -2.184228
  C 5.078566 -1.881351 -1.370600
  H 4.540760 -1.746560 -0.439210
  O 5.817349 -0.658569 -3.231453
  H 1.528788 2.268430 0.491733
  H 0.374518 0.941820 0.670543
  H 0.892791 1.451758 -0.935317
  H 3.729492 1.373888 1.485133
  H 3.950800 -0.376287 1.498347
  H 1.743055 -0.625982 2.665991
  H 1.626527 1.132357 2.769500
  H 3.861683 -0.563223 3.975076
  H 2.551104 0.215188 4.858212
  H 3.769386 1.196971 4.049328
  H 1.953650 -0.705073 0.115867
  H 4.190846 1.258158 -2.601441
  H 6.111605 -2.172109 -1.183714
  H 4.635279 -2.706428 -1.929584
  H 5.834711 0.165574 -3.758299
