 26
 0.000000
  H 1.450212 0.160656 0.452944
  C 2.528694 0.146219 0.416396
  C 3.292108 0.614660 1.580903
  C 2.454573 1.090118 2.763823
  C 3.343748 1.552950 3.914308
  C 3.097558 -0.323060 -0.751659
  C 4.472406 -0.417721 -0.987975
  C 5.131385 -0.875184 -2.129428
  C 4.603359 -1.391982 -3.419075
  C 3.108323 -1.495911 -3.679433
  H 2.944977 -1.894603 -4.674303
  O 6.447914 -0.879699 -2.140984
  H 3.951775 1.432711 1.266908
  H 3.952216 -0.192714 1.920491
  H 1.812540 0.281014 3.116894
  H 1.812171 1.918184 2.458606
  H 3.979070 0.743376 4.266606
  H 2.734644 1.888784 4.749933
  H 3.978650 2.381318 3.607953
  H 2.416898 -0.633768 -1.525154
  H 5.108380 -0.090278 -0.171608
  H 5.053995 -2.382067 -3.553747
  H 5.054537 -0.769350 -4.200297
  H 2.634813 -0.518513 -3.628655
  H 2.634315 -2.167448 -2.967775
  H 6.841238 -0.547453 -1.310837
 26
 2.210664
  H 1.476733 0.172876 0.529962
  C 2.553637 0.148621 0.438584
  C 3.318575 0.638307 1.591149
  C 2.452998 1.088689 2.765513
  C 3.307985 1.572181 3.931414
  C 3.075839 -0.333507 -0.739790
  C 4.447754 -0.405679 -1.003646
  C 5.118796 -0.845823 -2.148641
  C 4.601067 -1.369852 -3.436466
  C 3.107241 -1.484144 -3.682139
  H 2.952493 -1.904148 -4.672093
  O 6.434519 -0.749810 -2.166091
  H 3.957857 1.472731 1.274787
  H 4.013816 -0.139205 1.932241
  H 1.826213 0.259829 3.100011
  H 1.791776 1.896728 2.447226
  H 3.953917 0.776829 4.296113
  H 2.677736 1.896328 4.755559
  H 3.930320 2.413242 3.634465
  H 2.378415 -0.659403 -1.487288
  H 5.120761 -0.051889 -0.239464
  H 5.065375 -2.355857 -3.558664
  H 5.053742 -0.753394 -4.223034
  H 2.623425 -0.511527 -3.659875
  H 2.635869 -2.150661 -2.966240
  H 6.922545 -0.844866 -1.327223
 26
 7.506218
  H 1.462355 0.156228 0.545150
  C 2.539378 0.151185 0.444711
  C 3.306214 0.653192 1.589577
  C 2.446651 1.072938 2.778124
  C 3.304458 1.572404 3.935514
  C 3.061280 -0.325527 -0.737708
  C 4.431028 -0.387269 -1.007003
  C 5.110338 -0.843528 -2.134181
  C 4.613007 -1.368987 -3.424411
  C 3.120642 -1.491052 -3.679023
  H 2.969692 -1.898643 -4.675564
  O 6.430229 -0.687252 -2.126013
  H 3.916729 1.506335 1.266864
  H 4.028717 -0.105074 1.913777
  H 1.847371 0.225275 3.115772
  H 1.758649 1.864042 2.474071
  H 3.973585 0.791290 4.289050
  H 2.676875 1.878355 4.768661
  H 3.902907 2.429202 3.634391
  H 2.364749 -0.665655 -1.484136
  H 5.127920 -0.007073 -0.272799
  H 5.085471 -2.350542 -3.550292
  H 5.067755 -0.745254 -4.204462
  H 2.631038 -0.521544 -3.646946
  H 2.650532 -2.166856 -2.970485
  H 6.999017 -1.102147 -1.458653
 26
 13.731319
  H 1.422435 0.231535 0.546768
  C 2.498481 0.204646 0.440214
  C 3.286706 0.668686 1.586331
  C 2.446315 1.065841 2.796537
  C 3.323538 1.553146 3.945079
  C 3.009431 -0.264248 -0.749767
  C 4.373686 -0.361158 -1.018215
  C 5.079757 -0.826579 -2.129176
  C 4.642651 -1.384641 -3.424524
  C 3.151341 -1.529864 -3.682562
  H 3.001199 -1.957715 -4.670355
  O 6.390658 -0.624604 -2.019592
  H 3.899672 1.523354 1.274809
  H 3.998763 -0.110609 1.880435
  H 1.861705 0.208139 3.134346
  H 1.747925 1.857729 2.520090
  H 4.015911 0.776782 4.262126
  H 2.711491 1.827613 4.800439
  H 3.898290 2.428176 3.650234
  H 2.311410 -0.572811 -1.509784
  H 5.146960 -0.023013 -0.338199
  H 5.123799 -2.365097 -3.517728
  H 5.093176 -0.760315 -4.204918
  H 2.651371 -0.565563 -3.661664
  H 2.690387 -2.195132 -2.957784
  H 7.049532 -1.170254 -1.569157
 26
 25.010951
  H 1.374563 0.278163 0.573013
  C 2.447033 0.243998 0.441542
  C 3.269077 0.702637 1.567110
  C 2.455950 1.090107 2.799786
  C 3.362602 1.476548 3.963186
  C 2.937782 -0.218414 -0.754609
  C 4.287412 -0.295302 -1.060030
  C 5.026578 -0.811639 -2.129837
  C 4.681509 -1.429583 -3.420044
  C 3.192231 -1.583496 -3.691957
  H 3.044191 -2.011733 -4.679212
  O 6.307710 -0.557420 -1.904294
  H 3.862897 1.563416 1.241557
  H 3.980460 -0.083561 1.838919
  H 1.826106 0.251858 3.103899
  H 1.799624 1.930448 2.565845
  H 3.993965 0.641247 4.257979
  H 2.769828 1.773238 4.824823
  H 4.002926 2.313619 3.693303
  H 2.236751 -0.561108 -1.499025
  H 5.185402 0.029875 -0.503798
  H 5.169753 -2.408115 -3.466374
  H 5.130299 -0.805743 -4.199832
  H 2.690840 -0.620070 -3.662591
  H 2.732192 -2.247631 -2.965631
  H 7.071840 -1.029591 -1.554833
 26
 49.723784
  H 1.330439 0.301543 0.643174
  C 2.397739 0.246305 0.482815
  C 3.260909 0.674975 1.598730
  C 2.476181 1.078971 2.845442
  C 3.402668 1.514912 3.974457
  C 2.858157 -0.208149 -0.723380
  C 4.196256 -0.326986 -1.081245
  C 4.952851 -0.816904 -2.143257
  C 4.710392 -1.434257 -3.457252
  C 3.233261 -1.623874 -3.783504
  H 3.126008 -2.072666 -4.766621
  O 6.229904 -0.529803 -1.819611
  H 3.862240 1.526362 1.263308
  H 3.953894 -0.132539 1.850468
  H 1.846152 0.253364 3.181446
  H 1.810753 1.908871 2.595871
  H 4.053321 0.697253 4.276367
  H 2.826754 1.823817 4.843161
  H 4.023946 2.351423 3.663449
  H 2.136651 -0.516679 -1.472471
  H 5.312757 -0.014541 -0.640997
  H 5.230544 -2.396291 -3.495273
  H 5.180826 -0.793512 -4.210619
  H 2.718319 -0.666923 -3.792320
  H 2.755826 -2.270971 -3.052724
  H 7.010884 -0.953486 -1.428761
 26
 74.179116
  H 1.304587 0.266987 0.672327
  C 2.367423 0.215019 0.488328
  C 3.258433 0.677443 1.591263
  C 2.487428 1.088658 2.843037
  C 3.431099 1.545082 3.950527
  C 2.802247 -0.253613 -0.694534
  C 4.130701 -0.395000 -1.106367
  C 4.884985 -0.830243 -2.105072
  C 4.709686 -1.409762 -3.453166
  C 3.247319 -1.599816 -3.834673
  H 3.179077 -2.021965 -4.833159
  O 6.223238 -0.507779 -1.706038
  H 3.844672 1.530065 1.235861
  H 3.959153 -0.119837 1.851694
  H 1.892400 0.245902 3.201784
  H 1.798956 1.900981 2.599633
  H 4.108224 0.743225 4.236092
  H 2.868301 1.842581 4.832063
  H 4.023174 2.397742 3.625317
  H 2.065002 -0.575724 -1.430487
  H 5.530057 -0.076086 -0.697258
  H 5.228828 -2.372298 -3.486439
  H 5.200369 -0.744854 -4.170759
  H 2.721698 -0.648572 -3.831452
  H 2.754005 -2.279369 -3.144534
  H 6.972436 -1.016402 -1.329759
 26
 69.750214
  H 1.256189 0.299089 0.698659
  C 2.314365 0.232904 0.494772
  C 3.233294 0.681497 1.584701
  C 2.488532 1.094076 2.851607
  C 3.455349 1.531500 3.946602
  C 2.718337 -0.237998 -0.691218
  C 4.041451 -0.394084 -1.123722
  C 4.821178 -0.821243 -2.083536
  C 4.703100 -1.412608 -3.437069
  C 3.256461 -1.618774 -3.865034
  H 3.226589 -2.041748 -4.865046
  O 6.196936 -0.477431 -1.643128
  H 3.823732 1.529998 1.227394
  H 3.929666 -0.125459 1.826971
  H 1.889690 0.255850 3.215054
  H 1.806111 1.916521 2.625406
  H 4.127793 0.719795 4.215057
  H 2.910579 1.829284 4.839362
  H 4.051818 2.379689 3.617470
  H 1.962051 -0.546214 -1.414915
  H 5.664562 -0.080990 -0.768004
  H 5.233061 -2.369193 -3.449949
  H 5.210130 -0.745493 -4.140352
  H 2.721101 -0.673062 -3.881454
  H 2.747147 -2.302150 -3.190545
  H 6.965509 -0.951159 -1.244853
 26
 60.007511
  H 1.207489 0.285414 0.760343
  C 2.259142 0.217229 0.526054
  C 3.208278 0.676486 1.584850
  C 2.495868 1.100661 2.867143
  C 3.485862 1.549057 3.936744
  C 2.625081 -0.261676 -0.668015
  C 3.927947 -0.428602 -1.140528
  C 4.760206 -0.818848 -2.052203
  C 4.724627 -1.393825 -3.419103
  C 3.298314 -1.614977 -3.907117
  H 3.314496 -2.024303 -4.913169
  O 6.193931 -0.467462 -1.615033
  H 3.786693 1.523503 1.206223
  H 3.909264 -0.128830 1.817549
  H 1.904251 0.266585 3.251468
  H 1.802549 1.916701 2.651478
  H 4.165477 0.740691 4.197141
  H 2.960366 1.853099 4.838926
  H 4.072963 2.395625 3.587257
  H 1.845365 -0.568249 -1.367722
  H 5.845851 -0.047357 -0.781467
  H 5.268889 -2.341391 -3.424757
  H 5.244380 -0.702261 -4.087300
  H 2.747204 -0.678662 -3.928653
  H 2.774389 -2.316479 -3.262844
  H 6.925851 -1.059530 -1.313035
 26
 64.611824
  H 1.096877 0.300894 0.922233
  C 2.122987 0.195508 0.604195
  C 3.174287 0.632775 1.566241
  C 2.596584 1.130168 2.888297
  C 3.699958 1.563614 3.847084
  C 2.374333 -0.322589 -0.607315
  C 3.607925 -0.538834 -1.200103
  C 4.454087 -0.870259 -2.067508
  C 4.742806 -1.358012 -3.398426
  C 3.449602 -1.636800 -4.167515
  H 3.696214 -2.018169 -5.153474
  O 6.134555 -0.492527 -1.322947
  H 3.765236 1.432742 1.108871
  H 3.858822 -0.196473 1.767277
  H 2.004248 0.339565 3.353808
  H 1.930626 1.975688 2.701929
  H 4.361012 0.731294 4.078557
  H 3.271904 1.922980 4.779674
  H 4.292466 2.367739 3.416331
  H 1.537559 -0.630972 -1.231655
  H 5.612745 -0.105139 -0.603185
  H 5.326667 -2.278561 -3.313666
  H 5.355601 -0.624289 -3.927966
  H 2.867618 -0.727118 -4.285291
  H 2.843497 -2.376756 -3.652448
  H 6.929237 -0.838945 -0.868065
