 31
 0.000000
  C 0.972230 0.141503 0.403511
  C 2.446541 0.142882 0.406242
  C 3.227651 0.610932 1.571030
  C 2.453944 1.100981 2.791339
  C 3.410759 1.544015 3.893966
  C 3.060694 -0.323013 -0.753927
  C 4.441360 -0.412964 -0.978671
  C 5.094079 -0.863045 -2.100121
  C 4.610198 -1.381471 -3.392103
  C 3.124616 -1.506110 -3.703945
  C 2.920858 -2.069795 -5.108676
  H 6.174818 -0.854524 -2.078889
  H 0.536007 0.511217 1.324110
  H 0.603367 -0.870715 0.232025
  H 0.602899 0.753663 -0.420457
  H 3.886722 1.420447 1.236348
  H 3.887029 -0.204920 1.889262
  H 1.817192 0.304632 3.181022
  H 1.816947 1.945466 2.521969
  H 4.046694 0.721309 4.213244
  H 2.852122 1.891552 4.759512
  H 4.046411 2.359170 3.555354
  H 2.396787 -0.639521 -1.541485
  H 5.073542 -0.085268 -0.162645
  H 5.075257 -2.368328 -3.516792
  H 5.075888 -0.755012 -4.164411
  H 2.644823 -0.527442 -3.656299
  H 2.644217 -2.180015 -2.993075
  H 3.366206 -1.420708 -5.859172
  H 1.859450 -2.157119 -5.327228
  H 3.365664 -3.057904 -5.202124
 31
 13.167454
  C 0.900803 0.189508 0.523880
  C 2.372092 0.122526 0.356061
  C 3.221050 0.573754 1.478552
  C 2.538183 1.079373 2.737325
  C 3.586489 1.491865 3.763541
  C 2.770881 -0.365661 -0.859389
  C 4.114723 -0.379334 -0.894653
  C 4.937015 -0.811952 -1.972758
  C 4.611458 -1.340573 -3.290055
  C 3.159793 -1.518486 -3.734816
  C 3.100528 -2.087420 -5.153267
  H 6.004087 -0.743978 -1.803496
  H 0.565843 0.573458 1.479481
  H 0.478430 -0.802554 0.380538
  H 0.478001 0.806337 -0.266035
  H 3.873701 1.376490 1.130036
  H 3.874196 -0.246683 1.782216
  H 1.912638 0.300090 3.173646
  H 1.912385 1.943737 2.513247
  H 4.219695 0.649999 4.035501
  H 3.106038 1.855134 4.667854
  H 4.219493 2.288019 3.377306
  H 2.093160 -0.672848 -1.623675
  H 4.691512 -0.043669 -0.059039
  H 5.137353 -2.306763 -3.376022
  H 5.137834 -0.702300 -4.019942
  H 2.644984 -0.557319 -3.727402
  H 2.644348 -2.207673 -3.065347
  H 3.588216 -1.421961 -5.861882
  H 2.067860 -2.213470 -5.468681
  H 3.587446 -3.058453 -5.205555
 31
 46.740103
  C 0.889715 0.211826 0.577384
  C 2.375221 0.102373 0.305304
  C 3.244334 0.558642 1.444963
  C 2.588482 1.073657 2.720163
  C 3.675183 1.471295 3.714923
  C 2.591030 -0.398349 -0.937795
  C 3.898624 -0.362411 -0.856394
  C 4.843522 -0.784401 -1.910835
  C 4.604681 -1.323514 -3.252109
  C 3.189667 -1.530289 -3.761694
  C 3.206932 -2.097498 -5.175345
  H 5.898874 -0.680893 -1.657709
  H 0.599716 0.599976 1.543624
  H 0.437637 -0.766658 0.452757
  H 0.438428 0.833295 -0.189019
  H 3.895822 1.372981 1.110885
  H 3.888719 -0.266816 1.766946
  H 1.969255 0.304351 3.180371
  H 1.974561 1.949813 2.516367
  H 4.303305 0.621012 3.970495
  H 3.225592 1.842057 4.632374
  H 4.308265 2.258417 3.311319
  H 1.874006 -0.695935 -1.673652
  H 4.467224 -0.031822 -0.037980
  H 5.153038 -2.271892 -3.319167
  H 5.150603 -0.683585 -3.957043
  H 2.660307 -0.580264 -3.775329
  H 2.662988 -2.227732 -3.114226
  H 3.712689 -1.422356 -5.860440
  H 2.193579 -2.244386 -5.537468
  H 3.715256 -3.057541 -5.204339
 31
 86.461261
  C 0.928022 0.203769 0.657793
  C 2.410493 0.075526 0.277839
  C 3.272015 0.552802 1.420709
  C 2.601695 1.064761 2.703965
  C 3.688988 1.481497 3.686725
  C 2.482542 -0.437228 -0.986808
  C 3.778776 -0.347826 -0.820372
  C 4.784488 -0.756177 -1.897615
  C 4.590542 -1.295194 -3.234316
  C 3.199319 -1.546069 -3.786373
  C 3.273607 -2.108355 -5.199495
  H 5.823909 -0.622778 -1.618825
  H 0.695527 0.596923 1.635636
  H 0.461864 -0.774440 0.567469
  H 0.437505 0.828813 -0.084446
  H 3.906741 1.381809 1.082648
  H 3.930051 -0.262144 1.748351
  H 2.000238 0.286071 3.172672
  H 1.974866 1.932937 2.502683
  H 4.332548 0.641339 3.941829
  H 3.238685 1.848221 4.605967
  H 4.307073 2.278210 3.276270
  H 1.739531 -0.731644 -1.692248
  H 4.413430 -0.013892 -0.044496
  H 5.172024 -2.233497 -3.288566
  H 5.137172 -0.631218 -3.928520
  H 2.639464 -0.612573 -3.814342
  H 2.675787 -2.263188 -3.155975
  H 3.776674 -1.414708 -5.868605
  H 2.278710 -2.286280 -5.590918
  H 3.812737 -3.052142 -5.215728
 31
 114.875898
  C 0.920900 0.373983 0.570725
  C 2.415325 0.112190 0.234622
  C 3.257023 0.518976 1.427004
  C 2.615825 1.084822 2.701128
  C 3.728970 1.394396 3.705232
  C 2.439570 -0.406206 -1.050936
  C 3.723929 -0.372971 -0.756121
  C 4.786079 -0.862985 -1.836716
  C 4.610385 -1.381253 -3.182973
  C 3.213513 -1.511265 -3.777425
  C 3.287970 -2.073499 -5.196096
  H 5.815294 -0.807386 -1.508187
  H 0.678663 0.774313 1.541774
  H 0.378758 -0.565821 0.444886
  H 0.518055 1.053873 -0.180493
  H 3.968641 1.288271 1.105229
  H 3.823388 -0.353945 1.766108
  H 1.938443 0.364513 3.161709
  H 2.081778 2.012509 2.498989
  H 4.284151 0.497461 3.963928
  H 3.303420 1.798356 4.620214
  H 4.424675 2.130128 3.306752
  H 1.708095 -0.635028 -1.781494
  H 4.400142 -0.141915 0.029596
  H 5.111686 -2.360166 -3.222777
  H 5.231557 -0.764619 -3.850072
  H 2.737569 -0.530109 -3.813867
  H 2.612741 -2.185383 -3.164754
  H 3.868554 -1.422716 -5.846096
  H 2.289916 -2.166765 -5.618972
  H 3.744326 -3.061483 -5.202062
 31
 153.502043
  C 0.928430 0.385165 0.599368
  C 2.428992 0.067718 0.245864
  C 3.266167 0.501619 1.450641
  C 2.632249 1.109025 2.703142
  C 3.747736 1.427212 3.691876
  C 2.369361 -0.513919 -1.038107
  C 3.629265 -0.404463 -0.693711
  C 4.778049 -0.869151 -1.840647
  C 4.624435 -1.368764 -3.197600
  C 3.235003 -1.520806 -3.799880
  C 3.324459 -2.051647 -5.232486
  H 5.791847 -0.791561 -1.493725
  H 0.715024 0.808120 1.573463
  H 0.373754 -0.544072 0.497921
  H 0.520763 1.063200 -0.150610
  H 3.983001 1.252883 1.111530
  H 3.822456 -0.371434 1.812803
  H 1.946473 0.413902 3.181056
  H 2.109139 2.036092 2.475462
  H 4.292605 0.527507 3.975176
  H 3.329106 1.861944 4.595137
  H 4.452478 2.140877 3.273660
  H 1.631672 -0.754412 -1.756333
  H 4.359163 -0.196711 0.054254
  H 5.150763 -2.333908 -3.256923
  H 5.229453 -0.719450 -3.850278
  H 2.732445 -0.552946 -3.817323
  H 2.650522 -2.223828 -3.203237
  H 3.890874 -1.371529 -5.867232
  H 2.332907 -2.161205 -5.661336
  H 3.808461 -3.024704 -5.257861
 31
 180.396066
  C 0.949443 0.379298 0.574335
  C 2.449316 -0.028340 0.289517
  C 3.277143 0.452031 1.506848
  C 2.639804 1.165589 2.702865
  C 3.751416 1.510338 3.694126
  C 2.323602 -0.719782 -0.984728
  C 3.566798 -0.533409 -0.591854
  C 4.809178 -0.902702 -1.856168
  C 4.656375 -1.347107 -3.236694
  C 3.254148 -1.525192 -3.807990
  C 3.318219 -1.975095 -5.264849
  H 5.820336 -0.788706 -1.502457
  H 0.753388 0.851706 1.524877
  H 0.358836 -0.531063 0.501367
  H 0.580375 1.049115 -0.206171
  H 4.018648 1.162857 1.130746
  H 3.800859 -0.416834 1.926683
  H 1.918855 0.528216 3.213141
  H 2.157869 2.094709 2.401991
  H 4.255693 0.614096 4.048198
  H 3.332621 2.020704 4.557482
  H 4.491335 2.167888 3.244347
  H 1.575926 -0.959125 -1.695190
  H 4.360475 -0.352636 0.103259
  H 5.219190 -2.286583 -3.357125
  H 5.207157 -0.633190 -3.871421
  H 2.714621 -0.579156 -3.758010
  H 2.718736 -2.279830 -3.232629
  H 3.837450 -1.239818 -5.878291
  H 2.317772 -2.102876 -5.669579
  H 3.840423 -2.926664 -5.355758
 31
 200.281233
  C 0.965553 0.384739 0.582224
  C 2.462737 -0.039186 0.353311
  C 3.282972 0.456495 1.571011
  C 2.629864 1.198852 2.740536
  C 3.728645 1.554853 3.743132
  C 2.331434 -0.784994 -0.938988
  C 3.539287 -0.551637 -0.505734
  C 4.885409 -0.918607 -1.947328
  C 4.701858 -1.343182 -3.329673
  C 3.283180 -1.542207 -3.849778
  C 3.298082 -1.975839 -5.311713
  H 5.903669 -0.783499 -1.615631
  H 0.759577 0.879336 1.518015
  H 0.358283 -0.514460 0.513167
  H 0.624245 1.040575 -0.222188
  H 4.028890 1.155539 1.186511
  H 3.782521 -0.412782 2.016037
  H 1.895219 0.577611 3.251507
  H 2.162518 2.125837 2.411247
  H 4.219354 0.662283 4.124664
  H 3.299647 2.087201 4.588319
  H 4.481582 2.197154 3.292217
  H 1.592135 -1.035142 -1.655303
  H 4.359674 -0.363304 0.157645
  H 5.270990 -2.273434 -3.472916
  H 5.213199 -0.611010 -3.976877
  H 2.729252 -0.606468 -3.767232
  H 2.785339 -2.313664 -3.262267
  H 3.779687 -1.224813 -5.936095
  H 2.285255 -2.118866 -5.679180
  H 3.833805 -2.915779 -5.432682
 31
 182.066935
  C 1.064450 0.450957 0.575921
  C 2.500092 0.013222 0.666321
  C 3.269928 0.493700 1.890357
  C 2.536638 1.335528 2.932138
  C 3.528805 1.709722 4.034228
  C 2.496358 -1.010601 -0.730945
  C 3.596357 -0.632217 -0.241910
  C 5.090605 -1.005930 -2.344125
  C 4.802748 -1.381738 -3.710415
  C 3.333284 -1.625154 -4.049586
  C 3.160960 -2.009253 -5.515834
  H 6.172343 -0.847124 -2.200117
  H 0.764083 1.036147 1.431306
  H 0.408302 -0.418920 0.501641
  H 0.883502 1.032111 -0.333218
  H 4.119307 1.089771 1.542018
  H 3.684819 -0.375093 2.419077
  H 1.707810 0.791221 3.381805
  H 2.176662 2.263532 2.487750
  H 3.918922 0.826393 4.534011
  H 3.032469 2.321117 4.784113
  H 4.360687 2.283048 3.633530
  H 1.799154 -1.345770 -1.452904
  H 4.565330 -0.495622 0.171340
  H 5.395174 -2.281069 -3.943978
  H 5.226947 -0.632565 -4.396669
  H 2.774674 -0.706220 -3.865147
  H 2.936305 -2.418687 -3.417751
  H 3.538975 -1.225311 -6.169597
  H 2.112247 -2.171346 -5.751473
  H 3.701634 -2.926666 -5.744176
 31
 154.938410
  C 1.286155 0.430915 0.226933
  C 2.576368 -0.174926 0.695290
  C 3.283454 0.321187 1.937249
  C 2.577290 1.426271 2.723422
  C 3.414018 1.811355 3.940430
  C 2.605185 -1.604189 -0.188227
  C 3.672708 -0.915333 -0.104722
  C 5.150248 -0.884959 -2.343542
  C 4.754999 -1.166439 -3.687983
  C 3.288501 -1.533670 -3.907415
  C 2.993400 -1.805046 -5.378007
  H 6.213136 -0.627399 -2.269648
  H 0.965761 1.220663 0.898315
  H 0.482009 -0.300323 0.185859
  H 1.397070 0.854024 -0.772460
  H 4.273973 0.689405 1.663247
  H 3.448154 -0.520431 2.621445
  H 1.596509 1.090861 3.063638
  H 2.442306 2.311208 2.100255
  H 3.553305 0.960075 4.602796
  H 2.918733 2.598416 4.503355
  H 4.393161 2.176772 3.640011
  H 1.855017 -2.176320 -0.669554
  H 4.723062 -0.814001 0.026862
  H 5.412907 -1.955364 -4.090500
  H 5.040726 -0.316458 -4.330453
  H 2.657444 -0.717978 -3.553684
  H 3.052448 -2.421185 -3.320185
  H 3.205415 -0.928121 -5.986879
  H 1.947964 -2.067249 -5.517145
  H 3.598160 -2.630139 -5.750166
