 19
 0.000000
  C 1.101889 -2.243383 0.034201
  C -0.313871 -2.734180 0.000774
  C -0.679185 -3.564068 1.219073
  C -1.441622 -1.668062 -0.126908
  C -1.038722 -0.236680 -0.047078
  O -2.577093 -2.010221 -0.249037
  H 1.784890 -3.092932 0.052574
  H 1.312781 -1.662975 0.931540
  H 1.349034 -1.650710 -0.843650
  H -0.449136 -3.332970 -0.912379
  H -0.622780 -2.986134 2.140575
  H 0.020987 -4.392142 1.312390
  H -1.690615 -3.957465 1.132060
  H 0.029296 -0.058546 0.000793
  H -1.520302 0.182845 0.837222
  H -1.451982 0.262494 -0.924149
  O 2.916933 0.022477 -0.002600
  H 3.480199 -0.391013 -0.665207
  H 3.507925 0.299888 0.704604
 19
 -0.441810
  C 1.102405 -2.256765 0.041515
  C -0.311912 -2.748685 0.003761
  C -0.699045 -3.579403 1.210617
  C -1.444198 -1.665537 -0.123740
  C -1.006480 -0.247070 -0.021080
  O -2.577567 -2.004566 -0.255538
  H 1.788398 -3.106149 0.051458
  H 1.318150 -1.688553 0.945265
  H 1.341011 -1.656691 -0.835749
  H -0.462601 -3.325367 -0.920866
  H -0.636020 -3.012507 2.138677
  H -0.005280 -4.414026 1.300633
  H -1.714172 -3.958729 1.113038
  H 0.062990 -0.082149 0.038141
  H -1.493847 0.165584 0.865208
  H -1.416277 0.271068 -0.890955
  O 2.903900 0.057919 -0.027820
  H 3.466650 -0.320728 -0.711077
  H 3.493247 0.365371 0.668466
 19
 -0.618589
  C 1.104689 -2.280526 0.035081
  C -0.309737 -2.758260 0.000086
  C -0.715673 -3.593551 1.203623
  C -1.421834 -1.655535 -0.119488
  C -0.955962 -0.260584 0.014922
  O -2.559074 -1.975738 -0.266978
  H 1.781239 -3.127017 0.024301
  H 1.336357 -1.725144 0.954579
  H 1.328502 -1.677798 -0.833029
  H -0.473284 -3.322098 -0.931502
  H -0.640146 -3.037773 2.133903
  H -0.037944 -4.439945 1.288122
  H -1.732302 -3.953416 1.104187
  H 0.122515 -0.128485 0.090312
  H -1.442373 0.142398 0.903625
  H -1.344379 0.284726 -0.843022
  O 2.836026 0.104243 -0.050636
  H 3.403135 -0.242983 -0.748235
  H 3.417344 0.437589 0.632977
 19
 -1.278607
  C 1.133395 -2.372782 0.016513
  C -0.293948 -2.790640 0.006988
  C -0.720532 -3.563902 1.239191
  C -1.375522 -1.638219 -0.138124
  C -0.876204 -0.247600 -0.033676
  O -2.520803 -1.927531 -0.288793
  H 1.771726 -3.258318 -0.006788
  H 1.403510 -1.833763 0.926326
  H 1.376832 -1.777251 -0.855845
  H -0.502492 -3.362510 -0.909931
  H -0.598420 -2.982718 2.152396
  H -0.077142 -4.438603 1.339301
  H -1.757801 -3.883089 1.167231
  H 0.195034 -0.110388 0.080629
  H -1.393757 0.194606 0.821329
  H -1.228183 0.278994 -0.921112
  O 2.671222 0.120756 -0.002250
  H 3.273298 -0.145698 -0.699423
  H 3.210365 0.509708 0.696761
 19
 -1.852016
  C 1.149970 -2.446234 -0.028523
  C -0.293971 -2.816866 -0.001015
  C -0.722541 -3.530010 1.258982
  C -1.343474 -1.636676 -0.150553
  C -0.808525 -0.260256 -0.032538
  O -2.489658 -1.906769 -0.311641
  H 1.746554 -3.361104 -0.078172
  H 1.467691 -1.927901 0.877116
  H 1.406597 -1.855520 -0.907216
  H -0.548232 -3.398496 -0.899374
  H -0.550936 -2.926097 2.150505
  H -0.109816 -4.426401 1.371004
  H -1.773574 -3.814566 1.221070
  H 0.259688 -0.138871 0.105385
  H -1.340939 0.197757 0.805649
  H -1.126029 0.273523 -0.930371
  O 2.550754 0.143492 0.047042
  H 3.177515 0.008469 -0.669925
  H 3.034755 0.567976 0.762222
 19
 -2.311616
  C 1.160076 -2.508813 -0.088387
  C -0.294148 -2.840692 -0.012396
  C -0.712509 -3.490719 1.286807
  C -1.314201 -1.634965 -0.172970
  C -0.747816 -0.275801 -0.027634
  O -2.462018 -1.878553 -0.360465
  H 1.724169 -3.442999 -0.154161
  H 1.523190 -1.995922 0.799047
  H 1.407503 -1.932729 -0.979385
  H -0.587662 -3.446862 -0.882728
  H -0.496471 -2.859785 2.147521
  H -0.125290 -4.401155 1.416581
  H -1.769815 -3.746968 1.288235
  H 0.314090 -0.188103 0.161057
  H -1.308406 0.199399 0.780337
  H -1.003482 0.264771 -0.941859
  O 2.438208 0.156275 0.109967
  H 3.062309 0.150299 -0.622937
  H 2.879596 0.591236 0.845367
 19
 -2.661698
  C 1.161932 -2.566516 -0.165123
  C -0.298101 -2.861091 -0.026851
  C -0.687748 -3.437622 1.315237
  C -1.298440 -1.635188 -0.197898
  C -0.701821 -0.293529 -0.037735
  O -2.446893 -1.857121 -0.400560
  H 1.691956 -3.518895 -0.233803
  H 1.575992 -2.044244 0.695460
  H 1.395310 -2.019321 -1.075887
  H -0.634311 -3.496927 -0.855675
  H -0.420925 -2.774944 2.136573
  H -0.120890 -4.360259 1.464937
  H -1.748188 -3.665769 1.367253
  H 0.356801 -0.245356 0.181102
  H -1.275289 0.199279 0.747547
  H -0.912531 0.247446 -0.964235
  O 2.358613 0.151577 0.215598
  H 2.948962 0.275940 -0.534690
  H 2.760825 0.601104 0.963768
 19
 -2.060729
  C 1.178539 -2.608702 -0.201590
  C -0.293296 -2.857401 -0.034183
  C -0.666306 -3.393831 1.332837
  C -1.275155 -1.634455 -0.210590
  C -0.669638 -0.294108 -0.071394
  O -2.431670 -1.837256 -0.398614
  H 1.673828 -3.585138 -0.256436
  H 1.622821 -2.083744 0.639335
  H 1.426431 -2.094814 -1.124721
  H -0.651909 -3.521899 -0.832972
  H -0.372140 -2.714560 2.129582
  H -0.117762 -4.323788 1.493411
  H -1.731252 -3.597155 1.411854
  H 0.397634 -0.260519 0.142174
  H -1.235330 0.214619 0.717054
  H -0.877098 0.232111 -1.009190
  O 2.293771 0.111878 0.299643
  H 2.825621 0.342512 -0.472830
  H 2.639494 0.606845 1.043261
 19
 0.577469
  C 1.180680 -2.646728 -0.234141
  C -0.302233 -2.856119 -0.044411
  C -0.646114 -3.397542 1.350830
  C -1.216253 -1.646256 -0.200768
  C -0.595169 -0.283363 -0.101801
  O -2.392845 -1.741041 -0.356869
  H 1.656207 -3.632783 -0.290813
  H 1.650660 -2.137472 0.603071
  H 1.423918 -2.133856 -1.164581
  H -0.679068 -3.537116 -0.817498
  H -0.326140 -2.715332 2.132864
  H -0.120237 -4.332945 1.506821
  H -1.709578 -3.575477 1.450539
  H 0.477214 -0.292096 0.103611
  H -1.128931 0.267037 0.678899
  H -0.785062 0.229379 -1.050092
  O 2.199328 0.075993 0.351113
  H 2.629448 0.440269 -0.427537
  H 2.466764 0.617436 1.113010
 19
 10.520107
  C 1.174343 -2.751484 -0.261378
  C -0.323047 -2.899516 -0.048055
  C -0.623999 -3.441316 1.363301
  C -1.092814 -1.632282 -0.182966
  C -0.509775 -0.256992 -0.119083
  O -2.297136 -1.568587 -0.337478
  H 1.622092 -3.736944 -0.325702
  H 1.633635 -2.241095 0.580555
  H 1.402130 -2.228631 -1.184433
  H -0.746367 -3.606387 -0.769500
  H -0.233053 -2.770812 2.124872
  H -0.154079 -4.412439 1.481942
  H -1.694756 -3.555477 1.513652
  H 0.750289 -0.157663 0.133345
  H -0.969795 0.336445 0.667515
  H -0.574875 0.238112 -1.085567
  O 1.982415 0.126670 0.350944
  H 2.360674 0.569199 -0.427459
  H 2.109518 0.687885 1.138714
 19
 12.577089
  C 1.165345 -2.747729 -0.257135
  C -0.338741 -2.905522 -0.046745
  C -0.634333 -3.459591 1.359719
  C -1.125278 -1.636603 -0.180528
  C -0.532641 -0.276665 -0.111919
  O -2.336428 -1.608019 -0.332980
  H 1.618684 -3.734790 -0.317931
  H 1.612550 -2.237036 0.587017
  H 1.399738 -2.227753 -1.181003
  H -0.755984 -3.610485 -0.772035
  H -0.252175 -2.789623 2.126409
  H -0.155627 -4.429140 1.474589
  H -1.706894 -3.584579 1.506734
  H 0.938470 -0.094431 0.155017
  H -0.941857 0.320026 0.697291
  H -0.564081 0.233309 -1.070246
  O 1.982735 0.162736 0.328329
  H 2.359913 0.598227 -0.459525
  H 2.120984 0.724158 1.115753
