 26
 0.000000
  C 0.983501 0.148471 0.420673
  C 2.457621 0.137830 0.393569
  C 3.233656 0.605446 1.557129
  H 2.637918 0.941935 2.395119
  C 3.069802 -0.326955 -0.763928
  C 4.444871 -0.413034 -0.978406
  C 5.119416 -0.865996 -2.107392
  C 4.618606 -1.387912 -3.408265
  C 3.128029 -1.505662 -3.702531
  C 2.913733 -2.068478 -5.105288
  O 6.440149 -0.862925 -2.099936
  H 0.578352 0.523899 1.355266
  H 0.599500 -0.859564 0.258341
  H 0.599130 0.763883 -0.393877
  H 3.887068 1.424055 1.247291
  H 3.887468 -0.199685 1.899647
  H 2.411617 -0.644458 -1.554451
  H 5.071552 -0.083567 -0.157804
  H 5.076154 -2.375909 -3.534300
  H 5.076580 -0.761319 -4.182277
  H 2.652185 -0.525743 -3.651548
  H 2.651827 -2.178378 -2.988428
  H 3.356089 -1.420415 -5.858246
  H 1.850740 -2.152980 -5.316474
  H 3.355784 -3.057426 -5.201398
  H 6.828309 -0.530018 -1.268995
 26
 9.066302
  C 1.070980 0.064210 0.217692
  C 2.537938 0.105530 0.312324
  C 3.177445 0.602742 1.544669
  H 2.446601 0.899482 2.286904
  C 3.289163 -0.334048 -0.781831
  C 4.651419 -0.350185 -0.826438
  C 5.104621 -0.828646 -2.011673
  C 4.485364 -1.339487 -3.284116
  C 2.991752 -1.464230 -3.602623
  C 2.833139 -2.031233 -5.016787
  O 6.434718 -0.902764 -2.190841
  H 0.586394 0.425116 1.116897
  H 0.735916 -0.952533 0.016306
  H 0.732165 0.656313 -0.631529
  H 3.817205 1.454474 1.324739
  H 3.821132 -0.161291 1.974688
  H 2.717979 -0.669725 -1.613362
  H 5.292788 -0.033045 -0.043276
  H 4.938381 -2.331073 -3.423265
  H 4.941685 -0.721748 -4.070347
  H 2.500585 -0.491181 -3.580360
  H 2.496980 -2.150068 -2.914690
  H 3.294531 -1.378402 -5.753389
  H 1.779577 -2.129114 -5.266670
  H 3.290911 -3.013835 -5.097397
  H 6.961931 -0.598471 -1.427967
 26
 31.626803
  C 1.137600 -0.015426 0.021859
  C 2.599168 0.075067 0.236115
  C 3.127798 0.592485 1.517999
  H 2.334064 0.865657 2.203374
  C 3.460150 -0.337239 -0.790924
  C 4.815766 -0.302277 -0.711923
  C 5.077706 -0.799400 -1.939438
  C 4.388456 -1.299421 -3.183884
  C 2.906094 -1.422461 -3.501064
  C 2.768047 -1.989140 -4.912652
  O 6.403895 -0.935741 -2.269379
  H 0.570763 0.328252 0.879171
  H 0.851684 -1.046016 -0.204910
  H 0.846646 0.568467 -0.855408
  H 3.761575 1.470046 1.344002
  H 3.767079 -0.157367 1.998827
  H 2.949119 -0.684212 -1.649151
  H 5.480601 0.009384 0.055737
  H 4.829472 -2.292485 -3.330435
  H 4.833983 -0.687821 -3.976966
  H 2.402783 -0.446169 -3.488556
  H 2.397328 -2.116215 -2.817780
  H 3.236315 -1.333522 -5.645800
  H 1.716758 -2.090261 -5.172666
  H 3.231101 -2.972345 -4.987378
  H 7.014895 -0.660184 -1.574744
 26
 63.234763
  C 1.194262 -0.060316 -0.083770
  C 2.644056 0.055229 0.189847
  C 3.106339 0.582058 1.491044
  H 2.279120 0.843440 2.146049
  C 3.566536 -0.346496 -0.812262
  C 4.916182 -0.263769 -0.625498
  C 5.032150 -0.774858 -1.877220
  C 4.342723 -1.279682 -3.131382
  C 2.851653 -1.403094 -3.458022
  C 2.720640 -1.971724 -4.872059
  O 6.347640 -0.946449 -2.290386
  H 0.585434 0.274873 0.750920
  H 0.934069 -1.095864 -0.318992
  H 0.928430 0.519478 -0.971722
  H 3.731055 1.467630 1.342397
  H 3.737163 -0.154414 1.997177
  H 3.041958 -0.691251 -1.661682
  H 5.594271 0.050241 0.142086
  H 4.783574 -2.269815 -3.269928
  H 4.792105 -0.668824 -3.918125
  H 2.349152 -0.432957 -3.451351
  H 2.339520 -2.093291 -2.783460
  H 3.192483 -1.317605 -5.602565
  H 1.671026 -2.072578 -5.137435
  H 3.183068 -2.954150 -4.943484
  H 7.005161 -0.684719 -1.632855
 26
 99.386399
  C 1.226121 -0.088841 -0.150349
  C 2.667807 0.040153 0.154690
  C 3.095316 0.572574 1.467932
  H 2.248427 0.826582 2.105399
  C 3.629563 -0.356639 -0.837112
  C 4.986973 -0.232490 -0.555055
  C 4.979856 -0.753066 -1.824146
  C 4.320952 -1.269271 -3.103933
  C 2.820244 -1.390036 -3.430570
  C 2.686198 -1.964193 -4.853823
  O 6.317085 -0.951878 -2.301583
  H 0.596727 0.241914 0.673487
  H 0.978735 -1.126258 -0.389243
  H 0.972247 0.489205 -1.042472
  H 3.713617 1.461797 1.334133
  H 3.721039 -0.155076 1.987411
  H 3.076823 -0.692641 -1.666119
  H 5.671607 0.082205 0.211586
  H 4.768936 -2.257057 -3.233112
  H 4.780409 -0.657766 -3.883963
  H 2.318843 -0.419247 -3.424415
  H 2.305046 -2.077608 -2.755665
  H 3.159430 -1.312581 -5.585829
  H 1.633366 -2.063014 -5.119270
  H 3.146215 -2.947933 -4.924756
  H 7.003561 -0.702527 -1.673930
 26
 131.788359
  C 1.242464 -0.105919 -0.174925
  C 2.680940 0.030674 0.133109
  C 3.099730 0.552644 1.446954
  H 2.250061 0.790666 2.081276
  C 3.654674 -0.350016 -0.874434
  C 5.020582 -0.188472 -0.522787
  C 4.914075 -0.729106 -1.790969
  C 4.306855 -1.268460 -3.098754
  C 2.812071 -1.375056 -3.428678
  C 2.678800 -1.962981 -4.836074
  O 6.307526 -0.964823 -2.300270
  H 0.612724 0.211487 0.651608
  H 1.000195 -1.141983 -0.422449
  H 0.980891 0.480897 -1.058398
  H 3.707799 1.449149 1.325212
  H 3.730983 -0.172186 1.961107
  H 3.029290 -0.665086 -1.672497
  H 5.689646 0.123434 0.234351
  H 4.745304 -2.264658 -3.204227
  H 4.778377 -0.667691 -3.881734
  H 2.323284 -0.404558 -3.442537
  H 2.287028 -2.046513 -2.754564
  H 3.161759 -1.329139 -5.569372
  H 1.632943 -2.052565 -5.103790
  H 3.126424 -2.947543 -4.889773
  H 7.003376 -0.724251 -1.674812
 26
 153.126830
  C 1.243328 -0.095239 -0.181176
  C 2.689038 0.024624 0.113532
  C 3.124512 0.478694 1.449869
  H 2.281464 0.670291 2.105501
  C 3.642769 -0.281175 -0.933401
  C 5.025800 -0.083889 -0.537255
  C 4.847928 -0.673573 -1.780967
  C 4.290856 -1.264174 -3.094796
  C 2.807618 -1.345228 -3.447942
  C 2.687982 -2.002993 -4.829467
  O 6.295753 -0.988767 -2.275858
  H 0.630781 0.170664 0.673721
  H 0.997745 -1.114807 -0.487585
  H 0.960620 0.548626 -1.016351
  H 3.718077 1.391779 1.376231
  H 3.771142 -0.268655 1.911239
  H 2.978656 -0.549219 -1.732839
  H 5.695398 0.222485 0.227173
  H 4.711675 -2.271713 -3.128078
  H 4.800795 -0.714867 -3.891155
  H 2.343419 -0.359156 -3.525558
  H 2.246972 -1.973466 -2.750744
  H 3.204287 -1.419073 -5.585454
  H 1.642047 -2.079015 -5.115383
  H 3.110642 -3.003237 -4.823217
  H 6.980537 -0.766440 -1.635454
 26
 168.521532
  C 1.237510 -0.045003 -0.212754
  C 2.700212 0.013844 0.074892
  C 3.157551 0.396141 1.437809
  H 2.317817 0.548733 2.113006
  C 3.606565 -0.236570 -0.977041
  C 5.026637 -0.028830 -0.550713
  C 4.770866 -0.609321 -1.766114
  C 4.275682 -1.256337 -3.081446
  C 2.795709 -1.350258 -3.445797
  C 2.686711 -2.053438 -4.809667
  O 6.342027 -0.971275 -2.246486
  H 0.649349 0.198880 0.669349
  H 0.955692 -1.041893 -0.565659
  H 0.954338 0.653597 -1.006325
  H 3.745154 1.316796 1.416533
  H 3.813061 -0.378907 1.846132
  H 2.911221 -0.463036 -1.797288
  H 5.693889 0.252561 0.218562
  H 4.713921 -2.261118 -3.056872
  H 4.807127 -0.731878 -3.883670
  H 2.330162 -0.364762 -3.560055
  H 2.232816 -1.959172 -2.731239
  H 3.210467 -1.491929 -5.580941
  H 1.640711 -2.138414 -5.103630
  H 3.109218 -3.055744 -4.766122
  H 7.008189 -0.745410 -1.588194
 26
 155.614302
  C 1.142304 -0.046262 0.084066
  C 2.616712 0.014981 0.123923
  C 3.277680 0.313679 1.408757
  H 2.571767 0.344840 2.223571
  C 3.322476 -0.150269 -1.075001
  C 4.931702 0.257940 -0.865003
  C 4.413913 -0.562142 -1.747759
  C 4.213823 -1.274122 -3.041159
  C 2.816223 -1.307424 -3.634972
  C 2.847498 -2.098129 -4.943680
  O 6.496406 -1.253475 -2.001059
  H 0.710721 0.108260 1.060162
  H 0.817560 -1.017948 -0.295145
  H 0.728012 0.696940 -0.584408
  H 3.798212 1.275117 1.374357
  H 4.029818 -0.437238 1.617658
  H 2.548375 -0.263954 -1.859025
  H 5.604711 0.730685 -0.213869
  H 4.567488 -2.295461 -2.882375
  H 4.923396 -0.856130 -3.751088
  H 2.473891 -0.302972 -3.884533
  H 2.115524 -1.825688 -2.976249
  H 3.527106 -1.632063 -5.666923
  H 1.858960 -2.131010 -5.381323
  H 3.179822 -3.124435 -4.771021
  H 7.127507 -1.052037 -1.301296
 26
 112.338326
  C 1.106369 0.155634 0.407209
  C 2.561921 0.095997 0.212377
  C 3.451327 -0.012367 1.372672
  H 2.895089 -0.174509 2.290254
  C 3.058370 0.196048 -1.082443
  C 4.538763 0.577759 -1.203116
  C 4.304894 -0.383271 -2.029387
  C 4.288256 -1.243385 -3.175123
  C 2.916510 -1.422825 -3.844547
  C 3.032118 -2.341985 -5.050522
  O 6.299950 -1.276800 -1.599926
  H 0.833415 0.080599 1.454256
  H 0.618736 -0.643100 -0.156624
  H 0.700585 1.082993 0.016436
  H 4.030074 0.905382 1.498812
  H 4.172559 -0.812250 1.232439
  H 2.327097 0.352574 -1.870092
  H 5.178652 1.100083 -0.533436
  H 4.674714 -2.218941 -2.866663
  H 5.016039 -0.829968 -3.880596
  H 2.539602 -0.455373 -4.176335
  H 2.211864 -1.857331 -3.134283
  H 3.717031 -1.932289 -5.787346
  H 2.062851 -2.466432 -5.523351
  H 3.394449 -3.323805 -4.758081
  H 6.831233 -1.116889 -0.821631
