 20
 0.000000
  C 1.007879 -0.070713 0.049011
  C 2.504037 -0.082446 0.026583
  C 3.218796 -0.595005 -0.980478
  C 4.656403 -0.606906 -1.003223
  C 5.375702 -1.122273 -2.015809
  C 6.814174 -1.132155 -2.034211
  C 7.535096 -1.643520 -3.036762
  C 9.025229 -1.660823 -3.072307
  H 0.646145 0.395209 0.964559
  H 0.611892 -1.085328 0.009690
  H 0.612233 0.494931 -0.794378
  H 3.005281 0.352293 0.881220
  H 2.706771 -1.027769 -1.831228
  H 5.162122 -0.172761 -0.149782
  H 4.871361 -1.556937 -2.869650
  H 7.319327 -0.697080 -1.180577
  H 7.038593 -2.080848 -3.894011
  H 9.456942 -1.206189 -2.182452
  H 9.384588 -1.114916 -3.945983
  H 9.386828 -2.687745 -3.143660
 20
 0.183713
  C 1.003673 -0.081268 0.058598
  C 2.495097 -0.137205 0.051478
  C 3.222994 -0.543840 -0.992295
  C 4.656988 -0.617175 -0.992485
  C 5.387127 -1.029613 -2.043499
  C 6.820739 -1.113235 -2.044340
  C 7.542010 -1.546184 -3.081764
  C 9.028326 -1.670888 -3.076317
  H 0.641363 0.581203 0.839688
  H 0.590208 -1.074335 0.241511
  H 0.622919 0.262066 -0.901734
  H 2.994197 0.159128 0.964264
  H 2.725192 -0.839030 -1.906973
  H 5.157209 -0.317435 -0.080864
  H 4.885551 -1.329510 -2.954949
  H 7.323341 -0.803552 -1.135857
  H 7.038837 -1.855149 -3.987596
  H 9.482683 -0.914667 -2.435834
  H 9.431624 -1.574930 -4.083195
  H 9.317683 -2.651322 -2.691871
 20
 1.209500
  C 0.993678 -0.167819 0.058232
  C 2.486615 -0.180018 0.055693
  C 3.231488 -0.520981 -0.999738
  C 4.666636 -0.560485 -0.991086
  C 5.413635 -0.916260 -2.050589
  C 6.838776 -1.070868 -2.032071
  C 7.549445 -1.438856 -3.101341
  C 9.007929 -1.759724 -3.060598
  H 0.610620 0.525053 0.803793
  H 0.609324 -1.161615 0.296224
  H 0.604858 0.111759 -0.919339
  H 2.972323 0.091257 0.984102
  H 2.747113 -0.790754 -1.930259
  H 5.154271 -0.277446 -0.066112
  H 4.926575 -1.187178 -2.980066
  H 7.336875 -0.919086 -1.082301
  H 7.056370 -1.527662 -4.060109
  H 9.611998 -0.873847 -2.867083
  H 9.333761 -2.199582 -3.999796
  H 9.186614 -2.477144 -2.261738
 20
 10.866449
  C 1.021713 -0.379800 0.075215
  C 2.501501 -0.205608 0.036941
  C 3.271698 -0.497678 -1.015239
  C 4.695060 -0.330299 -1.039726
  C 5.470373 -0.672381 -2.087940
  C 6.890162 -0.788437 -2.073919
  C 7.616328 -1.196657 -3.132117
  C 8.855889 -2.017247 -2.993309
  H 0.542501 0.514797 0.466714
  H 0.755024 -1.207795 0.734606
  H 0.626905 -0.591180 -0.916286
  H 2.955736 0.182610 0.940232
  H 2.815467 -0.886578 -1.917925
  H 5.149736 0.107393 -0.160695
  H 4.988954 -1.052257 -2.982950
  H 7.385809 -0.649913 -1.117587
  H 7.320376 -0.918094 -4.134247
  H 9.771446 -1.433008 -2.893498
  H 8.962714 -2.654660 -3.868516
  H 8.723129 -2.657558 -2.125163
 20
 44.065692
  C 1.105847 -0.540301 0.116914
  C 2.530025 -0.126247 -0.017730
  C 3.335360 -0.495105 -1.027349
  C 4.714116 -0.160060 -1.117157
  C 5.528795 -0.589667 -2.128547
  C 6.915565 -0.534155 -2.143600
  C 7.719259 -1.050596 -3.158834
  C 8.574314 -2.245745 -2.922232
  H 0.468786 0.323862 0.304318
  H 0.990057 -1.218210 0.963814
  H 0.759730 -1.046869 -0.778640
  H 2.940333 0.431017 0.812774
  H 2.922913 -1.076018 -1.843206
  H 5.150483 0.370929 -0.282074
  H 5.065569 -1.124808 -2.950271
  H 7.406372 -0.093829 -1.277927
  H 7.831103 -0.537101 -4.102231
  H 9.575706 -2.024146 -2.537300
  H 8.704802 -2.779298 -3.862120
  H 8.046048 -2.894528 -2.227619
 20
 34.757445
  C 1.089675 -0.443915 0.077077
  C 2.547336 -0.133845 -0.010073
  C 3.392791 -0.695224 -0.885154
  C 4.774008 -0.359242 -0.996688
  C 5.596250 -0.862107 -1.959934
  C 6.925559 -0.426233 -2.152146
  C 7.832289 -0.924321 -3.073256
  C 8.400826 -2.301628 -3.069467
  H 0.505131 0.474924 0.063335
  H 0.861260 -0.959616 1.010510
  H 0.775018 -1.074682 -0.751460
  H 2.919358 0.602773 0.697110
  H 3.017082 -1.439647 -1.579192
  H 5.150367 0.411783 -0.329992
  H 5.210218 -1.595123 -2.657149
  H 7.259948 0.381665 -1.504860
  H 8.231017 -0.259439 -3.828100
  H 9.399088 -2.241635 -2.638546
  H 8.505715 -2.709504 -4.073309
  H 7.832156 -2.994001 -2.450456
 20
 5.789233
  C 1.177085 -0.521565 0.179350
  C 2.583098 -0.088751 -0.057648
  C 3.416649 -0.663262 -0.928804
  C 4.780921 -0.264092 -1.118640
  C 5.619793 -0.846113 -1.996967
  C 6.945932 -0.340488 -2.234761
  C 7.938947 -0.926241 -2.920023
  C 8.165399 -2.388785 -3.089155
  H 0.504821 0.333827 0.162389
  H 1.088844 -0.987446 1.161700
  H 0.856735 -1.240335 -0.571699
  H 2.934358 0.729399 0.556913
  H 3.066337 -1.487337 -1.538675
  H 5.136006 0.555836 -0.508572
  H 5.286351 -1.686676 -2.590923
  H 7.119406 0.665252 -1.863118
  H 8.734756 -0.302109 -3.309343
  H 9.016087 -2.661785 -2.459713
  H 8.426518 -2.645702 -4.116048
  H 7.325916 -2.987591 -2.751874
 20
 4.769759
  C 1.351338 -0.646336 0.298160
  C 2.759724 -0.239646 0.032023
  C 3.463679 -0.612950 -1.036221
  C 4.826900 -0.217146 -1.280251
  C 5.538766 -0.609604 -2.342081
  C 6.909638 -0.170168 -2.594706
  C 7.950473 -0.966813 -2.808979
  C 7.908091 -2.457548 -2.773376
  H 0.789699 0.173026 0.741670
  H 1.329787 -1.477743 1.000931
  H 0.856449 -0.963216 -0.616441
  H 3.221150 0.389570 0.783614
  H 3.000751 -1.238300 -1.791540
  H 5.287572 0.414398 -0.532641
  H 5.076930 -1.245418 -3.088198
  H 7.061120 0.903158 -2.587651
  H 8.924724 -0.533848 -2.992732
  H 8.347269 -2.811186 -1.838532
  H 8.484077 -2.884542 -3.593681
  H 6.883417 -2.817997 -2.816667
 20
 8.189829
  C 1.489075 -0.708919 0.323074
  C 2.935898 -0.463597 0.051047
  C 3.511460 -0.604140 -1.142547
  C 4.916232 -0.371384 -1.393330
  C 5.488723 -0.505623 -2.589857
  C 6.878170 -0.121585 -2.884919
  C 7.896429 -0.963717 -2.782635
  C 7.690641 -2.390018 -2.374561
  H 1.118379 -0.030635 1.087157
  H 1.343243 -1.729050 0.685314
  H 0.895645 -0.585408 -0.579403
  H 3.540395 -0.185776 0.904335
  H 2.908869 -0.884701 -1.998585
  H 5.524124 -0.119372 -0.535284
  H 4.864172 -0.703435 -3.457339
  H 7.030955 0.916808 -3.156890
  H 8.900100 -0.660851 -3.048934
  H 7.828915 -2.505961 -1.296982
  H 8.354686 -3.075383 -2.894312
  H 6.638041 -2.619066 -2.549885
 20
 30.929506
  C 1.445842 -0.643726 0.265858
  C 2.918862 -0.483212 0.071033
  C 3.542959 -0.667484 -1.091504
  C 4.960844 -0.538705 -1.282068
  C 5.600637 -0.802300 -2.443179
  C 6.875000 -0.149104 -2.802422
  C 7.941235 -0.944694 -2.852972
  C 7.718843 -2.349837 -2.395925
  H 1.100157 -0.082376 1.129322
  H 1.196849 -1.688512 0.416129
  H 0.900194 -0.296107 -0.612817
  H 3.498482 -0.190251 0.938846
  H 2.968266 -0.949443 -1.964467
  H 5.553613 -0.239058 -0.428345
  H 4.945389 -0.922158 -3.299967
  H 6.872391 0.889556 -3.059469
  H 8.877904 -0.666731 -3.316808
  H 7.728241 -2.499206 -1.314103
  H 8.266099 -3.107783 -2.929769
  H 6.557653 -2.296622 -2.425201
 20
 59.430098
  C 1.452300 -0.514552 0.277118
  C 2.927353 -0.453622 0.080390
  C 3.546135 -0.771543 -1.080601
  C 4.938107 -0.775524 -1.266739
  C 5.585300 -1.090747 -2.497880
  C 6.789984 -0.241514 -2.755693
  C 7.942450 -0.934646 -2.798093
  C 7.909640 -2.304224 -2.417682
  H 1.133623 0.170881 1.059192
  H 1.151371 -1.521731 0.575688
  H 0.925090 -0.274057 -0.644175
  H 3.523408 -0.160008 0.933432
  H 2.935666 -1.055316 -1.930812
  H 5.561898 -0.499818 -0.426938
  H 4.891078 -1.120534 -3.340557
  H 6.693449 0.821862 -2.888924
  H 8.849203 -0.505761 -3.203697
  H 7.631122 -2.576185 -1.412687
  H 8.593585 -2.993919 -2.890099
  H 6.151498 -2.127784 -2.512705
 20
 52.102097
  C 1.535380 -0.269712 0.288669
  C 2.994280 -0.441984 0.050697
  C 3.522393 -0.843731 -1.130358
  C 4.880870 -1.115634 -1.340998
  C 5.448067 -1.496843 -2.627363
  C 6.491104 -0.445741 -2.695076
  C 7.811805 -0.849779 -2.620166
  C 8.185545 -2.132446 -2.312073
  H 1.353940 0.457354 1.077014
  H 1.085458 -1.215256 0.601736
  H 1.027052 0.052268 -0.619167
  H 3.651447 -0.267314 0.891601
  H 2.853134 -0.996585 -1.970386
  H 5.565098 -0.968302 -0.516947
  H 4.739570 -1.462393 -3.455124
  H 6.201823 0.588731 -2.773578
  H 8.576831 -0.138121 -2.914893
  H 7.712729 -2.695686 -1.527521
  H 9.148631 -2.501411 -2.625980
  H 5.977962 -2.464254 -2.667601
 20
 25.856313
  C 1.823321 -0.030152 0.262612
  C 3.219132 -0.465348 -0.041586
  C 3.619323 -0.910754 -1.232348
  C 4.941911 -1.421386 -1.509247
  C 5.329565 -1.961391 -2.813663
  C 6.031543 -0.686276 -2.601809
  C 7.455791 -0.713170 -2.355624
  C 8.135915 -1.810238 -2.014925
  H 1.811739 0.698662 1.069899
  H 1.222079 -0.884906 0.578052
  H 1.348992 0.404186 -0.615413
  H 3.921465 -0.441520 0.781132
  H 2.916410 -0.924350 -2.056910
  H 5.629129 -1.476424 -0.676811
  H 4.632658 -1.943235 -3.645183
  H 5.545710 0.251416 -2.819000
  H 7.992893 0.203823 -2.564273
  H 7.690687 -2.625684 -1.472374
  H 9.210254 -1.835172 -2.095219
  H 5.907600 -2.876985 -2.823749
 20
 6.221863
  C 1.934014 0.054095 0.258755
  C 3.274787 -0.534718 -0.039116
  C 3.695108 -0.855901 -1.255737
  C 4.998557 -1.458400 -1.547418
  C 5.263678 -2.141704 -2.846567
  C 5.902605 -0.806267 -2.612010
  C 7.346757 -0.675079 -2.376747
  C 8.133391 -1.592682 -1.834211
  H 1.976284 0.683175 1.144682
  H 1.208578 -0.738915 0.446910
  H 1.572955 0.646353 -0.579302
  H 3.913553 -0.723812 0.813912
  H 3.060676 -0.665006 -2.112631
  H 5.561338 -1.788360 -0.682922
  H 4.480037 -2.173937 -3.589765
  H 5.446219 0.041527 -3.107115
  H 7.779436 0.256522 -2.719248
  H 7.756247 -2.508573 -1.410207
  H 9.196091 -1.443330 -1.755570
  H 5.885805 -3.023896 -2.842133
 20
 6.374496
  C 1.952101 0.072234 0.250593
  C 3.282385 -0.556001 -0.029477
  C 3.720112 -0.848725 -1.246429
  C 5.026330 -1.450103 -1.532857
  C 5.240496 -2.210559 -2.804508
  C 5.879584 -0.856780 -2.647671
  C 7.337715 -0.720786 -2.504326
  C 8.124303 -1.462112 -1.739976
  H 1.814477 0.233488 1.315917
  H 1.143321 -0.564025 -0.108571
  H 1.865324 1.032047 -0.257497
  H 3.904564 -0.777506 0.827514
  H 3.101205 -0.629497 -2.108546
  H 5.560362 -1.793023 -0.654155
  H 4.411625 -2.301975 -3.490663
  H 5.416458 -0.047305 -3.199875
  H 7.776008 0.065170 -3.105791
  H 7.751508 -2.255988 -1.113843
  H 9.188821 -1.304444 -1.712416
  H 5.889417 -3.073018 -2.783861
