 16
 0.000000
  C 0.975791 0.133713 0.388796
  C 2.427308 0.095420 0.281567
  H 3.024958 0.428682 1.119230
  C 3.059929 -0.361975 -0.853297
  C 4.456358 -0.406900 -0.970118
  C 5.151112 -0.852694 -2.072288
  C 4.594233 -1.356458 -3.318124
  H 3.513352 -1.369441 -3.352772
  H 6.230835 -0.828881 -2.013143
  H 0.629083 0.493859 1.350853
  H 0.569602 -0.860895 0.185886
  H 0.554651 0.751894 -0.410569
  H 2.433479 -0.697484 -1.668956
  H 5.028685 -0.061003 -0.119886
  H 4.987705 -2.359634 -3.507944
  H 4.988941 -0.768011 -4.152022
 16
 1.522346
  C 1.003782 0.117047 0.333394
  C 2.455151 0.128716 0.327900
  H 3.014493 0.457227 1.196354
  C 3.091619 -0.336341 -0.798325
  C 4.478424 -0.382384 -0.954129
  C 5.141187 -0.847428 -2.070350
  C 4.544652 -1.369232 -3.293776
  H 3.460676 -1.377952 -3.296354
  H 6.224203 -0.826756 -2.044736
  H 0.554829 0.342590 1.298756
  H 0.698749 -0.858454 -0.053288
  H 0.617514 0.820188 -0.417407
  H 2.409729 -0.688383 -1.569253
  H 5.073241 -0.020964 -0.126552
  H 4.928966 -2.377307 -3.478952
  H 4.916369 -0.794004 -4.147673
 16
 5.370183
  C 1.021738 0.101983 0.284863
  C 2.473706 0.154035 0.367420
  H 3.000981 0.466335 1.262976
  C 3.109847 -0.309790 -0.755749
  C 4.502197 -0.361674 -0.950427
  C 5.133225 -0.844805 -2.077416
  C 4.502521 -1.381781 -3.265040
  H 3.420504 -1.387615 -3.230635
  H 6.217619 -0.824267 -2.085204
  H 0.484273 0.196996 1.226294
  H 0.836225 -0.835317 -0.275207
  H 0.661698 0.885509 -0.401483
  H 2.384459 -0.673909 -1.465105
  H 5.119898 0.010640 -0.142348
  H 4.878507 -2.392061 -3.445369
  H 4.846254 -0.820505 -4.137322
 16
 11.023870
  C 1.042812 0.082958 0.243152
  C 2.486501 0.181560 0.393894
  H 2.979008 0.496789 1.302530
  C 3.136782 -0.290560 -0.726152
  C 4.516163 -0.347281 -0.941213
  C 5.124187 -0.843835 -2.074265
  C 4.465540 -1.394273 -3.244394
  H 3.385113 -1.396446 -3.185198
  H 6.207422 -0.824838 -2.104240
  H 0.457768 0.048708 1.151773
  H 0.965572 -0.782352 -0.451242
  H 0.678277 0.932662 -0.356442
  H 2.348477 -0.669558 -1.404438
  H 5.147796 0.030488 -0.147102
  H 4.834500 -2.407151 -3.421362
  H 4.791884 -0.843905 -4.129843
 16
 18.653987
  C 1.055470 0.067893 0.210941
  C 2.489951 0.204221 0.407593
  H 2.953025 0.547600 1.308883
  C 3.153152 -0.279558 -0.702530
  C 4.531267 -0.344321 -0.932852
  C 5.120889 -0.847847 -2.071105
  C 4.438694 -1.403543 -3.231934
  H 3.354574 -1.400617 -3.153773
  H 6.202482 -0.831288 -2.117830
  H 0.443928 -0.080421 1.090499
  H 1.081672 -0.728257 -0.584407
  H 0.666851 0.959711 -0.305613
  H 2.315630 -0.659028 -1.344640
  H 5.174913 0.029115 -0.145696
  H 4.799135 -2.418848 -3.409852
  H 4.753457 -0.858845 -4.125794
 16
 28.427896
  C 1.062098 0.057374 0.186239
  C 2.488822 0.226452 0.411552
  H 2.935978 0.605169 1.317524
  C 3.163616 -0.269728 -0.687561
  C 4.541248 -0.348926 -0.925775
  C 5.115540 -0.854577 -2.069370
  C 4.416459 -1.406270 -3.223637
  H 3.338597 -1.395989 -3.132160
  H 6.196110 -0.842961 -2.128708
  H 0.442642 -0.169803 1.043009
  H 1.181324 -0.691250 -0.676234
  H 0.643464 0.952177 -0.276706
  H 2.279135 -0.646409 -1.298655
  H 5.197165 0.012663 -0.137489
  H 4.768483 -2.431073 -3.406782
  H 4.725906 -0.860732 -4.123590
 16
 39.102826
  C 1.066951 0.050364 0.177682
  C 2.487591 0.248074 0.407096
  H 2.920133 0.658732 1.299075
  C 3.172831 -0.259342 -0.679142
  C 4.547976 -0.359180 -0.918238
  C 5.114008 -0.862553 -2.067686
  C 4.405061 -1.406299 -3.219342
  H 3.325354 -1.390102 -3.119460
  H 6.195143 -0.854786 -2.134810
  H 0.455615 -0.231679 1.028271
  H 1.256237 -0.668761 -0.741305
  H 0.611231 0.934862 -0.264689
  H 2.237091 -0.637319 -1.271189
  H 5.205474 -0.023368 -0.129478
  H 4.743991 -2.424516 -3.405694
  H 4.710655 -0.861062 -4.113718
 16
 49.510183
  C 1.068913 0.044901 0.180841
  C 2.486625 0.275024 0.395830
  H 2.910259 0.731794 1.270885
  C 3.181249 -0.243768 -0.671383
  C 4.553414 -0.377214 -0.909209
  C 5.111042 -0.870102 -2.062767
  C 4.394535 -1.399421 -3.218863
  H 3.317043 -1.375126 -3.112853
  H 6.190385 -0.866532 -2.135603
  H 0.479167 -0.271788 1.033398
  H 1.309984 -0.668986 -0.787644
  H 0.570694 0.900953 -0.275278
  H 2.197410 -0.639707 -1.258119
  H 5.214458 -0.082555 -0.105576
  H 4.722146 -2.426261 -3.414120
  H 4.701511 -0.844863 -4.110742
 16
 58.824247
  C 1.072143 0.044301 0.180977
  C 2.482974 0.296109 0.382996
  H 2.890319 0.797122 1.244318
  C 3.195390 -0.230055 -0.651711
  C 4.563086 -0.394473 -0.900482
  C 5.107458 -0.877792 -2.055218
  C 4.378359 -1.388343 -3.221763
  H 3.299950 -1.349919 -3.111811
  H 6.189842 -0.885461 -2.133496
  H 0.496628 -0.283041 1.040732
  H 1.353656 -0.697016 -0.821431
  H 0.549954 0.853371 -0.310578
  H 2.173368 -0.661024 -1.252752
  H 5.233376 -0.131675 -0.081076
  H 4.683559 -2.407976 -3.422331
  H 4.687227 -0.832093 -4.102796
 16
 65.708983
  C 1.065849 0.049236 0.202545
  C 2.480257 0.329810 0.365065
  H 2.876630 0.897233 1.188919
  C 3.210835 -0.222025 -0.633080
  C 4.570079 -0.420971 -0.888895
  C 5.106711 -0.892172 -2.050246
  C 4.373695 -1.365709 -3.228659
  H 3.296149 -1.301680 -3.122623
  H 6.185159 -0.919286 -2.127235
  H 0.515813 -0.269814 1.080276
  H 1.368056 -0.761802 -0.843141
  H 0.511822 0.805773 -0.340080
  H 2.145569 -0.720614 -1.259065
  H 5.237899 -0.206295 -0.060905
  H 4.653778 -2.396253 -3.442099
  H 4.700413 -0.797874 -4.102693
 16
 72.506483
  C 1.059304 0.064409 0.221604
  C 2.475099 0.357408 0.338789
  H 2.858450 0.995725 1.118339
  C 3.231671 -0.221116 -0.609913
  C 4.580295 -0.448998 -0.876761
  C 5.107234 -0.908216 -2.043437
  C 4.365422 -1.333354 -3.238646
  H 3.289864 -1.231683 -3.137806
  H 6.185635 -0.963877 -2.117807
  H 0.530144 -0.223368 1.122032
  H 1.373394 -0.860020 -0.856316
  H 0.483452 0.752475 -0.382440
  H 2.116677 -0.823811 -1.260189
  H 5.251066 -0.274618 -0.039568
  H 4.609040 -2.372045 -3.469430
  H 4.712689 -0.761940 -4.093362
 16
 78.465781
  C 1.054099 0.088286 0.243474
  C 2.464739 0.383463 0.301610
  H 2.837181 1.082231 1.036894
  C 3.257480 -0.216042 -0.587466
  C 4.590420 -0.473995 -0.864141
  C 5.108509 -0.926603 -2.038857
  C 4.356825 -1.300583 -3.242639
  H 3.284587 -1.155274 -3.141999
  H 6.178595 -1.019957 -2.109825
  H 0.548044 -0.159110 1.168866
  H 1.369908 -0.980568 -0.877667
  H 0.454940 0.695593 -0.419217
  H 2.087715 -0.946258 -1.277581
  H 5.262867 -0.345278 -0.017588
  H 4.556982 -2.339968 -3.484999
  H 4.731153 -0.722993 -4.097569
 16
 82.680937
  C 1.045276 0.126090 0.258661
  C 2.452395 0.398421 0.261341
  H 2.817948 1.154933 0.949953
  C 3.285893 -0.214043 -0.565262
  C 4.602205 -0.502101 -0.851981
  C 5.110578 -0.943656 -2.034260
  C 4.344038 -1.257609 -3.251463
  H 3.279176 -1.064481 -3.149114
  H 6.180244 -1.079790 -2.102310
  H 0.555061 -0.047993 1.206839
  H 1.358075 -1.137593 -0.883534
  H 0.432503 0.632728 -0.470581
  H 2.059808 -1.112679 -1.286857
  H 5.274570 -0.420346 -0.000807
  H 4.498997 -2.307109 -3.516247
  H 4.737739 -0.686522 -4.084612
 16
 85.422824
  C 1.037723 0.158039 0.265553
  C 2.440136 0.404065 0.226176
  H 2.800210 1.202996 0.877186
  C 3.309629 -0.211481 -0.548783
  C 4.611090 -0.525880 -0.843594
  C 5.109592 -0.962983 -2.031531
  C 4.328269 -1.236613 -3.252000
  H 3.270974 -1.010075 -3.142282
  H 6.179358 -1.130501 -2.101418
  H 0.564382 0.050548 1.229031
  H 1.332891 -1.290984 -0.915585
  H 0.414545 0.596962 -0.497681
  H 2.024373 -1.269106 -1.325400
  H 5.281991 -0.478815 0.006234
  H 4.448232 -2.286472 -3.531783
  H 4.736292 -0.667105 -4.079374
