 17
 0.000000
  C 0.996323 0.133994 0.370471
  C 2.467559 0.139398 0.393330
  C 3.181276 0.618784 1.592232
  H 2.494019 0.932171 2.369125
  C 3.143550 -0.316261 -0.734245
  C 4.530080 -0.372881 -0.874484
  C 5.112744 -0.837912 -2.033038
  H 4.499843 -1.175676 -2.862993
  O 6.385713 -0.926896 -2.267879
  H 0.564256 0.512943 1.290450
  H 0.628129 -0.876950 0.190666
  H 0.629354 0.725680 -0.470540
  H 3.832779 1.457085 1.340769
  H 3.829524 -0.162982 1.990906
  H 2.548354 -0.651949 -1.571187
  H 5.163376 -0.046328 -0.063180
  H 6.960257 -0.625168 -1.535643
 17
 3.498538
  C 0.997721 0.179225 0.372759
  C 2.445479 0.142010 0.394990
  C 3.167638 0.607888 1.591879
  H 2.484124 0.908082 2.378063
  C 3.120013 -0.313779 -0.729536
  C 4.517432 -0.376790 -0.868412
  C 5.108459 -0.843119 -2.037562
  H 4.499752 -1.175925 -2.872157
  O 6.385275 -0.935218 -2.267963
  H 0.539823 0.526171 1.286199
  H 0.835006 -0.865345 0.198048
  H 0.592388 0.721086 -0.477920
  H 3.802276 1.457314 1.338220
  H 3.830470 -0.165752 1.978435
  H 2.524296 -0.644735 -1.570320
  H 5.150630 -0.054133 -0.052521
  H 6.956741 -0.637276 -1.530413
 17
 8.876753
  C 0.990903 0.224270 0.359593
  C 2.437620 0.158713 0.396583
  C 3.167543 0.592245 1.595939
  H 2.489911 0.863921 2.396016
  C 3.121591 -0.304874 -0.739339
  C 4.504760 -0.381295 -0.869932
  C 5.090250 -0.838143 -2.027847
  H 4.483403 -1.158479 -2.872293
  O 6.362124 -0.940547 -2.249762
  H 0.509203 0.570395 1.263232
  H 1.021378 -0.855404 0.250052
  H 0.560642 0.654514 -0.518246
  H 3.774262 1.467715 1.345778
  H 3.853760 -0.174832 1.956665
  H 2.533244 -0.620290 -1.585919
  H 5.134099 -0.072069 -0.053123
  H 6.923601 -0.656103 -1.509990
 17
 15.279079
  C 0.981009 0.252800 0.351842
  C 2.430162 0.160410 0.385135
  C 3.167751 0.576961 1.602192
  H 2.490148 0.827948 2.412009
  C 3.107080 -0.299041 -0.745666
  C 4.497575 -0.384144 -0.872978
  C 5.086295 -0.837461 -2.032211
  H 4.484714 -1.147571 -2.879146
  O 6.363564 -0.947335 -2.249803
  H 0.492037 0.623114 1.240731
  H 1.159456 -0.820840 0.326742
  H 0.515496 0.587737 -0.560949
  H 3.756178 1.467621 1.362114
  H 3.867003 -0.187229 1.946880
  H 2.517159 -0.599840 -1.599334
  H 5.128442 -0.082856 -0.049306
  H 6.926129 -0.667568 -1.497170
 17
 21.567106
  C 0.970957 0.280654 0.355866
  C 2.431035 0.154236 0.383159
  C 3.160262 0.566997 1.604775
  H 2.478668 0.808342 2.412978
  C 3.108256 -0.305488 -0.750802
  C 4.496483 -0.388464 -0.876531
  C 5.086902 -0.839825 -2.033739
  H 4.487899 -1.149920 -2.880249
  O 6.367954 -0.948294 -2.250436
  H 0.473756 0.654032 1.233318
  H 1.276257 -0.803513 0.355576
  H 0.483338 0.579110 -0.563730
  H 3.739027 1.458362 1.374040
  H 3.860632 -0.190846 1.945106
  H 2.517058 -0.605832 -1.607357
  H 5.126140 -0.086190 -0.051043
  H 6.924783 -0.669656 -1.501673
 17
 25.273385
  C 0.975739 0.314569 0.342537
  C 2.414944 0.146341 0.380693
  C 3.160222 0.547422 1.606914
  H 2.485946 0.781625 2.423218
  C 3.098790 -0.302611 -0.760206
  C 4.486863 -0.391954 -0.880027
  C 5.084226 -0.830807 -2.037533
  H 4.493716 -1.128168 -2.895403
  O 6.371598 -0.942473 -2.244504
  H 0.476460 0.735956 1.198872
  H 1.356473 -0.769695 0.466460
  H 0.471874 0.469460 -0.597429
  H 3.731170 1.448139 1.377003
  H 3.863817 -0.215427 1.934217
  H 2.510236 -0.580722 -1.623772
  H 5.112826 -0.103337 -0.048680
  H 6.916889 -0.673821 -1.483193
 17
 27.437249
  C 0.970749 0.342382 0.336712
  C 2.411162 0.142650 0.374666
  C 3.153766 0.529645 1.601858
  H 2.481085 0.754203 2.416581
  C 3.099638 -0.298654 -0.771949
  C 4.486606 -0.394829 -0.885025
  C 5.090364 -0.824315 -2.043265
  H 4.505751 -1.112386 -2.910137
  O 6.381430 -0.938488 -2.241862
  H 0.474189 0.815986 1.179299
  H 1.419721 -0.726022 0.574768
  H 0.447668 0.370834 -0.605539
  H 3.728675 1.431312 1.384624
  H 3.848821 -0.241250 1.920062
  H 2.514083 -0.566273 -1.635317
  H 5.108122 -0.117022 -0.049698
  H 6.919552 -0.677584 -1.471643
 17
 30.085695
  C 0.981128 0.359368 0.337180
  C 2.400893 0.133878 0.377840
  C 3.145612 0.518634 1.595917
  H 2.465378 0.743515 2.422807
  C 3.096813 -0.304844 -0.776512
  C 4.480715 -0.399798 -0.884376
  C 5.089648 -0.820627 -2.041224
  H 4.509795 -1.104523 -2.913415
  O 6.384399 -0.931469 -2.234169
  H 0.497130 0.841313 1.166096
  H 1.474570 -0.702237 0.620539
  H 0.442595 0.334008 -0.610725
  H 3.734665 1.437867 1.377085
  H 3.844387 -0.266394 1.911544
  H 2.508777 -0.568677 -1.647088
  H 5.101586 -0.124920 -0.041532
  H 6.914563 -0.674622 -1.461914
 17
 32.318547
  C 0.980695 0.368707 0.325061
  C 2.399908 0.125984 0.373838
  C 3.153443 0.521520 1.610202
  H 2.479029 0.746018 2.431091
  C 3.100776 -0.311471 -0.781985
  C 4.470416 -0.403623 -0.883559
  C 5.090609 -0.824331 -2.052932
  H 4.519463 -1.103557 -2.922629
  O 6.379729 -0.932579 -2.241274
  H 0.486732 0.853706 1.154977
  H 1.518577 -0.689052 0.632872
  H 0.450621 0.313734 -0.603528
  H 3.722982 1.405920 1.402656
  H 3.837882 -0.246659 1.921662
  H 2.515960 -0.572198 -1.656549
  H 5.088159 -0.129605 -0.034711
  H 6.915368 -0.673627 -1.452255
 17
 34.131815
  C 0.977717 0.378830 0.322756
  C 2.396675 0.115285 0.377786
  C 3.153861 0.513333 1.609184
  H 2.478357 0.739065 2.433314
  C 3.095281 -0.317671 -0.778791
  C 4.479867 -0.410956 -0.882634
  C 5.092361 -0.819481 -2.039458
  H 4.519762 -1.093642 -2.912619
  O 6.389246 -0.926445 -2.229401
  H 0.482315 0.861523 1.152899
  H 1.551888 -0.684384 0.647285
  H 0.442924 0.301259 -0.606146
  H 3.740973 1.421231 1.394160
  H 3.836698 -0.257893 1.918682
  H 2.503629 -0.573949 -1.661440
  H 5.097116 -0.141938 -0.035421
  H 6.915270 -0.676322 -1.451813
 17
 35.815184
  C 0.973769 0.391309 0.315941
  C 2.396920 0.104756 0.385241
  C 3.157474 0.514362 1.614337
  H 2.485701 0.745538 2.434558
  C 3.099059 -0.323582 -0.777168
  C 4.479102 -0.417689 -0.879806
  C 5.094550 -0.818564 -2.043058
  H 4.523567 -1.084220 -2.917828
  O 6.389513 -0.923532 -2.232175
  H 0.473245 0.867198 1.142886
  H 1.580281 -0.684175 0.660581
  H 0.437957 0.288987 -0.610207
  H 3.737351 1.411353 1.394087
  H 3.844107 -0.259514 1.932358
  H 2.512414 -0.571420 -1.654854
  H 5.096891 -0.154850 -0.029927
  H 6.917537 -0.679162 -1.447271
 17
 37.516161
  C 0.978272 0.399944 0.310577
  C 2.395901 0.096373 0.389370
  C 3.160279 0.513626 1.619739
  H 2.482746 0.749488 2.448153
  C 3.098650 -0.328578 -0.773382
  C 4.485138 -0.423340 -0.876730
  C 5.099806 -0.818842 -2.037953
  H 4.516857 -1.086632 -2.934620
  O 6.393827 -0.918201 -2.225286
  H 0.475696 0.871635 1.138260
  H 1.611275 -0.682482 0.666125
  H 0.442516 0.283572 -0.615223
  H 3.735484 1.402427 1.397886
  H 3.846663 -0.259047 1.939554
  H 2.510753 -0.576149 -1.650299
  H 5.097520 -0.164111 -0.035486
  H 6.918974 -0.675591 -1.439885
 17
 39.016714
  C 0.974452 0.413091 0.306947
  C 2.395160 0.087791 0.396301
  C 3.158302 0.509804 1.618334
  H 2.488185 0.744237 2.435896
  C 3.102306 -0.333723 -0.774282
  C 4.481938 -0.427898 -0.875762
  C 5.097533 -0.820739 -2.039819
  H 4.530090 -1.077274 -2.911105
  O 6.394283 -0.918179 -2.231670
  H 0.469923 0.877427 1.135415
  H 1.636309 -0.689768 0.676361
  H 0.438414 0.283708 -0.614793
  H 3.735771 1.404675 1.391384
  H 3.851430 -0.270239 1.943556
  H 2.518655 -0.580877 -1.645083
  H 5.107420 -0.165059 -0.014104
  H 6.920629 -0.678300 -1.448996
 17
 40.280022
  C 0.984396 0.422638 0.301417
  C 2.395157 0.079145 0.400783
  C 3.162108 0.508662 1.621699
  H 2.487789 0.744158 2.445840
  C 3.104045 -0.335423 -0.772034
  C 4.485776 -0.426067 -0.871953
  C 5.102342 -0.817101 -2.034576
  H 4.523428 -1.084033 -2.925497
  O 6.397914 -0.917031 -2.220797
  H 0.473748 0.882642 1.136840
  H 1.669660 -0.698555 0.683229
  H 0.448697 0.281837 -0.617369
  H 3.731252 1.398431 1.393836
  H 3.861258 -0.272464 1.948505
  H 2.512084 -0.588158 -1.653961
  H 5.110205 -0.166486 -0.007637
  H 6.920178 -0.679045 -1.438859
