 25
 0.000000
  H 1.448592 0.171605 0.480443
  C 2.528500 0.150338 0.425920
  C 3.277868 0.620328 1.593526
  C 2.407403 1.085218 2.751871
  H 3.024159 1.418612 3.580141
  C 3.078891 -0.321053 -0.747543
  C 4.460695 -0.419147 -0.992536
  C 5.098223 -0.872910 -2.123674
  C 4.606194 -1.386545 -3.404498
  C 3.120029 -1.506390 -3.705118
  C 2.900676 -2.068913 -5.107692
  H 6.181003 -0.859270 -2.089428
  H 3.944062 1.437160 1.288048
  H 3.945374 -0.179632 1.938049
  H 1.767909 0.278665 3.104028
  H 1.766615 1.910218 2.448287
  H 2.392999 -0.630454 -1.517431
  H 5.106633 -0.095489 -0.186398
  H 5.075803 -2.371762 -3.539397
  H 5.076826 -0.768292 -4.182781
  H 2.644020 -0.525821 -3.650018
  H 2.643197 -2.176645 -2.987836
  H 3.341150 -1.421831 -5.862656
  H 1.837463 -2.152773 -5.318026
  H 3.340508 -3.058690 -5.206064
 25
 0.451894
  H 1.488212 -0.148334 0.632716
  C 2.550869 -0.010335 0.489092
  C 3.262584 0.741044 1.525366
  C 2.388217 1.171759 2.690709
  H 2.975900 1.710924 3.425677
  C 3.108456 -0.517362 -0.662305
  C 4.487778 -0.608139 -0.905931
  C 5.102449 -0.982051 -2.080008
  C 4.596906 -1.404768 -3.386021
  C 3.110214 -1.474358 -3.700769
  C 2.889867 -1.925173 -5.142188
  H 6.185472 -0.963756 -2.052595
  H 3.743456 1.617974 1.076395
  H 4.099806 0.132521 1.893510
  H 1.938972 0.309907 3.180220
  H 1.587915 1.827954 2.355427
  H 2.437732 -0.912804 -1.409046
  H 5.156636 -0.366539 -0.091568
  H 5.052953 -2.385297 -3.589628
  H 5.088405 -0.756155 -4.126040
  H 2.651496 -0.491674 -3.569437
  H 2.613905 -2.190576 -3.041985
  H 3.343236 -1.230195 -5.842672
  H 1.828623 -1.977713 -5.363266
  H 3.316441 -2.909273 -5.313911
 25
 1.776340
  H 1.533738 -0.410506 0.745236
  C 2.571677 -0.161972 0.530414
  C 3.231700 0.784937 1.427931
  C 2.360524 1.261657 2.578347
  H 2.913677 1.950889 3.213121
  C 3.157597 -0.739378 -0.567567
  C 4.538225 -0.775036 -0.839397
  C 5.133349 -1.050110 -2.045978
  C 4.601811 -1.387109 -3.367091
  C 3.108521 -1.453540 -3.649012
  C 2.852903 -1.770746 -5.120732
  H 6.220579 -1.006055 -2.042399
  H 3.591609 1.646918 0.851454
  H 4.151407 0.313502 1.817407
  H 2.029232 0.428185 3.186609
  H 1.482497 1.782407 2.209107
  H 2.532924 -1.296993 -1.252815
  H 5.219003 -0.557483 -0.026708
  H 5.065580 -2.343494 -3.655401
  H 5.062667 -0.680740 -4.067046
  H 2.642641 -0.495781 -3.411444
  H 2.634366 -2.233708 -3.050326
  H 3.281140 -1.002652 -5.768620
  H 1.784507 -1.817514 -5.317507
  H 3.288775 -2.732784 -5.396982
 25
 4.591179
  H 1.633725 -0.652199 0.848128
  C 2.614717 -0.312311 0.560721
  C 3.182913 0.824670 1.302792
  C 2.317244 1.308250 2.447978
  H 2.808431 2.125770 2.975058
  C 3.235746 -0.906557 -0.493759
  C 4.618889 -0.915619 -0.781613
  C 5.179366 -1.100055 -2.022653
  C 4.603283 -1.352428 -3.338610
  C 3.098331 -1.421030 -3.568092
  C 2.796658 -1.627980 -5.056003
  H 6.263765 -1.044187 -2.052999
  H 3.411220 1.650469 0.618758
  H 4.157214 0.492461 1.689337
  H 2.124459 0.503480 3.158415
  H 1.357498 1.678048 2.083058
  H 2.698103 -1.593300 -1.140497
  H 5.323680 -0.739867 0.020834
  H 5.072083 -2.277187 -3.721531
  H 5.030254 -0.594752 -4.012497
  H 2.628206 -0.498826 -3.238220
  H 2.663719 -2.265541 -3.028698
  H 3.192878 -0.811441 -5.651384
  H 1.722737 -1.675334 -5.221876
  H 3.232867 -2.550558 -5.418119
 25
 7.122175
  H 1.782545 -0.894029 0.952819
  C 2.695580 -0.471031 0.569953
  C 3.108705 0.839294 1.110920
  C 2.243156 1.325189 2.266508
  H 2.613807 2.271807 2.640833
  C 3.360316 -1.107848 -0.423715
  C 4.741449 -1.067498 -0.760059
  C 5.272777 -1.160498 -2.018002
  C 4.638460 -1.314165 -3.330581
  C 3.119483 -1.365779 -3.457497
  C 2.696157 -1.431239 -4.918013
  H 6.348486 -1.091352 -2.080993
  H 3.134796 1.589628 0.310657
  H 4.145370 0.723634 1.440665
  H 2.251551 0.604145 3.088555
  H 1.212258 1.472904 1.951481
  H 2.900953 -1.976520 -0.907070
  H 5.452585 -0.900295 0.042232
  H 5.068405 -2.212238 -3.788841
  H 5.018898 -0.497333 -3.957433
  H 2.665509 -0.493544 -2.978249
  H 2.727661 -2.263571 -2.961101
  H 3.054846 -0.564429 -5.470484
  H 1.609988 -1.454909 -4.997618
  H 3.083374 -2.321311 -5.393884
 25
 14.196679
  H 2.010111 -1.074110 1.037523
  C 2.840956 -0.544855 0.590435
  C 3.041600 0.866389 1.001633
  C 2.098214 1.286211 2.112775
  H 2.280535 2.311365 2.383691
  C 3.552123 -1.139101 -0.397003
  C 4.912891 -1.179476 -0.793613
  C 5.375886 -1.253102 -2.064219
  C 4.644934 -1.328889 -3.334384
  C 3.124762 -1.255398 -3.335704
  C 2.584239 -1.279406 -4.756909
  H 6.460490 -1.221979 -2.183572
  H 2.915014 1.529553 0.136878
  H 4.082744 0.975324 1.317990
  H 2.234859 0.665125 2.994072
  H 1.063694 1.211199 1.796428
  H 3.197252 -2.106067 -0.774221
  H 5.657852 -1.085791 -0.006045
  H 4.967304 -2.239685 -3.853380
  H 5.047614 -0.525360 -3.975941
  H 2.778376 -0.352096 -2.814553
  H 2.704830 -2.127229 -2.823300
  H 2.954743 -0.438893 -5.333862
  H 1.500780 -1.229952 -4.751151
  H 2.875500 -2.187175 -5.263784
 25
 22.945008
  H 2.250374 -1.160858 1.101246
  C 2.962395 -0.513528 0.591034
  C 2.959640 0.923452 0.991213
  C 1.955626 1.238959 2.096383
  H 2.011818 2.293252 2.360848
  C 3.721258 -1.024856 -0.385381
  C 5.047061 -1.238747 -0.863085
  C 5.453698 -1.338842 -2.153107
  C 4.658174 -1.374643 -3.383117
  C 3.146054 -1.189773 -3.299252
  C 2.512252 -1.208531 -4.690429
  H 6.526069 -1.377887 -2.311996
  H 2.746532 1.531120 0.115153
  H 3.979040 1.177103 1.319553
  H 2.157922 0.652655 2.990842
  H 0.934542 1.034758 1.765444
  H 3.403574 -2.038684 -0.681964
  H 5.805477 -1.238645 -0.072103
  H 4.879571 -2.331237 -3.876563
  H 5.086427 -0.628866 -4.064847
  H 2.921264 -0.233322 -2.823765
  H 2.683907 -1.983100 -2.706827
  H 2.908983 -0.403539 -5.309728
  H 1.437808 -1.083286 -4.622522
  H 2.708190 -2.151384 -5.195857
 25
 30.833298
  H 2.341118 -1.177958 1.032977
  C 3.020459 -0.493081 0.523257
  C 2.858744 0.953697 0.851295
  C 1.871207 1.186848 1.986805
  H 1.790760 2.248883 2.199041
  C 3.859047 -0.976764 -0.369230
  C 5.168654 -1.312799 -0.863040
  C 5.517317 -1.423086 -2.177616
  C 4.656624 -1.408266 -3.368978
  C 3.167930 -1.143625 -3.187113
  C 2.453825 -1.052030 -4.540778
  H 6.569985 -1.594208 -2.387944
  H 2.534153 1.494562 -0.040334
  H 3.844976 1.345156 1.121703
  H 2.196304 0.684616 2.893912
  H 0.884554 0.820486 1.721912
  H 3.700839 -2.075216 -0.560071
  H 5.967432 -1.365644 -0.127569
  H 4.795909 -2.367005 -3.887179
  H 5.075439 -0.676684 -4.071183
  H 3.023467 -0.202662 -2.652422
  H 2.693561 -1.938446 -2.612406
  H 2.863851 -0.249849 -5.144156
  H 1.394933 -0.854909 -4.395706
  H 2.549007 -1.979004 -5.095046
 25
 37.322834
  H 2.395029 -1.167165 0.963209
  C 3.101779 -0.474544 0.510084
  C 2.894678 0.967559 0.870714
  C 1.753135 1.149128 1.859207
  H 1.632288 2.203752 2.099883
  C 4.033246 -0.924730 -0.295655
  C 5.249552 -1.352209 -0.905753
  C 5.537776 -1.467253 -2.245299
  C 4.622839 -1.407670 -3.387517
  C 3.160798 -1.073619 -3.121804
  C 2.378238 -1.008579 -4.430358
  H 6.566869 -1.683750 -2.490655
  H 2.684978 1.534317 -0.037520
  H 3.822273 1.360365 1.292442
  H 1.953639 0.611667 2.787383
  H 0.813093 0.789883 1.441628
  H 3.989434 -2.035073 -0.495646
  H 6.083772 -1.446178 -0.209195
  H 4.687295 -2.370059 -3.921009
  H 5.041555 -0.688892 -4.106624
  H 3.089209 -0.110419 -2.617338
  H 2.702095 -1.832825 -2.483179
  H 2.767218 -0.227084 -5.076999
  H 1.330383 -0.794300 -4.238987
  H 2.435271 -1.952975 -4.967972
 25
 41.234136
  H 2.325190 -1.137694 0.894999
  C 3.101037 -0.491922 0.504914
  C 2.927310 0.968074 0.860943
  C 1.728520 1.179213 1.777067
  H 1.628633 2.231112 2.017428
  C 4.057020 -0.957487 -0.224918
  C 5.227482 -1.404908 -0.869931
  C 5.535328 -1.439655 -2.239599
  C 4.605551 -1.362434 -3.370901
  C 3.136348 -1.075868 -3.079513
  C 2.333638 -0.974550 -4.380690
  H 6.572215 -1.609859 -2.495894
  H 2.789513 1.542424 -0.062050
  H 3.837375 1.341527 1.337150
  H 1.854724 0.636287 2.711612
  H 0.813348 0.851268 1.305608
  H 4.200524 -2.175605 -0.633921
  H 6.086003 -1.571638 -0.220688
  H 4.696938 -2.292900 -3.945123
  H 4.991693 -0.599559 -4.061097
  H 3.043528 -0.147032 -2.522081
  H 2.711214 -1.879078 -2.475002
  H 2.710086 -0.170545 -5.007506
  H 1.289478 -0.776819 -4.170705
  H 2.400293 -1.894957 -4.951386
 25
 41.668165
  H 2.318205 -1.090626 0.799486
  C 3.121299 -0.437638 0.466758
  C 2.931919 1.011603 0.860894
  C 1.690867 1.199543 1.721357
  H 1.581528 2.247713 1.984506
  C 4.107210 -0.888189 -0.219474
  C 5.224968 -1.457794 -0.858537
  C 5.523269 -1.462296 -2.259058
  C 4.578796 -1.360800 -3.376591
  C 3.112310 -1.099108 -3.051279
  C 2.294163 -0.950683 -4.330690
  H 6.556839 -1.609581 -2.528864
  H 2.850179 1.614461 -0.044490
  H 3.816664 1.349426 1.401579
  H 1.763753 0.626433 2.644910
  H 0.797827 0.893874 1.189944
  H 4.446914 -2.318899 -0.674570
  H 6.088251 -1.564306 -0.204272
  H 4.661705 -2.279338 -3.975544
  H 4.943914 -0.576206 -4.053631
  H 3.020164 -0.185096 -2.467005
  H 2.695515 -1.927468 -2.470172
  H 2.649851 -0.107313 -4.927675
  H 1.251200 -0.778753 -4.096692
  H 2.358397 -1.847179 -4.938720
 25
 41.437577
  H 2.333065 -1.083934 0.830260
  C 3.131451 -0.436881 0.472296
  C 2.914172 1.028219 0.806409
  C 1.668042 1.230618 1.654206
  H 1.541977 2.282713 1.874825
  C 4.126162 -0.906181 -0.172994
  C 5.197004 -1.558632 -0.820236
  C 5.503653 -1.460287 -2.237266
  C 4.558300 -1.318636 -3.348944
  C 3.088205 -1.080103 -3.015192
  C 2.266937 -0.906578 -4.294365
  H 6.544997 -1.592145 -2.506657
  H 2.824349 1.584534 -0.129526
  H 3.791223 1.405073 1.333899
  H 1.750612 0.701753 2.596521
  H 0.782015 0.881813 1.138307
  H 4.547678 -2.471299 -0.849331
  H 6.075817 -1.615258 -0.185980
  H 4.645189 -2.206168 -3.988315
  H 4.920752 -0.505253 -3.990196
  H 2.988563 -0.181712 -2.410355
  H 2.683651 -1.925471 -2.462556
  H 2.625281 -0.066157 -4.875351
  H 1.220662 -0.725915 -4.053822
  H 2.319298 -1.796643 -4.914992
