 32
 0.000000
  C 0.962675 0.142729 0.406609
  C 2.441001 0.138588 0.395842
  C 3.234212 0.606832 1.560963
  C 2.464287 1.098261 2.784331
  C 3.420196 1.541445 3.887237
  C 3.047979 -0.327054 -0.763405
  C 4.426571 -0.414126 -0.980799
  C 5.115221 -0.862222 -2.097807
  C 4.630596 -1.386816 -3.405582
  C 3.140249 -1.506000 -3.703389
  C 2.916689 -2.067961 -5.104429
  O 6.441308 -0.851515 -2.071303
  H 0.533126 0.513874 1.330299
  H 0.588145 -0.868982 0.242981
  H 0.587841 0.759768 -0.411553
  H 3.889989 1.417913 1.224180
  H 3.890198 -0.211649 1.878918
  H 1.826565 0.302555 3.174753
  H 1.826419 1.942813 2.515781
  H 4.056230 0.718492 4.207423
  H 2.859628 1.888889 4.752259
  H 4.056069 2.357273 3.549021
  H 2.381175 -0.641874 -1.547135
  H 5.040006 -0.080820 -0.150933
  H 5.088342 -2.375148 -3.529574
  H 5.088677 -0.758398 -4.178253
  H 2.664471 -0.525743 -3.649796
  H 2.664165 -2.177317 -2.987282
  H 3.355305 -1.420433 -5.860689
  H 1.851298 -2.149279 -5.307682
  H 3.355014 -3.058766 -5.203508
  H 6.787075 -0.512079 -1.224355
 32
 -0.187679
  C 0.953873 -0.043161 0.491839
  C 2.429662 0.039798 0.438256
  C 3.223214 0.617236 1.545034
  C 2.465411 1.135304 2.760685
  C 3.436043 1.690495 3.795867
  C 3.043047 -0.450243 -0.711155
  C 4.417614 -0.483932 -0.934437
  C 5.102203 -0.954310 -2.050007
  C 4.608095 -1.415003 -3.375958
  C 3.129922 -1.433683 -3.717734
  C 2.942380 -1.875853 -5.166102
  O 6.419808 -1.003756 -2.012865
  H 0.533349 0.352424 1.407081
  H 0.637564 -1.082657 0.378474
  H 0.521426 0.493808 -0.355440
  H 3.826123 1.437732 1.143729
  H 3.937019 -0.139109 1.886543
  H 1.889868 0.331549 3.218001
  H 1.777278 1.927041 2.467754
  H 4.125743 0.922025 4.134719
  H 2.893667 2.059721 4.662441
  H 4.013407 2.514739 3.385682
  H 2.392667 -0.849985 -1.468902
  H 5.048930 -0.119426 -0.127323
  H 5.019658 -2.414917 -3.530404
  H 5.123794 -0.789084 -4.109388
  H 2.701741 -0.437071 -3.601714
  H 2.597237 -2.137916 -3.077184
  H 3.443190 -1.194009 -5.851067
  H 1.885637 -1.893131 -5.420716
  H 3.343901 -2.875053 -5.323649
  H 6.813509 -0.704109 -1.168946
 32
 -0.048462
  C 0.990537 -0.288015 0.578283
  C 2.451934 -0.096425 0.478753
  C 3.222637 0.617322 1.525078
  C 2.451256 1.163878 2.724294
  C 3.398896 1.862748 3.692732
  C 3.076229 -0.607904 -0.655189
  C 4.446234 -0.574255 -0.904974
  C 5.123116 -1.045437 -2.028840
  C 4.607690 -1.436312 -3.368649
  C 3.125364 -1.339100 -3.708036
  C 2.915041 -1.632924 -5.192037
  O 6.436138 -1.138163 -1.991867
  H 0.562719 0.129577 1.482592
  H 0.752933 -1.353765 0.530206
  H 0.498297 0.160959 -0.287616
  H 3.755101 1.449419 1.053149
  H 4.000347 -0.057357 1.899914
  H 1.948782 0.352958 3.252147
  H 1.698841 1.880252 2.394821
  H 4.152696 1.173663 4.065497
  H 2.849370 2.251672 4.546181
  H 3.902806 2.696670 3.210280
  H 2.443379 -1.104672 -1.369819
  H 5.078566 -0.177388 -0.121698
  H 4.959455 -2.454802 -3.567019
  H 5.165951 -0.813560 -4.077282
  H 2.754742 -0.336798 -3.493789
  H 2.551152 -2.068339 -3.137671
  H 3.453451 -0.919687 -5.811825
  H 1.860149 -1.568610 -5.444273
  H 3.261434 -2.632484 -5.442985
  H 6.848999 -0.877976 -1.145963
 32
 0.337683
  C 1.055420 -0.572533 0.697106
  C 2.481404 -0.229390 0.522022
  C 3.214576 0.609215 1.502449
  C 2.440086 1.125431 2.714027
  C 3.350129 1.960562 3.612194
  C 3.108484 -0.715064 -0.620702
  C 4.460896 -0.573571 -0.917440
  C 5.136351 -1.024176 -2.050809
  C 4.601377 -1.389152 -3.390384
  C 3.119468 -1.231974 -3.710061
  C 2.885994 -1.450114 -5.201877
  O 6.448265 -1.108401 -2.031664
  H 0.625299 -0.169061 1.603899
  H 0.934001 -1.655388 0.696868
  H 0.481301 -0.213530 -0.157103
  H 3.635520 1.471000 0.971772
  H 4.075545 0.037683 1.868222
  H 2.046500 0.290406 3.295940
  H 1.603174 1.746734 2.390897
  H 4.188053 1.368239 3.977768
  H 2.797815 2.327771 4.474551
  H 3.744282 2.821805 3.075105
  H 2.503262 -1.298684 -1.290680
  H 5.086978 -0.123351 -0.157756
  H 4.916599 -2.416791 -3.607561
  H 5.174503 -0.772728 -4.094774
  H 2.782862 -0.230863 -3.442175
  H 2.524889 -1.965046 -3.168400
  H 3.439187 -0.725190 -5.794368
  H 1.830777 -1.343233 -5.438988
  H 3.200375 -2.446826 -5.502000
  H 6.870866 -0.882311 -1.181794
 32
 1.009811
  C 1.189419 -0.937060 0.861344
  C 2.548902 -0.429184 0.590163
  C 3.204689 0.577130 1.462564
  C 2.410327 1.099256 2.657201
  C 3.229790 2.121087 3.438553
  C 3.188099 -0.913359 -0.546707
  C 4.504715 -0.652724 -0.907572
  C 5.157212 -1.065346 -2.070184
  C 4.568401 -1.373640 -3.401072
  C 3.120393 -0.996729 -3.689306
  C 2.835452 -1.134751 -5.179604
  O 6.464508 -1.160211 -2.087323
  H 0.763713 -0.551432 1.778851
  H 1.203331 -2.027329 0.902492
  H 0.528332 -0.677045 0.032441
  H 3.496262 1.432097 0.842129
  H 4.141653 0.148399 1.837532
  H 2.149941 0.278164 3.325806
  H 1.490270 1.575405 2.319109
  H 4.148576 1.678660 3.815893
  H 2.661883 2.490571 4.288822
  H 3.489467 2.972466 2.812537
  H 2.643391 -1.622729 -1.148056
  H 5.128532 -0.135838 -0.184456
  H 4.724182 -2.438684 -3.607366
  H 5.211498 -0.856354 -4.121554
  H 2.937399 0.034928 -3.384522
  H 2.430466 -1.640521 -3.154731
  H 3.481880 -0.485172 -5.763107
  H 1.804911 -0.863427 -5.393816
  H 2.993099 -2.158052 -5.511254
  H 6.906904 -1.002858 -1.229250
 32
 1.664958
  C 1.275845 -1.108045 0.930089
  C 2.593024 -0.524854 0.607067
  C 3.195192 0.565422 1.412214
  C 2.387874 1.099151 2.594066
  C 3.148533 2.218168 3.305421
  C 3.240932 -1.016242 -0.519434
  C 4.539201 -0.694224 -0.911536
  C 5.184466 -1.103253 -2.082445
  C 4.552601 -1.365997 -3.397393
  C 3.153594 -0.802210 -3.644115
  C 2.778881 -0.955799 -5.113455
  O 6.486518 -1.264313 -2.100336
  H 0.844512 -0.710481 1.840524
  H 1.364293 -2.191033 1.016614
  H 0.583723 -0.923271 0.106013
  H 3.421836 1.403607 0.744435
  H 4.165001 0.219942 1.791317
  H 2.194647 0.300038 3.312094
  H 1.431329 1.493338 2.247625
  H 4.100732 1.859349 3.690324
  H 2.568263 2.596013 4.143833
  H 3.343147 3.048902 2.630665
  H 2.728787 -1.781570 -1.084547
  H 5.165543 -0.185110 -0.186387
  H 4.561580 -2.444756 -3.582779
  H 5.236570 -0.944393 -4.145775
  H 3.133409 0.256234 -3.377629
  H 2.408309 -1.317944 -3.046065
  H 3.479091 -0.425582 -5.755271
  H 1.786673 -0.551230 -5.293992
  H 2.777386 -2.003466 -5.404317
  H 6.930907 -1.131408 -1.238136
 32
 4.074941
  C 1.343642 -1.197235 0.990133
  C 2.621990 -0.559420 0.619284
  C 3.183937 0.586846 1.374995
  C 2.374576 1.115934 2.556559
  C 3.076698 2.312075 3.195166
  C 3.277860 -1.058425 -0.500235
  C 4.552808 -0.706256 -0.921403
  C 5.184601 -1.207761 -2.069889
  C 4.548963 -1.366884 -3.398718
  C 3.196191 -0.690934 -3.614146
  C 2.774932 -0.812772 -5.074777
  O 6.434714 -1.585380 -2.036502
  H 0.938260 -0.825055 1.918719
  H 1.473153 -2.275717 1.060490
  H 0.610790 -1.029151 0.200802
  H 3.348540 1.413078 0.675529
  H 4.177134 0.305130 1.741786
  H 2.256319 0.337626 3.313055
  H 1.383438 1.429150 2.223272
  H 4.061545 2.034372 3.564648
  H 2.496553 2.687877 4.034952
  H 3.194985 3.122977 2.479114
  H 2.796980 -1.860776 -1.042471
  H 5.166088 -0.098340 -0.265350
  H 4.477989 -2.434586 -3.632584
  H 5.266347 -0.965322 -4.123704
  H 3.269255 0.365017 -3.348605
  H 2.426750 -1.143284 -2.991321
  H 3.502239 -0.341966 -5.732952
  H 1.815190 -0.327760 -5.233408
  H 2.679687 -1.856696 -5.364225
  H 6.875191 -1.515586 -1.166614
 32
 7.828125
  C 1.380545 -1.245137 1.065513
  C 2.624089 -0.569764 0.639442
  C 3.176597 0.600511 1.364450
  C 2.373424 1.131630 2.553168
  C 3.067932 2.347256 3.174141
  C 3.273181 -1.079205 -0.479274
  C 4.498766 -0.659316 -0.971025
  C 5.145854 -1.258235 -2.076281
  C 4.546495 -1.373160 -3.428071
  C 3.224115 -0.641226 -3.651176
  C 2.804142 -0.739243 -5.112168
  O 6.362489 -1.711518 -1.975298
  H 0.993265 -0.866467 2.010121
  H 1.546091 -2.320333 1.147976
  H 0.612605 -1.109071 0.299886
  H 3.308181 1.418387 0.649451
  H 4.180739 0.345982 1.718022
  H 2.275088 0.359096 3.318258
  H 1.374323 1.427316 2.228846
  H 4.063481 2.087538 3.531308
  H 2.493413 2.721420 4.021381
  H 3.163267 3.155862 2.448350
  H 2.866216 -1.975592 -0.926647
  H 5.061487 0.090859 -0.431263
  H 4.441376 -2.431854 -3.689853
  H 5.301108 -0.986863 -4.126667
  H 3.334844 0.409968 -3.378313
  H 2.440910 -1.068368 -3.031870
  H 3.550785 -0.292189 -5.764841
  H 1.864343 -0.218185 -5.271135
  H 2.670707 -1.775378 -5.407557
  H 6.770218 -1.633826 -1.090842
 32
 14.208539
  C 1.540985 -1.453162 1.245370
  C 2.715449 -0.725581 0.713620
  C 3.164083 0.577405 1.268366
  C 2.344661 1.166472 2.415534
  C 2.903346 2.527045 2.831828
  C 3.387788 -1.298942 -0.361551
  C 4.557450 -0.838470 -0.925472
  C 5.143472 -1.437883 -2.085367
  C 4.528044 -1.327606 -3.422748
  C 3.291792 -0.434677 -3.511716
  C 2.802250 -0.342162 -4.951230
  O 6.228586 -2.140570 -2.014326
  H 1.138967 -1.002804 2.148081
  H 1.803047 -2.491686 1.452514
  H 0.751539 -1.475999 0.490708
  H 3.186355 1.310673 0.455242
  H 4.200500 0.469417 1.611034
  H 2.370906 0.499964 3.280163
  H 1.305335 1.292902 2.107770
  H 3.935040 2.436977 3.170834
  H 2.315199 2.946006 3.648638
  H 2.874873 3.231716 1.999807
  H 2.962712 -2.193162 -0.795469
  H 5.081380 0.006123 -0.497831
  H 4.283431 -2.335741 -3.782045
  H 5.305126 -0.975448 -4.108696
  H 3.532750 0.566364 -3.149163
  H 2.493490 -0.834599 -2.888482
  H 3.567598 0.080768 -5.597615
  H 1.923437 0.293164 -5.011757
  H 2.536600 -1.322639 -5.333533
  H 6.611862 -2.258808 -1.122609
 32
 20.626841
  C 1.688214 -1.576738 1.504110
  C 2.753092 -0.789608 0.832300
  C 3.137561 0.582550 1.271386
  C 2.357552 1.181265 2.440493
  C 2.844094 2.596381 2.741418
  C 3.386223 -1.374657 -0.260263
  C 4.412388 -0.824138 -0.992176
  C 4.998533 -1.509958 -2.122740
  C 4.462960 -1.335883 -3.478756
  C 3.372189 -0.277362 -3.626947
  C 2.942795 -0.152289 -5.084670
  O 5.963437 -2.335520 -1.985021
  H 1.308435 -1.089699 2.394988
  H 2.060741 -2.564532 1.777591
  H 0.853672 -1.737948 0.820366
  H 3.038916 1.259493 0.414836
  H 4.199893 0.578719 1.540500
  H 2.488914 0.569306 3.334807
  H 1.293496 1.218624 2.201388
  H 3.898406 2.595216 3.007375
  H 2.287480 3.020907 3.572658
  H 2.707584 3.244604 1.878685
  H 3.044374 -2.357590 -0.555799
  H 4.839985 0.132231 -0.730708
  H 4.090256 -2.312443 -3.813142
  H 5.296931 -1.125134 -4.157305
  H 3.743045 0.687771 -3.278131
  H 2.508106 -0.544672 -3.019577
  H 3.779628 0.143131 -5.713778
  H 2.164308 0.599382 -5.186843
  H 2.550333 -1.094762 -5.457043
  H 6.326685 -2.443909 -1.078377
 32
 13.241009
  C 1.833724 -1.674303 1.777017
  C 2.807326 -0.905639 0.971430
  C 3.107255 0.527169 1.241363
  C 2.349442 1.194527 2.384273
  C 2.730890 2.664096 2.488086
  C 3.421380 -1.572400 -0.087390
  C 4.283172 -1.002224 -1.000627
  C 4.830906 -1.673877 -2.138685
  C 4.395833 -1.316902 -3.505399
  C 3.426665 -0.143411 -3.606449
  C 3.057772 0.123202 -5.062473
  O 5.726757 -2.611598 -2.058492
  H 1.457644 -1.117673 2.624522
  H 2.286868 -2.601828 2.134723
  H 0.984851 -1.967536 1.153682
  H 2.913216 1.096770 0.327122
  H 4.176924 0.628057 1.440551
  H 2.584590 0.706161 3.329637
  H 1.273431 1.121899 2.215823
  H 3.793831 2.775860 2.682051
  H 2.189844 3.139335 3.299079
  H 2.491697 3.192183 1.569719
  H 3.139283 -2.605902 -0.226367
  H 4.538737 0.047182 -0.921161
  H 3.931197 -2.217216 -3.912598
  H 5.271940 -1.146590 -4.142150
  H 3.882961 0.752402 -3.186964
  H 2.517974 -0.360651 -3.038085
  H 3.939362 0.368498 -5.647571
  H 2.364413 0.957805 -5.132129
  H 2.582995 -0.746026 -5.508400
  H 6.062289 -2.812096 -1.161960
 32
 9.362884
  C 2.024420 -1.705675 1.921039
  C 2.854491 -0.868705 1.027511
  C 3.084910 0.577073 1.278766
  C 2.379990 1.199574 2.482041
  C 2.696005 2.689636 2.572863
  C 3.411185 -1.485673 -0.087958
  C 4.153958 -0.869589 -1.082422
  C 4.675958 -1.630255 -2.160092
  C 4.317980 -1.345412 -3.565979
  C 3.534079 -0.054828 -3.792201
  C 3.241547 0.142962 -5.275231
  O 5.421429 -2.680162 -1.968051
  H 1.701592 -1.180869 2.811964
  H 2.574422 -2.599211 2.216989
  H 1.141456 -2.056378 1.384219
  H 2.786173 1.131890 0.382550
  H 4.161977 0.743356 1.391600
  H 2.707060 0.717152 3.404898
  H 1.299551 1.074724 2.390999
  H 3.765484 2.853761 2.686362
  H 2.195298 3.132334 3.430560
  H 2.360610 3.213207 1.680076
  H 3.192111 -2.535395 -0.238592
  H 4.348449 0.190957 -1.062421
  H 3.731472 -2.205228 -3.909840
  H 5.219707 -1.356877 -4.187490
  H 4.107950 0.797152 -3.426920
  H 2.592912 -0.091750 -3.242065
  H 4.163963 0.211093 -5.846993
  H 2.680139 1.060202 -5.432500
  H 2.654978 -0.683044 -5.669348
  H 5.720192 -2.836497 -1.050781
 32
 4.328445
  C 2.198941 -1.696771 2.099793
  C 2.895030 -0.864500 1.100247
  C 3.056255 0.599308 1.261046
  C 2.435207 1.243086 2.497957
  C 2.673854 2.750049 2.490130
  C 3.385732 -1.501737 -0.023856
  C 3.997425 -0.899875 -1.115302
  C 4.456082 -1.691758 -2.182512
  C 4.204781 -1.354959 -3.602608
  C 3.627864 0.034437 -3.861719
  C 3.448247 0.269582 -5.357216
  O 5.036079 -2.847095 -1.977956
  H 1.909113 -1.143472 2.983957
  H 2.827180 -2.537247 2.395166
  H 1.303980 -2.133016 1.652879
  H 2.642633 1.090437 0.373542
  H 4.127431 0.830318 1.255963
  H 2.875635 0.825574 3.405011
  H 1.359807 1.058362 2.518799
  H 3.738060 2.975249 2.492425
  H 2.231695 3.208720 3.370971
  H 2.227043 3.209996 1.611727
  H 3.214778 -2.567776 -0.113423
  H 4.140268 0.167281 -1.160103
  H 3.511068 -2.116295 -3.977220
  H 5.124001 -1.500311 -4.178627
  H 4.298366 0.795856 -3.462850
  H 2.661889 0.133548 -3.365743
  H 4.400937 0.203733 -5.877436
  H 3.032910 1.257477 -5.539201
  H 2.771879 -0.465504 -5.787794
  H 5.326693 -3.012940 -1.060271
 32
 2.563676
  C 2.384494 -1.641956 2.264162
  C 2.927795 -0.826603 1.164900
  C 3.037902 0.645183 1.250551
  C 2.503391 1.320166 2.510706
  C 2.638867 2.835274 2.400549
  C 3.351629 -1.488720 0.038032
  C 3.807318 -0.914999 -1.142191
  C 4.184579 -1.748331 -2.202677
  C 4.024549 -1.390818 -3.633523
  C 3.837373 0.095128 -3.935367
  C 3.807682 0.333341 -5.441715
  O 4.594331 -2.983675 -1.980217
  H 2.142605 -1.060612 3.146089
  H 3.089842 -2.428415 2.535518
  H 1.483483 -2.157332 1.925929
  H 2.529344 1.081571 0.384457
  H 4.093333 0.914576 1.135190
  H 3.059975 0.983610 3.386709
  H 1.450125 1.072351 2.653350
  H 3.680126 3.125063 2.278448
  H 2.259974 3.315946 3.298630
  H 2.073932 3.215904 1.552314
  H 3.234576 -2.567403 0.006643
  H 3.816989 0.153591 -1.277561
  H 3.149024 -1.943246 -3.998141
  H 4.875448 -1.792604 -4.192662
  H 4.658366 0.668226 -3.502787
  H 2.901134 0.449937 -3.502225
  H 4.740467 0.016863 -5.903056
  H 3.667268 1.389954 -5.656290
  H 2.992254 -0.217428 -5.906136
  H 4.999000 -3.122754 -1.106411
