 20
 0.000000
  C -2.992587 -0.987756 1.434075
  C -1.515242 -0.611329 1.440935
  C -1.070061 -0.185029 0.041252
  C -1.240576 0.490603 2.446190
  O -2.133847 1.064493 3.040005
  C 0.198606 0.850464 2.692537
  H -3.178583 -1.810069 0.747634
  H -3.610343 -0.145134 1.131080
  H -3.318617 -1.295272 2.425670
  H -0.940985 -1.488973 1.757889
  H -1.578428 0.725296 -0.268348
  H -1.293658 -0.963813 -0.682289
  H -0.000679 0.005610 0.000991
  H 0.869025 0.154742 2.198412
  H 0.392513 0.813932 3.759877
  H 0.379597 1.855795 2.325098
  O 2.969477 0.180022 -0.058000
  H 2.007172 0.010989 -0.001651
  H 3.161805 1.139426 -0.104521
  H 3.372639 -0.301733 -0.811006
 20
 0.358095
  C -2.931893 -0.985489 1.389500
  C -1.457816 -0.603597 1.428982
  C -0.992241 -0.165960 0.043823
  C -1.211392 0.496033 2.432665
  O -2.123476 1.092007 2.974636
  C 0.238499 0.816942 2.727569
  H -3.098783 -1.805480 0.694621
  H -3.536675 -0.134445 1.080627
  H -3.274095 -1.289854 2.375518
  H -0.880455 -1.474140 1.753609
  H -1.518735 0.730111 -0.259941
  H -1.209322 -0.951055 -0.667691
  H 0.079968 0.030817 0.011993
  H 0.916262 0.080817 2.310875
  H 0.366587 0.852945 3.808969
  H 0.456423 1.814573 2.354075
  O 2.754412 0.211296 -0.029571
  H 1.778950 0.065448 0.025568
  H 2.954782 1.141309 -0.277387
  H 3.166539 -0.419389 -0.657969
 20
 0.661429
  C -2.903100 -1.013554 1.372853
  C -1.429555 -0.614772 1.409528
  C -0.967872 -0.138025 0.025388
  C -1.187615 0.492104 2.417876
  O -2.098386 1.117297 2.926902
  C 0.255149 0.791454 2.731250
  H -3.064641 -1.814458 0.656044
  H -3.521433 -0.161444 1.093337
  H -3.232255 -1.350452 2.354095
  H -0.835051 -1.480434 1.722289
  H -1.518772 0.755464 -0.263451
  H -1.160259 -0.915753 -0.709609
  H 0.093216 0.088908 0.018184
  H 0.922609 0.012091 2.389499
  H 0.356626 0.905083 3.808229
  H 0.497258 1.759216 2.296662
  O 2.648780 0.238606 0.032489
  H 1.663432 0.183992 0.051391
  H 2.957759 1.122133 -0.272911
  H 3.004033 -0.486071 -0.522620
 20
 1.792284
  C -2.911410 -0.898553 1.300537
  C -1.419124 -0.578292 1.329811
  C -1.011124 0.175485 0.058263
  C -1.065610 0.270247 2.542574
  O -1.915863 0.806811 3.225519
  C 0.402067 0.433852 2.828187
  H -3.152911 -1.510216 0.435415
  H -3.497521 0.017718 1.257456
  H -3.205289 -1.435341 2.200465
  H -0.859960 -1.516623 1.400827
  H -1.515464 1.139018 0.016143
  H -1.284825 -0.407349 -0.817360
  H 0.072599 0.354286 0.029879
  H 1.009837 -0.298984 2.315133
  H 0.556358 0.346728 3.901658
  H 0.686222 1.450387 2.562033
  O 2.474074 0.300049 -0.040508
  H 1.471043 0.314211 -0.039598
  H 2.835276 1.057442 -0.548310
  H 2.810958 -0.545482 -0.397271
 20
 2.946043
  C -2.906058 -0.920399 1.303776
  C -1.421702 -0.575295 1.325374
  C -1.040969 0.183716 0.043376
  C -1.071500 0.290073 2.533522
  O -1.940253 0.819930 3.216047
  C 0.394850 0.488763 2.828371
  H -3.137815 -1.534954 0.434156
  H -3.510962 -0.020556 1.261843
  H -3.186284 -1.457359 2.206862
  H -0.847739 -1.510526 1.401501
  H -1.560720 1.136958 0.008418
  H -1.316390 -0.392324 -0.834665
  H 0.042738 0.392025 0.000511
  H 1.009824 -0.235914 2.312640
  H 0.549157 0.409513 3.905727
  H 0.648656 1.516110 2.564062
  O 2.476157 0.254518 -0.027119
  H 1.498947 0.231132 -0.105364
  H 2.835985 1.010322 -0.542016
  H 2.912716 -0.577857 -0.307475
 20
 5.084356
  C -2.908002 -0.907551 1.297740
  C -1.409202 -0.576262 1.318707
  C -1.005267 0.126565 -0.000016
  C -1.065055 0.324291 2.510612
  O -1.927659 0.876964 3.167390
  C 0.401013 0.479761 2.838245
  H -3.151202 -1.546762 0.464376
  H -3.491461 0.000000 1.226593
  H -3.205719 -1.413146 2.227596
  H -0.853603 -1.513093 1.439433
  H -1.500049 1.080596 -0.084636
  H -1.227557 -0.494304 -0.865133
  H 0.081464 0.349765 -0.019025
  H 0.997362 -0.295135 2.385766
  H 0.525538 0.451193 3.946883
  H 0.740954 1.461806 2.513154
  O 2.398778 0.354249 0.004345
  H 1.431510 0.232266 -0.035114
  H 2.685379 1.028799 -0.653483
  H 2.865124 -0.489262 -0.181260
 20
 13.056938
  C -2.859081 -0.927397 1.270740
  C -1.383021 -0.567290 1.330445
  C -0.996122 0.145473 0.043266
  C -1.085135 0.323109 2.534845
  O -1.968917 0.781691 3.232154
  C 0.356560 0.576986 2.823239
  H -3.071620 -1.545487 0.407436
  H -3.464336 -0.036072 1.227085
  H -3.153884 -1.473451 2.159556
  H -0.799723 -1.497927 1.444877
  H -1.443321 1.125487 -0.021490
  H -1.214238 -0.450106 -0.832749
  H 0.104370 0.337928 0.010942
  H 1.007885 -0.123403 2.315510
  H 0.510629 0.508921 3.893745
  H 0.603455 1.588719 2.535348
  O 2.397577 0.309321 -0.028320
  H 1.304471 0.245297 0.002559
  H 2.678174 0.786047 -0.846915
  H 2.817266 -0.562187 -0.022067
 20
 23.943950
  C -2.881283 -0.946814 1.285595
  C -1.399496 -0.574076 1.338455
  C -1.028316 0.117597 0.029247
  C -1.107226 0.345482 2.536175
  O -1.993856 0.883609 3.171958
  C 0.334703 0.555273 2.843610
  H -3.089472 -1.573865 0.438218
  H -3.495390 -0.053764 1.232878
  H -3.159730 -1.478751 2.181857
  H -0.814325 -1.486066 1.469894
  H -1.464315 1.107749 -0.072094
  H -1.203360 -0.497637 -0.841547
  H 0.067789 0.319426 0.003928
  H 0.964122 -0.253886 2.457919
  H 0.450892 0.632457 3.928547
  H 0.661544 1.500050 2.438437
  O 2.503613 0.374947 -0.068635
  H 1.247130 0.270602 0.011343
  H 2.740401 0.789236 -0.911488
  H 2.969930 -0.478001 -0.012723
 20
 37.723085
  C -nan -nan -nan
  C -nan -nan -nan
  C -nan -nan -nan
  C -nan -nan -nan
  O -nan -nan -nan
  C -nan -nan -nan
  H -nan -nan -nan
  H -nan -nan -nan
  H -nan -nan -nan
  H -nan -nan -nan
  H -nan -nan -nan
  H -nan -nan -nan
  H -nan -nan -nan
  H -nan -nan -nan
  H -nan -nan -nan
  H -nan -nan -nan
  O -nan -nan -nan
  H -nan -nan -nan
  H -nan -nan -nan
  H -nan -nan -nan
 20
 48.892472
  C -2.969134 -0.940448 1.323658
  C -1.467556 -0.592529 1.402049
  C -1.135042 0.000171 0.068915
  C -1.199196 0.381008 2.553437
  O -2.096028 0.947954 3.131739
  C 0.249274 0.582219 2.888893
  H -3.167855 -1.643811 0.521762
  H -3.564980 -0.041224 1.181610
  H -3.277761 -1.387342 2.266459
  H -0.913074 -1.514452 1.588609
  H -1.534543 0.996096 -0.102923
  H -1.234790 -0.681230 -0.767996
  H 0.050038 0.237674 0.014566
  H 0.880622 -0.218632 2.516700
  H 0.355696 0.661233 3.968688
  H 0.576309 1.537623 2.479197
  O 2.989316 0.443443 -0.263141
  H 1.025427 0.265501 -0.011879
  H 3.234776 0.903146 -1.068625
  H 3.436756 -0.409425 -0.255627
 20
 57.690693
  C -3.027009 -0.957085 1.342166
  C -1.529152 -0.581974 1.434197
  C -1.238370 -0.052155 0.092081
  C -1.265803 0.404583 2.581437
  O -2.167782 0.973390 3.152514
  C 0.178213 0.604780 2.920780
  H -3.207699 -1.685896 0.560256
  H -3.637118 -0.073990 1.175852
  H -3.322706 -1.379978 2.299406
  H -0.955404 -1.484740 1.656810
  H -1.614809 0.940897 -0.127578
  H -1.292864 -0.757302 -0.727518
  H 0.142170 0.243159 -0.010613
  H 0.808996 -0.193759 2.551740
  H 0.280395 0.686942 4.001068
  H 0.503193 1.558276 2.508395
  O 3.282249 0.469547 -0.380125
  H 1.025015 0.266531 -0.045916
  H 3.518046 0.876603 -1.223684
  H 3.730614 -0.383753 -0.329452
 20
 61.727777
  C -3.075575 -0.949838 1.353069
  C -1.566993 -0.605813 1.471930
  C -1.311857 -0.115478 0.118105
  C -1.309536 0.398249 2.605699
  O -2.217020 0.958248 3.178030
  C 0.134052 0.615319 2.930418
  H -3.265490 -1.691304 0.585403
  H -3.666832 -0.057183 1.170695
  H -3.381494 -1.347557 2.318657
  H -1.005114 -1.511071 1.715068
  H -1.675725 0.874860 -0.130320
  H -1.325473 -0.839561 -0.686188
  H 0.146793 0.219897 -0.021014
  H 0.770642 -0.183082 2.568947
  H 0.245093 0.720391 4.007234
  H 0.448576 1.561747 2.492735
  O 3.495679 0.518200 -0.474932
  H 1.034294 0.258952 -0.074183
  H 3.739929 0.871737 -1.336646
  H 3.979056 -0.307369 -0.356582
 20
 60.925123
  C -3.082204 -0.940762 1.369170
  C -1.562618 -0.651040 1.486959
  C -1.317273 -0.156606 0.122516
  C -1.314191 0.383789 2.595852
  O -2.227561 0.925933 3.177149
  C 0.128272 0.654121 2.884732
  H -3.300941 -1.681475 0.608177
  H -3.643308 -0.027556 1.195756
  H -3.406934 -1.332832 2.332709
  H -1.028330 -1.573833 1.722162
  H -1.681972 0.835795 -0.123138
  H -1.298972 -0.889192 -0.676033
  H -0.032967 0.158013 -0.011335
  H 0.779597 -0.143108 2.544746
  H 0.257325 0.810977 3.953075
  H 0.411210 1.588389 2.400863
  O 3.589845 0.515702 -0.469776
  H 0.928856 0.248818 -0.073231
  H 3.900042 0.886737 -1.295260
  H 4.105081 -0.276760 -0.306195
 20
 65.345917
  C -3.126178 -0.907150 1.325148
  C -1.597093 -0.667048 1.551153
  C -1.414690 -0.221028 0.180448
  C -1.373951 0.381313 2.648657
  O -2.297341 0.908925 3.222019
  C 0.056878 0.671802 2.931700
  H -3.346491 -1.656115 0.571931
  H -3.664697 0.017660 1.146481
  H -3.492205 -1.288281 2.282272
  H -1.097347 -1.605795 1.800521
  H -1.733063 0.775252 -0.094082
  H -1.334506 -0.968283 -0.600149
  H 0.032502 0.136468 -0.021176
  H 0.716366 -0.127874 2.613908
  H 0.182128 0.853172 3.998144
  H 0.332120 1.596892 2.427235
  O 3.859477 0.515667 -0.611761
  H 0.945746 0.227660 -0.103568
  H 4.191286 0.895084 -1.425851
  H 4.387676 -0.267119 -0.418782
 20
 70.520169
  C -3.156520 -0.883098 1.264872
  C -1.635711 -0.672618 1.619622
  C -1.519094 -0.266267 0.249023
  C -1.428853 0.379415 2.708647
  O -2.362021 0.921218 3.250924
  C 0.004790 0.653416 3.011718
  H -3.367484 -1.642415 0.518412
  H -3.695087 0.041669 1.071820
  H -3.549274 -1.252324 2.218395
  H -1.142409 -1.603708 1.892116
  H -1.800685 0.733938 -0.048795
  H -1.391420 -1.016400 -0.519105
  H 0.173990 0.153885 -0.042816
  H 0.662472 -0.156881 2.719757
  H 0.118575 0.835159 4.079711
  H 0.301964 1.572739 2.510962
  O 4.050894 0.555912 -0.770414
  H 1.012905 0.225915 -0.140559
  H 4.368511 0.909869 -1.606094
  H 4.581293 -0.218226 -0.563658
