 20
 0.000000
  H 1.499422 0.146869 0.419841
  C 2.579846 0.135953 0.391848
  C 3.270085 0.619963 1.592855
  C 2.326492 1.065548 2.700887
  H 2.888888 1.412407 3.562475
  C 3.178285 -0.326176 -0.757354
  C 4.561281 -0.403040 -0.949851
  C 5.198852 -0.865594 -2.105619
  C 4.515506 -1.350868 -3.319572
  H 3.437047 -1.320513 -3.246420
  O 6.500782 -0.895689 -2.180621
  H 3.934364 1.449629 1.322243
  H 3.935290 -0.165048 1.972380
  H 1.688993 0.245332 3.021108
  H 1.688440 1.878587 2.363870
  H 2.526529 -0.646717 -1.554990
  H 5.200738 -0.078565 -0.139107
  H 4.843604 -2.369234 -3.529337
  H 4.845195 -0.759048 -4.173819
  H 6.971500 -0.577669 -1.387789
 20
 -0.468460
  H 1.516353 0.237494 0.361840
  C 2.596626 0.177516 0.363777
  C 3.273767 0.619737 1.589146
  C 2.321183 1.115608 2.667130
  H 2.873348 1.427240 3.548096
  C 3.207553 -0.301149 -0.773653
  C 4.590276 -0.432876 -0.931726
  C 5.220436 -0.887767 -2.093674
  C 4.510992 -1.353992 -3.301408
  H 3.528527 -1.758032 -3.081960
  O 6.520034 -0.939616 -2.181046
  H 3.994904 1.410634 1.344865
  H 3.878182 -0.204577 1.987209
  H 1.627691 0.332952 2.962514
  H 1.743131 1.964582 2.312795
  H 2.566994 -0.586256 -1.593670
  H 5.225151 -0.125776 -0.108955
  H 5.119875 -2.094496 -3.814154
  H 4.392257 -0.513791 -3.988465
  H 7.011672 -0.583071 -1.416457
 20
 3.425479
  H 1.515530 0.258944 0.348141
  C 2.596044 0.203879 0.354252
  C 3.264816 0.625427 1.591048
  C 2.305463 1.097482 2.673617
  H 2.852577 1.389133 3.565688
  C 3.213362 -0.261628 -0.785079
  C 4.598734 -0.376762 -0.939370
  C 5.227927 -0.845239 -2.094383
  C 4.509286 -1.376378 -3.268685
  H 3.547453 -1.799208 -3.006507
  O 6.521293 -0.718776 -2.260267
  H 3.984272 1.421177 1.365226
  H 3.869610 -0.203810 1.977416
  H 1.609610 0.308734 2.946577
  H 1.729840 1.955369 2.334562
  H 2.579043 -0.515621 -1.619535
  H 5.224469 -0.085474 -0.105843
  H 5.131974 -2.120646 -3.760445
  H 4.349050 -0.580537 -3.998288
  H 7.090950 -0.830055 -1.477105
 20
 11.790079
  H 1.515848 0.345137 0.316609
  C 2.595065 0.273294 0.338831
  C 3.244845 0.625451 1.603804
  C 2.272050 1.053473 2.691829
  H 2.808693 1.307111 3.604604
  C 3.223596 -0.158690 -0.808048
  C 4.612806 -0.288825 -0.945793
  C 5.236417 -0.818121 -2.074480
  C 4.514292 -1.429836 -3.199159
  H 3.554173 -1.843657 -2.904456
  O 6.524520 -0.562853 -2.282519
  H 3.977534 1.421924 1.429687
  H 3.833535 -0.232158 1.959610
  H 1.574543 0.258719 2.921200
  H 1.702093 1.924522 2.381775
  H 2.603130 -0.356117 -1.668715
  H 5.213401 -0.039352 -0.082649
  H 5.137831 -2.198987 -3.655399
  H 4.351466 -0.679324 -3.980367
  H 7.188118 -1.067386 -1.783871
 20
 22.370582
  H 1.591600 0.400690 0.235643
  C 2.668562 0.336123 0.307460
  C 3.249211 0.676301 1.619264
  C 2.188703 0.935073 2.686880
  H 2.664960 1.244688 3.617281
  C 3.342456 -0.048340 -0.824557
  C 4.758760 -0.225829 -0.890605
  C 5.259910 -0.839750 -2.021717
  C 4.477912 -1.488796 -3.087346
  H 3.534591 -1.891773 -2.727636
  O 6.531890 -0.549742 -2.347121
  H 3.910064 1.545827 1.522922
  H 3.872413 -0.168226 1.953962
  H 1.571760 0.066948 2.868839
  H 1.549279 1.767868 2.386786
  H 2.762871 -0.189844 -1.721853
  H 5.112134 -0.067059 0.109790
  H 5.057580 -2.269968 -3.565054
  H 4.270425 -0.736070 -3.856972
  H 7.153255 -1.294001 -2.244271
 20
 66.849765
  H 1.639841 0.340978 0.242831
  C 2.724196 0.328901 0.294740
  C 3.293478 0.642153 1.631634
  C 2.208038 0.920557 2.670607
  H 2.658370 1.136301 3.636128
  C 3.384610 -0.012765 -0.831822
  C 4.902975 -0.179638 -0.902579
  C 5.164407 -0.918659 -2.006735
  C 4.435514 -1.538727 -3.094113
  H 3.478576 -1.944108 -2.780983
  O 6.452784 -0.467266 -2.373710
  H 3.938192 1.526858 1.564466
  H 3.894571 -0.208780 1.975707
  H 1.558686 0.059106 2.791615
  H 1.601459 1.773818 2.382029
  H 2.856525 -0.156322 -1.760330
  H 4.851901 0.136667 0.113805
  H 5.035634 -2.338941 -3.522408
  H 4.281632 -0.783995 -3.869262
  H 7.129291 -1.109421 -2.134595
 20
 104.751261
  H 1.543872 0.306036 0.434326
  C 2.605095 0.257624 0.367908
  C 3.309755 0.620657 1.641410
  C 2.290456 0.982959 2.746703
  H 2.815246 1.242765 3.668701
  C 3.105707 -0.110966 -0.785091
  C 4.865309 -0.232388 -0.981092
  C 4.982318 -0.979483 -2.045022
  C 4.548682 -1.557790 -3.312967
  H 3.540865 -1.919831 -3.265421
  O 6.370301 -0.395722 -2.132269
  H 3.979298 1.488803 1.489628
  H 3.917605 -0.228263 1.981954
  H 1.644572 0.133280 2.942412
  H 1.667563 1.842683 2.455423
  H 2.613238 -0.347692 -1.707336
  H 4.778980 0.249603 -0.037080
  H 5.187225 -2.379317 -3.580903
  H 4.641298 -0.782443 -4.059261
  H 7.057205 -0.984629 -1.796947
 20
 122.437662
  H 1.443799 0.347164 0.490537
  C 2.517682 0.276954 0.367040
  C 3.279990 0.613202 1.628548
  C 2.338314 0.989000 2.786386
  H 2.916154 1.228100 3.678876
  C 2.961744 -0.092865 -0.801721
  C 4.942854 -0.244085 -1.042265
  C 4.944800 -0.985850 -2.099663
  C 4.596843 -1.576731 -3.366163
  H 3.561594 -1.890333 -3.359919
  O 6.384358 -0.386444 -2.003924
  H 3.951532 1.464126 1.447293
  H 3.881026 -0.254619 1.922993
  H 1.668714 0.162578 3.022344
  H 1.734768 1.857417 2.541376
  H 2.492495 -0.329621 -1.722152
  H 4.811897 0.271357 -0.129483
  H 5.205647 -2.445772 -3.564538
  H 4.761009 -0.844172 -4.147102
  H 7.052402 -0.979525 -1.615928
 20
 130.906345
  H 1.372354 0.389152 0.603896
  C 2.444421 0.304855 0.388982
  C 3.304259 0.614347 1.586793
  C 2.467507 0.972344 2.810526
  H 3.111599 1.201610 3.656565
  C 2.811979 -0.043267 -0.801687
  C 5.201035 -0.191634 -1.177031
  C 4.879015 -0.946170 -2.153668
  C 4.495485 -1.648274 -3.312283
  H 3.464694 -1.982845 -3.172753
  O 6.463282 -0.264084 -1.976164
  H 3.961242 1.456647 1.354195
  H 3.919610 -0.257100 1.825332
  H 1.819484 0.145237 3.092518
  H 1.848641 1.846194 2.615059
  H 2.311190 -0.273153 -1.712361
  H 5.170537 0.266437 -0.219063
  H 5.112592 -2.534391 -3.463707
  H 4.553333 -1.004616 -4.191483
  H 7.118173 -0.890177 -1.596747
 20
 114.071104
  H 1.587169 0.345060 0.281590
  C 2.666558 0.249038 0.152770
  C 3.412176 0.498050 1.427588
  C 2.472828 0.813752 2.588979
  H 3.049023 0.990335 3.494668
  C 3.047103 -0.065452 -1.066705
  C 5.323741 -0.081540 -1.097261
  C 4.797519 -0.869217 -1.984818
  C 4.163651 -1.576522 -3.076896
  H 3.078638 -1.570143 -3.048508
  O 6.683276 -0.086977 -1.554168
  H 4.093798 1.343844 1.299429
  H 4.002099 -0.384584 1.686747
  H 1.792520 -0.009485 2.784674
  H 1.884775 1.705040 2.380520
  H 2.431682 -0.197358 -1.928198
  H 5.155729 0.361339 -0.139800
  H 4.487633 -2.623382 -3.076498
  H 4.492560 -1.140683 -4.026689
  H 7.269016 -0.543807 -0.924173
 20
 88.061982
  H 1.746455 0.472647 0.072097
  C 2.824387 0.300625 0.016785
  C 3.465702 0.415227 1.350387
  C 2.461329 0.721386 2.466236
  H 2.973860 0.779315 3.426996
  C 3.256436 0.001160 -1.213811
  C 5.391761 -0.030198 -1.076519
  C 4.642335 -0.857024 -1.851409
  C 3.967413 -1.594418 -2.916063
  H 2.932699 -1.371241 -3.094402
  O 6.735694 -0.046741 -1.369183
  H 4.206372 1.219822 1.361610
  H 3.974145 -0.520264 1.591770
  H 1.715126 -0.072214 2.555020
  H 1.949958 1.657270 2.286291
  H 2.579623 0.002570 -2.053648
  H 5.163929 0.490555 -0.178033
  H 4.046795 -2.661801 -2.719879
  H 4.538973 -1.433527 -3.844061
  H 7.308668 -0.324490 -0.641131
 20
 42.409010
  H 1.637032 0.289720 0.173691
  C 2.715211 0.155696 0.083911
  C 3.433730 0.425044 1.344633
  C 2.485852 0.788871 2.484745
  H 3.047719 0.961146 3.399571
  C 3.115383 -0.261334 -1.157041
  C 5.349844 -0.102233 -1.108334
  C 4.378035 -0.881283 -1.676299
  C 4.052581 -1.477232 -2.996429
  H 3.110154 -1.151642 -3.407029
  O 6.630790 -0.097813 -1.448267
  H 4.163412 1.237095 1.232088
  H 3.992520 -0.480758 1.630408
  H 1.757006 0.009118 2.668550
  H 1.953490 1.709957 2.254011
  H 2.319184 -0.353062 -1.878597
  H 5.136141 0.474004 -0.231094
  H 4.018890 -2.569830 -2.889248
  H 4.858675 -1.294218 -3.708473
  H 7.266770 -0.223781 -0.720341
 20
 12.523206
  H 1.511860 0.364091 0.244419
  C 2.573398 0.163280 0.120614
  C 3.373521 0.398251 1.335949
  C 2.511830 0.676674 2.564667
  H 3.140887 0.904126 3.426515
  C 2.940289 -0.299937 -1.111653
  C 5.347635 -0.082552 -1.137529
  C 4.212621 -0.702878 -1.635281
  C 4.197010 -1.422701 -2.932126
  H 3.468850 -0.994081 -3.611705
  O 6.505875 -0.145083 -1.725629
  H 4.039644 1.254768 1.185702
  H 4.017290 -0.467648 1.535010
  H 1.900398 -0.187973 2.814345
  H 1.854856 1.519604 2.394943
  H 2.118120 -0.430886 -1.807831
  H 5.264654 0.531605 -0.243610
  H 3.912156 -2.467345 -2.769486
  H 5.175954 -1.416713 -3.392494
  H 7.297277 -0.066127 -1.161919
 20
 7.794303
  H 1.461292 0.133848 0.316050
  C 2.531261 0.065029 0.154831
  C 3.345415 0.486938 1.308065
  C 2.500969 0.863805 2.520837
  H 3.138421 1.170805 3.345557
  C 2.905741 -0.416194 -1.070970
  C 5.374988 -0.228747 -1.071490
  C 4.178372 -0.649713 -1.649817
  C 4.224791 -1.326049 -2.971583
  H 3.395299 -1.019344 -3.602742
  O 6.510728 -0.415587 -1.675443
  H 3.957630 1.351522 1.027500
  H 4.037261 -0.315202 1.587799
  H 1.901522 0.019648 2.853832
  H 1.830379 1.686862 2.287553
  H 2.084497 -0.691269 -1.721896
  H 5.366391 0.282013 -0.118377
  H 4.143496 -2.406223 -2.832919
  H 5.167687 -1.133215 -3.475766
  H 7.307986 -0.330453 -1.118118
 20
 7.493586
  H 1.450425 0.179171 0.317951
  C 2.518117 0.091060 0.156184
  C 3.342482 0.502149 1.304977
  C 2.509124 0.920463 2.511860
  H 3.155072 1.219350 3.332928
  C 2.883417 -0.400889 -1.066935
  C 5.367311 -0.329343 -1.033814
  C 4.152246 -0.642925 -1.648586
  C 4.223181 -1.278714 -2.990043
  H 3.245870 -1.379491 -3.448688
  O 6.485160 -0.552896 -1.657355
  H 3.983935 1.341761 1.013754
  H 4.006798 -0.319183 1.595728
  H 1.884257 0.099542 2.855871
  H 1.863675 1.760531 2.266410
  H 2.057904 -0.660666 -1.717719
  H 5.389837 0.113899 -0.047950
  H 4.674384 -2.268717 -2.903324
  H 4.881108 -0.707652 -3.644175
  H 7.289822 -0.558975 -1.104172
