 23
 0.000000
  C 0.958733 0.142238 0.405928
  C 2.435627 0.138812 0.396949
  C 3.229471 0.606512 1.560312
  H 2.691778 0.951460 2.418681
  C 3.047724 -0.326485 -0.761128
  C 4.427680 -0.410350 -0.970580
  C 5.111749 -0.860636 -2.093538
  C 4.622398 -1.384411 -3.399794
  C 3.132979 -1.504809 -3.700598
  H 2.985456 -1.899227 -4.684250
  O 6.434575 -0.852273 -2.073085
  H 0.530877 0.513603 1.329858
  H 0.585106 -0.868946 0.237722
  H 0.584800 0.755552 -0.415298
  H 3.886571 1.416144 1.222870
  H 3.886751 -0.211308 1.877002
  H 2.388559 -0.643775 -1.550690
  H 5.047217 -0.079018 -0.145404
  H 5.082172 -2.371786 -3.523346
  H 5.082493 -0.756172 -4.171309
  H 2.655388 -0.525521 -3.650229
  H 2.655156 -2.177872 -2.987664
  H 6.800018 -0.516405 -1.234749
 23
 0.000000
  C 0.943872 0.160475 0.451397
  C 2.420777 0.157769 0.444209
  C 3.212982 0.625862 1.608531
  H 2.674081 0.970553 2.466245
  C 3.034504 -0.307235 -0.713123
  C 4.414754 -0.390429 -0.920901
  C 5.163645 -0.881891 -2.146530
  C 4.676133 -1.405907 -3.453376
  C 3.187138 -1.527028 -3.755987
  H 3.041000 -1.921521 -4.739815
  O 6.341105 -0.887351 -2.160536
  H 0.514715 0.531637 1.374806
  H 0.570942 -0.850891 0.282744
  H 0.570636 0.773603 -0.370285
  H 3.870096 1.435813 1.271881
  H 3.870276 -0.191636 1.926022
  H 2.376452 -0.624851 -1.503481
  H 5.033128 -0.058791 -0.094977
  H 5.136535 -2.393060 -3.576366
  H 5.136859 -0.777449 -4.224335
  H 2.709012 -0.547971 -3.706202
  H 2.708777 -2.200320 -3.043630
  H 6.655860 -0.554053 -1.328633
 23
 0.000000
  C 0.925012 0.180800 0.502070
  C 2.401922 0.178455 0.495777
  C 3.193307 0.646748 1.660576
  H 2.653802 0.991311 2.517962
  C 3.016464 -0.286406 -0.661180
  C 4.396860 -0.369264 -0.868121
  C 5.215947 -0.905982 -2.206591
  C 4.729356 -1.430121 -3.513732
  C 3.240574 -1.551602 -3.817247
  H 3.095129 -1.946134 -4.801162
  O 6.271566 -0.923819 -2.251451
  H 0.495205 0.551862 1.425216
  H 0.552431 -0.830658 0.333197
  H 0.552124 0.793832 -0.319842
  H 3.850427 1.456857 1.324320
  H 3.850608 -0.170588 1.978470
  H 2.358968 -0.604187 -1.451935
  H 5.014653 -0.037470 -0.041823
  H 5.190070 -2.417164 -3.636437
  H 5.190399 -0.801555 -4.284413
  H 2.762183 -0.572660 -3.767756
  H 2.761942 -2.225005 -3.105178
  H 6.550048 -0.589482 -1.416974
 23
 0.000000
  C 0.902317 0.203247 0.558030
  C 2.379227 0.200919 0.551779
  C 3.170573 0.669229 1.716598
  H 2.631039 1.013791 2.573966
  C 2.993808 -0.263941 -0.605158
  C 4.374211 -0.346783 -0.812059
  C 5.268726 -0.932891 -2.273677
  C 4.782178 -1.457040 -3.580830
  C 3.293407 -1.578534 -3.884389
  H 3.147995 -1.973072 -4.868308
  O 6.225515 -0.961684 -2.345843
  H 0.472479 0.574308 1.481161
  H 0.529754 -0.808218 0.389152
  H 0.529445 0.816269 -0.263897
  H 3.827692 1.479344 1.380356
  H 3.827875 -0.148097 2.034516
  H 2.336339 -0.581734 -1.395930
  H 4.991976 -0.014976 0.014254
  H 5.242904 -2.444079 -3.703518
  H 5.243240 -0.828473 -4.351500
  H 2.815006 -0.599596 -3.834917
  H 2.814759 -2.251939 -3.172332
  H 6.479097 -0.622804 -1.500058
 23
 0.000000
  C 0.876405 0.227495 0.618481
  C 2.353311 0.224889 0.611531
  C 3.145297 0.693055 1.775973
  H 2.606234 1.037724 2.633594
  C 2.967257 -0.240095 -0.545693
  C 4.347546 -0.323198 -0.753247
  C 5.321507 -0.962128 -2.346563
  C 4.834242 -1.486188 -3.653485
  C 3.345305 -1.607395 -3.956342
  H 3.199352 -2.001908 -4.940190
  O 6.201028 -1.000557 -2.442748
  H 0.447074 0.598643 1.541813
  H 0.503571 -0.783900 0.449785
  H 0.503260 0.840583 -0.203272
  H 3.802410 1.503044 1.439415
  H 3.802595 -0.124392 2.093585
  H 2.309354 -0.557768 -1.336153
  H 4.965765 0.008496 0.072772
  H 5.294719 -2.473317 -3.776386
  H 5.295062 -0.857713 -4.424375
  H 2.867116 -0.628364 -3.906648
  H 2.866862 -2.280705 -3.244057
  H 6.438544 -0.653860 -1.577487
 23
 0.000000
  C 0.848239 0.252993 0.682045
  C 2.325139 0.249885 0.673843
  C 3.118270 0.717790 1.837610
  H 2.580051 1.062646 2.695686
  C 2.937945 -0.215313 -0.483898
  C 4.318029 -0.298886 -0.692622
  C 5.373641 -0.992864 -2.423186
  C 4.885090 -1.516761 -3.729692
  C 3.395855 -1.637457 -4.031289
  H 3.248935 -2.031924 -5.015012
  O 6.194236 -1.039815 -2.540610
  H 0.419817 0.624292 1.605740
  H 0.474919 -0.758277 0.513672
  H 0.474606 0.866202 -0.139395
  H 3.775372 1.527554 1.500491
  H 3.775559 -0.099879 2.154670
  H 2.279264 -0.532768 -1.273798
  H 4.937060 0.032603 0.132870
  H 5.345123 -2.504049 -3.852979
  H 5.345474 -0.888448 -4.500974
  H 2.918045 -0.658262 -3.981195
  H 2.917783 -2.310599 -3.318596
  H 6.421936 -0.682565 -1.649047
 23
 0.000000
  C 0.818695 0.279264 0.747537
  C 2.295583 0.275515 0.737735
  C 3.090177 0.743082 1.900639
  H 2.553039 1.088177 2.759295
  C 2.906932 -0.189955 -0.420668
  C 4.286753 -0.274129 -0.630886
  C 5.424787 -1.024342 -2.501657
  C 4.934594 -1.548029 -3.807632
  C 3.444981 -1.668073 -4.107617
  H 3.296823 -2.062479 -5.091179
  O 6.200495 -1.078960 -2.638190
  H 0.391435 0.650754 1.671693
  H 0.444753 -0.731844 0.579574
  H 0.444437 0.892631 -0.073501
  H 3.747266 1.552559 1.562802
  H 3.747455 -0.074871 2.216990
  H 2.247258 -0.507128 -1.209851
  H 4.906822 0.057097 0.193933
  H 5.394060 -2.535519 -3.931413
  H 5.394418 -0.919920 -4.579414
  H 2.967655 -0.688668 -4.057010
  H 2.967385 -2.341003 -3.394406
  H 6.422094 -0.709167 -1.715363
 23
 0.000000
  C 0.788304 0.306056 0.814327
  C 2.265178 0.301593 0.802740
  C 3.061402 0.768780 1.964682
  H 2.525468 1.114139 2.823985
  C 2.874902 -0.164179 -0.356397
  C 4.254427 -0.249021 -0.568281
  C 5.474975 -1.056088 -2.580795
  C 4.982951 -1.579540 -3.886177
  C 3.492919 -1.698857 -4.184365
  H 3.343383 -2.093194 -5.167745
  O 6.215910 -1.117763 -2.734920
  H 0.362341 0.677757 1.738996
  H 0.413671 -0.704872 0.646821
  H 0.413353 0.919601 -0.006263
  H 3.718474 1.577938 1.626048
  H 3.718666 -0.049489 2.280243
  H 2.214122 -0.481037 -1.144781
  H 4.875652 0.081908 0.255787
  H 5.441786 -2.567254 -4.010507
  H 5.442152 -0.951658 -4.658515
  H 3.016133 -0.719219 -4.133185
  H 3.015856 -2.371552 -3.470575
  H 6.433004 -0.734135 -1.777601
 23
 0.000000
  C 0.757311 0.333287 0.882209
  C 2.234166 0.328081 0.868769
  C 3.032084 0.794873 2.029707
  H 2.497403 1.140506 2.889680
  C 2.842200 -0.138003 -0.291130
  C 4.221415 -0.223540 -0.504746
  C 5.524387 -1.087850 -2.659972
  C 5.030461 -1.611056 -3.964734
  C 3.539996 -1.729618 -4.261053
  H 3.389027 -2.123881 -5.244244
  O 6.237849 -1.156176 -2.830674
  H 0.332696 0.705207 1.807411
  H 0.381959 -0.677453 0.715180
  H 0.381638 0.947016 0.062088
  H 3.689137 1.603698 1.690244
  H 3.689332 -0.023725 2.344448
  H 2.180271 -0.454532 -1.078683
  H 4.843841 0.107080 0.318539
  H 5.488638 -2.599003 -4.089636
  H 5.489012 -0.983409 -4.737649
  H 3.063772 -0.749737 -4.209279
  H 3.063486 -2.402068 -3.546663
  H 6.450429 -0.757938 -1.836934
 23
 0.000000
  C 0.725784 0.360960 0.951195
  C 2.202618 0.355012 0.935903
  C 3.002225 0.821410 2.095838
  H 2.468796 1.167315 2.956479
  C 2.808964 -0.111382 -0.224755
  C 4.187867 -0.197613 -0.440099
  C 5.573202 -1.119482 -2.738824
  C 5.077379 -1.642441 -4.042964
  C 3.586484 -1.760248 -4.337417
  H 3.434084 -2.154437 -5.320417
  O 6.264727 -1.194217 -2.925501
  H 0.302516 0.733098 1.876926
  H 0.349715 -0.649592 0.784642
  H 0.349391 0.974874 0.131543
  H 3.659258 1.629903 1.755547
  H 3.659456 0.002483 2.409758
  H 2.145889 -0.427582 -1.011475
  H 4.811490 0.132699 0.382403
  H 5.534898 -2.630621 -4.168436
  H 5.535280 -1.015029 -4.816455
  H 3.110822 -0.780126 -4.285051
  H 3.110528 -2.432454 -3.622429
  H 6.471595 -0.780943 -1.894280
 23
 0.000000
  C 0.693698 0.389120 1.021392
  C 2.170510 0.382451 1.004301
  C 2.971757 0.848463 2.163258
  H 2.439546 1.194633 3.024546
  C 2.775214 -0.084244 -0.157093
  C 4.153811 -0.171148 -0.374117
  C 5.621534 -1.150867 -2.817059
  C 5.123867 -1.673585 -4.120594
  C 3.632557 -1.790658 -4.413233
  H 3.478768 -2.184775 -5.396046
  O 6.295650 -1.231918 -3.019480
  H 0.271740 0.761468 1.947636
  H 0.316935 -0.621250 0.855302
  H 0.316607 1.003214 0.202195
  H 3.628769 1.656635 1.822163
  H 3.628970 0.029218 2.476382
  H 2.111027 -0.400124 -0.943003
  H 4.778597 0.158862 0.447624
  H 5.580746 -2.661990 -4.246620
  H 5.581136 -1.046401 -4.894643
  H 3.157442 -0.810302 -4.360291
  H 3.157140 -2.462628 -3.697664
  H 6.494707 -0.803396 -1.950248
 23
 0.000000
  C 0.660967 0.417832 1.092966
  C 2.137754 0.410479 1.074165
  C 2.940558 0.876125 2.232192
  H 2.409504 1.222544 3.094094
  C 2.740897 -0.056502 -0.087925
  C 4.119201 -0.144046 -0.306544
  C 5.669411 -1.181874 -2.894351
  C 5.169993 -1.704361 -4.197308
  C 3.678291 -1.820737 -4.488223
  H 3.523182 -2.214784 -5.470856
  O 6.330125 -1.269288 -3.112632
  H 0.240253 0.790379 2.019695
  H 0.283542 -0.592364 0.927316
  H 0.283212 1.032097 0.274203
  H 3.597549 1.683990 1.890333
  H 3.597753 0.056576 2.544559
  H 2.075654 -0.372078 -0.873065
  H 4.745091 0.185679 0.514471
  H 5.626263 -2.692981 -4.323858
  H 5.626661 -1.077394 -4.971887
  H 3.203697 -0.840158 -4.434736
  H 3.203386 -2.492482 -3.772104
  H 6.518564 -0.825424 -2.005157
 23
 0.000000
  C 0.627429 0.447194 1.166159
  C 2.104192 0.439206 1.145773
  C 2.908439 0.904512 2.302935
  H 2.378460 1.251163 3.165405
  C 2.705886 -0.028039 -0.016962
  C 4.083918 -0.116176 -0.237060
  C 5.716766 -1.212321 -2.970247
  C 5.215725 -1.734595 -4.272667
  C 3.723662 -1.850322 -4.561983
  H 3.567328 -2.244304 -5.544448
  O 6.367863 -1.306288 -3.204863
  H 0.207871 0.819926 2.093338
  H 0.249393 -0.562840 1.000920
  H 0.249060 1.061618 0.347799
  H 3.565410 1.712093 1.960367
  H 3.565617 0.084682 2.614600
  H 2.039666 -0.343332 -0.801385
  H 4.710830 0.213283 0.583281
  H 5.671429 -2.723413 -4.399703
  H 5.671835 -1.107828 -5.047737
  H 3.249552 -0.869537 -4.507990
  H 3.249233 -2.521859 -3.845353
  H 6.542309 -0.847037 -2.059033
 23
 0.000000
  C 0.592803 0.477368 1.241376
  C 2.069542 0.468811 1.219568
  C 2.875082 0.933811 2.375953
  H 2.346067 1.280670 3.238932
  C 2.669936 0.001330 0.056256
  C 4.047721 -0.087340 -0.165168
  C 5.763409 -1.241927 -3.044046
  C 5.260913 -1.764008 -4.345982
  C 3.768527 -1.879154 -4.633865
  H 3.611096 -2.273077 -5.616178
  O 6.408618 -1.342782 -3.295833
  H 0.174281 0.850266 2.168957
  H 0.214218 -0.532520 1.076505
  H 0.213882 1.091935 0.423378
  H 3.532034 1.741138 2.032749
  H 3.532244 0.113729 2.686989
  H 2.002839 -0.313710 -0.727524
  H 4.675550 0.241881 0.654568
  H 5.716108 -2.753005 -4.473454
  H 5.716523 -1.137421 -5.121492
  H 3.294852 -0.898183 -4.579419
  H 3.294525 -2.550504 -3.916778
  H 6.565231 -0.868099 -2.111537
