9

H 1.3416395074946446 0.05167076785999148 0.21999307443634797
C 2.403241 0.059205 0.086406
C 3.241848 -0.012388 1.355317
H 2.740334460930618 -0.06564117199105379 2.299005650881738
C 2.996884 0.127487 -1.123676
H 2.544167676596036 0.18210613755031516 -2.0916453591931807
H 4.065031171499793 0.13103644573433038 -1.1865172400575446
H 3.887252 0.871678 1.38603
H 3.887254 -0.894302 1.286383
