30

C      1.829324   -0.255399    0.874407
C      3.159633    0.496944    0.965685
C      3.813806    0.733079   -0.396989
H      4.033771   -0.455484   -1.119599
C      0.742191    0.567838    0.183723
C     -0.662176   -0.050491    0.270614
C     -1.651790    0.957520   -0.396045
C     -3.034696    0.751420    0.018669
O     -4.419934    2.912614   -1.220189
C     -0.661659   -1.440158   -0.367186
C     -2.011420   -2.146510   -0.448330
H     -2.618637   -2.134292    0.827465
H      1.500273   -0.500766    1.886891
H      1.994449   -1.187775    0.334036
H      3.009405    1.463014    1.450486
H      3.849434   -0.082845    1.586623
H      3.174374    1.350240   -1.030512
H      4.765866    1.266905   -0.252400
H      1.000331    0.709643   -0.866305
H      0.716266    1.551803    0.658550
H     -0.935073   -0.148232    1.325152
H     -1.346359    1.952275   -0.059280
H     -1.543024    0.917666   -1.480851
H     -3.273074    0.931435    1.055841
H     -3.638072   -0.018834   -0.424224
H     -3.908575    3.676881   -0.904613
H     -0.010558   -2.069567    0.240691
H     -0.244387   -1.385999   -1.374675
H     -2.656981   -1.660078   -1.191978
H     -1.840757   -3.178681   -0.785839
