 28
 0.000000
  C 0.965345 0.145882 0.415345
  C 2.438364 0.141300 0.403011
  C 3.234088 0.606665 1.560310
  C 2.469117 1.098011 2.783454
  H 3.158932 1.409039 3.556989
  C 3.050464 -0.324608 -0.756718
  C 4.430477 -0.413859 -0.979662
  C 5.089702 -0.862660 -2.098476
  C 4.611340 -1.381731 -3.392781
  C 3.126636 -1.507861 -3.708534
  C 2.927069 -2.071441 -5.113844
  H 6.169886 -0.852244 -2.072493
  H 0.539983 0.517522 1.340116
  H 0.590921 -0.864851 0.246235
  H 0.590387 0.758172 -0.406177
  H 3.892760 1.413182 1.218549
  H 3.893245 -0.211672 1.871609
  H 1.836330 0.308598 3.185067
  H 1.835917 1.945537 2.527273
  H 2.390600 -0.642366 -1.547374
  H 5.063160 -0.086987 -0.165762
  H 5.077995 -2.367984 -3.516240
  H 5.078630 -0.754570 -4.163511
  H 2.645694 -0.529692 -3.661777
  H 2.645103 -2.182320 -2.998937
  H 3.373737 -1.421712 -5.863031
  H 1.866301 -2.159844 -5.335222
  H 3.373201 -3.059051 -5.206328
 28
 0.046303
  C 0.968395 -0.134755 0.543933
  C 2.432471 -0.025680 0.448732
  C 3.224502 0.735348 1.439198
  C 2.463486 1.417338 2.563513
  H 3.166499 1.935784 3.210934
  C 3.041640 -0.655432 -0.633732
  C 4.424720 -0.707992 -0.865823
  C 5.079385 -1.149592 -1.987461
  C 4.609393 -1.476081 -3.338646
  C 3.129707 -1.449435 -3.689221
  C 2.930340 -1.687491 -5.183441
  H 6.161347 -1.208569 -1.902857
  H 0.554742 0.379999 1.396648
  H 0.679722 -1.188852 0.585370
  H 0.505637 0.255295 -0.366173
  H 3.811217 1.489285 0.904124
  H 3.963784 0.053898 1.879048
  H 1.921454 0.696002 3.172124
  H 1.760160 2.154560 2.178644
  H 2.383842 -1.169404 -1.319167
  H 5.061216 -0.402999 -0.044894
  H 5.026020 -2.461955 -3.594326
  H 5.145005 -0.794342 -4.016977
  H 2.701460 -0.479789 -3.428626
  H 2.601439 -2.231816 -3.144013
  H 3.429396 -0.920434 -5.771288
  H 1.874383 -1.665996 -5.432710
  H 3.326326 -2.658013 -5.480799
 28
 1.443545
  C 0.989862 -0.388839 0.655304
  C 2.435026 -0.190332 0.458462
  C 3.204690 0.802655 1.239999
  C 2.436134 1.645586 2.246927
  H 3.121103 2.333731 2.737702
  C 3.057044 -0.948920 -0.525919
  C 4.444003 -0.986066 -0.766372
  C 5.099891 -1.388050 -1.897925
  C 4.623066 -1.506243 -3.281457
  C 3.146159 -1.322424 -3.596506
  C 2.912183 -1.327127 -5.104952
  H 6.169558 -1.533175 -1.803710
  H 0.572452 0.242705 1.428662
  H 0.792828 -1.433953 0.896832
  H 0.456850 -0.203600 -0.277728
  H 3.722085 1.469248 0.540753
  H 4.005916 0.267914 1.764372
  H 1.977917 1.028287 3.016981
  H 1.663121 2.237485 1.762303
  H 2.421907 -1.592963 -1.114318
  H 5.072279 -0.797733 0.096604
  H 4.961538 -2.478011 -3.664902
  H 5.206754 -0.782219 -3.867864
  H 2.793574 -0.374314 -3.184666
  H 2.565913 -2.131973 -3.156211
  H 3.460766 -0.522109 -5.588126
  H 1.857062 -1.193450 -5.326191
  H 3.230952 -2.268929 -5.545280
 28
 4.698507
  C 1.004437 -0.532086 0.705343
  C 2.442412 -0.317738 0.461294
  C 3.184291 0.812790 1.060290
  C 2.410762 1.750632 1.973997
  H 3.080292 2.520834 2.350382
  C 3.082660 -1.173158 -0.420830
  C 4.465641 -1.146581 -0.719164
  C 5.117426 -1.543703 -1.847414
  C 4.632085 -1.523795 -3.235609
  C 3.174264 -1.158253 -3.486602
  C 2.889539 -1.066562 -4.981661
  H 6.166602 -1.797968 -1.751121
  H 0.581868 0.176032 1.403804
  H 0.841976 -1.546203 1.074807
  H 0.452009 -0.472063 -0.231219
  H 3.634661 1.397468 0.253407
  H 4.038502 0.396259 1.613347
  H 1.998529 1.220778 2.832586
  H 1.603617 2.243879 1.444740
  H 2.485977 -1.956815 -0.864831
  H 5.089309 -1.031334 0.161633
  H 4.845200 -2.510877 -3.674094
  H 5.281311 -0.837622 -3.790009
  H 2.949364 -0.196416 -3.021889
  H 2.520281 -1.909098 -3.055086
  H 3.493426 -0.292512 -5.446392
  H 1.844297 -0.824966 -5.155825
  H 3.105235 -2.010850 -5.476986
 28
 8.345424
  C 1.013946 -0.636521 0.829448
  C 2.404032 -0.372643 0.416851
  C 3.152266 0.827335 0.860093
  C 2.409964 1.834799 1.729377
  H 3.079943 2.651344 1.990770
  C 3.038241 -1.309072 -0.381190
  C 4.431834 -1.332752 -0.667655
  C 5.099365 -1.691543 -1.796094
  C 4.639866 -1.536882 -3.187025
  C 3.217864 -1.031938 -3.399483
  C 2.923585 -0.865613 -4.884742
  H 6.127321 -2.013707 -1.697836
  H 0.606943 0.134157 1.470187
  H 0.963121 -1.595720 1.341112
  H 0.374451 -0.738732 -0.044346
  H 3.538661 1.342149 -0.024686
  H 4.050861 0.484115 1.388198
  H 2.069824 1.381866 2.657916
  H 1.552721 2.255863 1.209755
  H 2.432791 -2.115583 -0.778440
  H 5.028329 -1.329213 0.237569
  H 4.766951 -2.507723 -3.685328
  H 5.349248 -0.870487 -3.697059
  H 3.094838 -0.069075 -2.905123
  H 2.503691 -1.733148 -2.978224
  H 3.599809 -0.145960 -5.339881
  H 1.905556 -0.515575 -5.034231
  H 3.032424 -1.811857 -5.408175
 28
 12.409810
  C 1.014245 -0.615544 0.785405
  C 2.421405 -0.408618 0.396966
  C 3.173644 0.811305 0.763488
  C 2.425778 1.873796 1.552552
  H 3.075847 2.732750 1.708565
  C 3.060444 -1.413389 -0.308329
  C 4.454241 -1.437546 -0.637716
  C 5.105405 -1.780224 -1.765503
  C 4.632487 -1.555066 -3.151090
  C 3.223932 -0.997782 -3.299842
  C 2.895083 -0.728127 -4.766676
  H 6.121467 -2.135611 -1.689758
  H 0.604557 0.213186 1.347269
  H 0.928859 -1.533046 1.370463
  H 0.391730 -0.777213 -0.099632
  H 3.571036 1.263785 -0.151362
  H 4.061825 0.500608 1.323893
  H 2.121758 1.504297 2.526910
  H 1.541040 2.222284 1.014462
  H 2.464420 -2.279246 -0.583752
  H 5.003625 -1.583567 0.299646
  H 4.700545 -2.521621 -3.664754
  H 5.347557 -0.902477 -3.656531
  H 3.135552 -0.065998 -2.739534
  H 2.497860 -1.707190 -2.902310
  H 3.609968 -0.032339 -5.203146
  H 1.901664 -0.295636 -4.861365
  H 2.919996 -1.647934 -5.345709
 28
 13.735134
  C 1.001257 -0.549990 0.630166
  C 2.442551 -0.488376 0.344877
  C 3.262601 0.698684 0.669376
  C 2.535214 1.893191 1.252833
  H 3.250692 2.700257 1.437009
  C 3.047349 -1.606385 -0.209802
  C 4.448773 -1.728799 -0.554039
  C 5.143182 -1.769537 -1.693406
  C 4.622510 -1.433703 -3.049445
  C 3.171229 -0.961734 -3.121287
  C 2.773091 -0.619726 -4.557851
  H 6.195584 -2.039584 -1.664636
  H 0.622562 0.350938 1.102681
  H 0.788307 -1.419782 1.262344
  H 0.433200 -0.724545 -0.292810
  H 3.800955 1.011740 -0.231132
  H 4.060009 0.377653 1.361517
  H 2.060926 1.645329 2.198233
  H 1.772511 2.273019 0.566618
  H 2.430259 -2.477221 -0.408866
  H 4.941307 -1.951064 0.397944
  H 4.740568 -2.325920 -3.655535
  H 5.278870 -0.673830 -3.482471
  H 3.036005 -0.070357 -2.496629
  H 2.507856 -1.748612 -2.748617
  H 3.420331 0.153260 -4.962637
  H 1.744486 -0.257056 -4.595140
  H 2.847476 -1.498752 -5.200205
 28
 19.515840
  C 1.009818 -0.587180 0.938458
  C 2.387673 -0.567650 0.409820
  C 3.244633 0.627787 0.455428
  C 2.610854 1.917882 0.937678
  H 3.348965 2.717043 0.906409
  C 2.897999 -1.747474 -0.122607
  C 4.239674 -1.937600 -0.589156
  C 5.050915 -1.791593 -1.609844
  C 4.663175 -1.276963 -2.967948
  C 3.183404 -0.967103 -3.147830
  C 2.905551 -0.446284 -4.552552
  H 6.092292 -2.077599 -1.523652
  H 0.707646 0.361288 1.358726
  H 0.922428 -1.367056 1.705015
  H 0.298774 -0.862585 0.155331
  H 3.678856 0.776780 -0.535256
  H 4.111189 0.399402 1.099779
  H 2.245602 1.833679 1.962420
  H 1.785160 2.210777 0.292572
  H 2.214323 -2.577826 -0.254268
  H 4.536034 -2.353268 0.409037
  H 4.968244 -2.035563 -3.699137
  H 5.264833 -0.380838 -3.172930
  H 2.867950 -0.210648 -2.423484
  H 2.592503 -1.871622 -2.979105
  H 3.482680 0.456177 -4.751478
  H 1.854846 -0.210141 -4.668165
  H 3.171325 -1.191715 -5.302595
 28
 33.722484
  C 1.046662 -0.585765 1.178971
  C 2.393848 -0.484438 0.585051
  C 3.183832 0.770253 0.549061
  C 2.534858 2.004882 1.156893
  H 3.203853 2.854023 1.052053
  C 2.933063 -1.633682 0.000950
  C 4.135276 -1.743840 -0.728896
  C 5.003314 -1.760798 -1.693343
  C 4.697806 -1.394235 -3.117323
  C 3.236585 -1.043192 -3.377571
  C 3.026284 -0.639081 -4.832640
  H 6.030915 -2.055006 -1.522555
  H 0.729992 0.338001 1.644434
  H 1.012126 -1.387479 1.915638
  H 0.313899 -0.856028 0.411999
  H 3.429881 0.979170 -0.501596
  H 4.151467 0.599339 1.031376
  H 2.345039 1.868126 2.219006
  H 1.600638 2.249525 0.658694
  H 2.261820 -2.486045 -0.067293
  H 4.222979 -2.134262 0.411189
  H 4.996603 -2.228091 -3.752378
  H 5.333919 -0.544606 -3.386107
  H 2.938955 -0.218162 -2.731084
  H 2.607750 -1.902838 -3.144917
  H 3.627765 0.229459 -5.083985
  H 1.985815 -0.394682 -5.014413
  H 3.305368 -1.451370 -5.504487
 28
 40.083972
  C 1.058578 -0.594247 1.344985
  C 2.365177 -0.516501 0.665405
  C 3.185108 0.715378 0.572257
  C 2.580279 1.977812 1.172167
  H 3.261314 2.812124 1.023812
  C 2.862061 -1.711447 0.058962
  C 3.950756 -1.749359 -0.833080
  C 4.883565 -1.753535 -1.719313
  C 4.692678 -1.365927 -3.161332
  C 3.260929 -0.972965 -3.512074
  C 3.152359 -0.564447 -4.977254
  H 5.899579 -2.047706 -1.478635
  H 0.768684 0.349146 1.790872
  H 1.076616 -1.358762 2.123896
  H 0.279937 -0.898095 0.641669
  H 3.407918 0.894174 -0.486785
  H 4.159950 0.535928 1.044932
  H 2.417737 1.870231 2.241692
  H 1.636270 2.229735 0.694443
  H 2.162708 -2.543666 0.016048
  H 3.889521 -2.121508 0.541031
  H 5.008741 -2.209895 -3.778035
  H 5.371512 -0.536762 -3.375770
  H 2.942645 -0.140978 -2.882763
  H 2.593916 -1.814384 -3.323355
  H 3.795546 0.286324 -5.191098
  H 2.130347 -0.285589 -5.221641
  H 3.444274 -1.383768 -5.630196
 28
 39.171600
  C 1.073851 -0.599825 1.455853
  C 2.350993 -0.510619 0.730348
  C 3.157541 0.722486 0.602722
  C 2.571461 1.983854 1.224792
  H 3.241659 2.820684 1.047006
  C 2.842152 -1.716676 0.099894
  C 3.846209 -1.693681 -0.898384
  C 4.812912 -1.704979 -1.742818
  C 4.692281 -1.343030 -3.200427
  C 3.276652 -0.961487 -3.622070
  C 3.232589 -0.578886 -5.096813
  H 5.821501 -1.987127 -1.454850
  H 0.791651 0.341111 1.914750
  H 1.126728 -1.366779 2.232701
  H 0.273587 -0.911435 0.781134
  H 3.337991 0.898376 -0.466804
  H 4.150009 0.548221 1.034277
  H 2.452847 1.877724 2.301679
  H 1.608192 2.230083 0.785688
  H 2.134215 -2.542924 0.056001
  H 3.781382 -2.103595 0.627235
  H 5.038745 -2.196263 -3.787312
  H 5.377329 -0.515291 -3.397544
  H 2.928309 -0.119485 -3.021099
  H 2.603287 -1.803487 -3.448069
  H 3.882619 0.270861 -5.296375
  H 2.222262 -0.308242 -5.391100
  H 3.555656 -1.408617 -5.721605
 28
 36.769241
  C 1.087565 -0.557611 1.480118
  C 2.363849 -0.489202 0.760328
  C 3.178352 0.728664 0.604505
  C 2.615090 2.007557 1.211917
  H 3.294196 2.831713 1.014007
  C 2.852045 -1.720633 0.147258
  C 3.800207 -1.666453 -0.908982
  C 4.774374 -1.663790 -1.741289
  C 4.677452 -1.322855 -3.207270
  C 3.260186 -0.984243 -3.661009
  C 3.233907 -0.614836 -5.139882
  H 5.785726 -1.917761 -1.434617
  H 0.808217 0.391597 1.923268
  H 1.130700 -1.314260 2.268473
  H 0.289282 -0.880037 0.805924
  H 3.350709 0.881604 -0.469876
  H 4.174330 0.548309 1.024843
  H 2.506077 1.920751 2.291259
  H 1.650469 2.259690 0.778205
  H 2.099642 -2.504382 0.055698
  H 3.659369 -2.120411 0.796455
  H 5.057639 -2.171480 -3.776654
  H 5.342613 -0.479290 -3.398847
  H 2.875928 -0.146366 -3.072928
  H 2.606495 -1.843781 -3.492627
  H 3.865107 0.249059 -5.334285
  H 2.220848 -0.372622 -5.455987
  H 3.590351 -1.441993 -5.752272
 28
 35.764827
  C 1.110461 -0.586876 1.487551
  C 2.390502 -0.480113 0.779649
  C 3.189637 0.753535 0.675100
  C 2.600662 2.003470 1.310569
  H 3.268157 2.837984 1.149738
  C 2.914105 -1.693618 0.138599
  C 3.814223 -1.595119 -0.952229
  C 4.780116 -1.580705 -1.791549
  C 4.669944 -1.269838 -3.264471
  C 3.236835 -0.986600 -3.716457
  C 3.191060 -0.642247 -5.197968
  H 5.802907 -1.798103 -1.485075
  H 0.811358 0.347086 1.955161
  H 1.157647 -1.362013 2.252179
  H 0.327141 -0.902132 0.800352
  H 3.375300 0.941023 -0.389442
  H 4.186160 0.573774 1.106191
  H 2.476907 1.880614 2.384592
  H 1.638406 2.257640 0.868087
  H 2.186165 -2.495657 0.031659
  H 3.692841 -2.056044 0.844134
  H 5.075649 -2.113689 -3.820227
  H 5.307454 -0.405707 -3.474638
  H 2.826921 -0.152469 -3.139913
  H 2.615298 -1.866436 -3.529270
  H 3.791497 0.242654 -5.410668
  H 2.172076 -0.441485 -5.510992
  H 3.574219 -1.467595 -5.798326
 28
 35.002251
  C 1.162635 -0.601140 1.559221
  C 2.400706 -0.469247 0.789065
  C 3.145750 0.783829 0.613226
  C 2.569788 2.025831 1.279239
  H 3.200605 2.880541 1.058508
  C 2.946332 -1.685191 0.156178
  C 3.804633 -1.555483 -0.970897
  C 4.775611 -1.501501 -1.802997
  C 4.676343 -1.183963 -3.273236
  C 3.243176 -0.960641 -3.742322
  C 3.202510 -0.609718 -5.222149
  H 5.800661 -1.698487 -1.488430
  H 0.859293 0.331283 2.026390
  H 1.269507 -1.363642 2.333367
  H 0.354051 -0.953077 0.914703
  H 3.245047 0.959726 -0.465857
  H 4.173802 0.637350 0.960255
  H 2.530953 1.913794 2.361394
  H 1.568338 2.245901 0.909407
  H 2.197459 -2.468411 0.033359
  H 3.679550 -2.055483 0.898210
  H 5.126874 -2.004938 -3.831870
  H 5.275931 -0.292255 -3.466618
  H 2.792716 -0.151368 -3.167491
  H 2.660329 -1.865004 -3.570614
  H 3.766852 0.296877 -5.419604
  H 2.179706 -0.449995 -5.548368
  H 3.626297 -1.411774 -5.821264
 28
 33.267440
  C 1.223324 -0.612875 1.684149
  C 2.372911 -0.477372 0.786357
  C 3.060596 0.786926 0.502235
  C 2.594234 2.020130 1.262322
  H 3.180451 2.881083 0.953886
  C 2.868634 -1.685632 0.106306
  C 3.812626 -1.545917 -0.941830
  C 4.788748 -1.442917 -1.761598
  C 4.707944 -1.136286 -3.236869
  C 3.276850 -0.966941 -3.737523
  C 3.254339 -0.643733 -5.226497
  H 5.814132 -1.596196 -1.425837
  H 1.056978 0.279143 2.277005
  H 1.335839 -1.469402 2.346902
  H 0.317210 -0.805451 1.104272
  H 2.976791 0.968304 -0.579293
  H 4.136512 0.636861 0.663099
  H 2.726882 1.895926 2.334178
  H 1.550603 2.238907 1.059233
  H 2.048721 -2.351613 -0.184106
  H 3.403503 -2.273149 0.874731
  H 5.199371 -1.945401 -3.781475
  H 5.279722 -0.224627 -3.423225
  H 2.788644 -0.160684 -3.186670
  H 2.718112 -1.887552 -3.559707
  H 3.791723 0.279435 -5.430420
  H 2.231838 -0.525170 -5.576473
  H 3.718217 -1.441986 -5.802348
