 20
 0.000000
  C 1.047971 -0.113119 -0.038850
  C 2.544326 -0.134358 -0.037837
  C 3.259983 -1.264230 -0.044636
  C 4.697980 -1.287779 -0.045163
  C 5.417951 -2.423367 -0.051990
  C 6.856624 -2.444578 -0.052543
  C 7.574478 -3.572415 -0.059326
  C 9.064585 -3.614922 -0.060013
  H 0.686033 0.914482 -0.032649
  H 0.651153 -0.613533 0.844403
  H 0.652773 -0.601153 -0.930423
  H 3.043249 0.825868 -0.032854
  H 2.748615 -2.219226 -0.050027
  H 5.202777 -0.329612 -0.039736
  H 4.913656 -3.381729 -0.057426
  H 7.363642 -1.487349 -0.047126
  H 7.075523 -4.533630 -0.064770
  H 9.498913 -2.616504 -0.054324
  H 9.423418 -4.140551 -0.946440
  H 9.423940 -4.150835 0.820021
 20
 3.611062
  C 1.051434 -0.096009 -0.013818
  C 2.522003 -0.133406 -0.028198
  C 3.246605 -1.258744 -0.032813
  C 4.682746 -1.288769 -0.044874
  C 5.409821 -2.418348 -0.048340
  C 6.845114 -2.446260 -0.056089
  C 7.569977 -3.567670 -0.059193
  C 9.058596 -3.613645 -0.067845
  H 0.649620 0.911067 -0.046341
  H 0.612478 -0.634316 0.824027
  H 0.882854 -0.615452 -0.933331
  H 3.039071 0.818722 -0.025281
  H 2.742080 -2.218109 -0.032066
  H 5.186573 -0.329981 -0.048522
  H 4.906374 -3.376915 -0.043990
  H 7.346416 -1.486132 -0.059850
  H 7.071323 -4.528781 -0.055405
  H 9.482391 -2.612147 -0.071255
  H 9.415483 -4.148427 -0.948735
  H 9.425655 -4.146729 0.809881
 20
 11.614743
  C 1.042570 -0.089071 -0.005958
  C 2.517318 -0.131935 -0.006228
  C 3.238881 -1.258735 -0.007744
  C 4.670905 -1.290599 -0.037995
  C 5.397385 -2.419486 -0.035501
  C 6.839212 -2.448303 -0.060399
  C 7.560327 -3.562349 -0.057382
  C 9.049351 -3.607569 -0.082830
  H 0.616125 0.911765 -0.069636
  H 0.568627 -0.680331 0.770352
  H 1.101839 -0.601730 -0.948469
  H 3.053109 0.813247 0.007130
  H 2.734930 -2.219771 0.003216
  H 5.176507 -0.330980 -0.059303
  H 4.891425 -3.380523 -0.011947
  H 7.341729 -1.485154 -0.082839
  H 7.059688 -4.525790 -0.034853
  H 9.472213 -2.603305 -0.104427
  H 9.396987 -4.155250 -0.961174
  H 9.427798 -4.130313 0.797931
 20
 22.110057
  C 1.007270 -0.070857 0.009163
  C 2.502307 -0.130746 -0.009433
  C 3.220034 -1.258216 -0.007775
  C 4.654726 -1.290015 -0.040812
  C 5.390090 -2.427863 -0.033771
  C 6.846689 -2.454302 -0.064117
  C 7.575023 -3.571736 -0.056796
  C 9.068098 -3.612459 -0.087517
  H 0.574991 0.918309 -0.070644
  H 0.517399 -0.683821 0.744542
  H 1.233082 -0.564627 -0.918376
  H 3.048732 0.808381 0.000313
  H 2.713594 -2.221673 0.009968
  H 5.161011 -0.327324 -0.069476
  H 4.883091 -3.394053 -0.002364
  H 7.349614 -1.486003 -0.094493
  H 7.076247 -4.538847 -0.026326
  H 9.489243 -2.604283 -0.116988
  H 9.415326 -4.165486 -0.965298
  H 9.452323 -4.129390 0.796808
 20
 31.831776
  C 1.008675 -0.067428 0.016086
  C 2.504843 -0.145231 -0.009879
  C 3.225331 -1.277695 0.002410
  C 4.659641 -1.306751 -0.047024
  C 5.394956 -2.433339 -0.026025
  C 6.826760 -2.452288 -0.069854
  C 7.563343 -3.567512 -0.048635
  C 9.050034 -3.599720 -0.094391
  H 0.584115 0.926256 -0.014909
  H 0.495160 -0.754223 0.662144
  H 1.372437 -0.471678 -0.930751
  H 3.055927 0.791249 0.005682
  H 2.720025 -2.237837 0.039422
  H 5.162755 -0.344909 -0.099066
  H 4.897428 -3.393710 0.029698
  H 7.319329 -1.487853 -0.123803
  H 7.072516 -4.536235 0.005757
  H 9.462049 -2.594306 -0.147634
  H 9.390234 -4.165092 -0.961745
  H 9.445553 -4.094754 0.792248
 20
 40.168647
  C 1.006403 -0.050591 0.028179
  C 2.499130 -0.161522 -0.016073
  C 3.223621 -1.298745 0.003892
  C 4.646452 -1.322432 -0.050917
  C 5.391056 -2.447903 -0.022412
  C 6.822107 -2.458345 -0.073476
  C 7.567273 -3.567883 -0.045318
  C 9.051872 -3.588834 -0.098084
  H 0.597996 0.943863 0.021659
  H 0.468569 -0.770067 0.615202
  H 1.466630 -0.402663 -0.923208
  H 3.052261 0.781640 -0.011771
  H 2.719280 -2.256710 0.052180
  H 5.144292 -0.359739 -0.114358
  H 4.899480 -3.410221 0.045099
  H 7.307487 -1.492407 -0.139082
  H 7.084266 -4.540822 0.020908
  H 9.455356 -2.580732 -0.162975
  H 9.392299 -4.159473 -0.961241
  H 9.455552 -4.071866 0.790856
 20
 46.054208
  C 1.000130 -0.036542 0.038934
  C 2.491347 -0.170626 -0.021759
  C 3.218824 -1.312034 0.008235
  C 4.641981 -1.334717 -0.054847
  C 5.391207 -2.457815 -0.018244
  C 6.819521 -2.463296 -0.076624
  C 7.570165 -3.568551 -0.041191
  C 9.063646 -3.584078 -0.102340
  H 0.601312 0.971486 0.070347
  H 0.442595 -0.787293 0.552674
  H 1.539601 -0.330305 -0.920276
  H 3.027680 0.752371 -0.030079
  H 2.713431 -2.266740 0.070161
  H 5.137290 -0.373372 -0.131087
  H 4.903637 -3.419718 0.061879
  H 7.301144 -1.494978 -0.154917
  H 7.093795 -4.536734 0.037280
  H 9.462484 -2.574987 -0.179889
  H 9.403853 -4.163569 -0.964165
  H 9.476508 -4.057130 0.791985
 20
 50.546913
  C 1.000602 -0.030997 0.050077
  C 2.484837 -0.177537 -0.029102
  C 3.215555 -1.322473 0.010134
  C 4.635364 -1.344492 -0.058275
  C 5.389990 -2.465421 -0.015490
  C 6.820512 -2.467365 -0.080004
  C 7.576760 -3.568442 -0.038830
  C 9.067867 -3.577147 -0.105647
  H 0.608095 0.973520 0.107747
  H 0.430276 -0.804860 0.503233
  H 1.600184 -0.278344 -0.916082
  H 3.026968 0.764807 -0.046721
  H 2.709967 -2.270627 0.082272
  H 5.127655 -0.387050 -0.143914
  H 4.906689 -3.423908 0.074262
  H 7.296166 -1.503040 -0.167569
  H 7.102088 -4.543100 0.049852
  H 9.461347 -2.565882 -0.192914
  H 9.407951 -4.161282 -0.963705
  H 9.486967 -4.040449 0.790254
 20
 53.715788
  C 1.000584 -0.029509 0.061552
  C 2.490878 -0.170181 -0.040782
  C 3.221610 -1.321212 0.011291
  C 4.640916 -1.344509 -0.063206
  C 5.393934 -2.465551 -0.012802
  C 6.820119 -2.466401 -0.083811
  C 7.577182 -3.567877 -0.035672
  C 9.064642 -3.576393 -0.108330
  H 0.600987 0.962185 0.151655
  H 0.418614 -0.846559 0.453966
  H 1.656664 -0.227103 -0.920178
  H 3.030114 0.762015 -0.059466
  H 2.707437 -2.276437 0.096890
  H 5.138552 -0.381196 -0.161029
  H 4.905270 -3.433433 0.089129
  H 7.299605 -1.493225 -0.183237
  H 7.108891 -4.531368 0.062940
  H 9.455799 -2.568542 -0.206207
  H 9.400498 -4.166399 -0.959806
  H 9.486248 -4.029711 0.787306
 20
 56.668929
  C 1.003590 -0.031811 0.075072
  C 2.484597 -0.168778 -0.051521
  C 3.216684 -1.323636 0.010736
  C 4.636459 -1.349661 -0.068200
  C 5.390004 -2.468529 -0.011978
  C 6.829296 -2.468834 -0.087029
  C 7.588682 -3.567101 -0.034034
  C 9.067161 -3.573251 -0.110555
  H 0.588651 0.961361 0.183237
  H 0.434777 -0.859616 0.408242
  H 1.697249 -0.196178 -0.918329
  H 3.036311 0.771440 -0.065877
  H 2.701176 -2.270189 0.105940
  H 5.131973 -0.396493 -0.173435
  H 4.900962 -3.434313 0.097413
  H 7.306342 -1.500498 -0.193633
  H 7.130889 -4.517610 0.070574
  H 9.450274 -2.577313 -0.214758
  H 9.399328 -4.162962 -0.952502
  H 9.488794 -4.015672 0.779394
 20
 59.020284
  C 1.007392 -0.027048 0.092496
  C 2.489902 -0.160386 -0.063371
  C 3.224782 -1.321890 0.008711
  C 4.635330 -1.348751 -0.072993
  C 5.392565 -2.470933 -0.012264
  C 6.811322 -2.467990 -0.088938
  C 7.575291 -3.565893 -0.032220
  C 9.077712 -3.569431 -0.112853
  H 0.581906 0.951663 0.203831
  H 0.440184 -0.883755 0.383452
  H 1.738925 -0.173782 -0.928137
  H 3.052349 0.780751 -0.071475
  H 2.702450 -2.270531 0.110779
  H 5.134158 -0.393000 -0.184596
  H 4.902598 -3.441984 0.103303
  H 7.286829 -1.496713 -0.201305
  H 7.115651 -4.524525 0.078679
  H 9.465425 -2.559552 -0.224068
  H 9.413334 -4.167461 -0.959481
  H 9.506278 -4.010335 0.785449
 20
 61.119893
  C 1.001513 -0.027246 0.112030
  C 2.492760 -0.148161 -0.074716
  C 3.231211 -1.313559 0.007143
  C 4.643981 -1.343282 -0.077676
  C 5.399828 -2.464788 -0.014091
  C 6.833153 -2.466896 -0.093055
  C 7.592071 -3.564768 -0.033336
  C 9.073595 -3.567414 -0.114536
  H 0.563088 0.938704 0.217062
  H 0.432633 -0.903097 0.367184
  H 1.771232 -0.160254 -0.938931
  H 3.039809 0.777331 -0.075267
  H 2.713619 -2.251608 0.111794
  H 5.142111 -0.393581 -0.192897
  H 4.913229 -3.421753 0.103992
  H 7.310250 -1.501407 -0.208846
  H 7.116836 -4.551786 0.084854
  H 9.458865 -2.561608 -0.229085
  H 9.406736 -4.166924 -0.957623
  H 9.501512 -4.004628 0.783341
 20
 62.972223
  C 1.006456 -0.033604 0.135989
  C 2.493703 -0.143075 -0.087826
  C 3.237292 -1.312856 0.003218
  C 4.644329 -1.341637 -0.083188
  C 5.401890 -2.464919 -0.017095
  C 6.827839 -2.466404 -0.096467
  C 7.589103 -3.565659 -0.033997
  C 9.078282 -3.569189 -0.114858
  H 0.554040 0.931008 0.228523
  H 0.440508 -0.913928 0.359280
  H 1.808388 -0.156485 -0.957159
  H 3.042633 0.794069 -0.078241
  H 2.716526 -2.254518 0.110341
  H 5.145249 -0.387881 -0.202239
  H 4.913793 -3.425335 0.104215
  H 7.304474 -1.499971 -0.214893
  H 7.120837 -4.534539 0.084398
  H 9.464489 -2.561134 -0.231890
  H 9.413663 -4.173331 -0.959994
  H 9.507837 -4.005878 0.787364
 20
 64.476108
  C 1.021204 -0.034950 0.162848
  C 2.493727 -0.134518 -0.101908
  C 3.241472 -1.311235 -0.002144
  C 4.643595 -1.341079 -0.090915
  C 5.404038 -2.466051 -0.022453
  C 6.829753 -2.467217 -0.100491
  C 7.592616 -3.566174 -0.034999
  C 9.079889 -3.567309 -0.115616
  H 0.556830 0.924397 0.236002
  H 0.452816 -0.920884 0.356844
  H 1.849392 -0.150797 -0.979242
  H 3.042871 0.801084 -0.078815
  H 2.710698 -2.259873 0.107677
  H 5.140804 -0.399245 -0.210954
  H 4.917449 -3.421167 0.101094
  H 7.306859 -1.500074 -0.221261
  H 7.123918 -4.538263 0.085995
  H 9.469408 -2.547183 -0.236772
  H 9.412482 -4.168942 -0.951819
  H 9.507379 -4.000383 0.783261
