 26
 0.000000
  C 0.967827 0.140666 0.401950
  C 2.443248 0.137675 0.394087
  C 3.233918 0.605530 1.557824
  C 2.459629 1.095084 2.776203
  H 3.144128 1.408265 3.555349
  C 3.057324 -0.327645 -0.764067
  C 4.435143 -0.410536 -0.971057
  C 5.118232 -0.861380 -2.095486
  C 4.624478 -1.383963 -3.398713
  C 3.135908 -1.501323 -3.691910
  H 2.991626 -1.900987 -4.688680
  O 6.440411 -0.856097 -2.082771
  H 0.539522 0.511831 1.325374
  H 0.594724 -0.870308 0.233065
  H 0.594442 0.753386 -0.419616
  H 3.890888 1.415275 1.221332
  H 3.891139 -0.211664 1.875238
  H 1.826407 0.304108 3.173204
  H 1.826248 1.940727 2.515525
  H 2.399011 -0.645006 -1.553935
  H 5.050167 -0.077471 -0.141185
  H 5.084544 -2.370790 -3.522887
  H 5.084837 -0.756564 -4.170337
  H 2.656029 -0.526569 -3.647758
  H 2.655796 -2.175425 -2.986609
  H 6.807112 -0.519927 -1.243371
 26
 1.292443
  C 0.961839 0.424185 0.296640
  C 2.430538 0.295191 0.318920
  C 3.215078 0.496668 1.561798
  C 2.435432 0.813719 2.830409
  H 3.129302 0.923537 3.659590
  C 3.049317 -0.046258 -0.878569
  C 4.424732 -0.194557 -1.054995
  C 5.114919 -0.713395 -2.143839
  C 4.620677 -1.475855 -3.323598
  C 3.133873 -1.735091 -3.503994
  H 2.998890 -2.371829 -4.375714
  O 6.438768 -0.669780 -2.135302
  H 0.540945 0.690468 1.257168
  H 0.512073 -0.510856 -0.039977
  H 0.668545 1.172779 -0.441045
  H 3.930867 1.306499 1.382668
  H 3.817207 -0.401506 1.738219
  H 1.743317 0.014881 3.082157
  H 1.883936 1.744601 2.737315
  H 2.401445 -0.183083 -1.728869
  H 5.070906 0.133157 -0.249786
  H 5.155235 -2.431776 -3.301282
  H 5.010210 -0.956899 -4.205697
  H 2.588132 -0.814921 -3.687673
  H 2.714212 -2.251702 -2.646807
  H 6.837957 0.028140 -1.589844
 26
 6.152725
  C 0.960497 0.504161 0.276458
  C 2.424538 0.336471 0.304779
  C 3.200798 0.446084 1.562293
  C 2.417344 0.700379 2.842794
  H 3.107525 0.755087 3.681131
  C 3.049960 0.041422 -0.902498
  C 4.426631 -0.114061 -1.073231
  C 5.121909 -0.675493 -2.132936
  C 4.635411 -1.535695 -3.240856
  C 3.145153 -1.769459 -3.422071
  H 2.999823 -2.464418 -4.245157
  O 6.458251 -0.630709 -2.089907
  H 0.535383 0.720897 1.248112
  H 0.491187 -0.396371 -0.122717
  H 0.694412 1.303170 -0.417289
  H 3.933534 1.251343 1.436274
  H 3.789455 -0.469067 1.686305
  H 1.714338 -0.103744 3.044692
  H 1.875781 1.642245 2.799533
  H 2.412459 -0.039496 -1.767026
  H 5.082194 0.227823 -0.282103
  H 5.144037 -2.499187 -3.109866
  H 5.059065 -1.124775 -4.163906
  H 2.627764 -0.849584 -3.676759
  H 2.701886 -2.207683 -2.532055
  H 6.851053 0.254123 -2.010784
 26
 10.996128
  C 0.948557 0.522498 0.273000
  C 2.410400 0.345066 0.296189
  C 3.188211 0.412432 1.552833
  C 2.408681 0.616592 2.843801
  H 3.100693 0.639682 3.681372
  C 3.037886 0.080040 -0.916658
  C 4.417735 -0.074299 -1.083746
  C 5.124373 -0.667384 -2.107678
  C 4.661373 -1.568472 -3.187238
  C 3.170091 -1.790719 -3.378966
  H 3.021749 -2.523326 -4.168084
  O 6.474719 -0.596399 -1.991580
  H 0.522870 0.695878 1.253352
  H 0.472813 -0.353127 -0.171492
  H 0.690919 1.356197 -0.382844
  H 3.919405 1.223429 1.449829
  H 3.784382 -0.501420 1.641014
  H 1.707299 -0.196011 3.016238
  H 1.865438 1.558287 2.838543
  H 2.405809 0.024119 -1.790214
  H 5.093101 0.327417 -0.337206
  H 5.159104 -2.529500 -3.000739
  H 5.101003 -1.208013 -4.123756
  H 2.670918 -0.875583 -3.683175
  H 2.709373 -2.174391 -2.472415
  H 6.890793 0.173275 -2.401148
 26
 11.873549
  C 0.936370 0.566658 0.231562
  C 2.401335 0.411766 0.244827
  C 3.182345 0.403153 1.503944
  C 2.398244 0.426748 2.808434
  H 3.091251 0.403016 3.645955
  C 3.039402 0.266410 -0.979907
  C 4.414908 0.077510 -1.137847
  C 5.132390 -0.578364 -2.113421
  C 4.680700 -1.585488 -3.098365
  C 3.183161 -1.838812 -3.201014
  H 3.002303 -2.631529 -3.922035
  O 6.463644 -0.446670 -1.958582
  H 0.506737 0.632060 1.223410
  H 0.474936 -0.268927 -0.296821
  H 0.667379 1.458750 -0.337255
  H 3.842902 1.275953 1.476544
  H 3.848168 -0.464495 1.502471
  H 1.743693 -0.436327 2.892661
  H 1.803107 1.331274 2.900517
  H 2.434237 0.365055 -1.869358
  H 5.126227 0.529397 -0.449047
  H 5.202203 -2.513510 -2.840941
  H 5.063964 -1.306964 -4.089500
  H 2.657506 -0.953272 -3.540895
  H 2.774541 -2.149618 -2.243874
  H 6.932060 -0.064287 -2.718481
 26
 20.957741
  C 0.916584 0.718545 0.228280
  C 2.375161 0.514169 0.181857
  C 3.182247 0.301828 1.405531
  C 2.428663 0.178895 2.722461
  H 3.135757 -0.045262 3.521292
  C 2.982589 0.462743 -1.065034
  C 4.357655 0.269599 -1.266293
  C 5.098854 -0.476851 -2.144998
  C 4.729884 -1.663475 -2.955882
  C 3.232346 -1.948388 -2.983224
  H 3.043312 -2.850190 -3.560721
  O 6.412078 -0.176340 -2.014516
  H 0.516737 0.689519 1.233372
  H 0.409285 -0.029492 -0.380180
  H 0.672133 1.680445 -0.225799
  H 3.940833 1.082309 1.470833
  H 3.748981 -0.627417 1.262527
  H 1.706750 -0.633746 2.687699
  H 1.917349 1.099710 2.983489
  H 2.364055 0.610685 -1.935004
  H 5.151378 0.869824 -0.821753
  H 5.257382 -2.508470 -2.510039
  H 5.093121 -1.517570 -3.980651
  H 2.695491 -1.137596 -3.457059
  H 2.845902 -2.094257 -1.980567
  H 6.864689 0.128100 -2.812264
 26
 45.628612
  C 0.882764 0.839023 0.331767
  C 2.321476 0.557938 0.210268
  C 3.170128 0.229037 1.380862
  C 2.468728 0.110872 2.725457
  H 3.203922 -0.090676 3.500027
  C 2.885505 0.585433 -1.059152
  C 4.211053 0.243114 -1.349860
  C 5.000350 -0.487025 -2.175480
  C 4.791635 -1.694852 -2.995656
  C 3.328175 -2.121725 -3.067048
  H 3.228346 -3.008653 -3.683399
  O 6.300031 -0.062422 -1.933181
  H 0.520706 0.765427 1.350399
  H 0.312888 0.146152 -0.287432
  H 0.667269 1.836976 -0.049283
  H 3.905368 1.037746 1.466778
  H 3.733357 -0.681889 1.171785
  H 1.748464 -0.703175 2.726948
  H 1.955717 1.032439 2.988759
  H 2.267868 0.919484 -1.888402
  H 5.289965 0.672722 -0.932690
  H 5.430620 -2.505765 -2.639265
  H 5.143513 -1.471257 -4.009751
  H 2.716767 -1.331280 -3.490343
  H 2.950978 -2.351628 -2.074853
  H 6.749446 0.415243 -2.655002
 26
 62.010410
  C 0.851142 0.972073 0.403178
  C 2.264673 0.577332 0.209465
  C 3.144575 0.166407 1.339864
  C 2.495380 0.051993 2.712356
  H 3.238386 -0.273982 3.435248
  C 2.768008 0.570232 -1.077661
  C 4.050641 0.220174 -1.421514
  C 4.891668 -0.450663 -2.176448
  C 4.835294 -1.697880 -2.977191
  C 3.410477 -2.227034 -3.095517
  H 3.402158 -3.145770 -3.675123
  O 6.199674 0.109704 -1.884684
  H 0.534616 0.904977 1.436112
  H 0.197517 0.345431 -0.204439
  H 0.702293 1.996056 0.056249
  H 3.970636 0.881452 1.406624
  H 3.597412 -0.796770 1.081356
  H 1.689857 -0.678417 2.711264
  H 2.104829 1.008138 3.050383
  H 2.136462 0.957832 -1.869611
  H 5.455291 0.751842 -1.096019
  H 5.480763 -2.447417 -2.510250
  H 5.235686 -1.497716 -3.975445
  H 2.771912 -1.502840 -3.593273
  H 2.995263 -2.437668 -2.113375
  H 6.644037 0.567365 -2.630099
 26
 52.475560
  C 0.841939 1.023969 0.446960
  C 2.235512 0.576701 0.210338
  C 3.126658 0.099349 1.311884
  C 2.510123 0.003377 2.702391
  H 3.258499 -0.357856 3.405139
  C 2.713541 0.586420 -1.091923
  C 3.968190 0.226997 -1.473823
  C 4.841252 -0.413380 -2.184823
  C 4.863428 -1.685197 -2.945538
  C 3.467716 -2.282881 -3.069652
  H 3.512132 -3.216994 -3.622339
  O 6.188425 0.211495 -1.923924
  H 0.545731 0.939751 1.484601
  H 0.149101 0.442186 -0.162187
  H 0.727459 2.062509 0.135316
  H 3.992065 0.768338 1.365872
  H 3.519397 -0.882856 1.029327
  H 1.675647 -0.692953 2.718614
  H 2.167328 0.973597 3.055045
  H 2.067190 0.991842 -1.863601
  H 5.698383 0.813242 -1.247558
  H 5.531769 -2.388142 -2.443587
  H 5.269942 -1.497309 -3.941451
  H 2.803354 -1.603295 -3.598359
  H 3.046298 -2.484210 -2.088678
  H 6.594833 0.645021 -2.704385
 26
 43.734227
  C 0.805665 1.062069 0.464588
  C 2.200074 0.603853 0.200421
  C 3.109891 0.069762 1.283222
  C 2.496925 -0.114819 2.672123
  H 3.245953 -0.530743 3.347161
  C 2.661404 0.646709 -1.104746
  C 3.879151 0.268598 -1.519048
  C 4.797667 -0.331122 -2.188154
  C 4.855287 -1.641539 -2.918146
  C 3.479704 -2.304458 -2.992961
  H 3.552240 -3.257164 -3.511896
  O 6.183177 0.261156 -2.023614
  H 0.520623 0.951261 1.501703
  H 0.097192 0.499815 -0.151901
  H 0.695142 2.110339 0.186257
  H 3.970955 0.743296 1.374192
  H 3.507203 -0.892393 0.945519
  H 1.658290 -0.800799 2.644784
  H 2.163724 0.834445 3.092129
  H 2.019781 1.101024 -1.852043
  H 5.981872 0.925531 -1.330233
  H 5.560262 -2.300488 -2.403881
  H 5.231059 -1.473064 -3.930556
  H 2.773913 -1.671108 -3.532352
  H 3.085622 -2.485414 -2.000215
  H 6.536658 0.674082 -2.841903
 26
 42.654871
  C 0.839120 1.189614 0.650536
  C 2.148932 0.626540 0.247589
  C 3.071676 -0.040010 1.211061
  C 2.563852 -0.217586 2.636247
  H 3.318992 -0.731089 3.226798
  C 2.509664 0.713765 -1.084506
  C 3.643443 0.212275 -1.621738
  C 4.600792 -0.361885 -2.222729
  C 4.920911 -1.608753 -2.937617
  C 3.665919 -2.462730 -3.107756
  H 3.917799 -3.385599 -3.623357
  O 6.093473 0.421270 -2.019618
  H 0.636125 1.062305 1.706991
  H 0.037230 0.717651 0.080902
  H 0.798738 2.253880 0.412574
  H 4.004430 0.531875 1.245235
  H 3.336332 -1.020786 0.801315
  H 1.657340 -0.817673 2.661253
  H 2.367310 0.740279 3.112337
  H 1.846232 1.234705 -1.763868
  H 5.950417 1.012115 -1.254574
  H 5.676922 -2.159033 -2.373677
  H 5.333908 -1.371136 -3.920160
  H 2.916829 -1.934423 -3.691836
  H 3.235047 -2.714153 -2.141898
  H 6.374161 0.941482 -2.799406
 26
 42.554860
  C 0.859319 1.283161 0.739987
  C 2.107935 0.652624 0.275657
  C 3.034843 -0.057603 1.190458
  C 2.607759 -0.185612 2.646059
  H 3.369086 -0.731174 3.197663
  C 2.406243 0.728795 -1.076392
  C 3.480612 0.139351 -1.676265
  C 4.380983 -0.486282 -2.254612
  C 4.898993 -1.626337 -2.976311
  C 3.757208 -2.604100 -3.279121
  H 4.153528 -3.458322 -3.820169
  O 6.146525 0.477212 -1.944498
  H 0.693235 1.159185 1.802953
  H 0.009023 0.869532 0.195676
  H 0.871080 2.349054 0.505776
  H 4.004420 0.448923 1.153407
  H 3.214638 -1.055463 0.775537
  H 1.673605 -0.734121 2.738244
  H 2.493856 0.788198 3.115927
  H 1.735574 1.276626 -1.727010
  H 5.938286 0.933309 -1.120023
  H 5.671258 -2.114892 -2.380389
  H 5.349561 -1.291436 -3.912067
  H 2.994161 -2.129553 -3.889888
  H 3.296881 -2.957326 -2.360648
  H 6.490399 1.124195 -2.577304
