10

H 3.3717006703876273 -0.34617425347044284 -0.8103017139198854
C 4.42768 -0.41035 -0.97058
C 5.111749 -0.860636 -2.093538
C 4.622398 -1.384411 -3.399794
H 3.576850989559802 -1.4689283647999516 -3.610953333222185
O 6.434575 -0.852273 -2.073085
H 5.047217 -0.079018 -0.145404
H 5.082172 -2.371786 -3.523346
H 5.082493 -0.756172 -4.171309
H 6.800018 -0.516405 -1.234749
