 12
 0.000000
  C 1.003592 0.124556 0.399129
  C 2.466215 0.127191 0.412063
  C 3.237701 0.599221 1.555597
  H 2.623540 0.940117 2.381779
  C 3.109237 -0.339301 -0.723047
  H 4.174306 -0.383217 -0.871782
  H 0.567724 0.506975 1.317111
  H 0.628422 -0.885882 0.211758
  H 0.635518 0.710694 -0.451201
  H 3.915760 1.400383 1.243168
  H 3.916348 -0.188600 1.899053
  H 2.494732 -0.676232 -1.545375
 12
 -0.343600
  C 0.997189 0.160684 0.396208
  C 2.457136 0.117887 0.399073
  C 3.230879 0.535991 1.564100
  H 2.610676 0.817892 2.407773
  C 3.107804 -0.292508 -0.751860
  H 4.171335 -0.176590 -0.889641
  H 0.588592 0.740547 1.218103
  H 0.612040 -0.864828 0.459580
  H 0.617360 0.520626 -0.563847
  H 3.887905 1.367248 1.286349
  H 3.937672 -0.243708 1.863762
  H 2.559336 -0.746898 -1.562923
 12
 1.335019
  C 1.004936 0.166299 0.383919
  C 2.470046 0.076188 0.413470
  C 3.230711 0.494151 1.589220
  H 2.592968 0.733709 2.433376
  C 3.088270 -0.262478 -0.768381
  H 4.087418 0.058002 -1.023009
  H 0.621489 0.857404 1.127410
  H 0.579923 -0.827904 0.560444
  H 0.680047 0.450202 -0.617963
  H 3.848243 1.358178 1.326199
  H 3.956762 -0.268232 1.881639
  H 2.610808 -0.925057 -1.474590
 12
 7.390557
  C 1.011253 0.155560 0.381785
  C 2.482790 0.052399 0.472840
  C 3.260156 0.493768 1.620166
  H 2.633221 0.684454 2.486891
  C 3.003910 -0.214307 -0.773550
  H 3.976107 0.122855 -1.106840
  H 0.589278 0.892237 1.052417
  H 0.521125 -0.812205 0.500325
  H 0.887302 0.404694 -0.675841
  H 3.825249 1.395103 1.361413
  H 4.029995 -0.239253 1.872403
  H 2.572332 -0.997793 -1.379764
 12
 15.001837
  C 1.012518 0.119091 0.409570
  C 2.493015 0.061520 0.502770
  C 3.279892 0.513488 1.632640
  H 2.664231 0.745140 2.496888
  C 2.952799 -0.194390 -0.771154
  H 3.879703 0.207359 -1.162306
  H 0.540704 0.904567 0.982270
  H 0.509739 -0.844808 0.441785
  H 0.998088 0.352465 -0.671331
  H 3.902390 1.368756 1.362024
  H 4.003805 -0.266033 1.902946
  H 2.577816 -1.030242 -1.339355
 12
 33.728583
  C 0.998501 0.116726 0.389842
  C 2.485959 0.097734 0.524156
  C 3.296076 0.493743 1.660757
  H 2.700396 0.712795 2.543650
  C 2.845086 -0.125211 -0.790121
  H 3.747629 0.283431 -1.222661
  H 0.515142 0.939182 0.891150
  H 0.491770 -0.839906 0.504529
  H 1.263649 0.249629 -0.788123
  H 3.898700 1.367327 1.409172
  H 4.025735 -0.287856 1.874585
  H 2.576259 -1.070624 -1.246489
 12
 49.597889
  C 0.982164 0.104678 0.493945
  C 2.434555 0.079912 0.565703
  C 3.272809 0.511929 1.657791
  H 2.711716 0.720497 2.564353
  C 2.788606 -0.135143 -0.784924
  H 3.714302 0.268550 -1.179265
  H 0.468612 0.911463 0.991882
  H 0.429871 -0.821697 0.448463
  H 1.507252 0.263940 -0.899281
  H 3.859073 1.389112 1.374788
  H 4.025193 -0.258452 1.845880
  H 2.521455 -1.075297 -1.259950
 12
 27.767082
  C 0.985776 0.112852 0.583273
  C 2.377158 0.054321 0.575037
  C 3.254616 0.496230 1.638822
  H 2.723735 0.731251 2.555336
  C 2.766646 -0.138074 -0.829188
  H 3.665391 0.364887 -1.162802
  H 0.515513 0.917443 1.138743
  H 0.374317 -0.765573 0.478538
  H 1.737648 0.208763 -1.141299
  H 3.834995 1.367341 1.323037
  H 4.007794 -0.275061 1.810591
  H 2.635796 -1.133164 -1.266154
 12
 11.092845
  C 0.963871 0.075403 0.688610
  C 2.338520 0.113267 0.557660
  C 3.257937 0.525373 1.600665
  H 2.762980 0.738995 2.543720
  C 2.742098 -0.110046 -0.842284
  H 3.713917 0.275075 -1.107153
  H 0.439600 0.825590 1.259678
  H 0.363990 -0.776969 0.410855
  H 1.871950 0.335803 -1.329668
  H 3.859612 1.378349 1.277736
  H 3.987338 -0.282457 1.747728
  H 2.621262 -1.152938 -1.157079
 12
 2.740826
  C 0.935896 0.077766 0.763846
  C 2.293812 0.101882 0.536780
  C 3.248336 0.518667 1.557173
  H 2.785647 0.718705 2.516796
  C 2.734513 -0.119048 -0.846542
  H 3.720100 0.285217 -1.041244
  H 0.479122 0.743862 1.483334
  H 0.281707 -0.661456 0.323652
  H 1.978019 0.311958 -1.503565
  H 3.792322 1.400935 1.210796
  H 4.019329 -0.245237 1.670818
  H 2.713092 -1.188037 -1.080029
 12
 0.391711
  C 0.935740 0.031740 0.808343
  C 2.279057 0.132065 0.528473
  C 3.237808 0.566388 1.540983
  H 2.789085 0.730571 2.515532
  C 2.738285 -0.146618 -0.839338
  H 3.793892 0.064885 -0.976016
  H 0.472141 0.596778 1.602642
  H 0.283554 -0.612103 0.236051
  H 2.152511 0.444449 -1.548421
  H 3.731505 1.478583 1.193689
  H 4.053541 -0.156798 1.626543
  H 2.514775 -1.184726 -1.096665
 12
 -0.527000
  C 0.930986 0.037546 0.811468
  C 2.278773 0.149903 0.517405
  C 3.227849 0.587329 1.533130
  H 2.779282 0.719126 2.513792
  C 2.744751 -0.167633 -0.832474
  H 3.808809 -0.002514 -0.963532
  H 0.525239 0.424526 1.732472
  H 0.240542 -0.429010 0.125618
  H 2.185700 0.398099 -1.582654
  H 3.689235 1.528766 1.212160
  H 4.078275 -0.094685 1.592403
  H 2.492454 -1.206238 -1.067972
