 20
 0.000000
  H 1.433624 0.195950 0.539865
  C 2.498331 0.137802 0.394685
  H 3.141712 0.460260 1.196541
  C 3.006397 -0.334233 -0.780598
  C 4.393060 -0.414945 -0.982343
  C 5.105970 -0.865146 -2.105183
  C 4.611376 -1.384530 -3.400286
  C 3.125879 -1.507238 -3.707225
  C 2.933188 -2.071298 -5.113111
  O 6.412091 -0.847815 -2.062277
  H 2.324519 -0.644425 -1.552757
  H 4.994830 -0.078277 -0.143512
  H 5.080866 -2.368394 -3.528823
  H 5.081545 -0.762753 -4.173130
  H 2.644575 -0.529796 -3.661684
  H 2.644113 -2.181946 -2.998829
  H 3.381339 -1.421464 -5.860787
  H 1.874137 -2.161918 -5.339644
  H 3.381011 -3.057834 -5.204162
  H 6.791143 -0.512936 -1.225337
 20
 2.305780
  H 1.407195 0.186167 0.556334
  C 2.463706 0.202828 0.358283
  H 3.088445 0.751951 1.042564
  C 2.982835 -0.430505 -0.730649
  C 4.362267 -0.412108 -0.983019
  C 5.092080 -0.868876 -2.089754
  C 4.613815 -1.363577 -3.399976
  C 3.127379 -1.510273 -3.692616
  C 2.923003 -2.025576 -5.115042
  O 6.397713 -0.770378 -2.052689
  H 2.317277 -0.959778 -1.392434
  H 4.989957 0.032278 -0.219109
  H 5.109420 -2.330971 -3.555119
  H 5.063876 -0.711814 -4.160234
  H 2.624561 -0.547487 -3.595750
  H 2.674937 -2.222166 -3.001828
  H 3.343722 -1.338823 -5.845353
  H 1.862163 -2.130979 -5.328029
  H 3.389337 -2.998675 -5.249231
  H 6.855587 -0.809206 -1.192579
 20
 7.290671
  H 1.394754 0.098409 0.573204
  C 2.435580 0.208625 0.324175
  H 3.005613 0.922936 0.895606
  C 2.993446 -0.489209 -0.702412
  C 4.365469 -0.379981 -0.985935
  C 5.100036 -0.857302 -2.074384
  C 4.619942 -1.348171 -3.379996
  C 3.137084 -1.497447 -3.678693
  C 2.936161 -2.000084 -5.106110
  O 6.418454 -0.714638 -2.036122
  H 2.374947 -1.159792 -1.275341
  H 4.960056 0.183237 -0.274800
  H 5.128505 -2.305374 -3.557883
  H 5.074584 -0.689239 -4.135405
  H 2.627019 -0.539156 -3.570201
  H 2.685479 -2.217844 -2.996439
  H 3.345192 -1.300095 -5.830578
  H 1.876616 -2.117836 -5.317330
  H 3.416255 -2.964592 -5.252858
  H 6.898799 -1.132315 -1.300327
 20
 11.434625
  H 1.355698 0.167768 0.552452
  C 2.411529 0.216642 0.348810
  H 3.018838 0.791172 1.029526
  C 2.951322 -0.407697 -0.733088
  C 4.334706 -0.342550 -0.982625
  C 5.071654 -0.824523 -2.063658
  C 4.606638 -1.358929 -3.355539
  C 3.131043 -1.549904 -3.669442
  C 2.950350 -2.032801 -5.106193
  O 6.395348 -0.629861 -1.993784
  H 2.305490 -0.970514 -1.388327
  H 4.934637 0.165126 -0.232495
  H 5.139192 -2.305615 -3.529544
  H 5.054518 -0.701510 -4.120358
  H 2.590621 -0.610103 -3.549207
  H 2.697519 -2.294813 -3.000898
  H 3.345882 -1.310692 -5.816525
  H 1.895157 -2.171982 -5.325755
  H 3.453305 -2.982853 -5.267990
  H 6.944813 -1.335053 -1.614541
 20
 6.390090
  H 1.311108 0.238609 0.501849
  C 2.375458 0.222223 0.339599
  H 2.996141 0.690147 1.087589
  C 2.912622 -0.346815 -0.774539
  C 4.303230 -0.342478 -0.982424
  C 5.057863 -0.804467 -2.066759
  C 4.614620 -1.355099 -3.362977
  C 3.139750 -1.560134 -3.682014
  C 2.979198 -2.082589 -5.109179
  O 6.358707 -0.636806 -1.919332
  H 2.254667 -0.812095 -1.491574
  H 4.908470 0.020289 -0.154033
  H 5.139684 -2.304431 -3.539512
  H 5.047532 -0.683506 -4.119251
  H 2.598182 -0.615274 -3.596895
  H 2.701817 -2.290675 -2.998943
  H 3.383737 -1.377026 -5.831939
  H 1.927974 -2.226049 -5.340053
  H 3.485691 -3.034528 -5.240214
  H 6.931030 -1.382268 -2.155529
 20
 7.880452
  H 1.272250 0.254184 0.371650
  C 2.329178 0.327429 0.181293
  H 2.857247 1.153744 0.628610
  C 2.958550 -0.550891 -0.641204
  C 4.335476 -0.436761 -0.915359
  C 5.103997 -0.879580 -1.999569
  C 4.678006 -1.341846 -3.335188
  C 3.190351 -1.547596 -3.595671
  C 2.953105 -1.943707 -5.050603
  O 6.390551 -0.673189 -1.787957
  H 2.395732 -1.354742 -1.089687
  H 5.011484 -0.029775 -0.168919
  H 5.204260 -2.272365 -3.579978
  H 5.068944 -0.599031 -4.044213
  H 2.642799 -0.627894 -3.385706
  H 2.801340 -2.337017 -2.953176
  H 3.311410 -1.173144 -5.728882
  H 1.891515 -2.083473 -5.234921
  H 3.460550 -2.875252 -5.291765
  H 7.019121 -1.358739 -2.083979
 20
 20.037468
  H 1.269799 0.264323 0.383978
  C 2.316975 0.344374 0.149032
  H 2.824053 1.247480 0.447594
  C 2.955286 -0.630235 -0.549942
  C 4.299052 -0.500119 -0.946199
  C 5.075596 -0.912188 -2.029587
  C 4.700344 -1.305684 -3.393967
  C 3.203372 -1.492925 -3.632198
  C 2.932762 -1.926784 -5.069592
  O 6.357297 -0.653858 -1.736798
  H 2.447616 -1.561815 -0.764427
  H 5.133257 -0.070679 -0.360380
  H 5.207293 -2.250461 -3.635406
  H 5.115107 -0.568637 -4.092223
  H 2.664145 -0.570753 -3.415660
  H 2.830980 -2.271133 -2.965028
  H 3.276664 -1.174612 -5.776136
  H 1.867482 -2.073131 -5.226903
  H 3.436949 -2.863362 -5.295609
  H 7.000399 -1.381056 -1.799300
 20
 43.160981
  H 1.344274 0.349931 0.614413
  C 2.354398 0.415292 0.249472
  H 2.882075 1.338634 0.422802
  C 2.914967 -0.610082 -0.436682
  C 4.195570 -0.544464 -0.988272
  C 4.977565 -0.927149 -2.049394
  C 4.705653 -1.329755 -3.435733
  C 3.216176 -1.542963 -3.708825
  C 2.977016 -1.940882 -5.160817
  O 6.254628 -0.630469 -1.663820
  H 2.379394 -1.549197 -0.527671
  H 5.276225 -0.153264 -0.520491
  H 5.243967 -2.262642 -3.637527
  H 5.105489 -0.564658 -4.108431
  H 2.676324 -0.617461 -3.502058
  H 2.821529 -2.314947 -3.048348
  H 3.341316 -1.172390 -5.838568
  H 1.914974 -2.076493 -5.347128
  H 3.482789 -2.874114 -5.397734
  H 6.914694 -1.351724 -1.642570
 20
 58.945317
  H 1.401884 0.417919 0.743439
  C 2.377865 0.466397 0.295206
  H 2.914743 1.394770 0.390152
  C 2.889733 -0.594414 -0.375286
  C 4.114113 -0.589800 -1.021893
  C 4.887731 -0.940492 -2.029228
  C 4.672931 -1.335241 -3.438508
  C 3.196304 -1.558705 -3.764633
  C 3.016255 -1.955953 -5.225126
  O 6.218195 -0.615656 -1.594168
  H 2.352362 -1.538731 -0.358746
  H 5.511720 -0.187142 -0.619026
  H 5.229402 -2.257023 -3.635213
  H 5.086177 -0.561646 -4.092526
  H 2.635260 -0.644142 -3.567017
  H 2.794977 -2.346545 -3.125946
  H 3.393021 -1.179299 -5.887248
  H 1.963698 -2.109054 -5.450269
  H 3.546061 -2.880399 -5.445066
  H 6.862091 -1.357332 -1.559325
 20
 48.619033
  H 1.415335 0.439713 0.788190
  C 2.378409 0.472724 0.312464
  H 2.913149 1.405958 0.354700
  C 2.873814 -0.613812 -0.340041
  C 4.052309 -0.636294 -1.038886
  C 4.847880 -0.954257 -2.014664
  C 4.671884 -1.339217 -3.435464
  C 3.206378 -1.584565 -3.790262
  C 3.060886 -1.962390 -5.259327
  O 6.234656 -0.596078 -1.592325
  H 2.351178 -1.563151 -0.248753
  H 5.810659 -0.198186 -0.747372
  H 5.245988 -2.249096 -3.629352
  H 5.081448 -0.550256 -4.073634
  H 2.631982 -0.676355 -3.597744
  H 2.798378 -2.378609 -3.165001
  H 3.440024 -1.170772 -5.901275
  H 2.014960 -2.122735 -5.508130
  H 3.606007 -2.876702 -5.482707
  H 6.870794 -1.348399 -1.552677
 20
 39.209356
  H 1.357041 0.442865 0.766082
  C 2.285900 0.483310 0.225600
  H 2.760940 1.441466 0.139294
  C 2.836772 -0.641346 -0.310045
  C 4.000862 -0.679519 -1.029656
  C 4.831608 -0.962169 -1.972406
  C 4.652294 -1.328039 -3.397933
  C 3.191885 -1.551798 -3.764378
  C 3.044116 -1.914466 -5.233075
  O 6.250943 -0.659467 -1.638644
  H 2.366903 -1.597095 -0.099072
  H 6.080777 -0.170237 -0.801718
  H 5.215509 -2.240846 -3.601005
  H 5.060502 -0.543817 -4.012756
  H 2.629312 -0.653349 -3.567295
  H 2.775004 -2.353306 -3.149802
  H 3.422846 -1.118737 -5.865901
  H 1.997832 -2.068940 -5.476451
  H 3.587192 -2.828313 -5.466896
  H 6.822380 -1.447368 -1.549024
 20
 38.086884
  H 1.319385 0.413162 0.694465
  C 2.260057 0.456970 0.177925
  H 2.714165 1.425778 0.067438
  C 2.830966 -0.668441 -0.333957
  C 4.018144 -0.708014 -1.001295
  C 4.850165 -0.988658 -1.947299
  C 4.647560 -1.357709 -3.381302
  C 3.174447 -1.525305 -3.744930
  C 3.018494 -1.893316 -5.215954
  O 6.290187 -0.722008 -1.673861
  H 2.360709 -1.627954 -0.139489
  H 6.221847 -0.010160 -0.996857
  H 5.175936 -2.293731 -3.576414
  H 5.095997 -0.582274 -4.007155
  H 2.638497 -0.596296 -3.544422
  H 2.729996 -2.307569 -3.128087
  H 3.439187 -1.120491 -5.855222
  H 1.967650 -2.005869 -5.470357
  H 3.521120 -2.832315 -5.436576
  H 6.783278 -1.493777 -1.302188
 20
 33.708472
  H 1.365468 0.465749 0.765230
  C 2.190444 0.453657 0.077775
  H 2.442848 1.376234 -0.415136
  C 2.880298 -0.703370 -0.172148
  C 3.927805 -0.801376 -1.018679
  C 4.817194 -0.981191 -1.930857
  C 4.641077 -1.332421 -3.375078
  C 3.173484 -1.506286 -3.759116
  C 3.036703 -1.848135 -5.237929
  O 6.258079 -0.764813 -1.643613
  H 2.597400 -1.609506 0.352190
  H 6.392613 -0.092969 -0.934940
  H 5.179367 -2.258263 -3.591452
  H 5.085634 -0.536356 -3.977827
  H 2.626092 -0.586950 -3.546800
  H 2.728700 -2.302113 -3.159884
  H 3.454827 -1.058817 -5.858192
  H 1.990031 -1.967609 -5.505313
  H 3.552120 -2.776961 -5.470869
  H 6.717600 -1.606479 -1.412899
