 20
 0.000000
  H 1.375272 0.140283 0.400410
  C 2.445261 0.138532 0.395784
  C 3.234973 0.607589 1.562934
  C 2.461488 1.098287 2.784371
  H 3.129843 1.409844 3.559699
  C 3.056527 -0.326240 -0.761266
  C 4.434557 -0.412807 -0.977341
  C 5.116634 -0.862171 -2.097644
  C 4.626711 -1.386353 -3.404443
  H 3.580501 -1.469732 -3.612753
  O 6.441363 -0.854110 -2.077903
  H 3.890881 1.419250 1.227711
  H 3.891049 -0.210235 1.882449
  H 1.823595 0.301943 3.173218
  H 1.823488 1.942218 2.514202
  H 2.395882 -0.642369 -1.548407
  H 5.050449 -0.080233 -0.149165
  H 5.083529 -2.374996 -3.529298
  H 5.083826 -0.758265 -4.177923
  H 6.799446 -0.516763 -1.236311
 20
 0.000000
  H 1.451441 0.114556 0.336288
  C 2.521097 0.124812 0.361574
  C 3.272565 0.602511 1.550276
  C 2.459780 1.084301 2.749546
  H 3.102665 1.403212 3.543210
  C 3.169646 -0.332884 -0.777872
  C 4.454121 -0.409951 -0.970247
  C 5.079346 -0.849075 -2.065015
  C 4.581038 -1.372162 -3.369080
  H 3.533509 -1.453218 -3.571596
  O 6.306612 -0.834741 -2.029610
  H 3.928441 1.421536 1.233397
  H 3.928592 -0.207952 1.888128
  H 1.820240 0.280786 3.120529
  H 1.820149 1.921065 2.461522
  H 2.564857 -0.656180 -1.582895
  H 5.078713 -0.079638 -0.147700
  H 5.034963 -2.361815 -3.496453
  H 5.035259 -0.745086 -4.145082
  H 6.602241 -0.486406 -1.160595
 20
 0.000000
  H 1.529572 0.089232 0.273166
  C 2.597886 0.111745 0.328988
  C 3.309578 0.597826 1.538596
  C 2.457403 1.070064 2.714094
  H 3.073665 1.396189 3.525747
  C 3.283918 -0.338294 -0.791405
  C 4.473512 -0.406663 -0.962073
  C 5.044634 -0.836722 -2.034238
  C 4.536582 -1.358510 -3.335059
  H 3.487563 -1.436857 -3.530820
  O 6.172786 -0.817504 -1.986632
  H 3.964807 1.424369 1.240449
  H 3.964939 -0.205122 1.895172
  H 1.816780 0.259207 3.066788
  H 1.816706 1.899489 2.407790
  H 2.734579 -0.669310 -1.615683
  H 5.107650 -0.078884 -0.145840
  H 4.987117 -2.349332 -3.465347
  H 4.987411 -0.732604 -4.113979
  H 6.401293 -0.457044 -1.087357
 20
 0.000000
  H 1.609386 0.064575 0.211706
  C 2.675284 0.099587 0.298668
  C 3.345644 0.593756 1.528451
  C 2.454061 1.055774 2.678513
  H 3.042522 1.388951 3.507750
  C 3.398937 -0.342189 -0.801163
  C 4.493054 -0.402717 -0.952261
  C 5.013120 -0.825522 -2.006336
  C 4.493693 -1.345758 -3.303282
  H 3.442995 -1.420929 -3.491124
  O 6.041022 -0.802841 -1.950067
  H 3.999570 1.427969 1.249411
  H 3.999684 -0.201525 1.904127
  H 1.812958 0.237408 3.012500
  H 1.812901 1.877694 2.353512
  H 2.905167 -0.681714 -1.646664
  H 5.137734 -0.077806 -0.143170
  H 4.940234 -2.337937 -3.436952
  H 4.940526 -0.721211 -4.085587
  H 6.195669 -0.429160 -1.017797
 20
 0.000000
  H 1.690412 0.040948 0.152812
  C 2.752757 0.088685 0.271477
  C 3.380239 0.590607 1.520601
  C 2.449334 1.041723 2.643524
  H 3.008813 1.381759 3.489866
  C 3.514080 -0.344207 -0.806242
  C 4.513228 -0.397810 -0.940052
  C 4.985569 -0.816033 -1.982695
  C 4.452848 -1.334404 -3.274988
  H 3.400270 -1.405844 -3.453528
  O 5.912836 -0.791291 -1.921263
  H 4.032169 1.432629 1.261019
  H 4.032262 -0.196868 1.915727
  H 1.808395 0.215689 2.958408
  H 1.808356 1.855979 2.299429
  H 3.076707 -0.693261 -1.675508
  H 5.169618 -0.076171 -0.139108
  H 4.894667 -2.328160 -3.412585
  H 4.894958 -0.711435 -4.061226
  H 5.984334 -0.403534 -0.953861
 20
 0.000000
  H 1.771867 0.018870 0.097771
  C 2.829467 0.079516 0.248606
  C 3.412607 0.588804 1.516108
  C 2.442632 1.028338 2.610195
  H 2.971996 1.375001 3.473066
  C 3.628356 -0.343869 -0.805446
  C 4.534718 -0.391532 -0.924421
  C 4.962926 -0.809022 -1.965232
  C 4.414731 -1.325154 -3.251938
  H 3.360075 -1.392226 -3.419586
  O 5.790282 -0.783541 -1.901930
  H 4.061813 1.438753 1.276276
  H 4.061885 -0.190748 1.930975
  H 1.802538 0.194501 2.905635
  H 1.802518 1.834795 2.246667
  H 3.249088 -0.703698 -1.701581
  H 5.204174 -0.073653 -0.132845
  H 4.850979 -2.320731 -3.394072
  H 4.851269 -0.704009 -4.042718
  H 5.766262 -0.381377 -0.898571
 20
 0.000000
  H 1.852403 -0.000887 0.048512
  C 2.904044 0.072768 0.231766
  C 3.441634 0.588962 1.516503
  C 2.433144 1.016288 2.580190
  H 2.931427 1.369285 3.458861
  C 3.740112 -0.340528 -0.797164
  C 4.558454 -0.383339 -0.904015
  C 4.946380 -0.805583 -1.956668
  C 4.380406 -1.319051 -3.236727
  H 3.323516 -1.381069 -3.391777
  O 5.676237 -0.780506 -1.894345
  H 4.087375 1.446900 1.296581
  H 4.087424 -0.182605 1.951270
  H 1.794602 0.174563 2.855971
  H 1.794604 1.814861 2.197014
  H 3.421607 -0.712627 -1.723895
  H 5.242511 -0.069803 -0.123262
  H 4.810157 -2.316701 -3.384026
  H 4.810447 -0.699982 -4.032679
  H 5.540681 -0.364509 -0.856466
 20
 0.000000
  H 1.927715 -0.016736 0.008992
  C 2.972440 0.069517 0.223646
  C 3.465074 0.591899 1.523822
  C 2.420116 1.006879 2.556759
  H 2.887586 1.365677 3.449901
  C 3.843856 -0.333512 -0.779717
  C 4.584931 -0.372833 -0.877838
  C 4.937685 -0.807282 -1.960907
  C 4.352394 -1.317742 -3.233461
  H 3.293261 -1.374226 -3.374719
  O 5.577381 -0.783399 -1.901533
  H 4.106759 1.457575 1.323186
  H 4.106783 -0.171933 1.977868
  H 1.783760 0.157490 2.813441
  H 1.783784 1.797792 2.154493
  H 3.587848 -0.719514 -1.741103
  H 5.284829 -0.064188 -0.109268
  H 4.774964 -2.317622 -3.386314
  H 4.775255 -0.700905 -4.034975
  H 5.313272 -0.355664 -0.834365
 20
 0.000000
  H 1.984784 -0.025898 -0.013861
  C 3.023081 0.070536 0.226170
  C 3.478767 0.597549 1.537904
  C 2.404946 1.002171 2.545034
  H 2.846992 1.365412 3.449260
  C 3.922580 -0.323835 -0.755623
  C 4.610650 -0.361524 -0.849654
  C 4.938092 -0.814746 -1.979512
  C 4.335948 -1.322485 -3.245275
  H 3.275020 -1.374103 -3.374410
  O 5.509365 -0.792095 -1.923186
  H 4.116658 1.469481 1.352861
  H 4.116661 -0.160029 2.007537
  H 1.770857 0.146571 2.786235
  H 1.770901 1.786876 2.127294
  H 3.721128 -0.724299 -1.753052
  H 5.325056 -0.057530 -0.092665
  H 4.752148 -2.324291 -3.402922
  H 4.752442 -0.707577 -4.051591
  H 5.117173 -0.356477 -0.836353
 20
 0.000000
  H 2.024261 -0.029002 -0.021611
  C 3.057041 0.075332 0.238113
  C 3.483671 0.605710 1.558239
  C 2.387837 1.002054 2.544742
  H 2.809827 1.368590 3.457186
  C 3.978030 -0.312093 -0.726373
  C 4.635232 -0.349783 -0.820384
  C 4.945787 -0.827297 -2.010789
  C 4.330417 -1.332835 -3.271061
  H 3.268187 -1.380609 -3.390621
  O 5.468100 -0.805453 -1.956457
  H 4.118297 1.482495 1.385297
  H 4.118281 -0.147016 2.039970
  H 1.755820 0.141624 2.773903
  H 1.755882 1.781930 2.114966
  H 3.823234 -0.728644 -1.763881
  H 5.362575 -0.050077 -0.074078
  H 4.741548 -2.336139 -3.432436
  H 4.741846 -0.719429 -4.081112
  H 4.947598 -0.364967 -0.857489
 20
 0.000000
  H 2.046215 -0.026381 -0.015091
  C 3.074759 0.083608 0.258731
  C 3.480377 0.616269 1.584550
  C 2.368994 1.006558 2.555958
  H 2.776447 1.375369 3.474075
  C 4.010966 -0.298723 -0.693055
  C 4.657777 -0.338011 -0.791032
  C 4.959804 -0.844380 -2.053358
  C 4.335946 -1.348476 -3.310029
  H 3.272931 -1.393771 -3.423416
  O 5.450847 -0.822635 -1.999260
  H 4.112490 1.496529 1.420272
  H 4.112460 -0.132982 2.074944
  H 1.738631 0.142665 2.776485
  H 1.738706 1.782972 2.117550
  H 3.894455 -0.734633 -1.778789
  H 5.396273 -0.042115 -0.054218
  H 4.743791 -2.352737 -3.473780
  H 4.744093 -0.736028 -4.122462
  H 4.799427 -0.379099 -0.892699
 20
 0.000000
  H 2.050292 -0.018316 0.004999
  C 3.076212 0.095023 0.287173
  C 3.469298 0.628987 1.616239
  C 2.348787 1.015639 2.578573
  H 2.747557 1.385766 3.499967
  C 4.021368 -0.284242 -0.656964
  C 4.676647 -0.326773 -0.763009
  C 4.979519 -0.865216 -2.105277
  C 4.353037 -1.368864 -3.360822
  H 3.289787 -1.413390 -3.472297
  O 5.455573 -0.842658 -2.049148
  H 4.099852 1.511306 1.457092
  H 4.099812 -0.118205 2.111766
  H 1.719472 0.149692 2.793981
  H 1.719556 1.789999 2.135044
  H 3.933628 -0.744570 -1.803518
  H 5.424202 -0.034050 -0.034104
  H 4.759859 -2.373420 -3.525302
  H 4.760165 -0.756714 -4.173991
  H 4.667954 -0.396729 -0.936628
 20
 0.000000
  H 2.037351 -0.005794 0.036200
  C 3.062378 0.108660 0.321155
  C 3.451277 0.643052 1.651280
  C 2.327740 1.028487 2.610570
  H 2.723607 1.399048 3.533041
  C 4.010504 -0.269578 -0.620414
  C 4.689565 -0.316834 -0.738227
  C 5.003473 -0.888099 -2.162294
  C 4.380910 -1.392425 -3.419516
  H 3.318012 -1.438096 -3.533847
  O 5.478327 -0.863721 -2.101629
  H 4.081301 1.526057 1.493842
  H 4.081257 -0.103453 2.148519
  H 1.698785 0.161856 2.824273
  H 1.698873 1.802162 2.165333
  H 3.940840 -0.759927 -1.841738
  H 5.443699 -0.026461 -0.015182
  H 4.789255 -2.396542 -3.582896
  H 4.789563 -0.779839 -4.231591
  H 4.549234 -0.415583 -0.983605
 20
 0.000000
  H 2.010883 0.009285 0.073774
  C 3.036387 0.123144 0.357246
  C 3.427519 0.657314 1.686807
  C 2.305594 1.043403 2.647719
  H 2.703009 1.413736 3.569616
  C 3.982931 -0.255647 -0.585690
  C 4.694952 -0.308600 -0.717694
  C 5.029090 -0.910817 -2.218899
  C 4.416493 -1.416837 -3.480328
  H 3.354528 -1.465413 -3.601902
  O 5.511790 -0.883693 -2.151389
  H 4.057828 1.539951 1.528455
  H 4.057783 -0.089556 2.183137
  H 1.676445 0.177139 2.862333
  H 1.676534 1.817443 2.203388
  H 3.921464 -0.780126 -1.892017
  H 5.453148 -0.019695 0.001681
  H 4.828686 -2.419833 -3.640908
  H 4.828995 -0.803132 -4.289607
  H 4.437924 -0.434401 -1.030494
