15

H 1.3416395074946446 0.05167076785999148 0.21999307443634797
C 2.403241 0.059205 0.086406
C 3.241848 -0.012388 1.355317
C 2.526737 -0.088322 2.700928
C 3.52098 -0.153371 3.853825
C 2.996884 0.127487 -1.123676
H 2.544167676596036 0.18210613755031516 -2.0916453591931807
H 4.065031171499793 0.13103644573433038 -1.1865172400575446
H 3.887252 0.871678 1.38603
H 3.887254 -0.894302 1.286383
H 1.893203 -0.977392 2.741475
H 1.893197 0.79054 2.841235
H 4.156172 -1.033115 3.772194
H 2.990089 -0.206868 4.80179
H 4.156167 0.729967 3.871674
