 26
 0.000000
  C 1.020334 0.111297 0.327482
  C 2.495229 0.127662 0.368591
  C 3.244214 0.604146 1.554647
  C 2.433762 1.086291 2.754425
  C 3.362083 1.537426 3.878217
  C 3.156273 -0.328520 -0.766809
  C 4.539699 -0.393748 -0.930331
  C 5.195485 -0.851938 -2.072391
  C 4.535094 -1.344758 -3.299730
  H 3.454386 -1.325898 -3.252669
  O 6.507294 -0.876465 -2.135613
  H 0.562372 0.477118 1.238066
  H 0.666408 -0.903301 0.139510
  H 0.666681 0.714232 -0.510020
  H 3.904610 1.419595 1.238885
  H 3.904398 -0.203222 1.890863
  H 1.796606 0.283248 3.128511
  H 1.797015 1.925316 2.468927
  H 3.997469 0.719620 4.210763
  H 2.783428 1.880544 4.732164
  H 3.997933 2.357740 3.552787
  H 2.531901 -0.657271 -1.584937
  H 5.157866 -0.062993 -0.106664
  H 4.877809 -2.360229 -3.500010
  H 4.877785 -0.749750 -4.146677
  H 6.963366 -0.554205 -1.334524
 26
 10.659305
  C 1.004180 0.138160 0.392717
  C 2.479500 0.095163 0.287533
  C 3.266213 0.558882 1.442681
  C 2.496223 1.052757 2.670345
  C 3.477124 1.488058 3.757174
  C 2.947716 -0.382253 -0.899836
  C 4.310308 -0.374914 -0.883587
  C 5.136064 -0.802401 -1.949807
  C 4.643960 -1.325925 -3.249805
  H 3.566534 -1.353231 -3.314443
  O 6.449808 -0.762150 -1.857211
  H 0.629900 0.514791 1.330129
  H 0.600524 -0.863999 0.232077
  H 0.601491 0.751609 -0.416401
  H 3.917854 1.380868 1.126147
  H 3.916735 -0.254458 1.783024
  H 1.863622 0.259365 3.071905
  H 1.865495 1.904780 2.410982
  H 4.111127 0.659781 4.065785
  H 2.937824 1.840420 4.632903
  H 4.113263 2.298266 3.407719
  H 2.326445 -0.699076 -1.688258
  H 4.850075 -0.029552 -0.023218
  H 5.047093 -2.326601 -3.408450
  H 5.045383 -0.713159 -4.057581
  H 6.795498 -0.422557 -1.017394
 26
 37.199060
  C 1.003173 0.138475 0.389409
  C 2.503515 0.063229 0.206669
  C 3.297667 0.538263 1.391218
  C 2.550922 1.035307 2.628493
  C 3.565365 1.459991 3.690475
  C 2.814227 -0.429641 -1.017813
  C 4.156206 -0.366586 -0.864570
  C 5.077889 -0.767206 -1.864727
  C 4.698190 -1.303005 -3.187426
  H 3.626051 -1.361755 -3.322671
  O 6.372643 -0.687238 -1.678878
  H 0.651931 0.519298 1.337404
  H 0.579158 -0.853763 0.242196
  H 0.581508 0.755262 -0.402958
  H 3.939909 1.374198 1.090422
  H 3.939286 -0.274293 1.751719
  H 1.923774 0.246988 3.049283
  H 1.925753 1.897159 2.387307
  H 4.198149 0.625680 3.984696
  H 3.050793 1.817058 4.578656
  H 4.200605 2.264682 3.327091
  H 2.173025 -0.743800 -1.800201
  H 4.659809 -0.017874 0.004949
  H 5.140257 -2.291587 -3.315651
  H 5.134403 -0.678758 -3.967887
  H 6.650203 -0.334864 -0.809759
 26
 73.970635
  C 1.042223 0.147518 0.413849
  C 2.561763 0.039162 0.150143
  C 3.326252 0.522769 1.352900
  C 2.566392 1.023314 2.597465
  C 3.585656 1.447942 3.655784
  C 2.732206 -0.468572 -1.106062
  C 4.061662 -0.360469 -0.846232
  C 5.039115 -0.750511 -1.821843
  C 4.720913 -1.287344 -3.157567
  H 3.658981 -1.359848 -3.333864
  O 6.329099 -0.654167 -1.587106
  H 0.725796 0.530743 1.366302
  H 0.598179 -0.838067 0.283873
  H 0.600272 0.770447 -0.362129
  H 3.962980 1.364952 1.064587
  H 3.963067 -0.284278 1.727651
  H 1.943269 0.237095 3.022930
  H 1.944393 1.885903 2.360359
  H 4.219392 0.612463 3.949958
  H 3.072580 1.806217 4.545908
  H 4.220745 2.253535 3.290180
  H 2.069589 -0.780547 -1.879694
  H 4.584952 -0.016652 0.011143
  H 5.180379 -2.269238 -3.270793
  H 5.177890 -0.655537 -3.919094
  H 6.573296 -0.303144 -0.707417
 26
 113.544883
  C 1.060384 0.145499 0.408498
  C 2.593692 0.018065 0.105103
  C 3.326961 0.516616 1.342991
  C 2.585890 1.021123 2.587750
  C 3.624957 1.437199 3.623022
  C 2.658838 -0.508992 -1.184908
  C 3.983927 -0.349935 -0.816657
  C 5.011474 -0.731956 -1.779436
  C 4.742320 -1.271525 -3.132817
  H 3.680712 -1.355471 -3.343434
  O 6.291023 -0.623354 -1.504547
  H 0.745191 0.534212 1.373196
  H 0.613715 -0.842303 0.283242
  H 0.615487 0.773460 -0.365551
  H 3.964961 1.361083 1.049114
  H 3.961514 -0.297170 1.721045
  H 1.965937 0.243026 3.025793
  H 1.969499 1.887784 2.361684
  H 4.254360 0.599906 3.907304
  H 3.131475 1.799973 4.517654
  H 4.257970 2.234439 3.246482
  H 1.995918 -0.817093 -1.943107
  H 4.550362 -0.017619 0.022231
  H 5.215974 -2.249719 -3.234982
  H 5.215790 -0.631445 -3.879627
  H 6.507854 -0.272739 -0.615400
 26
 146.807923
  C 1.082735 0.151226 0.394070
  C 2.649974 -0.014108 0.071490
  C 3.344490 0.499853 1.346693
  C 2.594413 1.027890 2.575853
  C 3.630861 1.445675 3.613565
  C 2.627684 -0.572330 -1.221358
  C 3.955244 -0.360012 -0.788719
  C 4.985155 -0.722186 -1.759622
  C 4.733707 -1.230611 -3.128128
  H 3.683039 -1.300031 -3.357490
  O 6.271843 -0.634655 -1.465100
  H 0.784724 0.539489 1.355217
  H 0.645909 -0.838389 0.273046
  H 0.626461 0.785093 -0.367452
  H 3.989272 1.338256 1.051748
  H 3.967520 -0.316981 1.744448
  H 1.963325 0.262522 3.021148
  H 1.991340 1.899982 2.334149
  H 4.248047 0.604914 3.914390
  H 3.133930 1.826146 4.499068
  H 4.276094 2.230897 3.231906
  H 1.945516 -0.862057 -1.972583
  H 4.582080 -0.085168 0.041933
  H 5.198912 -2.205415 -3.252130
  H 5.221265 -0.571683 -3.843140
  H 6.481076 -0.307455 -0.572033
 26
 160.948604
  C 1.097290 0.128951 0.342296
  C 2.743363 -0.185218 0.069093
  C 3.372979 0.411895 1.365529
  C 2.600736 1.077601 2.508588
  C 3.627597 1.530341 3.555521
  C 2.592002 -0.817278 -1.144862
  C 4.005732 -0.577945 -0.659871
  C 4.950896 -0.715068 -1.691212
  C 4.676714 -1.005430 -3.129827
  H 3.621815 -1.083861 -3.349958
  O 6.270709 -0.640939 -1.450034
  H 0.874381 0.570748 1.298733
  H 0.608827 -0.836812 0.273737
  H 0.727189 0.784480 -0.440761
  H 4.065899 1.185288 1.019231
  H 3.939220 -0.399913 1.843457
  H 1.913443 0.384953 2.994556
  H 2.054790 1.960085 2.173159
  H 4.187202 0.685744 3.950638
  H 3.117740 2.010500 4.388289
  H 4.330791 2.248432 3.136543
  H 1.880291 -1.064725 -1.888426
  H 4.639012 -0.461713 0.218989
  H 5.174688 -1.930837 -3.411138
  H 5.117749 -0.215750 -3.739680
  H 6.521290 -0.452374 -0.528857
 26
 163.210140
  C 1.154014 0.075647 0.281757
  C 2.834385 -0.362429 0.093820
  C 3.401820 0.357680 1.372531
  C 2.620782 1.157308 2.413184
  C 3.626308 1.625053 3.477988
  C 2.638203 -1.105858 -1.075597
  C 4.053324 -0.799322 -0.522100
  C 4.929558 -0.707632 -1.620007
  C 4.563796 -0.710707 -3.063671
  H 3.490167 -0.767358 -3.230124
  O 6.255987 -0.663945 -1.440659
  H 0.926282 0.581953 1.206013
  H 0.623092 -0.862158 0.230074
  H 0.890913 0.705060 -0.567328
  H 4.152995 1.046456 0.978328
  H 3.896669 -0.430970 1.942598
  H 1.874130 0.544377 2.923175
  H 2.141726 2.040025 1.984446
  H 4.107984 0.772128 3.959624
  H 3.109439 2.192268 4.245922
  H 4.392078 2.258861 3.054664
  H 1.894291 -1.325814 -1.796479
  H 4.672323 -0.869563 0.376282
  H 5.055032 -1.563781 -3.539807
  H 4.950035 0.176115 -3.543164
  H 6.549625 -0.684395 -0.508245
 26
 134.134061
  C 1.482124 -0.007639 -0.063961
  C 2.869154 -0.651621 0.281637
  C 3.528228 0.173438 1.427836
  C 2.748869 1.217268 2.211387
  C 3.664499 1.798189 3.291053
  C 2.684566 -1.797676 -0.879613
  C 3.899329 -1.198509 -0.397989
  C 4.781772 -0.629251 -1.440445
  C 4.248707 -0.094985 -2.701718
  H 3.165546 -0.168619 -2.735709
  O 6.071257 -0.540980 -1.270761
  H 1.190470 0.663813 0.731115
  H 0.697723 -0.749857 -0.149912
  H 1.505814 0.576524 -0.981484
  H 4.390445 0.665499 0.976752
  H 3.901412 -0.549199 2.165436
  H 1.877242 0.782536 2.698081
  H 2.434111 2.034787 1.565223
  H 3.991206 1.024858 3.981597
  H 3.130324 2.552237 3.864356
  H 4.543208 2.263590 2.853248
  H 1.850450 -2.140848 -1.412569
  H 4.559997 -1.675587 0.345393
  H 4.668366 -0.647910 -3.538309
  H 4.567529 0.937788 -2.839512
  H 6.420259 -0.972962 -0.465217
 26
 132.365308
  C 1.566298 0.016149 -0.154881
  C 2.882722 -0.650672 0.309108
  C 3.562726 0.145727 1.457475
  C 2.804259 1.262755 2.163635
  C 3.665584 1.808586 3.303186
  C 2.718036 -1.983598 -0.812611
  C 3.899741 -1.183942 -0.385250
  C 4.726996 -0.549177 -1.434537
  C 4.132751 -0.032113 -2.670350
  H 3.059152 -0.195711 -2.698166
  O 6.004153 -0.388523 -1.291285
  H 1.231701 0.731222 0.584489
  H 0.759736 -0.699489 -0.273436
  H 1.681031 0.554031 -1.092272
  H 4.470112 0.572208 1.034942
  H 3.860167 -0.567907 2.235842
  H 1.868005 0.896566 2.586592
  H 2.589675 2.081948 1.477136
  H 3.882733 1.034970 4.028736
  H 3.140136 2.610800 3.816768
  H 4.606685 2.206038 2.928746
  H 1.949931 -2.400424 -1.396203
  H 4.559453 -1.689809 0.338485
  H 4.593563 -0.530404 -3.523773
  H 4.365964 1.029093 -2.793971
  H 6.415371 -0.844801 -0.528813
 26
 113.480200
  C 1.563345 0.046850 -0.144411
  C 2.866784 -0.620225 0.315521
  C 3.547308 0.167898 1.462886
  C 2.779525 1.288197 2.156051
  C 3.648419 1.805965 3.298965
  C 2.780937 -2.018631 -0.760654
  C 3.969221 -1.172004 -0.423934
  C 4.741195 -0.530659 -1.486316
  C 4.138107 -0.038203 -2.728806
  H 3.072077 -0.223535 -2.779126
  O 6.020819 -0.330693 -1.371139
  H 1.219119 0.754456 0.598621
  H 0.771232 -0.675569 -0.266121
  H 1.653757 0.605091 -1.080152
  H 4.470315 0.607919 1.048705
  H 3.842326 -0.531105 2.260996
  H 1.832447 0.925930 2.561439
  H 2.576284 2.095717 1.460820
  H 3.840414 1.019717 4.022509
  H 3.136881 2.600713 3.825387
  H 4.608342 2.182819 2.943467
  H 2.020187 -2.463439 -1.314720
  H 4.619657 -1.647482 0.308249
  H 4.635790 -0.527189 -3.577156
  H 4.351329 1.017047 -2.881518
  H 6.445208 -0.766429 -0.594478
