 26
 0.000000
  C 1.009700 0.118546 0.347071
  C 2.485021 0.131007 0.378292
  C 3.242720 0.606320 1.560418
  C 2.439927 1.090656 2.764620
  C 3.372624 1.540945 3.884987
  C 3.139038 -0.326757 -0.760487
  C 4.522130 -0.396493 -0.935060
  C 5.168600 -0.854754 -2.078572
  C 4.530733 -1.351076 -3.315943
  H 3.452610 -1.357766 -3.332116
  O 6.481906 -0.879497 -2.142337
  H 0.555517 0.485485 1.259459
  H 0.651875 -0.895883 0.165550
  H 0.651974 0.725008 -0.486155
  H 3.901240 1.421458 1.240006
  H 3.901081 -0.203821 1.893561
  H 1.802052 0.289397 3.141822
  H 1.802386 1.930223 2.482081
  H 4.008191 0.722592 4.216173
  H 2.796076 1.884875 4.740173
  H 4.008494 2.360524 3.557580
  H 2.510544 -0.654204 -1.575397
  H 5.146099 -0.067057 -0.114817
  H 4.900640 -2.360885 -3.502080
  H 4.900385 -0.749559 -4.148170
  H 6.927476 -0.556491 -1.336779
 26
 7.663394
  C 0.889702 0.116749 0.342445
  C 2.524259 0.131457 0.379619
  C 3.271190 0.606112 1.560127
  C 2.459875 1.088357 2.758858
  C 3.384455 1.541076 3.885366
  C 3.169585 -0.324411 -0.754316
  C 4.550892 -0.395275 -0.931832
  C 5.190471 -0.854671 -2.078409
  C 4.540495 -1.348153 -3.308522
  H 3.460466 -1.348335 -3.308119
  O 6.499901 -0.882381 -2.150085
  H 0.440518 0.483612 1.254518
  H 0.538681 -0.896662 0.161258
  H 0.538933 0.722763 -0.489877
  H 3.929849 1.422522 1.243053
  H 3.929568 -0.202697 1.896642
  H 1.821692 0.285485 3.131359
  H 1.822155 1.925919 2.471725
  H 4.019901 0.724329 4.220626
  H 2.801810 1.883600 4.736868
  H 4.020362 2.362231 3.561993
  H 2.538048 -0.651281 -1.567794
  H 5.179207 -0.066995 -0.114519
  H 4.902513 -2.359807 -3.499112
  H 4.902066 -0.748278 -4.145308
  H 6.953039 -0.560617 -1.348083
 26
 23.579831
  C 0.803089 0.117047 0.342398
  C 2.596730 0.135812 0.390603
  C 3.307734 0.610665 1.571798
  C 2.464638 1.085181 2.751008
  C 3.357211 1.546997 3.900553
  C 3.214251 -0.319599 -0.741922
  C 4.595986 -0.397414 -0.937002
  C 5.213776 -0.862468 -2.097968
  C 4.528079 -1.348949 -3.309658
  H 3.447461 -1.332455 -3.266656
  O 6.517831 -0.899665 -2.194631
  H 0.374190 0.485288 1.257708
  H 0.477440 -0.896970 0.163983
  H 0.478025 0.725547 -0.488395
  H 3.966574 1.432815 1.267389
  H 3.966025 -0.193682 1.921498
  H 1.825309 0.276010 3.105621
  H 1.826022 1.915092 2.446600
  H 3.992095 0.736467 4.251550
  H 2.750893 1.883744 4.737515
  H 3.992821 2.374429 3.592945
  H 2.569016 -0.643271 -1.547394
  H 5.240600 -0.073372 -0.130458
  H 4.868999 -2.365399 -3.511810
  H 4.867954 -0.753572 -4.158366
  H 6.994032 -0.581637 -1.403516
 26
 41.041606
  C 0.701531 0.116748 0.340564
  C 2.654164 0.140118 0.401662
  C 3.340982 0.621094 1.598314
  C 2.471168 1.089681 2.762321
  C 3.335134 1.558665 3.930068
  C 3.254364 -0.322439 -0.748350
  C 4.634536 -0.406309 -0.958780
  C 5.235279 -0.873559 -2.125736
  C 4.526198 -1.356333 -3.326967
  H 3.448260 -1.329450 -3.256549
  O 6.539570 -0.916349 -2.238219
  H 0.291522 0.488585 1.264513
  H 0.401645 -0.906876 0.163915
  H 0.402721 0.733518 -0.495661
  H 4.000430 1.448657 1.305633
  H 3.999580 -0.179255 1.960353
  H 1.830896 0.274714 3.101840
  H 1.831913 1.913542 2.442925
  H 3.969092 0.753415 4.294512
  H 2.708673 1.890370 4.754177
  H 3.970099 2.391386 3.635903
  H 2.598342 -0.642657 -1.545350
  H 5.290626 -0.085583 -0.160590
  H 4.853323 -2.375626 -3.536322
  H 4.851350 -0.763703 -4.183043
  H 7.030235 -0.600847 -1.455583
 26
 58.399480
  C 0.598772 0.117253 0.340221
  C 2.710628 0.142177 0.407383
  C 3.374114 0.621310 1.599821
  C 2.485164 1.084477 2.749602
  C 3.326937 1.558654 3.930689
  C 3.279419 -0.316156 -0.731902
  C 4.656041 -0.404645 -0.954390
  C 5.246562 -0.874661 -2.128824
  C 4.524144 -1.355003 -3.322031
  H 3.446902 -1.321925 -3.233913
  O 6.546980 -0.920677 -2.251963
  H 0.213937 0.491643 1.270210
  H 0.324779 -0.909320 0.167309
  H 0.326512 0.738930 -0.495406
  H 4.033125 1.451666 1.314647
  H 4.031843 -0.176148 1.969367
  H 1.844355 0.265042 3.076770
  H 1.845856 1.903283 2.418019
  H 3.959938 0.757326 4.305609
  H 2.685146 1.886400 4.744380
  H 3.961400 2.395492 3.646852
  H 2.612282 -0.632755 -1.520016
  H 5.320309 -0.085796 -0.161252
  H 4.842908 -2.375918 -3.535595
  H 4.839551 -0.763881 -4.182558
  H 7.047211 -0.606265 -1.474957
 26
 74.288985
  C 0.483006 0.122593 0.351752
  C 2.754048 0.149388 0.425974
  C 3.400138 0.635061 1.635102
  C 2.486495 1.093111 2.771401
  C 3.301321 1.573741 3.968980
  C 3.316112 -0.323414 -0.749159
  C 4.699679 -0.418928 -0.989889
  C 5.274891 -0.890602 -2.168972
  C 4.534718 -1.368188 -3.353113
  H 3.459623 -1.328609 -3.246422
  O 6.577003 -0.941366 -2.306566
  H 0.120716 0.500612 1.290557
  H 0.234369 -0.911560 0.181212
  H 0.236764 0.751535 -0.487397
  H 4.059203 1.470993 1.360516
  H 4.057500 -0.159382 2.016272
  H 1.845314 0.268390 3.084399
  H 1.847265 1.906241 2.425764
  H 3.932849 0.777344 4.356453
  H 2.641150 1.896617 4.769973
  H 3.934768 2.415399 3.697698
  H 2.637535 -0.637593 -1.531270
  H 5.373750 -0.103061 -0.204676
  H 4.844125 -2.390867 -3.571302
  H 4.839324 -0.778762 -4.218526
  H 7.089063 -0.628504 -1.536269
 26
 86.187596
  C 0.425185 0.119603 0.338054
  C 2.854915 0.150564 0.432337
  C 3.449770 0.645420 1.667158
  C 2.485164 1.091809 2.769347
  C 3.241920 1.584140 3.996808
  C 3.354412 -0.322069 -0.741647
  C 4.717359 -0.425705 -1.011247
  C 5.261600 -0.897156 -2.189477
  C 4.493729 -1.371940 -3.357011
  H 3.422386 -1.321919 -3.218524
  O 6.559468 -0.955827 -2.352457
  H 0.134766 0.505745 1.296794
  H 0.267959 -0.931099 0.173741
  H 0.272632 0.765288 -0.507801
  H 4.106381 1.491203 1.416108
  H 4.103070 -0.140679 2.073059
  H 1.845361 0.255433 3.052835
  H 1.849547 1.894044 2.393025
  H 3.869033 0.797517 4.410211
  H 2.544496 1.897193 4.769894
  H 3.873206 2.435006 3.750856
  H 2.655452 -0.630034 -1.503593
  H 5.403175 -0.111803 -0.238220
  H 4.789450 -2.396533 -3.582086
  H 4.780086 -0.786155 -4.230378
  H 7.089389 -0.645498 -1.594020
 26
 94.212574
  C 0.456064 0.127280 0.337862
  C 3.042647 0.165375 0.486026
  C 3.501247 0.669232 1.740632
  C 2.446666 1.089839 2.766729
  C 3.098571 1.601116 4.043105
  C 3.423899 -0.308556 -0.681976
  C 4.798732 -0.435986 -1.053278
  C 5.249497 -0.918941 -2.258948
  C 4.411639 -1.385982 -3.385812
  H 3.350916 -1.315192 -3.184016
  O 6.538903 -1.010995 -2.513103
  H 0.225314 0.519843 1.304927
  H 0.417167 -0.931495 0.182622
  H 0.427350 0.780864 -0.509848
  H 4.133999 1.541416 1.539482
  H 4.121336 -0.105288 2.207273
  H 1.812921 0.234088 3.002194
  H 1.822226 1.875890 2.340416
  H 3.714549 0.831552 4.503536
  H 2.336441 1.894589 4.760410
  H 3.723542 2.468898 3.843183
  H 2.684779 -0.614275 -1.409628
  H 5.528482 -0.123044 -0.315069
  H 4.672863 -2.417879 -3.617422
  H 4.655299 -0.803392 -4.273468
  H 7.110015 -0.710541 -1.785660
 26
 98.696162
  C 0.448159 0.126409 0.322719
  C 3.190854 0.169472 0.524529
  C 3.562291 0.680316 1.799085
  C 2.429150 1.090377 2.768737
  C 2.995217 1.617930 4.077211
  C 3.505031 -0.301869 -0.636504
  C 4.872061 -0.448983 -1.081101
  C 5.238906 -0.929071 -2.293080
  C 4.335030 -1.385312 -3.385844
  H 3.288071 -1.301131 -3.133171
  O 6.527627 -1.043587 -2.624831
  H 0.220543 0.520724 1.291612
  H 0.455906 -0.935444 0.172135
  H 0.472985 0.784515 -0.523783
  H 4.179378 1.571430 1.629836
  H 4.160915 -0.084886 2.309470
  H 1.801013 0.223628 2.970739
  H 1.819085 1.863234 2.302138
  H 3.596302 0.862442 4.577161
  H 2.185682 1.899506 4.745564
  H 3.614404 2.495924 3.910915
  H 2.742080 -0.599921 -1.338377
  H 5.635076 -0.147059 -0.381082
  H 4.568883 -2.420014 -3.629132
  H 4.540649 -0.801716 -4.281146
  H 7.130391 -0.752556 -1.928633
 26
 101.058153
  C 0.371951 0.123326 0.314264
  C 3.271444 0.179112 0.552383
  C 3.597286 0.691601 1.832758
  C 2.432414 1.088649 2.764322
  C 2.953939 1.623319 4.088992
  C 3.554507 -0.291637 -0.610134
  C 4.910859 -0.452760 -1.088406
  C 5.235943 -0.933850 -2.304720
  C 4.300753 -1.379278 -3.374246
  H 3.258794 -1.284125 -3.094602
  O 6.518861 -1.063939 -2.675651
  H 0.143413 0.516167 1.281600
  H 0.405315 -0.935856 0.166548
  H 0.421297 0.782059 -0.527364
  H 4.204380 1.593384 1.681899
  H 4.184641 -0.067601 2.364139
  H 1.809230 0.212869 2.947186
  H 1.829425 1.855097 2.276657
  H 3.548094 0.874718 4.608236
  H 2.120711 1.896046 4.731699
  H 3.568257 2.508604 3.941051
  H 2.776608 -0.585222 -1.302109
  H 5.693443 -0.158398 -0.404158
  H 4.517324 -2.417001 -3.622844
  H 4.489732 -0.795294 -4.273633
  H 7.147116 -0.777205 -1.987853
 26
 102.312783
  C 0.301275 0.121356 0.311295
  C 3.357625 0.191506 0.582172
  C 3.637361 0.705538 1.868445
  C 2.430466 1.088343 2.762415
  C 2.899294 1.629360 4.103449
  C 3.607840 -0.278045 -0.581085
  C 4.952538 -0.456832 -1.096481
  C 5.234397 -0.940810 -2.319948
  C 4.264701 -1.374784 -3.366589
  H 3.232938 -1.267740 -3.060531
  O 6.504137 -1.086976 -2.728866
  H 0.072455 0.513602 1.280189
  H 0.359578 -0.938279 0.166190
  H 0.373056 0.783292 -0.527747
  H 4.233652 1.618585 1.737401
  H 4.213435 -0.048266 2.421144
  H 1.814500 0.203779 2.923162
  H 1.835663 1.846512 2.253164
  H 3.484687 0.889164 4.643133
  H 2.040352 1.890408 4.716171
  H 3.505915 2.522533 3.976997
  H 2.815659 -0.564143 -1.257669
  H 5.753267 -0.173559 -0.433053
  H 4.461563 -2.414662 -3.620243
  H 4.436423 -0.791541 -4.269227
  H 7.145378 -0.811073 -2.064124
 26
 102.957991
  C 0.229305 0.121161 0.311418
  C 3.442277 0.204634 0.616193
  C 3.675555 0.718639 1.904004
  C 2.429928 1.084755 2.751967
  C 2.842931 1.631752 4.108273
  C 3.660785 -0.265444 -0.551169
  C 4.988516 -0.459821 -1.103018
  C 5.226255 -0.945895 -2.332138
  C 4.221635 -1.366959 -3.349650
  H 3.199024 -1.247369 -3.013356
  O 6.483637 -1.108184 -2.780830
  H 0.001430 0.511977 1.278864
  H 0.311633 -0.934984 0.170333
  H 0.323585 0.784055 -0.521498
  H 4.259459 1.641511 1.793719
  H 4.237586 -0.028500 2.477931
  H 1.822097 0.190524 2.889182
  H 1.845496 1.834632 2.219048
  H 3.418119 0.899424 4.669847
  H 1.957966 1.880783 4.688348
  H 3.441513 2.533589 4.003936
  H 2.851745 -0.545170 -1.212684
  H 5.809990 -0.186066 -0.459660
  H 4.397945 -2.409449 -3.608099
  H 4.373918 -0.784098 -4.256200
  H 7.155026 -0.837235 -2.126004
 26
 103.203218
  C 0.145320 0.121217 0.312033
  C 3.515201 0.216379 0.646904
  C 3.711043 0.732385 1.941087
  C 2.428431 1.083549 2.747138
  C 2.789235 1.635451 4.116289
  C 3.707505 -0.253227 -0.521688
  C 5.021069 -0.461483 -1.107160
  C 5.221427 -0.950401 -2.343524
  C 4.186270 -1.360498 -3.335728
  H 3.174265 -1.230542 -2.974451
  O 6.462863 -1.125796 -2.824170
  H -0.085295 0.511712 1.280361
  H 0.244029 -0.934968 0.173487
  H 0.254776 0.786588 -0.518487
  H 4.284655 1.664723 1.849411
  H 4.261012 -0.009760 2.534465
  H 1.828538 0.181075 2.862722
  H 1.854146 1.825725 2.192899
  H 3.353697 0.910569 4.697402
  H 1.881681 1.873133 4.665331
  H 3.379276 2.544552 4.032296
  H 2.883416 -0.526616 -1.167125
  H 5.859652 -0.196951 -0.484397
  H 4.344597 -2.404834 -3.597998
  H 4.321400 -0.778369 -4.245324
  H 7.143089 -0.866185 -2.194650
 26
 103.263672
  C 0.048538 0.124044 0.318281
  C 3.575706 0.228644 0.679491
  C 3.739918 0.743209 1.971234
  C 2.427872 1.079615 2.735493
  C 2.741023 1.635004 4.114096
  C 3.747572 -0.242252 -0.494352
  C 5.043631 -0.461394 -1.107866
  C 5.210093 -0.951627 -2.347382
  C 4.147266 -1.351448 -3.313243
  H 3.144632 -1.212111 -2.927600
  O 6.440458 -1.138718 -2.858378
  H -0.185583 0.513304 1.284787
  H 0.157043 -0.929902 0.181590
  H 0.167068 0.789667 -0.508831
  H 4.303424 1.681367 1.895951
  H 4.277693 0.006906 2.579932
  H 1.835587 0.170012 2.831371
  H 1.863765 1.814722 2.162138
  H 3.295160 0.916155 4.712728
  H 1.814016 1.862426 4.634398
  H 3.323219 2.550861 4.048130
  H 2.909082 -0.510369 -1.125113
  H 5.898676 -0.204312 -0.503519
  H 4.289236 -2.397328 -3.578742
  H 4.265538 -0.770145 -4.225707
  H 7.150013 -0.882248 -2.235256
