 19
 0.000000
  C 0.999227 0.123632 0.373949
  C 2.464396 0.139575 0.405490
  C 3.218243 0.610638 1.576923
  C 2.422213 1.099312 2.774424
  H 3.105150 1.413672 3.556710
  C 3.133167 -0.317966 -0.734974
  C 4.532565 -0.388787 -0.916035
  C 5.069014 -0.852683 -2.074448
  H 4.441533 -1.180651 -2.891979
  H 6.134162 -0.910704 -2.220464
  H 0.543214 0.480083 1.290235
  H 0.643929 -0.886463 0.158643
  H 0.637702 0.725496 -0.463810
  H 3.894577 1.408507 1.249275
  H 3.886613 -0.196304 1.898997
  H 1.789287 0.313297 3.182241
  H 1.795931 1.951531 2.517403
  H 2.524707 -0.652487 -1.566355
  H 5.192210 -0.070261 -0.122468
 19
 3.236074
  C 1.002352 0.086654 0.410914
  C 2.446078 0.134110 0.408921
  C 3.207823 0.612906 1.574922
  C 2.412403 1.109906 2.768530
  H 3.095857 1.423332 3.552794
  C 3.114817 -0.318900 -0.740308
  C 4.520065 -0.386601 -0.926010
  C 5.059972 -0.845188 -2.082577
  H 4.439602 -1.175555 -2.900402
  H 6.125484 -0.895384 -2.224759
  H 0.523175 0.455952 1.299376
  H 0.608307 -0.889929 0.150928
  H 0.843987 0.718369 -0.441322
  H 3.895039 1.402419 1.249791
  H 3.865439 -0.203026 1.899178
  H 1.773921 0.330377 3.177014
  H 1.795277 1.965774 2.505339
  H 2.503679 -0.653097 -1.572722
  H 5.178986 -0.068379 -0.131166
 19
 7.939582
  C 1.003758 0.027951 0.426674
  C 2.440561 0.112991 0.414326
  C 3.214546 0.625161 1.574167
  C 2.410953 1.132130 2.766642
  H 3.090678 1.454749 3.550501
  C 3.107211 -0.326529 -0.737403
  C 4.493488 -0.386565 -0.922167
  C 5.034884 -0.838773 -2.082515
  H 4.412655 -1.176365 -2.903958
  H 6.103604 -0.877881 -2.227663
  H 0.503103 0.366816 1.313608
  H 0.577240 -0.883934 0.037728
  H 1.030625 0.761188 -0.380664
  H 3.910402 1.405949 1.246625
  H 3.855363 -0.204435 1.907527
  H 1.772785 0.354407 3.180147
  H 1.794476 1.986433 2.493393
  H 2.501798 -0.662007 -1.568228
  H 5.150471 -0.069927 -0.126802
 19
 14.073319
  C 0.984118 0.005764 0.451656
  C 2.430683 0.108484 0.414012
  C 3.207280 0.627545 1.562518
  C 2.409389 1.139921 2.755742
  H 3.095085 1.467426 3.534071
  C 3.098398 -0.329383 -0.745498
  C 4.492764 -0.386653 -0.926884
  C 5.042976 -0.836404 -2.086614
  H 4.428650 -1.175347 -2.908384
  H 6.111505 -0.871075 -2.226443
  H 0.475879 0.326611 1.339549
  H 0.530494 -0.861627 0.001651
  H 1.157617 0.770385 -0.302418
  H 3.901159 1.407973 1.230330
  H 3.843385 -0.205479 1.892866
  H 1.775056 0.363764 3.177972
  H 1.791348 1.992403 2.481491
  H 2.493613 -0.668072 -1.577617
  H 5.145034 -0.069626 -0.127821
 19
 19.681581
  C 0.977504 -0.016785 0.467714
  C 2.431945 0.106898 0.404395
  C 3.206750 0.633346 1.562513
  C 2.407066 1.146678 2.747895
  H 3.088794 1.475515 3.524577
  C 3.094413 -0.327522 -0.752358
  C 4.488234 -0.387171 -0.931895
  C 5.038977 -0.834330 -2.090138
  H 4.427765 -1.169033 -2.911116
  H 6.102832 -0.870399 -2.227546
  H 0.455037 0.294119 1.357810
  H 0.502150 -0.859850 -0.019238
  H 1.275276 0.776969 -0.269922
  H 3.900685 1.410694 1.232858
  H 3.837229 -0.196264 1.897731
  H 1.773972 0.371778 3.170140
  H 1.790280 1.997332 2.470382
  H 2.488191 -0.663863 -1.584650
  H 5.140758 -0.072801 -0.129506
 19
 23.123858
  C 0.983749 -0.045351 0.481610
  C 2.413154 0.105475 0.395893
  C 3.206549 0.643350 1.556784
  C 2.398581 1.154983 2.750954
  H 3.083897 1.497702 3.529374
  C 3.085791 -0.333237 -0.764247
  C 4.480830 -0.391170 -0.940855
  C 5.039486 -0.842376 -2.095166
  H 4.436516 -1.180979 -2.913249
  H 6.106264 -0.876890 -2.227460
  H 0.470971 0.240485 1.368664
  H 0.493308 -0.813489 -0.086641
  H 1.355669 0.809190 -0.187598
  H 3.893174 1.430165 1.218836
  H 3.840798 -0.189140 1.892321
  H 1.778725 0.371382 3.180019
  H 1.768127 1.997835 2.474451
  H 2.480026 -0.678926 -1.593807
  H 5.130743 -0.072755 -0.138939
 19
 25.315634
  C 0.986657 -0.060919 0.500533
  C 2.407812 0.108935 0.394549
  C 3.195537 0.644754 1.541138
  C 2.397888 1.150946 2.732444
  H 3.082004 1.502803 3.493339
  C 3.087940 -0.335317 -0.770711
  C 4.478427 -0.389896 -0.938653
  C 5.043950 -0.842758 -2.084958
  H 4.437912 -1.190909 -2.918768
  H 6.113590 -0.874858 -2.209349
  H 0.469816 0.214300 1.409944
  H 0.483574 -0.775294 -0.125843
  H 1.424294 0.848848 -0.109605
  H 3.868192 1.432845 1.196568
  H 3.834237 -0.181332 1.873697
  H 1.797057 0.365201 3.173349
  H 1.757760 1.981731 2.460278
  H 2.484929 -0.688021 -1.597358
  H 5.122749 -0.066586 -0.134818
 19
 27.062782
  C 0.990796 -0.082272 0.499732
  C 2.406713 0.109454 0.385486
  C 3.201904 0.650338 1.535602
  C 2.389215 1.160867 2.741464
  H 3.071216 1.526502 3.499837
  C 3.086413 -0.337944 -0.777349
  C 4.476516 -0.392916 -0.945543
  C 5.043962 -0.851031 -2.092620
  H 4.444363 -1.197551 -2.918260
  H 6.102339 -0.884300 -2.214666
  H 0.476935 0.163536 1.415573
  H 0.473194 -0.739542 -0.184115
  H 1.483499 0.874941 -0.050823
  H 3.867783 1.448314 1.181529
  H 3.853286 -0.176926 1.872896
  H 1.797843 0.367697 3.193177
  H 1.734170 1.986144 2.467263
  H 2.482884 -0.691924 -1.598437
  H 5.124151 -0.065224 -0.138926
 19
 28.653024
  C 0.989252 -0.095683 0.506684
  C 2.400748 0.118964 0.386809
  C 3.201342 0.659355 1.541036
  C 2.392731 1.157192 2.726103
  H 3.072971 1.533477 3.489268
  C 3.084680 -0.336846 -0.778908
  C 4.470009 -0.389959 -0.945761
  C 5.040662 -0.854928 -2.089590
  H 4.444299 -1.205008 -2.911086
  H 6.125356 -0.889439 -2.212535
  H 0.473539 0.127800 1.424815
  H 0.465913 -0.703144 -0.214527
  H 1.524812 0.894729 0.000455
  H 3.858872 1.462581 1.187362
  H 3.852863 -0.156272 1.879592
  H 1.817203 0.368250 3.170950
  H 1.738210 1.963185 2.451304
  H 2.477813 -0.696691 -1.602559
  H 5.112782 -0.058110 -0.145449
 19
 30.426101
  C 0.993356 -0.105104 0.509721
  C 2.400931 0.127269 0.382776
  C 3.205838 0.663010 1.538457
  C 2.390103 1.160111 2.725789
  H 3.066697 1.540478 3.489123
  C 3.085773 -0.335914 -0.782388
  C 4.472185 -0.386653 -0.950106
  C 5.043703 -0.858656 -2.091362
  H 4.447487 -1.213405 -2.912950
  H 6.114569 -0.891182 -2.212796
  H 0.475240 0.110688 1.431105
  H 0.466757 -0.682606 -0.234738
  H 1.564698 0.903733 0.028107
  H 3.861113 1.470008 1.184544
  H 3.862183 -0.153781 1.880605
  H 1.814923 0.363065 3.173025
  H 1.726909 1.967396 2.447235
  H 2.480213 -0.698262 -1.601585
  H 5.117471 -0.046367 -0.149231
 19
 31.900858
  C 0.987688 -0.115416 0.511496
  C 2.402385 0.138007 0.379702
  C 3.210125 0.665890 1.537320
  C 2.396455 1.164597 2.734920
  H 3.069162 1.541579 3.485373
  C 3.087296 -0.334171 -0.785770
  C 4.476249 -0.381657 -0.954077
  C 5.048790 -0.861346 -2.088755
  H 4.453693 -1.223758 -2.907468
  H 6.125580 -0.890447 -2.210839
  H 0.470549 0.094822 1.422901
  H 0.458791 -0.670727 -0.252978
  H 1.595110 0.914714 0.043586
  H 3.857152 1.465299 1.184731
  H 3.855035 -0.137844 1.866975
  H 1.821608 0.361339 3.191025
  H 1.726670 1.977312 2.459558
  H 2.480311 -0.703699 -1.603707
  H 5.115230 -0.033867 -0.163560
 19
 33.527538
  C 0.992163 -0.123550 0.511474
  C 2.397995 0.146958 0.376865
  C 3.210929 0.670755 1.539348
  C 2.399343 1.166168 2.733444
  H 3.060805 1.539002 3.471667
  C 3.088412 -0.330423 -0.788215
  C 4.470073 -0.374889 -0.953285
  C 5.047381 -0.861769 -2.088023
  H 4.456668 -1.229350 -2.901800
  H 6.109073 -0.888854 -2.206626
  H 0.477674 0.087127 1.413015
  H 0.464115 -0.662806 -0.266298
  H 1.624713 0.917884 0.053112
  H 3.860521 1.474577 1.185059
  H 3.864538 -0.144404 1.871097
  H 1.831496 0.368167 3.189304
  H 1.731104 1.973805 2.462244
  H 2.485761 -0.702997 -1.601639
  H 5.113055 -0.017229 -0.156841
 19
 34.889853
  C 0.985423 -0.136252 0.512827
  C 2.400990 0.155452 0.370629
  C 3.215972 0.672951 1.536079
  C 2.398610 1.165576 2.731894
  H 3.078118 1.551462 3.498264
  C 3.090703 -0.325191 -0.792256
  C 4.479482 -0.369058 -0.959692
  C 5.054239 -0.860405 -2.089464
  H 4.458120 -1.239215 -2.904174
  H 6.125445 -0.894133 -2.207276
  H 0.461862 0.081796 1.427734
  H 0.460451 -0.657501 -0.268608
  H 1.650117 0.929852 0.054512
  H 3.862695 1.476203 1.186432
  H 3.862344 -0.134845 1.863978
  H 1.827014 0.360291 3.187084
  H 1.723397 1.976685 2.458523
  H 2.484025 -0.701611 -1.605697
  H 5.125812 -0.008249 -0.162969
 19
 36.162436
  C 0.981996 -0.149630 0.519739
  C 2.402727 0.170815 0.368623
  C 3.218782 0.676281 1.538589
  C 2.404906 1.166299 2.728346
  H 3.081824 1.548057 3.489594
  C 3.092975 -0.322020 -0.792373
  C 4.481116 -0.361935 -0.958441
  C 5.058854 -0.862610 -2.083623
  H 4.465096 -1.246137 -2.899156
  H 6.126433 -0.886970 -2.202741
  H 0.452785 0.078185 1.429853
  H 0.454792 -0.658807 -0.268225
  H 1.677791 0.953635 0.053376
  H 3.869226 1.479964 1.194667
  H 3.864235 -0.142806 1.868175
  H 1.832263 0.358662 3.180396
  H 1.732231 1.976144 2.453102
  H 2.488551 -0.705325 -1.602382
  H 5.119134 0.010037 -0.171763
