 20
 0.000000
  H 1.498051 0.132927 0.381788
  C 2.578533 0.134344 0.386072
  C 3.275671 0.615871 1.583976
  C 2.351717 1.067374 2.706588
  H 2.929541 1.410096 3.559560
  C 3.198529 -0.325193 -0.757295
  C 4.580787 -0.402521 -0.949856
  C 5.208256 -0.866796 -2.108627
  C 4.529265 -1.353904 -3.324137
  H 3.449085 -1.339809 -3.289442
  O 6.513560 -0.900803 -2.194864
  H 3.936728 1.445091 1.304932
  H 3.936450 -0.175890 1.956654
  H 1.711918 0.250536 3.032485
  H 1.712342 1.882802 2.376350
  H 2.556284 -0.648685 -1.563142
  H 5.218522 -0.077172 -0.138610
  H 4.873883 -2.369499 -3.525669
  H 4.874185 -0.758834 -4.171330
  H 6.987264 -0.582504 -1.401861
 20
 0.026744
  H 1.533740 -0.126893 0.538059
  C 2.601804 -0.006962 0.441595
  C 3.286068 0.629593 1.569384
  C 2.339263 1.137652 2.650540
  H 2.898536 1.589549 3.463130
  C 3.198842 -0.461025 -0.714412
  C 4.581151 -0.501854 -0.919179
  C 5.215531 -0.891010 -2.099597
  C 4.527229 -1.226835 -3.360680
  H 3.449934 -1.122425 -3.303405
  O 6.518854 -0.965032 -2.168067
  H 3.913726 1.448183 1.211465
  H 3.983490 -0.094830 2.013998
  H 1.742753 0.325622 3.060058
  H 1.661504 1.887743 2.249707
  H 2.548208 -0.827698 -1.492268
  H 5.215883 -0.248218 -0.077305
  H 4.784948 -2.246041 -3.647043
  H 4.916187 -0.590647 -4.156695
  H 6.995621 -0.750715 -1.347710
 20
 1.376779
  H 1.610250 -0.464622 0.736928
  C 2.635716 -0.190281 0.529563
  C 3.288544 0.674129 1.522412
  C 2.325151 1.252467 2.550416
  H 2.858571 1.882777 3.256498
  C 3.208131 -0.629467 -0.640556
  C 4.588013 -0.629266 -0.867562
  C 5.215820 -0.919253 -2.079259
  C 4.514457 -0.992850 -3.375421
  H 3.449535 -0.823017 -3.288310
  O 6.507466 -1.092099 -2.152218
  H 3.836211 1.478713 1.023067
  H 4.050232 0.084312 2.051174
  H 1.827566 0.463046 3.108459
  H 1.563872 1.858780 2.065743
  H 2.555650 -1.062086 -1.385849
  H 5.202359 -0.485461 0.011345
  H 4.702866 -1.962855 -3.836110
  H 4.946880 -0.255745 -4.052169
  H 6.986895 -1.044929 -1.302877
 20
 4.867379
  H 1.812068 -0.769432 0.962899
  C 2.729767 -0.297315 0.632071
  C 3.289747 0.731520 1.521768
  C 2.256611 1.325533 2.474500
  H 2.714504 2.093100 3.092344
  C 3.255336 -0.648014 -0.594876
  C 4.623915 -0.699682 -0.850639
  C 5.215409 -0.945088 -2.091965
  C 4.498749 -0.848758 -3.379698
  H 3.439659 -0.661789 -3.258186
  O 6.482745 -1.232931 -2.198275
  H 3.780751 1.515650 0.940665
  H 4.080392 0.266750 2.130764
  H 1.841304 0.563514 3.129483
  H 1.441129 1.781434 1.918537
  H 2.561336 -0.979480 -1.357748
  H 5.261370 -0.620319 0.021963
  H 4.659785 -1.757043 -3.960823
  H 4.940516 -0.039655 -3.963072
  H 6.969117 -1.293343 -1.356344
 20
 12.653368
  H 2.115243 -0.960625 1.174272
  C 2.861624 -0.318112 0.718954
  C 3.262104 0.864244 1.489608
  C 2.167364 1.334291 2.441823
  H 2.496320 2.226795 2.968230
  C 3.314130 -0.630342 -0.559072
  C 4.661894 -0.771754 -0.846114
  C 5.215277 -0.993420 -2.109074
  C 4.511482 -0.700042 -3.374182
  H 3.482436 -0.401421 -3.217809
  O 6.438817 -1.433371 -2.252421
  H 3.575371 1.665018 0.817535
  H 4.145272 0.611750 2.096026
  H 1.932681 0.572533 3.179833
  H 1.261899 1.579719 1.894280
  H 2.569677 -0.869735 -1.308862
  H 5.302362 -0.768020 0.024300
  H 4.552310 -1.570705 -4.030655
  H 5.043459 0.093822 -3.894189
  H 6.911593 -1.623537 -1.420995
 20
 23.312993
  H 2.367976 -1.043909 1.251211
  C 2.991457 -0.294895 0.768325
  C 3.219006 0.949763 1.500726
  C 2.081542 1.266895 2.468386
  H 2.281073 2.210888 2.973231
  C 3.402901 -0.550726 -0.564930
  C 4.691108 -0.893243 -0.852978
  C 5.217256 -1.138328 -2.125803
  C 4.554099 -0.721577 -3.376985
  H 3.570738 -0.298431 -3.208177
  O 6.362705 -1.736296 -2.284220
  H 3.395929 1.775308 0.807746
  H 4.139717 0.863009 2.093695
  H 1.979547 0.492173 3.220945
  H 1.140304 1.358814 1.935672
  H 2.644706 -0.522405 -1.336502
  H 5.324060 -0.993617 0.013796
  H 4.499120 -1.564016 -4.072364
  H 5.177413 0.022656 -3.861844
  H 6.797566 -2.026461 -1.461404
 20
 26.169781
  H 2.893175 -1.079630 1.512849
  C 3.208009 -0.267585 0.868922
  C 3.092739 1.093024 1.401977
  C 1.995557 1.259252 2.453870
  H 1.957055 2.289221 2.794220
  C 3.498512 -0.526840 -0.506941
  C 4.682233 -1.095745 -0.837843
  C 5.163966 -1.301456 -2.144454
  C 4.656492 -0.572395 -3.319690
  H 3.791754 0.035849 -3.089135
  O 6.176900 -2.084151 -2.373847
  H 2.967242 1.818091 0.590044
  H 4.054630 1.336601 1.872592
  H 2.173780 0.615418 3.310517
  H 1.026044 1.006667 2.031521
  H 2.738723 -0.300030 -1.247488
  H 5.338044 -1.274399 0.006860
  H 4.425865 -1.270279 -4.123351
  H 5.455544 0.064940 -3.701146
  H 6.510358 -2.578824 -1.598028
 20
 35.319647
  H 3.070901 -1.021126 1.507180
  C 3.267810 -0.222417 0.805396
  C 3.121340 1.143349 1.336286
  C 2.088383 1.221779 2.468726
  H 1.992710 2.250131 2.806379
  C 3.255682 -0.518258 -0.595993
  C 4.477093 -1.058325 -0.899482
  C 5.116489 -1.336128 -2.115787
  C 4.820445 -0.566668 -3.339718
  H 3.969085 0.089935 -3.206306
  O 6.114049 -2.169879 -2.198295
  H 2.859445 1.836345 0.532470
  H 4.086329 1.461005 1.744534
  H 2.388066 0.611034 3.316593
  H 1.115742 0.883970 2.122064
  H 2.396580 -0.423196 -1.240103
  H 5.018183 -1.066683 0.056278
  H 4.642648 -1.248735 -4.171160
  H 5.698517 0.018907 -3.611687
  H 6.279926 -2.705502 -1.400018
 20
 49.249946
  H 3.075193 -1.036624 1.459898
  C 3.257742 -0.250863 0.740201
  C 3.171104 1.131311 1.265250
  C 2.210444 1.202082 2.460267
  H 2.128143 2.231225 2.798362
  C 3.037583 -0.554116 -0.661963
  C 4.286172 -1.004662 -0.955570
  C 5.076741 -1.308740 -2.064971
  C 4.901614 -0.578936 -3.340223
  H 4.019396 0.049741 -3.323206
  O 6.105708 -2.111180 -2.006239
  H 2.849221 1.813405 0.475765
  H 4.155234 1.461282 1.607844
  H 2.570674 0.598603 3.289344
  H 1.220344 0.854599 2.179025
  H 2.126199 -0.540220 -1.226799
  H 4.732334 -0.884817 0.105656
  H 4.835324 -1.295418 -4.158735
  H 5.785314 0.028868 -3.534259
  H 6.198972 -2.612626 -1.175154
 20
 56.618315
  H 3.128261 -1.094675 1.426535
  C 3.281512 -0.312543 0.693327
  C 3.224709 1.095993 1.203432
  C 2.317199 1.161072 2.435389
  H 2.235415 2.191643 2.769234
  C 2.892901 -0.616023 -0.702200
  C 4.137031 -0.982241 -1.021202
  C 5.036833 -1.263183 -2.027524
  C 4.938235 -0.543906 -3.323870
  H 4.026884 0.038492 -3.389406
  O 6.108269 -2.018772 -1.876006
  H 2.855669 1.762334 0.423812
  H 4.217688 1.441571 1.493273
  H 2.722739 0.569248 3.251849
  H 1.319948 0.798272 2.201591
  H 1.944836 -0.639528 -1.194622
  H 4.508544 -0.755767 0.203886
  H 4.976776 -1.270612 -4.134193
  H 5.803545 0.108332 -3.446367
  H 6.155087 -2.516398 -1.040865
 20
 48.776466
  H 3.167871 -1.125884 1.508580
  C 3.364040 -0.364474 0.759990
  C 3.269375 1.081240 1.211509
  C 2.309066 1.186589 2.396462
  H 2.196844 2.229804 2.681247
  C 2.904305 -0.687532 -0.641145
  C 4.085900 -0.991677 -1.113170
  C 5.011907 -1.249931 -2.075000
  C 4.956999 -0.472688 -3.340327
  H 4.055465 0.124618 -3.408423
  O 6.061241 -2.018624 -1.929433
  H 2.919245 1.707885 0.391893
  H 4.246995 1.450434 1.520169
  H 2.688156 0.637943 3.254821
  H 1.327827 0.797291 2.138542
  H 1.910818 -0.766335 -1.032705
  H 4.461359 -0.674163 0.455634
  H 5.010390 -1.169300 -4.175493
  H 5.833856 0.172462 -3.409779
  H 6.078842 -2.566079 -1.123460
 20
 35.723029
  H 3.163543 -1.095587 1.610443
  C 3.476588 -0.374326 0.860532
  C 3.282407 1.095657 1.241084
  C 2.208875 1.224187 2.317625
  H 2.038416 2.274747 2.541338
  C 3.006318 -0.713077 -0.543546
  C 4.082939 -1.031776 -1.185194
  C 4.993735 -1.305293 -2.150628
  C 4.983138 -0.469449 -3.378696
  H 4.127116 0.194675 -3.411512
  O 5.973318 -2.163542 -2.053782
  H 2.987637 1.675818 0.366559
  H 4.219517 1.506581 1.613774
  H 2.517635 0.725949 3.233093
  H 1.267193 0.792763 1.987457
  H 1.976810 -0.769409 -0.850692
  H 4.549585 -0.600879 0.695810
  H 4.983724 -1.128036 -4.245991
  H 5.904724 0.113046 -3.423953
  H 5.962359 -2.742148 -1.268808
 20
 25.679471
  H 3.167789 -1.071373 1.715357
  C 3.622219 -0.397667 0.992610
  C 3.312705 1.074671 1.293475
  C 2.097172 1.214552 2.199694
  H 1.868277 2.266002 2.357798
  C 3.185525 -0.751848 -0.414682
  C 4.122986 -1.057244 -1.240366
  C 4.968748 -1.327606 -2.264172
  C 5.003656 -0.401345 -3.421997
  H 4.235539 0.360793 -3.357138
  O 5.820225 -2.317601 -2.293951
  H 3.128103 1.620803 0.367074
  H 4.184567 1.524685 1.768638
  H 2.283077 0.755876 3.167864
  H 1.220235 0.746002 1.758764
  H 2.125855 -0.800345 -0.625846
  H 4.695185 -0.586289 0.981643
  H 4.891849 -0.976323 -4.340055
  H 5.986976 0.070182 -3.467640
  H 5.777208 -2.945729 -1.548652
 20
 23.013381
  H 3.013547 -1.080043 1.832771
  C 3.638728 -0.519126 1.140860
  C 3.399893 0.988304 1.312594
  C 2.076665 1.282656 2.003639
  H 1.925347 2.356865 2.084692
  C 3.289171 -0.920045 -0.279962
  C 4.169872 -1.079539 -1.194707
  C 4.954083 -1.266387 -2.287274
  C 4.971952 -0.236832 -3.351963
  H 4.256868 0.557274 -3.162712
  O 5.728353 -2.303337 -2.474158
  H 3.414947 1.492314 0.344297
  H 4.225055 1.399636 1.896962
  H 2.060193 0.858052 3.004902
  H 1.239125 0.871934 1.443231
  H 2.230966 -1.083182 -0.462060
  H 4.681444 -0.784788 1.296111
  H 4.770874 -0.711711 -4.312037
  H 5.978763 0.182824 -3.421606
  H 5.709400 -2.985788 -1.776570
 20
 23.537945
  H 2.685888 -1.076531 1.811935
  C 3.487302 -0.664229 1.204527
  C 3.495203 0.870306 1.321417
  C 2.184654 1.407663 1.876028
  H 2.218159 2.493203 1.932645
  C 3.289031 -1.066298 -0.238374
  C 4.194512 -1.127524 -1.143767
  C 4.982929 -1.181484 -2.248252
  C 4.836426 -0.158885 -3.308652
  H 4.029108 0.533190 -3.098228
  O 5.914667 -2.079022 -2.439809
  H 3.684171 1.329411 0.350171
  H 4.318017 1.159227 1.977626
  H 1.997974 1.020208 2.874847
  H 1.346654 1.134561 1.238436
  H 2.268681 -1.359505 -0.480161
  H 4.436050 -1.086742 1.524445
  H 4.668135 -0.654344 -4.264373
  H 5.777171 0.385069 -3.407459
  H 6.007671 -2.754845 -1.742182
