 16
 0.000000
  H 3.336618 -0.470796 -1.121063
  C 4.409789 -0.471092 -1.124293
  C 5.167853 -0.877195 -2.133915
  C 4.707141 -1.408739 -3.458803
  C 3.194578 -1.481309 -3.640788
  C 2.837128 -2.033424 -5.018431
  O 6.534453 -0.846093 -2.060390
  H 4.890599 -0.108505 -0.225073
  H 5.146310 -2.402222 -3.592598
  H 5.146567 -0.783260 -4.241959
  H 2.763723 -0.483676 -3.533651
  H 2.763293 -2.128531 -2.874405
  H 3.239906 -1.397668 -5.804179
  H 1.756320 -2.081731 -5.139698
  H 3.239564 -3.036202 -5.147498
  H 6.805885 -0.502298 -1.199244
 16
 0.862700
  H 3.326796 -0.447072 -1.153923
  C 4.405933 -0.499290 -1.118362
  C 5.169816 -0.889763 -2.132384
  C 4.720358 -1.425324 -3.457632
  C 3.202743 -1.479667 -3.645688
  C 2.835941 -2.044419 -5.018285
  O 6.531753 -0.840503 -2.045533
  H 4.858507 -0.162058 -0.197339
  H 5.143662 -2.418261 -3.565460
  H 5.176108 -0.805943 -4.242254
  H 2.790765 -0.479170 -3.546012
  H 2.764853 -2.103354 -2.869770
  H 3.259047 -1.426791 -5.814848
  H 1.754051 -2.072641 -5.144662
  H 3.216963 -3.048527 -5.129233
  H 6.754900 -0.369268 -1.232722
 16
 4.661202
  H 3.362349 -0.441494 -1.068149
  C 4.433135 -0.525376 -1.112507
  C 5.171225 -0.894533 -2.150646
  C 4.719100 -1.440964 -3.468441
  C 3.205061 -1.459447 -3.659044
  C 2.823873 -2.028588 -5.019157
  O 6.537049 -0.763141 -2.062165
  H 4.892666 -0.430038 -0.137478
  H 5.114608 -2.457105 -3.539822
  H 5.189937 -0.860914 -4.270312
  H 2.810752 -0.446080 -3.561446
  H 2.748901 -2.066796 -2.870325
  H 3.289687 -1.454094 -5.818133
  H 1.744692 -1.994387 -5.158932
  H 3.150558 -3.065667 -5.106907
  H 6.674609 -0.176480 -1.307944
 16
 23.194352
  H 3.473083 -0.153006 -1.106024
  C 4.519420 -0.396043 -1.142841
  C 5.186908 -0.898730 -2.187962
  C 4.713615 -1.421614 -3.501179
  C 3.196435 -1.475269 -3.646101
  C 2.813924 -2.055047 -5.001059
  O 6.553683 -0.768280 -2.015166
  H 4.862665 -0.707583 -0.163979
  H 5.137211 -2.423239 -3.599715
  H 5.156770 -0.837685 -4.312979
  H 2.813700 -0.455041 -3.579158
  H 2.775814 -2.077472 -2.842064
  H 3.209351 -1.441628 -5.806137
  H 1.732669 -2.104458 -5.105730
  H 3.214840 -3.061463 -5.109304
  H 6.449772 -0.228609 -1.184765
 16
 57.567114
  H 3.564261 -0.115608 -1.157056
  C 4.603788 -0.414261 -1.126389
  C 5.279262 -0.887689 -2.255709
  C 4.763205 -1.433936 -3.540343
  C 3.241635 -1.456406 -3.647263
  C 2.790391 -2.054574 -4.973926
  O 6.551560 -0.725961 -2.076737
  H 4.835553 -0.936012 -0.203667
  H 5.160139 -2.451485 -3.630700
  H 5.194193 -0.862622 -4.367203
  H 2.858232 -0.438160 -3.559830
  H 2.829267 -2.042977 -2.823516
  H 3.186457 -1.477469 -5.808351
  H 1.705469 -2.055166 -5.042752
  H 3.140015 -3.079472 -5.070566
  H 6.032418 -0.068640 -1.013550
 16
 32.524486
  H 3.649174 -0.091400 -1.303035
  C 4.653580 -0.415100 -1.134225
  C 5.409370 -0.917890 -2.304520
  C 4.791567 -1.404807 -3.593979
  C 3.264437 -1.421565 -3.608696
  C 2.796221 -2.045134 -4.913823
  O 6.603241 -0.846640 -2.148346
  H 4.698962 -0.987214 -0.195084
  H 5.115690 -2.414792 -3.726113
  H 5.192057 -0.849438 -4.453343
  H 2.894699 -0.404542 -3.546336
  H 2.873982 -2.026906 -2.786481
  H 3.181341 -1.501660 -5.761721
  H 1.699588 -2.092957 -4.941166
  H 3.148466 -3.085194 -5.004216
  H 5.675820 0.003187 -0.869544
 16
 16.325385
  H 3.593789 -0.209099 -1.225798
  C 4.634314 -0.444983 -1.117329
  C 5.412731 -0.896351 -2.318959
  C 4.823541 -1.492402 -3.570204
  C 3.305262 -1.425309 -3.657634
  C 2.748370 -2.071646 -4.919516
  O 6.598156 -0.638349 -2.236434
  H 4.790553 -1.141479 -0.274274
  H 5.188603 -2.513536 -3.682943
  H 5.239234 -0.886454 -4.373052
  H 2.978607 -0.381969 -3.597805
  H 2.848147 -1.870581 -2.764929
  H 3.189146 -1.606418 -5.795842
  H 1.678666 -1.899321 -4.991887
  H 2.970127 -3.137076 -4.949583
  H 5.547837 0.119380 -0.803215
 16
 3.651868
  H 3.601070 -0.207240 -1.274567
  C 4.640048 -0.445304 -1.130174
  C 5.438222 -0.935734 -2.313696
  C 4.819417 -1.501778 -3.558467
  C 3.298206 -1.432628 -3.635199
  C 2.747166 -2.027426 -4.920616
  O 6.626848 -0.709390 -2.253644
  H 4.776019 -1.120418 -0.281163
  H 5.131911 -2.541152 -3.613805
  H 5.282571 -0.982050 -4.407424
  H 2.956680 -0.394969 -3.534851
  H 2.865183 -1.940248 -2.773378
  H 3.132422 -1.494096 -5.786060
  H 1.662360 -1.924887 -4.942124
  H 3.009827 -3.075838 -5.005274
  H 5.431686 0.251484 -0.825907
 16
 -5.944665
  H 3.723805 0.045923 -1.469630
  C 4.674333 -0.369872 -1.183767
  C 5.482713 -0.967801 -2.304022
  C 4.796858 -1.481631 -3.551294
  C 3.273234 -1.454688 -3.566899
  C 2.738705 -2.011346 -4.883003
  O 6.685831 -0.983017 -2.203090
  H 4.527097 -1.123742 -0.408578
  H 5.130731 -2.520437 -3.656497
  H 5.203162 -0.948702 -4.413242
  H 2.919603 -0.429158 -3.454515
  H 2.891055 -2.054925 -2.739937
  H 3.078403 -1.406183 -5.719695
  H 1.650943 -2.021184 -4.880654
  H 3.083933 -3.031873 -5.036674
  H 5.391434 0.308717 -0.724304
 16
 -8.587156
  H 3.780406 0.075289 -1.488380
  C 4.686359 -0.428989 -1.174585
  C 5.516657 -0.911855 -2.335513
  C 4.809339 -1.471873 -3.551370
  C 3.285924 -1.408265 -3.573814
  C 2.735899 -2.036540 -4.849829
  O 6.720120 -0.853956 -2.295697
  H 4.420524 -1.279274 -0.543663
  H 5.132531 -2.513940 -3.643031
  H 5.215784 -0.951373 -4.423315
  H 2.951879 -0.369100 -3.519766
  H 2.878037 -1.940339 -2.710810
  H 3.111410 -1.513042 -5.725211
  H 1.649656 -1.988696 -4.860753
  H 3.032948 -3.081454 -4.920649
  H 5.324364 0.223488 -0.579412
 16
 -9.269894
  H 3.841334 0.136916 -1.459532
  C 4.693981 -0.467878 -1.165247
  C 5.527684 -0.850322 -2.361390
  C 4.812583 -1.460984 -3.550472
  C 3.291014 -1.373270 -3.582820
  C 2.735574 -2.055735 -4.828979
  O 6.725546 -0.711201 -2.369421
  H 4.323128 -1.372710 -0.685565
  H 5.116269 -2.512785 -3.579301
  H 5.231816 -1.000788 -4.449215
  H 2.980462 -0.326254 -3.585596
  H 2.869051 -1.851723 -2.697724
  H 3.103463 -1.567166 -5.728589
  H 1.648635 -2.012483 -4.835324
  H 3.036950 -3.100628 -4.859647
  H 5.314348 0.077093 -0.456978
