 19
 0.000000
  C 0.994592 0.130491 0.373988
  C 2.459068 0.134635 0.392427
  C 3.223444 0.604957 1.560234
  C 2.435587 1.090171 2.765659
  H 3.125479 1.403650 3.545580
  C 3.114830 -0.325293 -0.754731
  C 4.511667 -0.393588 -0.925370
  C 5.098367 -0.844299 -2.059633
  H 4.541052 -1.180566 -2.921295
  H 6.171917 -0.886774 -2.152183
  H 0.550862 0.513347 1.285029
  H 0.623349 -0.880827 0.196386
  H 0.632538 0.726761 -0.466917
  H 3.892749 1.409017 1.229493
  H 3.892368 -0.204236 1.879018
  H 1.806084 0.302760 3.173256
  H 1.806916 1.941027 2.514592
  H 2.499387 -0.655337 -1.582569
  H 5.142844 -0.074081 -0.108244
 19
 0.358861
  C 1.014921 0.025125 0.405984
  C 2.473353 0.154630 0.388313
  C 3.218678 0.705127 1.533311
  C 2.412823 1.154865 2.739746
  H 3.082914 1.565057 3.490424
  C 3.143430 -0.232663 -0.773810
  C 4.516603 -0.520080 -0.881036
  C 5.088995 -0.882041 -2.056702
  H 4.525889 -0.902766 -2.975411
  H 6.129192 -1.151012 -2.114881
  H 0.602553 0.066160 1.407703
  H 0.706036 -0.893646 -0.090302
  H 0.572188 0.841506 -0.172675
  H 3.828694 1.543454 1.173932
  H 3.957635 -0.042512 1.850418
  H 1.874397 0.325537 3.192710
  H 1.698137 1.929797 2.473479
  H 2.547831 -0.370206 -1.668511
  H 5.120400 -0.507581 0.015348
 19
 4.110759
  C 1.064672 -0.059724 0.418927
  C 2.495959 0.241547 0.365344
  C 3.208634 0.860185 1.494214
  C 2.395619 1.179007 2.736843
  H 3.031861 1.667980 3.469339
  C 3.187373 -0.065740 -0.811455
  C 4.458849 -0.652334 -0.874945
  C 5.075219 -0.959049 -2.044915
  H 4.668750 -0.651496 -2.994077
  H 5.996736 -1.513300 -2.062473
  H 0.727430 -0.213149 1.438758
  H 0.839083 -0.930343 -0.192351
  H 0.489163 0.779006 0.016273
  H 3.689085 1.775040 1.125728
  H 4.057851 0.215156 1.757214
  H 1.995644 0.277270 3.193740
  H 1.572285 1.851138 2.511192
  H 2.662298 0.080833 -1.749605
  H 4.919703 -0.959036 0.054441
 19
 12.095640
  C 1.156682 -0.168356 0.435332
  C 2.542444 0.294794 0.380022
  C 3.191857 0.984848 1.502721
  C 2.352500 1.224881 2.750040
  H 2.939171 1.777050 3.478868
  C 3.272720 0.064857 -0.806766
  C 4.363756 -0.793408 -0.914056
  C 5.025814 -1.031734 -2.076941
  H 4.804434 -0.481425 -2.973740
  H 5.793356 -1.781015 -2.136188
  H 0.860905 -0.403103 1.453996
  H 1.019083 -1.024318 -0.220840
  H 0.479337 0.623615 0.097798
  H 3.581643 1.939334 1.124491
  H 4.107241 0.427936 1.758600
  H 2.047549 0.289739 3.213014
  H 1.465406 1.809572 2.524070
  H 2.902508 0.535254 -1.710907
  H 4.645688 -1.353868 -0.032041
 19
 20.388297
  C 1.285296 -0.286488 0.488171
  C 2.606948 0.301508 0.433186
  C 3.157392 1.080838 1.530083
  C 2.276657 1.295848 2.749796
  H 2.802044 1.914755 3.471050
  C 3.393652 0.125247 -0.758083
  C 4.245876 -0.938857 -1.003610
  C 4.955886 -1.081383 -2.162682
  H 4.896854 -0.353410 -2.952591
  H 5.604594 -1.923677 -2.315966
  H 0.987939 -0.549302 1.502391
  H 1.179991 -1.123444 -0.199684
  H 0.572417 0.480443 0.163735
  H 3.489515 2.048942 1.128114
  H 4.106008 0.606573 1.816750
  H 2.034803 0.355922 3.238833
  H 1.351940 1.800767 2.486337
  H 3.271882 0.873652 -1.532090
  H 4.348763 -1.692502 -0.234658
 19
 10.567100
  C 1.416690 -0.399186 0.539078
  C 2.699888 0.287794 0.472830
  C 3.147487 1.173799 1.556024
  C 2.195753 1.365279 2.725746
  H 2.634813 2.058064 3.438366
  C 3.517715 0.145540 -0.672160
  C 4.115416 -1.042304 -1.106134
  C 4.862184 -1.102547 -2.240471
  H 4.989139 -0.243935 -2.877588
  H 5.352363 -2.011916 -2.538167
  H 1.153688 -0.703825 1.550236
  H 1.335585 -1.219788 -0.168668
  H 0.658805 0.337937 0.250065
  H 3.409387 2.148926 1.124900
  H 4.111141 0.789538 1.913534
  H 2.010546 0.431137 3.250007
  H 1.244634 1.776070 2.398683
  H 3.709716 1.039354 -1.256231
  H 4.007715 -1.926296 -0.493153
 19
 2.670728
  C 1.548154 -0.506534 0.609878
  C 2.791882 0.255378 0.528806
  C 3.126362 1.240699 1.571050
  C 2.104812 1.431706 2.679354
  H 2.454117 2.197050 3.365980
  C 3.651407 0.118128 -0.563051
  C 3.986294 -1.090457 -1.207782
  C 4.773527 -1.097668 -2.312844
  H 5.139822 -0.181094 -2.750203
  H 5.033217 -2.015192 -2.811253
  H 1.364076 -0.887856 1.614716
  H 1.475872 -1.287142 -0.142399
  H 0.729535 0.197429 0.420933
  H 3.336055 2.203412 1.088217
  H 4.092054 0.950810 2.007451
  H 1.958212 0.520963 3.254066
  H 1.144836 1.745552 2.280940
  H 4.155141 1.008797 -0.922948
  H 3.641313 -2.021689 -0.786488
 19
 5.330493
  C 1.596620 -0.534857 0.624518
  C 2.834760 0.239655 0.566938
  C 3.126698 1.255701 1.592389
  C 2.098117 1.433947 2.693127
  H 2.411191 2.231910 3.360739
  C 3.732740 0.089518 -0.490287
  C 3.871906 -1.045944 -1.299852
  C 4.644657 -1.091198 -2.422925
  H 4.851643 -0.195984 -2.991526
  H 5.211782 -1.962256 -2.700175
  H 1.341134 -0.837158 1.638413
  H 1.593526 -1.373473 -0.060238
  H 0.788655 0.133680 0.309692
  H 3.289111 2.219934 1.092844
  H 4.104264 1.018417 2.028540
  H 1.987255 0.528681 3.285866
  H 1.125143 1.696946 2.287300
  H 4.410122 0.906511 -0.688703
  H 3.484052 -1.986156 -0.920489
 19
 17.914265
  C 1.620354 -0.572083 0.655561
  C 2.818783 0.251175 0.546467
  C 3.141085 1.250303 1.581896
  C 2.131987 1.421173 2.707114
  H 2.481867 2.189294 3.394649
  C 3.687478 0.115105 -0.534922
  C 3.803638 -1.019475 -1.330486
  C 4.563550 -1.156934 -2.469569
  H 4.517499 -0.367831 -3.222932
  H 5.490922 -1.691890 -2.517924
  H 1.438589 -0.907678 1.674026
  H 1.614475 -1.398314 -0.048228
  H 0.764846 0.060266 0.399169
  H 3.288948 2.219868 1.089351
  H 4.133109 1.012835 1.990632
  H 1.997847 0.501305 3.274586
  H 1.166239 1.738707 2.322914
  H 4.333624 0.948060 -0.774320
  H 3.507876 -1.958254 -0.850247
 19
 36.472176
  C 1.656630 -0.607385 0.681013
  C 2.814186 0.262359 0.538552
  C 3.137660 1.287539 1.551407
  C 2.186181 1.383818 2.733606
  H 2.504679 2.196227 3.385020
  C 3.706690 0.066559 -0.517860
  C 3.733458 -1.064052 -1.319819
  C 4.420033 -1.223462 -2.529122
  H 4.273152 -0.432559 -3.273584
  H 5.493044 -1.328437 -2.522425
  H 1.398832 -0.814071 1.714501
  H 1.750619 -1.515666 0.097385
  H 0.790523 -0.078435 0.257222
  H 3.154062 2.262511 1.040843
  H 4.156363 1.104495 1.895211
  H 2.196799 0.467191 3.329919
  H 1.168642 1.589605 2.411608
  H 4.273477 0.924124 -0.856728
  H 3.680056 -1.989690 -0.737572
 19
 72.115896
  C 1.660258 -0.661305 0.685537
  C 2.823465 0.206588 0.508686
  C 3.161725 1.239104 1.519608
  C 2.212086 1.384241 2.699609
  H 2.574842 2.158555 3.368906
  C 3.651044 0.050643 -0.590327
  C 3.595561 -1.124870 -1.376482
  C 4.399229 -1.319031 -2.536630
  H 4.243862 -0.494037 -3.258475
  H 5.341342 -0.783443 -2.281378
  H 1.454445 -0.830521 1.736837
  H 1.769733 -1.613547 0.159672
  H 0.780800 -0.184889 0.239655
  H 3.216824 2.202651 0.998427
  H 4.190755 1.063772 1.863536
  H 2.142172 0.455048 3.270793
  H 1.213793 1.636477 2.367576
  H 4.311080 0.851314 -0.872298
  H 3.733483 -1.922406 -0.640024
 19
 137.253514
  C 1.693721 -0.691487 0.609858
  C 2.916530 0.200570 0.473916
  C 3.208148 1.225027 1.520369
  C 2.243176 1.336600 2.689843
  H 2.450781 2.177431 3.328739
  C 3.732520 0.027787 -0.607402
  C 3.513069 -1.188426 -1.378956
  C 4.345952 -1.437010 -2.527469
  H 4.167182 -0.427597 -3.037275
  H 4.895699 -0.568981 -2.060043
  H 1.624154 -0.807734 1.697820
  H 1.815094 -1.659753 0.096883
  H 0.756124 -0.176228 0.338898
  H 3.209937 2.201384 1.007021
  H 4.272543 1.156647 1.755163
  H 2.243357 0.405557 3.271102
  H 1.240317 1.446100 2.270884
  H 4.338739 0.817070 -1.019349
  H 3.785476 -1.912051 -0.592888
 19
 283.384434
  C 1.669787 -0.660487 0.497348
  C 3.018407 0.239614 0.319500
  C 3.341877 1.256573 1.397603
  C 2.303531 1.333397 2.526953
  H 2.637392 2.109556 3.206228
  C 3.867365 -0.004626 -0.715722
  C 3.491305 -1.242999 -1.430393
  C 4.563132 -1.256596 -2.526697
  H 3.777422 -0.244033 -2.481281
  H 4.349455 -0.495609 -1.687034
  H 1.496487 -0.749943 1.570566
  H 1.783162 -1.839515 0.097803
  H 0.805422 -0.171766 0.089379
  H 3.399578 2.242862 0.907071
  H 4.345129 1.018663 1.833671
  H 2.264668 0.335973 3.050338
  H 1.284444 1.541220 2.239503
  H 4.508591 0.744297 -1.210473
  H 3.871750 -1.907116 -0.664456
 19
 1076.863468
  C 1.488304 -0.738189 0.386904
  C 3.170052 0.274457 0.227937
  C 3.512763 1.255607 1.333718
  C 2.407142 1.370333 2.442088
  H 2.735022 2.132639 3.134122
  C 3.999733 -0.078254 -0.880098
  C 3.486629 -1.051119 -1.341177
  C 4.463282 -0.828897 -2.117826
  H 3.353897 -0.194937 -1.668782
  H 3.942370 -0.504900 -1.325252
  H 1.303104 -0.858572 1.510066
  H 1.726930 -2.049041 -0.212545
  H 0.615528 -0.262408 0.000552
  H 3.655609 2.250426 0.832218
  H 4.617920 0.958854 1.755237
  H 2.300690 0.294240 3.002982
  H 1.457857 1.643325 2.034454
  H 4.697688 0.491748 -1.478055
  H 3.872422 -1.705679 -0.575100
 19
 6.643041
  C 1.494279 -0.658428 0.486263
  C 3.042945 0.148709 0.283422
  C 3.450883 1.084000 1.346634
  C 2.459782 1.284368 2.476418
  H 2.849481 2.022330 3.175280
  C 3.808558 -0.189347 -0.759493
  C 3.401558 -1.038922 -1.296034
  C 4.412910 -0.910323 -2.184993
  H 3.633406 -0.199072 -1.915682
  H 4.164318 -0.312963 -1.309386
  H 1.333937 -0.764410 1.554628
  H 1.624700 -1.848659 -0.070690
  H 0.622285 -0.129372 0.091041
  H 3.648416 2.053132 0.863833
  H 4.423832 0.772541 1.740967
  H 2.303807 0.362679 3.034319
  H 1.499350 1.636648 2.107634
  H 4.515665 0.449047 -1.280852
  H 3.727686 -1.746894 -0.549366
