 16
 0.000000
  H 1.440728 0.062228 0.032912
  C 2.522577 0.062898 0.021003
  C 3.179694 -0.012935 1.364995
  H 2.434363 -0.057380 2.152555
  C 3.142608 0.129688 -1.162648
  C 2.344860 0.201466 -2.434694
  H 1.280356 0.190044 -2.232274
  C 4.594070 0.136028 -1.274942
  C 5.287541 0.199865 -2.406367
  H 6.366513 0.199766 -2.404568
  H 3.811904 0.857613 1.540254
  H 3.811907 -0.897677 1.441213
  H 2.590993 -0.639646 -3.081003
  H 2.590995 1.109943 -2.982281
  H 5.137069 0.083416 -0.342540
  H 4.829246 0.254732 -3.378735
 16
 -0.026204
  H 1.436869 0.055617 0.031409
  C 2.518165 0.060876 0.019194
  C 3.176283 -0.012230 1.362016
  H 2.426731 -0.025097 2.153580
  C 3.138833 0.128940 -1.164650
  C 2.346215 0.200706 -2.437887
  H 1.282625 0.188098 -2.230707
  C 4.590239 0.135539 -1.270165
  C 5.286272 0.201964 -2.400025
  H 6.362405 0.202576 -2.393640
  H 3.831727 0.844915 1.526525
  H 3.780497 -0.913628 1.451809
  H 2.585787 -0.644548 -3.081367
  H 2.584669 1.114966 -2.982292
  H 5.129767 0.079573 -0.329448
  H 4.823306 0.260176 -3.372999
 16
 -0.029825
  H 1.433750 0.045276 0.026712
  C 2.515166 0.058758 0.019429
  C 3.167935 -0.012209 1.363753
  H 2.418298 -0.000623 2.154951
  C 3.136374 0.132782 -1.163137
  C 2.343972 0.203082 -2.436194
  H 1.281816 0.183885 -2.229932
  C 4.589022 0.142104 -1.267026
  C 5.286261 0.214507 -2.395425
  H 6.361124 0.191380 -2.388678
  H 3.842250 0.832705 1.523326
  H 3.752376 -0.926521 1.467068
  H 2.587497 -0.640484 -3.082663
  H 2.576532 1.119995 -2.977395
  H 5.127133 0.083802 -0.326137
  H 4.822600 0.248199 -3.370954
 16
 -0.028313
  H 1.426805 0.051344 0.028301
  C 2.508777 0.060046 0.020557
  C 3.160045 -0.017495 1.367295
  H 2.410839 0.034963 2.153647
  C 3.134897 0.132933 -1.160014
  C 2.347015 0.202696 -2.437688
  H 1.279325 0.183200 -2.233498
  C 4.586439 0.142889 -1.260227
  C 5.286149 0.210095 -2.388039
  H 6.363053 0.205628 -2.378245
  H 3.864726 0.800082 1.512712
  H 3.705917 -0.955225 1.480541
  H 2.592595 -0.642133 -3.081414
  H 2.580429 1.118590 -2.978003
  H 5.119994 0.085235 -0.321453
  H 4.825417 0.260303 -3.360048
 16
 -0.011063
  H 1.425609 0.040090 0.027023
  C 2.506221 0.053076 0.021051
  C 3.150005 -0.015135 1.368466
  H 2.397498 0.066158 2.149052
  C 3.136998 0.125462 -1.157376
  C 2.348086 0.205887 -2.435091
  H 1.279261 0.198107 -2.232399
  C 4.586791 0.121362 -1.253182
  C 5.289591 0.205022 -2.379501
  H 6.363259 0.217891 -2.366039
  H 3.871499 0.788908 1.503987
  H 3.674891 -0.963110 1.500061
  H 2.584523 -0.641333 -3.082212
  H 2.590908 1.119996 -2.973833
  H 5.118226 0.061468 -0.315665
  H 4.829962 0.290073 -3.351488
 16
 0.025847
  H 1.415077 0.076121 0.026624
  C 2.498371 0.066930 0.022383
  C 3.139023 -0.027203 1.374350
  H 2.386190 0.064765 2.153440
  C 3.133075 0.132850 -1.153940
  C 2.355763 0.203195 -2.436809
  H 1.288391 0.191195 -2.240589
  C 4.585343 0.131642 -1.245476
  C 5.291956 0.206017 -2.368647
  H 6.371445 0.226660 -2.350310
  H 3.879911 0.757617 1.512814
  H 3.637108 -0.987579 1.494614
  H 2.596905 -0.647694 -3.068823
  H 2.599755 1.114061 -2.984082
  H 5.113399 0.100608 -0.301519
  H 4.838850 0.258686 -3.342016
 16
 0.116552
  H 1.407633 0.113016 0.018602
  C 2.489239 0.082819 0.019310
  C 3.119224 -0.038810 1.378195
  H 2.357501 0.030982 2.148066
  C 3.136770 0.146955 -1.149684
  C 2.369481 0.208310 -2.442891
  H 1.298497 0.203868 -2.254666
  C 4.588802 0.149464 -1.226959
  C 5.305249 0.201067 -2.344935
  H 6.381314 0.217765 -2.317356
  H 3.851171 0.749151 1.538927
  H 3.621967 -1.000989 1.476681
  H 2.612584 -0.653876 -3.066577
  H 2.619826 1.112089 -2.995169
  H 5.108524 0.120699 -0.280011
  H 4.859817 0.219798 -3.327811
 16
 0.098693
  H 1.409023 0.083328 0.024697
  C 2.491027 0.079989 0.027329
  C 3.122092 -0.040448 1.381871
  H 2.364366 0.066166 2.152802
  C 3.137209 0.145545 -1.143439
  C 2.369472 0.203551 -2.433358
  H 1.299470 0.182796 -2.243633
  C 4.590780 0.165211 -1.222610
  C 5.306480 0.196696 -2.341907
  H 6.382424 0.229182 -2.316640
  H 3.880056 0.726285 1.529984
  H 3.593762 -1.016629 1.492525
  H 2.626164 -0.646912 -3.063160
  H 2.604966 1.116426 -2.978442
  H 5.111257 0.161657 -0.274615
  H 4.860831 0.201685 -3.321608
 16
 0.160521
  H 1.412291 0.098267 0.037003
  C 2.492198 0.073117 0.033900
  C 3.129954 -0.023636 1.390340
  H 2.358636 -0.012134 2.154798
  C 3.138658 0.127042 -1.136847
  C 2.372249 0.190766 -2.428489
  H 1.300873 0.195269 -2.237811
  C 4.591273 0.121909 -1.215599
  C 5.307539 0.214496 -2.331349
  H 6.385323 0.225482 -2.303954
  H 3.807015 0.815059 1.555534
  H 3.698243 -0.948251 1.479667
  H 2.608437 -0.671714 -3.050778
  H 2.627967 1.092988 -2.981785
  H 5.110319 0.078698 -0.268866
  H 4.863641 0.278845 -3.308722
 16
 0.008992
  H 1.418440 0.057129 0.031466
  C 2.502009 0.060923 0.042070
  C 3.141507 -0.028344 1.400704
  H 2.379259 0.018937 2.174059
  C 3.141811 0.122067 -1.130686
  C 2.373653 0.191305 -2.421127
  H 1.304632 0.186835 -2.230967
  C 4.595533 0.137926 -1.208777
  C 5.311982 0.211574 -2.327644
  H 6.386993 0.269114 -2.299340
  H 3.844286 0.786801 1.561284
  H 3.684073 -0.967566 1.515000
  H 2.616317 -0.661716 -3.052799
  H 2.623821 1.101089 -2.964934
  H 5.114577 0.129235 -0.259587
  H 4.867065 0.242881 -3.307435
 16
 -0.002811
  H 1.415537 0.023599 0.035695
  C 2.498861 0.043579 0.041415
  C 3.138972 -0.030402 1.395761
  H 2.373305 -0.026989 2.162689
  C 3.139875 0.134103 -1.133708
  C 2.374085 0.204663 -2.424286
  H 1.304572 0.174161 -2.240186
  C 4.594254 0.174996 -1.204030
  C 5.316171 0.219707 -2.317443
  H 6.392111 0.214560 -2.285858
  H 3.798612 0.815790 1.565606
  H 3.725924 -0.941433 1.499331
  H 2.637281 -0.636917 -3.064447
  H 2.612046 1.125918 -2.959353
  H 5.109319 0.148608 -0.249652
  H 4.875035 0.214249 -3.300249
 16
 -0.019383
  H 1.422790 0.039655 0.040904
  C 2.503691 0.050940 0.043547
  C 3.144445 -0.033376 1.396093
  H 2.385400 -0.103147 2.169241
  C 3.142041 0.134527 -1.129292
  C 2.369655 0.210044 -2.415272
  H 1.300216 0.206026 -2.222714
  C 4.594768 0.155895 -1.210759
  C 5.308166 0.194585 -2.330838
  H 6.383871 0.221373 -2.306791
  H 3.754065 0.847562 1.595497
  H 3.788228 -0.908715 1.470674
  H 2.609530 -0.639617 -3.051978
  H 2.622232 1.121360 -2.956882
  H 5.117843 0.149001 -0.259902
  H 4.859019 0.212079 -3.310243
 16
 -0.006639
  H 1.425871 0.020778 0.042143
  C 2.507723 0.043392 0.043622
  C 3.142164 -0.031320 1.398999
  H 2.388139 0.095341 2.171782
  C 3.146456 0.124695 -1.128363
  C 2.371384 0.183619 -2.413973
  H 1.302299 0.156193 -2.220513
  C 4.598204 0.149116 -1.214325
  C 5.307981 0.255897 -2.332497
  H 6.384622 0.275650 -2.311008
  H 3.894349 0.745114 1.527448
  H 3.619617 -1.000674 1.544977
  H 2.632946 -0.659965 -3.051011
  H 2.602461 1.099625 -2.955922
  H 5.124259 0.085631 -0.271902
  H 4.857482 0.315101 -3.308173
