 13
 0.000000
  C 1.112384 0.033384 0.059024
  C 2.608841 0.045797 0.033617
  C 3.321215 0.540385 -0.979151
  C 4.763537 0.552664 -1.004297
  C 5.473593 1.045634 -2.013734
  H 6.548230 1.051101 -2.024939
  H 0.750951 -0.416995 0.981269
  H 0.716478 -0.544340 -0.774931
  H 0.716479 1.046291 0.001859
  H 3.111603 -0.374297 0.893829
  H 2.809622 0.958893 -1.836131
  H 5.268845 0.132606 -0.144152
  H 4.974878 1.465397 -2.873287
 13
 7.499190
  C 1.010804 0.025757 0.074641
  C 2.666330 0.044329 0.036623
  C 3.364553 0.539519 -0.977377
  C 4.807513 0.557609 -1.014422
  C 5.508272 1.053548 -2.029940
  H 6.583282 1.062360 -2.047993
  H 0.660643 -0.425200 0.998073
  H 0.617264 -0.551598 -0.757074
  H 0.617266 1.036669 0.018562
  H 3.171986 -0.373997 0.893215
  H 2.845116 0.956229 -1.830675
  H 5.320666 0.139232 -0.157721
  H 5.003589 1.471866 -2.886534
 13
 23.572715
  C 0.910624 0.020083 0.086260
  C 2.725411 0.040945 0.043551
  C 3.400340 0.536564 -0.971329
  C 4.846165 0.562140 -1.023701
  C 5.532685 1.060753 -2.044694
  H 6.608047 1.073020 -2.069816
  H 0.582309 -0.431093 1.010139
  H 0.539858 -0.555480 -0.747445
  H 0.539859 1.031464 0.027542
  H 3.217398 -0.377620 0.900636
  H 2.871875 0.951427 -1.820842
  H 5.368865 0.145801 -0.171174
  H 5.022784 1.477693 -2.898464
 13
 39.640424
  C 0.802558 0.024249 0.077731
  C 2.777271 0.017859 0.090821
  C 3.419343 0.523806 -0.945207
  C 4.870376 0.566044 -1.031685
  C 5.532974 1.076342 -2.076601
  H 6.608708 1.094984 -2.114808
  H 0.542407 -0.438830 1.025987
  H 0.556607 -0.569491 -0.800355
  H 0.556609 1.081800 0.006060
  H 3.170475 -0.422836 0.993221
  H 2.881551 0.934510 -1.786197
  H 5.409665 0.154735 -0.189464
  H 5.016594 1.491904 -2.927567
 13
 57.415779
  C 0.701943 0.019870 0.086698
  C 2.836017 0.014376 0.097948
  C 3.462067 0.521106 -0.939687
  C 4.911270 0.570602 -1.041034
  C 5.552952 1.081256 -2.086683
  H 6.628386 1.106477 -2.138317
  H 0.462432 -0.438781 1.025888
  H 0.478558 -0.564936 -0.782640
  H 0.478558 1.065040 0.013354
  H 3.212509 -0.423908 0.995417
  H 2.913423 0.930462 -1.777920
  H 5.463492 0.161795 -0.203922
  H 5.023254 1.493185 -2.930175
 13
 73.794615
  C 0.594958 0.014242 0.098224
  C 2.888396 0.010312 0.106273
  C 3.502135 0.519377 -0.936137
  C 4.954617 0.575971 -1.052017
  C 5.582566 1.089340 -2.103229
  H 6.657006 1.119517 -2.165032
  H 0.374029 -0.446416 1.041519
  H 0.387598 -0.573811 -0.775032
  H 0.387598 1.064492 0.025035
  H 3.257475 -0.430112 1.008122
  H 2.945420 0.926378 -1.769549
  H 5.516303 0.170165 -0.221063
  H 5.043209 1.498875 -2.941837
 13
 88.064047
  C 0.487816 0.009251 0.108446
  C 2.940606 0.005939 0.115228
  C 3.542435 0.517134 -0.931541
  C 4.994125 0.580829 -1.061959
  C 5.607647 1.097218 -2.119354
  H 6.681423 1.132652 -2.191938
  H 0.287102 -0.453497 1.056018
  H 0.300317 -0.581249 -0.767968
  H 0.300319 1.063488 0.035248
  H 3.299167 -0.435931 1.020036
  H 2.978077 0.922093 -1.760768
  H 5.565632 0.177766 -0.236626
  H 5.058119 1.504137 -2.952619
 13
 99.890319
  C 0.378644 0.004185 0.118816
  C 2.990785 0.001590 0.124133
  C 3.580990 0.514497 -0.926142
  C 5.033600 0.585758 -1.072052
  C 5.632077 1.105195 -2.135685
  H 6.704766 1.146137 -2.219548
  H 0.198865 -0.459861 1.069043
  H 0.211592 -0.588284 -0.760019
  H 0.211591 1.061552 0.045681
  H 3.339402 -0.441912 1.032281
  H 3.008737 0.917386 -1.751130
  H 5.615281 0.185693 -0.252857
  H 5.071916 1.509270 -2.963133
 13
 109.362551
  C 0.268228 -0.000950 0.129332
  C 3.039718 -0.002566 0.132642
  C 3.619375 0.511840 -0.920702
  C 5.071296 0.590584 -1.081936
  C 5.654810 1.113076 -2.151826
  H 6.726454 1.159567 -2.247046
  H 0.108634 -0.466212 1.082051
  H 0.120803 -0.594838 -0.751195
  H 0.120804 1.058621 0.056276
  H 3.379228 -0.447073 1.042849
  H 3.039527 0.912725 -1.741589
  H 5.662992 0.193465 -0.268770
  H 5.083915 1.514255 -2.973339
 13
 116.733197
  C 0.155916 -0.006402 0.140494
  C 3.086755 -0.006415 0.140524
  C 3.656648 0.509275 -0.915452
  C 5.107986 0.595509 -1.092024
  C 5.676707 1.120964 -2.167981
  H 6.747039 1.172975 -2.274497
  H 0.015628 -0.472445 1.094815
  H 0.026538 -0.601379 -0.741220
  H 0.026538 1.054778 0.067567
  H 3.418924 -0.451856 1.052643
  H 3.069138 0.908196 -1.732318
  H 5.709610 0.201339 -0.284895
  H 5.095183 1.519165 -2.983389
 13
 122.311792
  C 0.041705 -0.012202 0.152376
  C 3.131884 -0.009895 0.147650
  C 3.692871 0.506975 -0.910739
  C 5.142888 0.600478 -1.102198
  C 5.697285 1.128770 -2.183963
  H 6.766290 1.186161 -2.301502
  H -0.080580 -0.478954 1.108146
  H -0.071566 -0.607954 -0.730111
  H -0.071563 1.050051 0.079587
  H 3.458273 -0.455842 1.060805
  H 3.097892 0.903928 -1.723574
  H 5.754063 0.209210 -0.301012
  H 5.105402 1.524017 -2.993327
 13
 126.425977
  C -0.074893 -0.018480 0.165224
  C 3.174610 -0.012957 0.153918
  C 3.727297 0.505013 -0.906726
  C 5.175773 0.605551 -1.112587
  C 5.716386 1.136518 -2.199831
  H 6.783897 1.199109 -2.328009
  H -0.180438 -0.485694 1.121940
  H -0.174140 -0.614800 -0.717754
  H -0.174141 1.044530 0.092577
  H 3.496976 -0.459300 1.067886
  H 3.124892 0.900016 -1.715570
  H 5.796169 0.217105 -0.317177
  H 5.114553 1.528840 -3.003203
 13
 129.381953
  C -0.194420 -0.025282 0.179160
  C 3.214381 -0.015603 0.159338
  C 3.759283 0.503441 -0.903505
  C 5.205862 0.610697 -1.123126
  C 5.733328 1.144164 -2.215488
  H 6.799304 1.211726 -2.353847
  H -0.284547 -0.492910 1.136725
  H -0.281710 -0.621997 -0.704119
  H -0.281707 1.038189 0.106642
  H 3.534201 -0.462065 1.073550
  H 3.149600 0.896484 -1.708335
  H 5.835018 0.225000 -0.333344
  H 5.121978 1.533658 -3.013065
 13
 131.422169
  C -0.317895 -0.032732 0.194409
  C 3.250159 -0.017876 0.163990
  C 3.787595 0.502232 -0.901033
  C 5.232077 0.615923 -1.133830
  C 5.746972 1.151729 -2.230981
  H 6.811349 1.224055 -2.379087
  H -0.393810 -0.500627 1.152519
  H -0.395188 -0.629724 -0.689041
  H -0.395188 1.031062 0.122001
  H 3.568862 -0.464351 1.078230
  H 3.170704 0.893304 -1.701830
  H 5.869638 0.232888 -0.349495
  H 5.126578 1.538443 -3.022862
