 14
 0.000000
  C 0.957835 0.138499 0.395556
  C 2.411905 0.105601 0.317687
  H 2.984745 0.446313 1.169746
  C 3.087076 -0.341281 -0.796103
  C 4.483946 -0.371454 -0.873196
  C 5.142908 -0.825130 -2.001215
  H 4.581987 -1.173518 -2.862777
  O 6.421163 -0.888133 -2.162477
  H 0.595931 0.518382 1.345245
  H 0.547272 -0.859396 0.216141
  H 0.549600 0.739732 -0.422198
  H 2.518433 -0.684251 -1.650368
  H 5.057534 -0.027770 -0.021467
  H 6.957174 -0.578650 -1.401713
 14
 4.154665
  C 0.940044 0.127421 0.367003
  C 2.378652 0.094708 0.291248
  H 2.958256 0.434419 1.141204
  C 3.073007 -0.347050 -0.809341
  C 4.472776 -0.370507 -0.870229
  C 5.150205 -0.821998 -1.992735
  H 4.603361 -1.173682 -2.860709
  O 6.422865 -0.877490 -2.137298
  H 0.831719 0.517844 1.345201
  H 0.483323 -0.860510 0.239830
  H 0.486773 0.758882 -0.405408
  H 2.517367 -0.692596 -1.669785
  H 5.034476 -0.023478 -0.011699
  H 6.944832 -0.565668 -1.372012
 14
 13.879622
  C 0.909325 0.121558 0.350869
  C 2.350638 0.087379 0.274127
  H 2.938420 0.425427 1.119929
  C 3.064243 -0.353838 -0.824095
  C 4.465630 -0.371645 -0.871601
  C 5.154101 -0.818680 -1.983748
  H 4.615770 -1.173250 -2.856657
  O 6.436380 -0.868418 -2.117203
  H 1.019698 0.510075 1.326928
  H 0.430352 -0.848532 0.266608
  H 0.435243 0.771388 -0.377428
  H 2.519230 -0.701818 -1.689989
  H 5.017193 -0.022440 -0.008636
  H 6.950297 -0.554380 -1.348511
 14
 26.703219
  C 0.884476 0.117093 0.338368
  C 2.338009 0.086310 0.272882
  H 2.935361 0.417361 1.099773
  C 3.057212 -0.353727 -0.820746
  C 4.463500 -0.369556 -0.864801
  C 5.154178 -0.814583 -1.973395
  H 4.616501 -1.170878 -2.849650
  O 6.435393 -0.862052 -2.103855
  H 1.160296 0.492763 1.284673
  H 0.400235 -0.848010 0.279572
  H 0.405613 0.782955 -0.367110
  H 2.511377 -0.704914 -1.693391
  H 5.013998 -0.019004 0.000535
  H 6.947177 -0.547470 -1.334767
 14
 40.296920
  C 0.857801 0.113808 0.324389
  C 2.328999 0.086445 0.279118
  H 2.949778 0.422663 1.108225
  C 3.054246 -0.357098 -0.813915
  C 4.459966 -0.369102 -0.858765
  C 5.151512 -0.812094 -1.969068
  H 4.615228 -1.167724 -2.841682
  O 6.432351 -0.857847 -2.100741
  H 1.261978 0.474904 1.241239
  H 0.380444 -0.849851 0.273289
  H 0.385504 0.792229 -0.364606
  H 2.513932 -0.708045 -1.679809
  H 5.010024 -0.017652 0.004766
  H 6.946841 -0.542087 -1.330140
 14
 52.295147
  C 0.841837 0.119998 0.298688
  C 2.333140 0.075738 0.291760
  H 2.970856 0.433756 1.109985
  C 3.054856 -0.390305 -0.789027
  C 4.460401 -0.376799 -0.846414
  C 5.144650 -0.804943 -1.963353
  H 4.607664 -1.162345 -2.834733
  O 6.429280 -0.842563 -2.105311
  H 1.337212 0.457061 1.191958
  H 0.375578 -0.849355 0.231252
  H 0.357013 0.843439 -0.337052
  H 2.514206 -0.756198 -1.656269
  H 5.015315 -0.013674 0.017565
  H 6.941944 -0.523186 -1.334502
 14
 57.986767
  C 0.834029 0.123152 0.256007
  C 2.348839 0.067130 0.312818
  H 2.986628 0.466801 1.113890
  C 3.057466 -0.432827 -0.750259
  C 4.465952 -0.385903 -0.831088
  C 5.134200 -0.792208 -1.956751
  H 4.591915 -1.158404 -2.825331
  O 6.424416 -0.826413 -2.115000
  H 1.392994 0.442203 1.157692
  H 0.390472 -0.850897 0.130366
  H 0.328872 0.906768 -0.279325
  H 2.513760 -0.827038 -1.609571
  H 5.020649 -0.010301 0.013898
  H 6.936049 -0.506001 -1.344698
 14
 61.756511
  C 0.838784 0.122932 0.211605
  C 2.359208 0.062588 0.338635
  H 2.994445 0.497971 1.120079
  C 3.062721 -0.463981 -0.715377
  C 4.468103 -0.388612 -0.820594
  C 5.119854 -0.785394 -1.952478
  H 4.571325 -1.167052 -2.813304
  O 6.413318 -0.814169 -2.128470
  H 1.430974 0.406627 1.131978
  H 0.399912 -0.844067 0.023420
  H 0.331970 0.963485 -0.231517
  H 2.522095 -0.885771 -1.551362
  H 5.032913 0.010076 0.015689
  H 6.927025 -0.488082 -1.362994
 14
 63.138498
  C 0.842874 0.128757 0.177824
  C 2.364276 0.057232 0.355517
  H 2.995070 0.533208 1.113970
  C 3.068705 -0.483028 -0.695293
  C 4.469379 -0.389698 -0.814483
  C 5.115464 -0.795889 -1.945394
  H 4.567955 -1.199766 -2.788007
  O 6.409232 -0.801981 -2.138995
  H 1.463891 0.350249 1.120809
  H 0.402437 -0.818754 -0.083048
  H 0.335250 1.018175 -0.158305
  H 2.529793 -0.931648 -1.514670
  H 5.036915 0.027577 0.009468
  H 6.924230 -0.452840 -1.385096
 14
 63.764937
  C 0.847778 0.142050 0.147593
  C 2.369726 0.057407 0.368050
  H 2.996580 0.564823 1.109347
  C 3.072743 -0.487282 -0.685239
  C 4.471853 -0.395004 -0.808853
  C 5.115796 -0.821557 -1.932648
  H 4.568176 -1.248983 -2.763582
  O 6.407130 -0.789333 -2.146502
  H 1.491577 0.282718 1.118554
  H 0.409307 -0.782641 -0.187494
  H 0.337048 1.060465 -0.081749
  H 2.534429 -0.959830 -1.489384
  H 5.041082 0.043487 0.002479
  H 6.919658 -0.404350 -1.409127
 14
 64.063408
  C 0.859173 0.160732 0.118167
  C 2.373479 0.063385 0.378775
  H 3.001932 0.587320 1.112219
  C 3.075093 -0.487651 -0.678401
  C 4.473112 -0.413141 -0.796174
  C 5.117044 -0.853194 -1.916419
  H 4.565446 -1.283741 -2.749796
  O 6.401990 -0.772380 -2.153911
  H 1.515876 0.221174 1.116454
  H 0.426832 -0.744150 -0.269677
  H 0.345914 1.094093 -0.031786
  H 2.536066 -0.988970 -1.468764
  H 5.042104 0.056415 -0.001807
  H 6.909825 -0.353337 -1.432229
 14
 63.507192
  C 0.874449 0.188136 0.082269
  C 2.381607 0.057822 0.395095
  H 2.996785 0.610810 1.118265
  C 3.086236 -0.538086 -0.641230
  C 4.476005 -0.424712 -0.784531
  C 5.114104 -0.863626 -1.910056
  H 4.555805 -1.279880 -2.746399
  O 6.393443 -0.752987 -2.167531
  H 1.533260 0.165716 1.111291
  H 0.430064 -0.695380 -0.341847
  H 0.378170 1.135113 -0.015699
  H 2.544265 -1.046561 -1.427515
  H 5.045025 0.076744 -0.009338
  H 6.901059 -0.317004 -1.455919
 14
 62.195641
  C 0.883443 0.216098 0.059128
  C 2.387653 0.070151 0.395345
  H 2.988108 0.625840 1.125189
  C 3.091806 -0.538403 -0.638232
  C 4.479888 -0.427308 -0.782586
  C 5.120067 -0.887085 -1.899370
  H 4.562373 -1.318555 -2.728675
  O 6.393198 -0.746085 -2.172970
  H 1.554511 0.082614 1.100653
  H 0.435814 -0.641977 -0.407622
  H 0.391603 1.168923 0.035991
  H 2.551092 -1.067883 -1.409119
  H 5.046099 0.104767 -0.025087
  H 6.894366 -0.278229 -1.477509
 14
 60.298552
  C 0.887373 0.240746 0.050404
  C 2.393022 0.080398 0.394712
  H 2.980999 0.640578 1.125592
  C 3.093687 -0.525525 -0.648472
  C 4.477983 -0.394756 -0.800104
  C 5.128406 -0.896760 -1.894776
  H 4.583159 -1.390005 -2.694376
  O 6.403014 -0.763560 -2.165525
  H 1.583680 -0.019742 1.095155
  H 0.433429 -0.590120 -0.460716
  H 0.394428 1.189099 0.106777
  H 2.551805 -1.044412 -1.428570
  H 5.042261 0.145202 -0.047496
  H 6.897480 -0.262774 -1.489029
