 26
 0.000000
  C 1.009700 0.118546 0.347071
  C 2.485021 0.131007 0.378292
  C 3.242720 0.606320 1.560418
  C 2.439927 1.090656 2.764620
  C 3.372624 1.540945 3.884987
  C 3.139038 -0.326757 -0.760487
  C 4.522130 -0.396493 -0.935060
  C 5.168600 -0.854754 -2.078572
  C 4.530733 -1.351076 -3.315943
  H 3.452610 -1.357766 -3.332116
  O 6.481906 -0.879497 -2.142337
  H 0.555517 0.485485 1.259459
  H 0.651875 -0.895883 0.165550
  H 0.651974 0.725008 -0.486155
  H 3.901240 1.421458 1.240006
  H 3.901081 -0.203821 1.893561
  H 1.802052 0.289397 3.141822
  H 1.802386 1.930223 2.482081
  H 4.008191 0.722592 4.216173
  H 2.796076 1.884875 4.740173
  H 4.008494 2.360524 3.557580
  H 2.510544 -0.654204 -1.575397
  H 5.146099 -0.067057 -0.114817
  H 4.900640 -2.360885 -3.502080
  H 4.900385 -0.749559 -4.148170
  H 6.927476 -0.556491 -1.336779
 26
 9.342622
  C 1.004011 0.125042 0.362883
  C 2.480608 0.141199 0.403851
  C 3.230784 0.619006 1.592329
  C 2.418755 1.101427 2.791334
  C 3.344084 1.553691 3.917010
  C 3.144896 -0.315094 -0.731012
  C 4.515981 -0.378846 -0.890826
  C 5.225868 -0.891565 -2.170466
  C 4.555278 -1.377803 -3.382096
  H 3.474119 -1.367130 -3.354369
  O 6.523766 -0.914658 -2.230977
  H 0.544172 0.491015 1.272624
  H 0.649800 -0.890032 0.177823
  H 0.650169 0.729609 -0.473400
  H 3.889725 1.435763 1.276687
  H 3.889300 -0.189161 1.930159
  H 1.780788 0.298417 3.164647
  H 1.781419 1.939778 2.504662
  H 3.979454 0.736531 4.251477
  H 2.762371 1.896530 4.769185
  H 3.980105 2.374496 3.592854
  H 2.523598 -0.645073 -1.552220
  H 5.148009 -0.053599 -0.081221
  H 4.904254 -2.392885 -3.579486
  H 4.903656 -0.780232 -4.226300
  H 6.974660 -0.591773 -1.426672
 26
 27.758674
  C 1.025482 0.119824 0.353165
  C 2.497251 0.144267 0.415763
  C 3.228373 0.625056 1.609486
  C 2.395359 1.103994 2.796067
  C 3.302516 1.562447 3.934131
  C 3.177734 -0.303580 -0.696525
  C 4.541915 -0.354802 -0.823462
  C 5.289820 -0.924676 -2.251652
  C 4.528370 -1.383033 -3.402243
  H 3.456215 -1.326934 -3.263508
  O 6.565744 -0.942571 -2.297522
  H 0.554008 0.484193 1.256976
  H 0.679415 -0.896594 0.162462
  H 0.680312 0.720683 -0.488891
  H 3.886430 1.445792 1.305300
  H 3.885731 -0.177630 1.959779
  H 1.757330 0.296904 3.160199
  H 1.758409 1.938612 2.498138
  H 3.937677 0.748647 4.277005
  H 2.708388 1.903276 4.778321
  H 3.938559 2.385702 3.616734
  H 2.573296 -0.635816 -1.524695
  H 5.217194 -0.044839 -0.047697
  H 4.814312 -2.411914 -3.626703
  H 4.815062 -0.790735 -4.272643
  H 7.025978 -0.625525 -1.504312
 26
 48.504508
  C 1.025866 0.119979 0.354827
  C 2.501457 0.152980 0.439712
  C 3.219784 0.638955 1.645851
  C 2.371576 1.114230 2.820824
  C 3.261474 1.577637 3.969441
  C 3.209335 -0.294167 -0.670166
  C 4.555259 -0.335043 -0.770262
  C 5.341729 -0.962459 -2.345693
  C 4.516613 -1.400630 -3.449862
  H 3.459548 -1.316904 -3.241701
  O 6.613319 -0.978695 -2.386459
  H 0.542133 0.482318 1.252808
  H 0.686892 -0.898574 0.160308
  H 0.688253 0.719603 -0.491721
  H 3.879827 1.462101 1.348590
  H 3.878835 -0.160548 2.003582
  H 1.732407 0.304584 3.177534
  H 1.734152 1.945661 2.514514
  H 3.896007 0.766550 4.320596
  H 2.654997 1.916305 4.806180
  H 3.897546 2.404035 3.658808
  H 2.616337 -0.630644 -1.509688
  H 5.271367 -0.041444 -0.033398
  H 4.765451 -2.436863 -3.695092
  H 4.766826 -0.815445 -4.339189
  H 7.093295 -0.662284 -1.592845
 26
 69.201911
  C 1.015773 0.128404 0.375051
  C 2.491960 0.166181 0.471700
  C 3.202620 0.654020 1.682807
  C 2.343314 1.127304 2.853339
  C 3.223619 1.593407 4.009390
  C 3.215139 -0.280404 -0.636917
  C 4.568403 -0.316833 -0.725939
  C 5.397944 -1.002365 -2.445588
  C 4.538866 -1.428767 -3.519145
  H 3.486982 -1.328407 -3.269651
  O 6.655500 -1.020017 -2.489627
  H 0.525538 0.489639 1.270551
  H 0.680635 -0.891266 0.178717
  H 0.681937 0.727691 -0.473473
  H 3.862162 1.478715 1.389159
  H 3.861067 -0.144241 2.044039
  H 1.704018 0.315350 3.205208
  H 1.705786 1.957097 2.542263
  H 3.857847 0.784191 4.364655
  H 2.610356 1.930119 4.841700
  H 3.859306 2.421287 3.703409
  H 2.628859 -0.618245 -1.479513
  H 5.311185 -0.032199 -0.011982
  H 4.764202 -2.467049 -3.773020
  H 4.765758 -0.848690 -4.416459
  H 7.143020 -0.707847 -1.707329
 26
 88.019055
  C 1.018709 0.132342 0.383447
  C 2.493822 0.177320 0.498015
  C 3.193207 0.667338 1.715368
  C 2.321424 1.136369 2.876198
  C 3.187849 1.605326 4.040617
  C 3.228180 -0.262553 -0.594244
  C 4.555916 -0.291417 -0.664712
  C 5.430476 -1.035013 -2.527337
  C 4.537197 -1.453349 -3.578244
  H 3.497489 -1.339568 -3.295097
  O 6.702079 -1.053942 -2.575052
  H 0.518778 0.491346 1.273888
  H 0.689470 -0.888815 0.184460
  H 0.690768 0.731165 -0.467795
  H 3.852297 1.494618 1.427290
  H 3.851044 -0.129227 2.082049
  H 1.682223 0.321662 3.221117
  H 1.684049 1.963599 2.558714
  H 3.821789 0.798165 4.401512
  H 2.565013 1.939390 4.867065
  H 3.823439 2.435836 3.740707
  H 2.652729 -0.603093 -1.443258
  H 5.319217 -0.015846 0.025774
  H 4.741584 -2.495683 -3.839348
  H 4.742978 -0.876343 -4.484427
  H 7.206134 -0.740569 -1.791777
 26
 103.545827
  C 1.035461 0.133432 0.378833
  C 2.508858 0.193936 0.534859
  C 3.181041 0.689243 1.769261
  C 2.279110 1.149773 2.910073
  C 3.113674 1.624096 4.094796
  C 3.290231 -0.242342 -0.548482
  C 4.621960 -0.260324 -0.594322
  C 5.470374 -1.073750 -2.626177
  C 4.510448 -1.475138 -3.620903
  H 3.492518 -1.339714 -3.278317
  O 6.722291 -1.113795 -2.734712
  H 0.511539 0.487762 1.258190
  H 0.718411 -0.890279 0.174932
  H 0.721075 0.732296 -0.477107
  H 3.839585 1.521425 1.495560
  H 3.836444 -0.103018 2.148824
  H 1.639364 0.329102 3.238360
  H 1.643001 1.971741 2.577964
  H 3.745944 0.821421 4.468674
  H 2.468978 1.951948 4.906864
  H 3.749782 2.459815 3.810165
  H 2.735359 -0.590324 -1.414048
  H 5.445262 -0.010168 0.028025
  H 4.674694 -2.523049 -3.890001
  H 4.671238 -0.903534 -4.540035
  H 7.272987 -0.805522 -1.974041
 26
 116.350805
  C 1.029159 0.143486 0.402609
  C 2.501467 0.208948 0.572816
  C 3.163108 0.706238 1.812776
  C 2.248710 1.164696 2.946901
  C 3.071749 1.641981 4.140024
  C 3.296577 -0.225533 -0.505163
  C 4.622943 -0.240021 -0.542100
  C 5.506159 -1.111063 -2.720306
  C 4.532500 -1.507531 -3.699757
  H 3.515753 -1.366155 -3.339356
  O 6.757782 -1.157350 -2.847926
  H 0.497054 0.496469 1.277853
  H 0.716249 -0.881939 0.196501
  H 0.719776 0.742340 -0.456239
  H 3.822306 1.540867 1.543953
  H 3.818226 -0.084923 2.197851
  H 1.608041 0.341476 3.269662
  H 1.612650 1.985318 2.608703
  H 3.703023 0.841381 4.519487
  H 2.418910 1.967976 4.946283
  H 3.707768 2.479253 3.861097
  H 2.750783 -0.574306 -1.373154
  H 5.460874 0.003602 0.063650
  H 4.687556 -2.555505 -3.970879
  H 4.682180 -0.937180 -4.620632
  H 7.314017 -0.854863 -2.103908
 26
 125.478063
  C 1.026366 0.161848 0.445910
  C 2.487729 0.230098 0.623807
  C 3.136040 0.725968 1.861743
  C 2.213786 1.181544 2.989513
  C 3.028367 1.659701 4.186981
  C 3.294088 -0.205445 -0.457147
  C 4.615412 -0.219884 -0.494411
  C 5.539886 -1.149219 -2.815894
  C 4.565473 -1.551471 -3.804679
  H 3.549569 -1.413743 -3.450989
  O 6.792086 -1.204663 -2.969492
  H 0.487083 0.513281 1.317786
  H 0.718907 -0.863388 0.237019
  H 0.722736 0.759244 -0.414466
  H 3.794439 1.560461 1.597045
  H 3.789976 -0.062849 2.249225
  H 1.573459 0.357293 3.307819
  H 1.578496 2.000402 2.648042
  H 3.659107 0.860371 4.569944
  H 2.370004 1.983810 4.989161
  H 3.664379 2.498483 3.912391
  H 2.750769 -0.555952 -1.329375
  H 5.455519 0.023097 0.108821
  H 4.724519 -2.599681 -4.074043
  H 4.717188 -0.980879 -4.725500
  H 7.359534 -0.900468 -2.225144
 26
 131.179779
  C 1.003369 0.180639 0.490724
  C 2.462589 0.251232 0.673795
  C 3.105017 0.747226 1.913479
  C 2.181322 1.202534 3.043209
  C 2.997606 1.679971 4.240920
  C 3.274391 -0.185213 -0.410808
  C 4.595263 -0.200800 -0.452119
  C 5.576492 -1.187421 -2.911055
  C 4.618826 -1.599769 -3.920390
  H 3.593743 -1.470160 -3.586018
  O 6.834666 -1.252290 -3.089158
  H 0.456395 0.530163 1.359244
  H 0.700696 -0.846220 0.277336
  H 0.704088 0.776671 -0.373445
  H 3.764712 1.582042 1.649512
  H 3.760568 -0.041530 2.300706
  H 1.541082 0.377849 3.361919
  H 1.545727 2.022190 2.702952
  H 3.628669 0.880601 4.623207
  H 2.339847 2.003571 5.043827
  H 3.633583 2.518891 3.966921
  H 2.732604 -0.536105 -1.283323
  H 5.427027 0.047079 0.162164
  H 4.791271 -2.646625 -4.184253
  H 4.782838 -1.028101 -4.837730
  H 7.400043 -0.949837 -2.351265
 26
 134.676629
  C 0.983241 0.202438 0.543674
  C 2.435649 0.273090 0.727098
  C 3.071590 0.767317 1.963336
  C 2.148884 1.222052 3.092755
  C 2.966948 1.698282 4.288954
  C 3.249201 -0.164662 -0.361327
  C 4.570924 -0.181962 -0.407953
  C 5.613030 -1.224381 -3.003286
  C 4.673302 -1.647718 -4.036072
  H 3.642077 -1.527110 -3.722381
  O 6.873931 -1.297738 -3.204273
  H 0.431715 0.550789 1.409809
  H 0.684440 -0.824137 0.326350
  H 0.687839 0.795953 -0.322864
  H 3.732081 1.600606 1.699613
  H 3.727915 -0.020467 2.349202
  H 1.509099 0.397947 3.411988
  H 1.513793 2.041946 2.753901
  H 3.598037 0.898716 4.670502
  H 2.310372 2.021817 5.092553
  H 3.603064 2.537025 4.014965
  H 2.706426 -0.515983 -1.234585
  H 5.391768 0.072032 0.220540
  H 4.859872 -2.693427 -4.294660
  H 4.850071 -1.074162 -4.949824
  H 7.444306 -0.993179 -2.463684
 26
 136.783159
  C 0.955701 0.222476 0.593434
  C 2.406531 0.293372 0.777682
  C 3.039124 0.787553 2.014092
  C 2.117796 1.243215 3.146112
  C 2.939757 1.718668 4.340802
  C 3.220075 -0.145093 -0.312656
  C 4.543422 -0.164042 -0.363859
  C 5.652203 -1.260716 -3.093849
  C 4.732098 -1.694054 -4.149524
  H 3.693809 -1.581903 -3.855407
  O 6.916464 -1.340923 -3.313035
  H 0.399254 0.569841 1.457180
  H 0.660021 -0.805011 0.371512
  H 0.663469 0.813573 -0.276976
  H 3.701719 1.619915 1.749648
  H 3.697541 -0.000146 2.398651
  H 1.477979 0.419529 3.467251
  H 1.482722 2.064217 2.809111
  H 3.571040 0.918691 4.721301
  H 2.285302 2.042766 5.146012
  H 3.576084 2.556999 4.065942
  H 2.676991 -0.496159 -1.185337
  H 5.351630 0.096529 0.280646
  H 4.932335 -2.737959 -4.403030
  H 4.921682 -1.118418 -5.058798
  H 7.483690 -1.037433 -2.576440
 26
 138.081287
  C 0.934193 0.243036 0.644674
  C 2.380300 0.313532 0.829441
  C 3.007276 0.806809 2.063591
  C 2.085986 1.262546 3.194187
  C 2.908066 1.737686 4.388282
  C 3.193927 -0.125416 -0.261102
  C 4.519272 -0.145746 -0.315656
  C 5.690203 -1.296083 -3.182348
  C 4.784258 -1.736603 -4.254077
  H 3.742250 -1.630513 -3.972328
  O 6.955526 -1.381023 -3.416174
  H 0.374096 0.589819 1.505982
  H 0.641255 -0.784112 0.418766
  H 0.645405 0.831128 -0.228634
  H 3.671475 1.637535 1.799484
  H 3.666664 0.020201 2.447711
  H 1.446209 0.439475 3.515579
  H 1.451668 2.083664 2.857283
  H 3.538904 0.937786 4.769374
  H 2.253685 2.062152 5.193183
  H 3.544656 2.575772 4.113736
  H 2.650400 -0.476453 -1.134179
  H 5.318242 0.119568 0.340617
  H 4.994096 -2.779101 -4.504288
  H 4.981958 -1.159048 -5.160038
  H 7.525049 -1.075431 -2.677032
 26
 138.956003
  C 0.908268 0.262003 0.692456
  C 2.353285 0.333234 0.879530
  C 2.976162 0.826989 2.114747
  C 2.054016 1.282958 3.245413
  C 2.876434 1.758264 4.439846
  C 3.167947 -0.105410 -0.209864
  C 4.494514 -0.126211 -0.265697
  C 5.730301 -1.330339 -3.267914
  C 4.835998 -1.776733 -4.353353
  H 3.790917 -1.675121 -4.081518
  O 6.997097 -1.418873 -3.511960
  H 0.343648 0.607942 1.551229
  H 0.618137 -0.765663 0.462231
  H 0.622497 0.847390 -0.184430
  H 3.642317 1.656958 1.851067
  H 3.637372 0.041159 2.498798
  H 1.414168 0.459825 3.567204
  H 1.419831 2.104452 2.908592
  H 3.507177 0.958504 4.821525
  H 2.221889 2.082868 5.244690
  H 3.513121 2.596515 4.165699
  H 2.625507 -0.456542 -1.083103
  H 5.285078 0.143201 0.400875
  H 5.053287 -2.818088 -4.600776
  H 5.040509 -1.197695 -5.256531
  H 7.563699 -1.114032 -2.775688
