 13
 0.000000
  C 1.007289 -0.073107 0.044538
  C 2.503526 -0.082862 0.025389
  C 3.220926 -0.594241 -0.978536
  C 4.662345 -0.606294 -1.002192
  C 5.373425 -1.117119 -2.005029
  H 6.447735 -1.125606 -2.021687
  H 0.642170 0.392333 0.958269
  H 0.613099 -1.087824 0.004112
  H 0.613099 0.490805 -0.800026
  H 3.002161 0.352761 0.880594
  H 2.710853 -1.027688 -1.829456
  H 5.168150 -0.171926 -0.149460
  H 4.869727 -1.550746 -2.856309
 13
 0.703892
  C 1.001463 -0.085394 0.057713
  C 2.493559 -0.050603 -0.044575
  C 3.194006 -0.425899 -1.113736
  C 4.639964 -0.461082 -1.119878
  C 5.361538 -1.183378 -1.967746
  H 6.429561 -1.247806 -1.884316
  H 0.673197 0.216924 1.046707
  H 0.627907 -1.089374 -0.139596
  H 0.551474 0.585663 -0.673361
  H 3.030897 0.288399 0.831272
  H 2.690560 -0.795557 -1.997489
  H 5.130406 0.093024 -0.328590
  H 4.904410 -1.750172 -2.759346
 13
 2.742828
  C 1.016271 -0.124806 0.078461
  C 2.500844 -0.074628 -0.088272
  C 3.173414 -0.323655 -1.207366
  C 4.628175 -0.361960 -1.206590
  C 5.347098 -1.258932 -1.867144
  H 6.414833 -1.312989 -1.750041
  H 0.738456 -0.001434 1.121151
  H 0.620496 -1.075271 -0.277879
  H 0.538657 0.665970 -0.500974
  H 3.074398 0.151410 0.802611
  H 2.661847 -0.589187 -2.122732
  H 5.119271 0.340140 -0.544026
  H 4.891581 -1.981069 -2.524208
 13
 5.257308
  C 1.039951 -0.173263 0.094304
  C 2.519451 -0.129078 -0.120849
  C 3.157158 -0.229726 -1.278766
  C 4.623592 -0.273370 -1.299459
  C 5.319693 -1.310337 -1.734940
  H 6.389502 -1.349688 -1.631600
  H 0.803897 -0.195473 1.153963
  H 0.607590 -1.054576 -0.378329
  H 0.561398 0.701248 -0.347653
  H 3.124884 -0.041140 0.773763
  H 2.625670 -0.358854 -2.211958
  H 5.131301 0.564341 -0.836366
  H 4.843115 -2.165312 -2.185229
 13
 6.506447
  C 1.072458 -0.231765 0.116605
  C 2.548435 -0.213934 -0.131918
  C 3.150638 -0.162706 -1.309405
  C 4.622126 -0.214394 -1.385008
  C 5.293961 -1.335469 -1.574923
  H 6.368166 -1.369475 -1.531869
  H 0.860480 -0.365955 1.173088
  H 0.598568 -1.040252 -0.439181
  H 0.615084 0.701842 -0.211553
  H 3.177489 -0.276286 0.748138
  H 2.590458 -0.136853 -2.234978
  H 5.147165 0.713525 -1.189567
  H 4.789610 -2.269789 -1.759219
 13
 5.425478
  C 1.098542 -0.281930 0.111648
  C 2.569749 -0.294323 -0.165863
  C 3.138417 -0.103473 -1.346502
  C 4.598780 -0.169541 -1.506070
  C 5.275757 -1.299881 -1.407072
  H 6.348459 -1.340494 -1.479884
  H 0.899869 -0.507443 1.155233
  H 0.585964 -1.018582 -0.506492
  H 0.669756 0.693219 -0.118839
  H 3.214402 -0.497956 0.679986
  H 2.546101 0.087812 -2.232532
  H 5.111523 0.770880 -1.671452
  H 4.772855 -2.238037 -1.238186
 13
 3.714781
  C 1.146775 -0.330932 0.164757
  C 2.595937 -0.332815 -0.207641
  C 3.086317 -0.134783 -1.425206
  C 4.523865 -0.186699 -1.684340
  C 5.287666 -1.177038 -1.250056
  H 6.351787 -1.202834 -1.401684
  H 1.021252 -0.449451 1.237055
  H 0.623666 -1.145824 -0.336290
  H 0.668972 0.599546 -0.140366
  H 3.294094 -0.533069 0.594926
  H 2.434282 0.068282 -2.265115
  H 4.951019 0.643645 -2.232781
  H 4.864784 -2.008822 -0.710841
 13
 4.556127
  C 1.175492 -0.396414 0.157769
  C 2.617033 -0.382094 -0.239791
  C 3.095100 -0.049209 -1.436674
  C 4.509940 -0.196730 -1.733764
  C 5.248869 -1.130735 -1.142893
  H 6.318374 -1.167910 -1.218121
  H 1.066179 -0.522546 1.230904
  H 0.658976 -1.217990 -0.339866
  H 0.676508 0.525822 -0.139107
  H 3.321021 -0.574984 0.557854
  H 2.437266 0.307612 -2.217930
  H 4.958847 0.510534 -2.418637
  H 4.794848 -1.925294 -0.574995
 13
 15.300640
  C 1.253051 -0.498317 0.118891
  C 2.692019 -0.308952 -0.250141
  C 3.121639 0.068284 -1.461936
  C 4.519554 -0.162261 -1.731306
  C 5.091259 -1.157034 -1.041331
  H 6.144250 -1.233495 -0.882121
  H 1.123977 -0.574522 1.194705
  H 0.873388 -1.410873 -0.341062
  H 0.639337 0.324452 -0.249703
  H 3.378762 -0.279246 0.581750
  H 2.438694 0.438800 -2.214177
  H 5.095991 0.492477 -2.370392
  H 4.519615 -2.004561 -0.705706
 13
 30.514014
  C 1.355333 -0.598032 0.092663
  C 2.768028 -0.244782 -0.261789
  C 3.149178 0.179246 -1.500224
  C 4.515474 -0.131972 -1.725542
  C 4.893678 -1.167206 -0.929374
  H 5.897242 -1.301454 -0.584748
  H 1.207891 -0.649014 1.167980
  H 1.094432 -1.564157 -0.339358
  H 0.660796 0.133700 -0.322904
  H 3.412970 -0.055550 0.579923
  H 2.455350 0.584961 -2.221912
  H 5.207263 0.436836 -2.328994
  H 4.267433 -2.030587 -0.801504
 13
 39.478836
  C 1.476482 -0.676535 0.073096
  C 2.851292 -0.193129 -0.277361
  C 3.187314 0.272845 -1.564944
  C 4.495291 -0.123571 -1.727253
  C 4.651786 -1.161548 -0.794387
  H 5.600418 -1.347780 -0.297579
  H 1.311430 -0.699514 1.147319
  H 1.307114 -1.678824 -0.322534
  H 0.734812 -0.023509 -0.387006
  H 3.452593 0.126478 0.558323
  H 2.496631 0.698554 -2.273939
  H 5.287916 0.332955 -2.297216
  H 4.011392 -2.024048 -0.830689
 13
 31.032103
  C 1.578644 -0.713222 0.068032
  C 2.931384 -0.158833 -0.290875
  C 3.217823 0.347906 -1.624262
  C 4.475537 -0.112607 -1.739456
  C 4.428652 -1.126492 -0.702842
  H 5.333682 -1.351382 -0.107854
  H 1.406995 -0.710644 1.141665
  H 1.461020 -1.735079 -0.294277
  H 0.812052 -0.110430 -0.416314
  H 3.497881 0.256161 0.532955
  H 2.536303 0.789544 -2.328608
  H 5.331510 0.255096 -2.277272
  H 3.809087 -1.992993 -0.878640
 13
 13.904132
  C 1.650308 -0.768964 0.065145
  C 2.994590 -0.161510 -0.279894
  C 3.264884 0.395965 -1.640015
  C 4.464134 -0.181462 -1.767161
  C 4.264154 -1.114279 -0.630985
  H 5.107643 -1.335762 0.043121
  H 1.466557 -0.763504 1.136521
  H 1.578995 -1.795518 -0.289324
  H 0.862475 -0.198915 -0.426465
  H 3.467749 0.381684 0.535295
  H 2.602677 0.890961 -2.325491
  H 5.356943 0.085326 -2.302860
  H 3.749403 -2.023133 -0.926521
 13
 10.942508
  C 1.636353 -0.753327 0.048094
  C 3.030985 -0.238150 -0.275684
  C 3.320113 0.441844 -1.579801
  C 4.466077 -0.232881 -1.774100
  C 4.233740 -1.175399 -0.632614
  H 5.024448 -1.328167 0.104882
  H 1.423572 -0.705739 1.115017
  H 1.519098 -1.786318 -0.278374
  H 0.898552 -0.152829 -0.476299
  H 3.411193 0.387323 0.541461
  H 2.615871 0.880833 -2.265356
  H 5.406744 0.039097 -2.222904
  H 3.876653 -2.141702 -0.988754
 13
 -1.878622
  C 1.675856 -0.807050 -0.058909
  C 3.038780 -0.152422 -0.208975
  C 3.341360 0.442376 -1.562201
  C 4.365458 -0.368874 -1.799325
  C 4.237290 -1.102378 -0.493027
  H 5.084780 -1.001497 0.183586
  H 1.543217 -1.200494 0.946497
  H 1.566236 -1.623252 -0.769723
  H 0.888979 -0.079692 -0.251065
  H 3.223272 0.531376 0.623880
  H 2.869749 1.240987 -2.104724
  H 5.057781 -0.490096 -2.613869
  H 3.970638 -2.154400 -0.576573
