18

C -3.5074 0.983922 -0.130961
C -2.066376 0.586476 -0.028277
C -1.651863 -0.475354 0.642335
C -0.236842 -0.946096 0.802378
C 0.811211 -0.078642 0.108688
C 2.224536 -0.614026 0.340735
H 2.9491307667696463 -0.0005523346875476731 -0.21479401448812507
H -4.108615 0.162174 -0.515986
H -3.629554 1.843306 -0.784439
H -3.901384 1.242993 0.851519
H -1.361518 1.223916 -0.537547
H -2.384408 -1.09925 1.143229
H -0.010725 -0.99895 1.873006
H -0.172391 -1.967845 0.413533
H 0.606386 -0.056133 -0.96498
H 0.748829 0.943184 0.491918
H 2.427125 -0.599388 1.414303
H 2.269326 -1.655304 0.018018
