20

C 0.896604 0.048492 0.276309
C 2.389213 0.05877 0.094108
C 3.237333 -0.012548 1.358129
H 2.736287210743835 -0.06581498208500441 2.30206530382999
C 2.990578 0.12709 -1.116643
C 2.347486 0.20469 -2.491881
H 1.2889266153361376 0.21348340512771863 -2.647684418339667
C 4.449855 0.132333 -1.209488
C 5.186473 0.194914 -2.318647
O 6.545969 0.195825 -2.334714
H 0.601986 -0.010274 1.317726
H 0.453063 -0.811742 -0.218184
H 0.453065 0.958896 -0.118272
H 3.884107 0.87033 1.388474
H 3.884112 -0.893237 1.28896
H 2.740197 -0.643704 -3.063259
H 2.740197 1.111985 -2.96419
H 5.000315 0.07994 -0.280959
H 4.806058 0.251701 -3.324994
H 6.879827 0.144733 -1.429214
