 14
 0.000000
  H 1.387681 0.123108 0.357066
  C 2.460703 0.091210 0.278156
  H 3.031788 0.432538 1.126632
  C 3.070771 -0.363292 -0.852143
  C 4.469130 -0.407885 -0.964175
  C 5.196592 -0.855776 -2.081411
  C 4.595381 -1.354626 -3.325710
  H 3.513264 -1.349797 -3.315130
  O 6.494866 -0.848233 -2.063372
  H 2.459018 -0.695371 -1.677994
  H 5.042942 -0.065387 -0.111517
  H 4.961349 -2.364331 -3.520424
  H 4.962323 -0.759881 -4.164171
  H 6.906305 -0.516960 -1.235867
 14
 3.596133
  H 1.367857 0.250511 0.299350
  C 2.428727 0.074245 0.277838
  H 2.961180 0.156594 1.211390
  C 3.071825 -0.234002 -0.882561
  C 4.456242 -0.450006 -0.923012
  C 5.191402 -0.875462 -2.043085
  C 4.589375 -1.438556 -3.257571
  H 3.520923 -1.590339 -3.179940
  O 6.494488 -0.920743 -1.997554
  H 2.502867 -0.292041 -1.799003
  H 5.018306 -0.335073 -0.003203
  H 5.084672 -2.377126 -3.509333
  H 4.812532 -0.769539 -4.093239
  H 6.946714 -0.200528 -1.519039
 14
 12.069297
  H 1.329025 0.250138 0.294832
  C 2.392662 0.081826 0.281174
  H 2.921705 0.192839 1.212310
  C 3.041320 -0.258684 -0.866775
  C 4.428528 -0.471945 -0.888156
  C 5.188862 -0.887277 -1.990476
  C 4.628479 -1.389538 -3.244459
  H 3.548153 -1.470889 -3.237583
  O 6.499887 -0.987303 -1.834248
  H 2.476666 -0.348296 -1.783535
  H 4.985885 -0.330049 0.029860
  H 5.075072 -2.356901 -3.474502
  H 4.951779 -0.744460 -4.068968
  H 7.063746 -0.210404 -1.970281
 14
 6.726926
  H 1.278013 0.153568 0.316431
  C 2.351859 0.087002 0.293319
  H 2.885082 0.398338 1.176772
  C 3.009105 -0.380978 -0.804026
  C 4.408923 -0.480159 -0.828586
  C 5.194458 -0.901920 -1.913169
  C 4.671998 -1.281351 -3.230969
  H 3.592859 -1.236424 -3.293950
  O 6.484307 -0.985329 -1.683986
  H 2.433812 -0.681464 -1.667370
  H 4.950488 -0.155777 0.053499
  H 5.012796 -2.295970 -3.453988
  H 5.102301 -0.660749 -4.019481
  H 7.093844 -0.551986 -2.308520
 14
 0.639259
  H 1.250343 0.082126 0.291335
  C 2.323542 -0.002070 0.293700
  H 2.822844 0.061721 1.246378
  C 3.018951 -0.219003 -0.855121
  C 4.416073 -0.341984 -0.858926
  C 5.213051 -0.785148 -1.930705
  C 4.697660 -1.331835 -3.192232
  H 3.615440 -1.366418 -3.219598
  O 6.492185 -0.740294 -1.701094
  H 2.477564 -0.303094 -1.786731
  H 4.976019 -0.017870 0.010753
  H 5.089878 -2.340679 -3.337544
  H 5.053311 -0.743949 -4.040343
  H 7.089697 -0.883323 -2.462528
 14
 10.859176
  H 1.249966 0.037176 0.264904
  C 2.313190 -0.139574 0.265548
  H 2.758562 -0.475055 1.182002
  C 3.044267 0.007678 -0.853071
  C 4.428773 -0.268497 -0.892005
  C 5.184302 -0.773468 -1.960887
  C 4.662402 -1.459735 -3.145317
  H 3.583901 -1.494512 -3.125727
  O 6.476516 -0.733830 -1.702343
  H 2.564446 0.324545 -1.777944
  H 5.133950 0.052253 -0.124313
  H 5.079393 -2.472086 -3.183310
  H 4.981818 -0.975225 -4.068988
  H 7.104458 -0.566522 -2.433678
 14
 29.775270
  H 1.277000 0.059750 0.415215
  C 2.304809 -0.236301 0.292140
  H 2.735105 -0.857355 1.059341
  C 3.018306 0.161339 -0.791521
  C 4.355340 -0.206877 -1.011292
  C 5.117893 -0.786249 -2.016547
  C 4.715264 -1.597253 -3.160415
  H 3.635044 -1.679827 -3.217953
  O 6.400726 -0.622187 -1.692744
  H 2.541007 0.772585 -1.545370
  H 5.249123 0.060167 -0.381394
  H 5.160479 -2.585765 -3.094343
  H 5.073866 -1.135005 -4.082820
  H 7.035692 -0.293383 -2.350849
 14
 61.969440
  H 1.340001 0.194273 0.657248
  C 2.319734 -0.169340 0.404930
  H 2.797704 -0.827108 1.110706
  C 2.905689 0.162244 -0.774139
  C 4.140694 -0.311949 -1.178113
  C 4.956108 -0.816016 -2.081881
  C 4.808241 -1.658440 -3.280001
  H 3.758231 -1.840477 -3.484266
  O 6.266460 -0.585883 -1.546268
  H 2.423798 0.886598 -1.423441
  H 5.507368 -0.111590 -0.615838
  H 5.318147 -2.609932 -3.137534
  H 5.249567 -1.161706 -4.143422
  H 6.904778 -0.112216 -2.123822
 14
 58.955991
  H 1.326542 0.205133 0.705477
  C 2.290551 -0.168080 0.417251
  H 2.780287 -0.829315 1.103484
  C 2.858437 0.170442 -0.775550
  C 4.083998 -0.311375 -1.217980
  C 4.909616 -0.812575 -2.093787
  C 4.800836 -1.659561 -3.286204
  H 3.757232 -1.854540 -3.507837
  O 6.244300 -0.561434 -1.527129
  H 2.368729 0.897620 -1.407782
  H 5.614239 -0.131416 -0.676861
  H 5.326514 -2.600463 -3.120281
  H 5.255009 -1.159877 -4.140416
  H 6.883746 -0.072903 -2.103803
 14
 51.105043
  H 1.323776 0.218799 0.714516
  C 2.281322 -0.162655 0.415885
  H 2.770507 -0.838776 1.095551
  C 2.831570 0.167083 -0.787183
  C 4.031085 -0.310799 -1.238643
  C 4.883578 -0.816470 -2.080429
  C 4.808364 -1.665001 -3.281078
  H 3.774356 -1.854451 -3.542691
  O 6.252004 -0.550855 -1.526504
  H 2.338720 0.895929 -1.412756
  H 5.776918 -0.138920 -0.722249
  H 5.319266 -2.605699 -3.100694
  H 5.288728 -1.163557 -4.119907
  H 6.871412 -0.065422 -2.113353
 14
 46.406844
  H 1.296996 0.148454 0.676932
  C 2.270909 -0.217240 0.389548
  H 2.739388 -0.939530 1.037008
  C 2.866703 0.201889 -0.779541
  C 4.046098 -0.273771 -1.253056
  C 4.903525 -0.779268 -2.076811
  C 4.814079 -1.682942 -3.226204
  H 3.772226 -1.898857 -3.456348
  O 6.294035 -0.534525 -1.561434
  H 2.379845 0.986371 -1.366570
  H 5.918067 -0.065304 -0.759421
  H 5.324405 -2.622266 -3.021922
  H 5.269779 -1.219029 -4.095879
  H 6.897331 -0.085576 -2.171851
 14
 42.336321
  H 1.320637 0.203355 0.708756
  C 2.250189 -0.220234 0.380457
  H 2.688808 -0.988037 0.994696
  C 2.845287 0.200091 -0.777653
  C 4.003332 -0.295769 -1.272319
  C 4.902034 -0.791203 -2.069663
  C 4.836983 -1.681071 -3.245044
  H 3.801559 -1.899207 -3.487183
  O 6.299836 -0.555056 -1.576284
  H 2.406782 1.028026 -1.322408
  H 6.016310 -0.111003 -0.726878
  H 5.363922 -2.614436 -3.032185
  H 5.298445 -1.209281 -4.102028
  H 6.879009 -0.072609 -2.198534
 14
 38.964374
  H 1.336332 0.220408 0.727451
  C 2.243363 -0.226906 0.365822
  H 2.656680 -1.041806 0.933786
  C 2.838059 0.219086 -0.783478
  C 3.975690 -0.292265 -1.309926
  C 4.905390 -0.790004 -2.054948
  C 4.853528 -1.686455 -3.237642
  H 3.823960 -1.929145 -3.475648
  O 6.299766 -0.570833 -1.581658
  H 2.416398 1.078858 -1.292539
  H 6.148872 -0.112236 -0.722810
  H 5.398225 -2.605560 -3.027388
  H 5.301849 -1.203252 -4.102166
  H 6.862860 -0.094634 -2.234529
 14
 37.126119
  H 1.328018 0.229666 0.729580
  C 2.217521 -0.229428 0.339780
  H 2.606336 -1.086168 0.861769
  C 2.821034 0.253199 -0.793506
  C 3.935155 -0.270628 -1.351797
  C 4.897847 -0.779451 -2.039501
  C 4.866506 -1.728557 -3.185913
  H 3.842301 -2.000213 -3.417046
  O 6.294284 -0.534678 -1.606157
  H 2.414323 1.139282 -1.268896
  H 6.274701 -0.035900 -0.757870
  H 5.422696 -2.628444 -2.931923
  H 5.310013 -1.276600 -4.071149
  H 6.830237 -0.086822 -2.303044
 14
 37.053699
  H 1.272238 0.191011 0.654083
  C 2.177597 -0.253622 0.291371
  H 2.538178 -1.129518 0.794591
  C 2.835446 0.269560 -0.790953
  C 3.983452 -0.225791 -1.302788
  C 4.926359 -0.757599 -2.000804
  C 4.836426 -1.726102 -3.127803
  H 3.800309 -1.986994 -3.313776
  O 6.339068 -0.527978 -1.645991
  H 2.448566 1.167970 -1.256106
  H 6.423664 -0.027137 -0.803575
  H 5.388006 -2.628782 -2.876436
  H 5.251312 -1.297210 -4.037985
  H 6.840350 -0.102553 -2.379502
