19
 0
 C 0.11899413 -0.78823417 -2.46388512
 C 0.25601041 -1.13978453 -0.98750425
 C 1.63454911 -1.73994155 -0.71622922
 C 0.00000000 0.00000000 0.00000000
 C -0.22250222 1.41253877 -0.47667681
 O -0.00458181 -0.22871829 1.21508166
 H 0.25096635 -1.67955886 -3.08703453
 H 0.86926223 -0.05307439 -2.77466515
 H -0.87352722 -0.38016289 -2.68171335
 H -0.50557674 -1.89866792 -0.76488826
 H 2.42740730 -1.00440133 -0.89086450
 H 1.81942208 -2.60435395 -1.36284646
 H 1.72124295 -2.07758867 0.32229464
 H -0.26598694 1.50326864 -1.56043663
 H 0.59400944 2.04210959 -0.11307161
 H -1.17371053 1.77163097 -0.07307334
 O 4.30000000 0.00000000 0.00000000
 H 4.86165789 -0.45890637 -0.64258244
 H 4.91189510 0.25197749 0.70784698
