 19
 0.000000
  C 0.101049 -0.767004 -2.478415
  C 0.250904 -1.141530 -1.032995
  C 1.610669 -1.703780 -0.690686
  C 0.008699 -0.015762 0.043297
  C -0.176494 1.358922 -0.492038
  O 0.018358 -0.293802 1.197170
  H 0.214676 -1.670598 -3.081159
  H 0.878658 -0.082849 -2.812383
  H -0.883854 -0.365219 -2.700535
  H -0.540544 -1.855349 -0.762147
  H 2.414882 -0.982990 -0.859235
  H 1.819332 -2.549567 -1.348489
  H 1.658483 -2.021151 0.348657
  H -0.211964 1.420273 -1.570161
  H 0.656174 1.952353 -0.107525
  H -1.095608 1.752245 -0.054415
  O 4.287057 0.025418 -0.005923
  H 4.844087 -0.409900 -0.656754
  H 4.864967 0.278420 0.713487
 19
 0.433170
  C 0.095528 -0.782337 -2.477494
  C 0.270866 -1.165229 -1.038610
  C 1.619884 -1.734284 -0.716109
  C 0.105346 -0.032992 0.050174
  C -0.046672 1.350605 -0.484664
  O 0.131475 -0.313701 1.204397
  H 0.165104 -1.689853 -3.081322
  H 0.886236 -0.124969 -2.833267
  H -0.882758 -0.352116 -2.674193
  H -0.537155 -1.852495 -0.748604
  H 2.362738 -0.971277 -0.879672
  H 1.850149 -2.567797 -1.378513
  H 1.679903 -2.056647 0.320618
  H -0.096744 1.413416 -1.562416
  H 0.809636 1.917241 -0.111358
  H -0.944888 1.771699 -0.030150
  O 4.036254 0.086329 -0.003023
  H 4.632448 -0.321565 -0.640990
  H 4.579114 0.363825 0.740543
 19
 0.744943
  C 0.067250 -0.807188 -2.473206
  C 0.274644 -1.198852 -1.038670
  C 1.637992 -1.767018 -0.757113
  C 0.195298 -0.043488 0.057980
  C 0.099137 1.343374 -0.482975
  O 0.237072 -0.338914 1.210455
  H 0.081486 -1.725624 -3.075316
  H 0.871996 -0.181686 -2.858610
  H -0.902894 -0.341642 -2.641077
  H -0.541231 -1.848463 -0.715381
  H 2.349619 -0.954766 -0.888984
  H 1.894964 -2.569241 -1.459914
  H 1.714005 -2.114661 0.275372
  H 0.035914 1.410294 -1.555750
  H 0.986214 1.873973 -0.124687
  H -0.770715 1.814587 -0.016074
  O 3.779778 0.152946 0.005325
  H 4.453096 -0.205303 -0.587796
  H 4.240847 0.454734 0.787586
 19
 1.797737
  C 0.037278 -0.823159 -2.465827
  C 0.287980 -1.223053 -1.035461
  C 1.643640 -1.801058 -0.799357
  C 0.300993 -0.054145 0.057342
  C 0.251128 1.318152 -0.486642
  O 0.361089 -0.352832 1.207686
  H -0.008311 -1.735062 -3.059048
  H 0.843307 -0.231013 -2.884109
  H -0.916778 -0.323911 -2.594472
  H -0.538853 -1.850907 -0.673896
  H 2.312487 -0.948388 -0.897494
  H 1.912778 -2.556075 -1.529196
  H 1.733867 -2.178863 0.217659
  H 0.169563 1.381937 -1.564242
  H 1.161109 1.811792 -0.152960
  H -0.582951 1.825620 -0.011699
  O 3.533059 0.228616 0.008263
  H 4.307320 -0.049530 -0.515605
  H 3.879350 0.539215 0.847585
 19
 1.888693
  C -0.033140 -0.849011 -2.444347
  C 0.302288 -1.243967 -1.030944
  C 1.673402 -1.840313 -0.874117
  C 0.423962 -0.055673 0.045579
  C 0.410151 1.313366 -0.520005
  O 0.514455 -0.347014 1.191865
  H -0.156044 -1.767897 -3.020807
  H 0.763876 -0.291744 -2.925006
  H -0.974751 -0.313548 -2.512115
  H -0.513298 -1.840346 -0.602532
  H 2.315217 -0.967830 -0.947093
  H 1.933549 -2.546139 -1.663327
  H 1.805464 -2.274236 0.118305
  H 0.304780 1.361439 -1.594229
  H 1.351734 1.778602 -0.217939
  H -0.399199 1.858779 -0.032202
  O 3.304739 0.304980 0.060294
  H 4.172163 0.140416 -0.317775
  H 3.457876 0.587736 0.968764
 19
 4.485000
  C -0.068445 -0.855528 -2.411334
  C 0.350998 -1.236408 -1.022405
  C 1.715603 -1.866639 -0.949460
  C 0.567866 -0.030144 0.032037
  C 0.495566 1.328462 -0.556330
  O 0.689910 -0.315876 1.175454
  H -0.258752 -1.780171 -2.956944
  H 0.710040 -0.330552 -2.957320
  H -0.997322 -0.290950 -2.424330
  H -0.450503 -1.803018 -0.519377
  H 2.349202 -1.003914 -1.081136
  H 1.912004 -2.580236 -1.743298
  H 1.896454 -2.291610 0.035069
  H 0.361112 1.352696 -1.627204
  H 1.430052 1.840866 -0.288881
  H -0.325951 1.850310 -0.056723
  O 3.099086 0.302772 0.125673
  H 4.022066 0.210809 -0.131642
  H 3.097103 0.535661 1.063515
 19
 9.118535
  C -0.076052 -0.847539 -2.371216
  C 0.416907 -1.222284 -1.002236
  C 1.765536 -1.904091 -1.011933
  C 0.699776 0.000072 0.039492
  C 0.550819 1.363020 -0.568721
  O 0.737160 -0.275516 1.192403
  H -0.327756 -1.778645 -2.888329
  H 0.679859 -0.351292 -2.972035
  H -0.991286 -0.259357 -2.338605
  H -0.359928 -1.756091 -0.444917
  H 2.431809 -1.093745 -1.259471
  H 1.836989 -2.658031 -1.791917
  H 2.005889 -2.310268 -0.041016
  H 0.449387 1.366524 -1.645948
  H 1.428771 1.949775 -0.282392
  H -0.328677 1.815644 -0.097800
  O 2.896096 0.286147 0.163118
  H 3.833346 0.213825 -0.044351
  H 2.832392 0.518678 1.099513
 19
 13.199444
  C -0.066677 -0.827541 -2.318775
  C 0.492109 -1.209599 -0.979336
  C 1.809788 -1.937438 -1.065314
  C 0.796284 0.028872 0.063517
  C 0.572887 1.399841 -0.576476
  O 0.666747 -0.224890 1.223775
  H -0.372583 -1.753060 -2.807608
  H 0.667192 -0.357233 -2.964785
  H -0.963182 -0.214754 -2.240835
  H -0.264289 -1.735504 -0.392358
  H 2.522087 -1.203305 -1.389352
  H 1.764442 -2.710354 -1.831133
  H 2.099633 -2.366779 -0.113146
  H 0.565013 1.384017 -1.652276
  H 1.354177 2.077513 -0.224876
  H -0.382693 1.749406 -0.193715
  O 2.722382 0.274330 0.177687
  H 3.647842 0.152872 -0.075541
  H 2.705836 0.534332 1.110082
 19
 13.883707
  C -0.051475 -0.805015 -2.271332
  C 0.555665 -1.197506 -0.953902
  C 1.855353 -1.960120 -1.103542
  C 0.883726 0.064444 0.071795
  C 0.564347 1.430372 -0.588026
  O 0.600620 -0.175225 1.229879
  H -0.390771 -1.724972 -2.745063
  H 0.664723 -0.339821 -2.943720
  H -0.935729 -0.179260 -2.159060
  H -0.179881 -1.733395 -0.351175
  H 2.571276 -1.274871 -1.521681
  H 1.710105 -2.771044 -1.815295
  H 2.198148 -2.376678 -0.161461
  H 0.666206 1.421010 -1.663786
  H 1.238162 2.172212 -0.159259
  H -0.452447 1.682261 -0.304147
  O 2.590895 0.282876 0.202210
  H 3.447977 0.014314 -0.167471
  H 2.662746 0.505874 1.146790
 19
 11.416264
  C -0.036983 -0.798420 -2.241202
  C 0.612720 -1.174484 -0.937642
  C 1.895039 -1.961289 -1.125528
  C 0.970217 0.111679 0.068134
  C 0.545315 1.454796 -0.593710
  O 0.552703 -0.147065 1.218395
  H -0.394447 -1.721351 -2.690111
  H 0.659819 -0.337756 -2.939100
  H -0.911413 -0.167170 -2.109348
  H -0.099482 -1.709677 -0.306050
  H 2.612937 -1.338874 -1.634387
  H 1.680078 -2.802926 -1.789158
  H 2.269578 -2.359941 -0.195717
  H 0.727456 1.472119 -1.657042
  H 1.116678 2.241338 -0.107620
  H -0.507842 1.611830 -0.384817
  O 2.504037 0.310112 0.215525
  H 3.222032 -0.156011 -0.257945
  H 2.646778 0.435209 1.179429
 19
 12.440263
  C -0.023759 -0.791823 -2.216697
  C 0.645170 -1.164435 -0.920606
  C 1.926119 -1.960426 -1.139351
  C 1.015438 0.129404 0.077089
  C 0.518260 1.460988 -0.601982
  O 0.531843 -0.129490 1.229955
  H -0.381031 -1.717060 -2.667243
  H 0.657999 -0.324304 -2.916513
  H -0.901954 -0.164951 -2.072660
  H -0.054599 -1.714430 -0.287198
  H 2.637547 -1.377794 -1.701755
  H 1.674301 -2.818958 -1.758435
  H 2.334315 -2.347581 -0.208820
  H 0.748773 1.492379 -1.658308
  H 1.031653 2.273541 -0.081663
  H -0.546057 1.562927 -0.438498
  O 2.425559 0.318142 0.196213
  H 3.036336 -0.256449 -0.323683
  H 2.638250 0.350387 1.162702
 19
 17.441551
  C -0.014433 -0.795074 -2.206593
  C 0.658870 -1.159384 -0.909213
  C 1.940705 -1.967891 -1.144755
  C 1.046296 0.137008 0.081739
  C 0.482377 1.456865 -0.601801
  O 0.526249 -0.119692 1.234726
  H -0.364877 -1.722363 -2.658076
  H 0.666303 -0.318527 -2.910378
  H -0.892817 -0.177545 -2.063436
  H -0.034746 -1.719172 -0.277933
  H 2.647316 -1.405290 -1.740098
  H 1.663040 -2.833033 -1.736181
  H 2.367837 -2.347748 -0.217655
  H 0.746741 1.505002 -1.648940
  H 0.941452 2.286396 -0.054917
  H -0.587926 1.500410 -0.467682
  O 2.371973 0.309870 0.175486
  H 2.942953 -0.298865 -0.368469
  H 2.647371 0.293222 1.133551
 19
 24.728558
  C -0.017277 -0.822066 -2.215151
  C 0.655124 -1.170162 -0.910536
  C 1.953826 -1.977990 -1.150805
  C 1.054457 0.133054 0.085021
  C 0.459602 1.457160 -0.587849
  O 0.524166 -0.126204 1.240195
  H -0.354408 -1.756310 -2.663087
  H 0.660378 -0.342543 -2.919365
  H -0.903724 -0.213388 -2.081465
  H -0.034776 -1.732486 -0.279879
  H 2.647320 -1.412970 -1.756610
  H 1.675275 -2.852979 -1.735293
  H 2.393472 -2.347368 -0.224576
  H 0.733751 1.521782 -1.632502
  H 0.898602 2.282553 -0.026424
  H -0.613019 1.477264 -0.459406
  O 2.324831 0.300752 0.160094
  H 2.900784 -0.298660 -0.398224
  H 2.628394 0.268961 1.111622
 19
 31.302662
  C -0.015599 -0.835043 -2.215627
  C 0.655511 -1.183196 -0.911442
  C 1.963220 -1.989733 -1.158067
  C 1.060112 0.114379 0.087043
  C 0.426046 1.442138 -0.591022
  O 0.520373 -0.143134 1.243083
  H -0.344564 -1.769236 -2.669984
  H 0.660365 -0.346003 -2.915239
  H -0.906328 -0.233798 -2.081252
  H -0.031118 -1.753632 -0.283356
  H 2.645135 -1.424167 -1.767745
  H 1.685389 -2.865790 -1.737873
  H 2.409944 -2.354941 -0.231744
  H 0.709787 1.515324 -1.632172
  H 0.843428 2.273037 -0.017569
  H -0.646357 1.433356 -0.470168
  O 2.293864 0.293321 0.153271
  H 2.875514 -0.294224 -0.417953
  H 2.618756 0.258536 1.100835
