 20
 0.000000
  H 1.419768 0.162906 0.460545
  C 2.499750 0.140159 0.402145
  C 3.241541 0.613572 1.575432
  H 2.569102 0.931602 2.366255
  C 3.053853 -0.332740 -0.773531
  C 4.432881 -0.418451 -0.988491
  C 5.124020 -0.870185 -2.116469
  C 4.620345 -1.389436 -3.413044
  C 3.131597 -1.500986 -3.692758
  H 3.003040 -1.902699 -4.696110
  O 6.435146 -0.861936 -2.096768
  H 3.896412 1.445872 1.310701
  H 3.898079 -0.168575 1.961254
  H 2.376492 -0.644271 -1.547752
  H 5.062310 -0.089473 -0.169722
  H 5.086206 -2.373516 -3.541352
  H 5.086780 -0.766548 -4.185187
  H 2.644088 -0.530569 -3.664850
  H 2.643522 -2.183759 -3.002885
  H 6.841970 -0.532406 -1.271356
 20
 5.077222
  H 1.411524 0.142449 0.407441
  C 2.488746 0.142545 0.406903
  C 3.178330 0.622811 1.599124
  H 2.480355 0.932320 2.368981
  C 3.111959 -0.308222 -0.713872
  C 4.470176 -0.412243 -0.973322
  C 5.133465 -0.874870 -2.127811
  C 4.594511 -1.391613 -3.417658
  C 3.096315 -1.495487 -3.678555
  H 2.954282 -1.896074 -4.678809
  O 6.459479 -0.879481 -2.141366
  H 3.834340 1.461985 1.352125
  H 3.835261 -0.152943 2.001942
  H 2.654764 -0.662703 -1.595589
  H 5.142579 -0.091183 -0.173712
  H 5.051142 -2.379959 -3.554365
  H 5.052015 -0.771760 -4.199098
  H 2.610786 -0.523357 -3.649160
  H 2.610033 -2.178071 -2.986433
  H 6.891576 -0.552514 -1.323838
 20
 15.056618
  H 1.409143 0.122162 0.361652
  C 2.484526 0.142421 0.408163
  C 3.120320 0.633714 1.625104
  H 2.394152 0.930643 2.367123
  C 3.173985 -0.297876 -0.687594
  C 4.522048 -0.409860 -0.966478
  C 5.133256 -0.877789 -2.134824
  C 4.566082 -1.388449 -3.408852
  C 3.071428 -1.488846 -3.663834
  H 2.932844 -1.888350 -4.661356
  O 6.445473 -0.898659 -2.187724
  H 3.772697 1.479218 1.399608
  H 3.776532 -0.129609 2.046949
  H 2.910164 -0.675181 -1.626450
  H 5.241254 -0.105474 -0.206066
  H 5.016385 -2.377330 -3.550013
  H 5.018549 -0.772566 -4.194170
  H 2.582748 -0.517213 -3.638790
  H 2.580715 -2.173241 -2.975540
  H 6.903763 -0.575453 -1.382910
 20
 28.399960
  H 1.398058 0.097553 0.313015
  C 2.476841 0.134670 0.393509
  C 3.073146 0.637366 1.630285
  H 2.322939 0.925646 2.354726
  C 3.208795 -0.293434 -0.673224
  C 4.557870 -0.409991 -0.965283
  C 5.151232 -0.881496 -2.143209
  C 4.552211 -1.389414 -3.412004
  C 3.043831 -1.475372 -3.633865
  H 2.878283 -1.874949 -4.633361
  O 6.462402 -0.911524 -2.217027
  H 3.720792 1.488984 1.420225
  H 3.729808 -0.115246 2.067635
  H 3.114480 -0.682666 -1.640213
  H 5.314405 -0.109625 -0.215906
  H 4.991707 -2.383756 -3.563268
  H 4.994868 -0.776773 -4.207811
  H 2.564289 -0.503381 -3.596705
  H 2.560897 -2.152119 -2.937161
  H 6.936445 -0.592179 -1.417286
 20
 43.341820
  H 1.383664 0.084004 0.294470
  C 2.463331 0.129939 0.387557
  C 3.043355 0.639331 1.629142
  H 2.281749 0.924722 2.349581
  C 3.213064 -0.291094 -0.662476
  C 4.576006 -0.413999 -0.970459
  C 5.159930 -0.885276 -2.150710
  C 4.545598 -1.389330 -3.413325
  C 3.027857 -1.465883 -3.613905
  H 2.843961 -1.865407 -4.616289
  O 6.471898 -0.919382 -2.233770
  H 3.689211 1.495733 1.422173
  H 3.703480 -0.109932 2.072361
  H 3.259920 -0.682162 -1.633673
  H 5.362411 -0.122170 -0.241500
  H 4.979722 -2.388555 -3.570644
  H 4.983483 -0.776036 -4.215633
  H 2.553663 -0.492880 -3.567467
  H 2.549505 -2.138174 -2.911016
  H 6.956032 -0.599732 -1.429817
 20
 56.268427
  H 1.377114 -0.007961 0.358116
  C 2.451980 0.095521 0.415238
  C 3.036547 0.686668 1.627665
  H 2.282989 0.952485 2.353647
  C 3.189339 -0.321610 -0.644487
  C 4.556135 -0.461557 -0.972711
  C 5.154758 -0.904676 -2.158244
  C 4.549422 -1.381257 -3.428491
  C 3.040756 -1.445227 -3.623404
  H 2.851377 -1.819470 -4.625139
  O 6.466635 -0.936004 -2.233075
  H 3.630583 1.568374 1.383572
  H 3.743513 -0.016237 2.071500
  H 3.334182 -0.716102 -1.611821
  H 5.342941 -0.186393 -0.240288
  H 4.979012 -2.374673 -3.607982
  H 4.986459 -0.752661 -4.214483
  H 2.572866 -0.471359 -3.553124
  H 2.563595 -2.129842 -2.932858
  H 6.935660 -0.641100 -1.435039
 20
 62.909429
  H 1.399363 -0.185671 0.431348
  C 2.464071 0.016163 0.423248
  C 3.016133 0.767076 1.590118
  H 2.243281 0.989082 2.312483
  C 3.185573 -0.383105 -0.609268
  C 4.562740 -0.559016 -0.996494
  C 5.188583 -0.939648 -2.169340
  C 4.571238 -1.368406 -3.459400
  C 3.043082 -1.381626 -3.583010
  H 2.786375 -1.710806 -4.589260
  O 6.504142 -0.969235 -2.245734
  H 3.495968 1.695988 1.292231
  H 3.781213 0.148835 2.051536
  H 3.386950 -0.798207 -1.598911
  H 5.295198 -0.315958 -0.213276
  H 4.976927 -2.365889 -3.690003
  H 4.996750 -0.705847 -4.229654
  H 2.608572 -0.392052 -3.455101
  H 2.576990 -2.089995 -2.896433
  H 6.971836 -0.695908 -1.434264
 20
 67.092162
  H 1.423134 -0.310472 0.518367
  C 2.473913 -0.040633 0.463407
  C 2.985674 0.838708 1.561452
  H 2.204525 1.053403 2.278523
  C 3.191819 -0.448990 -0.552747
  C 4.575898 -0.653170 -0.998935
  C 5.204167 -0.976947 -2.178538
  C 4.572349 -1.344437 -3.487186
  C 3.051440 -1.330956 -3.575813
  H 2.763325 -1.610538 -4.589891
  O 6.524176 -0.994992 -2.259726
  H 3.374252 1.774580 1.167819
  H 3.807161 0.326295 2.062992
  H 3.434521 -0.895753 -1.545909
  H 5.288857 -0.454495 -0.179779
  H 4.957604 -2.328281 -3.762377
  H 4.987832 -0.655532 -4.226633
  H 2.639123 -0.340322 -3.393326
  H 2.592913 -2.061705 -2.914140
  H 6.989675 -0.734167 -1.446261
 20
 71.435234
  H 1.435639 -0.387837 0.579773
  C 2.474830 -0.071818 0.494909
  C 2.964160 0.890144 1.536579
  H 2.188982 1.107769 2.252746
  C 3.194712 -0.497471 -0.510099
  C 4.584895 -0.709765 -0.989962
  C 5.212826 -0.991234 -2.185162
  C 4.573689 -1.315523 -3.500706
  C 3.049515 -1.293868 -3.575440
  H 2.750344 -1.541461 -4.599763
  O 6.528911 -1.010124 -2.264703
  H 3.297703 1.815031 1.075798
  H 3.815459 0.459375 2.055739
  H 3.484605 -0.977787 -1.493893
  H 5.285869 -0.536813 -0.165111
  H 4.954352 -2.297789 -3.809596
  H 4.985958 -0.603018 -4.225115
  H 2.645310 -0.304901 -3.351908
  H 2.593787 -2.041615 -2.929347
  H 6.994348 -0.783094 -1.445980
 20
 74.358210
  H 1.452099 -0.442058 0.620445
  C 2.481335 -0.097026 0.508130
  C 2.945193 0.931183 1.494585
  H 2.168990 1.154994 2.204092
  C 3.205317 -0.546211 -0.479152
  C 4.587896 -0.756876 -0.982493
  C 5.218616 -1.000559 -2.185822
  C 4.571012 -1.286575 -3.505745
  C 3.046709 -1.253095 -3.560330
  H 2.729828 -1.471482 -4.590698
  O 6.537284 -1.021147 -2.266976
  H 3.239359 1.843606 0.987184
  H 3.816938 0.555117 2.027004
  H 3.532079 -1.061517 -1.443634
  H 5.279060 -0.598792 -0.151724
  H 4.941000 -2.260973 -3.842823
  H 4.979297 -0.559775 -4.214566
  H 2.653690 -0.263999 -3.299850
  H 2.593971 -2.013535 -2.925375
  H 7.005027 -0.820097 -1.444045
 20
 76.180916
  H 1.471760 -0.490762 0.656911
  C 2.487095 -0.116072 0.523048
  C 2.916376 0.979921 1.471177
  H 2.122944 1.204732 2.182320
  C 3.221058 -0.578420 -0.444524
  C 4.599946 -0.797595 -0.980855
  C 5.227797 -1.006148 -2.200376
  C 4.568827 -1.255938 -3.518858
  C 3.048343 -1.214095 -3.547497
  H 2.715833 -1.403159 -4.561285
  O 6.539736 -1.042116 -2.286460
  H 3.174946 1.887392 0.924135
  H 3.798232 0.660513 2.012326
  H 3.575023 -1.136224 -1.410274
  H 5.288798 -0.660917 -0.144443
  H 4.928577 -2.231776 -3.881339
  H 4.973660 -0.518065 -4.218796
  H 2.671278 -0.236145 -3.261167
  H 2.598882 -1.982368 -2.920943
  H 7.015925 -0.880456 -1.450737
 20
 75.830545
  H 1.512300 -0.546333 0.671685
  C 2.504239 -0.132452 0.527034
  C 2.860556 1.030884 1.411787
  H 2.048278 1.253354 2.090106
  C 3.280842 -0.607909 -0.398194
  C 4.638275 -0.852645 -0.969452
  C 5.247811 -1.016566 -2.204888
  C 4.557489 -1.211406 -3.520803
  C 3.032090 -1.154134 -3.504936
  H 2.666728 -1.301861 -4.518212
  O 6.564720 -1.074283 -2.307007
  H 3.082397 1.912078 0.818298
  H 3.748881 0.789333 1.988959
  H 3.649817 -1.256175 -1.354040
  H 5.336156 -0.749991 -0.130180
  H 4.893681 -2.174770 -3.920664
  H 4.950975 -0.456209 -4.207913
  H 2.674901 -0.180210 -3.168988
  H 2.590950 -1.940522 -2.890289
  H 7.051224 -0.968918 -1.471404
 20
 74.034678
  H 1.557568 -0.608963 0.656491
  C 2.530664 -0.148355 0.521017
  C 2.786309 1.088038 1.351816
  H 1.937975 1.296761 1.986761
  C 3.364665 -0.623615 -0.347294
  C 4.690193 -0.905467 -0.949651
  C 5.269312 -1.029825 -2.216890
  C 4.537630 -1.165731 -3.514686
  C 3.015034 -1.085236 -3.447279
  H 2.614783 -1.196773 -4.446563
  O 6.579012 -1.108030 -2.352469
  H 2.973991 1.946604 0.712118
  H 3.671765 0.937533 1.974609
  H 3.740549 -1.372727 -1.293787
  H 5.398007 -0.857811 -0.118862
  H 4.848438 -2.118520 -3.965614
  H 4.919978 -0.389088 -4.183249
  H 2.683038 -0.116069 -3.066419
  H 2.583695 -1.881178 -2.845160
  H 7.084034 -1.084769 -1.520871
