 17
 0.000000
  H -1.322893 -0.474631 0.626976
  C -0.860978 0.292690 0.018005
  C -1.313921 0.136203 -1.455979
  C -1.193913 1.667201 0.404804
  C -2.398690 2.009170 1.149677
  O -0.470095 2.638068 0.021434
  H 0.225843 0.148664 0.045449
  H -2.396805 0.183318 -1.525298
  H -0.989688 -0.836315 -1.810772
  H -0.886211 0.895509 -2.101893
  H -2.853916 1.155701 1.637361
  H -3.120259 2.441189 0.450179
  H -2.190701 2.808948 1.860198
  H 0.332810 2.410542 -0.496194
  O 2.220622 -0.266773 -0.249583
  H 2.745602 0.170762 0.428475
  H 2.832596 -0.521901 -0.945605
 17
 -0.983732
  H -1.402830 -0.426105 0.542914
  C -0.893132 0.313437 -0.071595
  C -1.326069 0.134085 -1.544778
  C -1.189692 1.683373 0.355612
  C -2.308911 1.985477 1.235918
  O -0.513347 2.666458 -0.074238
  H 0.188063 0.133817 -0.018737
  H -2.405501 0.212653 -1.634594
  H -1.026119 -0.854540 -1.877151
  H -0.865311 0.867236 -2.200344
  H -2.641985 1.123878 1.799234
  H -3.140551 2.322758 0.611556
  H -2.079410 2.827216 1.885703
  H 0.233928 2.457585 -0.680219
  O 2.195648 -0.195007 -0.120538
  H 2.712093 0.102911 0.634052
  H 2.820970 -0.500715 -0.784154
 17
 -1.599805
  H -1.493074 -0.414447 0.452705
  C -0.950044 0.305811 -0.153617
  C -1.318705 0.114256 -1.638626
  C -1.195350 1.681256 0.290969
  C -2.184719 1.986286 1.316202
  O -0.576627 2.662049 -0.221648
  H 0.125675 0.102135 -0.055079
  H -2.391176 0.222699 -1.777718
  H -1.035784 -0.886837 -1.944982
  H -0.809230 0.819810 -2.287991
  H -2.377087 1.143913 1.971513
  H -3.122686 2.223190 0.803889
  H -1.914968 2.880746 1.874424
  H 0.079543 2.451153 -0.920412
  O 2.134128 -0.117168 0.052800
  H 2.597128 0.105663 0.865999
  H 2.793139 -0.441495 -0.567220
 17
 -2.244373
  H -1.566085 -0.393398 0.361919
  C -0.991495 0.319488 -0.224368
  C -1.265939 0.116611 -1.723443
  C -1.217788 1.690470 0.235431
  C -2.063164 1.966744 1.390618
  O -0.698799 2.690327 -0.347060
  H 0.078338 0.107509 -0.056600
  H -2.324594 0.246068 -1.933283
  H -0.987670 -0.894410 -2.001636
  H -0.699237 0.798229 -2.351155
  H -2.097539 1.133803 2.084988
  H -3.080650 2.117946 1.017768
  H -1.774798 2.892617 1.882991
  H -0.140866 2.501316 -1.131466
  O 2.040484 -0.094275 0.196530
  H 2.447837 0.055294 1.054724
  H 2.722545 -0.443753 -0.382782
 17
 -3.043130
  H -1.619358 -0.376623 0.280492
  C -1.020732 0.337522 -0.281103
  C -1.186549 0.122593 -1.788877
  C -1.252862 1.701974 0.183102
  C -1.938190 1.951191 1.448565
  O -0.872009 2.721313 -0.469643
  H 0.037020 0.122661 -0.027490
  H -2.221774 0.279208 -2.082797
  H -0.919532 -0.899860 -2.034323
  H -0.550319 0.773694 -2.379777
  H -1.815784 1.132733 2.150540
  H -3.007300 2.029726 1.228804
  H -1.638882 2.902675 1.881293
  H -0.433884 2.551782 -1.331280
  O 1.928493 -0.119840 0.330172
  H 2.300355 0.026164 1.204386
  H 2.627495 -0.477321 -0.222978
 17
 -3.408360
  H -1.642834 -0.372599 0.218719
  C -1.039218 0.354667 -0.322464
  C -1.107141 0.134886 -1.833442
  C -1.287635 1.709119 0.145092
  C -1.835329 1.941591 1.481014
  O -1.027734 2.738854 -0.551470
  H 0.002093 0.150243 0.009885
  H -2.116188 0.309692 -2.199161
  H -0.845690 -0.893213 -2.058798
  H -0.415205 0.767555 -2.381699
  H -1.622665 1.123147 2.160679
  H -2.922267 2.007006 1.380270
  H -1.502432 2.895481 1.884503
  H -0.695256 2.575823 -1.461155
  O 1.816178 -0.194709 0.445914
  H 2.189057 0.010691 1.305711
  H 2.527681 -0.515430 -0.113020
 17
 -3.033555
  H -1.609313 -0.390351 0.195871
  C -1.043477 0.364750 -0.346659
  C -1.057459 0.139278 -1.856027
  C -1.309866 1.708457 0.125021
  C -1.765177 1.935698 1.497653
  O -1.139521 2.743100 -0.595928
  H 0.006465 0.191251 0.005908
  H -2.055742 0.297393 -2.260189
  H -0.774368 -0.885415 -2.069141
  H -0.356694 0.783238 -2.380773
  H -1.522503 1.107667 2.153685
  H -2.853489 2.030993 1.471611
  H -1.382815 2.877205 1.886287
  H -0.882159 2.579243 -1.529737
  O 1.706219 -0.285128 0.529681
  H 2.085726 0.043469 1.348830
  H 2.429589 -0.498046 -0.065513
 17
 -2.751424
  H -1.597770 -0.393755 0.175755
  C -1.040017 0.373535 -0.358626
  C -1.032543 0.158678 -1.868953
  C -1.306900 1.707765 0.131951
  C -1.706364 1.917348 1.526450
  O -1.183447 2.753030 -0.585421
  H 0.005294 0.194789 0.005811
  H -2.030839 0.286839 -2.283890
  H -0.714752 -0.856784 -2.087007
  H -0.349168 0.827605 -2.380349
  H -1.406420 1.095578 2.167430
  H -2.798059 1.978390 1.552328
  H -1.335120 2.868296 1.899702
  H -0.969969 2.601180 -1.531933
  O 1.670482 -0.358525 0.563764
  H 2.058816 0.038852 1.349240
  H 2.388058 -0.504256 -0.060332
 17
 -1.427199
  H -1.570476 -0.406637 0.202542
  C -1.037029 0.366365 -0.346754
  C -0.985097 0.118515 -1.849794
  C -1.275061 1.697230 0.139188
  C -1.687101 1.918729 1.531646
  O -1.095349 2.750240 -0.564729
  H 0.016288 0.174480 0.035876
  H -1.981720 0.166568 -2.284355
  H -0.595785 -0.876773 -2.039049
  H -0.346309 0.827726 -2.369959
  H -1.419722 1.086862 2.174916
  H -2.774919 2.013651 1.548459
  H -1.284256 2.855030 1.908884
  H -0.877164 2.595528 -1.507528
  O 1.567174 -0.361122 0.566966
  H 1.952277 0.142993 1.292856
  H 2.247096 -0.438972 -0.110412
 17
 1.097052
  H -1.484274 -0.447506 0.251230
  C -1.039570 0.357178 -0.329606
  C -1.001990 0.103429 -1.830141
  C -1.251720 1.663979 0.181704
  C -1.602363 1.881479 1.595656
  O -1.079452 2.740686 -0.510448
  H 0.065851 0.165558 0.012090
  H -1.993809 0.181993 -2.263588
  H -0.647263 -0.907198 -2.019966
  H -0.349172 0.800551 -2.356917
  H -1.452220 0.990237 2.194707
  H -2.659165 2.152306 1.649649
  H -1.043586 2.724336 2.002740
  H -0.925412 2.589092 -1.461991
  O 1.513225 -0.327490 0.446413
  H 1.879383 0.201329 1.169799
  H 2.147076 -0.302028 -0.281875
 17
 6.000375
  H -1.492183 -0.437514 0.233008
  C -1.044784 0.362994 -0.343476
  C -0.894275 0.073444 -1.827128
  C -1.241033 1.646503 0.144321
  C -1.596983 1.899692 1.566012
  O -1.044528 2.745026 -0.552654
  H 0.180657 0.118812 0.122235
  H -1.863681 0.113485 -2.329629
  H -0.504715 -0.927369 -1.970615
  H -0.231000 0.776348 -2.326988
  H -1.394309 1.040139 2.196330
  H -2.661763 2.118339 1.622535
  H -1.073138 2.779463 1.932670
  H -0.903275 2.575476 -1.498954
  O 1.369872 -0.310787 0.527606
  H 1.699400 0.225067 1.264517
  H 2.029205 -0.301071 -0.183243
 17
 6.610769
  H -1.472002 -0.432356 0.245518
  C -1.054537 0.375801 -0.337461
  C -0.897085 0.083703 -1.814210
  C -1.232049 1.623893 0.161727
  C -1.608067 1.872938 1.585816
  O -1.012829 2.759112 -0.521993
  H 0.416544 0.065003 0.165620
  H -1.862935 0.130055 -2.318719
  H -0.513510 -0.922366 -1.959594
  H -0.230496 0.783987 -2.314528
  H -1.412846 1.011052 2.213145
  H -2.672244 2.095350 1.632590
  H -1.084081 2.747358 1.963648
  H -0.857984 2.594715 -1.465459
  O 1.375312 -0.294945 0.489291
  H 1.722849 0.251430 1.220574
  H 2.026740 -0.319094 -0.237793
 17
 6.587062
  H -1.453961 -0.445456 0.260419
  C -1.058019 0.367467 -0.330169
  C -0.893269 0.076333 -1.805382
  C -1.217114 1.613928 0.175103
  C -1.594581 1.864345 1.598837
  O -0.982055 2.749764 -0.506839
  H 0.466814 0.095724 0.157369
  H -1.852572 0.153038 -2.319449
  H -0.537790 -0.940553 -1.951147
  H -0.202801 0.758495 -2.295689
  H -1.414541 0.997205 2.224113
  H -2.657219 2.099609 1.643209
  H -1.060926 2.730507 1.979041
  H -0.846854 2.586247 -1.452209
  O 1.415226 -0.257198 0.475199
  H 1.769166 0.242831 1.234612
  H 2.072416 -0.338987 -0.240567
 17
 6.186366
  H -1.489497 -0.455758 0.248619
  C -1.108464 0.362512 -0.343973
  C -0.912348 0.071324 -1.812978
  C -1.230541 1.601741 0.172120
  C -1.594544 1.856660 1.600201
  O -0.967621 2.741349 -0.505993
  H 0.523753 0.079561 0.176505
  H -1.853248 0.181787 -2.352820
  H -0.587836 -0.957986 -1.953660
  H -0.188632 0.732666 -2.281397
  H -1.470225 0.970850 2.212262
  H -2.641433 2.160127 1.648021
  H -1.007857 2.681355 1.993197
  H -0.854460 2.576609 -1.454062
  O 1.447632 -0.252059 0.492894
  H 1.782036 0.285820 1.237686
  H 2.105202 -0.283259 -0.230171
