 16
 0.000000
  H 1.490469 0.156179 0.439474
  C 2.573594 0.147819 0.418610
  C 3.274958 0.624357 1.604084
  C 2.377404 1.078973 2.736611
  H 2.968334 1.418399 3.581783
  C 3.172473 -0.317306 -0.739136
  C 4.568250 -0.401606 -0.949543
  C 5.084081 -0.867768 -2.111464
  H 4.459185 -1.194596 -2.926314
  H 6.147270 -0.930883 -2.268491
  H 3.958086 1.439723 1.318948
  H 3.958429 -0.161270 1.962174
  H 1.730962 0.270344 3.073251
  H 1.730611 1.895620 2.420715
  H 2.533952 -0.642791 -1.549365
  H 5.231504 -0.083852 -0.157925
 16
 0.163853
  H 1.485063 0.042490 0.503403
  C 2.564619 0.090516 0.431997
  C 3.266960 0.633184 1.584976
  C 2.380662 1.108410 2.715477
  H 2.977984 1.489825 3.538133
  C 3.161280 -0.359055 -0.727414
  C 4.558231 -0.487547 -0.918004
  C 5.090633 -0.815756 -2.121504
  H 4.467855 -0.962681 -2.989335
  H 6.153207 -0.924456 -2.255641
  H 3.949973 1.437214 1.272638
  H 3.969262 -0.130234 1.959808
  H 1.753619 0.301006 3.089181
  H 1.715828 1.903496 2.382243
  H 2.523946 -0.647915 -1.552945
  H 5.208846 -0.336440 -0.067841
 16
 2.358578
  H 1.458397 0.019342 0.574342
  C 2.530450 0.048316 0.426883
  C 3.275365 0.643489 1.531723
  C 2.420600 1.128986 2.685004
  H 3.039256 1.570727 3.460551
  C 3.099779 -0.433323 -0.730443
  C 4.498873 -0.577707 -0.895496
  C 5.122235 -0.731890 -2.088138
  H 4.609344 -0.551085 -3.019461
  H 6.162500 -1.003272 -2.146979
  H 3.900252 1.469499 1.161672
  H 4.014667 -0.080232 1.907059
  H 1.854520 0.308980 3.123050
  H 1.703891 1.879209 2.356046
  H 2.456388 -0.760726 -1.536033
  H 5.079810 -0.589030 0.020867
 16
 7.089169
  H 1.430587 0.042464 0.631905
  C 2.488483 0.016528 0.411271
  C 3.284960 0.662223 1.460636
  C 2.471152 1.133601 2.653802
  H 3.121879 1.553506 3.416659
  C 3.022159 -0.514167 -0.740987
  C 4.423436 -0.675526 -0.899107
  C 5.158390 -0.667570 -2.030013
  H 4.795181 -0.201222 -2.934416
  H 6.163317 -1.056141 -2.051620
  H 3.827889 1.524767 1.034947
  H 4.066677 -0.015219 1.815629
  H 1.912858 0.305511 3.090948
  H 1.754323 1.903156 2.368909
  H 2.361989 -0.929598 -1.487514
  H 4.943346 -0.734092 0.059721
 16
 15.688636
  H 1.393085 0.093076 0.673293
  C 2.434240 0.007264 0.377521
  C 3.306915 0.654155 1.377661
  C 2.546287 1.137633 2.614427
  H 3.221800 1.620740 3.310212
  C 2.923995 -0.598976 -0.745191
  C 4.324279 -0.711983 -0.910807
  C 5.204687 -0.557939 -1.909456
  H 4.994635 0.076347 -2.767125
  H 6.121940 -1.119005 -1.952747
  H 3.830343 1.503897 0.932203
  H 4.055317 -0.058221 1.744320
  H 2.069271 0.304448 3.120407
  H 1.773559 1.857836 2.347954
  H 2.263480 -1.036533 -1.476717
  H 4.765131 -0.743606 0.112018
 16
 38.660639
  H 1.292545 -0.000173 0.706207
  C 2.303338 -0.032528 0.341290
  C 3.304178 0.627067 1.220288
  C 2.706489 1.118810 2.556058
  H 3.467226 1.581070 3.180109
  C 2.736492 -0.617422 -0.822967
  C 4.119683 -0.692901 -1.035583
  C 5.225095 -0.529511 -1.735190
  H 5.340921 0.270726 -2.462432
  H 6.104417 -1.147053 -1.590182
  H 3.791657 1.469799 0.716473
  H 4.051517 -0.106029 1.575350
  H 2.245061 0.301258 3.094439
  H 1.938661 1.877738 2.368015
  H 2.069555 -1.090431 -1.500078
  H 4.511161 -0.583429 0.244340
 16
 54.584368
  H 1.265255 0.050599 0.613120
  C 2.287173 0.037929 0.290071
  C 3.304199 0.639921 1.178154
  C 2.751860 1.088090 2.541738
  H 3.528488 1.505250 3.165840
  C 2.716236 -0.600920 -0.845892
  C 4.045816 -0.657615 -1.141701
  C 5.211432 -0.576251 -1.715293
  H 5.460349 0.216742 -2.414010
  H 6.011609 -1.279120 -1.522846
  H 3.794071 1.501201 0.724487
  H 4.055632 -0.161835 1.572968
  H 2.274440 0.272003 3.068220
  H 2.009093 1.861320 2.375386
  H 2.017445 -1.079476 -1.519697
  H 4.453826 -0.353764 0.512209
 16
 58.806119
  H 1.280847 0.036805 0.576267
  C 2.312023 0.030543 0.278713
  C 3.351747 0.609099 1.182885
  C 2.760699 1.078748 2.534787
  H 3.517630 1.510742 3.182341
  C 2.716305 -0.559110 -0.907297
  C 4.015072 -0.626941 -1.275945
  C 5.208112 -0.606282 -1.771369
  H 5.537452 0.164655 -2.456352
  H 5.955601 -1.351458 -1.537443
  H 3.856284 1.478737 0.741580
  H 4.059649 -0.169151 1.773899
  H 2.259317 0.271697 3.060491
  H 2.024099 1.849033 2.325964
  H 1.987058 -1.028551 -1.552838
  H 4.322842 -0.200518 0.766797
 16
 59.233929
  H 1.358963 -0.001904 0.599717
  C 2.390381 -0.004169 0.300321
  C 3.415738 0.575959 1.243413
  C 2.703454 1.098208 2.521520
  H 3.385296 1.601310 3.201869
  C 2.750698 -0.516940 -0.933790
  C 4.013080 -0.586492 -1.395074
  C 5.209807 -0.623814 -1.867008
  H 5.623244 0.179106 -2.463051
  H 5.872796 -1.465711 -1.720118
  H 3.945181 1.417608 0.778589
  H 4.141282 -0.037579 2.009857
  H 2.194064 0.299776 3.052615
  H 1.954551 1.822629 2.213577
  H 1.972151 -0.900560 -1.579940
  H 4.212379 -0.332422 1.008258
 16
 59.443564
  H 1.409734 -0.042568 0.630451
  C 2.438957 -0.034001 0.323407
  C 3.460714 0.552722 1.317036
  C 2.665991 1.122961 2.515282
  H 3.297704 1.681412 3.199467
  C 2.783817 -0.471124 -0.942740
  C 4.031818 -0.544938 -1.439991
  C 5.223389 -0.622236 -1.917129
  H 5.690828 0.194983 -2.448953
  H 5.826112 -1.517325 -1.841706
  H 4.018646 1.341136 0.798706
  H 4.272188 0.067102 2.057005
  H 2.163083 0.334444 3.066711
  H 1.907309 1.805804 2.142807
  H 1.982042 -0.782167 -1.600325
  H 3.957117 -0.515868 1.178762
 16
 55.226620
  H 1.474161 -0.121245 0.687108
  C 2.493283 -0.089788 0.353664
  C 3.527122 0.570835 1.391983
  C 2.657859 1.139787 2.533197
  H 3.254881 1.734484 3.217759
  C 2.805234 -0.470744 -0.952267
  C 4.038914 -0.524293 -1.474510
  C 5.239731 -0.608766 -1.918831
  H 5.741254 0.217496 -2.401521
  H 5.818531 -1.519917 -1.863929
  H 4.058101 1.361619 0.853637
  H 4.325714 0.109010 2.052360
  H 2.172715 0.345595 3.092124
  H 1.882269 1.785925 2.128742
  H 1.982254 -0.741500 -1.601259
  H 3.645070 -0.573141 1.035292
 16
 34.381547
  H 1.557607 -0.318897 0.818381
  C 2.571845 -0.251870 0.471363
  C 3.528219 0.560848 1.450506
  C 2.658595 1.249097 2.500936
  H 3.277312 1.897147 3.131117
  C 2.848525 -0.477299 -0.917252
  C 4.066588 -0.461708 -1.459100
  C 5.259659 -0.511807 -1.909645
  H 5.842087 0.375046 -2.133494
  H 5.756734 -1.449104 -2.144797
  H 4.053453 1.305070 0.842738
  H 4.313341 0.061966 2.037689
  H 2.164803 0.525219 3.137755
  H 1.896452 1.864080 2.034095
  H 2.011247 -0.666004 -1.570690
  H 3.367917 -0.941861 0.911186
 16
 17.802056
  H 1.635944 -0.416554 0.864264
  C 2.671798 -0.339465 0.564506
  C 3.492851 0.643975 1.450170
  C 2.597666 1.245587 2.523083
  H 3.165586 1.962472 3.112925
  C 2.924912 -0.401306 -0.868399
  C 4.137690 -0.428380 -1.419547
  C 5.284502 -0.557077 -1.961804
  H 5.946241 0.275651 -2.157623
  H 5.684942 -1.515155 -2.265849
  H 3.889078 1.438416 0.815326
  H 4.347767 0.192624 1.954890
  H 2.220531 0.483685 3.201568
  H 1.748316 1.760533 2.079407
  H 2.070032 -0.463361 -1.534023
  H 3.277708 -1.212531 0.893030
 16
 13.899301
  H 1.716544 -0.547744 0.979628
  C 2.762705 -0.502645 0.689400
  C 3.549076 0.508642 1.547845
  C 2.587211 1.358073 2.370245
  H 3.149890 2.093374 2.940960
  C 2.934156 -0.441845 -0.765802
  C 4.107317 -0.390339 -1.386615
  C 5.224011 -0.407283 -2.007148
  H 5.900994 0.437452 -2.041388
  H 5.583971 -1.272302 -2.550724
  H 4.152652 1.150713 0.907693
  H 4.230935 0.001987 2.231886
  H 2.023993 0.752398 3.076085
  H 1.885849 1.882224 1.725755
  H 2.043635 -0.484016 -1.385560
  H 3.242624 -1.469575 0.919667
 16
 13.076491
  H 1.773467 -0.711675 1.083821
  C 2.810181 -0.624481 0.773516
  C 3.573332 0.381498 1.659312
  C 2.602118 1.420826 2.210369
  H 3.162538 2.197566 2.725519
  C 2.939582 -0.444496 -0.676419
  C 4.078911 -0.352829 -1.351505
  C 5.154510 -0.290895 -2.040695
  H 5.846439 0.542551 -1.986597
  H 5.464400 -1.067189 -2.730646
  H 4.354118 0.873247 1.082194
  H 4.051700 -0.134056 2.493238
  H 1.908870 0.982471 2.922988
  H 2.030907 1.881381 1.407356
  H 2.025061 -0.395918 -1.262439
  H 3.319430 -1.588887 0.941915
