 19
 0.000000
  C 0.217845 -1.548769 -2.071791
  C 0.279012 -1.420981 -0.579100
  C 1.602668 -1.843783 0.013925
  C 0.004808 0.000919 0.045927
  C -0.110636 1.118933 -0.926751
  O -0.058489 0.120947 1.225280
  H 0.340261 -2.602200 -2.330360
  H 1.029215 -1.021214 -2.567604
  H -0.742717 -1.239116 -2.472710
  H -0.544534 -1.996532 -0.133783
  H 2.435976 -1.228160 -0.335645
  H 1.826173 -2.861288 -0.310878
  H 1.583202 -1.796053 1.099907
  H -0.083167 0.817349 -1.963574
  H 0.714969 1.799891 -0.709135
  H -1.040444 1.644024 -0.702958
  O 4.377214 0.012361 -0.017681
  H 5.030581 0.255014 0.642346
  H 4.859391 -0.410547 -0.736297
 19
 -0.829743
  C 0.223040 -1.561358 -2.064119
  C 0.293331 -1.445787 -0.572323
  C 1.617857 -1.859867 0.014665
  C 0.050476 -0.008717 0.059624
  C 0.006448 1.111820 -0.912720
  O -0.033805 0.097596 1.239103
  H 0.299621 -2.619971 -2.323006
  H 1.053765 -1.068793 -2.559186
  H -0.725931 -1.217759 -2.460780
  H -0.545590 -1.991232 -0.117077
  H 2.430810 -1.202218 -0.316389
  H 1.879961 -2.856115 -0.344668
  H 1.592488 -1.842861 1.103256
  H 0.038535 0.813584 -1.951877
  H 0.861617 1.749726 -0.677970
  H -0.894012 1.689949 -0.702529
  O 4.143364 0.043501 -0.079033
  H 4.747076 0.313540 0.619804
  H 4.680395 -0.332524 -0.782745
 19
 -1.704666
  C 0.201950 -1.584716 -2.054327
  C 0.300566 -1.464614 -0.561225
  C 1.628405 -1.894060 0.005441
  C 0.111431 -0.018855 0.065226
  C 0.146367 1.100566 -0.903705
  O 0.011124 0.091826 1.244339
  H 0.223550 -2.645563 -2.307413
  H 1.046960 -1.130928 -2.565472
  H -0.737514 -1.195392 -2.437853
  H -0.540950 -1.989759 -0.090440
  H 2.420351 -1.177413 -0.268447
  H 1.933512 -2.844597 -0.427224
  H 1.595314 -1.948569 1.090466
  H 0.164315 0.800254 -1.941305
  H 1.043847 1.676796 -0.665259
  H -0.713514 1.739658 -0.699088
  O 3.912084 0.118614 -0.130647
  H 4.441897 0.412463 0.617082
  H 4.524208 -0.217119 -0.795903
 19
 -2.333108
  C 0.141637 -1.615708 -2.038351
  C 0.305958 -1.483118 -0.551038
  C 1.644894 -1.931085 -0.033689
  C 0.187091 -0.023252 0.061635
  C 0.282778 1.084308 -0.918026
  O 0.090833 0.099414 1.240044
  H 0.095697 -2.684029 -2.275849
  H 0.988283 -1.212060 -2.589820
  H -0.785637 -1.181004 -2.387501
  H -0.529661 -1.979378 -0.038746
  H 2.410032 -1.155860 -0.233247
  H 1.986057 -2.813191 -0.562625
  H 1.621607 -2.087507 1.045410
  H 0.295246 0.772585 -1.952337
  H 1.204553 1.616775 -0.679088
  H -0.546854 1.766479 -0.729116
  O 3.730494 0.221630 -0.124841
  H 4.165807 0.496554 0.688462
  H 4.422983 -0.042792 -0.741721
 19
 -2.499646
  C 0.066038 -1.643196 -2.016822
  C 0.317570 -1.490686 -0.544610
  C 1.674526 -1.958027 -0.094225
  C 0.265181 -0.014099 0.043377
  C 0.371335 1.067900 -0.958408
  O 0.200379 0.131694 1.221617
  H -0.046241 -2.708497 -2.223508
  H 0.899906 -1.295742 -2.620724
  H -0.858499 -1.166045 -2.327642
  H -0.497935 -1.955291 0.023178
  H 2.424808 -1.158060 -0.241696
  H 2.021722 -2.788440 -0.706964
  H 1.680355 -2.199883 0.965908
  H 0.410966 0.732508 -1.979240
  H 1.277497 1.619531 -0.711413
  H -0.467978 1.736846 -0.808823
  O 3.625563 0.304436 -0.055805
  H 3.941742 0.543749 0.821651
  H 4.401872 0.117596 -0.595393
 19
 -2.331432
  C 0.019536 -1.646754 -2.004694
  C 0.335727 -1.488593 -0.544410
  C 1.691011 -2.001561 -0.139830
  C 0.363168 -0.002749 0.024822
  C 0.434065 1.062437 -0.999976
  O 0.358939 0.158812 1.201801
  H -0.146711 -2.709495 -2.192041
  H 0.843117 -1.343831 -2.646161
  H -0.894938 -1.132572 -2.286377
  H -0.474786 -1.912655 0.061192
  H 2.455632 -1.217995 -0.293798
  H 1.998712 -2.829324 -0.775046
  H 1.719100 -2.260935 0.914677
  H 0.542490 0.703319 -2.013459
  H 1.281006 1.695930 -0.728605
  H -0.471203 1.663853 -0.907277
  O 3.529558 0.350860 0.026033
  H 3.733064 0.580609 0.938080
  H 4.370997 0.233206 -0.429000
 19
 -2.278114
  C 0.016744 -1.628265 -1.998609
  C 0.355893 -1.479445 -0.543447
  C 1.688892 -2.055243 -0.149633
  C 0.446007 0.005226 0.022043
  C 0.459183 1.064055 -1.011752
  O 0.500129 0.170069 1.196511
  H -0.194032 -2.683270 -2.182542
  H 0.844826 -1.360509 -2.650085
  H -0.879017 -1.078568 -2.272117
  H -0.466363 -1.866917 0.072029
  H 2.493093 -1.324080 -0.338035
  H 1.932061 -2.917944 -0.765475
  H 1.720680 -2.287403 0.911386
  H 0.678850 0.705890 -2.007543
  H 1.193125 1.807090 -0.698367
  H -0.524556 1.536882 -0.998325
  O 3.438789 0.379045 0.053394
  H 3.607892 0.625197 0.967972
  H 4.296864 0.307385 -0.379826
 19
 -2.203724
  C 0.061791 -1.590724 -2.000956
  C 0.373782 -1.470590 -0.537980
  C 1.667973 -2.117627 -0.124178
  C 0.508520 0.003724 0.044357
  C 0.445952 1.070773 -0.978132
  O 0.611435 0.153098 1.216562
  H -0.162683 -2.638198 -2.208703
  H 0.909034 -1.326759 -2.630397
  H -0.818446 -1.022466 -2.284643
  H -0.478412 -1.825089 0.057068
  H 2.520772 -1.482048 -0.402898
  H 1.811249 -3.055814 -0.658065
  H 1.710687 -2.257764 0.952769
  H 0.759058 0.747301 -1.961905
  H 1.064211 1.896797 -0.626636
  H -0.590048 1.410411 -1.019199
  O 3.337600 0.397105 -0.000131
  H 3.545735 0.676279 0.896254
  H 4.175032 0.355231 -0.475446
 19
 -1.224667
  C 0.104533 -1.558536 -1.997466
  C 0.406875 -1.460599 -0.532634
  C 1.671359 -2.166712 -0.116927
  C 0.579204 0.015341 0.058018
  C 0.447323 1.084621 -0.955766
  O 0.632590 0.152771 1.233859
  H -0.123855 -2.603166 -2.219524
  H 0.955952 -1.291239 -2.617518
  H -0.772761 -0.985433 -2.280497
  H -0.457856 -1.788929 0.057443
  H 2.554246 -1.653532 -0.511048
  H 1.684371 -3.170151 -0.541809
  H 1.760557 -2.208315 0.965553
  H 0.777254 0.789947 -1.942608
  H 1.014448 1.943952 -0.599091
  H -0.609670 1.354635 -0.986970
  O 3.181932 0.422096 -0.028567
  H 3.464081 0.672348 0.856366
  H 3.982830 0.363685 -0.562729
 19
 0.914142
  C 0.122022 -1.537478 -1.981967
  C 0.445666 -1.452889 -0.520427
  C 1.692307 -2.203627 -0.128161
  C 0.653808 0.038734 0.066008
  C 0.458094 1.098593 -0.950157
  O 0.615077 0.169040 1.242461
  H -0.134995 -2.576499 -2.199115
  H 0.969646 -1.287173 -2.613109
  H -0.747820 -0.947406 -2.253530
  H -0.413464 -1.760954 0.085724
  H 2.580892 -1.803969 -0.618116
  H 1.588310 -3.235845 -0.469084
  H 1.843898 -2.192356 0.947261
  H 0.798292 0.823245 -1.939216
  H 0.984972 1.985933 -0.598511
  H -0.611931 1.308612 -0.965849
  O 3.025009 0.432474 -0.017768
  H 3.402669 0.647186 0.839939
  H 3.759208 0.360062 -0.638597
 19
 3.497020
  C 0.183220 -1.499208 -1.980092
  C 0.492931 -1.451741 -0.498631
  C 1.666303 -2.288268 -0.110292
  C 0.732918 0.044893 0.095204
  C 0.439311 1.110306 -0.920196
  O 0.677596 0.150462 1.275100
  H -0.114318 -2.526490 -2.216744
  H 1.048149 -1.288456 -2.612187
  H -0.670689 -0.896771 -2.272783
  H -0.377448 -1.695150 0.095026
  H 2.553314 -2.026979 -0.666890
  H 1.461927 -3.323466 -0.361977
  H 1.826515 -2.224786 0.965773
  H 0.779793 0.867446 -1.920097
  H 0.901069 2.036512 -0.582267
  H -0.646089 1.221471 -0.922882
  O 2.914564 0.447415 -0.063014
  H 3.368244 0.697500 0.734033
  H 3.565257 0.425453 -0.758036
 19
 4.092436
  C 0.259414 -1.483660 -1.971519
  C 0.543466 -1.419671 -0.501740
  C 1.690588 -2.307005 -0.072278
  C 0.821290 0.095533 0.085397
  C 0.394845 1.150206 -0.896661
  O 0.741333 0.190889 1.276050
  H -0.016267 -2.517562 -2.194177
  H 1.130653 -1.252251 -2.575664
  H -0.584829 -0.872342 -2.269485
  H -0.353634 -1.641291 0.083202
  H 2.591102 -2.115741 -0.655637
  H 1.397750 -3.338264 -0.267399
  H 1.895583 -2.211657 0.991946
  H 0.729528 0.948325 -1.904848
  H 0.792192 2.101985 -0.548971
  H -0.693173 1.189575 -0.856578
  O 2.714979 0.328752 -0.166217
  H 3.199637 0.529666 0.643582
  H 3.300717 0.279646 -0.936250
 19
 4.037762
  C 0.388786 -1.453755 -1.995197
  C 0.565573 -1.396768 -0.506040
  C 1.634829 -2.342862 0.003491
  C 0.916766 0.102268 0.087879
  C 0.343817 1.169678 -0.822189
  O 0.874307 0.176308 1.294122
  H 0.124199 -2.484616 -2.240095
  H 1.302424 -1.227053 -2.534068
  H -0.426051 -0.834107 -2.352118
  H -0.381466 -1.566439 0.011691
  H 2.562727 -2.228316 -0.553749
  H 1.278363 -3.360886 -0.150309
  H 1.814830 -2.208359 1.067731
  H 0.662447 1.052398 -1.849561
  H 0.665448 2.132998 -0.430519
  H -0.739522 1.110557 -0.752266
  O 2.651219 0.271126 -0.298222
  H 3.220849 0.528011 0.442058
  H 3.095627 0.214951 -1.159886
