 19
 0.000000
  C 0.915403 0.046748 0.334173
  C 2.367188 0.066897 -0.026624
  H 3.028787 0.018827 0.831233
  C 2.967480 0.133423 -1.221892
  C 2.347569 0.210176 -2.595216
  C 0.830098 0.218013 -2.728050
  H 0.570586 0.277062 -3.784130
  C 4.431351 0.133152 -1.218727
  C 5.241048 0.191936 -2.270602
  H 6.310675 0.185082 -2.144584
  H 0.806223 -0.014285 1.414947
  H 0.409925 -0.811578 -0.104601
  H 0.407116 0.947279 -0.004061
  H 2.735339 -0.638861 -3.168233
  H 2.735771 1.117372 -3.070506
  H 0.391861 1.076674 -2.229433
  H 0.391285 -0.690545 -2.328174
  H 4.879012 0.078184 -0.233312
  H 4.891092 0.248602 -3.286482
 19
 3.931827
  C 0.927182 0.068634 0.348048
  C 2.353112 0.079219 -0.014573
  H 3.024196 0.041128 0.839059
  C 2.955044 0.137962 -1.211338
  C 2.336653 0.209366 -2.587732
  C 0.819494 0.230548 -2.730017
  H 0.568119 0.286823 -3.788057
  C 4.418706 0.125793 -1.209304
  C 5.227204 0.178150 -2.260774
  H 6.296756 0.166346 -2.136023
  H 0.779739 -0.020301 1.419552
  H 0.648521 -0.829240 -0.158406
  H 0.363635 0.921601 -0.018712
  H 2.719648 -0.646203 -3.153734
  H 2.732826 1.110319 -3.067288
  H 0.387145 1.096758 -2.239729
  H 0.365163 -0.670988 -2.330461
  H 4.867004 0.070001 -0.224484
  H 4.877269 0.236444 -3.276346
 19
 11.643733
  C 0.918293 0.055269 0.357736
  C 2.351901 0.114026 -0.001228
  H 3.034223 0.112680 0.849103
  C 2.949078 0.154408 -1.199845
  C 2.323854 0.207095 -2.583392
  C 0.809056 0.267820 -2.728216
  H 0.562347 0.309703 -3.786263
  C 4.413284 0.122484 -1.201230
  C 5.221626 0.159621 -2.254067
  H 6.289712 0.132045 -2.130091
  H 0.748903 -0.034259 1.415392
  H 0.900106 -0.880910 -0.158101
  H 0.276046 0.815364 -0.082533
  H 2.684385 -0.667904 -3.130984
  H 2.739155 1.085487 -3.083308
  H 0.404409 1.156246 -2.260599
  H 0.324691 -0.607382 -2.312295
  H 4.863079 0.064856 -0.217854
  H 4.872480 0.219387 -3.268579
 19
 21.995067
  C 0.900731 0.059061 0.364828
  C 2.345892 0.118680 -0.002179
  H 3.028626 0.122581 0.845753
  C 2.946204 0.155285 -1.199384
  C 2.319373 0.203435 -2.582131
  C 0.804366 0.280227 -2.723196
  H 0.555368 0.316288 -3.780473
  C 4.411567 0.118540 -1.198130
  C 5.224177 0.151816 -2.252024
  H 6.291480 0.118909 -2.125745
  H 0.719526 -0.041872 1.418523
  H 1.063822 -0.861860 -0.167130
  H 0.229836 0.769210 -0.100916
  H 2.670711 -0.682172 -3.124950
  H 2.742944 1.075790 -3.091732
  H 0.413196 1.177185 -2.262892
  H 0.309342 -0.583006 -2.299172
  H 4.860892 0.059209 -0.212464
  H 4.877384 0.213477 -3.266773
 19
 32.471142
  C 0.889688 0.066687 0.366382
  C 2.332310 0.117606 -0.014097
  H 3.009421 0.122646 0.833445
  C 2.946170 0.154255 -1.208544
  C 2.321941 0.201527 -2.587131
  C 0.803453 0.288807 -2.714537
  H 0.542882 0.323457 -3.770953
  C 4.408164 0.113587 -1.198158
  C 5.224855 0.146131 -2.246308
  H 6.292056 0.109583 -2.114949
  H 0.704917 -0.035276 1.430842
  H 1.192564 -0.843593 -0.161171
  H 0.200716 0.723401 -0.121648
  H 2.666088 -0.691316 -3.131191
  H 2.750757 1.071791 -3.104137
  H 0.423888 1.192840 -2.252182
  H 0.306807 -0.570535 -2.281338
  H 4.853475 0.051069 -0.208094
  H 4.882313 0.210702 -3.262435
 19
 40.507761
  C 0.872510 0.063601 0.375473
  C 2.317465 0.112705 -0.023652
  H 2.990561 0.119869 0.831526
  C 2.944946 0.152271 -1.218380
  C 2.327417 0.202172 -2.589836
  C 0.815615 0.300095 -2.706009
  H 0.546715 0.334389 -3.756197
  C 4.402438 0.107031 -1.201125
  C 5.223688 0.141833 -2.249124
  H 6.289812 0.102064 -2.115708
  H 0.710468 -0.007990 1.424882
  H 1.293783 -0.833200 -0.108341
  H 0.145543 0.661399 -0.161062
  H 2.661863 -0.692994 -3.132113
  H 2.760072 1.066409 -3.109551
  H 0.449428 1.205778 -2.243681
  H 0.318921 -0.553054 -2.267393
  H 4.844120 0.039309 -0.212734
  H 4.881907 0.212693 -3.266168
 19
 46.586027
  C 0.873329 0.070143 0.386774
  C 2.316167 0.104169 -0.029663
  H 2.977230 0.102713 0.825493
  C 2.951375 0.148742 -1.224338
  C 2.329161 0.205264 -2.607468
  C 0.808082 0.309082 -2.714089
  H 0.528722 0.345523 -3.765234
  C 4.399587 0.100266 -1.196324
  C 5.229197 0.137515 -2.238765
  H 6.291758 0.098382 -2.097788
  H 0.718209 0.032423 1.448877
  H 1.383019 -0.828315 -0.059158
  H 0.130898 0.599050 -0.176787
  H 2.658436 -0.693938 -3.154857
  H 2.764381 1.071182 -3.129488
  H 0.447726 1.216942 -2.246787
  H 0.312492 -0.545082 -2.271198
  H 4.835056 0.029188 -0.203035
  H 4.895740 0.212555 -3.254753
 19
 51.130915
  C 0.862550 0.079737 0.380529
  C 2.304040 0.094307 -0.039743
  H 2.965482 0.082808 0.827664
  C 2.947202 0.144551 -1.235262
  C 2.326470 0.206977 -2.607030
  C 0.817922 0.312402 -2.702967
  H 0.532848 0.352856 -3.748751
  C 4.408028 0.095592 -1.203205
  C 5.240359 0.134587 -2.239139
  H 6.309612 0.096078 -2.092195
  H 0.703453 0.073968 1.448550
  H 1.441940 -0.823194 -0.030181
  H 0.109741 0.549647 -0.211148
  H 2.645653 -0.676639 -3.151513
  H 2.754373 1.061533 -3.120171
  H 0.462208 1.220979 -2.228029
  H 0.325478 -0.545437 -2.258766
  H 4.841379 0.023073 -0.211589
  H 4.909178 0.212838 -3.260494
 19
 54.558703
  C 0.868622 0.086495 0.394601
  C 2.311629 0.082448 -0.030555
  H 2.974895 0.073566 0.835123
  C 2.956830 0.142637 -1.231575
  C 2.337139 0.212792 -2.612153
  C 0.811303 0.316401 -2.714469
  H 0.529476 0.362686 -3.757711
  C 4.398122 0.096180 -1.195954
  C 5.235908 0.135139 -2.234531
  H 6.292690 0.079858 -2.087928
  H 0.703982 0.112145 1.457762
  H 1.507287 -0.824243 0.015436
  H 0.105464 0.495086 -0.223389
  H 2.662198 -0.671722 -3.164545
  H 2.769000 1.077362 -3.121941
  H 0.449310 1.221189 -2.234537
  H 0.321968 -0.541401 -2.281237
  H 4.827525 0.015143 -0.207150
  H 4.907748 0.205762 -3.254789
 19
 57.626839
  C 0.860215 0.101683 0.403732
  C 2.308657 0.068293 -0.028085
  H 2.970018 0.060786 0.826895
  C 2.953411 0.133280 -1.233373
  C 2.332907 0.211338 -2.607597
  C 0.817721 0.319497 -2.709361
  H 0.534951 0.372966 -3.765137
  C 4.409890 0.079118 -1.200822
  C 5.246437 0.126720 -2.237367
  H 6.315693 0.094640 -2.088150
  H 0.693216 0.147460 1.458073
  H 1.544304 -0.825611 0.041234
  H 0.082421 0.468202 -0.238953
  H 2.655076 -0.676027 -3.168218
  H 2.768516 1.078845 -3.114662
  H 0.459468 1.224009 -2.224818
  H 0.318812 -0.554206 -2.273859
  H 4.845837 0.001968 -0.207553
  H 4.919924 0.222002 -3.250631
 19
 60.430628
  C 0.870297 0.113424 0.421662
  C 2.308673 0.058179 -0.020089
  H 2.977825 0.056400 0.828252
  C 2.954579 0.135765 -1.231517
  C 2.341873 0.217737 -2.605247
  C 0.818504 0.318100 -2.726454
  H 0.550128 0.374702 -3.779176
  C 4.399544 0.086443 -1.197014
  C 5.240350 0.131370 -2.234896
  H 6.298783 0.073869 -2.087205
  H 0.706112 0.161251 1.474081
  H 1.588364 -0.826189 0.063177
  H 0.086280 0.439334 -0.229064
  H 2.674528 -0.660502 -3.165070
  H 2.777448 1.087605 -3.100714
  H 0.444702 1.223686 -2.240237
  H 0.320871 -0.557763 -2.305098
  H 4.833810 -0.001271 -0.208634
  H 4.916531 0.208909 -3.244658
 19
 62.546433
  C 0.867796 0.137147 0.425313
  C 2.312356 0.043473 -0.013096
  H 2.980041 0.043080 0.835309
  C 2.959664 0.129692 -1.229816
  C 2.344033 0.217909 -2.606193
  C 0.835241 0.318762 -2.721260
  H 0.564354 0.379655 -3.773196
  C 4.395657 0.074825 -1.195054
  C 5.235755 0.126374 -2.233369
  H 6.304132 0.086252 -2.082637
  H 0.690686 0.182435 1.485397
  H 1.617677 -0.835380 0.068838
  H 0.085450 0.429123 -0.235956
  H 2.673579 -0.659637 -3.174201
  H 2.777766 1.089629 -3.101232
  H 0.474194 1.201926 -2.242866
  H 0.337508 -0.559824 -2.299627
  H 4.828662 -0.010523 -0.207743
  H 4.905878 0.220815 -3.259235
 19
 64.753689
  C 0.871632 0.163118 0.405141
  C 2.315073 0.027809 -0.011681
  H 2.982462 0.032871 0.848477
  C 2.971189 0.118962 -1.230191
  C 2.346096 0.212139 -2.606205
  C 0.828930 0.315175 -2.703097
  H 0.545683 0.378916 -3.748577
  C 4.409258 0.058685 -1.194140
  C 5.254948 0.120093 -2.230366
  H 6.309142 0.102620 -2.075036
  H 0.672249 0.202312 1.458101
  H 1.648874 -0.846687 0.059081
  H 0.098753 0.428476 -0.276873
  H 2.669014 -0.666810 -3.182454
  H 2.776940 1.087998 -3.104851
  H 0.472078 1.203543 -2.214611
  H 0.334491 -0.564951 -2.275679
  H 4.838495 -0.019804 -0.210936
  H 4.933543 0.237865 -3.244901
 19
 66.347301
  C 0.879616 0.192604 0.430568
  C 2.318287 0.013511 -0.000641
  H 2.991734 0.022878 0.845799
  C 2.969312 0.117743 -1.228921
  C 2.351407 0.213245 -2.603175
  C 0.839400 0.309434 -2.722449
  H 0.572092 0.371573 -3.775630
  C 4.397828 0.057906 -1.194617
  C 5.241466 0.122915 -2.232432
  H 6.312002 0.100969 -2.077819
  H 0.680230 0.209838 1.484411
  H 1.677062 -0.863387 0.066505
  H 0.093915 0.429091 -0.247549
  H 2.683744 -0.658269 -3.176186
  H 2.782276 1.089555 -3.091850
  H 0.465604 1.205357 -2.233682
  H 0.349388 -0.564902 -2.309871
  H 4.834916 -0.025804 -0.201137
  H 4.916816 0.241750 -3.244596
