 13
 0.000000
  H 1.439103 0.136072 0.389546
  C 2.521999 0.132142 0.379938
  C 3.201647 0.608550 1.564850
  H 2.506129 0.918706 2.336894
  C 3.139436 -0.333013 -0.777806
  C 4.538751 -0.404836 -0.956022
  C 5.109130 -0.865326 -2.104565
  H 4.513691 -1.199346 -2.939104
  H 6.181154 -0.903399 -2.203279
  H 3.883878 1.431392 1.325147
  H 3.884310 -0.150999 1.961108
  H 2.499329 -0.657558 -1.587934
  H 5.181482 -0.081498 -0.148990
 13
 0.208776
  H 1.436838 0.132984 0.353692
  C 2.518417 0.113681 0.373860
  C 3.178672 0.630588 1.554595
  H 2.481905 0.830174 2.361645
  C 3.155871 -0.379287 -0.754276
  C 4.555511 -0.428056 -0.930943
  C 5.125405 -0.868646 -2.086544
  H 4.535900 -1.065167 -2.968553
  H 6.187862 -1.034255 -2.155935
  H 3.687040 1.572663 1.303954
  H 3.995578 -0.014946 1.891563
  H 2.544172 -0.775475 -1.551402
  H 5.197204 -0.117239 -0.114085
 13
 2.456286
  H 1.449217 0.125191 0.396730
  C 2.532002 0.107944 0.390660
  C 3.209415 0.641066 1.558787
  H 2.546680 0.706390 2.417254
  C 3.136760 -0.372462 -0.754040
  C 4.529696 -0.454552 -0.950856
  C 5.117062 -0.856965 -2.108890
  H 4.644076 -0.735138 -3.071515
  H 6.096985 -1.308148 -2.106870
  H 3.527682 1.667947 1.333439
  H 4.121734 0.103523 1.811107
  H 2.507595 -0.772345 -1.537406
  H 5.173499 -0.216445 -0.110134
 13
 8.896475
  H 1.453676 0.035156 0.450763
  C 2.534286 0.080369 0.402953
  C 3.220408 0.669314 1.544931
  H 2.600819 0.652377 2.437308
  C 3.120093 -0.383924 -0.751938
  C 4.503911 -0.453442 -0.963757
  C 5.126450 -0.861462 -2.107946
  H 4.874803 -0.466232 -3.082263
  H 5.925184 -1.589244 -2.084692
  H 3.411548 1.725663 1.322009
  H 4.190208 0.218871 1.745007
  H 2.485404 -0.795480 -1.523837
  H 5.145612 -0.195959 -0.120271
 13
 18.742766
  H 1.459034 -0.048582 0.499366
  C 2.533989 0.050712 0.419628
  C 3.222084 0.696078 1.530215
  H 2.645662 0.629149 2.448795
  C 3.113207 -0.410877 -0.741389
  C 4.484260 -0.448490 -0.966992
  C 5.133548 -0.861610 -2.113167
  H 5.150730 -0.264305 -3.014070
  H 5.686963 -1.790293 -2.146866
  H 3.326021 1.762092 1.302430
  H 4.230561 0.315704 1.686492
  H 2.478436 -0.830041 -1.508180
  H 5.127906 -0.163530 -0.127995
 13
 26.201457
  H 1.457725 0.003602 0.460035
  C 2.539691 0.027711 0.427320
  C 3.212112 0.656888 1.549978
  H 2.608021 0.603437 2.449336
  C 3.131234 -0.481427 -0.713057
  C 4.485992 -0.401234 -0.985031
  C 5.137486 -0.857215 -2.134907
  H 5.353919 -0.186955 -2.949228
  H 5.495566 -1.866910 -2.229258
  H 3.322790 1.726172 1.322193
  H 4.206815 0.268335 1.739692
  H 2.498015 -0.933697 -1.460027
  H 5.121746 0.073831 -0.233657
 13
 14.986645
  H 1.469879 -0.189128 0.499130
  C 2.541663 -0.051021 0.438775
  C 3.180279 0.652499 1.545682
  H 2.580926 0.596999 2.449536
  C 3.158342 -0.511565 -0.697300
  C 4.521042 -0.373153 -0.970330
  C 5.128980 -0.785048 -2.132294
  H 5.618313 -0.083619 -2.794503
  H 5.176897 -1.824876 -2.424334
  H 3.259941 1.712784 1.283130
  H 4.193296 0.307780 1.742697
  H 2.563188 -0.942813 -1.488556
  H 5.145140 0.117423 -0.222404
 13
 9.551529
  H 1.510668 -0.402294 0.509326
  C 2.557783 -0.128393 0.450122
  C 3.108952 0.688602 1.521366
  H 2.456573 0.716023 2.386359
  C 3.261678 -0.582007 -0.635409
  C 4.641101 -0.403027 -0.880712
  C 5.045033 -0.700278 -2.144978
  H 5.758928 -0.106626 -2.692290
  H 4.746958 -1.623745 -2.626070
  H 3.234905 1.716564 1.165474
  H 4.109438 0.363207 1.803359
  H 2.752405 -0.944313 -1.519495
  H 5.311053 0.022969 -0.139832
 13
 22.325860
  H 1.486679 -0.248449 0.340485
  C 2.553720 -0.085070 0.401955
  C 3.071267 0.657314 1.547440
  H 2.366416 0.659352 2.373393
  C 3.324269 -0.534279 -0.641033
  C 4.706469 -0.413303 -0.831126
  C 4.994690 -0.713043 -2.150906
  H 5.495124 -0.007164 -2.803615
  H 4.871793 -1.711593 -2.543703
  H 3.237416 1.697862 1.252899
  H 4.039383 0.281064 1.875119
  H 2.881974 -0.857180 -1.577865
  H 5.431807 -0.128136 -0.083712
 13
 37.578810
  H 1.522535 -0.104132 0.152098
  C 2.581846 -0.003896 0.332886
  C 3.026067 0.656312 1.563334
  H 2.236002 0.661714 2.308417
  C 3.460357 -0.451131 -0.618650
  C 4.841790 -0.465984 -0.754563
  C 4.851003 -0.772176 -2.132408
  H 5.246451 -0.069311 -2.860067
  H 4.723799 -1.788533 -2.473075
  H 3.285858 1.695918 1.345908
  H 3.925072 0.194250 1.967522
  H 3.088513 -0.726974 -1.635202
  H 5.647452 -0.251275 -0.080076
 13
 43.116473
  H 1.603702 -0.077014 0.016955
  C 2.642208 0.012361 0.290781
  C 2.992497 0.673621 1.563482
  H 2.138463 0.684721 2.232770
  C 3.618754 -0.429968 -0.549925
  C 4.967723 -0.517559 -0.676729
  C 4.695784 -0.787954 -2.076117
  H 4.987769 -0.062356 -2.830614
  H 4.553041 -1.807317 -2.417406
  H 3.286385 1.708703 1.372630
  H 3.842589 0.193878 2.044134
  H 3.286814 -0.699080 -1.656984
  H 5.842483 -0.380388 -0.083716
 13
 29.833509
  H 1.696675 -0.326010 0.147064
  C 2.706781 -0.063920 0.423788
  C 2.904973 0.798390 1.610683
  H 2.011646 0.795037 2.225448
  C 3.742617 -0.427826 -0.330586
  C 4.971763 -0.676265 -0.722788
  C 4.583586 -0.754019 -2.163553
  H 5.011226 0.002533 -2.809474
  H 4.524988 -1.759005 -2.571815
  H 3.098115 1.825549 1.291033
  H 3.771170 0.485725 2.188244
  H 3.429628 -0.578596 -1.986640
  H 5.930360 -0.763756 -0.253512
