 28
 0.000000
  C 0.902297 0.048530 0.271372
  C 2.394289 0.056975 0.087252
  C 3.237265 -0.013700 1.353397
  C 2.522037 -0.087704 2.701217
  C 3.532477 -0.151377 3.841754
  C 2.990836 0.126319 -1.120934
  C 2.353208 0.204642 -2.494879
  C 0.842966 0.216434 -2.713038
  H 0.633141 0.277376 -3.776239
  C 4.452818 0.131581 -1.207648
  C 5.193946 0.194811 -2.308704
  H 6.270971 0.194044 -2.289913
  H 0.611208 -0.016061 1.313887
  H 0.455496 -0.810460 -0.222472
  H 0.457571 0.963442 -0.111650
  H 3.884583 0.868523 1.383129
  H 3.883343 -0.894762 1.285590
  H 1.889953 -0.977391 2.747594
  H 1.891098 0.792290 2.845275
  H 4.166805 -1.030601 3.748595
  H 3.017437 -0.203900 4.798737
  H 4.167976 0.731916 3.845953
  H 2.747141 -0.642932 -3.066519
  H 2.746346 1.112335 -2.965910
  H 0.381914 1.074686 -2.233143
  H 0.382769 -0.691595 -2.334677
  H 4.993100 0.078257 -0.275226
  H 4.812844 0.252358 -3.314963
 28
 5.424323
  C 0.920600 0.018691 0.278867
  C 2.378211 0.049275 0.090950
  C 3.247811 -0.034458 1.360768
  C 2.512254 -0.077167 2.704791
  C 3.515786 -0.156802 3.854230
  C 2.985966 0.124794 -1.122126
  C 2.335284 0.202233 -2.487327
  C 0.824841 0.188580 -2.692533
  H 0.633454 0.254709 -3.762515
  C 4.449379 0.154308 -1.223926
  C 5.186517 0.228527 -2.328209
  H 6.261510 0.233203 -2.262247
  H 0.603682 0.003848 1.297702
  H 0.418462 -0.769790 -0.254687
  H 0.753131 0.976269 -0.165759
  H 3.918105 0.830500 1.381256
  H 3.867350 -0.935142 1.294534
  H 1.858413 -0.950381 2.753677
  H 1.904536 0.821381 2.834082
  H 4.127452 -1.052160 3.767668
  H 2.998506 -0.187325 4.810793
  H 4.174487 0.708864 3.849514
  H 2.742292 -0.635754 -3.063797
  H 2.715189 1.119758 -2.951235
  H 0.333515 1.034884 -2.220847
  H 0.372386 -0.733171 -2.336252
  H 4.993296 0.102532 -0.295959
  H 4.787727 0.284045 -3.325449
 28
 17.327270
  C 0.907892 0.014414 0.282460
  C 2.351257 0.044818 0.084495
  C 3.253831 -0.048163 1.374310
  C 2.528593 -0.069586 2.722733
  C 3.537208 -0.161738 3.864479
  C 2.962427 0.123441 -1.118843
  C 2.321849 0.206796 -2.500025
  C 0.812804 0.162102 -2.733215
  H 0.639264 0.242274 -3.806227
  C 4.418240 0.162194 -1.203641
  C 5.166542 0.249409 -2.300946
  H 6.240987 0.260490 -2.224920
  H 0.565842 0.056432 1.299264
  H 0.363539 -0.738178 -0.274361
  H 0.968143 0.964944 -0.194840
  H 3.939599 0.801964 1.381236
  H 3.847736 -0.962145 1.299452
  H 1.860049 -0.929095 2.779978
  H 1.940108 0.840410 2.850643
  H 4.131146 -1.068537 3.778186
  H 3.026278 -0.177519 4.824464
  H 4.211831 0.690926 3.850449
  H 2.752729 -0.615406 -3.081274
  H 2.690295 1.136791 -2.948218
  H 0.289315 0.985373 -2.256643
  H 0.378562 -0.777653 -2.405116
  H 4.953209 0.103927 -0.264802
  H 4.775535 0.310322 -3.299050
 28
 30.991252
  C 0.899163 -0.008593 0.284126
  C 2.346589 0.044546 0.082506
  C 3.243679 -0.048436 1.374127
  C 2.520606 -0.060234 2.706818
  C 3.527479 -0.157520 3.852583
  C 2.972096 0.122584 -1.118104
  C 2.331101 0.209224 -2.492211
  C 0.821676 0.151803 -2.704310
  H 0.629725 0.240024 -3.773528
  C 4.413466 0.162057 -1.203182
  C 5.157014 0.258785 -2.307224
  H 6.232308 0.270914 -2.243932
  H 0.538535 0.044157 1.294127
  H 0.336120 -0.707285 -0.302415
  H 1.151584 0.932317 -0.175632
  H 3.938329 0.794165 1.380179
  H 3.828347 -0.968685 1.296958
  H 1.842888 -0.918505 2.764273
  H 1.936909 0.860244 2.830874
  H 4.114625 -1.068907 3.770154
  H 3.013659 -0.166453 4.812235
  H 4.210564 0.691546 3.838812
  H 2.762955 -0.604642 -3.083612
  H 2.688988 1.146888 -2.938385
  H 0.294852 0.967517 -2.209584
  H 0.406171 -0.797584 -2.378527
  H 4.949221 0.097156 -0.277040
  H 4.758188 0.329417 -3.312581
 28
 43.599779
  C 0.890759 -0.034317 0.300791
  C 2.337490 0.042248 0.075443
  C 3.226423 -0.045130 1.354252
  C 2.513647 -0.051916 2.695323
  C 3.528126 -0.147310 3.828018
  C 2.973342 0.118967 -1.122221
  C 2.320364 0.211001 -2.505833
  C 0.806275 0.151317 -2.697596
  H 0.596583 0.247730 -3.763434
  C 4.429231 0.158951 -1.193127
  C 5.185663 0.263650 -2.284901
  H 6.259063 0.272872 -2.205848
  H 0.539214 0.017370 1.321504
  H 0.294686 -0.690880 -0.314373
  H 1.284277 0.895698 -0.124666
  H 3.923044 0.794350 1.354514
  H 3.803445 -0.966791 1.273091
  H 1.838715 -0.905296 2.760935
  H 1.935148 0.865283 2.822052
  H 4.112656 -1.059428 3.741915
  H 3.023955 -0.153708 4.790995
  H 4.210985 0.699357 3.805085
  H 2.747535 -0.596526 -3.106983
  H 2.669642 1.150521 -2.950553
  H 0.287887 0.960584 -2.187070
  H 0.399343 -0.801947 -2.374324
  H 4.962115 0.085425 -0.253873
  H 4.806528 0.344172 -3.285584
 28
 52.113856
  C 0.879027 -0.074560 0.312147
  C 2.329526 0.036207 0.070671
  C 3.223939 -0.040522 1.359197
  C 2.506637 -0.047635 2.708922
  C 3.524292 -0.131160 3.842357
  C 2.972958 0.112853 -1.136359
  C 2.330417 0.213300 -2.507269
  C 0.823639 0.162369 -2.705176
  H 0.619628 0.274687 -3.770335
  C 4.419781 0.148210 -1.210843
  C 5.172206 0.262352 -2.308330
  H 6.248049 0.263243 -2.232811
  H 0.539064 -0.044354 1.329336
  H 0.268697 -0.663847 -0.334247
  H 1.377251 0.868700 -0.066746
  H 3.920889 0.805727 1.357685
  H 3.807442 -0.965175 1.278471
  H 1.838119 -0.905508 2.780311
  H 1.920831 0.864494 2.833630
  H 4.116121 -1.040063 3.758741
  H 3.020783 -0.137914 4.806304
  H 4.201228 0.721137 3.815858
  H 2.758029 -0.588754 -3.113462
  H 2.683583 1.153961 -2.941401
  H 0.306807 0.968676 -2.184503
  H 0.410684 -0.796512 -2.397748
  H 4.953551 0.061021 -0.287138
  H 4.779475 0.357140 -3.313654
 28
 58.233801
  C 0.885364 -0.112809 0.309618
  C 2.336824 0.034887 0.071841
  C 3.220429 -0.035752 1.363298
  C 2.503638 -0.044239 2.703658
  C 3.517812 -0.114054 3.836379
  C 2.989207 0.108830 -1.141165
  C 2.333454 0.216009 -2.517468
  C 0.807517 0.172340 -2.690551
  H 0.580696 0.295674 -3.752505
  C 4.430664 0.137571 -1.213377
  C 5.183973 0.258430 -2.311484
  H 6.257921 0.251662 -2.237447
  H 0.537949 -0.108973 1.320202
  H 0.263897 -0.637693 -0.385343
  H 1.470537 0.853436 -0.010920
  H 3.906512 0.803668 1.363223
  H 3.802021 -0.946118 1.288292
  H 1.844848 -0.906140 2.777408
  H 1.910694 0.860872 2.823245
  H 4.117566 -1.017602 3.756698
  H 3.012328 -0.121886 4.799304
  H 4.186404 0.743683 3.807830
  H 2.755750 -0.593829 -3.139733
  H 2.687962 1.167113 -2.957220
  H 0.305716 0.973357 -2.153511
  H 0.396839 -0.783484 -2.385222
  H 4.970470 0.035949 -0.278964
  H 4.792316 0.365741 -3.307658
 28
 62.699643
  C 0.874800 -0.161423 0.320193
  C 2.324581 0.026241 0.074044
  C 3.215731 -0.034562 1.358924
  C 2.505846 -0.042731 2.705599
  C 3.527881 -0.090934 3.831884
  C 2.977789 0.100345 -1.145479
  C 2.330292 0.220208 -2.520068
  C 0.814208 0.191607 -2.707558
  H 0.599200 0.332451 -3.770284
  C 4.424894 0.123149 -1.209837
  C 5.186826 0.251769 -2.300988
  H 6.262411 0.236395 -2.219867
  H 0.526068 -0.182203 1.336143
  H 0.239773 -0.617213 -0.406651
  H 1.524850 0.835390 0.047958
  H 3.905300 0.824620 1.350347
  H 3.813647 -0.954267 1.284629
  H 1.859911 -0.912691 2.789574
  H 1.900170 0.856976 2.822228
  H 4.137992 -0.985138 3.754743
  H 3.029678 -0.098854 4.796507
  H 4.183747 0.773997 3.793295
  H 2.747352 -0.579855 -3.139960
  H 2.691291 1.164969 -2.946778
  H 0.312774 0.994484 -2.160490
  H 0.390532 -0.771241 -2.419359
  H 4.956104 0.007642 -0.279604
  H 4.800775 0.372723 -3.302748
 28
 66.073585
  C 0.872550 -0.216139 0.316849
  C 2.318932 0.013938 0.073451
  C 3.220655 -0.036676 1.362027
  C 2.509025 -0.041579 2.711341
  C 3.532458 -0.062751 3.842972
  C 2.976319 0.089033 -1.154813
  C 2.334673 0.226183 -2.518066
  C 0.819417 0.215401 -2.708725
  H 0.609129 0.377703 -3.763434
  C 4.418635 0.107329 -1.219301
  C 5.182202 0.245063 -2.310496
  H 6.256676 0.221567 -2.230524
  H 0.519154 -0.259076 1.321991
  H 0.225686 -0.598932 -0.441199
  H 1.572555 0.820494 0.092021
  H 3.892797 0.817613 1.342649
  H 3.820201 -0.939612 1.292148
  H 1.875426 -0.920740 2.804425
  H 1.890511 0.847568 2.818117
  H 4.158713 -0.951973 3.775610
  H 3.031393 -0.068384 4.810031
  H 4.176766 0.813752 3.796426
  H 2.748419 -0.575071 -3.149249
  H 2.706014 1.175229 -2.935778
  H 0.329147 1.006486 -2.152690
  H 0.387750 -0.742780 -2.442044
  H 4.949089 -0.022564 -0.292491
  H 4.797979 0.378955 -3.305959
 28
 68.932952
  C 0.891005 -0.265972 0.316222
  C 2.332767 0.009421 0.077104
  C 3.232885 -0.037080 1.367141
  C 2.509617 -0.039293 2.707558
  C 3.519600 -0.041079 3.846707
  C 2.991745 0.082813 -1.161039
  C 2.333299 0.232958 -2.528584
  C 0.817032 0.236495 -2.700715
  H 0.592780 0.415847 -3.763050
  C 4.422565 0.097050 -1.226626
  C 5.186296 0.239221 -2.317245
  H 6.259820 0.208556 -2.237729
  H 0.529419 -0.315263 1.315981
  H 0.242003 -0.591039 -0.458524
  H 1.631608 0.814825 0.124295
  H 3.897922 0.817911 1.345142
  H 3.839070 -0.935606 1.305111
  H 1.879658 -0.930681 2.801554
  H 1.876271 0.849574 2.802363
  H 4.152313 -0.918934 3.792588
  H 3.012634 -0.045021 4.802078
  H 4.151973 0.837743 3.800256
  H 2.728612 -0.559553 -3.164361
  H 2.702046 1.172467 -2.943279
  H 0.336670 1.035007 -2.120632
  H 0.376426 -0.733900 -2.436209
  H 4.957913 -0.043398 -0.295298
  H 4.803241 0.383448 -3.313104
 28
 70.823835
  C 0.893353 -0.325265 0.309219
  C 2.328834 0.005946 0.078400
  C 3.237176 -0.037086 1.372784
  C 2.512164 -0.036611 2.707627
  C 3.519365 -0.018452 3.851139
  C 2.992165 0.076161 -1.165694
  C 2.335305 0.239022 -2.528867
  C 0.816232 0.261474 -2.698072
  H 0.595189 0.453505 -3.735333
  C 4.419022 0.086500 -1.230298
  C 5.185127 0.232308 -2.320540
  H 6.257775 0.197692 -2.242167
  H 0.516447 -0.369714 1.310770
  H 0.235179 -0.602142 -0.487917
  H 1.662820 0.817217 0.144922
  H 3.905741 0.835542 1.345608
  H 3.853203 -0.940992 1.314655
  H 1.897619 -0.925802 2.804796
  H 1.871270 0.841524 2.792204
  H 4.166971 -0.896619 3.804960
  H 3.003576 -0.020846 4.815088
  H 4.146226 0.873389 3.799073
  H 2.725320 -0.560889 -3.173807
  H 2.718276 1.185735 -2.942616
  H 0.352051 1.046127 -2.115896
  H 0.369923 -0.692701 -2.450284
  H 4.949901 -0.060049 -0.306707
  H 4.806530 0.384906 -3.307132
 28
 70.660503
  C 0.919278 -0.453943 0.301454
  C 2.326217 -0.009019 0.079878
  C 3.241291 -0.037451 1.375811
  C 2.512452 -0.033285 2.710810
  C 3.514467 0.030241 3.855697
  C 2.996421 0.057490 -1.171483
  C 2.338192 0.252901 -2.526456
  C 0.823813 0.322021 -2.685870
  H 0.600997 0.559295 -3.722797
  C 4.422057 0.063502 -1.236924
  C 5.185059 0.213177 -2.329520
  H 6.257889 0.165694 -2.256408
  H 0.514673 -0.459417 1.294417
  H 0.254187 -0.673505 -0.503613
  H 1.680035 0.810703 0.157701
  H 3.893024 0.840794 1.339727
  H 3.867048 -0.931478 1.326086
  H 1.917994 -0.940145 2.820878
  H 1.845264 0.832869 2.778680
  H 4.181539 -0.826899 3.825935
  H 2.999037 0.030062 4.813097
  H 4.116887 0.935366 3.790866
  H 2.702231 -0.543804 -3.182791
  H 2.742984 1.192597 -2.928828
  H 0.383012 1.102029 -2.068880
  H 0.352235 -0.629251 -2.469249
  H 4.959563 -0.099009 -0.310849
  H 4.800052 0.376995 -3.319796
 28
 70.808838
  C 0.955072 -0.586361 0.295527
  C 2.325447 -0.032915 0.083352
  C 3.240708 -0.035920 1.369736
  C 2.509825 -0.021255 2.706334
  C 3.507331 0.089162 3.852290
  C 2.999519 0.035783 -1.177795
  C 2.338077 0.270842 -2.522264
  C 0.823594 0.402971 -2.664574
  H 0.601254 0.685713 -3.687426
  C 4.422213 0.029407 -1.239628
  C 5.191718 0.191090 -2.328882
  H 6.261723 0.144667 -2.252048
  H 0.524911 -0.549148 1.276153
  H 0.298049 -0.798667 -0.520048
  H 1.692358 0.782723 0.152709
  H 3.877701 0.845929 1.319220
  H 3.876686 -0.918582 1.333028
  H 1.935774 -0.938295 2.833739
  H 1.825231 0.826059 2.754677
  H 4.194736 -0.752624 3.841424
  H 2.990254 0.096277 4.807826
  H 4.086219 1.003131 3.770856
  H 2.667926 -0.529856 -3.195513
  H 2.771568 1.196691 -2.911832
  H 0.419365 1.175457 -2.015171
  H 0.314025 -0.539207 -2.476805
  H 4.952915 -0.145996 -0.317099
  H 4.811224 0.383385 -3.314950
 28
 69.713895
  C 1.004572 -0.715103 0.272189
  C 2.332819 -0.048274 0.082381
  C 3.245399 -0.028418 1.371844
  C 2.502265 -0.005098 2.698329
  C 3.487994 0.148661 3.858439
  C 3.013224 0.026010 -1.186269
  C 2.333533 0.293982 -2.519920
  C 0.819744 0.485345 -2.618984
  H 0.579368 0.807050 -3.630450
  C 4.432024 0.001683 -1.251921
  C 5.199889 0.168033 -2.342346
  H 6.271469 0.113981 -2.269941
  H 0.531195 -0.640107 1.234228
  H 0.371191 -0.936166 -0.561971
  H 1.710980 0.770088 0.140775
  H 3.873040 0.863970 1.312963
  H 3.893757 -0.903646 1.351760
  H 1.945217 -0.934613 2.835267
  H 1.795476 0.831157 2.721854
  H 4.194548 -0.678183 3.870777
  H 2.959275 0.161365 4.809829
  H 4.048158 1.074167 3.767112
  H 2.619535 -0.509677 -3.209669
  H 2.790883 1.211485 -2.911681
  H 0.462984 1.251645 -1.935684
  H 0.277794 -0.439052 -2.442448
  H 4.962886 -0.191588 -0.330993
  H 4.816200 0.383326 -3.323841
