 17
 0.000000
  C 1.001873 0.135054 0.386729
  C 2.470937 0.129734 0.373864
  C 3.210850 0.603220 1.552692
  H 2.544502 0.922951 2.346686
  C 3.120008 -0.328231 -0.766097
  C 4.507854 -0.386312 -0.910599
  C 5.136999 -0.843242 -2.050641
  H 4.594419 -1.192611 -2.921387
  O 6.427617 -0.899991 -2.193076
  H 0.599667 0.510521 1.322813
  H 0.618708 -0.871411 0.216735
  H 0.618647 0.744259 -0.432013
  H 3.864672 1.433699 1.284012
  H 3.865554 -0.181486 1.933360
  H 2.510200 -0.660769 -1.594822
  H 5.131535 -0.057456 -0.090017
  H 6.910215 -0.582003 -1.401115
 17
 4.801749
  C 0.999621 0.146744 0.467290
  C 2.464421 0.115600 0.317175
  C 3.297034 0.563297 1.451382
  H 2.674883 0.882350 2.283413
  C 3.010610 -0.323561 -0.887780
  C 4.392440 -0.365399 -1.055617
  C 5.191046 -0.867575 -2.060248
  H 4.841110 -1.278187 -2.997580
  O 6.484834 -0.869471 -1.917891
  H 0.682623 0.504492 1.441803
  H 0.581323 -0.847870 0.300614
  H 0.556046 0.773871 -0.307998
  H 3.932685 1.402687 1.171309
  H 3.939614 -0.240849 1.807591
  H 2.349240 -0.662524 -1.669634
  H 4.959433 0.038865 -0.221939
  H 6.767283 -0.493393 -1.057076
 17
 9.300152
  C 1.008618 0.124623 0.508422
  C 2.462353 0.127539 0.281706
  C 3.321076 0.582579 1.392029
  H 2.721023 0.907987 2.218627
  C 2.968348 -0.312669 -0.941429
  C 4.344839 -0.336287 -1.129190
  C 5.224530 -0.873613 -2.058969
  H 4.967244 -1.331632 -3.012001
  O 6.489532 -0.903655 -1.775722
  H 0.740853 0.442811 1.517280
  H 0.594756 -0.870746 0.335219
  H 0.520122 0.767347 -0.216245
  H 3.958414 1.405438 1.101670
  H 3.958864 -0.219036 1.752135
  H 2.286479 -0.667389 -1.700305
  H 4.879528 0.145151 -0.319049
  H 6.682145 -0.509643 -0.889735
 17
 12.095414
  C 1.019873 0.081214 0.550586
  C 2.458212 0.128785 0.243455
  C 3.343845 0.596535 1.340709
  H 2.756547 0.955780 2.177451
  C 2.940270 -0.273518 -0.999551
  C 4.325795 -0.250175 -1.203664
  C 5.233634 -0.903611 -2.026540
  H 5.022906 -1.411090 -2.961282
  O 6.477517 -0.975511 -1.640001
  H 0.798372 0.323410 1.579582
  H 0.609254 -0.900742 0.314977
  H 0.483187 0.764148 -0.107047
  H 3.989347 1.420337 1.026267
  H 3.978408 -0.205924 1.700952
  H 2.245609 -0.617596 -1.756904
  H 4.844316 0.260071 -0.395627
  H 6.623346 -0.516596 -0.786869
 17
 15.431436
  C 1.039578 0.057485 0.588867
  C 2.454623 0.127796 0.188459
  C 3.363635 0.585214 1.271102
  H 2.794011 0.925783 2.132669
  C 2.926639 -0.227124 -1.064071
  C 4.309799 -0.173910 -1.265881
  C 5.228941 -0.934560 -1.965070
  H 5.045741 -1.513838 -2.855637
  O 6.448331 -1.010604 -1.509178
  H 0.884648 0.273188 1.635623
  H 0.607176 -0.917919 0.344024
  H 0.461978 0.765306 -0.010005
  H 4.008216 1.413768 0.956980
  H 3.994965 -0.224311 1.601651
  H 2.242778 -0.618610 -1.806765
  H 4.807647 0.429752 -0.514651
  H 6.572032 -0.492784 -0.686806
 17
 19.095829
  C 1.075693 0.015488 0.618971
  C 2.472250 0.123253 0.152544
  C 3.408461 0.619554 1.198286
  H 2.859597 0.957077 2.070770
  C 2.893789 -0.214934 -1.122155
  C 4.277625 -0.101775 -1.366681
  C 5.211240 -0.978960 -1.907093
  H 5.061457 -1.682953 -2.714269
  O 6.384886 -1.033448 -1.344965
  H 0.963678 0.227661 1.675688
  H 0.663884 -0.976381 0.410140
  H 0.450002 0.707265 0.049978
  H 4.014030 1.458935 0.859542
  H 4.074289 -0.175291 1.524800
  H 2.202599 -0.662063 -1.825419
  H 4.759791 0.569017 -0.661703
  H 6.482804 -0.400251 -0.603285
 17
 21.548011
  C 1.168072 -0.161204 0.554622
  C 2.531867 0.208434 0.133939
  C 3.451425 0.740961 1.170701
  H 2.896087 1.080959 2.042494
  C 2.952445 -0.002879 -1.170588
  C 4.339165 0.166635 -1.450983
  C 5.009641 -1.013020 -1.698461
  H 4.516609 -1.836697 -2.194748
  O 6.125367 -1.337517 -1.123828
  H 1.059536 -0.146197 1.631609
  H 0.896357 -1.153354 0.168071
  H 0.446313 0.516343 0.119719
  H 4.060271 1.560723 0.804758
  H 4.127546 -0.056007 1.505135
  H 2.334091 -0.552854 -1.843225
  H 4.861671 1.015933 -1.012687
  H 6.579458 -0.595250 -0.671702
 17
 26.249266
  C 1.214971 -0.180938 0.529016
  C 2.567856 0.226633 0.095515
  C 3.495380 0.733991 1.130227
  H 2.942297 1.024482 2.024284
  C 2.957927 0.055001 -1.213001
  C 4.362321 0.244425 -1.517908
  C 4.954190 -1.017843 -1.625874
  H 4.434188 -1.824857 -2.134286
  O 6.011458 -1.408775 -0.987656
  H 1.112224 -0.156874 1.603188
  H 0.969238 -1.182916 0.173452
  H 0.469020 0.486914 0.087979
  H 4.078167 1.587860 0.783041
  H 4.197097 -0.057376 1.426246
  H 2.341118 -0.509685 -1.894151
  H 4.896344 1.097600 -1.126806
  H 6.512908 -0.722115 -0.500844
