 23
 0.000000
  C 0.970939 0.177295 0.494191
  C 2.429282 0.124197 0.360792
  H 3.053691 0.453002 1.177711
  C 3.002967 -0.343088 -0.801937
  C 4.385111 -0.418868 -0.991705
  C 5.098642 -0.865288 -2.104876
  C 4.627195 -1.389719 -3.412863
  C 3.143332 -1.517670 -3.733237
  C 2.960064 -2.081700 -5.140102
  O 6.413414 -0.847956 -2.061718
  H 0.646402 0.563829 1.455513
  H 0.546334 -0.819036 0.355534
  H 0.545609 0.799843 -0.295584
  H 2.338767 -0.659440 -1.588371
  H 4.986245 -0.081895 -0.153118
  H 5.096941 -2.373275 -3.531545
  H 5.097555 -0.761069 -4.178175
  H 2.659987 -0.541169 -3.690666
  H 2.659408 -2.193989 -3.027970
  H 3.411867 -1.430261 -5.884410
  H 1.902212 -2.174380 -5.372228
  H 3.411332 -3.067153 -5.228088
  H 6.785367 -0.512810 -1.223544
 23
 14.517539
  C 0.934038 0.197976 0.545285
  C 2.388100 0.137935 0.395605
  H 3.018503 0.465561 1.210126
  C 2.960506 -0.329826 -0.768378
  C 4.335975 -0.400074 -0.944166
  C 5.108590 -0.888968 -2.163793
  C 4.647777 -1.405357 -3.451808
  C 3.161596 -1.529008 -3.761186
  C 2.967988 -2.092500 -5.166968
  O 6.553922 -0.861118 -2.095436
  H 0.625117 0.586200 1.510792
  H 0.502111 -0.795627 0.409049
  H 0.501881 0.820595 -0.240840
  H 2.299289 -0.647449 -1.558589
  H 4.941834 -0.066044 -0.112310
  H 5.119489 -2.389305 -3.572424
  H 5.119991 -0.777614 -4.218766
  H 2.681962 -0.551094 -3.714167
  H 2.681500 -2.203442 -3.051775
  H 3.416636 -1.442302 -5.914105
  H 1.908723 -2.182624 -5.392589
  H 3.416226 -3.078943 -5.258031
  H 6.898434 -0.523880 -1.252691
 23
 44.969668
  C 0.926824 0.210023 0.573527
  C 2.370453 0.140363 0.403098
  H 3.007337 0.465427 1.213507
  C 2.936644 -0.320072 -0.743055
  C 4.291688 -0.375832 -0.881523
  C 5.085529 -0.908867 -2.213189
  C 4.657301 -1.419123 -3.487176
  C 3.169029 -1.541233 -3.790427
  C 2.963229 -2.103544 -5.193826
  O 6.670314 -0.849571 -2.068607
  H 0.645181 0.600450 1.545126
  H 0.482457 -0.779123 0.444173
  H 0.483794 0.835605 -0.204330
  H 2.286752 -0.639304 -1.539581
  H 4.929807 -0.054222 -0.079490
  H 5.141560 -2.398490 -3.615047
  H 5.141445 -0.798875 -4.255940
  H 2.689968 -0.564043 -3.735776
  H 2.690895 -2.211118 -3.076259
  H 3.405536 -1.454171 -5.945101
  H 1.901945 -2.190593 -5.410193
  H 3.406684 -3.091493 -5.289381
  H 6.911860 -0.503608 -1.204062
 23
 80.317622
  C 0.884958 0.219780 0.596429
  C 2.333415 0.152388 0.433704
  H 2.961191 0.477481 1.245112
  C 2.924363 -0.313498 -0.725372
  C 4.283519 -0.360150 -0.840228
  C 5.075177 -0.931836 -2.269207
  C 4.674816 -1.430395 -3.515114
  C 3.170350 -1.545936 -3.800738
  C 2.945842 -2.107648 -5.204551
  O 6.825478 -0.855869 -2.086275
  H 0.596624 0.609684 1.566480
  H 0.441161 -0.770581 0.458209
  H 0.443575 0.840713 -0.188710
  H 2.291479 -0.634648 -1.527139
  H 4.964183 -0.050600 -0.068828
  H 5.167057 -2.416200 -3.643456
  H 5.166481 -0.804876 -4.288349
  H 2.700501 -0.564835 -3.736580
  H 2.702095 -2.213273 -3.077551
  H 3.382117 -1.460424 -5.961301
  H 1.881034 -2.189757 -5.407976
  H 3.383641 -3.097690 -5.306366
  H 6.995163 -0.498526 -1.194229
 23
 115.454315
  C 0.865191 0.226471 0.606228
  C 2.308447 0.160266 0.459172
  H 2.936435 0.487640 1.283401
  C 2.911989 -0.307211 -0.703248
  C 4.263048 -0.349092 -0.800962
  C 5.029016 -0.940260 -2.287200
  C 4.652630 -1.437350 -3.532330
  C 3.158367 -1.554000 -3.816794
  C 2.944382 -2.112455 -5.215465
  O 6.995125 -0.848624 -2.079675
  H 0.566389 0.615564 1.574220
  H 0.423815 -0.761348 0.459533
  H 0.432018 0.844049 -0.183273
  H 2.277876 -0.632339 -1.524543
  H 4.977833 -0.056717 -0.064160
  H 5.145700 -2.409184 -3.660244
  H 5.142360 -0.818946 -4.294555
  H 2.690744 -0.572148 -3.750005
  H 2.694300 -2.222127 -3.092071
  H 3.381036 -1.463149 -5.970315
  H 1.881127 -2.196343 -5.419745
  H 3.384802 -3.101153 -5.316766
  H 7.112204 -0.491936 -1.198187
 23
 105.737277
  C 0.947719 0.343551 1.005757
  C 2.297863 0.224459 0.540140
  H 3.077628 0.540374 1.207695
  C 2.610449 -0.267381 -0.682502
  C 3.976066 -0.383819 -1.117697
  C 4.403072 -0.853576 -2.257052
  C 4.560121 -1.383455 -3.515758
  C 3.115096 -1.641915 -4.072284
  C 3.235350 -2.218788 -5.473287
  O 7.089993 -0.959959 -1.929635
  H 0.905367 0.753115 2.006788
  H 0.450181 -0.630169 0.987775
  H 0.364168 0.973541 0.328175
  H 1.842080 -0.588691 -1.362518
  H 4.717088 -0.033011 -0.410793
  H 5.123346 -2.319503 -3.502987
  H 5.082550 -0.702070 -4.186134
  H 2.566727 -0.695809 -4.098240
  H 2.605500 -2.351046 -3.415654
  H 3.754414 -1.540125 -6.143219
  H 2.235889 -2.382004 -5.866825
  H 3.756736 -3.171312 -5.469678
  H 7.423517 -0.648487 -1.090809
 23
 104.613179
  C 0.921580 0.398074 1.106223
  C 2.291293 0.243324 0.599365
  H 3.104136 0.565172 1.236076
  C 2.557186 -0.275652 -0.624432
  C 3.893399 -0.414553 -1.131614
  C 4.322355 -0.869417 -2.259728
  C 4.578547 -1.381042 -3.508183
  C 3.151099 -1.664216 -4.120804
  C 3.339426 -2.228938 -5.517477
  O 6.923007 -0.963916 -2.010364
  H 0.902596 0.831351 2.100107
  H 0.410392 -0.566480 1.122280
  H 0.333794 1.021029 0.429025
  H 1.752602 -0.591847 -1.272415
  H 4.694569 -0.081568 -0.468666
  H 5.152301 -2.310762 -3.467800
  H 5.107906 -0.672419 -4.150515
  H 2.586238 -0.735291 -4.163743
  H 2.628328 -2.382796 -3.493307
  H 3.870453 -1.533757 -6.160704
  H 2.358256 -2.410917 -5.949972
  H 3.881633 -3.169490 -5.496480
  H 7.515208 -0.733504 -1.291124
