 16
 0.000000
  C 1.040303 0.132567 0.356862
  C 2.504026 0.154344 0.376490
  C 3.227644 0.614152 1.562617
  H 2.558432 0.916184 2.356765
  C 3.168953 -0.286534 -0.768512
  C 4.563292 -0.369106 -0.942760
  C 5.107244 -0.858586 -2.085331
  H 4.489836 -1.201414 -2.897785
  H 6.171208 -0.924484 -2.216945
  H 0.599612 0.472169 1.287915
  H 0.684321 -0.873479 0.126637
  H 0.666486 0.744518 -0.468523
  H 3.885775 1.447495 1.309441
  H 3.893539 -0.168308 1.931249
  H 2.556542 -0.613545 -1.599220
  H 5.215907 -0.036821 -0.148484
 16
 0.320414
  C 1.037077 0.121992 0.368702
  C 2.497672 0.201571 0.351083
  C 3.226493 0.625214 1.549271
  H 2.557790 0.938905 2.344528
  C 3.164751 -0.200953 -0.811771
  C 4.552308 -0.407403 -0.932474
  C 5.108497 -0.849942 -2.091184
  H 4.505439 -1.063733 -2.958464
  H 6.169595 -1.005440 -2.180921
  H 0.593969 0.610559 1.231563
  H 0.774004 -0.943436 0.411622
  H 0.596412 0.480042 -0.561775
  H 3.915446 1.437974 1.314607
  H 3.857061 -0.188043 1.916495
  H 2.565641 -0.392569 -1.693210
  H 5.189697 -0.219869 -0.080772
 16
 3.581004
  C 1.034512 0.217315 0.347577
  C 2.481661 0.204877 0.339988
  C 3.218605 0.556135 1.563359
  H 2.555697 0.923709 2.341151
  C 3.144368 -0.175519 -0.836502
  C 4.532106 -0.383136 -0.949002
  C 5.098098 -0.834031 -2.100867
  H 4.501497 -1.071191 -2.964317
  H 6.161148 -0.973281 -2.187234
  H 0.556023 0.788345 1.132076
  H 0.992590 -0.863982 0.651962
  H 0.552275 0.257640 -0.620134
  H 3.960580 1.324541 1.341999
  H 3.775070 -0.300195 1.947243
  H 2.552819 -0.335742 -1.726758
  H 5.165363 -0.181323 -0.097748
 16
 15.602637
  C 1.025465 0.322494 0.342828
  C 2.453451 0.173937 0.337965
  C 3.225136 0.560502 1.540548
  H 2.567420 0.842474 2.359518
  C 3.115672 -0.262482 -0.825818
  C 4.495269 -0.502046 -0.926358
  C 5.092999 -0.793496 -2.113236
  H 4.518587 -0.974584 -3.003629
  H 6.161454 -0.890622 -2.193478
  H 0.541326 0.858794 1.145468
  H 1.246781 -0.788291 0.681265
  H 0.484301 0.220001 -0.588172
  H 3.852112 1.415024 1.298632
  H 3.888992 -0.242483 1.877011
  H 2.523074 -0.383846 -1.725907
  H 5.109222 -0.418163 -0.041289
 16
 30.926036
  C 1.021924 0.374761 0.337624
  C 2.419196 0.142552 0.366895
  C 3.211939 0.564315 1.563959
  H 2.565836 0.789179 2.404285
  C 3.103763 -0.214292 -0.840254
  C 4.478166 -0.447850 -0.946031
  C 5.050347 -0.883758 -2.102147
  H 4.473852 -0.999554 -3.003465
  H 6.107706 -1.068331 -2.173972
  H 0.501119 0.759040 1.200958
  H 1.566113 -0.852841 0.564459
  H 0.472338 0.290342 -0.587834
  H 3.777991 1.457742 1.316907
  H 3.925151 -0.200572 1.872380
  H 2.523797 -0.293210 -1.749926
  H 5.102614 -0.294316 -0.080614
 16
 38.270541
  C 0.996438 0.457364 0.332427
  C 2.378133 0.097281 0.385759
  C 3.201486 0.547843 1.572979
  H 2.559648 0.875300 2.384380
  C 3.070996 -0.283036 -0.840037
  C 4.443273 -0.502026 -0.944831
  C 5.034664 -0.807870 -2.133004
  H 4.456850 -0.938038 -3.032829
  H 6.103319 -0.935332 -2.213456
  H 0.515149 0.927168 1.169797
  H 1.935447 -0.952180 0.557811
  H 0.406434 0.262985 -0.548792
  H 3.828451 1.384029 1.281152
  H 3.843777 -0.243338 1.941740
  H 2.475960 -0.413928 -1.730673
  H 5.064695 -0.375039 -0.069383
 16
 39.802902
  C 0.995157 0.463602 0.363621
  C 2.354883 0.100989 0.410495
  C 3.190969 0.559434 1.587090
  H 2.554143 0.921897 2.387591
  C 3.035540 -0.305818 -0.829322
  C 4.419110 -0.506943 -0.947570
  C 4.991863 -0.805905 -2.138990
  H 4.403915 -0.927314 -3.033998
  H 6.056748 -0.916148 -2.237208
  H 0.530831 0.975679 1.187461
  H 2.291109 -1.063685 0.355989
  H 0.386468 0.240952 -0.495233
  H 3.838647 1.376209 1.277402
  H 3.816087 -0.234551 1.982790
  H 2.429664 -0.414040 -1.718856
  H 5.043953 -0.393591 -0.075069
 16
 36.039684
  C 0.986423 0.472600 0.398963
  C 2.330346 0.160326 0.432837
  C 3.172756 0.583470 1.601776
  H 2.549160 0.935146 2.414971
  C 2.990443 -0.344908 -0.789431
  C 4.395790 -0.521742 -0.929826
  C 4.958555 -0.802951 -2.123396
  H 4.368901 -0.892272 -3.020365
  H 6.018598 -0.959103 -2.223150
  H 0.518680 0.971936 1.228159
  H 2.473980 -1.107587 0.116652
  H 0.366214 0.234105 -0.448235
  H 3.829395 1.397474 1.302004
  H 3.793317 -0.223452 1.977362
  H 2.378546 -0.423654 -1.677425
  H 5.023702 -0.375498 -0.065012
 16
 25.784433
  C 0.998401 0.486834 0.418766
  C 2.322706 0.180878 0.462624
  C 3.190236 0.606327 1.593341
  H 2.600162 1.067249 2.383655
  C 2.935009 -0.433485 -0.747160
  C 4.370772 -0.559882 -0.908055
  C 4.939398 -0.763234 -2.109814
  H 4.349144 -0.886395 -3.002479
  H 6.010682 -0.799521 -2.228918
  H 0.523005 0.990927 1.237382
  H 2.563098 -1.339449 -0.146292
  H 0.371563 0.231966 -0.416119
  H 3.928782 1.331121 1.233644
  H 3.739994 -0.232547 2.028141
  H 2.338303 -0.422708 -1.654297
  H 4.993395 -0.480803 -0.029223
 16
 18.229440
  C 1.017644 0.495249 0.449552
  C 2.348804 0.229378 0.463270
  C 3.212594 0.609283 1.589345
  H 2.643058 1.086532 2.378705
  C 2.917237 -0.467710 -0.719602
  C 4.373304 -0.556325 -0.900446
  C 4.934563 -0.745157 -2.106680
  H 4.339856 -0.844733 -3.001129
  H 6.004266 -0.801100 -2.229863
  H 0.530844 1.008527 1.259831
  H 2.589334 -1.468699 -0.337967
  H 0.399521 0.235780 -0.392038
  H 3.988091 1.289739 1.241855
  H 3.721665 -0.254900 2.010666
  H 2.353364 -0.330172 -1.643677
  H 5.003752 -0.451222 -0.028064
 16
 16.166891
  C 1.007312 0.424785 0.513411
  C 2.356033 0.236875 0.459195
  C 3.242672 0.656163 1.554937
  H 2.696332 1.175664 2.335591
  C 2.899816 -0.448815 -0.734871
  C 4.357060 -0.597377 -0.876014
  C 4.945641 -0.765001 -2.071266
  H 4.378606 -0.788188 -2.988333
  H 6.012718 -0.868747 -2.164497
  H 0.535303 0.902631 1.354935
  H 2.465602 -1.465123 -0.639036
  H 0.357811 0.113908 -0.287589
  H 4.035997 1.298123 1.170120
  H 3.739164 -0.207963 2.000419
  H 2.439240 -0.085705 -1.660982
  H 4.963511 -0.582677 0.016859
 16
 16.842765
  C 1.002477 0.296967 0.587565
  C 2.359390 0.265008 0.454930
  C 3.254982 0.737237 1.521059
  H 2.709486 1.258959 2.301264
  C 2.893280 -0.343850 -0.783063
  C 4.337007 -0.624066 -0.868785
  C 4.957430 -0.848118 -2.037906
  H 4.436917 -0.796153 -2.980193
  H 6.008744 -1.071116 -2.083765
  H 0.519193 0.543795 1.517508
  H 2.343643 -1.300526 -0.872033
  H 0.349592 0.063737 -0.237807
  H 4.027880 1.384305 1.106542
  H 3.778184 -0.105309 1.979205
  H 2.549486 0.204689 -1.670098
  H 4.905128 -0.667007 0.048457
 16
 15.721435
  C 0.993244 0.346030 0.573583
  C 2.347170 0.217223 0.470706
  C 3.244661 0.679087 1.542004
  H 2.702089 1.205532 2.320452
  C 2.897556 -0.389755 -0.759775
  C 4.354073 -0.586085 -0.871279
  C 4.954220 -0.823442 -2.049674
  H 4.404586 -0.847286 -2.976842
  H 6.015532 -0.990504 -2.117559
  H 0.539700 0.820309 1.425594
  H 2.400992 -1.366711 -0.901920
  H 0.326412 -0.012825 -0.192658
  H 4.024183 1.321965 1.134995
  H 3.755888 -0.170394 1.998799
  H 2.522362 0.153597 -1.641262
  H 4.950151 -0.558189 0.027718
