 16
 0.000000
  H 3.397749 -0.344449 -0.806963
  C 4.452396 -0.411652 -0.974602
  C 5.123831 -0.863395 -2.100714
  C 4.621920 -1.386396 -3.404454
  C 3.129954 -1.502980 -3.695876
  C 2.901042 -2.064737 -5.096300
  O 6.448567 -0.861790 -2.097024
  H 5.073532 -0.080521 -0.149771
  H 5.075895 -2.376004 -3.531813
  H 5.076265 -0.759449 -4.180462
  H 2.655656 -0.522022 -3.641480
  H 2.655252 -2.174151 -2.978669
  H 3.338077 -1.417822 -5.854009
  H 1.834884 -2.144599 -5.296051
  H 3.337677 -3.056130 -5.196764
  H 6.820588 -0.526463 -1.260938
 16
 0.000000
  H 3.532067 -0.342646 -0.802457
  C 4.525964 -0.433333 -1.028660
  C 5.110954 -0.863370 -2.100666
  C 4.613572 -1.386971 -3.405899
  C 3.122625 -1.505348 -3.701780
  C 2.898577 -2.067378 -5.102881
  O 6.347021 -0.842034 -2.047773
  H 5.193933 -0.115092 -0.235961
  H 5.069115 -2.376033 -3.531899
  H 5.069481 -0.759478 -4.180547
  H 2.646988 -0.524961 -3.648805
  H 2.646588 -2.177090 -2.985994
  H 3.337097 -1.419937 -5.859282
  H 1.833117 -2.148521 -5.305819
  H 3.336701 -3.058245 -5.202038
  H 6.659482 -0.472124 -1.125429
 16
 0.000000
  H 3.658396 -0.342901 -0.803093
  C 4.597370 -0.454134 -1.080521
  C 5.103900 -0.863531 -2.101081
  C 4.609032 -1.387464 -3.407137
  C 3.118657 -1.506836 -3.705488
  C 2.897306 -2.069014 -5.106959
  O 6.252567 -0.826211 -2.008327
  H 5.309176 -0.149354 -0.321378
  H 5.065443 -2.376221 -3.532381
  H 5.065805 -0.759665 -4.181028
  H 2.642278 -0.526767 -3.653301
  H 2.641883 -2.178897 -2.990492
  H 3.336646 -1.421279 -5.862631
  H 1.832238 -2.150868 -5.311662
  H 3.336256 -3.059588 -5.205389
  H 6.490320 -0.419781 -0.994899
 16
 0.000000
  H 3.774631 -0.344391 -0.806811
  C 4.667080 -0.473344 -1.128417
  C 5.103755 -0.864099 -2.102506
  C 4.608894 -1.388033 -3.408564
  C 3.118520 -1.507412 -3.706921
  C 2.897177 -2.069590 -5.108392
  O 6.165249 -0.814657 -1.979521
  H 5.418702 -0.182118 -0.403065
  H 5.065311 -2.376788 -3.533807
  H 5.065667 -0.760231 -4.182453
  H 2.642137 -0.527345 -3.654735
  H 2.641747 -2.179475 -2.991927
  H 3.336517 -1.421853 -5.864063
  H 1.832111 -2.151449 -5.313099
  H 3.336132 -3.060162 -5.206821
  H 6.310161 -0.371041 -0.873347
 16
 0.000000
  H 3.878365 -0.345867 -0.810495
  C 4.735439 -0.489881 -1.169651
  C 5.111628 -0.865389 -2.105736
  C 4.613705 -1.388922 -3.410791
  C 3.122636 -1.507098 -3.706135
  C 2.898006 -2.069095 -5.107156
  O 6.084869 -0.807884 -1.962634
  H 5.521841 -0.211681 -0.476773
  H 5.069069 -2.378045 -3.536956
  H 5.069420 -0.761489 -4.185602
  H 2.647149 -0.526647 -3.652987
  H 2.646766 -2.178777 -2.990179
  H 3.336342 -1.421713 -5.863714
  H 1.832463 -2.150095 -5.309710
  H 3.335962 -3.060022 -5.206471
  H 6.116928 -0.327844 -0.765610
 16
 0.000000
  H 3.966585 -0.345685 -0.810045
  C 4.802587 -0.502097 -1.200115
  C 5.128681 -0.867902 -2.112013
  C 4.623929 -1.390529 -3.414806
  C 3.131330 -1.506009 -3.703418
  C 2.899366 -2.067594 -5.103409
  O 6.011284 -0.806670 -1.959603
  H 5.617600 -0.235560 -0.536315
  H 5.076931 -2.380472 -3.543020
  H 5.077275 -0.763917 -4.191668
  H 2.657861 -0.524701 -3.648128
  H 2.657484 -2.176830 -2.985318
  H 3.335452 -1.421001 -5.861939
  H 1.832775 -2.146667 -5.301152
  H 3.335078 -3.059310 -5.204695
  H 5.910258 -0.292238 -0.676795
 16
 0.000000
  H 4.025445 -0.342299 -0.801604
  C 4.859057 -0.506785 -1.211809
  C 5.152333 -0.871746 -2.121608
  C 4.637828 -1.393055 -3.421110
  C 3.143102 -1.504670 -3.700076
  C 2.900650 -2.065641 -5.098536
  O 5.955151 -0.811134 -1.970725
  H 5.692195 -0.248135 -0.567677
  H 5.087430 -2.384166 -3.552239
  H 5.087768 -0.767611 -4.200889
  H 2.672541 -0.522140 -3.641739
  H 2.672168 -2.174269 -2.978926
  H 3.333500 -1.420173 -5.859872
  H 1.832602 -2.141953 -5.289386
  H 3.333131 -3.058480 -5.202626
  H 5.726171 -0.268921 -0.618626
 16
 0.000000
  H 4.059418 -0.335555 -0.784793
  C 4.905641 -0.504240 -1.205473
  C 5.180049 -0.876996 -2.134704
  C 4.653601 -1.396651 -3.430081
  C 3.156362 -1.503511 -3.697186
  C 2.901047 -2.063693 -5.093673
  O 5.914169 -0.819823 -1.992378
  H 5.748225 -0.249868 -0.572008
  H 5.098997 -2.389185 -3.564758
  H 5.099330 -0.772631 -4.213411
  H 2.689403 -0.519492 -3.635131
  H 2.689035 -2.171619 -2.972315
  H 3.329897 -1.419594 -5.858426
  H 1.831282 -2.136607 -5.276048
  H 3.329532 -3.057900 -5.201177
  H 5.568938 -0.254123 -0.581704
 16
 0.000000
  H 4.072577 -0.325168 -0.758898
  C 4.944360 -0.494375 -1.180889
  C 5.211263 -0.884098 -2.152416
  C 4.670515 -1.401716 -3.442710
  C 3.170400 -1.502851 -3.695537
  C 2.899653 -2.062029 -5.089520
  O 5.886045 -0.832245 -2.023336
  H 5.789279 -0.241080 -0.550108
  H 5.110814 -2.395942 -3.581607
  H 5.111142 -0.779390 -4.230264
  H 2.707815 -0.517055 -3.629053
  H 2.707450 -2.169181 -2.966234
  H 3.323655 -1.419559 -5.858336
  H 1.827926 -2.130852 -5.261693
  H 3.323293 -3.057864 -5.201083
  H 5.434814 -0.243565 -0.555362
 16
 0.000000
  H 4.064553 -0.309996 -0.721074
  C 4.975363 -0.475763 -1.134496
  C 5.246408 -0.893986 -2.177069
  C 4.688207 -1.409031 -3.460948
  C 3.184780 -1.503132 -3.696234
  C 2.895153 -2.060999 -5.086947
  O 5.872506 -0.848849 -2.064720
  H 5.815854 -0.220432 -0.498639
  H 5.122192 -2.405305 -3.604952
  H 5.122517 -0.788755 -4.253613
  H 2.727625 -0.515182 -3.624378
  H 2.727263 -2.167305 -2.961554
  H 3.313152 -1.420502 -5.860683
  H 1.821175 -2.124797 -5.246590
  H 3.312793 -3.058805 -5.203424
  H 5.323866 -0.232994 -0.528999
 16
 0.000000
  H 4.033016 -0.288497 -0.667478
  C 4.995453 -0.446740 -1.062144
  C 5.284546 -0.907450 -2.210636
  C 4.705430 -1.419286 -3.486511
  C 3.198332 -1.504888 -3.700609
  C 2.886014 -2.061057 -5.087088
  O 5.879734 -0.869824 -2.117001
  H 5.825027 -0.186502 -0.414055
  H 5.131715 -2.417989 -3.636570
  H 5.132036 -0.801441 -4.285236
  H 2.747818 -0.514375 -3.622366
  H 2.747458 -2.166497 -2.959536
  H 3.296691 -1.422900 -5.866656
  H 1.809552 -2.118785 -5.231596
  H 3.296334 -3.061201 -5.209392
  H 5.244048 -0.217430 -0.490200
 16
 0.000000
  H 3.987728 -0.262910 -0.603694
  C 5.000402 -0.411535 -0.974379
  C 5.318217 -0.921874 -2.246591
  C 4.718351 -1.430387 -3.514183
  C 3.207932 -1.507484 -3.707077
  C 2.873029 -2.061829 -5.089008
  O 5.906707 -0.891091 -2.170014
  H 5.816306 -0.145370 -0.311511
  H 5.136848 -2.431472 -3.670178
  H 5.137166 -0.814926 -4.318849
  H 2.764152 -0.514450 -3.622549
  H 2.763794 -2.166569 -2.959713
  H 3.276302 -1.425967 -5.874297
  H 1.794333 -2.113482 -5.218372
  H 3.275946 -3.064266 -5.217028
  H 5.199086 -0.194989 -0.434268
 16
 0.000000
  H 3.942350 -0.235963 -0.536523
  C 4.994321 -0.374017 -0.880848
  C 5.344901 -0.934906 -2.279074
  C 4.726069 -1.440260 -3.538790
  C 3.212902 -1.509516 -3.712140
  C 2.857292 -2.062072 -5.089610
  O 5.941089 -0.910184 -2.217607
  H 5.796715 -0.102215 -0.203922
  H 5.137318 -2.443496 -3.700149
  H 5.137634 -0.826952 -4.348825
  H 2.775408 -0.514197 -3.621916
  H 2.775050 -2.166314 -2.959075
  H 3.253672 -1.428284 -5.880068
  H 1.776759 -2.108126 -5.205017
  H 3.253317 -3.066580 -5.222794
  H 5.163710 -0.168274 -0.367689
 16
 0.000000
  H 3.897699 -0.207797 -0.466318
  C 4.978926 -0.334651 -0.782707
  C 5.364635 -0.945823 -2.306285
  C 4.728407 -1.448175 -3.558516
  C 3.212965 -1.510183 -3.713802
  C 2.838307 -2.060993 -5.086916
  O 5.977349 -0.926828 -2.259095
  H 5.768147 -0.057551 -0.092571
  H 5.132896 -2.453364 -3.724741
  H 5.133211 -0.836822 -4.373421
  H 2.781346 -0.512784 -3.618393
  H 2.780988 -2.164899 -2.955547
  H 3.228259 -1.429087 -5.882066
  H 1.756265 -2.101871 -5.189424
  H 3.227903 -3.067382 -5.224786
  H 5.125752 -0.138365 -0.293158
