 14
 0.000000
  H 1.434986 -0.076276 0.038318
  C 2.508072 -0.084176 0.022809
  C 3.218042 -0.595735 -0.981469
  C 4.655897 -0.606597 -1.002790
  C 5.378780 -1.120887 -2.012423
  C 6.816947 -1.130471 -2.031236
  C 7.529630 -1.640885 -3.033273
  H 8.602461 -1.654153 -3.059314
  H 3.007506 0.350437 0.876030
  H 2.705452 -1.028575 -1.831193
  H 5.158953 -0.171524 -0.148672
  H 4.876415 -1.556084 -2.866790
  H 7.324848 -0.696489 -1.179256
  H 7.031982 -2.076304 -3.888056
 14
 0.240696
  H 1.432848 -0.156720 0.056636
  C 2.512048 -0.148273 0.050275
  C 3.215174 -0.510465 -1.019462
  C 4.653317 -0.510281 -1.068430
  C 5.368382 -0.992662 -2.097688
  C 6.807423 -1.024096 -2.122028
  C 7.519370 -1.713061 -3.009047
  H 8.595796 -1.740780 -2.980949
  H 2.995436 0.179010 0.957966
  H 2.705535 -0.836431 -1.917047
  H 5.164930 -0.108345 -0.204599
  H 4.858990 -1.432864 -2.945356
  H 7.309178 -0.464411 -1.342841
  H 7.045378 -2.275909 -3.795761
 14
 0.036483
  H 1.435904 0.001014 -0.004120
  C 2.510082 -0.038940 0.009499
  C 3.211835 -0.545504 -1.003025
  C 4.648799 -0.602181 -1.027418
  C 5.365492 -1.144597 -2.025978
  C 6.803654 -1.132459 -2.062917
  C 7.531813 -1.601464 -3.074642
  H 8.605528 -1.537594 -3.081790
  H 2.993694 0.351899 0.890125
  H 2.700644 -0.932444 -1.875783
  H 5.161700 -0.166008 -0.178884
  H 4.858788 -1.596328 -2.868857
  H 7.290316 -0.652605 -1.221742
  H 7.072647 -2.078591 -3.927044
 14
 3.212198
  H 1.493244 0.246764 -0.054934
  C 2.551822 0.054862 -0.007961
  C 3.212524 -0.523963 -1.013707
  C 4.635164 -0.753510 -1.008192
  C 5.326474 -1.361457 -1.980957
  C 6.753611 -1.221451 -2.050534
  C 7.556293 -1.506279 -3.092010
  H 8.610186 -1.276655 -3.072319
  H 3.057359 0.364951 0.893805
  H 2.680797 -0.818442 -1.910117
  H 5.162955 -0.413554 -0.125280
  H 4.813334 -1.860361 -2.792544
  H 7.161083 -0.627511 -1.235672
  H 7.181195 -1.968426 -3.993303
 14
 15.471364
  H 1.586218 0.375671 0.005124
  C 2.626763 0.102693 0.021594
  C 3.223681 -0.469692 -1.023657
  C 4.614100 -0.819531 -1.060471
  C 5.251360 -1.529841 -2.021996
  C 6.647947 -1.248799 -2.146754
  C 7.609259 -1.463349 -3.051024
  H 8.616458 -1.148022 -2.855640
  H 3.168899 0.321903 0.926060
  H 2.656951 -0.666601 -1.925842
  H 5.157645 -0.590697 -0.150674
  H 4.714202 -2.141891 -2.732328
  H 6.899927 -0.478529 -1.405802
  H 7.422988 -1.892358 -4.025770
 14
 34.380744
  H 1.637757 0.438275 0.040759
  C 2.670690 0.136457 0.043851
  C 3.254076 -0.409473 -1.031985
  C 4.622528 -0.810587 -1.090274
  C 5.207240 -1.607041 -2.056310
  C 6.566493 -1.255208 -2.252294
  C 7.645529 -1.445326 -3.030734
  H 8.613648 -1.130481 -2.683744
  H 3.226386 0.300945 0.952837
  H 2.679576 -0.546287 -1.941522
  H 5.141840 -0.709467 -0.144472
  H 4.658683 -2.337094 -2.633463
  H 6.680588 -0.398715 -1.556878
  H 7.598675 -1.765777 -4.061632
 14
 59.197051
  H 1.660997 0.479117 -0.025546
  C 2.696008 0.169942 0.013468
  C 3.327074 -0.359006 -1.054238
  C 4.690157 -0.792664 -1.051357
  C 5.240500 -1.693470 -1.993008
  C 6.539396 -1.274866 -2.278761
  C 7.628509 -1.424378 -3.059731
  H 8.596140 -1.153586 -2.697234
  H 3.215636 0.307200 0.947880
  H 2.792887 -0.472866 -1.991651
  H 5.137094 -0.784905 -0.056540
  H 4.705479 -2.514018 -2.441779
  H 6.442336 -0.320797 -1.577008
  H 7.567497 -1.608211 -4.130433
 14
 75.678533
  H 1.754698 0.542277 -0.117387
  C 2.758136 0.161411 -0.042895
  C 3.416066 -0.308468 -1.097784
  C 4.766527 -0.842206 -1.028737
  C 5.257271 -1.775057 -2.027079
  C 6.504361 -1.351296 -2.275435
  C 7.565287 -1.435544 -3.070678
  H 8.564566 -1.260576 -2.705711
  H 3.214473 0.200948 0.932866
  H 2.945383 -0.313378 -2.072156
  H 5.125375 -0.982359 -0.011069
  H 4.703026 -2.569461 -2.499848
  H 6.138491 -0.313373 -1.323083
  H 7.454320 -1.444046 -4.143806
 14
 51.022332
  H 1.782120 0.549280 -0.158408
  C 2.780039 0.158871 -0.061254
  C 3.458612 -0.289085 -1.095168
  C 4.832092 -0.824289 -0.990868
  C 5.292661 -1.791252 -2.025837
  C 6.520035 -1.403764 -2.348207
  C 7.582628 -1.481397 -3.116643
  H 8.580486 -1.314554 -2.746215
  H 3.196442 0.151808 0.932903
  H 3.022976 -0.250225 -2.084809
  H 5.161861 -1.020219 0.043478
  H 4.727659 -2.607012 -2.439519
  H 5.734955 -0.118007 -1.172017
  H 7.476540 -1.446407 -4.193469
 14
 28.206012
  H 1.738997 0.511622 -0.245200
  C 2.738920 0.142152 -0.095701
  C 3.482709 -0.288261 -1.093512
  C 4.886972 -0.761884 -0.919593
  C 5.383353 -1.749796 -1.927213
  C 6.544510 -1.485983 -2.427295
  C 7.580860 -1.503627 -3.222989
  H 8.595336 -1.514893 -2.867379
  H 3.102547 0.149239 0.919066
  H 3.097471 -0.268634 -2.104708
  H 5.104748 -1.071537 0.105480
  H 4.778152 -2.580281 -2.245892
  H 5.643725 0.043368 -1.008982
  H 7.457528 -1.305254 -4.280679
 14
 18.228015
  H 1.742779 0.508796 -0.172822
  C 2.745667 0.133710 -0.062022
  C 3.476069 -0.233545 -1.099528
  C 4.907343 -0.683874 -0.981216
  C 5.347107 -1.686167 -2.005793
  C 6.494623 -1.545601 -2.590450
  C 7.614772 -1.592647 -3.239960
  H 8.538134 -1.912788 -2.780438
  H 3.119406 0.066957 0.947332
  H 3.077179 -0.147318 -2.102040
  H 5.112741 -1.072285 0.021305
  H 4.690728 -2.513303 -2.240777
  H 5.593781 0.177852 -1.093223
  H 7.701710 -1.169053 -4.230175
 14
 16.595405
  H 1.720866 0.335309 -0.021286
  C 2.764225 0.070768 0.008089
  C 3.438755 -0.246414 -1.081825
  C 4.902034 -0.560934 -1.080955
  C 5.316151 -1.596321 -2.090944
  C 6.483260 -1.555138 -2.659364
  C 7.662283 -1.660211 -3.183384
  H 8.472580 -2.139561 -2.656560
  H 3.227468 0.069886 0.981659
  H 2.949517 -0.235820 -2.047146
  H 5.199687 -0.901019 -0.083024
  H 4.628641 -2.405724 -2.292820
  H 5.476741 0.342837 -1.293399
  H 7.912160 -1.207066 -4.130319
 14
 17.157689
  H 1.704976 0.193340 0.081147
  C 2.754337 -0.047449 0.074222
  C 3.425440 -0.228510 -1.047772
  C 4.889337 -0.522302 -1.103641
  C 5.289808 -1.434905 -2.235064
  C 6.514901 -1.473414 -2.660296
  C 7.716101 -1.699022 -3.088833
  H 8.399292 -2.324070 -2.535138
  H 3.227418 -0.140608 1.038621
  H 2.926690 -0.126738 -2.003407
  H 5.196043 -0.981343 -0.157112
  H 4.554180 -2.137702 -2.599252
  H 5.461619 0.406248 -1.204412
  H 8.116989 -1.216080 -3.966718
 14
 17.092040
  H 1.714074 0.096377 0.138604
  C 2.764307 -0.140163 0.119287
  C 3.449652 -0.199021 -1.007315
  C 4.915358 -0.489711 -1.076765
  C 5.296081 -1.325612 -2.272975
  C 6.522705 -1.468252 -2.670919
  C 7.708704 -1.822626 -3.051693
  H 8.247069 -2.604566 -2.538822
  H 3.225899 -0.334117 1.074170
  H 2.961265 -0.000130 -1.952890
  H 5.216268 -1.021574 -0.167719
  H 4.505531 -1.894096 -2.744120
  H 5.484050 0.440167 -1.100806
  H 8.238235 -1.321387 -3.846965
 14
 21.223945
  H 1.544890 -0.221641 -0.191814
  C 2.587777 -0.473551 -0.058397
  C 3.511965 -0.116082 -0.935799
  C 4.968572 -0.493636 -0.851801
  C 5.474614 -0.947734 -2.186538
  C 6.627314 -1.459602 -2.492497
  C 7.678459 -1.941370 -3.074115
  H 8.514606 -1.299252 -3.352863
  H 2.840388 -1.007823 0.863855
  H 3.239534 0.393097 -1.844751
  H 5.107302 -1.268608 -0.091334
  H 4.807203 -0.721475 -3.031239
  H 5.532759 0.459276 -0.623983
  H 7.814889 -2.987722 -3.228754
