 21
 0.000000
  C 0.875595 0.043864 0.356253
  C 2.353488 0.057653 0.075311
  C 3.260626 -0.009081 1.282967
  H 2.697257 -0.061311 2.208871
  C 2.916448 0.126472 -1.126266
  C 2.367268 0.205653 -2.516199
  C 0.859083 0.217497 -2.735903
  C 0.538246 0.302822 -4.225309
  H 4.001447 0.127723 -1.147573
  H 0.688864 -0.022346 1.425310
  H 0.392336 -0.810478 -0.113668
  H 0.400309 0.952413 -0.004675
  H 3.906706 0.867829 1.324170
  H 3.908259 -0.884028 1.226316
  H 2.785704 -0.639232 -3.075477
  H 2.784949 1.109248 -2.975270
  H 0.412095 1.075671 -2.232520
  H 0.413035 -0.693231 -2.334110
  H 0.953437 1.211602 -4.656771
  H -0.538059 0.311288 -4.383013
  H 0.954389 -0.550145 -4.757900
 21
 6.347765
  C 0.890019 0.001492 0.370044
  C 2.323492 0.062356 0.085377
  C 3.246205 -0.011096 1.277066
  H 2.685886 -0.043136 2.208226
  C 2.895126 0.139236 -1.105653
  C 2.354242 0.219337 -2.507894
  C 0.847750 0.209111 -2.736322
  C 0.532437 0.296259 -4.225650
  H 3.980257 0.157939 -1.109695
  H 0.658655 -0.025266 1.420247
  H 0.366798 -0.796047 -0.117206
  H 0.673563 0.963599 -0.072000
  H 3.908884 0.850486 1.306938
  H 3.870502 -0.900038 1.224925
  H 2.788733 -0.615617 -3.066949
  H 2.762681 1.129828 -2.958751
  H 0.384182 1.055631 -2.230606
  H 0.417984 -0.709034 -2.338481
  H 0.935825 1.213679 -4.649997
  H -0.542637 0.287531 -4.389563
  H 0.966946 -0.546754 -4.759445
 21
 18.217599
  C 0.868653 0.001451 0.385305
  C 2.308092 0.058488 0.106803
  C 3.248681 -0.028565 1.288162
  H 2.691544 -0.027624 2.235210
  C 2.892732 0.154324 -1.112132
  C 2.348529 0.240055 -2.507901
  C 0.842679 0.184921 -2.740525
  C 0.528807 0.283911 -4.230535
  H 3.981634 0.204069 -1.117037
  H 0.602352 0.022117 1.430073
  H 0.300126 -0.742190 -0.147963
  H 0.903394 0.957044 -0.083957
  H 3.946694 0.811344 1.298681
  H 3.837713 -0.948125 1.240942
  H 2.805798 -0.571281 -3.077259
  H 2.728106 1.166401 -2.943844
  H 0.346868 1.005191 -2.223967
  H 0.442306 -0.754141 -2.358889
  H 0.902670 1.221591 -4.639738
  H -0.544634 0.241226 -4.398372
  H 0.994286 -0.536355 -4.776285
 21
 32.320084
  C 0.865400 -0.002554 0.401928
  C 2.293290 0.063712 0.105829
  C 3.242546 -0.030509 1.297975
  H 2.701191 0.000249 2.228391
  C 2.886443 0.165046 -1.107818
  C 2.348279 0.251301 -2.511091
  C 0.835289 0.166462 -2.753565
  C 0.523372 0.274612 -4.243121
  H 3.966127 0.223431 -1.098004
  H 0.603779 0.002434 1.453274
  H 0.253562 -0.673440 -0.179321
  H 1.090046 0.960404 -0.034659
  H 3.963109 0.777180 1.297009
  H 3.794185 -0.962089 1.263584
  H 2.825568 -0.546655 -3.088111
  H 2.711911 1.190621 -2.939267
  H 0.319086 0.968888 -2.230234
  H 0.457001 -0.781991 -2.387070
  H 0.877593 1.225064 -4.640856
  H -0.549528 0.209678 -4.415506
  H 1.009307 -0.529374 -4.796135
 21
 44.264107
  C 0.850232 -0.009074 0.405135
  C 2.288426 0.072553 0.093560
  C 3.223302 -0.021174 1.292590
  H 2.670701 0.035278 2.230390
  C 2.899904 0.171715 -1.121764
  C 2.359773 0.257018 -2.527190
  C 0.849932 0.150480 -2.752221
  C 0.517680 0.267272 -4.233350
  H 3.982311 0.231028 -1.102626
  H 0.595994 -0.056850 1.449103
  H 0.200032 -0.577308 -0.229950
  H 1.236223 0.954330 0.040303
  H 3.969345 0.773992 1.284924
  H 3.753714 -0.977075 1.271163
  H 2.842060 -0.527345 -3.111778
  H 2.703086 1.199409 -2.952687
  H 0.327560 0.941113 -2.212498
  H 0.491915 -0.812540 -2.388964
  H 0.850235 1.223462 -4.624890
  H -0.551041 0.186634 -4.392270
  H 1.007892 -0.519988 -4.797707
 21
 52.901682
  C 0.843128 -0.018153 0.404869
  C 2.286104 0.079833 0.086511
  C 3.208664 -0.009687 1.289798
  H 2.653774 0.080515 2.224894
  C 2.907164 0.172815 -1.131865
  C 2.366941 0.257685 -2.535603
  C 0.862038 0.133309 -2.748157
  C 0.514069 0.261492 -4.226577
  H 3.987963 0.234523 -1.108682
  H 0.591569 -0.147059 1.442014
  H 0.158728 -0.457660 -0.290902
  H 1.361203 0.952479 0.130893
  H 3.977708 0.767218 1.268025
  H 3.711631 -0.978895 1.289185
  H 2.858104 -0.521788 -3.129772
  H 2.696258 1.212731 -2.962495
  H 0.336695 0.911425 -2.194612
  H 0.521877 -0.838487 -2.391019
  H 0.831332 1.229263 -4.612084
  H -0.559781 0.167875 -4.377147
  H 1.010664 -0.515451 -4.805101
 21
 59.468853
  C 0.839956 -0.034540 0.425268
  C 2.280980 0.090824 0.085535
  C 3.205661 -0.003757 1.288502
  H 2.657902 0.111508 2.221502
  C 2.903999 0.177887 -1.135874
  C 2.369040 0.262187 -2.538836
  C 0.864098 0.126301 -2.756627
  C 0.517491 0.255118 -4.237558
  H 3.983057 0.244093 -1.109534
  H 0.600450 -0.218704 1.452467
  H 0.124542 -0.366697 -0.298088
  H 1.451670 0.944480 0.209192
  H 3.986911 0.752494 1.252705
  H 3.684508 -0.976575 1.299653
  H 2.868645 -0.513872 -3.131545
  H 2.691206 1.221736 -2.966042
  H 0.333053 0.901518 -2.203310
  H 0.531076 -0.848724 -2.401473
  H 0.828291 1.224425 -4.620163
  H -0.554969 0.154249 -4.390982
  H 1.019527 -0.515343 -4.815304
 21
 64.973509
  C 0.837874 -0.058763 0.434029
  C 2.276703 0.104667 0.091574
  C 3.204511 -0.001073 1.289771
  H 2.661982 0.136195 2.225576
  C 2.907954 0.184103 -1.138832
  C 2.375052 0.268989 -2.540495
  C 0.867163 0.125729 -2.760218
  C 0.518172 0.249152 -4.245012
  H 3.985498 0.256266 -1.108272
  H 0.596315 -0.267177 1.459268
  H 0.108514 -0.312619 -0.303670
  H 1.515814 0.944839 0.248495
  H 4.002981 0.739047 1.241228
  H 3.660676 -0.982579 1.308658
  H 2.879486 -0.504190 -3.133035
  H 2.692879 1.228832 -2.967754
  H 0.334187 0.899138 -2.210574
  H 0.538251 -0.847065 -2.402213
  H 0.825044 1.217564 -4.630596
  H -0.555554 0.143530 -4.398649
  H 1.021992 -0.519219 -4.819603
 21
 69.525845
  C 0.838872 -0.089221 0.434985
  C 2.272742 0.119507 0.098865
  C 3.204716 0.000953 1.291563
  H 2.670375 0.157457 2.227404
  C 2.909417 0.188430 -1.139825
  C 2.374459 0.275226 -2.543470
  C 0.873689 0.127215 -2.759849
  C 0.524118 0.244809 -4.243037
  H 3.987174 0.268206 -1.106838
  H 0.589036 -0.288072 1.456825
  H 0.097294 -0.286084 -0.313180
  H 1.563931 0.953283 0.261293
  H 4.018085 0.724322 1.231983
  H 3.641649 -0.995155 1.315897
  H 2.879720 -0.495075 -3.136828
  H 2.687515 1.238588 -2.972614
  H 0.338727 0.902321 -2.211406
  H 0.547473 -0.846314 -2.396781
  H 0.828620 1.213884 -4.632295
  H -0.549584 0.135913 -4.395334
  H 1.030749 -0.526070 -4.816612
 21
 73.057102
  C 0.840139 -0.129688 0.441912
  C 2.267047 0.131998 0.105667
  C 3.208141 0.004068 1.293434
  H 2.685447 0.178690 2.228675
  C 2.907744 0.189436 -1.142128
  C 2.375933 0.279858 -2.541678
  C 0.875227 0.129452 -2.762921
  C 0.531066 0.244358 -4.247435
  H 3.986666 0.274842 -1.106010
  H 0.583553 -0.296519 1.467424
  H 0.090736 -0.280604 -0.302208
  H 1.600145 0.968500 0.262203
  H 4.034213 0.711975 1.220308
  H 3.625671 -0.999313 1.323408
  H 2.884188 -0.489851 -3.135935
  H 2.689141 1.248061 -2.970309
  H 0.337526 0.907204 -2.217371
  H 0.548502 -0.845589 -2.398376
  H 0.836364 1.212897 -4.637304
  H -0.540888 0.134742 -4.403162
  H 1.040151 -0.527557 -4.817970
 21
 76.096454
  C 0.852247 -0.159937 0.428946
  C 2.272068 0.141613 0.103590
  C 3.208019 0.011772 1.296623
  H 2.673708 0.203720 2.248549
  C 2.916042 0.189978 -1.141857
  C 2.383803 0.282846 -2.541889
  C 0.876810 0.133248 -2.759112
  C 0.529279 0.247837 -4.237135
  H 3.985655 0.275456 -1.105940
  H 0.586646 -0.299176 1.457769
  H 0.104330 -0.293055 -0.325169
  H 1.645266 0.981604 0.241172
  H 4.027459 0.699710 1.221114
  H 3.614776 -0.993919 1.334640
  H 2.895536 -0.492540 -3.143995
  H 2.696490 1.248621 -2.970600
  H 0.342218 0.909727 -2.213223
  H 0.552095 -0.836588 -2.395672
  H 0.834805 1.218309 -4.628606
  H -0.543956 0.139207 -4.389248
  H 1.038687 -0.528812 -4.812004
 21
 76.751916
  C 0.856650 -0.219198 0.448043
  C 2.258068 0.153513 0.120381
  C 3.210024 0.016402 1.302176
  H 2.701640 0.222613 2.238906
  C 2.914561 0.184042 -1.145606
  C 2.384085 0.282561 -2.542894
  C 0.879745 0.133517 -2.766974
  C 0.537776 0.253247 -4.248714
  H 3.989609 0.275730 -1.102855
  H 0.580181 -0.293091 1.479952
  H 0.096602 -0.312257 -0.291527
  H 1.672318 1.031171 0.232523
  H 4.049803 0.696388 1.207926
  H 3.596781 -0.997014 1.345088
  H 2.892699 -0.480821 -3.139595
  H 2.699049 1.253957 -2.970797
  H 0.342665 0.910044 -2.220071
  H 0.552317 -0.841156 -2.406394
  H 0.844846 1.223887 -4.635791
  H -0.532522 0.145670 -4.404927
  H 1.048209 -0.520798 -4.823041
 21
 77.906509
  C 0.863676 -0.252955 0.447820
  C 2.254938 0.164968 0.122066
  C 3.211483 0.026816 1.302450
  H 2.710431 0.244451 2.234217
  C 2.911168 0.185996 -1.143708
  C 2.383669 0.285726 -2.536247
  C 0.885554 0.136655 -2.764054
  C 0.546030 0.260037 -4.251017
  H 3.991746 0.282791 -1.100924
  H 0.585224 -0.290012 1.478589
  H 0.105268 -0.324129 -0.290984
  H 1.707072 1.053638 0.213782
  H 4.052932 0.697155 1.200458
  H 3.591305 -0.996582 1.351837
  H 2.904619 -0.488408 -3.144621
  H 2.694312 1.248431 -2.956911
  H 0.343702 0.915410 -2.212503
  H 0.560280 -0.836101 -2.407491
  H 0.852745 1.228853 -4.634791
  H -0.536424 0.150138 -4.413323
  H 1.053252 -0.502621 -4.819587
 21
 77.676273
  C 0.884818 -0.303003 0.444425
  C 2.250915 0.174789 0.127560
  C 3.207440 0.039637 1.305951
  H 2.706001 0.276735 2.243592
  C 2.921643 0.177382 -1.147193
  C 2.392826 0.285366 -2.541598
  C 0.887777 0.139522 -2.765454
  C 0.545367 0.271049 -4.242886
  H 3.995821 0.275931 -1.099608
  H 0.587452 -0.287500 1.475038
  H 0.121748 -0.355280 -0.301283
  H 1.751109 1.094905 0.185419
  H 4.058258 0.699924 1.193700
  H 3.571642 -0.980553 1.365299
  H 2.904597 -0.477727 -3.145337
  H 2.708838 1.256065 -2.964511
  H 0.352281 0.912990 -2.210853
  H 0.559309 -0.837512 -2.411567
  H 0.854669 1.246971 -4.624406
  H -0.530669 0.165378 -4.399596
  H 1.052364 -0.496652 -4.821130
