 20
 0.000000
  C 1.007597 -0.071868 0.047331
  C 2.503734 -0.082312 0.026326
  C 3.219333 -0.595224 -0.980427
  C 4.657310 -0.605721 -1.001515
  C 5.377263 -1.121239 -2.013381
  C 6.815945 -1.130671 -2.032397
  C 7.533793 -1.642660 -3.037354
  C 9.024533 -1.661451 -3.073738
  H 0.645402 0.394590 0.962797
  H 0.612239 -1.086956 0.009165
  H 0.611964 0.493691 -0.796340
  H 3.003843 0.353498 0.881362
  H 2.707936 -1.028921 -1.831302
  H 5.162130 -0.170598 -0.147837
  H 4.872940 -1.556445 -2.867228
  H 7.322970 -0.695971 -1.179545
  H 7.033488 -2.079464 -3.893690
  H 9.457859 -1.209244 -2.183140
  H 9.385679 -1.114599 -3.946493
  H 9.383441 -2.689415 -3.146043
 20
 2.569180
  C 0.991613 -0.061410 0.032369
  C 2.486451 -0.084307 0.029852
  C 3.221353 -0.587382 -0.966695
  C 4.655774 -0.611118 -0.973606
  C 5.392471 -1.116599 -1.974684
  C 6.826715 -1.142427 -1.979817
  C 7.560417 -1.644028 -2.973383
  C 9.027861 -1.668004 -3.093395
  H 0.608810 0.393781 0.942239
  H 0.591911 -1.072536 -0.040139
  H 0.614703 0.504197 -0.819356
  H 2.982089 0.335881 0.894557
  H 2.726983 -1.008872 -1.833925
  H 5.150660 -0.190396 -0.107242
  H 4.898783 -1.538216 -2.842510
  H 7.324778 -0.720880 -1.113940
  H 7.140373 -2.059383 -3.874370
  H 9.545791 -1.159158 -2.286238
  H 9.188598 -1.180399 -4.052591
  H 9.402449 -2.690389 -3.171607
 20
 8.711965
  C 0.983937 -0.053565 0.014755
  C 2.475797 -0.091067 0.030787
  C 3.216460 -0.583405 -0.963406
  C 4.656609 -0.622424 -0.951472
  C 5.398352 -1.116024 -1.948872
  C 6.831772 -1.153106 -1.936950
  C 7.573078 -1.645742 -2.927127
  C 9.034640 -1.661848 -3.107732
  H 0.593000 0.389806 0.928154
  H 0.575061 -1.062837 -0.083899
  H 0.623197 0.530131 -0.836555
  H 2.967436 0.310471 0.912505
  H 2.728688 -0.985557 -1.845998
  H 5.146963 -0.220905 -0.070201
  H 4.913720 -1.517982 -2.830676
  H 7.326841 -0.754710 -1.058580
  H 7.226636 -2.019972 -3.884454
  H 9.627371 -1.066037 -2.403205
  H 9.024332 -1.292968 -4.130565
  H 9.410529 -2.683964 -3.136094
 20
 17.514353
  C 0.972839 -0.048326 0.004959
  C 2.464627 -0.097532 0.036637
  C 3.215981 -0.578044 -0.962659
  C 4.648367 -0.625120 -0.937153
  C 5.401718 -1.108458 -1.941101
  C 6.842547 -1.158420 -1.914014
  C 7.587204 -1.649998 -2.898007
  C 9.049923 -1.662264 -3.124449
  H 0.574996 0.380637 0.921720
  H 0.557579 -1.051978 -0.117032
  H 0.625978 0.553725 -0.838684
  H 2.948559 0.284225 0.931451
  H 2.736391 -0.959886 -1.856749
  H 5.129994 -0.244467 -0.043629
  H 4.923336 -1.491249 -2.837592
  H 7.332575 -0.793564 -1.017137
  H 7.299870 -1.966544 -3.898467
  H 9.668515 -0.987401 -2.531369
  H 8.901885 -1.420373 -4.179908
  H 9.445854 -2.674865 -3.070189
 20
 29.286065
  C 0.971817 -0.039982 -0.005055
  C 2.463224 -0.102760 0.035685
  C 3.215299 -0.575856 -0.962510
  C 4.646231 -0.639772 -0.926623
  C 5.403396 -1.116852 -1.934100
  C 6.837368 -1.172748 -1.900625
  C 7.586457 -1.651320 -2.889033
  C 9.053467 -1.656063 -3.134361
  H 0.572578 0.378869 0.912372
  H 0.551048 -1.032776 -0.142476
  H 0.637518 0.573207 -0.838046
  H 2.941170 0.260127 0.934180
  H 2.738803 -0.939907 -1.863241
  H 5.123772 -0.275548 -0.026225
  H 4.930613 -1.481176 -2.836346
  H 7.325035 -0.820335 -1.001976
  H 7.369087 -1.913424 -3.930032
  H 9.668663 -0.919681 -2.627858
  H 8.803920 -1.519908 -4.190473
  H 9.481079 -2.651905 -3.002574
 20
 43.696163
  C 0.968545 -0.039101 -0.012795
  C 2.460409 -0.109609 0.035252
  C 3.215297 -0.571364 -0.964993
  C 4.645287 -0.638739 -0.923407
  C 5.405954 -1.105258 -1.933506
  C 6.834846 -1.170544 -1.891151
  C 7.586455 -1.650608 -2.877635
  C 9.062648 -1.655784 -3.146636
  H 0.564356 0.370582 0.911898
  H 0.543033 -1.029274 -0.166799
  H 0.641373 0.587851 -0.840253
  H 2.936945 0.239985 0.943920
  H 2.741214 -0.921710 -1.874892
  H 5.121392 -0.288258 -0.011799
  H 4.935589 -1.457004 -2.845828
  H 7.315338 -0.842170 -0.981438
  H 7.432875 -1.888407 -3.944112
  H 9.675023 -0.879955 -2.712665
  H 8.714799 -1.605180 -4.197873
  H 9.511472 -2.635989 -2.958235
 20
 59.543444
  C 0.964099 -0.034073 -0.014585
  C 2.457555 -0.112111 0.035046
  C 3.211546 -0.569180 -0.968112
  C 4.642447 -0.644418 -0.925081
  C 5.402165 -1.106003 -1.937373
  C 6.834293 -1.177988 -1.893505
  C 7.584200 -1.654964 -2.881996
  C 9.071099 -1.656994 -3.154353
  H 0.562201 0.368010 0.908949
  H 0.534477 -1.019295 -0.176915
  H 0.641006 0.600676 -0.835964
  H 2.935122 0.228147 0.949080
  H 2.736967 -0.909177 -1.880480
  H 5.117795 -0.304947 -0.012445
  H 4.931461 -1.447143 -2.852460
  H 7.313373 -0.859343 -0.979739
  H 7.500166 -1.866656 -3.967902
  H 9.676420 -0.845095 -2.758816
  H 8.654511 -1.668198 -4.195194
  H 9.533178 -2.606838 -2.920262
 20
 75.463276
  C 0.962663 -0.034015 -0.020532
  C 2.452104 -0.110520 0.030458
  C 3.208095 -0.568964 -0.971436
  C 4.639236 -0.649214 -0.924702
  C 5.400142 -1.110719 -1.935708
  C 6.834194 -1.176847 -1.892649
  C 7.583472 -1.646476 -2.884365
  C 9.079808 -1.658357 -3.162388
  H 0.555649 0.372331 0.911392
  H 0.536348 -1.017899 -0.182706
  H 0.639156 0.599948 -0.844196
  H 2.927411 0.229506 0.943428
  H 2.736116 -0.907958 -1.882364
  H 5.114656 -0.308078 -0.010110
  H 4.932705 -1.448194 -2.845890
  H 7.314398 -0.848229 -0.974411
  H 7.555469 -1.853152 -3.986977
  H 9.690308 -0.848509 -2.777233
  H 8.596864 -1.679032 -4.192722
  H 9.538443 -2.612488 -2.928743
 20
 89.860447
  C 0.957923 -0.029341 -0.018112
  C 2.455743 -0.113190 0.032192
  C 3.208082 -0.565730 -0.973549
  C 4.638662 -0.644990 -0.931319
  C 5.396589 -1.102539 -1.946420
  C 6.830258 -1.185141 -1.900993
  C 7.576404 -1.658651 -2.894566
  C 9.085718 -1.650222 -3.162627
  H 0.558561 0.366027 0.903443
  H 0.526707 -1.010489 -0.187390
  H 0.637505 0.609130 -0.832486
  H 2.936235 0.220920 0.953341
  H 2.732630 -0.897674 -1.887933
  H 5.113797 -0.315193 -0.018624
  H 4.922684 -1.436425 -2.864082
  H 7.305984 -0.870508 -0.988253
  H 7.610164 -1.865766 -4.012972
  H 9.679115 -0.816234 -2.791563
  H 8.567666 -1.720505 -4.186847
  H 9.551230 -2.580895 -2.894499
 20
 103.235026
  C 0.961018 -0.029244 -0.018861
  C 2.450547 -0.111623 0.030689
  C 3.202761 -0.567660 -0.974231
  C 4.637270 -0.644597 -0.934173
  C 5.393662 -1.104867 -1.946939
  C 6.827828 -1.184622 -1.904111
  C 7.574408 -1.653587 -2.897839
  C 9.093163 -1.649642 -3.154913
  H 0.562045 0.371227 0.904214
  H 0.528508 -1.016917 -0.185223
  H 0.637875 0.612974 -0.842953
  H 2.928708 0.224031 0.946806
  H 2.726496 -0.904575 -1.885960
  H 5.113967 -0.309285 -0.023466
  H 4.920105 -1.441100 -2.859032
  H 7.307867 -0.856455 -0.989254
  H 7.642205 -1.857775 -4.060791
  H 9.680464 -0.822507 -2.773381
  H 8.541138 -1.720638 -4.215315
  H 9.558396 -2.591547 -2.888330
 20
 114.654748
  C 0.961716 -0.027025 -0.016712
  C 2.451364 -0.110880 0.030837
  C 3.201928 -0.563864 -0.977729
  C 4.635655 -0.643696 -0.939683
  C 5.390337 -1.100494 -1.955534
  C 6.823915 -1.185846 -1.912729
  C 7.571152 -1.656321 -2.905785
  C 9.101016 -1.641731 -3.149528
  H 0.566334 0.369411 0.907939
  H 0.523971 -1.020294 -0.186359
  H 0.638317 0.622902 -0.840964
  H 2.927025 0.217906 0.940835
  H 2.722550 -0.896208 -1.892326
  H 5.113895 -0.314337 -0.028500
  H 4.912775 -1.434696 -2.871461
  H 7.306324 -0.862437 -0.991774
  H 7.672195 -1.873694 -4.095022
  H 9.669488 -0.805701 -2.767957
  H 8.521892 -1.741413 -4.232500
  H 9.575871 -2.581104 -2.865695
 20
 126.353287
  C 0.959656 -0.026116 -0.017313
  C 2.453368 -0.109751 0.026982
  C 3.203215 -0.566986 -0.980415
  C 4.635073 -0.642335 -0.945290
  C 5.388190 -1.104216 -1.960990
  C 6.818759 -1.186515 -1.920952
  C 7.569879 -1.653793 -2.912731
  C 9.107408 -1.644218 -3.137596
  H 0.562325 0.377143 0.911049
  H 0.523150 -1.016617 -0.180611
  H 0.635013 0.614435 -0.838877
  H 2.929617 0.222996 0.930128
  H 2.722489 -0.905681 -1.893422
  H 5.115906 -0.305855 -0.033815
  H 4.908056 -1.444357 -2.876889
  H 7.305032 -0.849473 -1.003406
  H 7.702050 -1.869457 -4.143952
  H 9.671355 -0.810982 -2.724665
  H 8.505597 -1.740659 -4.261883
  H 9.572215 -2.583257 -2.865430
 20
 139.007697
  C 0.955494 -0.027100 -0.019631
  C 2.446950 -0.103016 0.024561
  C 3.197630 -0.568793 -0.977882
  C 4.631621 -0.641799 -0.941894
  C 5.385493 -1.111468 -1.952581
  C 6.817200 -1.179968 -1.917081
  C 7.571105 -1.642111 -2.907531
  C 9.129022 -1.651664 -3.112016
  H 0.558251 0.383414 0.901828
  H 0.524080 -1.022008 -0.171318
  H 0.626230 0.603427 -0.849583
  H 2.925012 0.243705 0.928758
  H 2.718091 -0.918719 -1.885738
  H 5.111593 -0.292583 -0.036171
  H 4.907450 -1.460653 -2.861654
  H 7.303820 -0.820554 -1.008115
  H 7.715823 -1.856589 -4.252604
  H 9.690979 -0.838374 -2.661156
  H 8.497294 -1.727789 -4.355394
  H 9.576755 -2.606371 -2.859561
 20
 150.264620
  C 0.951209 -0.028135 -0.023448
  C 2.443773 -0.097656 0.019540
  C 3.195459 -0.571164 -0.978674
  C 4.629841 -0.638954 -0.943154
  C 5.383849 -1.116182 -1.949370
  C 6.815078 -1.175417 -1.917061
  C 7.572344 -1.633340 -2.904790
  C 9.146296 -1.660686 -3.085136
  H 0.552420 0.391165 0.895653
  H 0.524206 -1.025805 -0.164167
  H 0.618271 0.591375 -0.859063
  H 2.920669 0.259757 0.917531
  H 2.716151 -0.932805 -1.882933
  H 5.110029 -0.277194 -0.040912
  H 4.905696 -1.476481 -2.855035
  H 7.302082 -0.793956 -1.015199
  H 7.731292 -1.843739 -4.367379
  H 9.703125 -0.866701 -2.588482
  H 8.493509 -1.713130 -4.453335
  H 9.577252 -2.626906 -2.857006
