 23
 0.000000
  H 1.508422 0.141359 0.389799
  C 2.589515 0.142084 0.389543
  C 3.310781 0.615331 1.575530
  C 2.434185 1.077601 2.733395
  C 3.281012 1.548121 3.911627
  C 3.199342 -0.322114 -0.757910
  C 4.580178 -0.403326 -0.959858
  C 5.198603 -0.872341 -2.121758
  C 4.510021 -1.361254 -3.330941
  H 3.430160 -1.344724 -3.289011
  O 6.502936 -0.909533 -2.216962
  H 3.972565 1.438806 1.279216
  H 3.977474 -0.186328 1.918369
  H 1.790474 0.259657 3.062198
  H 1.790694 1.896956 2.407891
  H 3.914680 0.745197 4.281327
  H 2.643033 1.874559 4.728969
  H 3.914833 2.384785 3.626589
  H 2.547990 -0.645802 -1.554233
  H 5.224357 -0.076978 -0.154001
  H 4.851050 -2.378176 -3.531925
  H 4.850456 -0.769304 -4.182159
  H 6.982369 -0.589963 -1.427946
 23
 0.642867
  H 1.556946 0.448258 0.317689
  C 2.634324 0.356984 0.317088
  C 3.344774 0.685123 1.557781
  C 2.434458 1.079634 2.715707
  C 3.239003 1.378427 3.976181
  C 3.213440 -0.199745 -0.803021
  C 4.587611 -0.228694 -1.051626
  C 5.201918 -0.828112 -2.154509
  C 4.502009 -1.575311 -3.216551
  H 3.428095 -1.596757 -3.092173
  O 6.496568 -0.771987 -2.311928
  H 4.066892 1.491380 1.378156
  H 3.946240 -0.189787 1.831100
  H 1.732519 0.269735 2.922818
  H 1.851563 1.961595 2.443181
  H 3.815361 0.508801 4.283840
  H 2.576014 1.648034 4.794375
  H 3.924658 2.206961 3.813318
  H 2.545011 -0.640526 -1.526212
  H 5.231525 0.286029 -0.350449
  H 4.888130 -2.594694 -3.244564
  H 4.752751 -1.139037 -4.183548
  H 6.984278 -0.285179 -1.620138
 23
 3.235654
  H 1.609585 0.675029 0.230014
  C 2.663616 0.446312 0.290748
  C 3.341909 0.664685 1.571142
  C 2.429665 1.135318 2.697976
  C 3.205779 1.313935 3.998642
  C 3.241120 -0.173981 -0.799430
  C 4.593703 -0.109294 -1.125002
  C 5.200351 -0.746481 -2.207845
  C 4.516500 -1.647718 -3.155352
  H 3.452313 -1.724909 -2.981376
  O 6.473493 -0.582199 -2.457762
  H 4.162596 1.384085 1.450231
  H 3.831737 -0.281669 1.834638
  H 1.633214 0.405524 2.854473
  H 1.962917 2.083465 2.423103
  H 3.668040 0.378221 4.305892
  H 2.541027 1.637623 4.795593
  H 3.985928 2.063630 3.887148
  H 2.576098 -0.747090 -1.428848
  H 5.220383 0.523403 -0.509983
  H 4.968627 -2.637836 -3.089596
  H 4.701075 -1.303958 -4.172368
  H 6.949500 0.002473 -1.840090
 23
 7.815443
  H 1.685052 0.812004 0.176702
  C 2.706039 0.475678 0.295758
  C 3.337279 0.607303 1.610315
  C 2.427125 1.151235 2.705387
  C 3.157318 1.218812 4.042185
  C 3.286550 -0.199619 -0.767407
  C 4.601809 -0.052286 -1.180567
  C 5.199567 -0.724249 -2.245672
  C 4.541548 -1.749494 -3.080845
  H 3.500413 -1.901744 -2.829916
  O 6.432415 -0.465066 -2.598628
  H 4.236441 1.235461 1.544172
  H 3.711033 -0.390932 1.863575
  H 1.551544 0.508506 2.808397
  H 2.078693 2.148803 2.433772
  H 3.502840 0.233079 4.345197
  H 2.495094 1.595701 4.817490
  H 4.017489 1.882161 3.983270
  H 2.639995 -0.891998 -1.287214
  H 5.205467 0.673532 -0.651812
  H 5.082096 -2.690880 -2.977754
  H 4.631247 -1.466885 -4.129501
  H 6.887491 0.210016 -2.060971
 23
 13.494852
  H 1.757191 0.947831 0.141775
  C 2.762285 0.563759 0.286742
  C 3.338128 0.592470 1.628951
  C 2.415482 1.145770 2.711632
  C 3.095449 1.113410 4.079190
  C 3.337337 -0.148766 -0.769260
  C 4.599479 0.063837 -1.284626
  C 5.191578 -0.673832 -2.310712
  C 4.578608 -1.833988 -2.984720
  H 3.568905 -2.034221 -2.656449
  O 6.389969 -0.378711 -2.747131
  H 4.274659 1.175466 1.625069
  H 3.655070 -0.430840 1.858056
  H 1.498743 0.552549 2.753017
  H 2.138607 2.172813 2.471079
  H 3.369760 0.098531 4.351302
  H 2.424794 1.496883 4.844979
  H 3.996330 1.726674 4.082475
  H 2.727500 -0.952932 -1.165164
  H 5.162573 0.898680 -0.887555
  H 5.198282 -2.714366 -2.809216
  H 4.591847 -1.669259 -4.059654
  H 6.814670 0.382404 -2.309946
 23
 21.419104
  H 1.892968 1.084560 0.113829
  C 2.839676 0.593936 0.307715
  C 3.335166 0.535582 1.683128
  C 2.410294 1.160586 2.722848
  C 3.005554 1.044579 4.121874
  C 3.411518 -0.160929 -0.742625
  C 4.588933 0.132463 -1.378675
  C 5.182827 -0.637314 -2.387408
  C 4.639459 -1.902965 -2.918014
  H 3.678563 -2.165915 -2.496514
  O 6.305522 -0.262225 -2.943551
  H 4.318241 1.028490 1.741365
  H 3.541943 -0.513367 1.918228
  H 1.441885 0.658314 2.702710
  H 2.247579 2.213408 2.487328
  H 3.167713 0.003008 4.389315
  H 2.332094 1.479034 4.856129
  H 3.956710 1.568180 4.185955
  H 2.873885 -1.067299 -0.997543
  H 5.096735 1.045073 -1.094074
  H 5.352620 -2.704681 -2.724774
  H 4.560393 -1.830675 -4.002672
  H 6.678162 0.574167 -2.607867
 23
 28.558435
  H 2.020897 1.184062 0.107382
  C 2.899095 0.597762 0.335734
  C 3.316781 0.461423 1.733974
  C 2.402989 1.163408 2.736083
  C 2.922838 0.997526 4.159575
  C 3.482546 -0.192584 -0.712369
  C 4.545864 0.185099 -1.471414
  C 5.163771 -0.601374 -2.467232
  C 4.738151 -1.958515 -2.855932
  H 3.831894 -2.281774 -2.360340
  O 6.205494 -0.157727 -3.112025
  H 4.333482 0.872474 1.831517
  H 3.436414 -0.596776 2.000466
  H 1.397532 0.746014 2.671745
  H 2.341922 2.226205 2.496720
  H 2.987201 -0.055357 4.428820
  H 2.255090 1.484532 4.866206
  H 3.909854 1.441294 4.267682
  H 3.038839 -1.175534 -0.851450
  H 4.959583 1.172070 -1.302756
  H 5.543118 -2.659892 -2.637308
  H 4.600585 -1.994619 -3.936275
  H 6.502706 0.739420 -2.865499
 23
 20.241042
  H 2.267390 1.289729 0.088470
  C 3.056404 0.605965 0.360174
  C 3.340672 0.414493 1.784834
  C 2.389942 1.166390 2.717260
  C 2.773824 0.955889 4.179929
  C 3.612029 -0.205972 -0.657684
  C 4.526561 0.223474 -1.586220
  C 5.120809 -0.573561 -2.573411
  C 4.836103 -2.005052 -2.795242
  H 4.042946 -2.387331 -2.167039
  O 6.020906 -0.078916 -3.380863
  H 4.366523 0.760416 1.966167
  H 3.368617 -0.650559 2.057176
  H 1.367839 0.813801 2.561860
  H 2.416461 2.234278 2.488994
  H 2.750373 -0.101894 4.439362
  H 2.077873 1.477699 4.834146
  H 3.774394 1.337293 4.379629
  H 3.308214 -1.249348 -0.653617
  H 4.825704 1.262644 -1.547008
  H 5.746514 -2.577559 -2.623475
  H 4.580755 -2.159723 -3.841773
  H 6.221158 0.868413 -3.252590
 23
 14.286512
  H 2.418002 1.356584 0.096495
  C 3.178238 0.662831 0.395126
  C 3.377652 0.419207 1.835397
  C 2.385846 1.166134 2.737840
  C 2.674397 0.891802 4.204978
  C 3.714422 -0.169403 -0.587993
  C 4.472066 0.257492 -1.654768
  C 5.071867 -0.570254 -2.614507
  C 4.925292 -2.034580 -2.687674
  H 4.238749 -2.428135 -1.947964
  O 5.876438 -0.066446 -3.524247
  H 4.370694 0.725485 2.101527
  H 3.363719 -0.666189 2.040669
  H 1.354734 0.851128 2.495819
  H 2.450624 2.231517 2.554715
  H 2.600960 -0.164589 4.434894
  H 1.962172 1.406901 4.836865
  H 3.683643 1.235308 4.458015
  H 3.547879 -1.245306 -0.453190
  H 4.667654 1.328611 -1.735860
  H 5.896010 -2.502840 -2.574820
  H 4.582064 -2.304988 -3.690849
  H 6.009530 0.890631 -3.483922
 23
 6.794890
  H 2.666336 1.461038 0.120566
  C 3.323132 0.668065 0.455534
  C 3.405445 0.394765 1.890800
  C 2.398574 1.176892 2.734089
  C 2.561963 0.864443 4.217813
  C 3.842055 -0.195777 -0.502487
  C 4.438143 0.231875 -1.682815
  C 5.010407 -0.594409 -2.652210
  C 5.017917 -2.070734 -2.614092
  H 4.476272 -2.479176 -1.772253
  O 5.622201 -0.087909 -3.691294
  H 4.417694 0.644841 2.235872
  H 3.311779 -0.683186 2.071482
  H 1.384895 0.920757 2.421210
  H 2.535538 2.248073 2.575907
  H 2.414628 -0.196367 4.410633
  H 1.830660 1.415400 4.804701
  H 3.554062 1.142603 4.565837
  H 3.803267 -1.254320 -0.280746
  H 4.492679 1.300190 -1.846646
  H 6.049904 -2.422426 -2.593092
  H 4.593241 -2.450852 -3.542781
  H 5.636330 0.886271 -3.733745
 23
 1.145934
  H 3.042241 1.595772 0.190722
  C 3.525831 0.690510 0.533951
  C 3.452799 0.366383 1.959355
  C 2.439184 1.204273 2.739561
  C 2.435914 0.831666 4.218660
  C 3.989728 -0.199972 -0.408175
  C 4.412992 0.200183 -1.676225
  C 4.926758 -0.634881 -2.667559
  C 5.055276 -2.100615 -2.558591
  H 4.661649 -2.496856 -1.632092
  O 5.353176 -0.146583 -3.802039
  H 4.443450 0.525877 2.406742
  H 3.255252 -0.705050 2.082991
  H 1.442621 1.041628 2.325456
  H 2.675083 2.265305 2.636480
  H 2.189019 -0.219100 4.353779
  H 1.697265 1.422577 4.756911
  H 3.408459 1.016627 4.669101
  H 4.056838 -1.244177 -0.125876
  H 4.355689 1.258728 -1.898378
  H 6.108818 -2.376413 -2.661189
  H 4.545948 -2.563149 -3.400744
  H 5.280033 0.822215 -3.895479
 23
 -0.039081
  H 3.343315 1.751805 0.251018
  C 3.705139 0.792775 0.592342
  C 3.546783 0.421342 1.998352
  C 2.454455 1.188896 2.742546
  C 2.363433 0.744739 4.197185
  C 4.106489 -0.137399 -0.338392
  C 4.396389 0.191498 -1.663432
  C 4.840151 -0.692901 -2.649014
  C 5.029269 -2.143707 -2.460699
  H 4.771038 -2.482960 -1.467082
  O 5.128243 -0.270600 -3.850413
  H 4.497960 0.597261 2.518207
  H 3.386599 -0.660828 2.025266
  H 1.495733 1.017337 2.250332
  H 2.664381 2.259123 2.705635
  H 2.146606 -0.318712 4.265106
  H 1.568905 1.283634 4.707301
  H 3.294810 0.940272 4.723395
  H 4.233697 -1.152118 0.014251
  H 4.279777 1.231434 -1.942925
  H 6.065973 -2.399830 -2.680681
  H 4.431115 -2.677734 -3.199235
  H 5.010188 0.687059 -3.999966
