 25
 0.000000
  H 1.474678 0.064455 -0.006557
  C 2.553245 0.066319 -0.039629
  C 3.225592 -0.009360 1.301638
  C 2.241627 -0.074936 2.463684
  H 2.772176 -0.128360 3.410508
  C 3.188548 0.132728 -1.216515
  C 2.471146 0.207409 -2.540030
  C 0.946660 0.205664 -2.509042
  C 0.375493 0.285358 -3.921435
  C 4.645309 0.136913 -1.290638
  C 5.383382 0.199156 -2.393808
  H 6.460962 0.197552 -2.365352
  H 3.869400 0.865541 1.438289
  H 3.869403 -0.894081 1.338999
  H 1.604129 -0.952950 2.375535
  H 1.604118 0.807421 2.474870
  H 2.800586 -0.637815 -3.153031
  H 2.800586 1.116228 -3.054053
  H 0.581682 1.060732 -1.936486
  H 0.581681 -0.708387 -2.036312
  H 0.700457 1.197094 -4.418389
  H -0.711945 0.283630 -3.890799
  H 0.700458 -0.564691 -4.517803
  H 5.169478 0.083647 -0.346628
  H 4.984137 0.255538 -3.392997
 25
 13.730823
  H 1.426814 0.064576 -0.008695
  C 2.500907 0.066410 -0.041226
  C 3.250733 -0.017470 1.445345
  C 2.249058 -0.081803 2.585388
  H 2.766855 -0.135668 3.540053
  C 3.191482 0.137250 -1.296656
  C 2.468413 0.211610 -2.614472
  C 0.943547 0.208826 -2.565077
  C 0.353850 0.288087 -3.969787
  C 4.644059 0.139956 -1.344554
  C 5.400179 0.201537 -2.436001
  H 6.476613 0.198637 -2.384579
  H 3.890547 0.857168 1.574177
  H 3.890552 -0.901050 1.474969
  H 1.612439 -0.959484 2.488295
  H 1.612432 0.801225 2.587646
  H 2.794108 -0.634195 -3.229193
  H 2.794106 1.121193 -3.130136
  H 0.587176 1.063236 -1.986076
  H 0.587177 -0.705294 -2.085872
  H 0.672479 1.200004 -4.470514
  H -0.733098 0.285620 -3.926059
  H 0.672479 -0.561718 -4.569925
  H 5.148405 0.086069 -0.389538
  H 5.013069 0.258169 -3.439634
 25
 39.119367
  H 1.380670 0.064961 -0.015273
  C 2.441704 0.070309 -0.110158
  C 3.338624 -0.024961 1.578046
  C 2.271507 -0.085109 2.643956
  H 2.739030 -0.140718 3.629358
  C 3.176743 0.140590 -1.355709
  C 2.456997 0.214879 -2.672270
  C 0.938109 0.211024 -2.604090
  C 0.329390 0.289723 -3.998857
  C 4.621697 0.140040 -1.346036
  C 5.404224 0.200368 -2.415303
  H 6.477205 0.195117 -2.322260
  H 3.949372 0.872340 1.624718
  H 3.949346 -0.921803 1.523472
  H 1.641144 -0.961988 2.517552
  H 1.641167 0.800419 2.617004
  H 2.782894 -0.629822 -3.283514
  H 2.782900 1.122986 -3.184616
  H 0.596003 1.064691 -2.014706
  H 0.595995 -0.703551 -2.114470
  H 0.643210 1.202063 -4.502960
  H -0.757049 0.286569 -3.942986
  H 0.643214 -0.560116 -4.602399
  H 5.075307 0.085103 -0.372404
  H 5.022057 0.257079 -3.420410
 25
 67.526279
  H 1.319163 0.068554 -0.079109
  C 2.384468 0.075054 -0.194370
  C 3.428661 -0.035441 1.763767
  C 2.352973 -0.093524 2.793176
  H 2.801662 -0.149543 3.786024
  C 3.114525 0.142384 -1.387596
  C 2.432678 0.217567 -2.719982
  C 0.896450 0.216193 -2.695794
  C 0.328542 0.295937 -4.109056
  C 4.554680 0.140334 -1.351322
  C 5.356534 0.200015 -2.409041
  H 6.426768 0.193799 -2.298984
  H 4.021328 0.864338 1.770597
  H 4.021299 -0.930239 1.669334
  H 1.728888 -0.967244 2.657779
  H 1.728933 0.789838 2.756931
  H 2.774995 -0.633684 -3.325665
  H 2.775024 1.131621 -3.226122
  H 0.539444 1.072669 -2.111070
  H 0.539389 -0.700716 -2.211063
  H 0.658465 1.207461 -4.603654
  H -0.759690 0.294623 -4.085711
  H 0.658433 -0.554102 -4.702991
  H 4.992348 0.084051 -0.353933
  H 4.992066 0.256966 -3.418336
 25
 90.159238
  H 1.240722 0.070276 -0.109880
  C 2.320290 0.079310 -0.269901
  C 3.517772 -0.045788 1.946776
  C 2.427727 -0.102840 2.958229
  H 2.861025 -0.159958 3.969908
  C 3.046455 0.144114 -1.418174
  C 2.396014 0.221064 -2.782007
  C 0.881026 0.221382 -2.787696
  C 0.343105 0.301421 -4.206430
  C 4.484379 0.141424 -1.370213
  C 5.311195 0.200387 -2.415132
  H 6.376517 0.192963 -2.283813
  H 4.099598 0.867642 1.906490
  H 4.099634 -0.948973 1.803858
  H 1.795611 -0.992756 2.812641
  H 1.795615 0.797945 2.913691
  H 2.755504 -0.629496 -3.371309
  H 2.755442 1.132481 -3.271881
  H 0.514281 1.069573 -2.219625
  H 0.514318 -0.685187 -2.318719
  H 0.683103 1.210658 -4.693052
  H -0.742765 0.301265 -4.203672
  H 0.683118 -0.547354 -4.792259
  H 4.885582 0.085877 -0.385859
  H 4.968340 0.257674 -3.430679
 25
 105.783875
  H 1.209001 0.072243 -0.144320
  C 2.257465 0.082876 -0.332750
  C 3.597822 -0.055996 2.128069
  C 2.507634 -0.111756 3.116069
  H 2.919852 -0.169034 4.130344
  C 2.984404 0.146123 -1.453614
  C 2.363549 0.224634 -2.845268
  C 0.846198 0.226721 -2.882104
  C 0.332303 0.308268 -4.327504
  C 4.436746 0.142013 -1.380525
  C 5.284912 0.199651 -2.402191
  H 6.351805 0.190614 -2.242698
  H 4.158507 0.860707 2.048591
  H 4.158412 -0.957893 1.945893
  H 1.890578 -0.984075 2.967173
  H 1.890624 0.771815 3.066292
  H 2.733033 -0.620567 -3.418049
  H 2.732955 1.128852 -3.319331
  H 0.461894 1.093265 -2.309061
  H 0.461806 -0.698931 -2.410087
  H 0.685420 1.224029 -4.811622
  H -0.759638 0.309401 -4.347405
  H 0.685382 -0.547153 -4.911474
  H 4.820773 0.085095 -0.371892
  H 4.968278 0.257725 -3.431959
 25
 114.987756
  H 1.136789 0.072740 -0.153387
  C 2.171940 0.085767 -0.384178
  C 3.698916 -0.064275 2.274575
  C 2.595921 -0.119195 3.247683
  H 2.993838 -0.177359 4.278082
  C 2.922646 0.147873 -1.484795
  C 2.345142 0.227753 -2.900582
  C 0.820685 0.231754 -2.971476
  C 0.336117 0.313540 -4.420927
  C 4.367680 0.141428 -1.370390
  C 5.240107 0.197916 -2.371409
  H 6.299303 0.187397 -2.185431
  H 4.228174 0.862899 2.137812
  H 4.228137 -0.970178 2.034339
  H 1.971730 -1.005039 3.090575
  H 1.971658 0.778830 3.191254
  H 2.730487 -0.626446 -3.465455
  H 2.730442 1.139982 -3.365746
  H 0.431144 1.087948 -2.410051
  H 0.431162 -0.682103 -2.509950
  H 0.697821 1.223799 -4.895137
  H -0.750453 0.315857 -4.462028
  H 0.697821 -0.537605 -4.994520
  H 4.722924 0.083873 -0.350578
  H 4.948874 0.256183 -3.404288
 25
 121.341752
  H 1.040371 0.077293 -0.233654
  C 2.072350 0.090813 -0.473350
  C 3.785856 -0.072173 2.414980
  C 2.696381 -0.128435 3.412943
  H 3.094111 -0.184652 4.408853
  C 2.835986 0.150175 -1.525557
  C 2.312680 0.230225 -2.944504
  C 0.798307 0.236290 -3.052280
  C 0.345755 0.319282 -4.523425
  C 4.303498 0.141752 -1.376183
  C 5.202931 0.196437 -2.345343
  H 6.250892 0.184043 -2.126230
  H 4.293578 0.850854 2.247710
  H 4.293586 -0.970629 2.144820
  H 2.069410 -1.018501 3.268960
  H 2.069713 0.771942 3.370015
  H 2.718648 -0.634670 -3.499905
  H 2.718810 1.152427 -3.399356
  H 0.401714 1.084434 -2.503011
  H 0.401528 -0.668545 -2.601670
  H 0.721177 1.232286 -4.991551
  H -0.744730 0.323161 -4.592312
  H 0.721022 -0.535037 -5.091010
  H 4.632344 0.083801 -0.349241
  H 4.948959 0.255003 -3.383604
 25
 124.568784
  H 0.935633 0.079090 -0.265713
  C 1.973746 0.093143 -0.514864
  C 3.879175 -0.080424 2.560371
  C 2.818655 -0.138336 3.587233
  H 3.248432 -0.195223 4.594283
  C 2.761638 0.151548 -1.550096
  C 2.282327 0.233808 -3.008223
  C 0.772869 0.242997 -3.170901
  C 0.373836 0.326819 -4.656575
  C 4.205349 0.140761 -1.358816
  C 5.133306 0.194373 -2.308570
  H 6.186542 0.180409 -2.060084
  H 4.372912 0.853233 2.359275
  H 4.372762 -0.985494 2.255366
  H 2.191863 -1.026908 3.459933
  H 2.192021 0.758997 3.560758
  H 2.697900 -0.619548 -3.541701
  H 2.697877 1.141642 -3.442369
  H 0.354875 1.101140 -2.629371
  H 0.354816 -0.670563 -2.729277
  H 0.766117 1.236198 -5.109710
  H -0.706308 0.332864 -4.763601
  H 0.766008 -0.525772 -5.209012
  H 4.506427 0.081952 -0.316150
  H 4.903802 0.254028 -3.365174
 25
 126.207343
  H 0.821674 0.084854 -0.367592
  C 1.854297 0.097803 -0.597202
  C 3.957709 -0.086855 2.674801
  C 2.948533 -0.146953 3.739358
  H 3.424823 -0.203941 4.747630
  C 2.674346 0.153914 -1.591833
  C 2.251995 0.236514 -3.056174
  C 0.747808 0.248395 -3.267035
  C 0.406899 0.331997 -4.748938
  C 4.123788 0.139859 -1.342346
  C 5.086955 0.191277 -2.253901
  H 6.117636 0.175128 -1.969114
  H 4.424468 0.838621 2.441803
  H 4.424122 -0.979949 2.339128
  H 2.323692 -1.028093 3.634401
  H 2.323889 0.740382 3.734298
  H 2.687703 -0.625116 -3.580069
  H 2.687872 1.151899 -3.480050
  H 0.308768 1.116604 -2.737209
  H 0.308659 -0.674065 -2.838075
  H 0.814420 1.234260 -5.183265
  H -0.663276 0.340060 -4.892221
  H 0.814252 -0.515429 -5.281751
  H 4.383495 0.081435 -0.307125
  H 4.900674 0.250416 -3.303377
 25
 126.805294
  H 0.718147 0.089489 -0.448948
  C 1.763812 0.101096 -0.655038
  C 4.042784 -0.093900 2.799694
  C 3.057637 -0.155408 3.890372
  H 3.552534 -0.210757 4.869338
  C 2.623270 0.156114 -1.630885
  C 2.241978 0.238982 -3.100171
  C 0.727757 0.253310 -3.352214
  C 0.419425 0.336519 -4.828116
  C 4.059340 0.139448 -1.336198
  C 5.045845 0.189329 -2.219347
  H 6.085073 0.171505 -1.898289
  H 4.498603 0.845631 2.537698
  H 4.498651 -0.998543 2.433275
  H 2.426417 -1.044496 3.802707
  H 2.426445 0.738161 3.903427
  H 2.688440 -0.617409 -3.606602
  H 2.688275 1.146503 -3.507045
  H 0.287488 1.095617 -2.849457
  H 0.287483 -0.639891 -2.947429
  H 0.846148 1.255857 -5.258813
  H -0.669226 0.346016 -4.994892
  H 0.846227 -0.529018 -5.359691
  H 4.292604 0.079206 -0.266509
  H 4.882460 0.250448 -3.298952
 25
 126.209169
  H 0.718246 0.089118 -0.442630
  C 1.763605 0.099968 -0.635044
  C 4.050801 -0.093199 2.787295
  C 3.059865 -0.154328 3.870431
  H 3.549019 -0.209921 4.853761
  C 2.619237 0.155261 -1.615322
  C 2.234405 0.238590 -3.092706
  C 0.731939 0.252850 -3.345310
  C 0.425933 0.336942 -4.836198
  C 4.056124 0.138719 -1.321988
  C 5.043900 0.188601 -2.206111
  H 6.073471 0.170750 -1.889794
  H 4.496839 0.844524 2.517353
  H 4.496636 -0.994623 2.413387
  H 2.431874 -1.039883 3.779345
  H 2.432012 0.735945 3.879688
  H 2.680889 -0.619619 -3.601906
  H 2.680905 1.148605 -3.502210
  H 0.286129 1.108730 -2.833816
  H 0.286099 -0.655100 -2.933293
  H 0.847941 1.244613 -5.263025
  H -0.648225 0.346549 -5.006396
  H 0.847913 -0.516999 -5.362371
  H 4.288159 0.079153 -0.266074
  H 4.883900 0.248562 -3.269150
