 20
 0.000000
  H 1.423806 0.163008 0.461629
  C 2.503812 0.139874 0.401879
  C 3.245823 0.613514 1.574795
  H 2.572792 0.931497 2.365448
  C 3.055808 -0.333335 -0.774336
  C 4.435007 -0.419115 -0.989478
  C 5.125724 -0.870609 -2.117214
  C 4.620216 -1.389542 -3.413526
  C 3.131112 -1.500444 -3.691712
  H 3.001651 -1.902056 -4.695203
  O 6.438289 -0.862586 -2.097917
  H 3.900428 1.446037 1.310351
  H 3.902358 -0.168215 1.961136
  H 2.374351 -0.644179 -1.546437
  H 5.060552 -0.089387 -0.167761
  H 5.085741 -2.373742 -3.542542
  H 5.086347 -0.766846 -4.186125
  H 2.643972 -0.530101 -3.663361
  H 2.643449 -2.183046 -3.001784
  H 6.839787 -0.531885 -1.269630
 20
 1.185944
  H 1.434867 -0.084257 0.550591
  C 2.505459 0.012169 0.442688
  C 3.224418 0.728423 1.500327
  H 2.551324 1.072960 2.277483
  C 3.072214 -0.541132 -0.685639
  C 4.444824 -0.506619 -0.949845
  C 5.135234 -0.938030 -2.082676
  C 4.622475 -1.351658 -3.411436
  C 3.129880 -1.400824 -3.691603
  H 2.985511 -1.665737 -4.735848
  O 6.449505 -0.900129 -2.074905
  H 3.760068 1.587102 1.090469
  H 3.986956 0.089694 1.950262
  H 2.410526 -1.035361 -1.377150
  H 5.069685 -0.055911 -0.186715
  H 5.065021 -2.333488 -3.617227
  H 5.104578 -0.682372 -4.134768
  H 2.659816 -0.435060 -3.528230
  H 2.634683 -2.161443 -3.093543
  H 6.872808 -0.901177 -1.194646
 20
 5.473450
  H 1.432256 -0.156746 0.588201
  C 2.496494 -0.019005 0.458090
  C 3.194506 0.795134 1.456361
  H 2.515531 1.162649 2.218166
  C 3.074508 -0.612242 -0.643840
  C 4.441484 -0.536217 -0.926021
  C 5.136001 -0.939599 -2.064649
  C 4.627880 -1.298669 -3.408562
  C 3.135227 -1.367184 -3.679287
  H 2.984431 -1.578688 -4.734919
  O 6.459054 -0.839985 -2.048268
  H 3.693018 1.644353 0.984718
  H 3.988373 0.218915 1.936049
  H 2.430687 -1.175536 -1.296742
  H 5.072784 -0.062151 -0.184685
  H 5.093654 -2.256368 -3.669203
  H 5.091087 -0.582109 -4.099523
  H 2.644721 -0.423437 -3.457445
  H 2.664496 -2.168398 -3.117321
  H 6.927184 -1.238428 -1.294604
 20
 10.262229
  H 1.406672 -0.107116 0.575301
  C 2.473761 0.018384 0.454570
  C 3.174905 0.810788 1.465185
  H 2.496355 1.183871 2.224652
  C 3.052137 -0.566178 -0.652029
  C 4.423876 -0.505569 -0.920294
  C 5.128545 -0.895002 -2.053410
  C 4.641021 -1.270055 -3.396220
  C 3.153020 -1.394195 -3.671379
  H 3.011426 -1.618295 -4.725749
  O 6.461333 -0.750307 -1.993816
  H 3.696631 1.653144 1.006354
  H 3.955070 0.215330 1.944695
  H 2.406363 -1.108923 -1.320551
  H 5.067362 -0.086450 -0.156482
  H 5.142957 -2.206262 -3.668500
  H 5.077781 -0.529816 -4.081200
  H 2.628510 -0.467212 -3.456732
  H 2.710502 -2.207364 -3.103068
  H 6.977901 -1.436845 -1.546288
 20
 9.794233
  H 1.372947 0.078034 0.520370
  C 2.449477 0.132960 0.441547
  C 3.174711 0.718020 1.566915
  H 2.502726 1.039875 2.353974
  C 3.013584 -0.338276 -0.718747
  C 4.393922 -0.350619 -0.945264
  C 5.113853 -0.781954 -2.059160
  C 4.659069 -1.307495 -3.366504
  C 3.180638 -1.507622 -3.656790
  H 3.072133 -1.856814 -4.680935
  O 6.435061 -0.623129 -1.946456
  H 3.779363 1.566280 1.240888
  H 3.888280 0.000312 1.977366
  H 2.347321 -0.723460 -1.470415
  H 5.037458 -0.038322 -0.131918
  H 5.191745 -2.248742 -3.552622
  H 5.079233 -0.615355 -4.111548
  H 2.626115 -0.577903 -3.566811
  H 2.746867 -2.262395 -3.007007
  H 6.998392 -1.407281 -1.860551
 20
 5.309045
  H 1.360324 -0.018220 0.546478
  C 2.434375 0.063001 0.454260
  C 3.141337 0.837431 1.476162
  H 2.459259 1.251147 2.210803
  C 3.020091 -0.543806 -0.634219
  C 4.398679 -0.529513 -0.865336
  C 5.131076 -0.896832 -1.993066
  C 4.686780 -1.264495 -3.357699
  C 3.203179 -1.422712 -3.649377
  H 3.077158 -1.647311 -4.705795
  O 6.437552 -0.760993 -1.811601
  H 3.718503 1.646477 1.025761
  H 3.876957 0.208765 1.983890
  H 2.374999 -1.067964 -1.319103
  H 5.059862 -0.257634 -0.048690
  H 5.204354 -2.183471 -3.657145
  H 5.097686 -0.484336 -4.013107
  H 2.656410 -0.508949 -3.437084
  H 2.774548 -2.247923 -3.087606
  H 7.004688 -1.446038 -2.206214
 20
 10.763595
  H 1.359851 -0.202710 0.614791
  C 2.421011 -0.070765 0.457505
  C 3.100301 0.975223 1.227309
  H 2.413361 1.510050 1.874338
  C 3.029078 -0.863952 -0.480623
  C 4.396154 -0.780397 -0.782686
  C 5.127490 -1.011759 -1.942265
  C 4.686445 -1.127472 -3.347158
  C 3.184975 -1.224495 -3.576221
  H 2.985850 -1.276534 -4.643096
  O 6.430027 -0.917959 -1.684973
  H 3.600022 1.688885 0.571267
  H 3.895500 0.531350 1.830423
  H 2.435288 -1.612869 -0.982924
  H 5.162500 -0.596616 -0.030297
  H 5.170699 -1.999877 -3.799656
  H 5.087844 -0.252999 -3.873017
  H 2.669565 -0.354704 -3.178130
  H 2.776436 -2.119268 -3.117550
  H 7.023159 -1.560437 -2.110994
 20
 24.212928
  H 1.390784 -0.301172 0.716362
  C 2.433006 -0.138201 0.482154
  C 3.089013 1.037805 1.062016
  H 2.398965 1.629678 1.656524
  C 3.039880 -1.020764 -0.368848
  C 4.375082 -0.900914 -0.781437
  C 5.106927 -1.054049 -1.944391
  C 4.712987 -1.051414 -3.363752
  C 3.204305 -1.099315 -3.575839
  H 2.980301 -1.087665 -4.638520
  O 6.408364 -1.002070 -1.605280
  H 3.522849 1.669154 0.285920
  H 3.928097 0.723803 1.686465
  H 2.484543 -1.887077 -0.703301
  H 5.286068 -0.783246 -0.146441
  H 5.175670 -1.912276 -3.858465
  H 5.135396 -0.156339 -3.831713
  H 2.719947 -0.241098 -3.117424
  H 2.782217 -2.004383 -3.150886
  H 7.002641 -1.704803 -1.919920
 20
 47.270786
  H 1.412633 -0.270390 0.900065
  C 2.431193 -0.124394 0.571271
  C 3.144488 1.066503 1.045871
  H 2.509337 1.693872 1.662616
  C 2.966674 -1.046936 -0.290438
  C 4.245368 -0.947967 -0.827120
  C 5.006924 -1.074475 -1.940941
  C 4.732750 -1.042843 -3.390424
  C 3.239894 -1.100194 -3.697285
  H 3.080537 -1.076815 -4.771376
  O 6.310895 -1.005394 -1.493578
  H 3.516154 1.651552 0.203795
  H 4.023550 0.778123 1.624267
  H 2.392668 -1.936319 -0.523380
  H 5.397001 -0.833406 -0.269419
  H 5.234234 -1.895841 -3.858296
  H 5.172585 -0.135820 -3.815054
  H 2.721887 -0.252487 -3.257076
  H 2.801308 -2.014298 -3.308056
  H 6.920697 -1.733552 -1.723528
 20
 60.329230
  H 1.425957 -0.262980 1.004151
  C 2.422592 -0.120851 0.614465
  C 3.159736 1.089535 1.021294
  H 2.555192 1.729053 1.655944
  C 2.917220 -1.061075 -0.250173
  C 4.149173 -0.980501 -0.859970
  C 4.925153 -1.085227 -1.916960
  C 4.725638 -1.037381 -3.384128
  C 3.248808 -1.094172 -3.758202
  H 3.138004 -1.060347 -4.838145
  O 6.268503 -1.011965 -1.399826
  H 3.476492 1.652463 0.142458
  H 4.068936 0.824555 1.561129
  H 2.340480 -1.964507 -0.418623
  H 5.586132 -0.868072 -0.347631
  H 5.249529 -1.884565 -3.836058
  H 5.180377 -0.124419 -3.778254
  H 2.710079 -0.251973 -3.332755
  H 2.795273 -2.013170 -3.397706
  H 6.871998 -1.756780 -1.614430
 20
 55.981346
  H 1.438906 -0.269445 1.046197
  C 2.424684 -0.127692 0.631263
  C 3.165188 1.096615 1.002105
  H 2.569575 1.743720 1.637291
  C 2.905822 -1.076960 -0.231457
  C 4.110609 -0.999885 -0.875664
  C 4.896156 -1.093529 -1.910735
  C 4.727988 -1.036858 -3.382658
  C 3.258472 -1.076931 -3.784115
  H 3.168273 -1.034030 -4.865653
  O 6.267607 -1.027940 -1.367220
  H 3.460723 1.646454 0.107632
  H 4.085789 0.845677 1.529690
  H 2.337937 -1.992538 -0.360297
  H 5.730544 -0.898115 -0.412585
  H 5.252262 -1.885700 -3.829657
  H 5.197569 -0.125400 -3.762491
  H 2.719584 -0.232956 -3.362204
  H 2.789485 -1.994233 -3.438794
  H 6.858789 -1.783944 -1.586697
 20
 47.915593
  H 1.470630 -0.319633 1.121009
  C 2.425594 -0.158022 0.646459
  C 3.126835 1.119173 0.906982
  H 2.530317 1.777953 1.529641
  C 2.909904 -1.133825 -0.189931
  C 4.086540 -1.062888 -0.866502
  C 4.888831 -1.120555 -1.873165
  C 4.731383 -1.003428 -3.345349
  C 3.263585 -1.034456 -3.754686
  H 3.177555 -0.948219 -4.834127
  O 6.304533 -1.071349 -1.368934
  H 3.356515 1.625118 -0.031462
  H 4.079840 0.942495 1.406594
  H 2.342943 -2.052932 -0.292314
  H 5.943838 -1.013000 -0.438031
  H 5.259783 -1.831380 -3.824207
  H 5.195252 -0.072470 -3.681555
  H 2.719000 -0.209941 -3.301981
  H 2.796394 -1.965789 -3.446751
  H 6.880069 -1.818708 -1.651933
 20
 42.078544
  H 1.481264 -0.368481 1.142923
  C 2.421164 -0.189121 0.646886
  C 3.066720 1.134825 0.827302
  H 2.444377 1.799010 1.418442
  C 2.943882 -1.188576 -0.142903
  C 4.090497 -1.099231 -0.853155
  C 4.909387 -1.136629 -1.858744
  C 4.737558 -0.970214 -3.332437
  C 3.260700 -0.965322 -3.726832
  H 3.162677 -0.848140 -4.802633
  O 6.355444 -1.149434 -1.417784
  H 3.269315 1.601960 -0.134570
  H 4.029136 1.024787 1.335480
  H 2.438978 -2.147241 -0.158764
  H 6.174500 -1.067245 -0.451662
  H 5.240565 -1.794100 -3.843871
  H 5.215381 -0.038343 -3.646388
  H 2.730732 -0.150639 -3.245136
  H 2.783814 -1.902132 -3.439502
  H 6.880321 -1.930987 -1.699204
 20
 39.176406
  H 1.450414 -0.386029 1.103730
  C 2.396818 -0.204865 0.619961
  C 3.026433 1.124096 0.791629
  H 2.385617 1.792471 1.358146
  C 2.940052 -1.207776 -0.148329
  C 4.101716 -1.124204 -0.836408
  C 4.934328 -1.151073 -1.818285
  C 4.735009 -0.964181 -3.289275
  C 3.259300 -0.923064 -3.663602
  H 3.151582 -0.783102 -4.735494
  O 6.382425 -1.169953 -1.478017
  H 3.243056 1.575635 -0.177190
  H 3.976435 1.033453 1.318807
  H 2.442191 -2.170864 -0.160314
  H 6.394380 -1.078167 -0.499888
  H 5.215814 -1.789151 -3.819365
  H 5.222324 -0.035504 -3.595053
  H 2.753312 -0.104235 -3.158873
  H 2.765539 -1.850988 -3.388379
  H 6.859668 -1.967756 -1.806352
 20
 38.383403
  H 1.414073 -0.396918 1.049187
  C 2.371943 -0.223415 0.585326
  C 3.004696 1.104100 0.764817
  H 2.360612 1.773293 1.326844
  C 2.930113 -1.234539 -0.162092
  C 4.114880 -1.162354 -0.813322
  C 4.955638 -1.172089 -1.790560
  C 4.729191 -0.985578 -3.263124
  C 3.250436 -0.873029 -3.609016
  H 3.129543 -0.729447 -4.679193
  O 6.408342 -1.168299 -1.510929
  H 3.227852 1.556249 -0.202213
  H 3.950429 1.009714 1.298990
  H 2.422850 -2.192438 -0.188534
  H 6.573902 -0.987777 -0.558313
  H 5.156414 -1.837778 -3.796306
  H 5.253639 -0.082724 -3.583811
  H 2.794956 -0.029608 -3.096801
  H 2.716227 -1.775051 -3.322892
  H 6.870675 -1.977567 -1.830610
