 14
 0.000000
  H 1.383975 0.137746 0.394054
  C 2.453972 0.138831 0.396445
  H 3.017345 0.478023 1.240518
  C 3.074760 -0.323868 -0.755623
  C 4.452396 -0.411652 -0.974602
  C 5.123831 -0.863395 -2.100714
  C 4.621920 -1.386396 -3.404454
  H 3.574840 -1.468216 -3.608977
  O 6.448567 -0.861790 -2.097024
  H 2.419633 -0.642347 -1.548686
  H 5.073532 -0.080521 -0.149771
  H 5.075895 -2.376004 -3.531813
  H 5.076265 -0.759449 -4.180462
  H 6.820588 -0.526463 -1.260938
 14
 0.000000
  H 1.459108 0.126642 0.366403
  C 2.529085 0.129376 0.372892
  H 3.088697 0.469431 1.219117
  C 3.154993 -0.332358 -0.776790
  C 4.470406 -0.432686 -1.027053
  C 5.080234 -0.859413 -2.090804
  C 4.606119 -1.386003 -3.403476
  H 3.563585 -1.475500 -3.627121
  O 6.306949 -0.832346 -2.023637
  H 2.503400 -0.651844 -1.572356
  H 5.113136 -0.107314 -0.216595
  H 5.069607 -2.372241 -3.522439
  H 5.069971 -0.755685 -4.171085
  H 6.602229 -0.465560 -1.109103
 14
 0.000000
  H 1.529133 0.115794 0.339385
  C 2.599053 0.120787 0.351493
  H 3.153495 0.462013 1.200646
  C 3.231964 -0.339614 -0.794886
  C 4.493306 -0.451923 -1.075018
  C 5.044555 -0.855631 -2.081391
  C 4.594609 -1.385159 -3.401370
  H 3.556330 -1.481264 -3.641467
  O 6.172037 -0.808436 -1.964047
  H 2.585234 -0.660468 -1.593861
  H 5.158229 -0.132791 -0.280129
  H 5.066175 -2.368428 -3.512938
  H 5.066529 -0.751870 -4.161581
  H 6.377205 -0.409232 -0.968675
 14
 0.000000
  H 1.592718 0.105410 0.313525
  C 2.662511 0.113381 0.333047
  H 3.210103 0.456136 1.186020
  C 3.304630 -0.345237 -0.808918
  C 4.522074 -0.468841 -1.117206
  C 5.018390 -0.852216 -2.072890
  C 4.587660 -1.383959 -3.398378
  H 3.552961 -1.485275 -3.651442
  O 6.045791 -0.790427 -1.919161
  H 2.664347 -0.667881 -1.612353
  H 5.209315 -0.156331 -0.338836
  H 5.065521 -2.364843 -3.504006
  H 5.065864 -0.748284 -4.152647
  H 6.145583 -0.358922 -0.843243
 14
 0.000000
  H 1.648408 0.095855 0.289732
  C 2.717955 0.107582 0.318606
  H 3.256862 0.452238 1.176331
  C 3.371639 -0.348753 -0.817698
  C 4.557318 -0.482729 -1.151840
  C 5.003397 -0.849470 -2.066060
  C 4.585645 -1.382653 -3.395119
  H 3.553462 -1.487469 -3.656885
  O 5.929984 -0.778730 -1.890008
  H 2.739541 -0.673627 -1.626698
  H 5.266273 -0.177015 -0.390426
  H 5.067696 -2.361912 -3.496703
  H 5.068028 -0.745354 -4.145345
  H 5.908375 -0.316272 -0.736902
 14
 0.000000
  H 1.694759 0.087618 0.269220
  C 2.763884 0.103867 0.309359
  H 3.292264 0.450773 1.172709
  C 3.431426 -0.349665 -0.819990
  C 4.598947 -0.492513 -1.176248
  C 5.001118 -0.847909 -2.062180
  C 4.588931 -1.381698 -3.392733
  H 3.557851 -1.488013 -3.658215
  O 5.826261 -0.773857 -1.877859
  H 2.809265 -0.677188 -1.635598
  H 5.327917 -0.193395 -0.431287
  H 5.072767 -2.360256 -3.492575
  H 5.073088 -0.743700 -4.141221
  H 5.668117 -0.282935 -0.653773
 14
 0.000000
  H 1.728722 0.081579 0.254182
  C 2.797230 0.102755 0.306599
  H 3.314053 0.452065 1.175956
  C 3.479785 -0.347657 -0.814999
  C 4.643275 -0.496401 -1.185956
  C 5.012078 -0.848383 -2.063374
  C 4.597318 -1.381902 -3.393235
  H 3.565726 -1.487533 -3.656996
  O 5.741348 -0.776222 -1.883746
  H 2.868551 -0.678020 -1.637693
  H 5.388173 -0.202773 -0.454690
  H 5.080337 -2.360781 -3.493881
  H 5.080648 -0.744227 -4.142532
  H 5.442745 -0.261019 -0.599114
 14
 0.000000
  H 1.748646 0.078242 0.245872
  C 2.816418 0.104080 0.309907
  H 3.322226 0.455617 1.184827
  C 3.513092 -0.343318 -0.804193
  C 4.682605 -0.493678 -1.179181
  C 5.032303 -0.851423 -2.070961
  C 4.608731 -1.383987 -3.398427
  H 3.575410 -1.487256 -3.656288
  O 5.682902 -0.784285 -1.903833
  H 2.912289 -0.676324 -1.633480
  H 5.437159 -0.203488 -0.456492
  H 5.088928 -2.363968 -3.501821
  H 5.089231 -0.747416 -4.150478
  H 5.260488 -0.249525 -0.570436
 14
 0.000000
  H 1.757894 0.076916 0.242566
  C 2.824811 0.107283 0.317894
  H 3.319839 0.460942 1.198110
  C 3.535126 -0.337128 -0.788766
  C 4.715061 -0.485125 -1.157870
  C 5.057796 -0.857270 -2.085542
  C 4.621404 -1.388402 -3.409426
  H 3.585631 -1.488218 -3.658669
  O 5.646349 -0.796351 -1.933897
  H 2.944547 -0.672661 -1.624357
  H 5.473957 -0.196509 -0.439106
  H 5.097449 -2.369979 -3.516803
  H 5.097745 -0.753430 -4.165465
  H 5.116394 -0.243052 -0.554281
 14
 0.000000
  H 1.757188 0.077497 0.244009
  C 2.823039 0.112695 0.331384
  H 3.306485 0.468572 1.217129
  C 3.547818 -0.328465 -0.767170
  C 4.740510 -0.470542 -1.121521
  C 5.087896 -0.867074 -2.109984
  C 4.634888 -1.396278 -3.429053
  H 3.596050 -1.491590 -3.667061
  O 5.630622 -0.812699 -1.974637
  H 2.968243 -0.666650 -1.609372
  H 5.499319 -0.181893 -0.402679
  H 5.105475 -2.379912 -3.541555
  H 5.105767 -0.763364 -4.190224
  H 5.003676 -0.236803 -0.538686
 14
 0.000000
  H 1.743136 0.080974 0.252661
  C 2.807545 0.121801 0.354074
  H 3.277389 0.480198 1.246102
  C 3.549060 -0.315488 -0.734819
  C 4.757862 -0.448752 -1.067202
  C 5.124128 -0.883325 -2.150491
  C 4.649496 -1.409899 -3.462999
  H 3.606864 -1.499302 -3.686276
  O 5.642332 -0.835373 -2.031148
  H 2.982427 -0.656703 -1.584575
  H 5.512584 -0.158621 -0.344664
  H 5.112853 -2.396185 -3.582111
  H 5.113140 -0.779640 -4.230786
  H 4.925070 -0.225366 -0.510156
 14
 0.000000
  H 1.713883 0.087902 0.269908
  C 2.776456 0.134908 0.386734
  H 3.231235 0.495993 1.285461
  C 3.536201 -0.298023 -0.691281
  C 4.763503 -0.421911 -1.000290
  C 5.162745 -0.905476 -2.205702
  C 4.663788 -1.428926 -3.510418
  H 3.617161 -1.511619 -3.716970
  O 5.685097 -0.863018 -2.100052
  H 2.983934 -0.642490 -1.549145
  H 5.511471 -0.129365 -0.271727
  H 5.118835 -2.418162 -3.636882
  H 5.119121 -0.801620 -4.285563
  H 4.891254 -0.205057 -0.459517
 14
 0.000000
  H 1.679028 0.095867 0.289740
  C 2.739481 0.149108 0.422118
  H 3.178916 0.512822 1.327396
  C 3.517469 -0.279310 -0.644632
  C 4.759784 -0.394278 -0.931396
  C 5.196131 -0.927325 -2.260155
  C 4.674843 -1.447749 -3.557330
  H 3.624804 -1.524224 -3.748384
  O 5.736745 -0.889555 -2.166197
  H 2.979862 -0.626980 -1.510480
  H 5.500362 -0.099136 -0.196358
  H 5.122095 -2.439662 -3.690465
  H 5.122381 -0.823122 -4.339151
  H 4.874141 -0.180779 -0.398987
 14
 0.000000
  H 1.641374 0.104267 0.310658
  C 2.699340 0.163988 0.459199
  H 3.122677 0.530343 1.371060
  C 3.496121 -0.259614 -0.595536
  C 4.749772 -0.365313 -0.859185
  C 5.224131 -0.947354 -2.310072
  C 4.681960 -1.464812 -3.599855
  H 3.628954 -1.535419 -3.776287
  O 5.787636 -0.914193 -2.227608
  H 2.973923 -0.610528 -1.469470
  H 5.482510 -0.067471 -0.117411
  H 5.121777 -2.459200 -3.739157
  H 5.122063 -0.842662 -4.387848
  H 4.852311 -0.154845 -0.334329
