 29
 0.000000
  C 0.907794 0.048509 0.272038
  C 2.400436 0.057218 0.086396
  C 3.240912 -0.013524 1.354424
  C 2.523692 -0.087638 2.699641
  H 3.235316 -0.132994 3.511756
  C 2.994107 0.126479 -1.122481
  C 2.352309 0.204659 -2.495200
  C 0.841125 0.216699 -2.715250
  C 0.521040 0.301777 -4.205140
  C 4.453433 0.131814 -1.210686
  C 5.193085 0.195338 -2.319570
  O 6.552985 0.196601 -2.335658
  H 0.607928 -0.014165 1.312702
  H 0.462346 -0.814868 -0.215712
  H 0.463194 0.965272 -0.108139
  H 3.887654 0.869824 1.384555
  H 3.886673 -0.895541 1.286741
  H 1.892383 -0.975465 2.745474
  H 1.893332 0.790381 2.843227
  H 2.741664 -0.643369 -3.069584
  H 2.741061 1.112869 -2.969205
  H 0.387638 1.076923 -2.224530
  H 0.388271 -0.694206 -2.325856
  H 0.931208 1.211047 -4.640535
  H -0.556577 0.310004 -4.355935
  H 0.931851 -0.551633 -4.741340
  H 4.999684 0.078687 -0.279455
  H 4.815473 0.252840 -3.327083
  H 6.883445 0.144880 -1.429220
 29
 5.528934
  C 0.911402 0.024015 0.277420
  C 2.369893 0.049352 0.089824
  C 3.240623 -0.040626 1.359772
  C 2.496557 -0.082464 2.696879
  H 3.227639 -0.143475 3.501339
  C 2.980823 0.122429 -1.118680
  C 2.336133 0.203679 -2.486067
  C 0.825148 0.197487 -2.701773
  C 0.522550 0.291034 -4.195350
  C 4.442972 0.145347 -1.216314
  C 5.182872 0.219537 -2.327597
  O 6.547470 0.225348 -2.339488
  H 0.596458 0.012134 1.295884
  H 0.406199 -0.764208 -0.253019
  H 0.746636 0.980248 -0.168183
  H 3.912804 0.823098 1.381773
  H 3.855824 -0.944403 1.291869
  H 1.849660 -0.954076 2.769882
  H 1.902998 0.816101 2.853935
  H 2.740100 -0.635695 -3.062695
  H 2.720614 1.119412 -2.949601
  H 0.354446 1.045074 -2.203381
  H 0.384630 -0.723591 -2.318818
  H 0.931039 1.209054 -4.613373
  H -0.551674 0.285631 -4.367040
  H 0.958528 -0.551121 -4.729112
  H 4.998614 0.089477 -0.292761
  H 4.804715 0.279949 -3.335498
  H 6.880770 0.169684 -1.432850
 29
 17.449708
  C 0.902954 0.034541 0.279480
  C 2.347479 0.049150 0.082601
  C 3.245130 -0.060636 1.362815
  C 2.523062 -0.083212 2.700771
  H 3.256580 -0.161642 3.491040
  C 2.961930 0.121850 -1.115261
  C 2.322809 0.209797 -2.489545
  C 0.814813 0.167061 -2.716448
  C 0.519454 0.278942 -4.209354
  C 4.427330 0.147266 -1.202124
  C 5.171772 0.235916 -2.305202
  O 6.525562 0.244350 -2.307837
  H 0.556139 0.078278 1.311428
  H 0.354589 -0.699824 -0.273401
  H 0.978521 0.987256 -0.192135
  H 3.936708 0.785003 1.372942
  H 3.828817 -0.982622 1.279878
  H 1.856230 -0.941129 2.781320
  H 1.955910 0.832452 2.864989
  H 2.747972 -0.611953 -3.072717
  H 2.689345 1.139029 -2.937884
  H 0.313114 0.988941 -2.205383
  H 0.400848 -0.774095 -2.355063
  H 0.903019 1.216552 -4.607647
  H -0.552782 0.244471 -4.388254
  H 0.984442 -0.539508 -4.755654
  H 4.974563 0.077288 -0.277001
  H 4.802051 0.311529 -3.312313
  H 6.849704 0.175220 -1.400717
 29
 32.207260
  C 0.910657 0.017447 0.292137
  C 2.358437 0.047334 0.088156
  C 3.234912 -0.062855 1.376009
  C 2.487515 -0.071823 2.695910
  H 3.210012 -0.155067 3.515282
  C 2.984910 0.119798 -1.108566
  C 2.344385 0.212041 -2.490543
  C 0.825866 0.155859 -2.710296
  C 0.515663 0.278855 -4.200448
  C 4.422923 0.150146 -1.203152
  C 5.146362 0.247097 -2.319553
  O 6.516690 0.251038 -2.347766
  H 0.551954 0.079360 1.311069
  H 0.336419 -0.682540 -0.290278
  H 1.178298 0.947879 -0.170587
  H 3.933287 0.773742 1.394022
  H 3.806807 -0.990156 1.299936
  H 1.811996 -0.921506 2.761676
  H 1.928939 0.849554 2.839551
  H 2.777291 -0.603591 -3.084675
  H 2.702856 1.150730 -2.934618
  H 0.319459 0.965608 -2.187707
  H 0.426017 -0.790939 -2.356870
  H 0.884917 1.223967 -4.593177
  H -0.557880 0.234285 -4.369410
  H 0.984426 -0.528750 -4.759453
  H 4.983008 0.073253 -0.283581
  H 4.755957 0.328762 -3.326299
  H 6.855200 0.173208 -1.445722
 29
 44.100148
  C 0.886462 -0.010392 0.286091
  C 2.341988 0.045992 0.067624
  C 3.233322 -0.055098 1.356639
  C 2.503678 -0.056040 2.689546
  H 3.237031 -0.136242 3.491266
  C 2.980351 0.115068 -1.127523
  C 2.331119 0.210691 -2.515603
  C 0.811901 0.149861 -2.714285
  C 0.478321 0.282719 -4.199420
  C 4.440429 0.143560 -1.196394
  C 5.192530 0.249256 -2.290983
  O 6.559254 0.254267 -2.279448
  H 0.535233 0.047627 1.298465
  H 0.295500 -0.659946 -0.327022
  H 1.296684 0.914722 -0.143008
  H 3.936882 0.779372 1.362349
  H 3.800029 -0.984543 1.275750
  H 1.828571 -0.902820 2.772661
  H 1.948239 0.865813 2.840261
  H 2.759514 -0.597955 -3.118998
  H 2.679962 1.151690 -2.959936
  H 0.310281 0.953885 -2.176470
  H 0.422297 -0.802961 -2.362025
  H 0.837825 1.232601 -4.590334
  H -0.597579 0.234401 -4.353799
  H 0.942829 -0.518497 -4.770698
  H 4.984811 0.057889 -0.260880
  H 4.833470 0.343187 -3.298506
  H 6.871180 0.166860 -1.373497
 29
 53.097293
  C 0.873983 -0.045128 0.309089
  C 2.330362 0.045386 0.068283
  C 3.223635 -0.040658 1.358911
  C 2.496102 -0.040750 2.697316
  H 3.234759 -0.110291 3.496396
  C 2.975101 0.110798 -1.134016
  C 2.338583 0.206698 -2.509671
  C 0.825391 0.145128 -2.718773
  C 0.502807 0.292091 -4.205718
  C 4.425588 0.138475 -1.208812
  C 5.169990 0.251611 -2.311432
  O 6.542278 0.251130 -2.313809
  H 0.532289 -0.001272 1.327490
  H 0.264481 -0.641936 -0.330710
  H 1.385665 0.884460 -0.080436
  H 3.922401 0.797448 1.359360
  H 3.795318 -0.967623 1.280057
  H 1.830485 -0.890571 2.789549
  H 1.934065 0.874014 2.846570
  H 2.773210 -0.596547 -3.114447
  H 2.687744 1.149539 -2.946811
  H 0.319483 0.944303 -2.175663
  H 0.435602 -0.813606 -2.379197
  H 0.863873 1.246343 -4.584408
  H -0.571467 0.243415 -4.369391
  H 0.973623 -0.502946 -4.780737
  H 4.975601 0.043833 -0.286084
  H 4.796742 0.355415 -3.318886
  H 6.867579 0.151217 -1.397586
 29
 59.708765
  C 0.870002 -0.087122 0.319362
  C 2.324565 0.039713 0.064799
  C 3.213767 -0.026584 1.350783
  C 2.492252 -0.019770 2.693322
  H 3.240019 -0.072698 3.491368
  C 2.976866 0.101928 -1.145594
  C 2.340082 0.201675 -2.516992
  C 0.825636 0.142406 -2.720401
  C 0.495988 0.305404 -4.204061
  C 4.431887 0.129934 -1.212428
  C 5.186049 0.250447 -2.308816
  O 6.557187 0.246433 -2.299062
  H 0.537061 -0.063036 1.335539
  H 0.241618 -0.633886 -0.355363
  H 1.463153 0.859871 -0.029441
  H 3.908277 0.818434 1.342691
  H 3.793494 -0.951937 1.280674
  H 1.835609 -0.875852 2.800608
  H 1.919520 0.890620 2.836738
  H 2.774236 -0.597341 -3.127773
  H 2.688047 1.146800 -2.950701
  H 0.322989 0.937787 -2.165190
  H 0.437157 -0.822238 -2.389614
  H 0.855602 1.263478 -4.574004
  H -0.579014 0.258643 -4.363685
  H 0.964168 -0.483608 -4.789108
  H 4.980001 0.027132 -0.288946
  H 4.820939 0.363256 -3.315031
  H 6.867533 0.138860 -1.398013
 29
 64.236824
  C 0.873812 -0.131767 0.313903
  C 2.332048 0.038212 0.067162
  C 3.215842 -0.013084 1.352562
  C 2.487101 -0.001261 2.690026
  H 3.227294 -0.036271 3.488295
  C 2.991462 0.094764 -1.148500
  C 2.346535 0.197823 -2.530609
  C 0.827025 0.142523 -2.720372
  C 0.480348 0.316857 -4.199022
  C 4.438137 0.122877 -1.210927
  C 5.192342 0.248970 -2.308332
  O 6.561328 0.241335 -2.298235
  H 0.526865 -0.129208 1.329339
  H 0.242748 -0.617783 -0.398351
  H 1.535719 0.846492 0.015622
  H 3.902492 0.836135 1.338196
  H 3.802638 -0.931151 1.291396
  H 1.841222 -0.865005 2.802995
  H 1.902039 0.904049 2.820358
  H 2.777124 -0.603378 -3.148353
  H 2.693702 1.147303 -2.967675
  H 0.333531 0.933955 -2.154045
  H 0.440820 -0.822313 -2.392590
  H 0.837532 1.276936 -4.566498
  H -0.597073 0.273046 -4.346515
  H 0.940351 -0.468766 -4.795085
  H 4.986850 0.012307 -0.280633
  H 4.828269 0.368900 -3.312732
  H 6.877705 0.123174 -1.373746
 29
 67.684786
  C 0.869174 -0.183790 0.310182
  C 2.325969 0.035230 0.067928
  C 3.218466 0.001902 1.361906
  C 2.491065 0.018812 2.697444
  H 3.229838 0.006749 3.495251
  C 2.988920 0.086627 -1.156072
  C 2.344614 0.192515 -2.532939
  C 0.835390 0.144523 -2.722118
  C 0.490363 0.332171 -4.198009
  C 4.428165 0.114853 -1.215629
  C 5.188288 0.245904 -2.309802
  O 6.572190 0.232999 -2.294459
  H 0.511509 -0.201097 1.322534
  H 0.237275 -0.608730 -0.429204
  H 1.577429 0.838308 0.054991
  H 3.895415 0.862478 1.335198
  H 3.818017 -0.912245 1.308990
  H 1.859291 -0.856277 2.821506
  H 1.889375 0.917604 2.815612
  H 2.768400 -0.602172 -3.147461
  H 2.690728 1.134642 -2.965522
  H 0.345219 0.935157 -2.147963
  H 0.445156 -0.823356 -2.401743
  H 0.851677 1.294593 -4.557770
  H -0.587346 0.293570 -4.346136
  H 0.948011 -0.450947 -4.800392
  H 4.970359 -0.002935 -0.291429
  H 4.826883 0.373654 -3.318402
  H 6.874695 0.111078 -1.399942
 29
 70.598061
  C 0.877792 -0.236697 0.315750
  C 2.326930 0.032723 0.070603
  C 3.228375 0.015501 1.368250
  C 2.490065 0.039535 2.698985
  H 3.226398 0.049702 3.506959
  C 2.990977 0.078384 -1.162931
  C 2.348266 0.187744 -2.531890
  C 0.831523 0.147380 -2.724263
  C 0.489672 0.350314 -4.200760
  C 4.429153 0.106544 -1.221998
  C 5.193420 0.241577 -2.318099
  O 6.560853 0.228548 -2.298234
  H 0.518256 -0.257981 1.318119
  H 0.231239 -0.619002 -0.450290
  H 1.619053 0.834108 0.087216
  H 3.894081 0.879581 1.331111
  H 3.836594 -0.888781 1.326635
  H 1.867037 -0.848662 2.829976
  H 1.869756 0.935007 2.799939
  H 2.772782 -0.610670 -3.150775
  H 2.700501 1.133888 -2.964116
  H 0.343321 0.936414 -2.143429
  H 0.435521 -0.823385 -2.414018
  H 0.855444 1.314021 -4.551028
  H -0.587874 0.317511 -4.351505
  H 0.944996 -0.428796 -4.808933
  H 4.971658 -0.016813 -0.296439
  H 4.837238 0.374281 -3.321682
  H 6.863916 0.100408 -1.388449
 29
 72.558189
  C 0.883272 -0.302318 0.318001
  C 2.324603 0.028103 0.073811
  C 3.228415 0.030632 1.366600
  C 2.488272 0.063784 2.699507
  H 3.217135 0.098617 3.502178
  C 2.990327 0.066114 -1.165974
  C 2.349198 0.181405 -2.530998
  C 0.835699 0.151898 -2.724680
  C 0.497508 0.373245 -4.194193
  C 4.425626 0.098529 -1.225040
  C 5.188082 0.236882 -2.320780
  O 6.568300 0.222793 -2.302661
  H 0.511464 -0.312835 1.321859
  H 0.234618 -0.644133 -0.458877
  H 1.650097 0.829826 0.106099
  H 3.883585 0.902765 1.315736
  H 3.846170 -0.866193 1.335772
  H 1.880753 -0.830691 2.843912
  H 1.852992 0.949581 2.785900
  H 2.770903 -0.618632 -3.153916
  H 2.707372 1.130105 -2.961412
  H 0.353973 0.934334 -2.137774
  H 0.434709 -0.817085 -2.427966
  H 0.868788 1.338376 -4.532656
  H -0.579657 0.348120 -4.345752
  H 0.948704 -0.400937 -4.810091
  H 4.973123 -0.027414 -0.295493
  H 4.828014 0.371821 -3.326326
  H 6.872179 0.092700 -1.397217
 29
 73.755936
  C 0.902270 -0.372775 0.315639
  C 2.329390 0.027326 0.080171
  C 3.233298 0.046809 1.375117
  C 2.487440 0.088990 2.701195
  H 3.216627 0.146630 3.514456
  C 3.000371 0.056006 -1.165221
  C 2.354610 0.176016 -2.532983
  C 0.836092 0.159264 -2.723154
  C 0.489730 0.398808 -4.202065
  C 4.428851 0.092263 -1.221470
  C 5.195764 0.232172 -2.320517
  O 6.561494 0.217270 -2.299404
  H 0.514173 -0.358922 1.305133
  H 0.253640 -0.683019 -0.474964
  H 1.684281 0.833340 0.116838
  H 3.876346 0.920665 1.315292
  H 3.857329 -0.841513 1.357081
  H 1.890516 -0.812597 2.854273
  H 1.839338 0.965294 2.769497
  H 2.767831 -0.622625 -3.156471
  H 2.716497 1.118977 -2.962436
  H 0.360538 0.944483 -2.122472
  H 0.427133 -0.814939 -2.432069
  H 0.866989 1.367896 -4.535393
  H -0.591852 0.382450 -4.350091
  H 0.934144 -0.375505 -4.830185
  H 4.971826 -0.033001 -0.298677
  H 4.838856 0.366945 -3.323872
  H 6.862689 0.086546 -1.390929
 29
 74.379784
  C 0.915875 -0.446986 0.299415
  C 2.327238 0.029890 0.073927
  C 3.234615 0.065803 1.377752
  C 2.478833 0.115833 2.699642
  H 3.197432 0.193834 3.514167
  C 3.005934 0.050625 -1.177818
  C 2.353158 0.174446 -2.543288
  C 0.840126 0.171090 -2.718483
  C 0.487270 0.422862 -4.174643
  C 4.432020 0.087415 -1.228305
  C 5.204257 0.225851 -2.323262
  O 6.579209 0.210376 -2.294364
  H 0.502942 -0.401449 1.284939
  H 0.272209 -0.737489 -0.503656
  H 1.707426 0.843103 0.107637
  H 3.870772 0.947492 1.309233
  H 3.867946 -0.818509 1.371515
  H 1.894140 -0.788106 2.859440
  H 1.819221 0.982121 2.750819
  H 2.755976 -0.627874 -3.172338
  H 2.717841 1.115059 -2.975805
  H 0.380458 0.948117 -2.112248
  H 0.429019 -0.792760 -2.435393
  H 0.866163 1.384149 -4.500044
  H -0.586901 0.415890 -4.311345
  H 0.916876 -0.343657 -4.807097
  H 4.976438 -0.038939 -0.293876
  H 4.849824 0.360982 -3.331672
  H 6.877060 0.080930 -1.384524
 29
 73.156818
  C 0.958358 -0.576004 0.300001
  C 2.323045 0.023701 0.076072
  C 3.233056 0.101468 1.377640
  C 2.475077 0.163487 2.696581
  H 3.188230 0.283005 3.509638
  C 3.012253 0.030377 -1.181654
  C 2.357139 0.163696 -2.545091
  C 0.838132 0.193541 -2.712495
  C 0.478325 0.477983 -4.171420
  C 4.431453 0.065460 -1.225283
  C 5.211851 0.202882 -2.319155
  O 6.582463 0.205124 -2.280390
  H 0.506509 -0.470945 1.262960
  H 0.326251 -0.867189 -0.510137
  H 1.714044 0.837867 0.095943
  H 3.847094 0.994962 1.287784
  H 3.885660 -0.766979 1.389873
  H 1.916177 -0.752311 2.877451
  H 1.790798 1.010428 2.723560
  H 2.742334 -0.645361 -3.177202
  H 2.738442 1.099685 -2.979103
  H 0.396330 0.973121 -2.086205
  H 0.405961 -0.770800 -2.441290
  H 0.874471 1.439951 -4.485424
  H -0.600360 0.493971 -4.301406
  H 0.889858 -0.288717 -4.821428
  H 4.967421 -0.055069 -0.293614
  H 4.861427 0.339265 -3.329027
  H 6.875412 0.083939 -1.369108
