 26
 0.000000
  H 1.383975 0.137746 0.394054
  C 2.453972 0.138831 0.396445
  C 3.235887 0.609601 1.567949
  C 2.454651 1.098519 2.785050
  C 3.400218 1.544794 3.895611
  C 3.074760 -0.323868 -0.755623
  C 4.452396 -0.411652 -0.974602
  C 5.123831 -0.863395 -2.100714
  C 4.621920 -1.386396 -3.404454
  C 3.129954 -1.502980 -3.695876
  H 2.969462 -1.896832 -4.677723
  O 6.448567 -0.861790 -2.097024
  H 3.892013 1.422462 1.236076
  H 3.892206 -0.206765 1.890660
  H 1.816409 0.300727 3.170305
  H 1.816264 1.941012 2.511316
  H 4.036296 0.723883 4.220901
  H 2.831617 1.890430 4.756103
  H 4.036115 2.362679 3.562473
  H 2.419633 -0.642347 -1.548686
  H 5.073532 -0.080521 -0.149771
  H 5.075895 -2.376004 -3.531813
  H 5.076265 -0.759449 -4.180462
  H 2.655656 -0.522022 -3.641480
  H 2.655252 -2.174151 -2.978669
  H 6.820588 -0.526463 -1.260938
 26
 0.000000
  H 1.434519 0.126106 0.365070
  C 2.504432 0.131306 0.377695
  C 3.273291 0.605054 1.556618
  C 2.478575 1.090939 2.766183
  C 3.411753 1.540824 3.885731
  C 3.137986 -0.328979 -0.768376
  C 4.455039 -0.426273 -1.011087
  C 5.071941 -0.851586 -2.071318
  C 4.606576 -1.379260 -3.386685
  C 3.123235 -1.510203 -3.713866
  H 2.990193 -1.905476 -4.699242
  O 6.298189 -0.821693 -1.997113
  H 3.929431 1.420439 1.231023
  H 3.929628 -0.208789 1.885604
  H 1.839749 0.290691 3.145329
  H 1.839600 1.930977 2.486343
  H 4.047843 0.722358 4.217103
  H 2.833623 1.884253 4.740740
  H 4.047658 2.361155 3.558678
  H 2.491704 -0.649960 -1.567663
  H 5.092358 -0.099427 -0.196960
  H 5.073010 -2.364428 -3.502981
  H 5.073370 -0.747871 -4.151626
  H 2.638322 -0.533874 -3.670999
  H 2.637931 -2.186005 -3.008193
  H 6.587379 -0.454232 -1.080899
 26
 0.000000
  H 1.483940 0.115068 0.337569
  C 2.553647 0.124531 0.360806
  C 3.308880 0.601313 1.547289
  C 2.500275 1.083999 2.748906
  C 3.420503 1.537572 3.877648
  C 3.200367 -0.333198 -0.778918
  C 4.465010 -0.440228 -1.045907
  C 5.028385 -0.841608 -2.046478
  C 4.594409 -1.372985 -3.371056
  C 3.119203 -1.516098 -3.728534
  H 3.009623 -1.912371 -4.716396
  O 6.154383 -0.789702 -1.917406
  H 3.964963 1.419314 1.228205
  H 3.965160 -0.209916 1.882783
  H 1.860914 0.281202 3.121709
  H 1.860764 1.921490 2.462727
  H 4.056532 0.721640 4.215326
  H 2.832556 1.878675 4.726875
  H 4.056347 2.360439 3.556905
  H 2.563328 -0.656736 -1.584571
  H 5.120288 -0.118338 -0.244154
  H 5.071215 -2.354274 -3.477691
  H 5.071561 -0.737716 -4.126333
  H 2.625499 -0.543792 -3.695691
  H 2.625124 -2.195925 -3.032888
  H 6.347524 -0.389662 -0.919956
 26
 0.000000
  H 1.531750 0.104791 0.311952
  C 2.601113 0.118676 0.346199
  C 3.342115 0.598546 1.540386
  C 2.519195 1.077853 2.733608
  C 3.425873 1.535199 3.871756
  C 3.261418 -0.336346 -0.786800
  C 4.483652 -0.453204 -1.078288
  C 4.995196 -0.833794 -2.027029
  C 4.585698 -1.367866 -3.358302
  C 3.117294 -1.520366 -3.739145
  H 3.025938 -1.917284 -4.728602
  O 6.020032 -0.766326 -1.859164
  H 3.998061 1.419261 1.228059
  H 3.998256 -0.209971 1.882631
  H 1.879355 0.272410 3.099823
  H 1.879206 1.912701 2.440848
  H 4.061760 0.721895 4.215977
  H 2.827810 1.873846 4.714881
  H 4.061577 2.360696 3.557561
  H 2.634049 -0.662497 -1.598962
  H 5.158372 -0.136926 -0.290546
  H 5.070385 -2.346089 -3.457302
  H 5.070720 -0.729531 -4.105944
  H 2.616939 -0.551230 -3.714195
  H 2.616578 -2.203363 -3.051393
  H 6.102624 -0.334310 -0.781983
 26
 0.000000
  H 1.577183 0.095559 0.288930
  C 2.646056 0.113993 0.334507
  C 3.372313 0.596979 1.536473
  C 2.534761 1.072748 2.720899
  C 3.427373 1.533916 3.868584
  C 3.320261 -0.338184 -0.791423
  C 4.511827 -0.464703 -1.106989
  C 4.974431 -0.828598 -2.014104
  C 4.580842 -1.364335 -3.349501
  C 3.117069 -1.522891 -3.745408
  H 3.037525 -1.920167 -4.735741
  O 5.897699 -0.752050 -1.823593
  H 4.028034 1.420486 1.231100
  H 4.028224 -0.208748 1.885666
  H 1.894509 0.264580 3.080327
  H 1.894365 1.904873 2.421358
  H 4.063033 0.723315 4.219538
  H 2.818973 1.869992 4.705318
  H 4.062854 2.362119 3.561129
  H 2.702927 -0.666982 -1.610181
  H 5.206867 -0.154582 -0.334613
  H 5.070556 -2.340547 -3.443491
  H 5.070880 -0.723991 -4.092137
  H 2.612487 -0.555830 -3.725625
  H 2.612138 -2.207960 -3.062818
  H 5.855188 -0.289782 -0.670981
 26
 0.000000
  H 1.619238 0.087761 0.269471
  C 2.687470 0.110797 0.326516
  C 3.398699 0.596873 1.536199
  C 2.546441 1.068997 2.711560
  C 3.424690 1.533973 3.868752
  C 3.375663 -0.338440 -0.792106
  C 4.549551 -0.473853 -1.129834
  C 4.967944 -0.826649 -2.009269
  C 4.580253 -1.362992 -3.346148
  C 3.118240 -1.523789 -3.747614
  H 3.043069 -1.921189 -4.738239
  O 5.789585 -0.747362 -1.811911
  H 4.054106 1.423205 1.237867
  H 4.054290 -0.206032 1.892427
  H 1.905855 0.258068 3.064111
  H 1.905718 1.898364 2.405149
  H 4.060032 0.726108 4.226523
  H 2.805902 1.867402 4.698903
  H 4.059860 2.364914 3.568121
  H 2.768574 -0.669874 -1.617436
  H 5.264729 -0.170144 -0.373455
  H 5.071814 -2.338454 -3.438266
  H 5.072130 -0.721901 -4.086921
  H 2.612108 -0.557501 -3.729758
  H 2.611767 -2.209628 -3.066943
  H 5.608989 -0.257502 -0.590501
 26
 0.000000
  H 1.654848 0.082158 0.255478
  C 2.722352 0.109499 0.323257
  C 3.419422 0.598409 1.540020
  C 2.553497 1.067064 2.706749
  C 3.418189 1.535549 3.872702
  C 3.423559 -0.336932 -0.788385
  C 4.593097 -0.478944 -1.142554
  C 4.976515 -0.828764 -2.014555
  C 4.584010 -1.364630 -3.350219
  C 3.120559 -1.523612 -3.747143
  H 3.041818 -1.920922 -4.737527
  O 5.702701 -0.752397 -1.824451
  H 4.074458 1.427385 1.248277
  H 4.074631 -0.201855 1.902831
  H 1.912674 0.253550 3.052856
  H 1.912546 1.893848 2.393900
  H 4.053155 0.730243 4.236854
  H 2.789749 1.866460 4.696587
  H 4.052994 2.369052 3.578457
  H 2.826137 -0.670793 -1.619769
  H 5.325691 -0.181044 -0.400668
  H 5.074070 -2.340702 -3.443856
  H 5.074380 -0.724153 -4.092521
  H 2.615684 -0.556696 -3.727723
  H 2.615349 -2.208819 -3.064898
  H 5.382686 -0.238962 -0.544269
 26
 0.000000
  H 1.680914 0.079241 0.248184
  C 2.747726 0.110121 0.324787
  C 3.433086 0.601318 1.547267
  C 2.555996 1.067081 2.706792
  C 3.409460 1.538411 3.879850
  C 3.459576 -0.333966 -0.781015
  C 4.634114 -0.478793 -1.142194
  C 4.995980 -0.834868 -2.029776
  C 4.590588 -1.369409 -3.362119
  C 3.123362 -1.523503 -3.746848
  H 3.035058 -1.920539 -4.736536
  O 5.644246 -0.764657 -1.854994
  H 4.087761 1.432466 1.260941
  H 4.087923 -0.196775 1.915492
  H 1.915033 0.251442 3.047598
  H 1.914916 1.891742 2.388645
  H 4.044061 0.735209 4.249248
  H 2.773136 1.867223 4.698507
  H 4.043910 2.374019 3.590854
  H 2.870158 -0.669794 -1.617306
  H 5.378725 -0.185054 -0.410684
  H 5.076593 -2.347110 -3.459813
  H 5.076899 -0.730565 -4.108488
  H 2.621896 -0.554908 -3.723246
  H 2.621564 -2.207027 -3.060410
  H 5.203640 -0.231916 -0.526683
 26
 0.000000
  H 1.699927 0.078529 0.246388
  C 2.766083 0.112411 0.330486
  C 3.441450 0.605524 1.557749
  C 2.554923 1.068802 2.711077
  C 3.398793 1.542522 3.890101
  C 3.486935 -0.329657 -0.770283
  C 4.670341 -0.473762 -1.129660
  C 5.021927 -0.844775 -2.054469
  C 4.598188 -1.377345 -3.381887
  C 3.125773 -1.524434 -3.749152
  H 3.023824 -1.921021 -4.737710
  O 5.609012 -0.781915 -1.897989
  H 4.095777 1.438515 1.276023
  H 4.095928 -0.190726 1.930573
  H 1.913880 0.251358 3.047377
  H 1.913775 1.891658 2.388426
  H 4.033041 0.741105 4.263957
  H 2.755807 1.869532 4.704264
  H 4.032902 2.379916 3.605564
  H 2.904356 -0.667135 -1.610693
  H 5.422344 -0.182647 -0.404691
  H 5.078333 -2.357349 -3.485320
  H 5.078637 -0.740807 -4.134003
  H 2.629244 -0.553460 -3.719622
  H 2.628913 -2.205576 -3.056777
  H 5.065906 -0.230367 -0.522798
 26
 0.000000
  H 1.713692 0.080176 0.250475
  C 2.779190 0.116828 0.341486
  C 3.445300 0.611683 1.573099
  C 2.550111 1.072648 2.720651
  C 3.385084 1.548548 3.905119
  C 3.508312 -0.323358 -0.754582
  C 4.702391 -0.463812 -1.104853
  C 5.053704 -0.859880 -2.092112
  C 4.605918 -1.389719 -3.412717
  C 3.127038 -1.527548 -3.756899
  H 3.007151 -1.923441 -4.743725
  O 5.595895 -0.804764 -1.954917
  H 4.099276 1.446373 1.295616
  H 4.099413 -0.182867 1.950167
  H 1.909026 0.253538 3.052793
  H 1.908934 1.893838 2.393841
  H 4.018974 0.748778 4.283087
  H 2.735984 1.873880 4.715092
  H 4.018849 2.387588 3.624693
  H 2.932074 -0.662342 -1.598750
  H 5.458349 -0.174122 -0.383434
  H 5.078228 -2.372713 -3.523599
  H 5.078530 -0.756174 -4.172290
  H 2.637134 -0.553478 -3.719654
  H 2.636803 -2.205590 -3.056801
  H 4.963259 -0.229712 -0.521138
 26
 0.000000
  H 1.721809 0.085497 0.263713
  C 2.786606 0.124873 0.361532
  C 3.443561 0.621423 1.597375
  C 2.539878 1.080088 2.739176
  C 3.366042 1.558114 3.928953
  C 3.523844 -0.313438 -0.729847
  C 4.731382 -0.448312 -1.066201
  C 5.093438 -0.883743 -2.151575
  C 4.613312 -1.409643 -3.462360
  C 3.126357 -1.534874 -3.775148
  H 2.982249 -1.929648 -4.759181
  O 5.611963 -0.836569 -2.034163
  H 4.097160 1.457785 1.324070
  H 4.097281 -0.171454 1.978624
  H 1.898780 0.259339 3.067221
  H 1.898704 1.899637 2.408266
  H 3.999546 0.759967 4.310974
  H 2.710947 1.881780 4.734757
  H 3.999438 2.398775 3.652577
  H 2.953884 -0.653889 -1.577679
  H 5.488974 -0.159217 -0.346258
  H 5.074803 -2.396604 -3.583127
  H 5.075106 -0.780069 -4.231826
  H 2.645642 -0.556681 -3.727629
  H 2.645308 -2.208789 -3.064767
  H 4.900139 -0.225280 -0.510056
 26
 0.000000
  H 1.722159 0.095085 0.287581
  C 2.786278 0.136923 0.391557
  C 3.434926 0.634984 1.631174
  C 2.523596 1.091554 2.767726
  C 3.341757 1.571484 3.962257
  C 3.530827 -0.299678 -0.695537
  C 4.753761 -0.429499 -1.019280
  C 5.136179 -0.915362 -2.230359
  C 4.618623 -1.436317 -3.528822
  C 3.123222 -1.546760 -3.804764
  H 2.950939 -1.939967 -4.784891
  O 5.660081 -0.875503 -2.131176
  H 4.088158 1.472857 1.361647
  H 4.088261 -0.156380 2.016205
  H 1.882511 0.269323 3.092065
  H 1.882453 1.909620 2.433107
  H 3.974886 0.774802 4.347942
  H 2.681266 1.893630 4.764257
  H 3.974796 2.413609 3.689541
  H 2.966569 -0.641442 -1.546648
  H 5.511916 -0.140613 -0.299846
  H 5.067182 -2.427792 -3.660833
  H 5.067488 -0.811260 -4.309540
  H 2.653549 -0.563853 -3.745502
  H 2.653210 -2.215958 -3.082631
  H 4.889015 -0.213342 -0.480263
 26
 0.000000
  H 1.719135 0.106174 0.315192
  C 2.782544 0.150444 0.425250
  C 3.422953 0.649982 1.668551
  C 2.504098 1.104462 2.799870
  C 3.314317 1.586257 3.999056
  C 3.534293 -0.284449 -0.657565
  C 4.769343 -0.409862 -0.970301
  C 5.173267 -0.946854 -2.308822
  C 4.620136 -1.462715 -3.594594
  C 3.117626 -1.558891 -3.834993
  H 2.918419 -1.950331 -4.810718
  O 5.716194 -0.913717 -2.226393
  H 4.075799 1.489347 1.402756
  H 4.075884 -0.139889 2.057319
  H 1.863050 0.280766 3.120546
  H 1.863010 1.921062 2.461583
  H 3.947050 0.791022 4.388361
  H 2.648516 1.906888 4.797263
  H 3.946977 2.429827 3.729956
  H 2.975692 -0.627499 -1.511885
  H 5.527697 -0.121053 -0.251046
  H 5.055985 -2.458399 -3.737092
  H 5.056295 -0.841870 -4.385807
  H 2.658864 -0.571565 -3.764722
  H 2.658518 -2.223667 -3.101844
  H 4.896633 -0.197433 -0.440573
 26
 0.000000
  H 1.714760 0.118094 0.344873
  C 2.777338 0.165050 0.461646
  C 3.408617 0.666198 1.708962
  C 2.481489 1.118348 2.834450
  C 3.282897 1.602181 4.038725
  C 3.537008 -0.267935 -0.616396
  C 4.780873 -0.388652 -0.917401
  C 5.204623 -0.976490 -2.382659
  C 4.617559 -1.487124 -3.655411
  C 3.109127 -1.569494 -3.861419
  H 2.884104 -1.958990 -4.832301
  O 5.770893 -0.950188 -2.317265
  H 4.061006 1.507211 1.447288
  H 4.061072 -0.122023 2.101854
  H 1.840511 0.293033 3.151078
  H 1.840489 1.933327 2.492112
  H 3.915165 0.808545 4.432027
  H 2.611259 1.921125 4.832707
  H 3.915111 2.447349 3.773618
  H 2.984684 -0.612390 -1.474224
  H 5.539061 -0.099787 -0.197993
  H 5.040893 -2.486748 -3.807724
  H 5.041207 -0.870223 -4.456446
  H 2.661161 -0.578010 -3.780790
  H 2.660807 -2.230109 -3.117903
  H 4.901589 -0.179572 -0.396021
