 20
 0.000000
  C 0.968612 0.175964 0.488630
  C 2.422621 0.112515 0.331476
  H 3.050877 0.440232 1.147018
  C 3.003801 -0.351935 -0.824526
  C 4.388102 -0.418430 -0.991036
  C 5.110025 -0.862541 -2.099001
  C 4.649780 -1.388864 -3.411332
  C 3.170693 -1.520019 -3.737731
  H 3.072283 -1.922130 -4.740579
  O 6.425196 -0.841413 -2.047273
  H 0.669141 0.565021 1.456545
  H 0.531905 -0.815859 0.351992
  H 0.532206 0.797609 -0.296383
  H 2.362287 -0.673576 -1.625218
  H 4.980217 -0.079631 -0.147582
  H 5.127842 -2.368964 -3.524044
  H 5.127586 -0.758108 -4.170093
  H 2.673168 -0.554057 -3.717992
  H 2.673528 -2.204914 -3.056090
  H 6.799285 -0.506502 -1.210123
 20
 0.002604
  C 0.969502 0.143764 0.524797
  C 2.412717 0.157356 0.292337
  H 3.046906 0.627754 1.031667
  C 2.989328 -0.395775 -0.827043
  C 4.373689 -0.394081 -1.013332
  C 5.111674 -0.894330 -2.087012
  C 4.656350 -1.395534 -3.410672
  C 3.179336 -1.464708 -3.761107
  H 3.089879 -1.797420 -4.792783
  O 6.420743 -0.944008 -1.996214
  H 0.695430 0.625132 1.457027
  H 0.596160 -0.883041 0.519737
  H 0.447967 0.629310 -0.303465
  H 2.350155 -0.862677 -1.555225
  H 4.956308 0.028038 -0.200871
  H 5.109169 -2.385297 -3.537574
  H 5.169127 -0.766742 -4.149013
  H 2.704521 -0.490398 -3.687693
  H 2.654260 -2.187198 -3.142904
  H 6.794383 -0.620045 -1.152800
 20
 0.789514
  C 0.971468 0.086742 0.502604
  C 2.404986 0.218088 0.244607
  H 2.990340 0.851539 0.897581
  C 3.030893 -0.416031 -0.801296
  C 4.408092 -0.336123 -1.014080
  C 5.116567 -0.932753 -2.058101
  C 4.632458 -1.392087 -3.387689
  C 3.156987 -1.371210 -3.750781
  H 3.063694 -1.638761 -4.800595
  O 6.417940 -1.079433 -1.965243
  H 0.654037 0.650169 1.373086
  H 0.705093 -0.965056 0.629197
  H 0.399742 0.413284 -0.369403
  H 2.463575 -1.057283 -1.453720
  H 4.993777 0.187928 -0.267143
  H 5.037618 -2.397130 -3.546998
  H 5.177342 -0.762861 -4.103086
  H 2.725364 -0.383032 -3.620334
  H 2.588850 -2.103968 -3.185436
  H 6.817196 -0.744829 -1.139569
 20
 2.771360
  C 0.985911 -0.001503 0.536199
  C 2.377838 0.261291 0.165055
  H 2.895512 1.073514 0.655332
  C 3.041639 -0.470639 -0.789770
  C 4.388363 -0.268152 -1.092622
  C 5.118934 -0.982914 -2.052775
  C 4.643597 -1.406722 -3.393880
  C 3.179484 -1.237954 -3.761973
  H 3.063896 -1.447082 -4.821689
  O 6.384472 -1.254969 -1.871101
  H 0.645860 0.641038 1.342387
  H 0.857225 -1.048142 0.819302
  H 0.334545 0.138539 -0.329881
  H 2.538639 -1.306360 -1.253143
  H 4.938182 0.443942 -0.483856
  H 4.962824 -2.439173 -3.564236
  H 5.252779 -0.809423 -4.084697
  H 2.836678 -0.223552 -3.577956
  H 2.543348 -1.936686 -3.225770
  H 6.777915 -0.903624 -1.044852
 20
 7.793537
  C 1.014684 -0.135225 0.585001
  C 2.353539 0.262632 0.127706
  H 2.780224 1.178550 0.516910
  C 3.083897 -0.481218 -0.775006
  C 4.373709 -0.160417 -1.175577
  C 5.092739 -1.013221 -2.043749
  C 4.634938 -1.406824 -3.398386
  C 3.205228 -1.080552 -3.801665
  H 3.077517 -1.312152 -4.855424
  O 6.280525 -1.438401 -1.758009
  H 0.626095 0.535619 1.343646
  H 1.026077 -1.155754 0.970577
  H 0.322183 -0.151311 -0.259734
  H 2.711605 -1.438241 -1.111225
  H 4.869841 0.704594 -0.759897
  H 4.851312 -2.467181 -3.560889
  H 5.323929 -0.867206 -4.060688
  H 2.982979 -0.027402 -3.655396
  H 2.483244 -1.671278 -3.249120
  H 6.686324 -1.066162 -0.943540
 20
 15.432101
  C 1.072362 -0.272868 0.625857
  C 2.340251 0.259423 0.104324
  H 2.670595 1.232598 0.438566
  C 3.129679 -0.439165 -0.774886
  C 4.363989 -0.029903 -1.262408
  C 5.026057 -1.039901 -2.024177
  C 4.616453 -1.394174 -3.401746
  C 3.231477 -0.947574 -3.848466
  H 3.106607 -1.174404 -4.903232
  O 6.110389 -1.616036 -1.621976
  H 0.625989 0.391475 1.358540
  H 1.215251 -1.258818 1.069475
  H 0.364231 -0.413206 -0.193761
  H 2.889148 -1.464476 -1.036410
  H 4.820485 0.916897 -1.027402
  H 4.750499 -2.467159 -3.565706
  H 5.376508 -0.895204 -4.016597
  H 3.095836 0.121272 -3.710394
  H 2.450835 -1.468819 -3.304449
  H 6.532363 -1.250082 -0.816593
 20
 26.633221
  C 1.169190 -0.442441 0.687182
  C 2.340911 0.246580 0.120708
  H 2.577623 1.264648 0.458519
  C 3.186924 -0.345377 -0.800576
  C 4.367995 0.118508 -1.334247
  C 4.897881 -1.052926 -1.984173
  C 4.579284 -1.369498 -3.403627
  C 3.250271 -0.815991 -3.944935
  H 3.174192 -1.026802 -5.012847
  O 5.841290 -1.762185 -1.489725
  H 0.668640 0.157765 1.441160
  H 1.439348 -1.401515 1.105609
  H 0.441280 -0.647516 -0.118016
  H 3.054670 -1.393343 -1.065610
  H 4.843185 1.055637 -1.162075
  H 4.632030 -2.453903 -3.567990
  H 5.434776 -0.908098 -3.946317
  H 3.170490 0.255422 -3.804416
  H 2.404280 -1.295973 -3.455116
  H 6.326364 -1.414776 -0.691416
 20
 39.403342
  C 1.196839 -0.572458 0.548590
  C 2.402697 0.194561 0.170047
  H 2.598138 1.141165 0.654430
  C 3.311283 -0.228994 -0.758211
  C 4.465578 0.234102 -1.357540
  C 4.798857 -1.055426 -1.927948
  C 4.474718 -1.364904 -3.348959
  C 3.200892 -0.733408 -3.882802
  H 3.082769 -0.993036 -4.928353
  O 5.756600 -1.780380 -1.444762
  H 0.662350 -0.088807 1.365360
  H 1.452242 -1.593840 0.847795
  H 0.522675 -0.662226 -0.302787
  H 3.260674 -1.333794 -1.089945
  H 5.002765 1.157041 -1.320614
  H 4.453700 -2.445957 -3.489509
  H 5.339412 -0.986805 -3.901872
  H 3.235139 0.347560 -3.805130
  H 2.327198 -1.097781 -3.347316
  H 6.278264 -1.383331 -0.711635
 20
 52.334322
  C 1.277877 -0.677508 0.421710
  C 2.428807 0.200934 0.140800
  H 2.538115 1.121471 0.699678
  C 3.414920 -0.064398 -0.752765
  C 4.553872 0.332528 -1.391343
  C 4.707990 -1.051636 -1.840177
  C 4.372680 -1.381606 -3.275115
  C 3.144511 -0.665477 -3.813045
  H 2.997820 -0.938451 -4.853812
  O 5.656474 -1.822910 -1.342561
  H 0.671807 -0.281533 1.231287
  H 1.600559 -1.686461 0.679922
  H 0.648344 -0.774979 -0.468271
  H 3.464692 -1.276565 -1.139958
  H 5.134135 1.224969 -1.486130
  H 4.251768 -2.463212 -3.362576
  H 5.257929 -1.101734 -3.849222
  H 3.260274 0.410841 -3.758128
  H 2.249929 -0.953615 -3.263794
  H 6.223089 -1.400944 -0.669105
 20
 58.495650
  C 1.290886 -0.658575 0.317946
  C 2.468942 0.213565 0.187183
  H 2.585556 1.040602 0.881285
  C 3.465360 0.083617 -0.699456
  C 4.554624 0.370842 -1.409666
  C 4.664405 -1.071447 -1.788769
  C 4.341885 -1.396803 -3.244342
  C 3.087475 -0.704784 -3.759666
  H 2.943502 -0.956433 -4.807118
  O 5.686530 -1.810114 -1.287197
  H 0.675685 -0.367251 1.161950
  H 1.584270 -1.704301 0.428695
  H 0.685321 -0.608840 -0.590233
  H 3.632342 -1.359284 -1.195618
  H 5.137235 1.236066 -1.639075
  H 4.247644 -2.479679 -3.334815
  H 5.212123 -1.086472 -3.827262
  H 3.169738 0.375870 -3.679735
  H 2.206207 -1.033310 -3.212180
  H 6.254084 -1.330488 -0.661998
 20
 52.821839
  C 1.249361 -0.532576 0.274524
  C 2.488488 0.255332 0.266360
  H 2.643489 0.972722 1.071576
  C 3.480694 0.191964 -0.607116
  C 4.512456 0.321251 -1.397323
  C 4.682739 -1.147449 -1.770385
  C 4.401467 -1.393774 -3.257814
  C 3.081429 -0.791127 -3.715108
  H 2.950263 -0.977869 -4.777028
  O 5.845068 -1.760217 -1.343484
  H 0.637812 -0.304925 1.140704
  H 1.470628 -1.600804 0.251070
  H 0.671093 -0.328380 -0.631657
  H 3.785162 -1.567398 -1.209889
  H 5.110209 1.155874 -1.705934
  H 4.397720 -2.472872 -3.407356
  H 5.231959 -0.965914 -3.823352
  H 3.061122 0.284302 -3.559304
  H 2.244637 -1.244110 -3.189866
  H 6.349366 -1.233555 -0.706751
 20
 43.987631
  C 1.219184 -0.424284 0.168753
  C 2.482859 0.305820 0.330526
  H 2.604800 0.909049 1.229662
  C 3.517773 0.300361 -0.490425
  C 4.469783 0.250254 -1.366098
  C 4.705622 -1.215799 -1.774746
  C 4.412251 -1.393115 -3.267430
  C 3.028560 -0.892781 -3.652236
  H 2.874554 -1.028887 -4.719074
  O 5.950154 -1.722878 -1.416539
  H 0.563530 -0.281771 1.019833
  H 1.403284 -1.487915 0.011549
  H 0.711672 -0.079180 -0.737168
  H 3.900049 -1.738193 -1.222641
  H 5.063934 1.047973 -1.776740
  H 4.508330 -2.457170 -3.487102
  H 5.180778 -0.865586 -3.835745
  H 2.920195 0.166233 -3.427311
  H 2.256440 -1.449029 -3.126773
  H 6.421580 -1.165160 -0.782271
 20
 37.208115
  C 1.094423 -0.194667 0.119232
  C 2.450084 0.296964 0.419941
  H 2.623666 0.722927 1.404436
  C 3.477424 0.261357 -0.403372
  C 4.411294 0.138789 -1.286535
  C 4.789745 -1.256343 -1.804074
  C 4.451713 -1.376716 -3.292132
  C 2.986305 -1.094897 -3.586332
  H 2.804144 -1.184923 -4.653234
  O 6.130851 -1.546492 -1.602647
  H 0.435044 -0.092108 0.973259
  H 1.121961 -1.233807 -0.210384
  H 0.686795 0.366836 -0.725902
  H 4.135515 -1.941627 -1.244920
  H 4.981853 0.959538 -1.697649
  H 4.706892 -2.392330 -3.601173
  H 5.098263 -0.698692 -3.851220
  H 2.716784 -0.087559 -3.276070
  H 2.342121 -1.804801 -3.074526
  H 6.509727 -1.072805 -0.847866
 20
 34.525201
  C 1.032666 -0.025156 -0.023168
  C 2.424402 0.254348 0.381971
  H 2.592832 0.547988 1.413936
  C 3.477208 0.190484 -0.401991
  C 4.478031 0.081994 -1.213307
  C 4.930020 -1.227708 -1.849603
  C 4.408402 -1.360338 -3.286414
  C 2.894940 -1.265549 -3.386232
  H 2.593949 -1.347542 -4.426499
  O 6.306654 -1.367029 -1.858004
  H 0.347241 0.090239 0.808436
  H 0.942711 -1.028250 -0.440812
  H 0.748398 0.656472 -0.828253
  H 4.453761 -2.019915 -1.248623
  H 5.071314 0.941072 -1.504371
  H 4.748103 -2.325586 -3.667106
  H 4.888916 -0.592869 -3.895362
  H 2.540960 -0.313082 -2.998426
  H 2.414709 -2.069314 -2.834321
  H 6.726309 -0.992695 -1.068269
 20
 34.356052
  C 0.991766 0.083444 -0.206631
  C 2.385578 0.172672 0.284422
  H 2.514274 0.318068 1.353991
  C 3.478541 0.104736 -0.429589
  C 4.575658 0.039224 -1.126043
  C 5.024823 -1.200931 -1.863013
  C 4.352885 -1.366860 -3.238532
  C 2.836623 -1.335077 -3.194321
  H 2.446053 -1.387756 -4.206500
  O 6.391707 -1.298442 -2.033400
  H 0.281686 0.221582 0.600491
  H 0.813289 -0.878712 -0.686480
  H 0.826427 0.844011 -0.971553
  H 4.648280 -2.024865 -1.226864
  H 5.221577 0.904521 -1.220117
  H 4.692876 -2.318553 -3.651109
  H 4.743274 -0.581935 -3.889246
  H 2.483609 -0.415193 -2.733337
  H 2.440205 -2.181023 -2.638661
  H 6.894188 -0.811322 -1.362876
