 15
 0.000000
  H 1.327131 0.046395 0.078979
  C 2.401942 0.053477 0.004995
  C 3.174232 -0.025793 1.288429
  H 2.539747 -0.065370 2.165805
  C 3.015655 0.128580 -1.165755
  C 2.398384 0.212874 -2.529522
  C 0.875550 0.199064 -2.569334
  H 0.533043 0.261691 -3.597062
  H 4.098678 0.131354 -1.191441
  H 3.826760 0.842750 1.381167
  H 3.814247 -0.909167 1.282905
  H 2.780486 -0.622102 -3.129077
  H 2.762427 1.127512 -3.012822
  H 0.468262 1.044324 -2.020066
  H 0.487865 -0.718543 -2.133674
 15
 -0.336403
  H 1.343382 0.143530 0.068999
  C 2.418414 0.080570 -0.007248
  C 3.177086 -0.015725 1.283269
  H 2.521258 -0.278150 2.108985
  C 3.023235 0.090712 -1.182107
  C 2.403863 0.184224 -2.542935
  C 0.880953 0.213278 -2.555674
  H 0.516790 0.266333 -3.579326
  H 4.106333 0.029862 -1.207689
  H 3.653331 0.936806 1.517323
  H 3.960559 -0.768462 1.202250
  H 2.755309 -0.666355 -3.136557
  H 2.787191 1.086110 -3.032616
  H 0.509033 1.080458 -2.015155
  H 0.477690 -0.684949 -2.093964
 15
 -0.755159
  H 1.365866 0.280624 0.066097
  C 2.432089 0.127966 -0.011310
  C 3.176021 -0.005669 1.281480
  H 2.549916 -0.472592 2.038982
  C 3.029365 0.057033 -1.188092
  C 2.402667 0.160199 -2.545534
  C 0.880538 0.218447 -2.546227
  H 0.508764 0.261402 -3.567725
  H 4.106435 -0.068484 -1.219201
  H 3.484364 0.970854 1.655152
  H 4.063226 -0.619087 1.135197
  H 2.733043 -0.699568 -3.137372
  H 2.798750 1.052960 -3.041806
  H 0.528571 1.101431 -2.018191
  H 0.465016 -0.663868 -2.065042
 15
 -0.543628
  H 1.411123 0.493328 0.063721
  C 2.451428 0.212428 -0.012295
  C 3.173998 0.002110 1.281243
  H 2.594800 -0.658467 1.927250
  C 3.031325 0.038773 -1.185885
  C 2.396720 0.136959 -2.542205
  C 0.874643 0.206324 -2.535511
  H 0.497771 0.231749 -3.556088
  H 4.100063 -0.137753 -1.225343
  H 3.331751 0.937568 1.815486
  H 4.128948 -0.483786 1.077897
  H 2.716343 -0.733715 -3.123848
  H 2.795821 1.019507 -3.054884
  H 0.529525 1.101877 -2.024316
  H 0.456481 -0.662953 -2.032893
 15
 3.879061
  H 1.530417 0.849077 0.032864
  C 2.483381 0.345327 -0.024244
  C 3.154366 0.000867 1.264999
  H 2.574006 -0.783123 1.759147
  C 3.049194 0.044053 -1.183246
  C 2.393304 0.131029 -2.532627
  C 0.870334 0.138727 -2.500033
  H 0.474834 0.145809 -3.513453
  H 4.119566 -0.111587 -1.233400
  H 3.253830 0.833898 1.952862
  H 4.098488 -0.467357 1.002930
  H 2.734509 -0.730294 -3.115476
  H 2.749317 1.024867 -3.057981
  H 0.495092 1.018377 -1.983895
  H 0.498403 -0.746646 -1.989708
 15
 15.795405
  H 1.631201 1.140179 0.038642
  C 2.479281 0.475508 -0.011871
  C 3.132868 -0.011783 1.239575
  H 2.542111 -0.850548 1.626115
  C 3.045853 0.081486 -1.152865
  C 2.399194 0.127455 -2.513179
  C 0.877321 0.061266 -2.473864
  H 0.476966 -0.015825 -3.482608
  H 4.124187 0.031426 -1.219662
  H 3.259980 0.712309 2.033266
  H 3.999014 -0.537344 0.839386
  H 2.785217 -0.719629 -3.087242
  H 2.707996 1.033955 -3.048728
  H 0.462194 0.955018 -2.015477
  H 0.550644 -0.803393 -1.901216
 15
 36.421305
  H 1.716153 1.373966 0.054333
  C 2.470597 0.606942 0.004152
  C 3.089156 -0.027652 1.207201
  H 2.515159 -0.909028 1.524700
  C 3.053436 0.142681 -1.117307
  C 2.416496 0.117815 -2.487438
  C 0.898610 -0.017395 -2.443098
  H 0.491402 -0.072649 -3.451110
  H 4.127907 0.238573 -1.195486
  H 3.283059 0.605669 2.060204
  H 3.817913 -0.625145 0.619378
  H 2.845769 -0.725193 -3.035534
  H 2.682257 1.025452 -3.045363
  H 0.452420 0.844139 -1.951478
  H 0.611824 -0.912341 -1.895869
 15
 64.345864
  H 1.774058 1.537761 0.083344
  C 2.471491 0.717304 0.035607
  C 3.009241 -0.038468 1.167288
  H 2.530534 -1.000132 1.364047
  C 3.074119 0.201368 -1.076976
  C 2.439742 0.116053 -2.450652
  C 0.927033 -0.057679 -2.396372
  H 0.521914 -0.185570 -3.398144
  H 4.141511 0.348736 -1.170050
  H 3.202317 0.485075 2.096363
  H 3.682436 -0.642665 0.318715
  H 2.887208 -0.731534 -2.977106
  H 2.684064 1.013761 -3.033480
  H 0.456537 0.815337 -1.951815
  H 0.666543 -0.929562 -1.801265
 15
 79.905053
  H 1.846284 1.632657 0.087452
  C 2.497788 0.772849 0.060333
  C 2.914721 -0.012152 1.151997
  H 2.493337 -1.000164 1.269641
  C 3.119849 0.198813 -1.069653
  C 2.458528 0.100036 -2.431896
  C 0.947606 -0.078894 -2.341488
  H 0.518101 -0.205527 -3.332636
  H 4.185954 0.375689 -1.175051
  H 3.100448 0.443176 2.126770
  H 3.608571 -0.674985 0.019944
  H 2.892447 -0.749774 -2.967841
  H 2.687283 0.997183 -3.017745
  H 0.484564 0.787716 -1.876510
  H 0.706142 -0.956053 -1.745438
 15
 63.858943
  H 1.912938 1.685897 0.098972
  C 2.530612 0.803452 0.098927
  C 2.833432 0.024402 1.166493
  H 2.441329 -0.976267 1.203768
  C 3.179441 0.196132 -1.064288
  C 2.482551 0.074451 -2.407432
  C 0.973874 -0.093359 -2.272051
  H 0.511856 -0.201718 -3.250834
  H 4.246965 0.417720 -1.190098
  H 2.951887 0.421506 2.174733
  H 3.571878 -0.658765 -0.308492
  H 2.892161 -0.784678 -2.946006
  H 2.699427 0.962877 -3.008265
  H 0.532973 0.769155 -1.780170
  H 0.742932 -0.978087 -1.682299
 15
 37.499419
  H 2.153501 1.790029 0.058577
  C 2.628537 0.823449 0.101584
  C 2.743123 0.068549 1.192584
  H 2.407297 -0.953083 1.201549
  C 3.201910 0.116615 -1.084122
  C 2.473685 0.099505 -2.413193
  C 0.977770 -0.141717 -2.247245
  H 0.498236 -0.244635 -3.218189
  H 4.256563 0.397860 -1.236629
  H 2.777438 0.471949 2.201558
  H 3.478515 -0.795945 -0.496652
  H 2.891298 -0.702167 -3.028952
  H 2.649346 1.039888 -2.938869
  H 0.509494 0.686453 -1.720097
  H 0.802858 -1.051864 -1.678964
 15
 20.815869
  H 2.146163 1.730100 -0.029289
  C 2.646547 0.780685 0.082861
  C 2.691669 0.095224 1.221479
  H 2.550478 -0.972867 1.250067
  C 3.246292 0.089666 -1.102081
  C 2.482234 0.066893 -2.418045
  C 0.981649 -0.107658 -2.213825
  H 0.468763 -0.153091 -3.172011
  H 4.279515 0.432544 -1.251910
  H 2.578921 0.541844 2.202355
  H 3.478853 -0.892552 -0.649557
  H 2.861789 -0.743619 -3.043646
  H 2.667459 1.003302 -2.950957
  H 0.569856 0.721156 -1.643980
  H 0.779292 -1.026801 -1.667884
 15
 9.086231
  H 2.185132 1.660804 -0.085129
  C 2.662881 0.702599 0.075922
  C 2.650051 0.107582 1.263283
  H 2.757681 -0.957516 1.387338
  C 3.252412 0.008717 -1.107160
  C 2.478008 0.101633 -2.418617
  C 0.979832 -0.107781 -2.224295
  H 0.467402 -0.099642 -3.184157
  H 4.262594 0.410967 -1.247821
  H 2.419897 0.664165 2.173018
  H 3.429452 -1.015999 -0.785226
  H 2.854217 -0.662589 -3.102894
  H 2.657194 1.074963 -2.880768
  H 0.553661 0.675819 -1.603412
  H 0.792100 -1.064286 -1.740923
 15
 3.381183
  H 2.316600 1.674999 -0.119876
  C 2.700843 0.681026 0.067444
  C 2.604360 0.137917 1.266966
  H 2.780638 -0.908922 1.449634
  C 3.270059 -0.037883 -1.112660
  C 2.474010 0.132561 -2.406825
  C 0.985020 -0.126384 -2.207329
  H 0.454519 -0.044033 -3.153524
  H 4.291926 0.329200 -1.268262
  H 2.283075 0.716141 2.118440
  H 3.377006 -1.091981 -0.849008
  H 2.859117 -0.568866 -3.150501
  H 2.623271 1.142113 -2.796573
  H 0.556623 0.589409 -1.510431
  H 0.825444 -1.125861 -1.808336
 15
 1.257165
  H 2.667025 1.771354 -0.122162
  C 2.794061 0.709341 0.050346
  C 2.512464 0.190675 1.230739
  H 2.623690 -0.864322 1.425801
  C 3.293953 -0.071398 -1.124117
  C 2.454639 0.179842 -2.380580
  C 0.995738 -0.209443 -2.175755
  H 0.426829 -0.054948 -3.089898
  H 4.327271 0.228222 -1.327335
  H 2.160849 0.789062 2.053053
  H 3.291585 -1.135002 -0.881930
  H 2.870816 -0.401053 -3.207514
  H 2.516238 1.236399 -2.650563
  H 0.548332 0.388491 -1.385195
  H 0.919022 -1.257786 -1.895730
