 22
 0.000000
  C 0.931696 0.046846 0.295357
  C 2.418017 0.063754 0.062382
  C 3.237469 -0.009389 1.329696
  H 2.601086 -0.055173 2.206223
  C 3.003446 0.130421 -1.149209
  C 2.352255 0.206477 -2.515726
  C 0.838993 0.217896 -2.697526
  H 0.622912 0.276910 -3.761396
  C 4.464715 0.134929 -1.237191
  C 5.208987 0.195408 -2.337179
  H 6.284115 0.191944 -2.281565
  H 0.709713 -0.009201 1.358091
  H 0.471187 -0.816345 -0.178167
  H 0.459629 0.949250 -0.084055
  H 3.882670 0.863418 1.428754
  H 3.875375 -0.893151 1.331549
  H 2.740620 -0.642145 -3.089171
  H 2.741970 1.112551 -2.992217
  H 0.381176 1.077294 -2.218243
  H 0.379355 -0.688073 -2.315814
  H 4.997647 0.082940 -0.300178
  H 4.819894 0.250765 -3.338550
 22
 4.114913
  C 0.940307 0.065766 0.311456
  C 2.403107 0.065110 0.068104
  C 3.239802 -0.002193 1.332761
  H 2.603034 -0.067565 2.208769
  C 2.990160 0.129755 -1.145147
  C 2.338849 0.206916 -2.515221
  C 0.824974 0.232165 -2.703345
  H 0.617654 0.290778 -3.771209
  C 4.450771 0.123041 -1.231015
  C 5.198892 0.179280 -2.330841
  H 6.274002 0.170969 -2.261022
  H 0.689470 -0.023884 1.359815
  H 0.699239 -0.819284 -0.211560
  H 0.422869 0.924154 -0.094294
  H 3.862413 0.884366 1.440923
  H 3.893175 -0.872864 1.332606
  H 2.722734 -0.646782 -3.084376
  H 2.737255 1.108788 -2.992112
  H 0.373171 1.099208 -2.234158
  H 0.348885 -0.667390 -2.327402
  H 4.978326 0.069263 -0.291339
  H 4.805783 0.236347 -3.330476
 22
 11.553248
  C 0.934559 0.053504 0.286335
  C 2.401181 0.073086 0.066268
  C 3.214757 0.022434 1.338690
  H 2.556502 -0.076336 2.204244
  C 2.997788 0.132976 -1.141607
  C 2.335143 0.207504 -2.498648
  C 0.821551 0.271666 -2.656253
  H 0.594257 0.321625 -3.725141
  C 4.464907 0.109422 -1.241922
  C 5.200732 0.153355 -2.345296
  H 6.279686 0.135365 -2.283616
  H 0.648988 -0.055233 1.312363
  H 0.933839 -0.871029 -0.252451
  H 0.375399 0.836107 -0.183881
  H 3.795082 0.935927 1.466832
  H 3.900250 -0.821652 1.348512
  H 2.688498 -0.660607 -3.061850
  H 2.745497 1.092785 -2.990247
  H 0.405848 1.162010 -2.192418
  H 0.324774 -0.607001 -2.256806
  H 5.000804 0.058489 -0.312159
  H 4.797668 0.208067 -3.340868
 22
 21.286821
  C 0.915325 0.043659 0.311521
  C 2.395495 0.075909 0.072029
  C 3.222731 0.025217 1.339489
  H 2.575911 -0.094166 2.207612
  C 2.989640 0.135214 -1.138664
  C 2.332442 0.204923 -2.506348
  C 0.820722 0.298718 -2.678879
  H 0.604771 0.334710 -3.747086
  C 4.445263 0.109089 -1.232348
  C 5.185764 0.141480 -2.340597
  H 6.259881 0.120741 -2.278348
  H 0.628985 -0.068250 1.345847
  H 1.098622 -0.872067 -0.211126
  H 0.310794 0.774527 -0.198953
  H 3.784722 0.951189 1.469415
  H 3.927899 -0.805500 1.336438
  H 2.673827 -0.678599 -3.057669
  H 2.763917 1.077107 -3.008118
  H 0.423035 1.207039 -2.236483
  H 0.299851 -0.559911 -2.268549
  H 4.980337 0.065949 -0.295877
  H 4.783530 0.187718 -3.337015
 22
 31.516564
  C 0.906771 0.060205 0.325626
  C 2.392073 0.073763 0.064387
  C 3.218534 0.019345 1.336878
  H 2.573750 -0.110394 2.200785
  C 2.988039 0.134230 -1.147276
  C 2.328181 0.203403 -2.515171
  C 0.813363 0.301742 -2.680025
  H 0.590983 0.335420 -3.747854
  C 4.444064 0.106504 -1.232787
  C 5.192432 0.135992 -2.334609
  H 6.269780 0.115659 -2.263496
  H 0.611066 -0.059301 1.354539
  H 1.221705 -0.851179 -0.211446
  H 0.280130 0.764578 -0.189547
  H 3.771588 0.946754 1.473383
  H 3.930937 -0.804751 1.329730
  H 2.664741 -0.682399 -3.066276
  H 2.760571 1.072786 -3.020543
  H 0.421397 1.213326 -2.237856
  H 0.290694 -0.556094 -2.262814
  H 4.972640 0.065029 -0.291844
  H 4.797743 0.179914 -3.334279
 22
 40.168145
  C 0.900648 0.071981 0.335154
  C 2.378700 0.068368 0.063771
  C 3.203764 0.006875 1.337518
  H 2.554317 -0.125637 2.204054
  C 2.992588 0.133960 -1.147499
  C 2.339758 0.203089 -2.514198
  C 0.827867 0.308187 -2.676689
  H 0.601559 0.337372 -3.745102
  C 4.434588 0.109742 -1.234424
  C 5.173856 0.134312 -2.344033
  H 6.249250 0.119330 -2.282065
  H 0.619520 -0.040326 1.359834
  H 1.314009 -0.832014 -0.164239
  H 0.262408 0.727330 -0.221177
  H 3.751147 0.939817 1.473343
  H 3.921132 -0.817672 1.331842
  H 2.672056 -0.685846 -3.063607
  H 2.777666 1.068363 -3.024507
  H 0.445312 1.222630 -2.240464
  H 0.304674 -0.542489 -2.254514
  H 4.972965 0.077543 -0.295507
  H 4.767176 0.168524 -3.342708
 22
 46.350237
  C 0.895879 0.083009 0.348505
  C 2.371804 0.066902 0.058638
  C 3.199385 -0.007309 1.324682
  H 2.563734 -0.147732 2.186296
  C 2.988316 0.137726 -1.151448
  C 2.329348 0.205584 -2.526896
  C 0.808530 0.318263 -2.684761
  H 0.576401 0.339452 -3.752241
  C 4.450485 0.115527 -1.230096
  C 5.198078 0.131740 -2.330291
  H 6.274959 0.118038 -2.257956
  H 0.626918 0.005382 1.387983
  H 1.392802 -0.831309 -0.100117
  H 0.235894 0.674428 -0.253565
  H 3.741038 0.921107 1.463960
  H 3.916246 -0.825868 1.306537
  H 2.654869 -0.690615 -3.074473
  H 2.771303 1.066787 -3.043772
  H 0.431175 1.243939 -2.252923
  H 0.279513 -0.533451 -2.249539
  H 4.986952 0.094918 -0.284796
  H 4.803973 0.154645 -3.323810
 22
 50.956501
  C 0.887219 0.091929 0.360596
  C 2.363558 0.063170 0.054916
  C 3.199624 -0.017508 1.326620
  H 2.565998 -0.168031 2.194919
  C 2.985498 0.140143 -1.158930
  C 2.338190 0.207376 -2.527046
  C 0.826678 0.324410 -2.688762
  H 0.597976 0.340132 -3.754907
  C 4.431282 0.118409 -1.231650
  C 5.184112 0.129459 -2.333819
  H 6.262523 0.115811 -2.257735
  H 0.626253 0.041773 1.396802
  H 1.453082 -0.832916 -0.051693
  H 0.211078 0.626883 -0.268587
  H 3.740263 0.916167 1.471788
  H 3.920222 -0.830956 1.298348
  H 2.660573 -0.688938 -3.069363
  H 2.784406 1.062493 -3.043127
  H 0.452594 1.252894 -2.263693
  H 0.296890 -0.520924 -2.251807
  H 4.960293 0.105952 -0.293553
  H 4.787256 0.146430 -3.341063
 22
 54.531676
  C 0.890509 0.106496 0.368775
  C 2.363273 0.057618 0.053274
  C 3.197354 -0.029611 1.316374
  H 2.554722 -0.187469 2.195782
  C 2.988284 0.142520 -1.165304
  C 2.332893 0.211050 -2.534385
  C 0.820469 0.323906 -2.686926
  H 0.583040 0.339063 -3.754402
  C 4.437861 0.121060 -1.232549
  C 5.199919 0.125916 -2.329509
  H 6.259857 0.117245 -2.245868
  H 0.634202 0.087131 1.403335
  H 1.505307 -0.826566 -0.008144
  H 0.195315 0.588333 -0.291815
  H 3.740671 0.906569 1.465573
  H 3.917429 -0.844593 1.279639
  H 2.653352 -0.685433 -3.081604
  H 2.775216 1.070954 -3.053351
  H 0.447381 1.248785 -2.259404
  H 0.302134 -0.516103 -2.251354
  H 4.966452 0.114316 -0.284121
  H 4.818727 0.132637 -3.324828
 22
 57.495252
  C 0.893063 0.123248 0.360009
  C 2.364856 0.050504 0.054172
  C 3.201545 -0.042185 1.339998
  H 2.558927 -0.199791 2.209489
  C 2.995448 0.141539 -1.163344
  C 2.334291 0.213362 -2.542695
  C 0.815851 0.323810 -2.690637
  H 0.573412 0.341106 -3.758914
  C 4.440676 0.121056 -1.230124
  C 5.199105 0.124402 -2.328458
  H 6.278756 0.123793 -2.245689
  H 0.625485 0.127085 1.388106
  H 1.547570 -0.819249 0.017228
  H 0.201453 0.556460 -0.325454
  H 3.746827 0.889223 1.497713
  H 3.917584 -0.856211 1.306789
  H 2.653370 -0.678901 -3.093713
  H 2.772950 1.073054 -3.059942
  H 0.440556 1.249394 -2.257378
  H 0.297212 -0.526133 -2.251600
  H 4.969767 0.119290 -0.287860
  H 4.805516 0.125817 -3.342509
 22
 59.978797
  C 0.890811 0.143153 0.380398
  C 2.364226 0.043525 0.059968
  C 3.190245 -0.052232 1.318471
  H 2.552680 -0.207796 2.180661
  C 2.996763 0.141209 -1.165705
  C 2.346584 0.213096 -2.532918
  C 0.839482 0.315553 -2.687932
  H 0.606244 0.335236 -3.753655
  C 4.432827 0.125018 -1.233574
  C 5.191232 0.129135 -2.336260
  H 6.258606 0.120363 -2.258023
  H 0.626304 0.157447 1.417831
  H 1.573791 -0.813570 0.044924
  H 0.185580 0.546696 -0.319228
  H 3.735903 0.871055 1.473686
  H 3.896652 -0.865218 1.279518
  H 2.671642 -0.671775 -3.083383
  H 2.782679 1.072409 -3.042459
  H 0.456095 1.240689 -2.252535
  H 0.322650 -0.541930 -2.255233
  H 4.962902 0.125678 -0.291015
  H 4.801583 0.127877 -3.333580
 22
 62.316234
  C 0.889204 0.162934 0.386377
  C 2.356641 0.040186 0.057147
  C 3.207440 -0.058540 1.325484
  H 2.578106 -0.216511 2.196505
  C 2.988431 0.144421 -1.169606
  C 2.334541 0.216235 -2.542378
  C 0.830054 0.312246 -2.700283
  H 0.597389 0.331599 -3.773889
  C 4.430437 0.127075 -1.228806
  C 5.201857 0.129461 -2.323665
  H 6.283386 0.115161 -2.233302
  H 0.627740 0.177885 1.416827
  H 1.594215 -0.804906 0.052257
  H 0.178282 0.536231 -0.318214
  H 3.750364 0.858891 1.478543
  H 3.929959 -0.887084 1.276102
  H 2.661692 -0.661680 -3.092128
  H 2.763235 1.068779 -3.046704
  H 0.444502 1.231887 -2.267650
  H 0.316836 -0.549065 -2.268320
  H 4.950183 0.126317 -0.287099
  H 4.827218 0.123844 -3.311656
 22
 64.287864
  C 0.892280 0.191887 0.385008
  C 2.361902 0.030826 0.061481
  C 3.198067 -0.073426 1.326642
  H 2.564337 -0.224441 2.186402
  C 3.003787 0.136800 -1.165353
  C 2.345389 0.207541 -2.538206
  C 0.835125 0.302222 -2.688832
  H 0.598083 0.318060 -3.752781
  C 4.442953 0.113733 -1.229284
  C 5.208496 0.125880 -2.327592
  H 6.281624 0.153247 -2.242981
  H 0.617854 0.200773 1.418269
  H 1.612544 -0.798825 0.053669
  H 0.184540 0.544545 -0.334558
  H 3.749259 0.839690 1.484911
  H 3.905285 -0.901232 1.281181
  H 2.672020 -0.676017 -3.091914
  H 2.774452 1.065357 -3.050168
  H 0.451737 1.221218 -2.257522
  H 0.327045 -0.555917 -2.252395
  H 4.967813 0.119295 -0.292843
  H 4.822023 0.139312 -3.329898
 22
 66.121488
  C 0.890451 0.217460 0.390331
  C 2.363889 0.027381 0.059859
  C 3.207847 -0.085966 1.329298
  H 2.572579 -0.243978 2.195554
  C 3.001813 0.147871 -1.173184
  C 2.351580 0.214678 -2.540598
  C 0.839051 0.289799 -2.695770
  H 0.605435 0.302581 -3.758752
  C 4.433898 0.131896 -1.230247
  C 5.203735 0.135786 -2.328286
  H 6.276387 0.125625 -2.239850
  H 0.614812 0.208908 1.422102
  H 1.630186 -0.795844 0.048809
  H 0.183534 0.546520 -0.324328
  H 3.768434 0.835615 1.493987
  H 3.904979 -0.907470 1.275870
  H 2.693550 -0.665458 -3.094847
  H 2.774441 1.084462 -3.049915
  H 0.436866 1.212846 -2.261522
  H 0.338417 -0.577504 -2.260975
  H 4.958950 0.124059 -0.281778
  H 4.824468 0.122718 -3.324466
