 23
 0.000000
  H 1.387704 0.148699 0.423436
  C 2.466570 0.138961 0.397801
  C 3.215451 0.609744 1.566988
  H 2.589068 0.939085 2.386664
  C 3.048703 -0.328400 -0.765190
  C 4.426786 -0.412249 -0.975619
  C 5.116405 -0.864373 -2.103209
  C 4.617972 -1.385399 -3.402093
  C 3.129200 -1.505004 -3.700912
  C 2.928713 -2.068505 -5.105828
  O 6.429674 -0.855512 -2.082139
  H 3.871477 1.433961 1.276358
  H 3.872439 -0.185396 1.927816
  H 2.379023 -0.642723 -1.546385
  H 5.055478 -0.082926 -0.156351
  H 5.082965 -2.370631 -3.528459
  H 5.083376 -0.760921 -4.174337
  H 2.651338 -0.526141 -3.652586
  H 2.651056 -2.179019 -2.989614
  H 3.376151 -1.418831 -5.854233
  H 1.868693 -2.157760 -5.328791
  H 3.375999 -3.055382 -5.197810
  H 6.819820 -0.522534 -1.250752
 23
 14.731930
  H 1.428131 0.189080 0.525202
  C 2.507245 0.154665 0.437459
  C 3.292811 0.621446 1.595365
  H 2.649582 0.947790 2.407813
  C 3.021246 -0.318396 -0.739704
  C 4.446075 -0.425758 -1.008922
  C 5.037702 -0.883561 -2.151164
  C 4.618634 -1.407349 -3.457274
  C 3.141439 -1.529961 -3.763185
  C 2.947695 -2.092352 -5.165526
  O 6.273990 -0.788808 -1.915850
  H 3.947272 1.446555 1.310358
  H 3.949000 -0.169838 1.960927
  H 2.331288 -0.627791 -1.508681
  H 5.060676 -0.097763 -0.191430
  H 5.096330 -2.381491 -3.569051
  H 5.096561 -0.780746 -4.211272
  H 2.663692 -0.551513 -3.712830
  H 2.663671 -2.202478 -3.050798
  H 3.397224 -1.441390 -5.912128
  H 1.889310 -2.183327 -5.392392
  H 3.397327 -3.078783 -5.255485
  H 6.576859 -0.446355 -1.059338
 23
 54.173437
  H 1.441325 0.217286 0.593296
  C 2.519884 0.170388 0.475400
  C 3.328267 0.629078 1.616389
  H 2.697693 0.958644 2.438707
  C 3.004204 -0.307102 -0.713640
  C 4.505629 -0.430080 -1.021566
  C 4.999586 -0.896365 -2.184751
  C 4.634919 -1.426284 -3.505907
  C 3.149093 -1.549648 -3.813613
  C 2.946687 -2.113121 -5.215352
  O 6.176627 -0.742169 -1.801113
  H 3.978037 1.456859 1.322958
  H 3.979350 -0.170999 1.976220
  H 2.317760 -0.614116 -1.477530
  H 5.053486 -0.087899 -0.169079
  H 5.121401 -2.400862 -3.604374
  H 5.122044 -0.790847 -4.250932
  H 2.674092 -0.569919 -3.755592
  H 2.673786 -2.216819 -3.093870
  H 3.393551 -1.463292 -5.964930
  H 1.886296 -2.202831 -5.437446
  H 3.394252 -3.100597 -5.306696
  H 6.446980 -0.397900 -0.936084
 23
 106.165457
  H 1.427971 0.236720 0.666510
  C 2.505470 0.185063 0.517213
  C 3.340670 0.642870 1.644919
  H 2.724694 0.972488 2.480757
  C 2.957096 -0.289830 -0.672894
  C 4.595102 -0.432929 -1.028640
  C 4.967412 -0.913508 -2.223675
  C 4.638028 -1.441353 -3.539732
  C 3.154350 -1.564319 -3.852765
  C 2.956183 -2.128798 -5.256170
  O 6.130722 -0.723431 -1.758139
  H 3.982594 1.474772 1.339271
  H 3.994061 -0.162624 1.993567
  H 2.274362 -0.597991 -1.444028
  H 5.057373 -0.078637 -0.135581
  H 5.130115 -2.416342 -3.630235
  H 5.133251 -0.802576 -4.279737
  H 2.679094 -0.581606 -3.793113
  H 2.675345 -2.230209 -3.129816
  H 3.405028 -1.480574 -6.003989
  H 1.897902 -2.217530 -5.481384
  H 3.402176 -3.115572 -5.345822
  H 6.436671 -0.386523 -0.904848
 23
 133.704192
  H 1.377460 0.265543 0.717541
  C 2.454720 0.188904 0.521451
  C 3.335111 0.637275 1.641559
  H 2.745258 0.973708 2.489279
  C 2.778699 -0.278830 -0.651999
  C 4.744732 -0.448289 -1.076704
  C 4.970878 -0.922452 -2.251705
  C 4.660974 -1.452142 -3.571457
  C 3.164962 -1.564961 -3.855657
  C 2.940803 -2.126346 -5.248089
  O 6.243433 -0.702526 -1.722287
  H 3.961444 1.465922 1.322666
  H 3.960355 -0.182835 1.980956
  H 2.180666 -0.605792 -1.472157
  H 5.047968 -0.071843 -0.124559
  H 5.133174 -2.429577 -3.650554
  H 5.139005 -0.805060 -4.303995
  H 2.700307 -0.579897 -3.789721
  H 2.698806 -2.227354 -3.124546
  H 3.384684 -1.483813 -6.003885
  H 1.877860 -2.213708 -5.454198
  H 3.380963 -3.115873 -5.340517
  H 6.611643 -0.377577 -0.880828
 23
 147.129191
  H 1.250046 0.338566 0.841053
  C 2.301337 0.214084 0.583962
  C 3.250685 0.638644 1.665300
  H 2.710533 0.997796 2.534401
  C 2.570221 -0.256690 -0.592831
  C 4.955121 -0.468527 -1.131251
  C 5.049934 -0.941204 -2.310555
  C 4.714400 -1.458797 -3.609151
  C 3.213198 -1.554697 -3.853662
  C 2.927276 -2.126945 -5.228608
  O 6.409902 -0.730355 -1.804517
  H 3.894966 1.436259 1.309941
  H 3.865643 -0.198671 1.974206
  H 1.994416 -0.584735 -1.426131
  H 5.118539 -0.080330 -0.152063
  H 5.183162 -2.442269 -3.713504
  H 5.191007 -0.827978 -4.361717
  H 2.739319 -0.571514 -3.753944
  H 2.754003 -2.207042 -3.094647
  H 3.340647 -1.486156 -6.016360
  H 1.853939 -2.201387 -5.385771
  H 3.351069 -3.123473 -5.331897
  H 6.868436 -0.428375 -0.997721
 23
 150.913129
  H 1.112047 0.372516 1.018966
  C 2.143384 0.219511 0.700259
  C 3.170142 0.663749 1.717262
  H 2.692767 1.052761 2.611176
  C 2.364350 -0.269873 -0.481987
  C 5.125138 -0.479934 -1.197062
  C 5.136518 -0.955514 -2.385685
  C 4.770197 -1.475196 -3.668390
  C 3.264880 -1.577800 -3.858710
  C 2.926446 -2.137844 -5.233948
  O 6.534683 -0.724553 -1.915969
  H 3.799567 1.447262 1.298247
  H 3.799314 -0.180135 2.008595
  H 1.756286 -0.617272 -1.300825
  H 5.247931 -0.021009 -0.186893
  H 5.248959 -2.453919 -3.809967
  H 5.221038 -0.848188 -4.447115
  H 2.792975 -0.599173 -3.729716
  H 2.825169 -2.214001 -3.083303
  H 3.310973 -1.489010 -6.036749
  H 1.849155 -2.209283 -5.347715
  H 3.337312 -3.139701 -5.360424
  H 7.061886 -0.428922 -1.152776
 23
 146.751812
  H 0.999781 0.379906 1.052523
  C 2.021972 0.222261 0.668628
  C 3.096768 0.662863 1.631544
  H 2.656480 1.057921 2.539727
  C 2.207936 -0.286114 -0.507766
  C 5.368406 -0.511649 -1.257474
  C 5.199351 -1.002070 -2.408000
  C 4.833430 -1.481939 -3.684897
  C 3.288927 -1.574877 -3.755636
  C 2.876683 -2.081473 -5.127351
  O 6.756789 -0.744012 -1.920160
  H 3.707080 1.442194 1.186257
  H 3.730236 -0.178086 1.901118
  H 1.603807 -0.646564 -1.304381
  H 5.157862 -0.075919 -0.313183
  H 5.279660 -2.471412 -3.874808
  H 5.212674 -0.796832 -4.463159
  H 2.855598 -0.582517 -3.577899
  H 2.919256 -2.255215 -2.979843
  H 3.218088 -1.406469 -5.914024
  H 1.795657 -2.143633 -5.179353
  H 3.283111 -3.078453 -5.320881
  H 7.383562 -0.503989 -1.201246
 23
 131.986468
  H 1.103100 0.358907 1.083829
  C 2.104259 0.225784 0.670476
  C 3.194749 0.693477 1.594552
  H 2.775066 1.084871 2.511747
  C 2.232722 -0.308153 -0.484894
  C 5.413500 -0.517052 -1.242606
  C 4.983191 -1.024512 -2.350678
  C 4.731346 -1.466381 -3.656672
  C 3.194393 -1.622521 -3.830250
  C 2.889283 -2.103328 -5.235514
  O 6.788356 -0.666021 -1.623834
  H 3.769703 1.484435 1.124629
  H 3.853774 -0.131155 1.846142
  H 1.654343 -0.702605 -1.280216
  H 5.133681 -0.071810 -0.314397
  H 5.215894 -2.431907 -3.846465
  H 5.108615 -0.735893 -4.384968
  H 2.705980 -0.659524 -3.654400
  H 2.814410 -2.342960 -3.098373
  H 3.246770 -1.389308 -5.985276
  H 1.818913 -2.212545 -5.357611
  H 3.356772 -3.068826 -5.432123
  H 7.364296 -0.449052 -0.863362
 23
 105.094102
  H 1.411725 0.210629 0.583355
  C 2.468541 0.121027 0.283435
  C 3.395399 0.590068 1.356845
  H 2.840384 0.961173 2.209719
  C 2.601801 -0.441334 -0.860916
  C 5.537352 -0.477646 -1.141760
  C 4.791840 -0.986248 -2.079006
  C 4.415591 -1.392518 -3.397267
  C 2.936846 -1.624997 -3.754313
  C 2.798714 -2.068822 -5.199357
  O 6.887327 -0.431136 -1.111307
  H 4.020405 1.397526 0.986216
  H 4.017766 -0.234834 1.690412
  H 2.184336 -0.880880 -1.722314
  H 5.032714 -0.000113 -0.312464
  H 4.903843 -2.363321 -3.569221
  H 4.785068 -0.638137 -4.102390
  H 2.397240 -0.688044 -3.624269
  H 2.530063 -2.399226 -3.105460
  H 3.185489 -1.314935 -5.880556
  H 1.749948 -2.229025 -5.433786
  H 3.330434 -3.000575 -5.379240
  H 7.230289 -0.164710 -0.246621
