 17
 0.000000
  H 1.480461 0.169814 0.470228
  C 2.562572 0.159906 0.445469
  C 3.247719 0.641562 1.646033
  C 2.309207 1.086219 2.756219
  H 2.874110 1.431319 3.618157
  C 3.170401 -0.302075 -0.704225
  C 4.554245 -0.381186 -0.901220
  C 5.093539 -0.855636 -2.079347
  H 4.446540 -1.181787 -2.887667
  O 6.353039 -0.962555 -2.345533
  H 3.917469 1.468987 1.374984
  H 3.917622 -0.143858 2.021480
  H 1.669874 0.267035 3.077074
  H 1.669873 1.900364 2.423041
  H 2.537102 -0.629223 -1.517527
  H 5.227913 -0.065115 -0.116899
  H 6.955806 -0.671698 -1.625429
 17
 16.585383
  H 1.454231 0.173722 0.479624
  C 2.539176 0.154724 0.429968
  C 3.267045 0.636900 1.631132
  C 2.360623 1.089845 2.767404
  H 2.950628 1.429388 3.614890
  C 3.129246 -0.321513 -0.755802
  C 4.583580 -0.423017 -1.006575
  C 5.054220 -0.888441 -2.159636
  H 4.533467 -1.242985 -3.038768
  O 6.312208 -0.870041 -2.111684
  H 3.936101 1.459518 1.348395
  H 3.938528 -0.151903 1.993086
  H 1.722394 0.275593 3.103663
  H 1.719860 1.909738 2.450500
  H 2.484220 -0.644698 -1.557797
  H 5.229396 -0.101273 -0.210391
  H 6.749204 -0.545768 -1.303986
 17
 59.468777
  H 1.466776 0.178628 0.498198
  C 2.545366 0.145328 0.412616
  C 3.299436 0.614580 1.574351
  C 2.419665 1.076768 2.732768
  H 3.031617 1.413849 3.566221
  C 3.074729 -0.323650 -0.756041
  C 4.591363 -0.442954 -1.051806
  C 5.023073 -0.892692 -2.179101
  H 4.645130 -1.262798 -3.112108
  O 6.223140 -0.786840 -1.905763
  H 3.966634 1.438811 1.269704
  H 3.972931 -0.186588 1.922815
  H 1.783473 0.268314 3.085244
  H 1.777385 1.900351 2.429667
  H 2.420484 -0.640794 -1.546980
  H 5.161028 -0.105798 -0.205364
  H 6.546918 -0.450613 -1.049917
 17
 114.203143
  H 1.449133 0.164059 0.543968
  C 2.531270 0.149680 0.390602
  C 3.320863 0.643922 1.565459
  C 2.444768 1.069202 2.742509
  H 3.062038 1.412142 3.566740
  C 2.930770 -0.301317 -0.765350
  C 4.686997 -0.466854 -1.104465
  C 5.000952 -0.928595 -2.231347
  H 4.706771 -1.298459 -3.188279
  O 6.240722 -0.761500 -1.815513
  H 3.939964 1.503191 1.255947
  H 3.996094 -0.160247 1.903394
  H 1.841312 0.242310 3.096440
  H 1.784684 1.879406 2.459803
  H 2.366341 -0.629819 -1.622365
  H 5.047175 -0.114070 -0.158142
  H 6.598256 -0.460972 -0.959418
 17
 143.256863
  H 1.323383 0.222312 0.643673
  C 2.409653 0.146760 0.435056
  C 3.267339 0.616263 1.575640
  C 2.443071 1.090529 2.759559
  H 3.093453 1.423389 3.559372
  C 2.741717 -0.316159 -0.727260
  C 4.894434 -0.480085 -1.132103
  C 5.058390 -0.931639 -2.292008
  H 4.761412 -1.288439 -3.248008
  O 6.366353 -0.764274 -1.861274
  H 3.892198 1.451022 1.228748
  H 3.914240 -0.206291 1.904842
  H 1.824774 0.292909 3.146010
  H 1.807891 1.917310 2.481429
  H 2.264116 -0.655283 -1.613158
  H 5.086785 -0.107519 -0.150479
  H 6.800027 -0.474358 -1.032919
 17
 157.424903
  H 1.171416 0.277400 0.750719
  C 2.240456 0.188905 0.484580
  C 3.164068 0.638548 1.590152
  C 2.407577 1.103069 2.816535
  H 3.105575 1.416298 3.600472
  C 2.560143 -0.267021 -0.682229
  C 5.137377 -0.486580 -1.203101
  C 5.192209 -0.986774 -2.369534
  H 4.854774 -1.395314 -3.301258
  O 6.544224 -0.801555 -1.967589
  H 3.794748 1.457959 1.224247
  H 3.814537 -0.197949 1.872535
  H 1.792343 0.302092 3.217848
  H 1.768219 1.944776 2.581306
  H 2.056504 -0.600306 -1.556868
  H 5.269825 -0.173240 -0.179860
  H 7.064293 -0.482263 -1.196828
 17
 160.893705
  H 1.021258 0.349469 0.871765
  C 2.068196 0.194445 0.566267
  C 3.057907 0.616017 1.625273
  C 2.369063 1.143576 2.877664
  H 3.107821 1.441012 3.623339
  C 2.336791 -0.277353 -0.606783
  C 5.353693 -0.536489 -1.279805
  C 5.353606 -1.020354 -2.443548
  H 5.019094 -1.362452 -3.399087
  O 6.728694 -0.847915 -2.074510
  H 3.704137 1.398842 1.221758
  H 3.677264 -0.240062 1.902798
  H 1.731234 0.381684 3.318453
  H 1.757230 2.011484 2.646246
  H 1.824653 -0.595608 -1.482216
  H 5.442192 -0.183997 -0.278907
  H 7.348906 -0.535131 -1.378975
 17
 161.614570
  H 0.963554 0.374950 0.912922
  C 1.996752 0.225664 0.593852
  C 3.005432 0.628136 1.649694
  C 2.334577 1.153662 2.917133
  H 3.079854 1.433932 3.653763
  C 2.264889 -0.250658 -0.580394
  C 5.558653 -0.548393 -1.331602
  C 5.366358 -1.042910 -2.474362
  H 5.012909 -1.412066 -3.405381
  O 6.830791 -0.863531 -2.104165
  H 3.654925 1.406219 1.242413
  H 3.619172 -0.239761 1.905236
  H 1.689362 0.391372 3.361037
  H 1.724729 2.036106 2.698533
  H 1.738987 -0.581559 -1.444047
  H 5.458506 -0.203747 -0.326843
  H 7.543589 -0.542941 -1.517716
 17
 161.676404
  H 0.863379 0.407460 0.991039
  C 1.902095 0.247759 0.651780
  C 2.928542 0.643023 1.687107
  C 2.281286 1.176584 2.964837
  H 3.041549 1.452342 3.691039
  C 2.148236 -0.232661 -0.522715
  C 5.720649 -0.582325 -1.405725
  C 5.447464 -1.082285 -2.533112
  H 5.082177 -1.414853 -3.492705
  O 6.955179 -0.895912 -2.169058
  H 3.579600 1.414094 1.266638
  H 3.539730 -0.229004 1.932690
  H 1.638201 0.422245 3.418499
  H 1.678826 2.058533 2.755043
  H 1.602314 -0.562973 -1.375911
  H 5.596849 -0.239542 -0.405142
  H 7.742066 -0.593695 -1.658507
 17
 162.001857
  H 0.779483 0.438969 1.061420
  C 1.810525 0.275190 0.707387
  C 2.851807 0.659190 1.727389
  C 2.227662 1.192888 3.014412
  H 2.998812 1.462510 3.726780
  C 2.036546 -0.205796 -0.468264
  C 5.872334 -0.608683 -1.486670
  C 5.518815 -1.103998 -2.599212
  H 5.165919 -1.459098 -3.536467
  O 7.067411 -0.918405 -2.241210
  H 3.503099 1.424484 1.300823
  H 3.460609 -0.216668 1.960435
  H 1.585092 0.444226 3.474573
  H 1.630487 2.082275 2.814642
  H 1.476366 -0.534613 -1.311520
  H 5.734288 -0.259891 -0.487985
  H 7.903442 -0.645844 -1.804011
 17
 162.019226
  H 0.692684 0.467780 1.129757
  C 1.717809 0.297503 0.764282
  C 2.777001 0.677884 1.774570
  C 2.171534 1.216767 3.070650
  H 2.956699 1.481851 3.777535
  C 1.925538 -0.184926 -0.415714
  C 6.013482 -0.645377 -1.574906
  C 5.583270 -1.124445 -2.670250
  H 5.256429 -1.497837 -3.610581
  O 7.172571 -0.946091 -2.312114
  H 3.428173 1.439625 1.336072
  H 3.385029 -0.202740 1.998811
  H 1.530222 0.469256 3.539750
  H 1.574951 2.108151 2.878085
  H 1.354054 -0.511041 -1.253522
  H 5.877432 -0.287293 -0.576253
  H 8.049669 -0.691725 -1.924694
