19
 0
 C -1.07875241 -0.19021299 -0.01743045
 C -1.41950283 -1.42734269 0.80443380
 C -0.96862162 -1.23701538 2.25171718
 C -2.88624111 -1.86115201 0.78702587
 C -3.94284972 -1.01936704 0.11846766
 O -3.22388794 -2.90980101 1.34835143
 H 0.00000000 0.00000000 0.00000000
 H -1.57869075 0.70313467 0.37236177
 H -1.37183531 -0.31929809 -1.06457388
 H -0.85929273 -2.26638821 0.37125469
 H -1.52856249 -0.43042777 2.73753983
 H 0.09787029 -0.99268286 2.30067946
 H -1.12772762 -2.14836736 2.83838237
 H -3.54157420 -0.15221249 -0.40276082
 H -4.64754011 -0.66713992 0.87649599
 H -4.46833394 -1.63677001 -0.61591653
 O 2.95285372 -0.16801368 -0.05299085
 H 2.00000000 0.00000000 0.00000000
 H 3.16154852 -0.59992821 0.78894261
