 26
 0.000000
  C 0.972487 0.117811 0.385835
  C 2.446749 0.121778 0.379123
  C 3.230048 0.600580 1.543160
  C 2.455375 1.094566 2.761744
  C 3.417711 1.545244 3.856745
  C 3.080246 -0.343779 -0.769586
  C 4.461295 -0.412279 -0.940751
  C 5.140346 -0.861544 -2.069269
  C 4.565821 -1.356304 -3.335072
  H 3.488233 -1.375040 -3.397419
  O 6.455865 -0.869679 -2.077854
  H 0.545101 0.497660 1.304983
  H 0.607828 -0.895842 0.217789
  H 0.597273 0.709209 -0.451006
  H 3.887133 1.410218 1.206597
  H 3.894295 -0.208215 1.867499
  H 1.824005 0.297442 3.157776
  H 1.817304 1.936814 2.489003
  H 4.056535 0.724674 4.175943
  H 2.865762 1.897121 4.724808
  H 4.049928 2.359295 3.508980
  H 2.444305 -0.672363 -1.578105
  H 5.083503 -0.084469 -0.118355
  H 4.961000 -2.358018 -3.512665
  H 4.969466 -0.746871 -4.145490
  H 6.876325 -0.548666 -1.258834
 26
 0.263186
  C 1.035406 0.010433 0.372980
  C 2.498988 0.191789 0.356208
  C 3.238301 0.742484 1.514604
  C 2.438002 1.060600 2.774650
  C 3.360374 1.572881 3.876966
  C 3.161035 -0.218647 -0.796455
  C 4.538653 -0.363877 -0.942023
  C 5.159382 -0.919630 -2.057648
  C 4.491035 -1.244047 -3.336320
  H 3.461269 -0.918171 -3.375648
  O 6.437065 -1.218235 -2.049094
  H 0.562691 0.398015 1.266259
  H 0.826296 -1.059366 0.295484
  H 0.582011 0.468869 -0.505497
  H 3.744515 1.658005 1.185195
  H 4.039954 0.047986 1.786692
  H 1.927675 0.164479 3.131697
  H 1.687782 1.825123 2.565690
  H 4.109026 0.827852 4.136509
  H 2.789237 1.799921 4.773531
  H 3.871686 2.481021 3.565971
  H 2.532036 -0.520021 -1.621537
  H 5.172203 -0.120226 -0.100058
  H 4.543694 -2.319123 -3.508500
  H 5.051193 -0.782717 -4.148913
  H 6.912954 -0.983341 -1.230515
 26
 3.969339
  C 1.123900 -0.069906 0.356451
  C 2.545685 0.325580 0.324151
  C 3.233434 0.916697 1.491589
  C 2.453096 0.993830 2.801144
  C 3.320364 1.589441 3.906178
  C 3.223376 0.016298 -0.852505
  C 4.571581 -0.313576 -0.959060
  C 5.100455 -1.019435 -2.034711
  C 4.450535 -1.196062 -3.352200
  H 3.490066 -0.704671 -3.427855
  O 6.268456 -1.613865 -1.951707
  H 0.602997 0.245263 1.251369
  H 1.112751 -1.162927 0.300284
  H 0.594156 0.285439 -0.525823
  H 3.539115 1.931470 1.207159
  H 4.170247 0.382850 1.676275
  H 2.130856 -0.004157 3.102801
  H 1.567501 1.619578 2.680707
  H 4.205868 0.982447 4.077654
  H 2.763386 1.640408 4.838655
  H 3.639065 2.597728 3.649639
  H 2.600994 -0.151122 -1.720607
  H 5.195950 -0.207444 -0.082696
  H 4.343199 -2.258565 -3.567454
  H 5.117950 -0.800118 -4.117446
  H 6.757797 -1.449942 -1.124198
 26
 9.399630
  C 1.223601 -0.090133 0.293812
  C 2.595572 0.451787 0.296860
  C 3.225023 1.055200 1.487830
  C 2.511295 0.878098 2.824462
  C 3.283419 1.575617 3.941031
  C 3.301522 0.221850 -0.887400
  C 4.603423 -0.264115 -0.965811
  C 5.019171 -1.087495 -2.004662
  C 4.383134 -1.185695 -3.339619
  H 3.520681 -0.545697 -3.454670
  O 6.060093 -1.878078 -1.871329
  H 0.666262 0.115318 1.198840
  H 1.353479 -1.170900 0.180118
  H 0.663864 0.245258 -0.576969
  H 3.320081 2.128774 1.283418
  H 4.255969 0.701719 1.583250
  H 2.425553 -0.183927 3.062369
  H 1.506900 1.301457 2.778838
  H 4.272652 1.143698 4.060650
  H 2.756573 1.473731 4.887125
  H 3.396153 2.636479 3.731207
  H 2.696469 0.164243 -1.785048
  H 5.204529 -0.251723 -0.065719
  H 4.110348 -2.219788 -3.541287
  H 5.129258 -0.918270 -4.089518
  H 6.577631 -1.741807 -1.056827
 26
 16.333480
  C 1.382762 -0.191520 0.256289
  C 2.682874 0.507399 0.305443
  C 3.279197 1.048097 1.540404
  C 2.490282 0.877002 2.832135
  C 3.183414 1.597936 3.981757
  C 3.401196 0.397416 -0.894080
  C 4.657544 -0.202313 -0.997608
  C 4.940092 -1.096245 -2.019425
  C 4.248378 -1.170902 -3.329490
  H 3.425464 -0.477912 -3.423078
  O 5.904424 -1.983437 -1.901901
  H 0.794975 -0.102471 1.158677
  H 1.665988 -1.238303 0.093924
  H 0.793160 0.103662 -0.610200
  H 3.435933 2.122664 1.365200
  H 4.288078 0.643120 1.672629
  H 2.405966 -0.184262 3.077151
  H 1.486767 1.284002 2.721677
  H 4.172113 1.182635 4.164209
  H 2.601605 1.498236 4.898877
  H 3.291466 2.655762 3.766876
  H 2.813029 0.481274 -1.800876
  H 5.283549 -0.222738 -0.115881
  H 3.900344 -2.187784 -3.506352
  H 4.982156 -0.962757 -4.106332
  H 6.483154 -1.857908 -1.126762
 26
 26.520610
  C 1.601679 -0.253023 0.150453
  C 2.801636 0.588363 0.285200
  C 3.292457 1.158349 1.549582
  C 2.504379 0.832563 2.812619
  C 3.103938 1.549537 4.020062
  C 3.544943 0.602627 -0.906250
  C 4.738350 -0.116576 -1.026505
  C 4.822176 -1.121873 -1.966225
  C 4.058591 -1.202568 -3.242804
  H 3.262234 -0.473520 -3.321598
  O 5.679801 -2.113937 -1.833100
  H 0.986811 -0.305983 1.038031
  H 2.044764 -1.233328 -0.080763
  H 1.003048 0.004778 -0.720658
  H 3.315334 2.250084 1.415402
  H 4.341275 0.884644 1.689477
  H 2.526282 -0.237434 2.995300
  H 1.459224 1.140899 2.700049
  H 4.145783 1.260709 4.168590
  H 2.557448 1.295016 4.919864
  H 3.062237 2.629769 3.893419
  H 2.974621 0.770381 -1.815009
  H 5.350913 -0.205000 -0.140762
  H 3.654110 -2.205960 -3.367951
  H 4.765339 -1.047431 -4.058192
  H 6.328061 -1.993765 -1.113742
 26
 34.910241
  C 1.710522 -0.295386 0.089697
  C 2.821704 0.669252 0.246906
  C 3.254634 1.257911 1.518308
  C 2.546598 0.780682 2.782225
  C 3.123850 1.471640 4.014495
  C 3.582323 0.720929 -0.938961
  C 4.751880 -0.055872 -1.029382
  C 4.724275 -1.130750 -1.889060
  C 3.972174 -1.216982 -3.167896
  H 3.216154 -0.450713 -3.277221
  O 5.549652 -2.156456 -1.725365
  H 1.096875 -0.434197 0.972343
  H 2.261097 -1.216212 -0.172982
  H 1.097916 -0.100077 -0.787552
  H 3.113038 2.340552 1.419546
  H 4.341970 1.136050 1.632702
  H 2.667565 -0.297399 2.890969
  H 1.478889 1.004175 2.722360
  H 4.183785 1.250204 4.126792
  H 2.613070 1.132707 4.914174
  H 3.005370 2.547143 3.947306
  H 3.043711 0.934282 -1.854508
  H 5.312463 -0.173038 -0.108924
  H 3.517135 -2.197923 -3.264123
  H 4.691519 -1.125857 -3.977901
  H 6.198911 -2.042805 -1.007695
 26
 46.827871
  C 1.864907 -0.328237 0.046937
  C 2.884739 0.711210 0.248003
  C 3.280912 1.288618 1.534402
  C 2.656910 0.684308 2.791490
  C 3.016036 1.512525 4.019655
  C 3.672387 0.826380 -0.932971
  C 4.755352 -0.077637 -1.024562
  C 4.571493 -1.178073 -1.829509
  C 3.841046 -1.198244 -3.128626
  H 3.204903 -0.335684 -3.270623
  O 5.314787 -2.270379 -1.663611
  H 1.270082 -0.579785 0.909160
  H 2.518112 -1.176731 -0.294427
  H 1.263865 -0.198171 -0.851882
  H 3.005209 2.351734 1.486617
  H 4.372627 1.289044 1.608253
  H 3.007484 -0.335157 2.932172
  H 1.569346 0.667903 2.693011
  H 4.089785 1.507348 4.192047
  H 2.531845 1.107836 4.904844
  H 2.694692 2.541847 3.903846
  H 3.168184 1.133554 -1.839987
  H 5.392426 -0.176598 -0.154055
  H 3.247799 -2.108271 -3.210943
  H 4.585155 -1.231916 -3.919237
  H 6.068996 -2.151417 -1.064492
 26
 63.957009
  C 2.061505 -0.405148 -0.013487
  C 2.935839 0.717084 0.215574
  C 3.300711 1.287861 1.512121
  C 2.547893 0.746069 2.725396
  C 3.034142 1.416812 4.008490
  C 3.662884 1.001150 -0.996918
  C 4.757261 0.095312 -1.106017
  C 4.496682 -1.095908 -1.743661
  C 3.689023 -1.259339 -2.990668
  H 3.055048 -0.406156 -3.189985
  O 5.262951 -2.176757 -1.515520
  H 1.476050 -0.778066 0.811099
  H 2.877755 -1.147933 -0.467650
  H 1.539179 -0.450317 -0.973472
  H 3.140038 2.371706 1.437564
  H 4.381373 1.173678 1.664702
  H 2.724986 -0.326907 2.808924
  H 1.474780 0.908894 2.616714
  H 4.096403 1.242671 4.162498
  H 2.502299 1.017384 4.869206
  H 2.865339 2.488366 3.976213
  H 3.100900 1.291232 -1.876036
  H 5.433445 0.066991 -0.255659
  H 3.087051 -2.165769 -2.942320
  H 4.388713 -1.387193 -3.816183
  H 5.980558 -2.025059 -0.881240
 26
 85.965875
  C 2.114184 -0.369991 0.021517
  C 2.928959 0.712341 0.246656
  C 3.261072 1.348002 1.534768
  C 2.610980 0.720781 2.771454
  C 2.989096 1.500803 4.031558
  C 3.726487 0.961339 -0.962634
  C 4.740295 -0.004147 -1.076969
  C 4.405650 -1.188277 -1.746502
  C 3.629614 -1.234054 -3.043527
  H 2.982011 -0.375809 -3.168544
  O 5.175130 -2.290367 -1.597471
  H 1.562726 -0.795535 0.845539
  H 3.236156 -1.251427 -0.709178
  H 1.666183 -0.547075 -0.949736
  H 2.950052 2.394750 1.466295
  H 4.353205 1.370090 1.648605
  H 2.942392 -0.311975 2.880027
  H 1.526554 0.726501 2.665338
  H 4.066143 1.502781 4.179933
  H 2.531811 1.050233 4.905551
  H 2.652542 2.532487 3.968006
  H 3.223300 1.348420 -1.833570
  H 5.413486 -0.099916 -0.232530
  H 3.044080 -2.148367 -3.101160
  H 4.350790 -1.262078 -3.857663
  H 5.895736 -2.180284 -0.958314
 26
 80.153060
  C 2.030073 -0.334346 0.117647
  C 2.856918 0.685633 0.298575
  C 3.247093 1.353564 1.575961
  C 2.556544 0.799397 2.818863
  C 3.012234 1.552475 4.058937
  C 3.654075 0.900580 -0.925889
  C 4.674613 -0.040103 -1.068885
  C 4.413370 -1.274630 -1.795963
  C 3.681043 -1.279022 -3.132853
  H 2.967412 -0.465415 -3.204254
  O 5.284294 -2.318721 -1.711600
  H 1.473303 -0.730421 0.950221
  H 3.540638 -1.429605 -0.989434
  H 1.641631 -0.608208 -0.848866
  H 3.005461 2.415730 1.475931
  H 4.335682 1.299676 1.698267
  H 2.795766 -0.262712 2.935835
  H 1.472975 0.899977 2.720026
  H 4.092338 1.463464 4.195808
  H 2.526561 1.150072 4.941164
  H 2.760865 2.612808 3.986106
  H 3.147164 1.316462 -1.789956
  H 5.371486 -0.128046 -0.239169
  H 3.175115 -2.228639 -3.273421
  H 4.419992 -1.184179 -3.926698
  H 6.034669 -2.165745 -1.115770
 26
 68.465703
  C 1.810918 -0.251310 0.222515
  C 2.795733 0.634582 0.364524
  C 3.266631 1.307524 1.611681
  C 2.583929 0.833673 2.889875
  C 3.011742 1.694878 4.073967
  C 3.590977 0.707752 -0.863754
  C 4.615042 -0.212227 -1.016692
  C 4.484106 -1.379063 -1.905645
  C 3.807297 -1.227505 -3.260826
  H 3.070637 -0.432487 -3.249873
  O 5.480284 -2.312927 -1.960139
  H 1.206293 -0.562297 1.057026
  H 3.673404 -1.743049 -1.165024
  H 1.476260 -0.579907 -0.747883
  H 3.082175 2.377730 1.480418
  H 4.349645 1.191339 1.710517
  H 2.848263 -0.203458 3.088515
  H 1.501839 0.897295 2.778568
  H 4.092661 1.685868 4.192544
  H 2.566802 1.319389 4.993855
  H 2.690124 2.727222 3.939184
  H 3.116209 1.146200 -1.735073
  H 5.289057 -0.346395 -0.176424
  H 3.333590 -2.162940 -3.540311
  H 4.571815 -1.010835 -4.001627
  H 6.150543 -2.221915 -1.268238
 26
 59.204399
  C 1.606707 -0.150123 0.280324
  C 2.690017 0.639473 0.367523
  C 3.245166 1.285655 1.586449
  C 2.529973 0.929786 2.885127
  C 3.160810 1.657959 4.063495
  C 3.442974 0.567318 -0.878346
  C 4.536747 -0.269453 -0.978590
  C 4.552395 -1.413751 -1.917491
  C 3.954420 -1.249993 -3.310169
  H 3.028099 -0.686890 -3.289045
  O 5.663215 -2.219483 -1.964660
  H 0.999427 -0.397398 1.133233
  H 3.764072 -1.926703 -1.267316
  H 1.281857 -0.545275 -0.668516
  H 3.179433 2.364908 1.421804
  H 4.310416 1.055170 1.683104
  H 2.588535 -0.143191 3.058420
  H 1.479043 1.210115 2.817547
  H 4.208728 1.382666 4.177254
  H 2.642109 1.404761 4.986247
  H 3.102556 2.738179 3.928018
  H 2.901474 0.830877 -1.779527
  H 5.216873 -0.333938 -0.140139
  H 3.771682 -2.229471 -3.742711
  H 4.681756 -0.740473 -3.935409
  H 6.332773 -2.003977 -1.298583
 26
 51.204885
  C 1.488004 -0.200392 0.421804
  C 2.647975 0.489725 0.440017
  C 3.280044 1.150078 1.611540
  C 2.498431 1.044258 2.916473
  C 3.201826 1.809562 4.030553
  C 3.345612 0.333986 -0.824366
  C 4.478063 -0.431005 -0.959462
  C 4.631111 -1.439666 -2.028257
  C 4.099896 -1.140581 -3.427229
  H 3.148077 -0.626267 -3.398303
  O 5.822375 -2.115021 -2.113296
  H 0.922420 -0.414021 1.313199
  H 3.868309 -2.135958 -1.530221
  H 1.088893 -0.587474 -0.501129
  H 3.396731 2.205249 1.347418
  H 4.292189 0.763734 1.761946
  H 2.405039 -0.000321 3.209958
  H 1.496943 1.453770 2.783368
  H 4.192669 1.401548 4.217441
  H 2.629828 1.745622 4.954802
  H 3.307335 2.861807 3.770943
  H 2.769219 0.570027 -1.712181
  H 5.128180 -0.549543 -0.104188
  H 3.990584 -2.069138 -3.980946
  H 4.834018 -0.528074 -3.944822
  H 6.424801 -1.932406 -1.377450
 26
 48.685196
  C 1.362406 -0.212699 0.515629
  C 2.517061 0.484640 0.439502
  C 3.201893 1.185829 1.547856
  C 2.563322 1.038255 2.922750
  C 3.345763 1.817203 3.969062
  C 3.181524 0.243396 -0.832205
  C 4.353156 -0.460780 -0.925069
  C 4.584348 -1.453156 -2.027628
  C 4.339403 -1.005982 -3.476288
  H 3.386452 -0.499382 -3.590287
  O 5.721139 -2.209698 -1.965157
  H 0.875874 -0.402200 1.459283
  H 3.707548 -2.091274 -1.744120
  H 0.906132 -0.650181 -0.359155
  H 3.219454 2.243021 1.279526
  H 4.251817 0.879190 1.592781
  H 2.540239 -0.007747 3.207650
  H 1.538692 1.408246 2.899622
  H 4.376482 1.460435 4.034486
  H 2.886992 1.702875 4.948259
  H 3.364976 2.880628 3.726946
  H 2.532287 0.257924 -1.703918
  H 4.955346 -0.576343 -0.042806
  H 4.371463 -1.874608 -4.125465
  H 5.141183 -0.336628 -3.769564
  H 6.163621 -2.161466 -1.104079
