 20
 0.000000
  C 1.008403 -0.070526 0.049741
  C 2.504455 -0.082703 0.025373
  C 3.217163 -0.596757 -0.982837
  C 4.655207 -0.607830 -1.005112
  C 5.376057 -1.122768 -2.016248
  C 6.814841 -1.131232 -2.033014
  C 7.535132 -1.642037 -3.036495
  C 9.025371 -1.660529 -3.071729
  H 0.648818 0.396651 0.965921
  H 0.611773 -1.085207 0.012785
  H 0.611513 0.495266 -0.793240
  H 3.007016 0.352805 0.879190
  H 2.703706 -1.030126 -1.832645
  H 5.160025 -0.172692 -0.151322
  H 4.872998 -1.558056 -2.870874
  H 7.319975 -0.696517 -1.178949
  H 7.038161 -2.078422 -3.894207
  H 9.458433 -1.207796 -2.181174
  H 9.385659 -1.114104 -3.944854
  H 9.384692 -2.688400 -3.143761
 20
 2.289810
  C 1.037294 -0.017766 -0.032689
  C 2.531040 -0.067054 -0.002804
  C 3.273481 -0.569400 -0.980683
  C 4.688209 -0.658782 -0.923506
  C 5.397070 -1.255808 -1.885209
  C 6.827653 -1.288779 -1.910515
  C 7.503975 -1.751960 -2.955714
  C 8.966237 -1.572527 -3.131263
  H 0.643037 0.440017 0.870557
  H 0.623205 -1.022296 -0.117793
  H 0.687391 0.557144 -0.890068
  H 3.014355 0.344487 0.872101
  H 2.784176 -0.980756 -1.853729
  H 5.183912 -0.223629 -0.066425
  H 4.883989 -1.691082 -2.733986
  H 7.351384 -0.835598 -1.078570
  H 6.974554 -2.187062 -3.794014
  H 9.427481 -1.125446 -2.251952
  H 9.064373 -0.887475 -3.965943
  H 9.476188 -2.507404 -3.371523
 20
 4.767356
  C 1.081475 0.086957 -0.106570
  C 2.563939 -0.042680 -0.033627
  C 3.306093 -0.603608 -0.986131
  C 4.709990 -0.793552 -0.874074
  C 5.407178 -1.492347 -1.771843
  C 6.831022 -1.480201 -1.817013
  C 7.497380 -1.839776 -2.911763
  C 8.887537 -1.414107 -3.169974
  H 0.689974 0.585953 0.773559
  H 0.618509 -0.893270 -0.180658
  H 0.784634 0.659496 -0.990259
  H 3.047580 0.365752 0.846235
  H 2.826359 -1.011491 -1.868288
  H 5.210735 -0.328036 -0.038487
  H 4.893280 -1.959318 -2.605131
  H 7.350375 -0.999035 -0.997208
  H 6.970920 -2.280152 -3.745879
  H 9.360219 -1.020639 -2.273873
  H 8.779718 -0.599146 -3.891397
  H 9.508863 -2.203274 -3.597646
 20
 7.223717
  C 1.166769 0.242229 -0.230134
  C 2.626485 -0.029621 -0.069089
  C 3.346660 -0.761253 -0.928699
  C 4.736223 -1.010756 -0.793763
  C 5.417223 -1.777587 -1.650023
  C 6.833042 -1.678369 -1.748209
  C 7.457319 -1.834205 -2.911513
  C 8.757450 -1.192658 -3.193462
  H 0.793887 0.872829 0.572033
  H 0.601543 -0.689992 -0.226653
  H 0.971665 0.737772 -1.176504
  H 3.113567 0.414534 0.784835
  H 2.858697 -1.202575 -1.788955
  H 5.260251 -0.482194 -0.005192
  H 4.897849 -2.295254 -2.443766
  H 7.354391 -1.229936 -0.912667
  H 6.932494 -2.256326 -3.760649
  H 9.287214 -0.940691 -2.277350
  H 8.487480 -0.261009 -3.706470
  H 9.402182 -1.784131 -3.836058
 20
 10.856854
  C 1.286647 0.369621 -0.341984
  C 2.714731 -0.012397 -0.137421
  C 3.368681 -0.895051 -0.903120
  C 4.749048 -1.206170 -0.738881
  C 5.424083 -2.012119 -1.570382
  C 6.838923 -1.841624 -1.700785
  C 7.407172 -1.813741 -2.906841
  C 8.606314 -0.988003 -3.174909
  H 0.972513 1.115495 0.382258
  H 0.638052 -0.501913 -0.241980
  H 1.137490 0.773864 -1.339277
  H 3.237976 0.475884 0.673486
  H 2.842011 -1.378556 -1.716121
  H 5.286311 -0.649595 0.018196
  H 4.907987 -2.549804 -2.350473
  H 7.363896 -1.423238 -0.850508
  H 6.875298 -2.196928 -3.770306
  H 9.188700 -0.814307 -2.272486
  H 8.171078 -0.036338 -3.498727
  H 9.250920 -1.385523 -3.953273
 20
 15.183680
  C 1.379412 0.435118 -0.430441
  C 2.787295 0.002997 -0.176281
  C 3.424108 -0.932061 -0.897542
  C 4.785786 -1.284214 -0.716123
  C 5.435482 -2.123192 -1.532198
  C 6.842523 -1.940580 -1.674751
  C 7.364412 -1.825664 -2.890434
  C 8.453413 -0.862401 -3.145554
  H 1.080184 1.220476 0.258581
  H 0.695381 -0.402611 -0.315356
  H 1.268861 0.807700 -1.446701
  H 3.310502 0.499101 0.627033
  H 2.892656 -1.424030 -1.701613
  H 5.342181 -0.719624 0.029270
  H 4.907449 -2.659832 -2.302645
  H 7.376275 -1.537416 -0.822486
  H 6.832067 -2.199380 -3.753424
  H 9.090080 -0.730922 -2.280485
  H 7.892941 0.072743 -3.312203
  H 9.059642 -1.097872 -4.017527
 20
 20.073116
  C 1.496314 0.508990 -0.530344
  C 2.873365 0.017145 -0.230310
  C 3.478834 -0.963251 -0.908000
  C 4.811095 -1.391451 -0.670919
  C 5.451447 -2.248936 -1.477814
  C 6.852468 -2.021619 -1.641288
  C 7.311745 -1.813974 -2.875309
  C 8.276690 -0.719491 -3.120302
  H 1.221126 1.327019 0.130054
  H 0.766691 -0.296468 -0.407336
  H 1.425464 0.857674 -1.558067
  H 3.402969 0.510213 0.574646
  H 2.946018 -1.454183 -1.712672
  H 5.365530 -0.852659 0.082056
  H 4.918407 -2.796938 -2.243871
  H 7.395848 -1.628609 -0.794126
  H 6.760457 -2.176147 -3.731304
  H 8.966184 -0.589128 -2.294435
  H 7.604609 0.157069 -3.157769
  H 8.828741 -0.809726 -4.052092
 20
 25.515600
  C 1.617749 0.576700 -0.631694
  C 2.954021 0.013924 -0.267588
  C 3.534520 -1.003367 -0.911930
  C 4.842043 -1.475603 -0.637579
  C 5.475449 -2.354391 -1.432277
  C 6.867108 -2.086956 -1.619856
  C 7.252358 -1.793373 -2.864039
  C 8.081633 -0.590344 -3.084116
  H 1.361996 1.418752 0.006696
  H 0.845001 -0.180187 -0.528336
  H 1.607187 0.914619 -1.670373
  H 3.475598 0.488586 0.547182
  H 3.005556 -1.483415 -1.725600
  H 5.401768 -0.936722 0.112300
  H 4.940819 -2.899064 -2.195863
  H 7.417854 -1.685110 -0.778932
  H 6.682508 -2.152223 -3.713596
  H 8.831343 -0.453615 -2.306347
  H 7.317360 0.212091 -2.983671
  H 8.551481 -0.545711 -4.064640
 20
 31.445104
  C 1.738545 0.637461 -0.718694
  C 3.046642 0.030126 -0.322761
  C 3.590467 -1.025973 -0.933262
  C 4.870515 -1.554497 -0.621402
  C 5.494468 -2.448982 -1.409296
  C 6.879702 -2.145641 -1.608424
  C 7.200762 -1.765981 -2.849855
  C 7.875739 -0.460643 -3.031426
  H 1.509894 1.507025 -0.105163
  H 0.933246 -0.084556 -0.605755
  H 1.754149 0.947001 -1.762511
  H 3.579924 0.505107 0.491400
  H 3.055959 -1.497049 -1.749742
  H 5.440474 -1.020302 0.128253
  H 4.956566 -2.984596 -2.179959
  H 7.430137 -1.743160 -0.767062
  H 6.638083 -2.136507 -3.693547
  H 8.641991 -0.278669 -2.286902
  H 7.027608 0.234989 -2.843952
  H 8.280073 -0.303420 -4.025913
 20
 38.166495
  C 1.863199 0.694604 -0.804614
  C 3.134446 0.040092 -0.366598
  C 3.648826 -1.048026 -0.950331
  C 4.900955 -1.614639 -0.608899
  C 5.520002 -2.518307 -1.396896
  C 6.892760 -2.182489 -1.612934
  C 7.143233 -1.726129 -2.848377
  C 7.655526 -0.345313 -2.970214
  H 1.658699 1.582739 -0.212819
  H 1.023352 0.008075 -0.697147
  H 1.915463 0.983866 -1.851474
  H 3.667768 0.506036 0.448653
  H 3.113325 -1.509423 -1.770903
  H 5.475303 -1.084574 0.141978
  H 4.979898 -3.047510 -2.168326
  H 7.447954 -1.776907 -0.772108
  H 6.586973 -2.105214 -3.691270
  H 8.436327 -0.119701 -2.248308
  H 6.741079 0.238701 -2.696193
  H 7.986772 -0.081331 -3.968463
 20
 45.051143
  C 1.988876 0.748146 -0.885473
  C 3.217996 0.044599 -0.406289
  C 3.704905 -1.061238 -0.973087
  C 4.931504 -1.669658 -0.599173
  C 5.549615 -2.576182 -1.389914
  C 6.914409 -2.200021 -1.619567
  C 7.091957 -1.678906 -2.851937
  C 7.425386 -0.235655 -2.905663
  H 1.803060 1.645834 -0.302886
  H 1.120271 0.098003 -0.801361
  H 2.084331 1.031855 -1.934011
  H 3.746149 0.492424 0.425099
  H 3.173935 -1.504683 -1.799712
  H 5.507349 -1.148205 0.156117
  H 5.008666 -3.098198 -2.169570
  H 7.462089 -1.776382 -0.784815
  H 6.529678 -2.069162 -3.689473
  H 8.202722 0.045119 -2.202440
  H 6.456586 0.217659 -2.560293
  H 7.677474 0.125993 -3.898696
 20
 52.226712
  C 2.106801 0.799196 -0.956012
  C 3.292317 0.051083 -0.435097
  C 3.769515 -1.064450 -0.999640
  C 4.958680 -1.718277 -0.586485
  C 5.590295 -2.604347 -1.395861
  C 6.929830 -2.179094 -1.638659
  C 7.042757 -1.617286 -2.863852
  C 7.193045 -0.143351 -2.848820
  H 1.925547 1.695017 -0.370942
  H 1.214177 0.175962 -0.916496
  H 2.254593 1.091253 -1.994136
  H 3.797535 0.470476 0.422031
  H 3.245719 -1.491149 -1.846137
  H 5.520731 -1.226463 0.202164
  H 5.052629 -3.118250 -2.180544
  H 7.465897 -1.732952 -0.808674
  H 6.482020 -2.023933 -3.692749
  H 7.959338 0.199086 -2.157838
  H 6.186278 0.169115 -2.441042
  H 7.355912 0.294841 -3.826936
 20
 59.876972
  C 2.201469 0.836881 -1.014064
  C 3.349252 0.058719 -0.454541
  C 3.830342 -1.057745 -1.023124
  C 4.995338 -1.742717 -0.579502
  C 5.630628 -2.616841 -1.407378
  C 6.951189 -2.150014 -1.662324
  C 6.998860 -1.542735 -2.878958
  C 6.950384 -0.060151 -2.782014
  H 2.015896 1.732255 -0.426154
  H 1.294774 0.234398 -1.017382
  H 2.398717 1.136727 -2.046088
  H 3.834499 0.460761 0.421684
  H 3.329483 -1.460846 -1.898128
  H 5.554880 -1.264834 0.215560
  H 5.089590 -3.112346 -2.200885
  H 7.489092 -1.701477 -0.835679
  H 6.459300 -1.977753 -3.709650
  H 7.691766 0.346123 -2.098858
  H 5.925095 0.101229 -2.322577
  H 7.018385 0.445547 -3.739788
 20
 68.082244
  C 2.278861 0.864072 -1.058169
  C 3.388281 0.054813 -0.463284
  C 3.898986 -1.037741 -1.054374
  C 5.029089 -1.761084 -0.569375
  C 5.686632 -2.609275 -1.420187
  C 6.973565 -2.080413 -1.686699
  C 6.953967 -1.449755 -2.903225
  C 6.705782 0.010603 -2.733936
  H 2.065919 1.735942 -0.448577
  H 1.369992 0.270364 -1.141357
  H 2.539602 1.204380 -2.061892
  H 3.826134 0.419221 0.454193
  H 3.435925 -1.409253 -1.957665
  H 5.568618 -1.311159 0.255978
  H 5.149469 -3.102206 -2.220796
  H 7.502444 -1.606851 -0.865643
  H 6.427595 -1.917895 -3.726607
  H 7.418515 0.492433 -2.069012
  H 5.685188 0.023869 -2.220602
  H 6.662509 0.550132 -3.673882
