 29
 0.000000
  C 0.956766 0.140166 0.407528
  C 2.431576 0.138666 0.397015
  C 3.226838 0.606338 1.556898
  C 2.460490 1.097856 2.781139
  H 3.147257 1.409641 3.553956
  C 3.041784 -0.328205 -0.764632
  C 4.418280 -0.411356 -0.969497
  C 5.108534 -0.861025 -2.090255
  C 4.616835 -1.383012 -3.394901
  C 3.128334 -1.502016 -3.697032
  C 2.928621 -2.064459 -5.102076
  O 6.427666 -0.853938 -2.069278
  H 0.533518 0.511536 1.332897
  H 0.585666 -0.870959 0.234347
  H 0.579289 0.747771 -0.416236
  H 3.883927 1.415271 1.218420
  H 3.886110 -0.210058 1.872405
  H 1.827076 0.305401 3.177438
  H 1.824956 1.942572 2.518818
  H 2.373468 -0.642390 -1.547521
  H 5.045022 -0.082688 -0.149196
  H 5.079974 -2.368898 -3.518460
  H 5.082271 -0.756228 -4.164492
  H 2.650843 -0.523198 -3.647922
  H 2.648649 -2.175274 -2.986349
  H 3.377222 -1.414666 -5.849758
  H 1.868610 -2.152601 -5.325690
  H 3.375125 -3.051717 -5.194121
  H 6.821019 -0.523207 -1.240510
 29
 2.379185
  C 1.032779 0.141449 0.303433
  C 2.491989 0.164820 0.399023
  C 3.234698 0.605451 1.598005
  C 2.397884 1.073844 2.782828
  H 3.049488 1.371870 3.598052
  C 3.096082 -0.295139 -0.742424
  C 4.463876 -0.387219 -0.975807
  C 5.128218 -0.849786 -2.102873
  C 4.602844 -1.381860 -3.388654
  C 3.106375 -1.494095 -3.648073
  C 2.864644 -2.069126 -5.041538
  O 6.446297 -0.848495 -2.111246
  H 0.516028 0.421265 1.212422
  H 0.768951 -0.878198 -0.004910
  H 0.686524 0.785235 -0.506166
  H 3.910811 1.416937 1.304557
  H 3.879007 -0.218071 1.926293
  H 1.748198 0.278571 3.140742
  H 1.780171 1.926730 2.511505
  H 2.371347 -0.613172 -1.483439
  H 5.107435 -0.051516 -0.170955
  H 5.058629 -2.370888 -3.514658
  H 5.053193 -0.766499 -4.176225
  H 2.638087 -0.511267 -3.595562
  H 2.644046 -2.157799 -2.917455
  H 3.297173 -1.429654 -5.807424
  H 1.798557 -2.153099 -5.235954
  H 3.303167 -3.059800 -5.135785
  H 6.860939 -0.511310 -1.295335
 29
 6.494079
  C 1.060998 0.167507 0.300986
  C 2.518789 0.200045 0.438723
  C 3.235044 0.613918 1.654464
  C 2.359214 1.072028 2.823303
  H 2.973288 1.351670 3.647697
  C 3.115767 -0.271216 -0.726029
  C 4.461326 -0.367277 -0.977294
  C 5.136018 -0.847981 -2.129200
  C 4.598441 -1.399727 -3.423753
  C 3.098955 -1.520845 -3.673319
  C 2.848496 -2.106509 -5.060592
  O 6.479960 -0.841703 -2.144146
  H 0.481749 0.324021 1.206350
  H 0.902051 -0.805417 -0.180299
  H 0.752690 0.908445 -0.442176
  H 3.926990 1.427101 1.387825
  H 3.868004 -0.222808 1.981287
  H 1.697229 0.270796 3.158208
  H 1.754364 1.937627 2.545541
  H 2.321735 -0.586597 -1.401542
  H 5.107566 -0.017836 -0.172823
  H 5.058428 -2.387592 -3.547411
  H 5.041710 -0.790328 -4.220410
  H 2.629381 -0.539943 -3.623266
  H 2.648005 -2.181245 -2.934727
  H 3.272807 -1.470751 -5.834024
  H 1.781635 -2.196666 -5.246709
  H 3.291024 -3.095650 -5.151489
  H 6.898738 -0.496270 -1.333731
 29
 12.454225
  C 1.093247 0.140891 0.219479
  C 2.547488 0.197279 0.417871
  C 3.232657 0.608414 1.648089
  C 2.317091 1.057355 2.786845
  H 2.915041 1.347033 3.650119
  C 3.155368 -0.277185 -0.741791
  C 4.519492 -0.373808 -1.003699
  C 5.162618 -0.847264 -2.132901
  C 4.598891 -1.391781 -3.397090
  C 3.092694 -1.497837 -3.595221
  C 2.789161 -2.082128 -4.972250
  O 6.489697 -0.846141 -2.169410
  H 0.468067 0.174945 1.096180
  H 1.040932 -0.777973 -0.402546
  H 0.795915 0.950764 -0.443503
  H 3.928821 1.424444 1.404862
  H 3.859818 -0.227351 1.988182
  H 1.653578 0.253593 3.096219
  H 1.716373 1.913356 2.489684
  H 2.322601 -0.595326 -1.386314
  H 5.172280 -0.024849 -0.210335
  H 5.047314 -2.382146 -3.530735
  H 5.023973 -0.787478 -4.205706
  H 2.635371 -0.511116 -3.528741
  H 2.661236 -2.153075 -2.838933
  H 3.193350 -1.451151 -5.760733
  H 1.715453 -2.161748 -5.121649
  H 3.218672 -3.075981 -5.077086
  H 6.925635 -0.496590 -1.358201
 29
 19.307353
  C 1.108851 0.138631 0.201945
  C 2.558443 0.210987 0.425316
  C 3.231184 0.619587 1.671247
  C 2.301406 1.058692 2.793921
  H 2.883233 1.348670 3.664578
  C 3.169315 -0.264617 -0.733763
  C 4.525598 -0.366779 -1.005724
  C 5.164104 -0.852157 -2.142934
  C 4.596199 -1.400217 -3.399912
  C 3.088804 -1.503978 -3.592761
  C 2.779875 -2.091834 -4.967023
  O 6.484559 -0.856262 -2.188109
  H 0.470340 0.039019 1.061735
  H 1.131768 -0.692626 -0.547781
  H 0.789778 1.024552 -0.355380
  H 3.927052 1.433686 1.444570
  H 3.853743 -0.212014 2.014226
  H 1.637186 0.250523 3.090414
  H 1.699205 1.910880 2.489520
  H 2.292202 -0.595735 -1.341813
  H 5.184038 -0.017538 -0.219772
  H 5.042699 -2.392651 -3.529614
  H 5.019829 -0.798314 -4.212184
  H 2.633880 -0.515750 -3.527511
  H 2.659071 -2.156670 -2.832901
  H 3.182809 -1.463865 -5.758776
  H 1.705314 -2.170086 -5.112834
  H 3.207550 -3.086849 -5.070274
  H 6.920034 -0.509043 -1.392948
 29
 30.120841
  C 1.128545 0.129410 0.200856
  C 2.563386 0.209821 0.436468
  C 3.224528 0.629592 1.681504
  C 2.289471 1.069927 2.787734
  H 2.867502 1.373523 3.667473
  C 3.178490 -0.267692 -0.719427
  C 4.529492 -0.372506 -0.999910
  C 5.162469 -0.859786 -2.144222
  C 4.590755 -1.405312 -3.404575
  C 3.082669 -1.507009 -3.596619
  C 2.771307 -2.089472 -4.974205
  O 6.474964 -0.866576 -2.193507
  H 0.486254 -0.039217 1.053137
  H 1.222595 -0.662788 -0.620653
  H 0.788214 1.038420 -0.299878
  H 3.912770 1.439835 1.459352
  H 3.841967 -0.189683 2.032001
  H 1.628663 0.258638 3.083429
  H 1.685150 1.914651 2.468336
  H 2.252612 -0.599799 -1.293572
  H 5.193353 -0.028542 -0.218174
  H 5.037475 -2.400969 -3.537725
  H 5.015315 -0.799097 -4.217673
  H 2.629603 -0.519898 -3.526951
  H 2.653992 -2.161993 -2.840108
  H 3.173591 -1.458988 -5.763824
  H 1.696212 -2.166212 -5.119101
  H 3.197878 -3.084355 -5.082301
  H 6.919271 -0.516087 -1.386438
 29
 40.144965
  C 1.126486 0.078330 0.199536
  C 2.568231 0.191581 0.433481
  C 3.224404 0.656750 1.669606
  C 2.272384 1.105343 2.768934
  H 2.836354 1.445332 3.634934
  C 3.190961 -0.297278 -0.717786
  C 4.542773 -0.405346 -0.995398
  C 5.173547 -0.885114 -2.141205
  C 4.593005 -1.408824 -3.401253
  C 3.086345 -1.490497 -3.579135
  C 2.754662 -2.048169 -4.960266
  O 6.491844 -0.901807 -2.193265
  H 0.495764 -0.165651 1.040040
  H 1.286185 -0.671758 -0.690788
  H 0.743964 0.995533 -0.252989
  H 3.903203 1.486165 1.422425
  H 3.869451 -0.153642 2.045478
  H 1.635092 0.293324 3.085570
  H 1.649274 1.919986 2.430649
  H 2.213690 -0.632791 -1.269212
  H 5.207402 -0.075670 -0.205390
  H 5.025811 -2.399973 -3.549804
  H 5.015030 -0.801201 -4.204509
  H 2.645234 -0.496832 -3.489340
  H 2.658380 -2.153406 -2.826106
  H 3.155971 -1.410181 -5.745090
  H 1.677743 -2.110753 -5.094668
  H 3.168983 -3.046040 -5.087627
  H 6.935981 -0.566385 -1.390996
 29
 51.176980
  C 1.123851 0.037262 0.230631
  C 2.564017 0.172499 0.439397
  C 3.222431 0.685100 1.653096
  C 2.274748 1.143954 2.743702
  H 2.841334 1.525422 3.594700
  C 3.190812 -0.325828 -0.702963
  C 4.544428 -0.438555 -0.980162
  C 5.175280 -0.907025 -2.124694
  C 4.594796 -1.411318 -3.400366
  C 3.084349 -1.479743 -3.584577
  C 2.751189 -2.012234 -4.977826
  O 6.496123 -0.930793 -2.169891
  H 0.518150 -0.252953 1.078972
  H 1.317705 -0.699085 -0.715663
  H 0.698500 0.949411 -0.196771
  H 3.877846 1.518954 1.375656
  H 3.885976 -0.099468 2.046074
  H 1.657924 0.324047 3.093253
  H 1.626482 1.935765 2.384881
  H 2.157599 -0.670048 -1.238627
  H 5.208534 -0.129350 -0.182010
  H 5.022190 -2.403893 -3.562126
  H 5.024242 -0.793720 -4.193398
  H 2.649622 -0.482748 -3.478300
  H 2.649920 -2.153923 -2.842642
  H 3.158640 -1.363578 -5.751453
  H 1.673600 -2.065277 -5.115688
  H 3.159161 -3.011041 -5.121683
  H 6.935859 -0.608855 -1.363026
 29
 60.390293
  C 1.115341 -0.048000 0.275120
  C 2.558963 0.138091 0.441914
  C 3.221684 0.740663 1.616686
  C 2.273464 1.218372 2.708988
  H 2.837841 1.670253 3.520156
  C 3.190857 -0.378557 -0.685796
  C 4.544936 -0.501157 -0.957914
  C 5.178041 -0.953580 -2.106363
  C 4.598895 -1.414716 -3.395595
  C 3.088207 -1.452129 -3.583935
  C 2.747697 -1.933509 -4.994365
  O 6.499680 -0.995576 -2.144978
  H 0.549579 -0.379118 1.138757
  H 1.330402 -0.781350 -0.725233
  H 0.635225 0.831448 -0.139439
  H 3.833837 1.583768 1.280303
  H 3.921326 0.011670 2.032089
  H 1.705014 0.395598 3.117978
  H 1.583623 1.956676 2.326777
  H 2.108076 -0.756598 -1.207571
  H 5.208158 -0.226889 -0.140847
  H 5.013228 -2.413684 -3.583755
  H 5.043111 -0.778660 -4.172833
  H 2.671672 -0.456139 -3.445197
  H 2.643744 -2.140588 -2.867208
  H 3.166320 -1.266907 -5.746027
  H 1.669118 -1.964632 -5.134622
  H 3.139927 -2.933586 -5.170676
  H 6.938410 -0.697377 -1.328311
 29
 69.778991
  C 1.124719 -0.075213 0.298471
  C 2.549428 0.117650 0.431344
  C 3.212549 0.762953 1.591714
  C 2.266068 1.253708 2.681195
  H 2.827751 1.735264 3.470453
  C 3.193716 -0.401066 -0.672976
  C 4.548381 -0.529769 -0.945050
  C 5.182528 -0.973131 -2.093265
  C 4.602474 -1.413535 -3.390886
  C 3.088385 -1.435077 -3.575877
  C 2.737553 -1.889816 -4.994651
  O 6.506234 -1.024300 -2.129430
  H 0.586000 -0.415929 1.177229
  H 1.336492 -0.833258 -0.745385
  H 0.618020 0.777196 -0.118032
  H 3.806645 1.604994 1.229255
  H 3.923321 0.060679 2.018634
  H 1.721013 0.440175 3.114248
  H 1.566499 1.962422 2.290544
  H 2.065051 -0.807129 -1.205278
  H 5.209525 -0.271702 -0.119993
  H 5.010486 -2.418037 -3.593719
  H 5.053342 -0.765461 -4.161987
  H 2.682125 -0.441550 -3.418294
  H 2.641864 -2.130138 -2.871355
  H 3.159365 -1.213176 -5.737396
  H 1.656041 -1.909480 -5.131372
  H 3.121407 -2.891562 -5.190066
  H 6.943352 -0.738251 -1.308249
 29
 78.687370
  C 1.100792 -0.109249 0.359975
  C 2.535367 0.096548 0.437253
  C 3.212565 0.797274 1.562904
  C 2.284060 1.306663 2.648468
  H 2.856501 1.830876 3.406498
  C 3.191281 -0.433188 -0.652120
  C 4.543744 -0.567256 -0.926479
  C 5.181156 -0.996305 -2.075107
  C 4.605511 -1.411343 -3.392129
  C 3.092482 -1.418074 -3.587255
  C 2.748483 -1.836133 -5.011790
  O 6.503166 -1.056310 -2.101966
  H 0.601793 -0.446988 1.254107
  H 1.296223 -0.931694 -0.763958
  H 0.554863 0.718603 -0.077732
  H 3.779770 1.638716 1.156755
  H 3.952587 0.117934 2.003961
  H 1.762898 0.492063 3.129485
  H 1.555086 1.991791 2.244328
  H 1.986825 -0.901176 -1.217176
  H 5.201509 -0.334475 -0.090226
  H 5.006016 -2.409073 -3.610826
  H 5.063453 -0.754508 -4.143118
  H 2.690962 -0.423741 -3.408926
  H 2.636449 -2.127660 -2.900755
  H 3.178843 -1.146125 -5.735255
  H 1.670154 -1.845468 -5.154600
  H 3.126696 -2.833890 -5.226959
  H 6.935944 -0.785001 -1.270822
 29
 86.916707
  C 1.086154 -0.133312 0.424560
  C 2.519019 0.074958 0.439009
  C 3.210765 0.828709 1.527473
  C 2.296903 1.361859 2.616335
  H 2.878923 1.923620 3.338633
  C 3.187034 -0.462570 -0.627550
  C 4.535071 -0.605468 -0.912262
  C 5.175250 -1.019255 -2.061090
  C 4.609523 -1.404781 -3.389151
  C 3.099131 -1.397645 -3.595257
  C 2.761291 -1.781363 -5.033025
  O 6.499556 -1.090057 -2.081000
  H 0.623511 -0.459311 1.342464
  H 1.247915 -1.036402 -0.775224
  H 0.505462 0.655552 -0.041782
  H 3.752102 1.665072 1.076453
  H 3.969712 0.177777 1.975121
  H 1.802422 0.556061 3.142399
  H 1.544650 2.020410 2.205634
  H 1.902143 -1.004816 -1.226588
  H 5.188888 -0.400496 -0.067873
  H 5.005075 -2.399955 -3.624190
  H 5.077439 -0.735403 -4.122128
  H 2.701729 -0.404121 -3.395350
  H 2.634435 -2.122160 -2.928045
  H 3.199481 -1.078304 -5.737364
  H 1.684579 -1.781699 -5.182814
  H 3.135560 -2.775487 -5.268302
  H 6.928515 -0.836440 -1.242284
 29
 93.657431
  C 1.078097 -0.176779 0.492045
  C 2.504717 0.039390 0.434747
  C 3.204652 0.871855 1.468235
  C 2.299927 1.441225 2.554142
  H 2.887891 2.059822 3.228470
  C 3.196820 -0.511932 -0.596869
  C 4.536806 -0.665983 -0.890000
  C 5.180783 -1.058662 -2.044894
  C 4.617936 -1.394762 -3.380993
  C 3.110590 -1.359635 -3.583021
  C 2.762232 -1.687422 -5.038468
  O 6.505720 -1.149702 -2.061953
  H 0.654875 -0.479782 1.444993
  H 1.196569 -1.200564 -0.789134
  H 0.456867 0.557035 -0.010404
  H 3.708241 1.695509 0.955208
  H 3.986551 0.264947 1.928955
  H 1.841571 0.650961 3.140872
  H 1.515236 2.057193 2.128576
  H 1.825123 -1.168741 -1.244608
  H 5.183565 -0.501493 -0.033789
  H 4.998911 -2.385292 -3.646072
  H 5.094835 -0.709522 -4.090115
  H 2.725749 -0.365661 -3.342836
  H 2.637596 -2.105644 -2.939572
  H 3.207005 -0.965216 -5.718495
  H 1.684294 -1.669221 -5.184899
  H 3.123999 -2.678399 -5.311330
  H 6.933761 -0.926529 -1.215745
 29
 98.278736
  C 1.071780 -0.199157 0.538335
  C 2.488392 0.010275 0.421339
  C 3.194910 0.909946 1.410533
  C 2.302013 1.514473 2.481946
  H 2.896009 2.174629 3.110632
  C 3.212666 -0.549394 -0.569136
  C 4.544445 -0.715079 -0.869548
  C 5.191004 -1.088848 -2.027871
  C 4.624904 -1.381089 -3.374071
  C 3.114453 -1.319877 -3.565776
  C 2.751526 -1.593793 -5.025870
  O 6.514146 -1.200207 -2.041865
  H 0.681038 -0.469177 1.515248
  H 1.140466 -1.373374 -0.818646
  H 0.417457 0.468070 -0.007376
  H 3.671638 1.713441 0.847840
  H 3.994909 0.335704 1.886892
  H 1.870411 0.747164 3.118869
  H 1.499092 2.097170 2.044612
  H 1.753240 -1.344761 -1.280180
  H 5.187986 -0.586882 0.002377
  H 4.991990 -2.368179 -3.669139
  H 5.109244 -0.682124 -4.064422
  H 2.743222 -0.331206 -3.287711
  H 2.637055 -2.081786 -2.944702
  H 3.200580 -0.853111 -5.685594
  H 1.670826 -1.558060 -5.162866
  H 3.100552 -2.581548 -5.334498
  H 6.941913 -1.004731 -1.189242
