 18
 0.000000
  C 0.903486 0.052572 0.203966
  C 2.402238 0.058719 0.094977
  C 3.256602 -0.011849 1.345669
  C 2.526569 -0.087183 2.680698
  H 3.250944 -0.132793 3.489019
  C 3.008690 0.125252 -1.084096
  C 2.359498 0.201151 -2.429165
  H 1.273708 0.199249 -2.395449
  H 4.091024 0.127461 -1.123220
  H 0.566923 -0.005497 1.233039
  H 0.487534 -0.803669 -0.325157
  H 0.487534 0.962911 -0.225476
  H 3.907538 0.867201 1.362714
  H 3.907546 -0.887238 1.263715
  H 1.901082 -0.975526 2.735693
  H 1.901051 0.789357 2.835282
  H 2.687542 -0.643150 -3.039576
  H 2.687551 1.108786 -2.940743
 18
 7.108069
  C 0.787893 0.052234 0.209997
  C 2.445720 0.058912 0.091597
  C 3.291914 -0.011676 1.342637
  C 2.553500 -0.086770 2.673407
  H 3.273778 -0.132670 3.486884
  C 3.044606 0.125293 -1.084783
  C 2.390492 0.200973 -2.425990
  H 1.306364 0.198533 -2.382737
  H 4.126914 0.127659 -1.126692
  H 0.455877 -0.005805 1.238537
  H 0.378287 -0.802895 -0.320324
  H 0.378288 0.961598 -0.220758
  H 3.943017 0.867472 1.362440
  H 3.943022 -0.887469 1.263412
  H 1.927655 -0.975035 2.724584
  H 1.927638 0.790106 2.824185
  H 2.714208 -0.643061 -3.037953
  H 2.714212 1.108503 -2.939130
 18
 22.418416
  C 0.697081 0.051770 0.218271
  C 2.513942 0.059011 0.089900
  C 3.330078 -0.011750 1.343992
  C 2.558947 -0.085797 2.656188
  H 3.259207 -0.132781 3.488881
  C 3.083753 0.125598 -1.090140
  C 2.403800 0.200492 -2.417437
  H 1.322912 0.196084 -2.339301
  H 4.166456 0.128929 -1.149158
  H 0.387194 -0.006422 1.249503
  H 0.309535 -0.803184 -0.315269
  H 0.309538 0.961318 -0.215699
  H 3.981050 0.867746 1.375618
  H 3.981057 -0.889221 1.276477
  H 1.931351 -0.972878 2.690485
  H 1.931343 0.791788 2.790059
  H 2.711470 -0.643531 -3.036801
  H 2.711467 1.108826 -2.937921
 18
 39.302910
  C 0.598897 0.051246 0.227541
  C 2.574924 0.058943 0.091094
  C 3.368192 -0.012576 1.358618
  C 2.568504 -0.085681 2.654126
  H 3.248968 -0.133543 3.502362
  C 3.123600 0.126764 -1.110835
  C 2.418050 0.200973 -2.425989
  H 1.339129 0.194778 -2.316197
  H 4.207456 0.131133 -1.188245
  H 0.310074 -0.007286 1.264807
  H 0.232964 -0.810235 -0.312954
  H 0.232965 0.968065 -0.212608
  H 4.019064 0.867441 1.402263
  H 4.019066 -0.891910 1.302987
  H 1.939455 -0.972004 2.672814
  H 1.939448 0.792905 2.772403
  H 2.711061 -0.643333 -3.052078
  H 2.711063 1.110351 -2.953127
 18
 54.258890
  C 0.533247 0.053161 0.193610
  C 2.670630 0.059226 0.086105
  C 3.409819 -0.014903 1.399883
  C 2.557374 -0.086316 2.665376
  H 3.203909 -0.135739 3.541339
  C 3.141840 0.128146 -1.135293
  C 2.378485 0.200509 -2.417746
  H 1.310908 0.190169 -2.234465
  H 4.221883 0.135122 -1.258917
  H 0.309043 -0.006050 1.242882
  H 0.264710 -0.829906 -0.372816
  H 0.264708 0.994354 -0.269881
  H 4.056306 0.866842 1.470066
  H 4.056301 -0.898930 1.370434
  H 1.931168 -0.973485 2.656502
  H 1.931180 0.796190 2.756354
  H 2.639809 -0.644171 -3.057513
  H 2.639808 1.111786 -2.958426
 18
 69.342427
  C 0.436532 0.051738 0.218799
  C 2.732405 0.058947 0.091038
  C 3.440361 -0.014348 1.390003
  C 2.551824 -0.084347 2.630476
  H 3.171451 -0.134835 3.525270
  C 3.178240 0.128089 -1.134288
  C 2.394306 0.199661 -2.402685
  H 1.330085 0.188071 -2.197265
  H 4.261536 0.136282 -1.279468
  H 0.253822 -0.007681 1.271756
  H 0.202746 -0.830527 -0.346449
  H 0.202746 0.991996 -0.243606
  H 4.090222 0.868904 1.473295
  H 4.090231 -0.901364 1.373402
  H 1.922072 -0.969406 2.599645
  H 1.922061 0.798565 2.699409
  H 2.643685 -0.645349 -3.044938
  H 2.643685 1.111542 -2.945790
 18
 82.464130
  C nan nan nan
  C nan nan nan
  C nan nan nan
  C nan nan nan
  H nan nan nan
  C nan nan nan
  C nan nan nan
  H nan nan nan
  H nan nan nan
  H nan nan nan
  H nan nan nan
  H nan nan nan
  H nan nan nan
  H nan nan nan
  H nan nan nan
  H nan nan nan
  H nan nan nan
  H nan nan nan
