 14
 0.000000
  C 0.908620 0.051946 0.215101
  C 2.400782 0.057328 0.119713
  H 2.950152 0.004760 1.051394
  C 3.072177 0.122333 -1.032293
  H 2.539246 0.175468 -1.973971
  C 4.509020 0.127867 -1.130318
  C 5.165151 0.193140 -2.287197
  O 6.510457 0.201378 -2.433165
  H 0.586814 -0.006597 1.252571
  H 0.490532 -0.800866 -0.319358
  H 0.490535 0.959469 -0.220023
  H 5.069804 0.075551 -0.203121
  H 4.669852 0.247196 -3.245174
  H 6.931965 0.152493 -1.566746
 14
 7.476186
  C 0.804890 0.050875 0.234075
  C 2.455581 0.057245 0.121179
  H 3.004825 0.004891 1.049064
  C 3.112099 0.122131 -1.028724
  H 2.571172 0.174971 -1.965177
  C 4.548573 0.128258 -1.137244
  C 5.197109 0.193966 -2.301832
  O 6.541521 0.202818 -2.458687
  H 0.493496 -0.007678 1.271724
  H 0.390644 -0.800881 -0.298560
  H 0.390645 0.957145 -0.199356
  H 5.115845 0.076178 -0.214244
  H 4.693534 0.247797 -3.255839
  H 6.970746 0.154072 -1.594732
 14
 23.370892
  C 0.696753 0.046118 0.254348
  C 2.508615 0.057954 0.130339
  H 3.043184 0.004908 1.063641
  C 3.150282 0.122628 -1.025189
  H 2.600230 0.175420 -1.956261
  C 4.588388 0.129305 -1.145898
  C 5.224761 0.194502 -2.318995
  O 6.567009 0.203565 -2.480524
  H 0.403464 -0.005411 1.292781
  H 0.301449 -0.802556 -0.283094
  H 0.307909 0.954501 -0.192485
  H 5.163054 0.077546 -0.228080
  H 4.708982 0.248376 -3.264776
  H 7.008514 0.155018 -1.625634
 14
 40.945825
  C 0.585519 0.040945 0.260951
  C 2.558496 0.072188 0.166306
  H 3.043140 0.017874 1.120741
  C 3.182054 0.136614 -1.014884
  H 2.619567 0.194158 -1.937466
  C 4.625447 0.129731 -1.152272
  C 5.243965 0.191337 -2.331888
  O 6.585074 0.196355 -2.522895
  H 0.324629 -0.013501 1.304191
  H 0.262842 -0.826271 -0.292430
  H 0.247587 0.953884 -0.198441
  H 5.209928 0.071858 -0.241510
  H 4.710870 0.255142 -3.270194
  H 7.042218 0.141782 -1.668417
 14
 58.038504
  C 0.492624 0.044444 0.246684
  C 2.626496 0.061915 0.184663
  H 3.056151 0.004938 1.162285
  C 3.214212 0.125940 -0.987459
  H 2.634977 0.179311 -1.898331
  C 4.655196 0.133290 -1.152120
  C 5.236602 0.195507 -2.325218
  O 6.562843 0.200207 -2.545945
  H 0.274698 -0.010897 1.291801
  H 0.244389 -0.824222 -0.314489
  H 0.230473 0.970877 -0.223087
  H 5.255230 0.080600 -0.252887
  H 4.683362 0.248605 -3.248411
  H 7.032826 0.150219 -1.710279
 14
 73.800495
  C 0.377971 0.047950 0.250488
  C 2.671905 0.054374 0.215692
  H 3.051792 -0.002705 1.214317
  C 3.247408 0.119156 -0.961258
  H 2.659373 0.170007 -1.866447
  C 4.685070 0.130191 -1.147825
  C 5.256361 0.196036 -2.350038
  O 6.590605 0.208789 -2.596697
  H 0.191518 -0.007641 1.304484
  H 0.181801 -0.834922 -0.321045
  H 0.175324 0.989270 -0.228334
  H 5.298061 0.080896 -0.256806
  H 4.686063 0.246341 -3.264783
  H 7.082560 0.162271 -1.759873
 14
 88.155141
  C 0.266806 0.048425 0.263818
  C 2.720112 0.055262 0.229587
  H 3.085190 -0.001834 1.226840
  C 3.284027 0.120228 -0.951267
  H 2.686716 0.171602 -1.852188
  C 4.727614 0.130098 -1.153613
  C 5.285169 0.196189 -2.361049
  O 6.606948 0.209450 -2.620144
  H 0.099973 -0.007026 1.317374
  H 0.092865 -0.837232 -0.309618
  H 0.086925 0.983445 -0.211612
  H 5.350439 0.080191 -0.267728
  H 4.704349 0.247750 -3.271603
  H 7.101315 0.162995 -1.796617
 14
 99.997314
  C 0.154339 0.045144 0.279459
  C 2.766927 0.054531 0.240221
  H 3.125818 -0.002783 1.243675
  C 3.319899 0.120006 -0.943930
  H 2.715412 0.171305 -1.839487
  C 4.761061 0.130303 -1.161329
  C 5.304820 0.196876 -2.373535
  O 6.632763 0.211055 -2.649813
  H 0.005004 -0.010965 1.335988
  H -0.001344 -0.838734 -0.292328
  H -0.011478 0.988570 -0.200231
  H 5.391920 0.080418 -0.283075
  H 4.714174 0.248542 -3.275611
  H 7.142770 0.164069 -1.824223
 14
 109.525494
  C 0.041275 0.045843 0.294170
  C 2.813218 0.055501 0.254293
  H 3.160418 -0.001977 1.257189
  C 3.357047 0.121053 -0.932306
  H 2.745077 0.172893 -1.823750
  C 4.798465 0.130562 -1.165423
  C 5.328884 0.197416 -2.385056
  O 6.644379 0.211292 -2.673267
  H -0.089940 -0.010081 1.351627
  H -0.094887 -0.844280 -0.281986
  H -0.103919 0.984864 -0.183022
  H 5.438789 0.080030 -0.292753
  H 4.728176 0.249938 -3.282202
  H 7.157410 0.164219 -1.860532
 14
 116.928563
  C -0.074904 0.042246 0.310910
  C 2.856322 0.054699 0.266193
  H 3.197569 -0.002979 1.274613
  C 3.390187 0.120650 -0.922966
  H 2.770808 0.172345 -1.809220
  C 4.829347 0.130897 -1.172366
  C 5.344898 0.198151 -2.396506
  O 6.666365 0.212769 -2.702929
  H -0.188183 -0.014210 1.370980
  H -0.192018 -0.845002 -0.263093
  H -0.204819 0.989197 -0.170425
  H 5.478324 0.080503 -0.307708
  H 4.733613 0.250488 -3.285144
  H 7.195102 0.165321 -1.889760
 14
 122.539392
  C -0.191534 0.042866 0.328719
  C 2.898992 0.055496 0.279818
  H 3.232543 -0.002351 1.286893
  C 3.425352 0.121468 -0.911384
  H 2.799012 0.173623 -1.793506
  C 4.863069 0.131251 -1.176210
  C 5.365647 0.198798 -2.407851
  O 6.674174 0.212967 -2.725371
  H -0.288745 -0.013347 1.389307
  H -0.293105 -0.850450 -0.249527
  H -0.304792 0.985268 -0.149924
  H 5.521143 0.080341 -0.317364
  H 4.745099 0.251659 -3.291103
  H 7.205816 0.165509 -1.924413
 14
 126.676355
  C -0.312189 0.038993 0.349210
  C 2.937540 0.054671 0.291272
  H 3.268476 -0.003310 1.302543
  C 3.455087 0.120933 -0.902268
  H 2.821396 0.172837 -1.779331
  C 4.889878 0.131632 -1.182863
  C 5.378045 0.199483 -2.418351
  O 6.692713 0.214371 -2.753689
  H -0.393385 -0.017619 1.411965
  H -0.398844 -0.850719 -0.226430
  H -0.413563 0.988563 -0.133177
  H 5.556360 0.081014 -0.331850
  H 4.747276 0.251927 -3.293534
  H 7.239348 0.166731 -1.952992
 14
 129.653297
  C -0.434088 0.039411 0.371812
  C 2.974836 0.055318 0.304384
  H 3.301919 -0.002792 1.313352
  C 3.485644 0.121564 -0.891262
  H 2.845132 0.173836 -1.763995
  C 4.918268 0.131970 -1.186523
  C 5.394125 0.200099 -2.429057
  O 6.695426 0.214585 -2.774312
  H -0.501419 -0.016921 1.434577
  H -0.509693 -0.855834 -0.207691
  H -0.523340 0.984089 -0.107674
  H 5.593364 0.080970 -0.341290
  H 4.754998 0.252876 -3.298792
  H 7.244499 0.167033 -1.985056
 14
 131.708221
  C -0.561732 0.035168 0.398152
  C 3.006236 0.054465 0.315782
  H 3.333995 -0.003688 1.327778
  C 3.508628 0.120901 -0.882320
  H 2.860717 0.172809 -1.749839
  C 4.937869 0.132293 -1.192554
  C 5.399980 0.200616 -2.438238
  O 6.707588 0.215876 -2.800771
  H -0.615003 -0.021445 1.462627
  H -0.626878 -0.856048 -0.178455
  H -0.642989 0.986358 -0.084786
  H 5.620978 0.081733 -0.354967
  H 4.751125 0.252830 -3.300310
  H 7.270899 0.168318 -2.012172
