 19
 0.000000
  C 0.969100 0.184873 0.511727
  C 2.415635 0.113655 0.334588
  H 3.055726 0.438862 1.143964
  C 2.992351 -0.351806 -0.824382
  C 4.383474 -0.423104 -1.002698
  C 5.079106 -0.865268 -2.105511
  C 4.653625 -1.386071 -3.404167
  C 3.185553 -1.529172 -3.760936
  H 3.100939 -1.932091 -4.765907
  H 6.158046 -0.828965 -2.015415
  H 0.685803 0.575076 1.482948
  H 0.523780 -0.803883 0.375553
  H 0.523791 0.804670 -0.270641
  H 2.341947 -0.672140 -1.621890
  H 4.988729 -0.088512 -0.169145
  H 5.151247 -2.360490 -3.518679
  H 5.151298 -0.760844 -4.160175
  H 2.679957 -0.566829 -3.745130
  H 2.680040 -2.214102 -3.084675
 19
 0.206648
  C 0.974334 0.180265 0.522325
  C 2.413044 0.021488 0.335230
  H 3.056003 0.089507 1.202415
  C 2.980101 -0.239930 -0.889687
  C 4.372344 -0.365857 -1.039695
  C 5.084486 -0.777358 -2.143333
  C 4.661543 -1.392868 -3.397438
  C 3.192734 -1.594622 -3.714632
  H 3.100596 -2.137709 -4.652478
  H 6.162562 -0.690519 -2.058544
  H 0.708092 0.391861 1.551484
  H 0.446779 -0.717684 0.187504
  H 0.594793 0.968982 -0.130207
  H 2.331285 -0.310354 -1.746145
  H 4.957367 -0.071137 -0.176261
  H 5.182078 -2.364346 -3.447355
  H 5.145768 -0.828780 -4.209322
  H 2.681604 -0.643467 -3.835265
  H 2.698154 -2.176598 -2.941749
 19
 1.437439
  C 0.977190 0.130729 0.484930
  C 2.412896 -0.068053 0.302149
  H 3.024707 -0.227827 1.176810
  C 3.006422 -0.107676 -0.933245
  C 4.400876 -0.266360 -1.081452
  C 5.106075 -0.717650 -2.168399
  C 4.654004 -1.423975 -3.366322
  C 3.172138 -1.614404 -3.628944
  H 3.039660 -2.243263 -4.505304
  H 6.188144 -0.630633 -2.103198
  H 0.690990 0.163674 1.533135
  H 0.416073 -0.662420 -0.012899
  H 0.657700 1.043047 -0.021177
  H 2.381865 0.034684 -1.808215
  H 4.989513 0.049771 -0.229063
  H 5.151823 -2.403839 -3.347307
  H 5.127466 -0.931785 -4.228389
  H 2.683444 -0.667578 -3.827734
  H 2.680431 -2.101764 -2.783862
 19
 3.457870
  C 0.979594 0.110981 0.423274
  C 2.406920 -0.150798 0.248603
  H 2.964792 -0.537893 1.090796
  C 3.045285 -0.013879 -0.955341
  C 4.440825 -0.208459 -1.103752
  C 5.128916 -0.665173 -2.193319
  C 4.638258 -1.431349 -3.342785
  C 3.147514 -1.650786 -3.507665
  H 2.968878 -2.292764 -4.366544
  H 6.209537 -0.581651 -2.154627
  H 0.657917 -0.027162 1.449266
  H 0.388750 -0.551811 -0.217964
  H 0.733196 1.117744 0.077938
  H 2.464615 0.314968 -1.807272
  H 5.038176 0.145907 -0.270085
  H 5.159398 -2.401728 -3.321187
  H 5.044957 -0.952347 -4.241888
  H 2.627056 -0.715931 -3.679708
  H 2.723267 -2.134523 -2.628955
 19
 6.578145
  C 0.993520 0.024811 0.346797
  C 2.419440 -0.238090 0.159090
  H 2.946196 -0.784721 0.931822
  C 3.091618 0.106980 -0.977552
  C 4.490638 -0.110296 -1.147409
  C 5.161005 -0.658662 -2.193286
  C 4.607828 -1.465549 -3.291630
  C 3.104260 -1.622477 -3.378073
  H 2.855754 -2.296276 -4.192692
  H 6.241268 -0.605330 -2.179015
  H 0.647431 -0.275931 1.328789
  H 0.398737 -0.503521 -0.409108
  H 0.779441 1.083684 0.173281
  H 2.542473 0.610446 -1.766264
  H 5.081277 0.323399 -0.344872
  H 5.093032 -2.452292 -3.254711
  H 4.986009 -1.025695 -4.221320
  H 2.614341 -0.670685 -3.569306
  H 2.704814 -2.045315 -2.461649
 19
 10.788928
  C 0.985221 0.038052 0.266516
  C 2.397716 -0.303913 0.067783
  H 2.848950 -1.029104 0.730831
  C 3.143955 0.217262 -0.946707
  C 4.518536 -0.111321 -1.168572
  C 5.177364 -0.638026 -2.218758
  C 4.587341 -1.449782 -3.301482
  C 3.097245 -1.722755 -3.221128
  H 2.803904 -2.391841 -4.028297
  H 6.253754 -0.562780 -2.249242
  H 0.568096 -0.444834 1.138984
  H 0.386434 -0.245162 -0.603750
  H 0.869192 1.121719 0.336657
  H 2.676269 0.909807 -1.637454
  H 5.095002 0.340222 -0.358297
  H 5.148609 -2.390820 -3.374693
  H 4.810898 -0.908854 -4.229476
  H 2.521793 -0.810017 -3.314118
  H 2.840611 -2.208155 -2.278394
 19
 16.359916
  C 0.991083 0.013312 0.280566
  C 2.380349 -0.359118 0.002640
  H 2.822450 -1.160985 0.570462
  C 3.132438 0.270523 -0.946935
  C 4.495246 -0.069476 -1.241056
  C 5.183739 -0.619611 -2.234212
  C 4.598819 -1.476432 -3.303539
  C 3.109561 -1.743922 -3.180966
  H 2.787702 -2.392904 -3.989721
  H 6.264418 -0.552892 -2.246561
  H 0.560818 -0.584723 1.077608
  H 0.368375 -0.092207 -0.604106
  H 0.932963 1.079897 0.527490
  H 2.677164 1.065940 -1.530726
  H 4.997088 0.495013 -0.448812
  H 5.149298 -2.423345 -3.327598
  H 4.813439 -0.959526 -4.246975
  H 2.543463 -0.825905 -3.246119
  H 2.875562 -2.243909 -2.238877
 19
 24.912854
  C 0.984106 0.097306 0.430512
  C 2.322991 -0.362841 0.042608
  H 2.740113 -1.220319 0.548349
  C 3.077262 0.291479 -0.894492
  C 4.377937 -0.095532 -1.340065
  C 5.152685 -0.655255 -2.229359
  C 4.673353 -1.506462 -3.364242
  C 3.198289 -1.850550 -3.295017
  H 2.938341 -2.506140 -4.121831
  H 6.220000 -0.486777 -2.222431
  H 0.550774 -0.523124 1.209119
  H 0.305182 0.115082 -0.422943
  H 1.031112 1.135512 0.761440
  H 2.614688 1.103393 -1.452918
  H 4.723903 0.584168 -0.512545
  H 5.273604 -2.421004 -3.380167
  H 4.893587 -0.955815 -4.285495
  H 2.579910 -0.954079 -3.362393
  H 2.968209 -2.367832 -2.374891
 19
 33.202995
  C 1.019081 0.172961 0.646681
  C 2.272431 -0.370648 0.118949
  H 2.688802 -1.266690 0.561436
  C 2.969830 0.267428 -0.888141
  C 4.209467 -0.141092 -1.435079
  C 5.091255 -0.632530 -2.251654
  C 4.771512 -1.577101 -3.379056
  C 3.285512 -1.879008 -3.524158
  H 3.127990 -2.557159 -4.360874
  H 6.141093 -0.386192 -2.161821
  H 0.664152 -0.384077 1.505634
  H 0.239967 0.166898 -0.119304
  H 1.144444 1.222931 0.913796
  H 2.456307 1.078342 -1.396560
  H 4.374616 0.665326 -0.588495
  H 5.332156 -2.506567 -3.207700
  H 5.157882 -1.129635 -4.294646
  H 2.722751 -0.970077 -3.714102
  H 2.895510 -2.352933 -2.628106
 19
 40.015876
  C 1.040716 0.173654 0.735791
  C 2.312821 -0.330962 0.210827
  H 2.742532 -1.231692 0.619421
  C 3.014721 0.369567 -0.806296
  C 4.084315 -0.177394 -1.534515
  C 5.018752 -0.688036 -2.253920
  C 4.788861 -1.598961 -3.431575
  C 3.321118 -1.908859 -3.683234
  H 3.226496 -2.584456 -4.530124
  H 6.067185 -0.495725 -2.051111
  H 0.665050 -0.445719 1.541962
  H 0.286078 0.215936 -0.054684
  H 1.146758 1.202217 1.088021
  H 2.481288 1.199084 -1.268475
  H 4.092305 0.753735 -0.438719
  H 5.344240 -2.521806 -3.249665
  H 5.230936 -1.118174 -4.306677
  H 2.767411 -1.002302 -3.909609
  H 2.870276 -2.386274 -2.816341
 19
 39.300651
  C 1.065573 0.226437 0.808202
  C 2.305494 -0.294827 0.232279
  H 2.742680 -1.198354 0.621817
  C 2.980456 0.405523 -0.824565
  C 3.999920 -0.189455 -1.591190
  C 4.966423 -0.693925 -2.261491
  C 4.816219 -1.634530 -3.430903
  C 3.368841 -1.989911 -3.739263
  H 3.330415 -2.684131 -4.574510
  H 6.003357 -0.467841 -2.026423
  H 0.719881 -0.381091 1.637275
  H 0.276342 0.271275 0.051494
  H 1.193273 1.256282 1.146418
  H 2.401621 1.184556 -1.321241
  H 3.923747 0.893628 -0.394762
  H 5.389321 -2.538867 -3.204071
  H 5.282209 -1.160294 -4.294617
  H 2.800907 -1.101945 -4.008699
  H 2.895709 -2.461334 -2.884026
 19
 37.876402
  C 1.070037 0.164051 0.780933
  C 2.371514 -0.275396 0.289543
  H 2.854860 -1.134955 0.725069
  C 3.057464 0.450466 -0.766433
  C 4.016967 -0.186003 -1.583203
  C 4.959181 -0.733034 -2.248868
  C 4.789173 -1.641164 -3.442942
  C 3.333178 -1.927201 -3.777764
  H 3.277196 -2.595508 -4.633027
  H 6.002989 -0.557709 -1.997642
  H 0.718948 -0.448966 1.604135
  H 0.329530 0.138667 -0.023409
  H 1.100527 1.208961 1.101407
  H 2.462819 1.214493 -1.269392
  H 3.890754 0.967152 -0.218584
  H 5.319381 -2.570704 -3.227726
  H 5.286912 -1.167562 -4.291477
  H 2.806977 -1.009687 -4.027557
  H 2.829972 -2.402761 -2.939954
 19
 36.916170
  C 1.094555 0.177542 0.829492
  C 2.380512 -0.281986 0.316671
  H 2.860662 -1.146773 0.747844
  C 3.073755 0.441474 -0.748129
  C 4.020061 -0.224578 -1.551584
  C 4.953663 -0.783504 -2.218840
  C 4.792697 -1.673456 -3.428814
  C 3.337710 -1.894840 -3.818513
  H 3.284997 -2.550183 -4.684490
  H 5.998841 -0.629657 -1.950682
  H 0.738016 -0.442150 1.646846
  H 0.343992 0.187044 0.032068
  H 1.150871 1.216074 1.170293
  H 2.432610 1.123069 -1.312113
  H 3.766478 1.094408 -0.163080
  H 5.274310 -2.627076 -3.200288
  H 5.341810 -1.215964 -4.255309
  H 2.858909 -0.953677 -4.075787
  H 2.785532 -2.358320 -3.004302
 19
 35.788371
  C 1.146760 0.226545 0.942248
  C 2.365165 -0.295370 0.335590
  H 2.790046 -1.218606 0.697387
  C 3.019554 0.398094 -0.768441
  C 3.993612 -0.269395 -1.536663
  C 4.933689 -0.857299 -2.166296
  C 4.819461 -1.698092 -3.414990
  C 3.390165 -1.820833 -3.922645
  H 3.368687 -2.447352 -4.809966
  H 5.962110 -0.765733 -1.820024
  H 0.979833 -0.188841 1.932173
  H 0.280074 -0.046172 0.328800
  H 1.142254 1.316189 0.983305
  H 2.302489 0.930660 -1.408435
  H 3.574758 1.246670 -0.320960
  H 5.226852 -2.685139 -3.185810
  H 5.455738 -1.248070 -4.178811
  H 2.989199 -0.845954 -4.185847
  H 2.749537 -2.273853 -3.169335
