 14
 0.000000
  H 1.383975 0.137746 0.394054
  C 2.453972 0.138831 0.396445
  C 3.235887 0.609601 1.567949
  H 2.688339 0.952271 2.420984
  C 3.074760 -0.323868 -0.755623
  C 4.452396 -0.411652 -0.974602
  C 5.123831 -0.863395 -2.100714
  H 4.763810 -1.238544 -3.035887
  O 6.448567 -0.861790 -2.097024
  H 3.892013 1.422462 1.236076
  H 3.892206 -0.206765 1.890660
  H 2.419633 -0.642347 -1.548686
  H 5.073532 -0.080521 -0.149771
  H 6.820588 -0.526463 -1.260938
 14
 0.000000
  H 1.420350 0.131133 0.377597
  C 2.490281 0.135806 0.388911
  C 3.260816 0.609178 1.566890
  H 2.705027 0.949997 2.415325
  C 3.137317 -0.335811 -0.785376
  C 4.448433 -0.427917 -1.015150
  C 5.088287 -0.861717 -2.096538
  H 4.749218 -1.239567 -3.038435
  O 6.351617 -0.839131 -2.040561
  H 3.916958 1.424240 1.240490
  H 3.917156 -0.204987 1.895073
  H 2.489898 -0.656475 -1.583871
  H 5.078526 -0.099134 -0.196192
  H 6.669625 -0.480047 -1.145241
 14
 0.000000
  H 1.455687 0.124999 0.362330
  C 2.525445 0.133619 0.383461
  C 3.283389 0.609808 1.568455
  H 2.718584 0.948559 2.411751
  C 3.201841 -0.347600 -0.814746
  C 4.448664 -0.443667 -1.054409
  C 5.057278 -0.860670 -2.093933
  H 4.737960 -1.240904 -3.041758
  O 6.257989 -0.819745 -1.992255
  H 3.939488 1.427291 1.248078
  H 3.939690 -0.201937 1.902659
  H 2.562963 -0.670637 -1.619143
  H 5.088434 -0.117479 -0.241940
  H 6.514592 -0.436325 -1.036255
 14
 0.000000
  H 1.489491 0.119562 0.348796
  C 2.558941 0.132509 0.380693
  C 3.302987 0.611735 1.573249
  H 2.728356 0.948179 2.410813
  C 3.268343 -0.359145 -0.843512
  C 4.453467 -0.458777 -1.092072
  C 5.031245 -0.860393 -2.093238
  H 4.729939 -1.242664 -3.046131
  O 6.168444 -0.803940 -1.952870
  H 3.958965 1.431873 1.259477
  H 3.959170 -0.197356 1.914057
  H 2.638904 -0.684748 -1.654294
  H 5.103704 -0.135464 -0.286792
  H 6.355492 -0.395968 -0.935656
 14
 0.000000
  H 1.520909 0.115216 0.337979
  C 2.589877 0.132892 0.381643
  C 3.318630 0.615372 1.582307
  H 2.733333 0.949249 2.413490
  C 3.336838 -0.370395 -0.871544
  C 4.463349 -0.473195 -1.128007
  C 5.010893 -0.861236 -2.095334
  H 4.725217 -1.245173 -3.052363
  O 6.084045 -0.792239 -1.923710
  H 3.974389 1.438412 1.275755
  H 3.974596 -0.190817 1.930332
  H 2.717805 -0.698759 -1.689197
  H 5.124938 -0.153084 -0.330731
  H 6.192789 -0.359690 -0.845218
 14
 0.000000
  H 1.548337 0.112653 0.331601
  C 2.616617 0.135435 0.387970
  C 3.328732 0.621354 1.597202
  H 2.732005 0.952405 2.421362
  C 3.406879 -0.381292 -0.898699
  C 4.478839 -0.486828 -1.161982
  C 4.997447 -0.863844 -2.101824
  H 4.724108 -1.249031 -3.061950
  O 6.007022 -0.785556 -1.907050
  H 3.984151 1.447527 1.298447
  H 3.984359 -0.181704 1.953022
  H 2.799185 -0.712587 -1.723646
  H 5.152623 -0.170254 -0.373552
  H 6.029086 -0.328588 -0.767672
 14
 0.000000
  H 1.570031 0.112885 0.332179
  C 2.637362 0.141214 0.402356
  C 3.331248 0.630782 1.620684
  H 2.722201 0.958699 2.437050
  C 3.479659 -0.392133 -0.925717
  C 4.500781 -0.499930 -1.194633
  C 4.992185 -0.869330 -2.115480
  H 4.727010 -1.255314 -3.077573
  O 5.938693 -0.785110 -1.905924
  H 3.986175 1.460360 1.330405
  H 3.986384 -0.168872 1.984976
  H 2.884412 -0.726554 -1.758444
  H 5.187746 -0.187300 -0.416059
  H 5.864703 -0.303319 -0.704660
 14
 0.000000
  H 1.584363 0.116611 0.341455
  C 2.650456 0.150837 0.426313
  C 3.324796 0.644184 1.654061
  H 2.702767 0.968696 2.461959
  C 3.554706 -0.402809 -0.952321
  C 4.528595 -0.512183 -1.225163
  C 4.995449 -0.878191 -2.137540
  H 4.733465 -1.264486 -3.100385
  O 5.881174 -0.791427 -1.921646
  H 3.979062 1.477381 1.372793
  H 3.979269 -0.151852 2.027362
  H 2.972830 -0.740483 -1.793150
  H 5.229381 -0.203827 -0.457268
  H 5.703613 -0.285054 -0.659095
 14
 0.000000
  H 1.588707 0.125185 0.362800
  C 2.653269 0.165517 0.462866
  C 3.307178 0.662668 1.700098
  H 2.671829 0.983574 2.499025
  C 3.632000 -0.413509 -0.978985
  C 4.562232 -0.523662 -1.253759
  C 5.008143 -0.891800 -2.171428
  H 4.743305 -1.277835 -3.133600
  O 5.837544 -0.805840 -1.957535
  H 3.960607 1.499615 1.428167
  H 3.960809 -0.129620 2.082733
  H 3.064129 -0.754479 -1.828022
  H 5.277262 -0.219867 -0.497256
  H 5.551531 -0.274606 -0.633005
 14
 0.000000
  H 1.580751 0.139403 0.398196
  C 2.643509 0.185898 0.513612
  C 3.276605 0.686774 1.760135
  H 2.627944 1.003958 2.549799
  C 3.710788 -0.424283 -1.005829
  C 4.600855 -0.534214 -1.280036
  C 5.030381 -0.910921 -2.219047
  H 4.756327 -1.296075 -3.178995
  O 5.810839 -0.828650 -2.014340
  H 3.929031 1.527504 1.497630
  H 3.929227 -0.101731 2.152192
  H 3.157213 -0.768502 -1.862960
  H 5.329877 -0.235059 -0.535121
  H 5.416179 -0.271930 -0.626282
 14
 0.000000
  H 1.559100 0.159890 0.449195
  C 2.619823 0.212453 0.579731
  C 3.232232 0.716883 1.835123
  H 2.570591 1.030320 2.615458
  C 3.790959 -0.435168 -1.032943
  C 4.643376 -0.543817 -1.303941
  C 5.060881 -0.935956 -2.281393
  H 4.771348 -1.319547 -3.237420
  O 5.801688 -0.859627 -2.091486
  H 3.883515 1.561340 1.581903
  H 3.883701 -0.067896 2.236463
  H 3.251621 -0.782509 -1.897856
  H 5.385783 -0.249260 -0.570501
  H 5.302344 -0.275975 -0.636304
 14
 0.000000
  H 1.541217 0.170932 0.476685
  C 2.600839 0.226497 0.614701
  C 3.202945 0.732645 1.874377
  H 2.534930 1.044200 2.650022
  C 3.820540 -0.437039 -1.037601
  C 4.659438 -0.544349 -1.305252
  C 5.075419 -0.944323 -2.302226
  H 4.779916 -1.327288 -3.256680
  O 5.803640 -0.870351 -2.118189
  H 3.853604 1.578946 1.625750
  H 3.853785 -0.050291 2.280311
  H 3.288303 -0.785897 -1.906293
  H 5.405419 -0.251045 -0.574943
  H 5.262929 -0.275624 -0.635408
 14
 0.000000
  H 1.468833 0.224936 0.611119
  C 2.524020 0.291187 0.775777
  C 3.089052 0.803224 2.050152
  H 2.398599 1.107907 2.808679
  C 3.985065 -0.459025 -1.092355
  C 4.750935 -0.561221 -1.347224
  C 5.146683 -1.010067 -2.465965
  H 4.803761 -1.387520 -3.406642
  O 5.823783 -0.952185 -2.322011
  H 3.737178 1.656090 1.817892
  H 3.737334 0.026851 2.472447
  H 3.478437 -0.813130 -1.974130
  H 5.522235 -0.277154 -0.639949
  H 5.100317 -0.303145 -0.703889
