 20
 0.000000
  H 1.500971 0.164950 0.460060
  C 2.581848 0.155285 0.436754
  C 3.310304 0.628076 1.614039
  C 2.429819 1.092362 2.768328
  C 3.269882 1.566289 3.950547
  C 3.167003 -0.311541 -0.724464
  C 4.545662 -0.400710 -0.946704
  C 5.113479 -0.869436 -2.113312
  H 4.536762 -1.212811 -2.965590
  O 6.386051 -0.954033 -2.328491
  H 3.978111 1.448133 1.319755
  H 3.977119 -0.168341 1.969181
  H 1.784792 0.276007 3.098362
  H 1.786207 1.911217 2.441697
  H 3.902630 0.765421 4.326010
  H 2.627054 1.893343 4.763714
  H 3.904215 2.403371 3.668347
  H 2.509423 -0.631477 -1.521292
  H 5.206223 -0.081063 -0.150534
  H 6.950904 -0.652391 -1.585892
 20
 0.037110
  H 1.560704 0.437627 0.378158
  C 2.628599 0.268157 0.402369
  C 3.335087 0.727234 1.598786
  C 2.425212 1.044479 2.781595
  C 3.225013 1.541667 3.979902
  C 3.202458 -0.324407 -0.701853
  C 4.581945 -0.474846 -0.898834
  C 5.097364 -0.919731 -2.102089
  H 4.435504 -1.203446 -2.914764
  O 6.347515 -1.033817 -2.397107
  H 3.887729 1.642597 1.340651
  H 4.102995 0.007114 1.898789
  H 1.876268 0.144786 3.065920
  H 1.692147 1.801945 2.497919
  H 3.947864 0.795810 4.302050
  H 2.562628 1.748736 4.816985
  H 3.758290 2.458817 3.740956
  H 2.549745 -0.655180 -1.496947
  H 5.265513 -0.187601 -0.111991
  H 6.973785 -0.789795 -1.681651
 20
 0.737018
  H 1.623648 0.696781 0.279578
  C 2.663164 0.407702 0.355950
  C 3.361493 0.845716 1.563748
  C 2.444448 0.986791 2.784603
  C 3.213661 1.495283 3.996889
  C 3.200133 -0.306411 -0.692613
  C 4.570329 -0.539702 -0.873880
  C 5.075936 -0.974701 -2.084432
  H 4.408725 -1.202692 -2.910154
  O 6.323238 -1.128227 -2.375675
  H 3.765909 1.848318 1.358035
  H 4.214771 0.209150 1.803352
  H 2.013006 0.012207 3.015051
  H 1.624202 1.669611 2.563294
  H 4.021512 0.815525 4.259177
  H 2.550803 1.575248 4.855919
  H 3.637305 2.479555 3.808259
  H 2.533955 -0.623660 -1.483362
  H 5.258930 -0.297105 -0.076741
  H 6.952429 -0.939203 -1.648108
 20
 4.800488
  H 1.743026 0.866633 0.193428
  C 2.728303 0.443398 0.343103
  C 3.414195 0.863893 1.564047
  C 2.451529 1.006053 2.756180
  C 3.191263 1.485766 4.000060
  C 3.178812 -0.433109 -0.620951
  C 4.547834 -0.639308 -0.847616
  C 5.046745 -0.917231 -2.103324
  H 4.383358 -0.989876 -2.959865
  O 6.291952 -1.062918 -2.409597
  H 3.840777 1.861009 1.396831
  H 4.230755 0.191115 1.824115
  H 1.996744 0.040112 2.956731
  H 1.653092 1.712596 2.514688
  H 3.980891 0.785926 4.279904
  H 2.502115 1.566662 4.835945
  H 3.638680 2.466525 3.835785
  H 2.488624 -0.760708 -1.384713
  H 5.239693 -0.535237 -0.021360
  H 6.923404 -0.928069 -1.672016
 20
 13.473906
  H 1.945418 0.966243 0.142996
  C 2.845954 0.397838 0.357418
  C 3.487481 0.761595 1.621076
  C 2.441408 1.077453 2.714654
  C 3.120486 1.504545 4.004350
  C 3.203502 -0.592092 -0.513087
  C 4.569465 -0.672796 -0.843107
  C 4.992781 -0.824128 -2.145657
  H 4.278462 -0.906404 -2.963756
  O 6.223417 -0.855730 -2.546363
  H 4.075050 1.685030 1.467845
  H 4.172074 -0.014088 1.962857
  H 1.838500 0.188599 2.909021
  H 1.774457 1.874800 2.370201
  H 3.746427 0.712943 4.387779
  H 2.373579 1.743187 4.757504
  H 3.732377 2.385961 3.854931
  H 2.479430 -1.022460 -1.183089
  H 5.305833 -0.632485 -0.057993
  H 6.892474 -0.763889 -1.838690
 20
 28.279210
  H 2.087118 0.906753 0.030034
  C 2.900067 0.262995 0.343127
  C 3.549779 0.724380 1.576989
  C 2.483768 1.180937 2.594562
  C 3.149225 1.547705 3.918395
  C 3.092003 -0.876617 -0.406782
  C 4.480530 -0.751762 -0.736623
  C 4.934655 -0.667909 -2.028298
  H 4.252959 -0.533148 -2.859204
  O 6.182657 -0.752917 -2.401849
  H 4.195600 1.593829 1.382692
  H 4.144308 -0.069515 2.017803
  H 1.770073 0.377277 2.766505
  H 1.946964 2.035159 2.206857
  H 3.670368 0.682448 4.343542
  H 2.398686 1.874592 4.631423
  H 3.870632 2.357671 3.789323
  H 2.375825 -1.257168 -1.115486
  H 5.221813 -0.807738 0.050501
  H 6.825934 -0.824989 -1.672773
 20
 40.175317
  H 2.363973 0.873709 -0.095720
  C 3.068162 0.130479 0.290682
  C 3.664256 0.549748 1.594114
  C 2.570815 1.165311 2.481946
  C 3.135531 1.508622 3.853884
  C 3.048092 -1.119423 -0.317331
  C 4.407163 -0.698279 -0.622677
  C 4.780247 -0.406209 -1.929253
  H 4.037632 -0.260212 -2.704080
  O 5.999701 -0.303425 -2.362534
  H 4.433558 1.308803 1.441155
  H 4.106336 -0.302952 2.112017
  H 1.747872 0.458936 2.597448
  H 2.178604 2.071444 2.017446
  H 3.489398 0.615608 4.363452
  H 2.367691 1.967304 4.471029
  H 3.963847 2.208761 3.768774
  H 2.327308 -1.535683 -0.992502
  H 5.177257 -0.813314 0.129003
  H 6.699131 -0.426333 -1.687995
 20
 38.405290
  H 2.583391 0.884723 -0.184859
  C 3.197049 0.104253 0.262582
  C 3.712293 0.506397 1.621991
  C 2.603250 1.193077 2.423916
  C 3.089169 1.526937 3.830475
  C 3.046970 -1.199553 -0.253371
  C 4.391355 -0.689064 -0.569314
  C 4.720852 -0.343810 -1.887989
  H 3.936753 -0.163008 -2.621591
  O 5.905095 -0.250675 -2.371127
  H 4.542977 1.208377 1.518561
  H 4.057787 -0.373517 2.172265
  H 1.734352 0.535726 2.490649
  H 2.294824 2.113531 1.922710
  H 3.365201 0.624593 4.369539
  H 2.305560 2.027087 4.389757
  H 3.953339 2.185952 3.796397
  H 2.318658 -1.625782 -0.911929
  H 5.196815 -0.881882 0.133353
  H 6.645504 -0.400660 -1.744786
 20
 37.393591
  H 2.709850 0.926132 -0.213427
  C 3.301049 0.144465 0.264721
  C 3.755293 0.551001 1.649656
  C 2.585384 1.158306 2.428826
  C 3.017063 1.526636 3.843333
  C 3.117198 -1.186328 -0.181806
  C 4.446301 -0.629211 -0.554766
  C 4.687261 -0.322816 -1.908013
  H 3.856299 -0.066623 -2.561924
  O 5.819809 -0.334011 -2.498524
  H 4.552035 1.292070 1.577708
  H 4.131917 -0.319725 2.193332
  H 1.766012 0.440664 2.477503
  H 2.222370 2.050716 1.920337
  H 3.358068 0.644356 4.388494
  H 2.185455 1.959959 4.389450
  H 3.823912 2.251837 3.824668
  H 2.386615 -1.691738 -0.774621
  H 5.293928 -0.873950 0.077016
  H 6.603679 -0.557709 -1.950178
 20
 37.306249
  H 2.788639 0.995015 -0.252608
  C 3.368243 0.219435 0.248326
  C 3.794325 0.654368 1.635645
  C 2.573387 1.114002 2.436479
  C 2.972698 1.477146 3.862199
  C 3.160517 -1.127503 -0.134013
  C 4.487655 -0.576422 -0.541832
  C 4.676493 -0.350998 -1.922221
  H 3.828691 -0.071140 -2.540851
  O 5.765389 -0.482681 -2.573241
  H 4.503640 1.478661 1.561132
  H 4.271342 -0.172963 2.158906
  H 1.830528 0.315592 2.461514
  H 2.118419 1.983389 1.957884
  H 3.389080 0.616419 4.379137
  H 2.106017 1.819717 4.420676
  H 3.714900 2.272669 3.865861
  H 2.432974 -1.711123 -0.649761
  H 5.352783 -0.830842 0.060102
  H 6.564654 -0.731915 -2.059337
 20
 37.223011
  H 2.789881 0.995581 -0.254944
  C 3.366990 0.219165 0.247809
  C 3.794519 0.654850 1.634247
  C 2.573222 1.112227 2.437287
  C 2.974065 1.478135 3.862062
  C 3.156637 -1.126921 -0.134746
  C 4.485676 -0.579901 -0.542699
  C 4.677593 -0.352250 -1.921667
  H 3.830706 -0.071302 -2.542344
  O 5.768619 -0.480016 -2.569595
  H 4.502508 1.481376 1.558551
  H 4.274360 -0.171987 2.157194
  H 1.832028 0.311495 2.464532
  H 2.115718 1.978804 1.959195
  H 3.394541 0.618888 4.379270
  H 2.107058 1.818402 4.421966
  H 3.713354 2.275983 3.863569
  H 2.426533 -1.706119 -0.652478
  H 5.349651 -0.836147 0.060677
  H 6.566717 -0.729435 -2.053887
