17

C 0.97579 0.137332 0.393142
C 2.453972 0.138831 0.396445
C 3.235887 0.609601 1.567949
H 2.6883388202276386 0.9522710266730456 2.420983725933164
C 3.07476 -0.323868 -0.755623
C 4.452396 -0.411652 -0.974602
C 5.123831 -0.863395 -2.100714
H 4.763810147796258 -1.2385437130654826 -3.0358869407247644
O 6.448567 -0.86179 -2.097024
H 0.53639 0.506813 1.31287
H 0.606624 -0.875729 0.225913
H 0.606339 0.752985 -0.428456
H 3.892013 1.422462 1.236076
H 3.892206 -0.206765 1.89066
H 2.419633 -0.642347 -1.548686
H 5.073532 -0.080521 -0.149771
H 6.820588 -0.526463 -1.260938
