 12
 0.000000
  C 0.909242 0.052494 0.215586
  C 2.398416 0.062895 0.044971
  H 2.981644 0.009995 0.952476
  C 3.022607 0.127846 -1.120800
  C 2.373532 0.203946 -2.463831
  H 1.290476 0.201074 -2.399248
  H 4.105631 0.128854 -1.148996
  H 0.642457 0.000138 1.267650
  H 0.467058 -0.808636 -0.286495
  H 0.463423 0.956159 -0.197557
  H 2.693297 -0.640808 -3.077432
  H 2.694670 1.111671 -2.979037
 12
 5.941264
  C 0.902333 0.096977 0.236397
  C 2.359655 0.060621 0.042687
  H 2.990288 -0.001099 0.974497
  C 2.997720 0.112226 -1.116683
  C 2.358396 0.206881 -2.467019
  H 1.274940 0.236085 -2.402238
  H 4.079655 0.076916 -1.129262
  H 0.595028 0.004461 1.274351
  H 0.717857 -0.807133 -0.328410
  H 0.408980 0.961295 -0.209884
  H 2.650894 -0.647330 -3.077419
  H 2.700517 1.105140 -2.980182
 12
 18.619732
  C 0.891890 0.118736 0.247900
  C 2.333697 0.065145 0.051149
  H 2.985958 0.009511 0.973586
  C 2.976301 0.098133 -1.108847
  C 2.344184 0.216161 -2.461942
  H 1.257774 0.290058 -2.403308
  H 4.050918 0.011400 -1.120285
  H 0.560376 -0.001477 1.264747
  H 0.941062 -0.788725 -0.318175
  H 0.373566 0.930800 -0.252303
  H 2.604673 -0.653990 -3.074965
  H 2.724175 1.103750 -2.974588
 12
 33.164084
  C 0.872361 0.141167 0.260077
  C 2.315393 0.046984 0.042448
  H 2.969303 -0.026211 0.965762
  C 2.969667 0.083303 -1.114953
  C 2.342256 0.223482 -2.466052
  H 1.262590 0.306873 -2.405363
  H 4.043029 -0.017826 -1.119950
  H 0.536229 0.039660 1.277044
  H 1.099000 -0.774178 -0.265123
  H 0.335099 0.896405 -0.288241
  H 2.592643 -0.643909 -3.090777
  H 2.728853 1.113989 -2.971355
 12
 45.711963
  C 0.858414 0.155491 0.272644
  C 2.299437 0.034395 0.031973
  H 2.929659 -0.052800 0.957177
  C 2.969833 0.068496 -1.122378
  C 2.346467 0.237539 -2.480036
  H 1.268428 0.338791 -2.414542
  H 4.049524 -0.058275 -1.115742
  H 0.536323 0.092655 1.301351
  H 1.230138 -0.776937 -0.183248
  H 0.286197 0.839356 -0.328905
  H 2.578145 -0.622857 -3.114862
  H 2.746236 1.124125 -2.978007
 12
 54.319663
  C 0.846076 0.175202 0.281471
  C 2.292068 0.014944 0.022572
  H 2.918935 -0.100734 0.955292
  C 2.970997 0.051014 -1.135733
  C 2.353954 0.252333 -2.484640
  H 1.272206 0.362012 -2.416730
  H 4.038239 -0.084683 -1.125696
  H 0.535133 0.187165 1.310841
  H 1.332573 -0.790453 -0.084498
  H 0.243956 0.752603 -0.389351
  H 2.575214 -0.595800 -3.137386
  H 2.759597 1.145703 -2.964540
 12
 61.143079
  C 0.841279 0.195593 0.291287
  C 2.284325 -0.008983 0.020049
  H 2.908863 -0.128884 0.955440
  C 2.970538 0.041093 -1.143083
  C 2.358999 0.267649 -2.490272
  H 1.279992 0.386943 -2.423475
  H 4.035265 -0.117609 -1.130964
  H 0.534435 0.269297 1.316416
  H 1.415640 -0.806513 -0.002684
  H 0.211038 0.665868 -0.436677
  H 2.571764 -0.570616 -3.157306
  H 2.772707 1.164532 -2.956108
 12
 66.949142
  C 0.842219 0.225704 0.298700
  C 2.277641 -0.030477 0.022414
  H 2.900672 -0.147280 0.953638
  C 2.971967 0.036664 -1.145022
  C 2.363179 0.272666 -2.491849
  H 1.284839 0.392368 -2.426335
  H 4.038060 -0.132363 -1.129965
  H 0.527257 0.304484 1.319501
  H 1.477998 -0.816894 0.026536
  H 0.199821 0.628990 -0.455510
  H 2.576385 -0.559507 -3.167120
  H 2.776785 1.171641 -2.948897
 12
 72.090494
  C 0.845279 0.260031 0.304314
  C 2.273913 -0.048783 0.029001
  H 2.891964 -0.177859 0.957995
  C 2.974917 0.036716 -1.144607
  C 2.366518 0.266414 -2.490021
  H 1.286299 0.367645 -2.427268
  H 4.042303 -0.118584 -1.123189
  H 0.519611 0.307757 1.321878
  H 1.525168 -0.827021 0.012027
  H 0.208233 0.651007 -0.454892
  H 2.595614 -0.561489 -3.168996
  H 2.764119 1.173863 -2.947203
 12
 75.262237
  C 0.853528 0.298569 0.303675
  C 2.273542 -0.065175 0.037824
  H 2.902023 -0.162844 0.969445
  C 2.979450 0.026642 -1.144274
  C 2.367949 0.269311 -2.486388
  H 1.288805 0.376310 -2.419978
  H 4.045170 -0.144433 -1.126775
  H 0.502332 0.315720 1.314157
  H 1.578416 -0.862203 0.015978
  H 0.204739 0.630291 -0.477072
  H 2.590142 -0.551417 -3.172573
  H 2.769465 1.177500 -2.935436
 12
 77.230108
  C 0.865909 0.346516 0.305781
  C 2.269536 -0.083252 0.047073
  H 2.900183 -0.156858 0.973696
  C 2.981953 0.016693 -1.144367
  C 2.370215 0.267194 -2.483579
  H 1.291052 0.368699 -2.417196
  H 4.047673 -0.158102 -1.126041
  H 0.492750 0.316602 1.307744
  H 1.626738 -0.903757 0.011399
  H 0.209417 0.628036 -0.487628
  H 2.597335 -0.544902 -3.178426
  H 2.767054 1.181307 -2.923847
 12
 77.934904
  C 0.881884 0.400373 0.311191
  C 2.263361 -0.102397 0.054926
  H 2.892294 -0.167353 0.977581
  C 2.985066 0.014178 -1.145258
  C 2.373274 0.260926 -2.481833
  H 1.292296 0.348165 -2.416982
  H 4.049926 -0.165023 -1.124929
  H 0.482358 0.312711 1.300638
  H 1.678166 -0.953607 -0.005716
  H 0.217465 0.647825 -0.487695
  H 2.613970 -0.542796 -3.180384
  H 2.757900 1.181975 -2.916582
 12
 77.502607
  C 0.898202 0.450585 0.315358
  C 2.253517 -0.119919 0.062681
  H 2.885573 -0.161888 0.981766
  C 2.986819 0.002664 -1.146499
  C 2.375261 0.255473 -2.480317
  H 1.294202 0.334145 -2.415086
  H 4.049505 -0.191905 -1.125303
  H 0.473070 0.305269 1.288586
  H 1.739344 -1.011190 -0.021186
  H 0.227238 0.659852 -0.491001
  H 2.624111 -0.538510 -3.186592
  H 2.753232 1.183479 -2.905338
 12
 76.924227
  C 0.913980 0.486426 0.317666
  C 2.242740 -0.139687 0.067369
  H 2.881322 -0.156814 0.985206
  C 2.988436 -0.012072 -1.148912
  C 2.377977 0.249198 -2.479258
  H 1.296497 0.321400 -2.413224
  H 4.045891 -0.232706 -1.128587
  H 0.464239 0.299176 1.274797
  H 1.805670 -1.067950 -0.033438
  H 0.241798 0.674647 -0.496268
  H 2.633818 -0.535105 -3.193956
  H 2.750663 1.184785 -2.893846
