 26
 0.000000
  C 0.951143 0.144898 0.411019
  C 2.426492 0.138999 0.396582
  C 3.223550 0.604769 1.556115
  C 2.459704 1.096963 2.781177
  H 3.150859 1.406608 3.552502
  C 3.036743 -0.327370 -0.764405
  C 4.413939 -0.408492 -0.967426
  C 5.105081 -0.857962 -2.088092
  C 4.616275 -1.381395 -3.392534
  C 3.129109 -1.502314 -3.693806
  H 2.994717 -1.901809 -4.689380
  O 6.424044 -0.848209 -2.064485
  H 0.532860 0.517428 1.337901
  H 0.575256 -0.864395 0.236595
  H 0.575256 0.752843 -0.413314
  H 3.881969 1.412645 1.217731
  H 3.881795 -0.212795 1.870706
  H 1.826368 0.306532 3.180391
  H 1.826724 1.944171 2.522674
  H 2.375313 -0.643742 -1.551681
  H 5.037785 -0.078248 -0.145547
  H 5.082612 -2.366160 -3.514607
  H 5.082749 -0.754284 -4.161489
  H 2.648265 -0.527639 -3.650123
  H 2.648370 -2.176541 -2.988545
  H 6.803173 -0.513873 -1.230021
 26
 17.983077
  C 0.900290 0.158916 0.445656
  C 2.447844 0.140953 0.401604
  C 3.259325 0.602802 1.551253
  C 2.508256 1.096946 2.781052
  H 3.223780 1.402691 3.542813
  C 3.022064 -0.328284 -0.766387
  C 4.443272 -0.426793 -1.012958
  C 5.026807 -0.872344 -2.124334
  C 4.637844 -1.401114 -3.442374
  C 3.167226 -1.531264 -3.765476
  H 3.067961 -1.934233 -4.770094
  O 6.277200 -0.773305 -1.878244
  H 0.515761 0.534890 1.380757
  H 0.530210 -0.847577 0.278502
  H 0.530465 0.769841 -0.371595
  H 3.918532 1.405679 1.202459
  H 3.918406 -0.218276 1.854965
  H 1.883239 0.315570 3.204452
  H 1.883739 1.954363 2.546273
  H 2.349768 -0.645913 -1.557047
  H 5.045940 -0.095415 -0.186994
  H 5.125591 -2.370812 -3.539797
  H 5.125174 -0.767469 -4.183020
  H 2.670872 -0.565404 -3.743861
  H 2.671587 -2.214951 -3.082251
  H 6.559505 -0.428863 -1.017370
 26
 65.875747
  C 0.857530 0.166997 0.474766
  C 2.478139 0.145395 0.415385
  C 3.275577 0.610120 1.563980
  C 2.517196 1.101275 2.784442
  H 3.225132 1.410121 3.547641
  C 3.010523 -0.326522 -0.757242
  C 4.522665 -0.443847 -1.048745
  C 5.002623 -0.892255 -2.169552
  C 4.663429 -1.422338 -3.497433
  C 3.185247 -1.548423 -3.817177
  H 3.074898 -1.948960 -4.820479
  O 6.184286 -0.745128 -1.799265
  H 0.506598 0.548930 1.422376
  H 0.511317 -0.850853 0.316857
  H 0.508847 0.789152 -0.345089
  H 3.931087 1.415194 1.217974
  H 3.933917 -0.207648 1.872772
  H 1.894764 0.317224 3.205825
  H 1.892335 1.956744 2.544633
  H 2.343799 -0.640051 -1.536494
  H 5.053454 -0.096986 -0.181631
  H 5.155978 -2.393140 -3.582832
  H 5.157880 -0.778760 -4.227997
  H 2.693215 -0.580974 -3.788589
  H 2.691575 -2.229278 -3.130474
  H 6.460884 -0.400274 -0.927742
 26
 128.313026
  C 0.766575 0.161297 0.517410
  C 2.467270 0.160574 0.414518
  C 3.275826 0.637755 1.567127
  C 2.533651 1.111711 2.804114
  H 3.250132 1.426395 3.555116
  C 2.937864 -0.298255 -0.744012
  C 4.646987 -0.460433 -1.079689
  C 4.997292 -0.923554 -2.216998
  C 4.696526 -1.445477 -3.539072
  C 3.208036 -1.556311 -3.870377
  H 3.097725 -1.956716 -4.873762
  O 6.187910 -0.748579 -1.758076
  H 0.461393 0.542886 1.484342
  H 0.449330 -0.862610 0.371299
  H 0.421513 0.789398 -0.291973
  H 3.911126 1.453654 1.216261
  H 3.941236 -0.177228 1.860874
  H 1.927720 0.319266 3.231125
  H 1.898510 1.962445 2.579297
  H 2.290328 -0.603930 -1.542342
  H 5.059487 -0.109517 -0.150017
  H 5.185651 -2.434788 -3.614790
  H 5.211083 -0.794757 -4.271519
  H 2.727346 -0.586618 -3.840613
  H 2.704345 -2.226875 -3.185395
  H 6.505837 -0.427509 -0.897883
 26
 154.298918
  C 0.690202 0.209110 0.632136
  C 2.290354 0.161750 0.424413
  C 3.194009 0.627861 1.535408
  C 2.549424 1.117590 2.818898
  H 3.318674 1.416816 3.526928
  C 2.656141 -0.290865 -0.727870
  C 4.864644 -0.484190 -1.132594
  C 5.059514 -0.952251 -2.291478
  C 4.769914 -1.468100 -3.602411
  C 3.276603 -1.571334 -3.905658
  H 3.152055 -1.965717 -4.903743
  O 6.352118 -0.739926 -1.747777
  H 0.476493 0.599126 1.618901
  H 0.305110 -0.799261 0.526526
  H 0.266812 0.849492 -0.135941
  H 3.826552 1.421291 1.145538
  H 3.858149 -0.196001 1.788799
  H 1.942070 0.337343 3.276324
  H 1.901159 1.979416 2.630610
  H 2.108014 -0.616889 -1.583595
  H 5.088663 -0.112484 -0.161918
  H 5.247307 -2.447754 -3.700232
  H 5.271752 -0.838471 -4.344468
  H 2.802402 -0.591175 -3.869236
  H 2.778259 -2.243080 -3.206071
  H 6.740253 -0.452479 -0.891533
 26
 161.740403
  C 0.550212 0.233369 0.779648
  C 2.074968 0.191850 0.459682
  C 3.053624 0.660795 1.506072
  C 2.501110 1.149482 2.840820
  H 3.327911 1.438510 3.486742
  C 2.432567 -0.264600 -0.703327
  C 5.160172 -0.554314 -1.223740
  C 5.215007 -1.014808 -2.400530
  C 4.877081 -1.510027 -3.697439
  C 3.359934 -1.534013 -3.902654
  H 3.152798 -1.922101 -4.895128
  O 6.595878 -0.838601 -1.841688
  H 0.385498 0.622047 1.768883
  H 0.145532 -0.770757 0.711385
  H 0.049362 0.860980 0.052666
  H 3.680724 1.452596 1.071086
  H 3.757355 -0.159088 1.708812
  H 1.949412 0.362314 3.353236
  H 1.854314 2.015511 2.716987
  H 1.880181 -0.591715 -1.559513
  H 5.279616 -0.171195 -0.233584
  H 5.293842 -2.514446 -3.805925
  H 5.341616 -0.861836 -4.433574
  H 2.933675 -0.539117 -3.821917
  H 2.883681 -2.197756 -3.185768
  H 7.070177 -0.591036 -1.020309
 26
 161.627045
  C 0.408464 0.260392 0.920207
  C 1.903303 0.233309 0.524540
  C 2.931869 0.717823 1.522618
  C 2.447333 1.187323 2.887405
  H 3.312301 1.481605 3.485226
  C 2.235977 -0.231539 -0.642850
  C 5.380432 -0.634728 -1.312643
  C 5.364185 -1.086232 -2.496156
  C 4.976876 -1.563718 -3.784398
  C 3.450593 -1.518612 -3.928073
  H 3.190786 -1.864545 -4.924330
  O 6.770818 -0.955094 -1.956604
  H 0.281023 0.659120 1.916829
  H 0.007048 -0.750029 0.881935
  H -0.141936 0.873879 0.209774
  H 3.531822 1.509157 1.059703
  H 3.647948 -0.097707 1.685975
  H 1.943364 0.389844 3.428587
  H 1.800525 2.060903 2.811557
  H 1.674429 -0.568878 -1.486998
  H 5.511872 -0.213533 -0.337559
  H 5.354162 -2.578208 -3.932591
  H 5.432856 -0.911937 -4.536339
  H 3.081963 -0.501088 -3.829911
  H 2.965439 -2.166449 -3.204429
  H 7.321966 -0.750839 -1.173753
 26
 151.374103
  C 0.327294 0.316914 0.953368
  C 1.772451 0.213644 0.517944
  C 2.883656 0.650124 1.465068
  C 2.461694 1.172495 2.831837
  H 3.349007 1.446593 3.398631
  C 2.073130 -0.241894 -0.659149
  C 5.693276 -0.675182 -1.382986
  C 5.381301 -1.106774 -2.545511
  C 4.999347 -1.473783 -3.838873
  C 3.454448 -1.510551 -3.743752
  H 3.092521 -1.793610 -4.726214
  O 7.054823 -0.952466 -1.933604
  H 0.237587 0.716884 1.955822
  H -0.142162 -0.665258 0.930240
  H -0.223133 0.964566 0.273076
  H 3.457004 1.432786 0.962279
  H 3.543093 -0.207611 1.617594
  H 1.927124 0.415627 3.401427
  H 1.838938 2.060099 2.745883
  H 1.547952 -0.587939 -1.518262
  H 5.422095 -0.279653 -0.435246
  H 5.377241 -2.459859 -4.120574
  H 5.330922 -0.735278 -4.574212
  H 3.059242 -0.536279 -3.476824
  H 3.118684 -2.243395 -3.018282
  H 7.699617 -0.874704 -1.201814
 26
 129.503695
  C 0.413043 0.306350 0.852506
  C 1.873822 0.174080 0.450063
  C 2.967564 0.566655 1.428124
  C 2.521441 1.100983 2.781716
  H 3.402367 1.339531 3.374599
  C 2.143884 -0.281759 -0.718533
  C 5.737671 -0.615420 -1.344081
  C 5.180924 -1.027328 -2.434669
  C 4.856658 -1.475904 -3.730013
  C 3.299242 -1.476331 -3.795185
  H 3.007512 -1.823109 -4.784029
  O 7.097706 -0.735509 -1.648001
  H 0.332562 0.701562 1.856826
  H -0.069981 -0.665648 0.810796
  H -0.099494 0.972404 0.163628
  H 3.584792 1.325589 0.943095
  H 3.588139 -0.315959 1.595781
  H 1.942014 0.363578 3.333106
  H 1.936766 2.012700 2.679981
  H 1.672997 -0.635973 -1.599913
  H 5.432509 -0.241535 -0.390442
  H 5.211703 -2.497181 -3.900477
  H 5.249882 -0.795712 -4.492751
  H 2.909319 -0.473011 -3.642647
  H 2.885369 -2.149133 -3.047931
  H 7.658739 -0.608425 -0.863686
 26
 118.558884
  C 0.570280 0.246125 0.755435
  C 2.029047 0.097626 0.320155
  C 3.136837 0.500789 1.272952
  C 2.707819 1.063167 2.619825
  H 3.600520 1.307801 3.192128
  C 2.192152 -0.380703 -0.857385
  C 5.670506 -0.548841 -1.171353
  C 4.962408 -0.934706 -2.192406
  C 4.603094 -1.370931 -3.501026
  C 3.109297 -1.474065 -3.873901
  H 3.030330 -1.830847 -4.896777
  O 7.029871 -0.556550 -1.108275
  H 0.534939 0.658146 1.755824
  H 0.080620 -0.722606 0.746504
  H 0.044953 0.908735 0.073638
  H 3.743582 1.251508 0.762290
  H 3.747572 -0.387106 1.449643
  H 2.138805 0.338950 3.198065
  H 2.130471 1.978134 2.509912
  H 1.905689 -0.769309 -1.794100
  H 5.113510 -0.202078 -0.308981
  H 5.022485 -2.380884 -3.621203
  H 5.058804 -0.668724 -4.215084
  H 2.640161 -0.495844 -3.816875
  H 2.605964 -2.186937 -3.223818
  H 7.327434 -0.395353 -0.197324
