 16
 0.000000
  C 0.983100 0.143921 0.399938
  C 2.433709 0.089884 0.269594
  H 3.044064 0.422582 1.100719
  C 3.063622 -0.367982 -0.866988
  C 4.460458 -0.412786 -0.977829
  C 5.161374 -0.855803 -2.080452
  C 4.613423 -1.356339 -3.329514
  H 3.530751 -1.372592 -3.374058
  H 6.242190 -0.831861 -2.018164
  H 0.661676 0.535387 1.359236
  H 0.555128 -0.849502 0.244286
  H 0.552157 0.742111 -0.408365
  H 2.453091 -0.700749 -1.694967
  H 5.030862 -0.069965 -0.124554
  H 5.010154 -2.356544 -3.518232
  H 5.012354 -0.765045 -4.156901
 16
 2.991142
  C 0.979473 0.187493 0.401587
  C 2.410335 0.095551 0.274806
  H 3.030254 0.414538 1.104697
  C 3.042442 -0.368434 -0.861389
  C 4.448501 -0.421095 -0.968248
  C 5.154930 -0.864471 -2.075144
  C 4.610347 -1.354110 -3.332516
  H 3.528535 -1.360847 -3.383396
  H 6.235505 -0.850014 -2.007200
  H 0.626155 0.546820 1.359128
  H 0.765931 -0.856453 0.229897
  H 0.499329 0.732164 -0.415437
  H 2.433593 -0.697325 -1.692587
  H 5.018255 -0.084495 -0.110657
  H 4.999970 -2.357595 -3.524543
  H 5.017737 -0.758958 -4.154371
 16
 7.788919
  C 0.977582 0.224391 0.381278
  C 2.409301 0.105600 0.276517
  H 3.040257 0.409675 1.106688
  C 3.042264 -0.370583 -0.858309
  C 4.434317 -0.443798 -0.954976
  C 5.137049 -0.877954 -2.056957
  C 4.593830 -1.328776 -3.332823
  H 3.513909 -1.305657 -3.393871
  H 6.216061 -0.893109 -1.978226
  H 0.599755 0.634357 1.302185
  H 0.972844 -0.869963 0.329855
  H 0.448211 0.598488 -0.495896
  H 2.437994 -0.684405 -1.696362
  H 5.002614 -0.130258 -0.089937
  H 4.957789 -2.339225 -3.540326
  H 5.021452 -0.723284 -4.137356
 16
 13.837963
  C 0.970037 0.252405 0.378328
  C 2.397328 0.097123 0.275600
  H 3.026959 0.391824 1.109301
  C 3.035464 -0.377518 -0.862488
  C 4.423471 -0.455041 -0.951839
  C 5.130559 -0.883604 -2.050273
  C 4.593931 -1.322974 -3.334975
  H 3.514011 -1.293745 -3.402106
  H 6.209319 -0.904460 -1.965694
  H 0.578682 0.669824 1.290479
  H 1.116766 -0.851736 0.361907
  H 0.418630 0.560081 -0.505760
  H 2.435306 -0.684077 -1.706317
  H 4.987651 -0.149788 -0.081977
  H 4.952438 -2.333863 -3.546336
  H 5.027379 -0.711656 -4.131045
 16
 18.951956
  C 0.963084 0.281240 0.374976
  C 2.386402 0.086122 0.270625
  H 3.014387 0.371845 1.103406
  C 3.025861 -0.384925 -0.866152
  C 4.418862 -0.466906 -0.950519
  C 5.129444 -0.889293 -2.046649
  C 4.598336 -1.316500 -3.335786
  H 3.517484 -1.281844 -3.406073
  H 6.207619 -0.915114 -1.958095
  H 0.560817 0.710463 1.280497
  H 1.233215 -0.835238 0.399596
  H 0.391220 0.519142 -0.507480
  H 2.426316 -0.683806 -1.714967
  H 4.981021 -0.169308 -0.075659
  H 4.950611 -2.326108 -3.551527
  H 5.034583 -0.700124 -4.122973
 16
 20.659007
  C 0.955917 0.308660 0.367017
  C 2.371223 0.076324 0.267507
  H 2.999863 0.354929 1.107574
  C 3.020143 -0.389242 -0.877690
  C 4.411672 -0.488524 -0.947911
  C 5.130730 -0.900945 -2.040836
  C 4.607971 -1.301976 -3.349480
  H 3.524936 -1.251934 -3.428498
  H 6.208665 -0.941310 -1.941338
  H 0.562522 0.793506 1.239691
  H 1.324611 -0.783058 0.544568
  H 0.352084 0.387234 -0.527525
  H 2.423967 -0.665787 -1.736383
  H 4.968705 -0.211830 -0.062833
  H 4.946944 -2.317786 -3.577405
  H 5.057811 -0.671866 -4.124091
 16
 23.113191
  C 0.954394 0.325669 0.362549
  C 2.358216 0.066853 0.269934
  H 2.986019 0.343702 1.117479
  C 3.015462 -0.396152 -0.881663
  C 4.405216 -0.498457 -0.945480
  C 5.128316 -0.902827 -2.032126
  C 4.611485 -1.299445 -3.361090
  H 3.549995 -1.250099 -3.447340
  H 6.198949 -0.943406 -1.924609
  H 0.563264 0.824376 1.225006
  H 1.395584 -0.756564 0.594306
  H 0.340429 0.346893 -0.529287
  H 2.426104 -0.661304 -1.734833
  H 4.959167 -0.228166 -0.055227
  H 4.948144 -2.308840 -3.593035
  H 5.063026 -0.668189 -4.125558
 16
 24.788076
  C 0.951209 0.342336 0.354446
  C 2.353218 0.056556 0.269328
  H 2.980218 0.333357 1.110396
  C 3.013146 -0.400977 -0.885148
  C 4.401043 -0.506670 -0.944801
  C 5.131152 -0.908803 -2.037553
  C 4.620723 -1.292098 -3.350174
  H 3.541968 -1.238378 -3.433467
  H 6.210561 -0.952011 -1.929554
  H 0.554795 0.850487 1.218954
  H 1.452986 -0.741403 0.628722
  H 0.333437 0.316791 -0.522707
  H 2.417519 -0.661528 -1.748727
  H 4.952717 -0.242590 -0.052332
  H 4.957157 -2.313098 -3.588316
  H 5.076992 -0.648419 -4.119457
 16
 26.423874
  C 0.954073 0.355223 0.345550
  C 2.352446 0.049474 0.280469
  H 2.986048 0.339180 1.126401
  C 3.016433 -0.406618 -0.879729
  C 4.405422 -0.514240 -0.936355
  C 5.136079 -0.909761 -2.026211
  C 4.623471 -1.289838 -3.358222
  H 3.535085 -1.235615 -3.447025
  H 6.205704 -0.952277 -1.916088
  H 0.548103 0.865814 1.200245
  H 1.505146 -0.732266 0.653969
  H 0.332090 0.290036 -0.538303
  H 2.416203 -0.665628 -1.753021
  H 4.955187 -0.254929 -0.042348
  H 4.954255 -2.289086 -3.597124
  H 5.073391 -0.655043 -4.107324
 16
 27.928475
  C 0.952752 0.370766 0.339822
  C 2.351010 0.043443 0.290053
  H 2.981325 0.341728 1.120362
  C 3.016398 -0.411969 -0.874876
  C 4.401931 -0.521743 -0.932331
  C 5.133118 -0.913611 -2.027126
  C 4.623815 -1.284855 -3.352654
  H 3.556736 -1.231341 -3.437083
  H 6.200517 -0.955143 -1.920107
  H 0.538218 0.881003 1.193219
  H 1.546918 -0.729131 0.671114
  H 0.335624 0.274374 -0.534422
  H 2.416061 -0.667740 -1.747217
  H 4.953775 -0.264419 -0.036691
  H 4.960288 -2.302289 -3.600352
  H 5.081382 -0.631805 -4.113446
 16
 29.346154
  C 0.956543 0.384046 0.327427
  C 2.349053 0.036078 0.298539
  H 2.987722 0.350310 1.136281
  C 3.018447 -0.417470 -0.870491
  C 4.404690 -0.528049 -0.927448
  C 5.135001 -0.914144 -2.021023
  C 4.624184 -1.282462 -3.353561
  H 3.551219 -1.231050 -3.438599
  H 6.208203 -0.952410 -1.913921
  H 0.532928 0.889897 1.180043
  H 1.586432 -0.734927 0.678390
  H 0.343195 0.263025 -0.547816
  H 2.421936 -0.669147 -1.738062
  H 4.956634 -0.271233 -0.032498
  H 4.959471 -2.289243 -3.603345
  H 5.074918 -0.631941 -4.104009
 16
 30.529387
  C 0.958150 0.401892 0.322972
  C 2.351617 0.028354 0.310810
  H 2.979238 0.348538 1.131055
  C 3.023643 -0.420346 -0.864046
  C 4.408616 -0.531771 -0.922331
  C 5.139455 -0.914797 -2.020030
  C 4.628251 -1.280892 -3.349276
  H 3.551863 -1.232959 -3.431950
  H 6.210618 -0.948863 -1.916005
  H 0.530084 0.897700 1.174255
  H 1.623710 -0.746850 0.689022
  H 0.344264 0.265161 -0.553305
  H 2.422839 -0.669592 -1.735839
  H 4.960942 -0.274510 -0.029900
  H 4.967244 -2.288254 -3.601853
  H 5.076694 -0.625147 -4.101467
 16
 31.427861
  C 0.958624 0.415674 0.311703
  C 2.351562 0.018273 0.317384
  H 2.980864 0.350432 1.141776
  C 3.028774 -0.418511 -0.865089
  C 4.411910 -0.527574 -0.922895
  C 5.141049 -0.910334 -2.020710
  C 4.628290 -1.279069 -3.347424
  H 3.545939 -1.231149 -3.429360
  H 6.216062 -0.946542 -1.916584
  H 0.522411 0.899819 1.167591
  H 1.661845 -0.769848 0.689282
  H 0.349023 0.270990 -0.562770
  H 2.434382 -0.661727 -1.728480
  H 4.973719 -0.274203 -0.012566
  H 4.969681 -2.292639 -3.600482
  H 5.071446 -0.630640 -4.093801
 16
 32.438976
  C 0.966252 0.434255 0.305971
  C 2.352129 0.008859 0.332170
  H 2.976229 0.349895 1.148791
  C 3.032613 -0.425186 -0.854773
  C 4.416710 -0.534952 -0.913389
  C 5.146670 -0.912583 -2.015048
  C 4.632737 -1.280301 -3.344146
  H 3.549810 -1.239654 -3.424600
  H 6.222147 -0.939882 -1.913820
  H 0.525677 0.910648 1.159882
  H 1.702464 -0.790983 0.700971
  H 0.356517 0.280777 -0.572419
  H 2.426486 -0.669982 -1.732572
  H 4.969206 -0.277828 -0.023506
  H 4.977475 -2.279464 -3.597333
  H 5.071641 -0.625407 -4.092655
