 28
 0.000000
  H 1.417815 0.162855 0.458806
  C 2.497055 0.146590 0.417345
  C 3.276154 0.609275 1.567201
  C 2.465246 1.090545 2.764777
  C 3.381335 1.546048 3.896916
  C 3.063348 -0.323341 -0.752005
  C 4.445787 -0.418034 -0.989175
  C 5.094204 -0.869156 -2.114145
  C 4.603259 -1.383525 -3.397250
  C 3.118335 -1.505464 -3.703035
  C 2.911998 -2.068631 -5.107982
  H 6.176975 -0.859435 -2.089905
  H 3.939630 1.420610 1.242374
  H 3.940263 -0.200610 1.894302
  H 1.824213 0.286422 3.130554
  H 1.823690 1.923716 2.472249
  H 4.017119 0.731488 4.235957
  H 2.793619 1.886978 4.745385
  H 4.016595 2.368929 3.577518
  H 2.378786 -0.633150 -1.521892
  H 5.094377 -0.094858 -0.184865
  H 5.073140 -2.368865 -3.527349
  H 5.074028 -0.761588 -4.171984
  H 2.640252 -0.525971 -3.652236
  H 2.639514 -2.178264 -2.989852
  H 3.357377 -1.419788 -5.858507
  H 1.851100 -2.156302 -5.327826
  H 3.356774 -3.056527 -5.202337
 28
 -0.307431
  H 1.503963 -0.072124 0.611734
  C 2.577975 -0.018483 0.492741
  C 3.325260 0.610135 1.583658
  C 2.464250 1.073954 2.753691
  C 3.309958 1.708709 3.852272
  C 3.105945 -0.506846 -0.681252
  C 4.485898 -0.605650 -0.941471
  C 5.107029 -0.990638 -2.107273
  C 4.598797 -1.402314 -3.412293
  C 3.111976 -1.472628 -3.712589
  C 2.875479 -1.918157 -5.152592
  H 6.191019 -0.984888 -2.071696
  H 3.901360 1.459544 1.194550
  H 4.092124 -0.087133 1.948767
  H 1.916264 0.224726 3.167894
  H 1.727989 1.801394 2.404349
  H 4.037450 1.000170 4.242934
  H 2.679738 2.030456 4.677521
  H 3.843854 2.580143 3.479090
  H 2.406137 -0.817345 -1.439852
  H 5.144197 -0.359205 -0.120617
  H 5.056691 -2.379396 -3.629115
  H 5.084725 -0.749851 -4.152734
  H 2.654631 -0.492450 -3.572863
  H 2.627436 -2.188826 -3.047542
  H 3.320109 -1.218500 -5.857024
  H 1.810308 -1.971208 -5.361563
  H 3.301311 -2.902586 -5.333179
 28
 0.187083
  H 1.533391 -0.277124 0.703994
  C 2.596234 -0.145314 0.545980
  C 3.321488 0.596267 1.580311
  C 2.462522 1.050776 2.754151
  C 3.290432 1.805901 3.791303
  C 3.120443 -0.615368 -0.635636
  C 4.497621 -0.713379 -0.904453
  C 5.113100 -1.051599 -2.086354
  C 4.598067 -1.399033 -3.409150
  C 3.109488 -1.438097 -3.707137
  C 2.863908 -1.824986 -5.161868
  H 6.196648 -1.055399 -2.053068
  H 3.821036 1.464419 1.130396
  H 4.151783 -0.020158 1.951874
  H 1.995172 0.183982 3.227302
  H 1.662630 1.700544 2.394869
  H 4.080773 1.176207 4.192905
  H 2.662806 2.123271 4.618978
  H 3.744536 2.692940 3.356172
  H 2.414275 -0.883117 -1.405829
  H 5.159213 -0.525403 -0.066791
  H 5.043901 -2.369464 -3.672645
  H 5.089085 -0.716269 -4.120300
  H 2.665835 -0.458118 -3.528468
  H 2.617879 -2.173765 -3.069733
  H 3.317818 -1.106063 -5.839567
  H 1.797498 -1.854070 -5.370415
  H 3.274811 -2.808143 -5.380584
 28
 1.342869
  H 1.590608 -0.509796 0.814300
  C 2.629535 -0.282608 0.604026
  C 3.310883 0.593337 1.558017
  C 2.466296 1.008512 2.755731
  C 3.249577 1.913408 3.698136
  C 3.151129 -0.766907 -0.572159
  C 4.524254 -0.855283 -0.859369
  C 5.129166 -1.134690 -2.060109
  C 4.599861 -1.397750 -3.398943
  C 3.107150 -1.396409 -3.681851
  C 2.841136 -1.690446 -5.154715
  H 6.214716 -1.147618 -2.035582
  H 3.676030 1.487251 1.033447
  H 4.231320 0.102402 1.904513
  H 2.135889 0.121278 3.299438
  H 1.574636 1.537787 2.413139
  H 4.135184 1.409481 4.074839
  H 2.636434 2.194362 4.550026
  H 3.560510 2.825499 3.193313
  H 2.432962 -0.990908 -1.347538
  H 5.189309 -0.727808 -0.013859
  H 5.024703 -2.358327 -3.718439
  H 5.093637 -0.682454 -4.072267
  H 2.681384 -0.420903 -3.439543
  H 2.610726 -2.163612 -3.085885
  H 3.299748 -0.937510 -5.792019
  H 1.772475 -1.691462 -5.353433
  H 3.235335 -2.663616 -5.437038
 28
 3.522434
  H 1.687052 -0.756148 0.949945
  C 2.674469 -0.420496 0.665732
  C 3.289755 0.590911 1.522855
  C 2.477898 0.960397 2.756497
  C 3.192162 2.017275 3.587805
  C 3.197059 -0.936062 -0.495137
  C 4.565335 -1.008396 -0.811413
  C 5.146381 -1.215542 -2.030186
  C 4.597443 -1.384092 -3.384620
  C 3.100414 -1.354683 -3.649078
  C 2.815095 -1.539871 -5.135358
  H 6.227004 -1.238085 -2.022369
  H 3.484259 1.493831 0.925541
  H 4.293169 0.251595 1.813809
  H 2.311601 0.069182 3.369704
  H 1.500036 1.344685 2.454458
  H 4.160969 1.658999 3.922295
  H 2.606031 2.266317 4.466771
  H 3.341398 2.931586 3.012483
  H 2.457196 -1.126087 -1.264940
  H 5.246450 -0.943727 0.034618
  H 5.009008 -2.323814 -3.768079
  H 5.088192 -0.625673 -4.012746
  H 2.684830 -0.396616 -3.332639
  H 2.608866 -2.159412 -3.106083
  H 3.271601 -0.742758 -5.723221
  H 1.740579 -1.522173 -5.321265
  H 3.201920 -2.492585 -5.491444
 28
 6.330979
  H 1.772570 -0.875255 1.000439
  C 2.723264 -0.461336 0.680902
  C 3.266113 0.619974 1.499890
  C 2.486559 0.905593 2.779732
  C 3.119134 2.053108 3.562226
  C 3.251314 -0.966082 -0.487365
  C 4.609404 -1.060300 -0.818591
  C 5.180172 -1.259393 -2.049521
  C 4.608557 -1.409412 -3.391767
  C 3.105351 -1.324882 -3.620169
  C 2.781965 -1.474851 -5.104520
  H 6.263045 -1.308680 -2.053391
  H 3.303780 1.529237 0.886768
  H 4.321164 0.409429 1.729286
  H 2.466923 0.011979 3.406943
  H 1.455662 1.167626 2.535851
  H 4.148735 1.822998 3.825507
  H 2.569368 2.231940 4.482492
  H 3.108238 2.973085 2.981378
  H 2.495489 -1.072786 -1.258412
  H 5.291661 -1.020428 0.023831
  H 4.973731 -2.371637 -3.776639
  H 5.110667 -0.673108 -4.033165
  H 2.730583 -0.357948 -3.280716
  H 2.596479 -2.125177 -3.079127
  H 3.239056 -0.677378 -5.684678
  H 1.708942 -1.433577 -5.265224
  H 3.141748 -2.425590 -5.487411
 28
 9.820137
  H 1.884215 -1.012500 1.073020
  C 2.818199 -0.575283 0.728608
  C 3.287012 0.579513 1.492422
  C 2.467676 0.888069 2.742452
  C 3.019500 2.113540 3.465031
  C 3.354186 -1.100595 -0.428554
  C 4.696204 -1.145974 -0.815347
  C 5.224257 -1.331067 -2.066465
  C 4.605740 -1.394431 -3.395503
  C 3.097471 -1.282492 -3.557643
  C 2.710933 -1.363977 -5.032431
  H 6.306035 -1.396418 -2.107299
  H 3.280650 1.450448 0.827845
  H 4.348017 0.437957 1.751502
  H 2.495190 0.030098 3.421367
  H 1.423029 1.071560 2.470721
  H 4.044504 1.951393 3.777532
  H 2.428982 2.328026 4.349532
  H 2.991390 2.986546 2.825160
  H 2.561873 -1.131496 -1.173068
  H 5.405478 -1.110734 0.004586
  H 4.948012 -2.334970 -3.855689
  H 5.090012 -0.619013 -4.003168
  H 2.751270 -0.323494 -3.162312
  H 2.601284 -2.098201 -3.030617
  H 3.164674 -0.557549 -5.598129
  H 1.636760 -1.288919 -5.146962
  H 3.029690 -2.305881 -5.467023
 28
 13.680416
  H 1.987443 -1.118501 1.152606
  C 2.838918 -0.600604 0.729838
  C 3.262903 0.592581 1.464214
  C 2.434841 0.897735 2.706760
  C 2.984956 2.115989 3.437801
  C 3.395357 -1.154321 -0.403256
  C 4.730624 -1.193317 -0.808926
  C 5.246947 -1.326279 -2.070201
  C 4.607910 -1.345203 -3.395470
  C 3.091341 -1.268580 -3.522779
  C 2.672175 -1.339052 -4.987727
  H 6.326312 -1.407455 -2.129622
  H 3.235358 1.449577 0.782225
  H 4.326194 0.486986 1.731374
  H 2.453065 0.040269 3.379788
  H 1.399287 1.087398 2.427985
  H 4.002048 1.936650 3.782151
  H 2.375020 2.343183 4.304800
  H 2.990461 2.988754 2.790010
  H 2.591971 -1.200141 -1.134771
  H 5.445980 -1.218420 0.007866
  H 4.967067 -2.242191 -3.914515
  H 5.054683 -0.516548 -3.967681
  H 2.733977 -0.325145 -3.105172
  H 2.625075 -2.102955 -2.999384
  H 3.093044 -0.510581 -5.552897
  H 1.590203 -1.288881 -5.075829
  H 3.006655 -2.268333 -5.442987
 28
 19.967395
  H 2.044207 -1.189982 1.190977
  C 2.916710 -0.702044 0.769190
  C 3.295039 0.547723 1.431022
  C 2.412283 0.911127 2.623769
  C 2.894695 2.199364 3.280105
  C 3.502116 -1.331631 -0.315986
  C 4.808672 -1.447209 -0.779935
  C 5.277857 -1.455100 -2.066363
  C 4.593347 -1.332691 -3.363636
  C 3.075994 -1.246663 -3.427780
  C 2.605664 -1.141534 -4.878568
  H 6.354554 -1.480720 -2.160045
  H 3.250077 1.354429 0.694099
  H 4.350742 0.491971 1.731234
  H 2.430727 0.097434 3.359306
  H 1.381415 1.044276 2.296328
  H 3.914845 2.094008 3.643881
  H 2.258810 2.454595 4.126130
  H 2.865541 3.026157 2.577089
  H 2.654968 -1.229878 -1.005170
  H 5.554841 -1.571251 0.005782
  H 4.930157 -2.173845 -3.978620
  H 5.022796 -0.444730 -3.860703
  H 2.732714 -0.366095 -2.891662
  H 2.638064 -2.142111 -2.992378
  H 3.036390 -0.259914 -5.368132
  H 1.524577 -1.057349 -4.922472
  H 2.896156 -2.021242 -5.446108
 28
 29.593992
  H 2.236293 -1.334783 1.236788
  C 2.984242 -0.729998 0.728895
  C 3.205050 0.605601 1.314323
  C 2.419019 0.834936 2.605906
  C 2.693191 2.225711 3.159738
  C 3.696040 -1.335267 -0.280742
  C 4.953777 -1.527046 -0.807051
  C 5.361480 -1.635247 -2.114753
  C 4.618625 -1.441976 -3.369508
  C 3.138233 -1.070741 -3.310758
  C 2.562371 -0.916250 -4.716937
  H 6.400551 -1.902494 -2.266592
  H 2.913542 1.366649 0.584680
  H 4.278301 0.746751 1.483970
  H 2.706830 0.087792 3.353026
  H 1.352334 0.731610 2.416157
  H 3.752261 2.354365 3.380321
  H 2.136879 2.382507 4.079533
  H 2.394750 2.992039 2.451725
  H 2.748261 -1.212606 -0.858820
  H 5.700542 -1.739114 -0.051409
  H 4.730957 -2.366892 -3.953977
  H 5.157616 -0.685477 -3.950678
  H 3.017527 -0.121247 -2.780616
  H 2.583638 -1.856648 -2.802146
  H 3.080383 -0.129694 -5.266031
  H 1.508953 -0.657400 -4.671291
  H 2.657722 -1.842886 -5.279787
 28
 36.997199
  H 2.272951 -1.359191 1.170326
  C 3.059162 -0.766591 0.701948
  C 3.245209 0.595110 1.281299
  C 2.352303 0.839013 2.498388
  C 2.587099 2.235134 3.065380
  C 3.859745 -1.341394 -0.245414
  C 5.052897 -1.603947 -0.834119
  C 5.410054 -1.716541 -2.158844
  C 4.608705 -1.468252 -3.375236
  C 3.157205 -1.026351 -3.210617
  C 2.491604 -0.813181 -4.570957
  H 6.430944 -2.009151 -2.357578
  H 3.029753 1.352093 0.524694
  H 4.296723 0.720900 1.553053
  H 2.569390 0.099607 3.270284
  H 1.302638 0.741321 2.217832
  H 3.624592 2.359403 3.376698
  H 1.953387 2.403359 3.932194
  H 2.357416 2.998572 2.326640
  H 2.821592 -1.015521 -0.722048
  H 5.817510 -1.844888 -0.104067
  H 4.640117 -2.380274 -3.978662
  H 5.146239 -0.723906 -3.976691
  H 3.123722 -0.079894 -2.659430
  H 2.598886 -1.798968 -2.673821
  H 3.011044 -0.049386 -5.140778
  H 1.458863 -0.497228 -4.446772
  H 2.495106 -1.733298 -5.153972
 28
 38.292253
  H 2.341322 -1.401875 1.180152
  C 3.091132 -0.789401 0.679075
  C 3.234752 0.608421 1.223584
  C 2.334544 0.843731 2.435533
  C 2.514499 2.260165 2.973430
  C 3.948470 -1.353140 -0.216767
  C 5.089804 -1.676827 -0.844973
  C 5.418943 -1.793192 -2.179058
  C 4.598001 -1.486683 -3.368882
  C 3.179807 -0.972314 -3.144194
  C 2.481483 -0.693421 -4.472167
  H 6.419898 -2.129480 -2.401752
  H 2.991034 1.341095 0.453704
  H 4.279958 0.775182 1.495635
  H 2.580280 0.130059 3.223914
  H 1.289189 0.699274 2.158338
  H 3.544425 2.431425 3.278886
  H 1.876445 2.421405 3.837184
  H 2.253758 2.998821 2.219168
  H 2.810336 -0.925066 -0.587255
  H 5.856734 -1.961863 -0.127831
  H 4.559920 -2.391441 -3.986959
  H 5.153325 -0.761062 -3.978102
  H 3.216730 -0.041779 -2.574148
  H 2.600982 -1.724169 -2.604650
  H 3.019930 0.058935 -5.042883
  H 1.470219 -0.330136 -4.304550
  H 2.419411 -1.596818 -5.075186
 28
 36.605815
  H 2.323545 -1.361670 1.133302
  C 3.035393 -0.726745 0.604986
  C 3.193266 0.676416 1.183330
  C 2.338912 0.860930 2.436507
  C 2.516530 2.262417 3.010177
  C 3.962779 -1.283771 -0.228412
  C 5.065754 -1.660084 -0.862942
  C 5.414758 -1.824483 -2.188307
  C 4.606229 -1.517716 -3.384665
  C 3.207482 -0.956245 -3.156939
  C 2.505034 -0.678099 -4.482827
  H 6.405602 -2.201222 -2.390670
  H 2.906606 1.423783 0.445361
  H 4.243221 0.850935 1.425550
  H 2.627104 0.128585 3.192545
  H 1.285662 0.707063 2.196243
  H 3.554613 2.441911 3.280724
  H 1.909580 2.387165 3.902913
  H 2.215262 3.018487 2.288905
  H 2.639801 -0.714087 -0.510596
  H 5.811860 -1.955305 -0.121803
  H 4.537559 -2.432888 -3.986097
  H 5.180992 -0.820935 -4.008779
  H 3.279874 -0.018962 -2.601389
  H 2.613360 -1.680598 -2.596894
  H 3.061351 0.047633 -5.071924
  H 1.507496 -0.280377 -4.312215
  H 2.408899 -1.589240 -5.069714
 28
 33.577098
  H 2.529847 -1.426101 1.255197
  C 3.049111 -0.731157 0.586638
  C 3.183727 0.701298 1.136415
  C 2.308795 0.901950 2.371927
  C 2.448163 2.321432 2.910034
  C 4.019525 -1.312172 -0.224543
  C 5.067513 -1.731178 -0.896512
  C 5.406867 -1.905740 -2.223915
  C 4.596700 -1.534564 -3.397358
  C 3.240191 -0.893485 -3.112871
  C 2.513919 -0.537317 -4.410715
  H 6.371656 -2.342931 -2.442575
  H 2.897732 1.423872 0.374584
  H 4.224957 0.898907 1.394860
  H 2.600275 0.198490 3.151300
  H 1.264816 0.719590 2.123463
  H 3.479441 2.528657 3.193719
  H 1.822628 2.459072 3.788501
  H 2.145878 3.052212 2.162785
  H 2.433449 -0.659300 -0.326592
  H 5.804143 -2.071975 -0.158922
  H 4.456978 -2.434918 -4.014234
  H 5.200692 -0.862606 -4.023476
  H 3.387091 0.022434 -2.529922
  H 2.619046 -1.596923 -2.547168
  H 3.090495 0.173993 -4.994890
  H 1.545592 -0.092169 -4.198744
  H 2.351276 -1.424107 -5.020324
 28
 27.606273
  H 2.770113 -1.567552 1.404976
  C 2.903868 -0.924848 0.520340
  C 3.153593 0.538094 0.947862
  C 2.318907 0.899391 2.173543
  C 2.545738 2.352492 2.573659
  C 3.871936 -1.503343 -0.292866
  C 5.007494 -1.828637 -0.867768
  C 5.463034 -1.862325 -2.169679
  C 4.662249 -1.368416 -3.306385
  C 3.269207 -0.890458 -2.928191
  C 2.494123 -0.362710 -4.132640
  H 6.454374 -2.230016 -2.371891
  H 2.888489 1.203348 0.124894
  H 4.210611 0.688107 1.169734
  H 2.589117 0.255797 3.014379
  H 1.257999 0.751217 1.960197
  H 3.591949 2.529072 2.813926
  H 1.950894 2.603808 3.448106
  H 2.262387 3.025222 1.766991
  H 1.929621 -1.010813 0.017808
  H 5.683896 -2.223333 -0.099259
  H 4.594263 -2.166552 -4.054420
  H 5.217498 -0.559652 -3.799107
  H 3.358976 -0.089324 -2.189336
  H 2.716681 -1.722820 -2.489664
  H 3.011478 0.478439 -4.584928
  H 1.502878 -0.030272 -3.836892
  H 2.379128 -1.138654 -4.886728
