 28
 0.000000
  C 0.903381 0.048728 0.272136
  C 2.394967 0.059103 0.088223
  C 3.238523 -0.012294 1.353639
  C 2.524147 -0.088341 2.701253
  C 3.531341 -0.152830 3.844218
  C 2.991424 0.127295 -1.120263
  C 2.353476 0.204797 -2.493756
  C 0.843356 0.217185 -2.713214
  H 0.628692 0.277119 -3.775401
  C 4.453065 0.132171 -1.206605
  C 5.194100 0.194380 -2.309192
  H 6.271438 0.193617 -2.295628
  H 0.607412 -0.010061 1.313949
  H 0.459660 -0.815322 -0.215398
  H 0.459659 0.962140 -0.115101
  H 3.884733 0.870701 1.383642
  H 3.884737 -0.893060 1.284119
  H 1.891998 -0.978151 2.745712
  H 1.891991 0.790815 2.845530
  H 4.166256 -1.031738 3.752954
  H 3.012745 -0.206718 4.799136
  H 4.166253 0.730767 3.852402
  H 2.745567 -0.643530 -3.065480
  H 2.745568 1.112063 -2.966419
  H 0.383964 1.076276 -2.233041
  H 0.383963 -0.690473 -2.332734
  H 4.993572 0.079562 -0.274246
  H 4.813442 0.251191 -3.315954
 28
 12.937218
  C 0.755903 0.045661 0.326486
  C 2.408888 0.057099 0.123744
  C 3.250808 -0.013372 1.372734
  C 2.533797 -0.089350 2.719150
  C 3.542253 -0.153817 3.861715
  C 3.037108 0.130552 -1.177971
  C 2.381996 0.207352 -2.539031
  C 0.868788 0.217679 -2.721992
  H 0.635767 0.277533 -3.782759
  C 4.490843 0.134817 -1.253499
  C 5.240151 0.196791 -2.351907
  H 6.317505 0.194902 -2.318387
  H 0.480106 -0.013312 1.371572
  H 0.321966 -0.816408 -0.165261
  H 0.321966 0.957578 -0.065159
  H 3.898213 0.869813 1.401064
  H 3.898219 -0.894138 1.301530
  H 1.901868 -0.978909 2.761965
  H 1.901857 0.789745 2.861765
  H 4.177239 -1.032520 3.768558
  H 3.025691 -0.207765 4.817705
  H 4.177233 0.729785 3.867998
  H 2.766539 -0.640877 -3.116966
  H 2.766538 1.115212 -3.017872
  H 0.417897 1.075628 -2.233967
  H 0.417898 -0.689720 -2.333585
  H 5.023323 0.081905 -0.315772
  H 4.862695 0.253648 -3.359515
 28
 37.713679
  C 0.601716 0.044818 0.341398
  C 2.500589 0.057876 0.109920
  C 3.302259 -0.013751 1.379397
  C 2.535843 -0.088499 2.704000
  C 3.505473 -0.154806 3.879237
  C 3.085348 0.133246 -1.225780
  C 2.393637 0.208373 -2.557136
  C 0.876573 0.214107 -2.658690
  H 0.604425 0.273449 -3.710211
  C 4.538007 0.137422 -1.299753
  C 5.272219 0.199693 -2.403263
  H 6.347855 0.196467 -2.346008
  H 0.432787 -0.014693 1.396199
  H 0.247983 -0.826660 -0.181560
  H 0.247995 0.969598 -0.080201
  H 3.956538 0.866601 1.430579
  H 3.956544 -0.894270 1.331218
  H 1.904604 -0.977796 2.720265
  H 1.904595 0.793326 2.820200
  H 4.142172 -1.033494 3.802887
  H 2.961567 -0.207871 4.819580
  H 4.142175 0.726902 3.902216
  H 2.762473 -0.636321 -3.147812
  H 2.762475 1.114156 -3.049034
  H 0.446130 1.074207 -2.153658
  H 0.446118 -0.697357 -2.253627
  H 5.071931 0.084679 -0.364992
  H 4.863426 0.255713 -3.396059
 28
 65.331730
  C 0.396217 0.039822 0.429685
  C 2.590382 0.059560 0.080055
  C 3.364454 -0.012094 1.350019
  C 2.560309 -0.084544 2.633762
  C 3.480421 -0.152812 3.843754
  C 3.130607 0.133026 -1.221830
  C 2.439395 0.207618 -2.543652
  C 0.925921 0.212187 -2.624440
  H 0.629411 0.271754 -3.679295
  C 4.570675 0.137764 -1.305782
  C 5.289166 0.200944 -2.425465
  H 6.372830 0.198736 -2.386461
  H 0.310284 -0.020523 1.499257
  H 0.066688 -0.842603 -0.092795
  H 0.066692 0.975421 0.009794
  H 4.008756 0.861964 1.413931
  H 4.008764 -0.887777 1.315189
  H 1.924450 -0.971486 2.625545
  H 1.924459 0.797659 2.725373
  H 4.118023 -1.034092 3.793437
  H 2.898439 -0.204550 4.760807
  H 4.118068 0.728644 3.892905
  H 2.800091 -0.639616 -3.133172
  H 2.800073 1.115742 -3.034083
  H 0.509025 1.066032 -2.106199
  H 0.508969 -0.694547 -2.205512
  H 5.114536 0.084950 -0.369910
  H 4.858830 0.256651 -3.412767
 28
 86.884459
  C 0.213867 0.037634 0.468379
  C 2.706319 0.061914 0.038446
  C 3.423851 -0.011196 1.334295
  C 2.557616 -0.082306 2.594039
  C 3.421953 -0.153083 3.848781
  C 3.207482 0.133407 -1.228498
  C 2.479006 0.207206 -2.536348
  C 0.938891 0.206791 -2.528925
  H 0.579611 0.264766 -3.556196
  C 4.657976 0.140980 -1.362643
  C 5.344463 0.205288 -2.502442
  H 6.409059 0.204536 -2.489555
  H 0.191144 -0.022821 1.540152
  H -0.068767 -0.850850 -0.064941
  H -0.068757 0.980492 0.038394
  H 4.071804 0.873830 1.422787
  H 4.071846 -0.900546 1.322727
  H 1.919490 -0.969230 2.544685
  H 1.919408 0.804538 2.644786
  H 4.059511 -1.036251 3.827979
  H 2.798127 -0.203348 4.739081
  H 4.059462 0.726862 3.927460
  H 2.817501 -0.644998 -3.143230
  H 2.817446 1.122154 -3.043433
  H 0.547418 1.066117 -1.982174
  H 0.547483 -0.708457 -2.082391
  H 5.220812 0.088658 -0.435584
  H 4.887334 0.259818 -3.469243
 28
 100.955476
  C 0.008329 0.032812 0.553959
  C 2.763218 0.063298 0.013983
  C 3.455890 -0.010068 1.314290
  C 2.569196 -0.080248 2.557783
  C 3.402734 -0.151511 3.820938
  C 3.247068 0.134096 -1.240686
  C 2.490961 0.208121 -2.552419
  C 0.985131 0.204621 -2.490117
  H 0.588767 0.261363 -3.495756
  C 4.714252 0.142086 -1.382431
  C 5.398435 0.206149 -2.517970
  H 6.487625 0.205229 -2.502359
  H 0.045019 -0.027737 1.626125
  H -0.245786 -0.859006 0.017188
  H -0.245837 0.979301 0.120901
  H 4.102055 0.873428 1.410450
  H 4.102104 -0.898785 1.310492
  H 1.936909 -0.958617 2.489884
  H 1.936856 0.800174 2.589148
  H 4.037000 -1.032305 3.811534
  H 2.762716 -0.200950 4.696657
  H 4.037027 0.724849 3.910691
  H 2.807809 -0.635833 -3.162652
  H 2.807823 1.115374 -3.063835
  H 0.620922 1.056356 -1.930080
  H 0.620937 -0.704661 -2.029495
  H 5.263725 0.089976 -0.459278
  H 4.930635 0.261281 -3.495403
 28
 108.968487
  C -0.152709 0.027774 0.643682
  C 2.849539 0.065090 -0.017702
  C 3.494979 -0.008919 1.293990
  C 2.553471 -0.076547 2.492318
  C 3.329342 -0.150600 3.804867
  C 3.325073 0.135661 -1.268453
  C 2.535088 0.207705 -2.545150
  C 1.023561 0.198891 -2.388931
  H 0.551164 0.254230 -3.369474
  C 4.791618 0.145596 -1.444709
  C 5.442282 0.210720 -2.599080
  H 6.525456 0.211891 -2.620131
  H -0.075414 -0.032291 1.707656
  H -0.371662 -0.864694 0.097461
  H -0.371776 0.976009 0.201300
  H 4.135519 0.874554 1.420052
  H 4.135505 -0.900910 1.319868
  H 1.918761 -0.957023 2.392764
  H 1.918755 0.809502 2.492437
  H 3.962189 -1.034911 3.828541
  H 2.645975 -0.198188 4.648147
  H 3.962117 0.725377 3.927856
  H 2.833479 -0.642430 -3.170133
  H 2.833540 1.122913 -3.070620
  H 0.698110 1.046756 -1.799554
  H 0.698031 -0.710052 -1.898606
  H 5.360527 0.094161 -0.533256
  H 4.952553 0.264565 -3.553412
 28
 113.342853
  C -0.307219 0.021333 0.758177
  C 2.936527 0.067165 -0.054291
  C 3.543863 -0.008097 1.279439
  C 2.542113 -0.073571 2.439374
  C 3.249499 -0.149539 3.785826
  C 3.396686 0.137496 -1.300721
  C 2.567818 0.207915 -2.548899
  C 1.060381 0.194784 -2.316746
  H 0.534849 0.248442 -3.267737
  C 4.858531 0.148838 -1.501902
  C 5.488714 0.214628 -2.668537
  H 6.562661 0.217029 -2.711670
  H -0.198175 -0.038550 1.819472
  H -0.500217 -0.868479 0.205722
  H -0.500375 0.967534 0.309380
  H 4.179306 0.874721 1.431264
  H 4.179300 -0.902345 1.330969
  H 1.910089 -0.949785 2.307245
  H 1.910051 0.811938 2.406654
  H 3.877148 -1.035067 3.841104
  H 2.524738 -0.195098 4.593005
  H 3.877103 0.724146 3.940371
  H 2.842557 -0.641346 -3.183467
  H 2.842559 1.123320 -3.083962
  H 0.764235 1.041422 -1.707023
  H 0.764298 -0.715040 -1.806221
  H 5.439263 0.097570 -0.593284
  H 4.982258 0.267657 -3.609056
 28
 115.099250
  C -0.440221 0.014321 0.881583
  C 3.047933 0.068481 -0.078047
  C 3.592724 -0.007619 1.270734
  C 2.521251 -0.069973 2.375563
  C 3.144320 -0.148079 3.760005
  C 3.482996 0.138502 -1.319121
  C 2.593966 0.207551 -2.542726
  C 1.104159 0.189503 -2.222935
  H 0.520418 0.241318 -3.141098
  C 4.935468 0.152414 -1.566008
  C 5.523396 0.219415 -2.753794
  H 6.599903 0.224174 -2.837994
  H -0.331544 -0.045022 1.933504
  H -0.606008 -0.878670 0.319037
  H -0.606274 0.964842 0.423116
  H 4.218529 0.871129 1.454263
  H 4.218536 -0.901406 1.354254
  H 1.895290 -0.939540 2.204292
  H 1.895224 0.813380 2.303186
  H 3.764923 -1.036792 3.853232
  H 2.370720 -0.191102 4.522326
  H 3.764942 0.724583 3.952619
  H 2.836234 -0.637458 -3.188115
  H 2.836278 1.119966 -3.089053
  H 0.842419 1.034635 -1.594682
  H 0.842484 -0.720761 -1.693884
  H 5.545156 0.101875 -0.670166
  H 4.980969 0.271414 -3.675011
 28
 115.493320
  C -0.571743 0.007096 1.009261
  C 3.150424 0.069650 -0.098886
  C 3.629579 -0.007536 1.269265
  C 2.496757 -0.065817 2.301889
  C 3.035598 -0.146150 3.725766
  C 3.560450 0.139817 -1.342527
  C 2.623480 0.206484 -2.523818
  C 1.156857 0.183899 -2.123346
  H 0.523498 0.233575 -3.003805
  C 5.005341 0.156394 -1.636455
  C 5.550984 0.224524 -2.843749
  H 6.619936 0.231455 -2.966483
  H -0.472132 -0.052799 2.070809
  H -0.718638 -0.886983 0.439598
  H -0.719008 0.959605 0.543817
  H 4.251829 0.876279 1.491260
  H 4.251879 -0.910727 1.390445
  H 1.875662 -0.933602 2.090734
  H 1.875565 0.820267 2.189675
  H 3.648171 -1.039732 3.857434
  H 2.212914 -0.186580 4.441945
  H 3.648223 0.727074 3.957156
  H 2.835427 -0.637066 -3.179539
  H 2.835440 1.118392 -3.080504
  H 0.928453 1.026433 -1.480729
  H 0.928544 -0.725270 -1.579771
  H 5.642912 0.106950 -0.760295
  H 4.972952 0.275477 -3.746336
 28
 115.414563
  C -0.703046 -0.001122 1.155473
  C 3.243138 0.070525 -0.114460
  C 3.664232 -0.007705 1.272206
  C 2.470835 -0.062451 2.242198
  C 2.929742 -0.144067 3.688966
  C 3.627143 0.141065 -1.364651
  C 2.648054 0.205771 -2.511245
  C 1.198373 0.179690 -2.048448
  H 0.525528 0.227925 -2.903507
  C 5.064664 0.159842 -1.697339
  C 5.576814 0.228758 -2.918226
  H 6.645851 0.237379 -3.070831
  H -0.593609 -0.060951 2.215607
  H -0.838766 -0.892649 0.584517
  H -0.839172 0.948960 0.688512
  H 4.275035 0.874709 1.527155
  H 4.275100 -0.913216 1.426293
  H 1.858164 -0.929062 1.996509
  H 1.858091 0.826307 2.095530
  H 3.531411 -1.039882 3.853545
  H 2.068692 -0.181882 4.358804
  H 3.531455 0.727680 3.953307
  H 2.836710 -0.642343 -3.177928
  H 2.836696 1.123294 -3.078200
  H 0.994446 1.024308 -1.394202
  H 0.994509 -0.732863 -1.493567
  H 5.723769 0.111391 -0.838855
  H 4.969967 0.278971 -3.807840
 28
 115.833544
  C -0.837555 -0.011377 1.338295
  C 3.340165 0.071852 -0.137719
  C 3.689316 -0.007190 1.263521
  C 2.443214 -0.057414 2.153249
  C 2.817727 -0.141089 3.636462
  C 3.689981 0.141476 -1.371833
  C 2.675294 0.204357 -2.486010
  C 1.238808 0.175491 -1.974341
  H 0.544262 0.222014 -2.798624
  C 5.122227 0.162723 -1.748448
  C 5.597471 0.232414 -2.983046
  H 6.651674 0.242744 -3.165731
  H -0.695653 -0.070721 2.389730
  H -0.973660 -0.910812 0.762115
  H -0.974151 0.947317 0.866972
  H 4.288976 0.876377 1.554908
  H 4.288934 -0.917799 1.453654
  H 1.836575 -0.931525 1.866440
  H 1.836585 0.843322 1.966567
  H 3.396625 -1.024883 3.835847
  H 1.933026 -0.175399 4.244654
  H 3.396386 0.714425 3.933871
  H 2.841416 -0.630511 -3.148027
  H 2.841528 1.108692 -3.050180
  H 1.054143 1.017284 -1.316726
  H 1.053964 -0.735436 -1.415211
  H 5.806459 0.115041 -0.903491
  H 4.963366 0.281389 -3.850335
