 23
 0.000000
  C 0.980740 0.151293 0.427467
  C 2.454996 0.134900 0.386826
  C 3.231554 0.602669 1.550648
  H 2.615922 0.934835 2.377421
  C 3.060806 -0.331544 -0.774095
  C 4.437396 -0.413572 -0.978942
  C 5.119830 -0.864634 -2.104029
  C 4.626170 -1.387473 -3.407718
  C 3.138047 -1.504826 -3.700167
  H 3.004804 -1.905473 -4.699291
  O 6.440862 -0.858633 -2.089778
  H 0.590901 0.529153 1.367453
  H 0.589640 -0.854360 0.266996
  H 0.589638 0.766188 -0.384340
  H 3.884279 1.424922 1.251473
  H 3.884438 -0.197800 1.903647
  H 2.404915 -0.649133 -1.564833
  H 5.061778 -0.083536 -0.157034
  H 5.088923 -2.373212 -3.530664
  H 5.088908 -0.759874 -4.177752
  H 2.653580 -0.532454 -3.663251
  H 2.653693 -2.182365 -3.001657
  H 6.829981 -0.526117 -1.259032
 23
 -0.080991
  C 0.989072 0.005235 0.500969
  C 2.456363 0.082928 0.393723
  C 3.229306 0.728183 1.471413
  H 2.581466 1.104037 2.256272
  C 3.054759 -0.451278 -0.740431
  C 4.431190 -0.487859 -0.957600
  C 5.120143 -0.963728 -2.067696
  C 4.626977 -1.385007 -3.405317
  C 3.143100 -1.374702 -3.730583
  H 3.021976 -1.645504 -4.776399
  O 6.437169 -1.053764 -2.013575
  H 0.618170 0.428881 1.428111
  H 0.658423 -1.031336 0.422480
  H 0.522924 0.524877 -0.337656
  H 3.819891 1.556295 1.079331
  H 3.933774 0.022494 1.912897
  H 2.399562 -0.889642 -1.476900
  H 5.057355 -0.128581 -0.150059
  H 5.032642 -2.386568 -3.583428
  H 5.152874 -0.742370 -4.120700
  H 2.711380 -0.387557 -3.593170
  H 2.598692 -2.108032 -3.142534
  H 6.833810 -0.777964 -1.164942
 23
 0.752197
  C 1.010941 -0.180804 0.572675
  C 2.456249 0.044729 0.387510
  C 3.180485 0.938460 1.311848
  H 2.521234 1.352374 2.067847
  C 3.084098 -0.566203 -0.688445
  C 4.457607 -0.555608 -0.922142
  C 5.121663 -1.084173 -2.026693
  C 4.617371 -1.349253 -3.401042
  C 3.152742 -1.127562 -3.742612
  H 3.027024 -1.266225 -4.813610
  O 6.414767 -1.326979 -1.942888
  H 0.630676 0.294668 1.470848
  H 0.793884 -1.248915 0.609647
  H 0.459385 0.202352 -0.287765
  H 3.647231 1.757867 0.764961
  H 3.987026 0.401047 1.812046
  H 2.478720 -1.155530 -1.354663
  H 5.091573 -0.171032 -0.132098
  H 4.909752 -2.370595 -3.666173
  H 5.231888 -0.708424 -4.045115
  H 2.835149 -0.118536 -3.495764
  H 2.507335 -1.847556 -3.249491
  H 6.819022 -1.109703 -1.082049
 23
 2.616644
  C 1.053863 -0.283299 0.636366
  C 2.461316 0.057973 0.356919
  C 3.112450 1.144275 1.116050
  H 2.441790 1.576964 1.851065
  C 3.121200 -0.623756 -0.652453
  C 4.485029 -0.533778 -0.925081
  C 5.127666 -1.167592 -1.988824
  C 4.613433 -1.332392 -3.378152
  C 3.191594 -0.904695 -3.708792
  H 3.058258 -0.952756 -4.786253
  O 6.373444 -1.597536 -1.875180
  H 0.705555 0.148054 1.569544
  H 0.907587 -1.362415 0.650610
  H 0.420142 0.096660 -0.168410
  H 3.450272 1.931136 0.441430
  H 4.000311 0.776019 1.630707
  H 2.563035 -1.347966 -1.222549
  H 5.118923 -0.028835 -0.206285
  H 4.780193 -2.367700 -3.689729
  H 5.309431 -0.740435 -3.985265
  H 3.000371 0.115295 -3.388571
  H 2.453511 -1.563470 -3.265224
  H 6.798524 -1.414453 -1.013784
 23
 7.638752
  C 1.123468 -0.517229 0.752064
  C 2.457719 -0.024519 0.357695
  C 2.993014 1.212749 0.961704
  H 2.312961 1.626171 1.699304
  C 3.166057 -0.711636 -0.613635
  C 4.505641 -0.538224 -0.932013
  C 5.093233 -1.271535 -1.978907
  C 4.605097 -1.294850 -3.382471
  C 3.260066 -0.652273 -3.688969
  H 3.108352 -0.654412 -4.764802
  O 6.212365 -1.929824 -1.816174
  H 0.771869 -0.048991 1.666236
  H 1.125645 -1.599607 0.870573
  H 0.401957 -0.297100 -0.037980
  H 3.173137 1.961178 0.189901
  H 3.955057 1.025999 1.439603
  H 2.685735 -1.514966 -1.152623
  H 5.146092 0.063010 -0.300857
  H 4.640616 -2.320042 -3.761700
  H 5.387490 -0.756507 -3.932116
  H 3.228253 0.376811 -3.342735
  H 2.436027 -1.197221 -3.242685
  H 6.641748 -1.816376 -0.945980
 23
 15.531874
  C 1.243627 -0.704088 0.934315
  C 2.458483 -0.086311 0.366106
  C 2.833842 1.294211 0.739826
  H 2.147003 1.712507 1.468625
  C 3.204936 -0.792490 -0.557891
  C 4.502724 -0.527441 -0.951936
  C 5.024675 -1.366753 -1.982538
  C 4.617473 -1.235105 -3.396831
  C 3.385363 -0.391655 -3.668880
  H 3.252460 -0.288745 -4.742104
  O 5.982079 -2.230825 -1.771557
  H 0.880065 -0.154627 1.795998
  H 1.425173 -1.740725 1.213092
  H 0.449932 -0.717470 0.187158
  H 2.843147 1.931643 -0.144482
  H 3.841714 1.325477 1.153567
  H 2.772914 -1.648908 -1.057884
  H 5.144326 0.164148 -0.429167
  H 4.526602 -2.222520 -3.853406
  H 5.487703 -0.766492 -3.869260
  H 3.488613 0.599882 -3.239948
  H 2.487435 -0.853368 -3.263464
  H 6.421251 -2.177702 -0.900640
 23
 26.719452
  C 1.388997 -0.888163 1.089634
  C 2.472648 -0.154361 0.401398
  C 2.651788 1.298536 0.615478
  H 1.945687 1.683537 1.344295
  C 3.281752 -0.822617 -0.510663
  C 4.537907 -0.469132 -0.973804
  C 4.915294 -1.408899 -1.993655
  C 4.604434 -1.170891 -3.417879
  C 3.500993 -0.156011 -3.685528
  H 3.426847 0.025727 -4.753695
  O 5.710012 -2.400235 -1.761572
  H 0.968515 -0.302968 1.902183
  H 1.747990 -1.839728 1.478187
  H 0.582189 -1.117698 0.390436
  H 2.518697 1.831086 -0.325907
  H 3.662856 1.523963 0.957681
  H 2.916358 -1.703684 -1.031266
  H 5.203271 0.254792 -0.542846
  H 4.394425 -2.118359 -3.921379
  H 5.553254 -0.804958 -3.828423
  H 3.709340 0.788801 -3.191755
  H 2.539963 -0.523826 -3.339090
  H 6.167508 -2.406938 -0.894564
 23
 41.081860
  C 1.585709 -1.114493 1.116083
  C 2.544206 -0.208292 0.432058
  C 2.440394 1.267635 0.581731
  H 1.664717 1.535482 1.292840
  C 3.461315 -0.727778 -0.474260
  C 4.678701 -0.359079 -0.977576
  C 4.808760 -1.394718 -1.994567
  C 4.519956 -1.100396 -3.417840
  C 3.550502 0.053047 -3.647473
  H 3.425402 0.216050 -4.714021
  O 5.434284 -2.495246 -1.778208
  H 1.093336 -0.606258 1.940996
  H 2.089384 -2.004767 1.492082
  H 0.809245 -1.457433 0.425601
  H 2.215161 1.730983 -0.379478
  H 3.388028 1.692920 0.916489
  H 3.158415 -1.618487 -1.084756
  H 5.413060 0.326326 -0.622557
  H 4.171454 -2.008638 -3.916081
  H 5.498778 -0.855678 -3.847928
  H 3.922640 0.971597 -3.203816
  H 2.574825 -0.169111 -3.225348
  H 5.930562 -2.559536 -0.937026
 23
 54.272469
  C 1.708009 -1.247112 1.051543
  C 2.589721 -0.234326 0.426350
  C 2.314515 1.218552 0.577575
  H 1.474516 1.384185 1.244098
  C 3.601260 -0.610381 -0.432679
  C 4.814664 -0.326728 -0.953879
  C 4.712509 -1.391143 -1.964665
  C 4.411611 -1.039868 -3.391462
  C 3.525902 0.188005 -3.555238
  H 3.390950 0.398170 -4.611878
  O 5.330759 -2.538052 -1.808516
  H 1.106670 -0.803163 1.838427
  H 2.286949 -2.072766 1.462581
  H 1.026214 -1.675157 0.312260
  H 2.098201 1.672858 -0.389485
  H 3.190336 1.734645 0.972235
  H 3.349715 -1.536525 -1.230270
  H 5.638544 0.276412 -0.638624
  H 3.971071 -1.905662 -3.889418
  H 5.388153 -0.859754 -3.852257
  H 3.975959 1.059788 -3.089015
  H 2.544817 0.022603 -3.117870
  H 5.901147 -2.603896 -1.018523
 23
 59.154350
  C 1.766552 -1.287320 1.011507
  C 2.615572 -0.229760 0.425042
  C 2.249207 1.205067 0.560976
  H 1.370937 1.316387 1.186853
  C 3.672162 -0.530019 -0.380133
  C 4.868100 -0.331822 -0.919977
  C 4.652653 -1.403490 -1.939210
  C 4.370371 -1.004257 -3.375783
  C 3.515084 0.246106 -3.503496
  H 3.385484 0.487943 -4.553914
  O 5.272187 -2.585343 -1.808270
  H 1.114008 -0.880292 1.775842
  H 2.368283 -2.085855 1.438571
  H 1.138107 -1.740163 0.241375
  H 2.053855 1.651527 -0.414641
  H 3.074158 1.766355 0.997999
  H 3.471245 -1.544025 -1.362512
  H 5.740875 0.221763 -0.633756
  H 3.908409 -1.846870 -3.891382
  H 5.349442 -0.833613 -3.834200
  H 3.986305 1.092774 -3.014737
  H 2.529319 0.091714 -3.069826
  H 5.860060 -2.651097 -1.036603
 23
 51.914154
  C 1.815940 -1.256052 1.082862
  C 2.626126 -0.183479 0.467566
  C 2.188714 1.236335 0.559658
  H 1.300605 1.322900 1.177452
  C 3.693212 -0.454822 -0.296408
  C 4.843132 -0.439913 -0.913131
  C 4.583360 -1.485634 -1.978814
  C 4.400339 -0.976375 -3.412704
  C 3.556056 0.283709 -3.501629
  H 3.487051 0.596377 -4.539653
  O 5.258245 -2.673097 -1.893515
  H 1.129376 -0.852937 1.819685
  H 2.447284 -2.012542 1.546239
  H 1.229114 -1.762868 0.315352
  H 1.983655 1.642606 -0.431491
  H 2.983020 1.849186 0.984775
  H 3.496892 -1.685512 -1.587305
  H 5.777383 0.020707 -0.651809
  H 3.965208 -1.780692 -4.004818
  H 5.404102 -0.780810 -3.800471
  H 3.999686 1.094329 -2.930123
  H 2.548304 0.103920 -3.137817
  H 5.822942 -2.745587 -1.108518
 23
 42.548209
  C 1.878364 -1.192368 1.245502
  C 2.587843 -0.123123 0.512217
  C 2.062437 1.265696 0.521869
  H 1.189879 1.343272 1.162272
  C 3.650338 -0.393578 -0.248720
  C 4.748454 -0.534443 -0.922142
  C 4.505384 -1.560311 -2.012953
  C 4.465192 -0.940161 -3.426197
  C 3.570438 0.281528 -3.528529
  H 3.593402 0.655104 -4.548830
  O 5.287149 -2.699676 -1.961964
  H 1.196255 -0.775996 1.980267
  H 2.580879 -1.869977 1.728940
  H 1.296356 -1.796333 0.546696
  H 1.807201 1.578595 -0.490987
  H 2.824781 1.962112 0.871158
  H 3.450358 -1.848148 -1.767732
  H 5.721506 -0.133692 -0.693174
  H 4.128124 -1.724650 -4.103318
  H 5.492699 -0.679612 -3.690788
  H 3.908578 1.075675 -2.868954
  H 2.540654 0.030521 -3.286667
  H 5.839301 -2.747310 -1.168449
 23
 37.402357
  C 1.827739 -1.112708 1.295423
  C 2.537196 -0.088075 0.501345
  C 2.039315 1.307041 0.465758
  H 1.169298 1.426526 1.102913
  C 3.608667 -0.415533 -0.225819
  C 4.675544 -0.708159 -0.889425
  C 4.503742 -1.674486 -2.043735
  C 4.531670 -0.885138 -3.378169
  C 3.506632 0.230482 -3.460832
  H 3.565138 0.692419 -4.443363
  O 5.443624 -2.698365 -2.077312
  H 1.149769 -0.654341 2.008604
  H 2.533513 -1.766308 1.806422
  H 1.241871 -1.755723 0.635137
  H 1.791064 1.584295 -0.559726
  H 2.813816 2.005108 0.784858
  H 3.497338 -2.108824 -1.925269
  H 5.670568 -0.368806 -0.640552
  H 4.342497 -1.630586 -4.152329
  H 5.540927 -0.494992 -3.517489
  H 3.694017 0.999414 -2.717414
  H 2.499421 -0.157714 -3.332342
  H 6.015045 -2.705944 -1.297507
 23
 37.297740
  C 1.676713 -1.024737 1.121089
  C 2.539228 -0.040532 0.430607
  C 2.198781 1.402747 0.467878
  H 1.310676 1.576027 1.066379
  C 3.608365 -0.446393 -0.254632
  C 4.704427 -0.802674 -0.840755
  C 4.655123 -1.707365 -2.045932
  C 4.500251 -0.848107 -3.333267
  C 3.305438 0.084572 -3.330766
  H 3.250041 0.586558 -4.293954
  O 5.761346 -2.539389 -2.191535
  H 0.982282 -0.531693 1.793742
  H 2.281271 -1.749672 1.664926
  H 1.099751 -1.596548 0.391934
  H 2.039597 1.772048 -0.545840
  H 3.023931 1.986676 0.876150
  H 3.747244 -2.321350 -1.941910
  H 5.679465 -0.531478 -0.455426
  H 4.407109 -1.576221 -4.140681
  H 5.427604 -0.293077 -3.480409
  H 3.396703 0.846531 -2.563297
  H 2.379763 -0.466689 -3.186844
  H 6.341152 -2.529457 -1.418153
 23
 30.426923
  C 1.763538 -0.993912 1.313312
  C 2.505848 -0.025893 0.483384
  C 2.017461 1.363187 0.365581
  H 1.107676 1.509822 0.936391
  C 3.629439 -0.406396 -0.145935
  C 4.646464 -0.871541 -0.769663
  C 4.531599 -1.766389 -2.030710
  C 4.642056 -0.819371 -3.240145
  C 3.446461 0.107727 -3.380712
  H 3.507818 0.635187 -4.329658
  O 5.467512 -2.774319 -2.019747
  H 1.364380 -0.508370 2.202098
  H 2.367822 -1.855279 1.578625
  H 0.899336 -1.356375 0.746688
  H 1.841307 1.611948 -0.681459
  H 2.773361 2.066995 0.711894
  H 3.560544 -2.260706 -2.020964
  H 5.669559 -0.656928 -0.497420
  H 4.703472 -1.469700 -4.117199
  H 5.562612 -0.236804 -3.180398
  H 3.429468 0.847617 -2.587098
  H 2.515407 -0.454525 -3.365676
  H 6.363121 -2.436198 -2.181888
