 17
 0.000000
  C 0.992286 0.130020 0.356608
  C 2.451974 0.088105 0.273565
  H 3.033801 0.423999 1.121403
  C 3.100074 -0.360929 -0.853126
  C 4.490943 -0.402203 -0.959484
  C 5.201189 -0.849656 -2.078098
  C 4.589451 -1.354434 -3.321709
  H 3.507526 -1.352423 -3.301714
  O 6.506760 -0.848485 -2.092041
  H 0.633865 0.508313 1.307376
  H 0.577662 -0.865443 0.181505
  H 0.599242 0.744020 -0.457247
  H 2.494263 -0.690608 -1.684909
  H 5.062965 -0.060104 -0.106085
  H 4.955413 -2.363895 -3.511995
  H 4.946759 -0.756415 -4.160634
  H 6.937040 -0.518383 -1.279070
 17
 2.085308
  C 1.023610 0.114889 0.279218
  C 2.482087 0.043606 0.354782
  H 3.013123 0.417440 1.211770
  C 3.151516 -0.419242 -0.751511
  C 4.522110 -0.415138 -0.897808
  C 5.161381 -0.824974 -2.059318
  C 4.508853 -1.311162 -3.289178
  H 3.426150 -1.313302 -3.243423
  O 6.478803 -0.825126 -2.133965
  H 0.556328 0.616050 1.112900
  H 0.592044 -0.875175 0.164364
  H 0.821319 0.620646 -0.677744
  H 2.546463 -0.769702 -1.574751
  H 5.124887 -0.072034 -0.073644
  H 4.869939 -2.318230 -3.503093
  H 4.839118 -0.696988 -4.128157
  H 6.944196 -0.494457 -1.343414
 17
 6.476302
  C 1.061896 0.105892 0.165630
  C 2.493226 0.006436 0.424746
  H 2.959556 0.428655 1.305104
  C 3.209893 -0.493537 -0.627715
  C 4.574097 -0.438784 -0.818886
  C 5.129137 -0.801850 -2.039734
  C 4.417059 -1.252591 -3.250317
  H 3.342349 -1.257189 -3.166712
  O 6.432173 -0.802519 -2.192804
  H 0.511909 0.752398 0.843892
  H 0.600923 -0.874040 0.161872
  H 1.042678 0.433972 -0.879864
  H 2.622512 -0.892624 -1.443280
  H 5.219658 -0.076950 -0.027172
  H 4.769503 -2.252917 -3.509069
  H 4.712419 -0.612759 -4.084156
  H 6.945869 -0.484712 -1.423941
 17
 13.549074
  C 1.128514 0.104732 0.042486
  C 2.508970 -0.037072 0.485414
  H 2.905225 0.436702 1.365656
  C 3.266986 -0.594189 -0.500212
  C 4.609743 -0.471933 -0.745170
  C 5.079839 -0.777503 -2.015854
  C 4.318785 -1.199054 -3.210622
  H 3.246792 -1.211268 -3.091643
  O 6.379156 -0.758003 -2.226708
  H 0.547713 0.856267 0.561145
  H 0.599414 -0.850543 0.096363
  H 1.284851 0.304042 -1.029019
  H 2.702414 -1.065926 -1.296198
  H 5.287146 -0.076658 -0.003037
  H 4.666287 -2.185953 -3.512154
  H 4.578900 -0.535263 -4.032909
  H 6.920035 -0.436459 -1.480112
 17
 21.466185
  C 1.229662 0.145908 -0.085018
  C 2.527511 -0.125730 0.535175
  H 2.900233 0.403819 1.394855
  C 3.288307 -0.790088 -0.382399
  C 4.608269 -0.569204 -0.673017
  C 5.017727 -0.759438 -1.989870
  C 4.234440 -1.178522 -3.169139
  H 3.169756 -1.256804 -3.008704
  O 6.299380 -0.598680 -2.260504
  H 0.701654 1.004912 0.305813
  H 0.576895 -0.729458 -0.047272
  H 1.562043 0.261590 -1.136976
  H 2.736228 -1.318309 -1.147193
  H 5.285289 -0.124641 0.042284
  H 4.622213 -2.134252 -3.521774
  H 4.425777 -0.470471 -3.974112
  H 6.837430 -0.236301 -1.531764
 17
 26.187489
  C 1.393769 0.238533 -0.271483
  C 2.553503 -0.218414 0.518914
  H 2.919454 0.313652 1.383527
  C 3.301892 -1.074233 -0.255972
  C 4.615722 -0.756886 -0.585885
  C 4.943165 -0.718839 -1.936399
  C 4.137178 -1.172057 -3.087094
  H 3.104583 -1.408235 -2.859017
  O 6.121762 -0.261364 -2.314181
  H 0.985533 1.180893 0.070662
  H 0.597765 -0.507209 -0.323196
  H 1.852509 0.313763 -1.280099
  H 2.754510 -1.693164 -0.954900
  H 5.257725 -0.259660 0.129338
  H 4.618963 -2.053678 -3.515397
  H 4.177074 -0.406175 -3.860650
  H 6.699189 0.046219 -1.592259
 17
 34.288853
  C 1.552568 0.252532 -0.409084
  C 2.599595 -0.252892 0.490788
  H 2.966895 0.318270 1.328130
  C 3.306531 -1.216621 -0.180323
  C 4.605236 -0.849487 -0.528740
  C 4.856955 -0.686879 -1.887818
  C 4.040316 -1.145608 -3.032877
  H 3.034072 -1.458879 -2.784580
  O 5.966420 -0.087738 -2.284577
  H 1.170721 1.221575 -0.112999
  H 0.724098 -0.445942 -0.537674
  H 2.117867 0.309556 -1.374488
  H 2.759600 -1.862247 -0.854748
  H 5.241898 -0.343949 0.184792
  H 4.564275 -1.982207 -3.505978
  H 4.006879 -0.351023 -3.780372
  H 6.571432 0.180072 -1.568942
 17
 42.793687
  C 1.718547 0.277689 -0.543071
  C 2.657439 -0.284782 0.430428
  H 3.072132 0.325291 1.219476
  C 3.297469 -1.360333 -0.122259
  C 4.587561 -0.938546 -0.485519
  C 4.758272 -0.648384 -1.833200
  C 3.948705 -1.125878 -2.980187
  H 2.975924 -1.524805 -2.720469
  O 5.793878 0.076919 -2.226479
  H 1.346532 1.254589 -0.262460
  H 0.888319 -0.383285 -0.784317
  H 2.389000 0.332186 -1.440019
  H 2.752647 -2.038956 -0.757750
  H 5.223006 -0.443458 0.236196
  H 4.519304 -1.906660 -3.487497
  H 3.841657 -0.316134 -3.701716
  H 6.412149 0.333346 -1.519052
 17
 52.478697
  C 1.877716 0.293454 -0.673189
  C 2.718602 -0.322782 0.349894
  H 3.165693 0.298812 1.112327
  C 3.286595 -1.501874 -0.067473
  C 4.550766 -0.971281 -0.452867
  C 4.663879 -0.584419 -1.788069
  C 3.862810 -1.087882 -2.933476
  H 2.918028 -1.537484 -2.658224
  O 5.662898 0.196313 -2.176993
  H 1.514749 1.277513 -0.403920
  H 1.057742 -0.332299 -1.018330
  H 2.654156 0.335419 -1.490458
  H 2.756709 -2.231508 -0.653105
  H 5.191115 -0.503109 0.282067
  H 4.463285 -1.840191 -3.451443
  H 3.707874 -0.282937 -3.653252
  H 6.291527 0.446179 -1.476318
 17
 62.275516
  C 2.037502 0.325428 -0.777709
  C 2.794301 -0.371126 0.281938
  H 3.192886 0.209833 1.098458
  C 3.274299 -1.632331 -0.032322
  C 4.484663 -0.949348 -0.429421
  C 4.571799 -0.513743 -1.771815
  C 3.811466 -1.076940 -2.917424
  H 2.886621 -1.560982 -2.639121
  O 5.552118 0.284437 -2.152496
  H 1.704708 1.315673 -0.493562
  H 1.211927 -0.247468 -1.188368
  H 2.878166 0.343564 -1.518452
  H 2.765508 -2.379043 -0.607914
  H 5.156226 -0.534262 0.307422
  H 4.452629 -1.816390 -3.400059
  H 3.632871 -0.303572 -3.665670
  H 6.167777 0.565495 -1.451698
 17
 67.816266
  C 2.189988 0.372813 -0.851320
  C 2.915443 -0.405447 0.234297
  H 3.209282 0.118976 1.124758
  C 3.246162 -1.747385 -0.017580
  C 4.385838 -0.912510 -0.406226
  C 4.473943 -0.430059 -1.780658
  C 3.802250 -1.088563 -2.927329
  H 2.901351 -1.614834 -2.656790
  O 5.438893 0.368658 -2.130570
  H 1.858904 1.350576 -0.524960
  H 1.357804 -0.167213 -1.288256
  H 3.049578 0.389846 -1.547737
  H 2.741276 -2.470825 -0.617534
  H 5.141063 -0.604197 0.300014
  H 4.510607 -1.812717 -3.333591
  H 3.613968 -0.372802 -3.725615
  H 6.045868 0.668821 -1.427442
 17
 70.855556
  C 2.309408 0.408983 -0.863425
  C 2.998020 -0.417904 0.223850
  H 3.158679 0.039164 1.186417
  C 3.219638 -1.804771 -0.027902
  C 4.337302 -0.923967 -0.398997
  C 4.408768 -0.372624 -1.808194
  C 3.841051 -1.121035 -2.956215
  H 2.958178 -1.688177 -2.697347
  O 5.343716 0.458294 -2.120452
  H 2.011595 1.397385 -0.539641
  H 1.471255 -0.098493 -1.331474
  H 3.192473 0.411001 -1.587029
  H 2.685888 -2.482380 -0.652496
  H 5.183198 -0.748460 0.249302
  H 4.612968 -1.815748 -3.290157
  H 3.639790 -0.454882 -3.793174
  H 5.911398 0.791635 -1.396458
 17
 73.335498
  C 2.412195 0.419663 -0.877417
  C 3.047274 -0.424996 0.209578
  H 3.124262 -0.020978 1.198492
  C 3.207485 -1.844553 -0.070197
  C 4.323280 -0.956892 -0.414364
  C 4.360072 -0.326287 -1.806590
  C 3.895595 -1.139623 -2.974075
  H 3.039461 -1.745048 -2.739334
  O 5.270230 0.540391 -2.091642
  H 2.191684 1.446936 -0.600646
  H 1.560654 -0.038110 -1.361872
  H 3.283836 0.377049 -1.580334
  H 2.636699 -2.511428 -0.666856
  H 5.237670 -0.926295 0.159413
  H 4.714637 -1.800163 -3.254081
  H 3.693302 -0.498263 -3.835399
  H 5.782741 0.899482 -1.339199
 17
 78.072910
  C 2.457685 0.409350 -0.870583
  C 3.058930 -0.458221 0.213808
  H 3.082626 -0.091384 1.226209
  C 3.205143 -1.867185 -0.105176
  C 4.333107 -0.992387 -0.411124
  C 4.371503 -0.309118 -1.830677
  C 3.962345 -1.133770 -3.014291
  H 3.100711 -1.750194 -2.803947
  O 5.304938 0.565429 -2.092493
  H 2.281304 1.445159 -0.596915
  H 1.599738 -0.016018 -1.381369
  H 3.388534 0.336514 -1.614059
  H 2.629496 -2.525925 -0.712099
  H 5.256240 -1.016838 0.149079
  H 4.798539 -1.784966 -3.265894
  H 3.779344 -0.496908 -3.879124
  H 5.785526 0.930443 -1.323366
