 20
 0.000000
  C -1.075125 0.188013 0.030252
  C -1.854534 -1.080617 0.359602
  C -1.606716 -2.159549 -0.696474
  C -1.490681 -1.596967 1.734239
  O -0.583816 -1.114560 2.384071
  C -2.301276 -2.741798 2.273632
  H -1.371923 0.582236 -0.937674
  H -0.005351 -0.002812 0.005960
  H -1.256762 0.957094 0.777758
  H -2.920419 -0.830646 0.379628
  H -0.569213 -2.481397 -0.690799
  H -1.843785 -1.784255 -1.687721
  H -2.223271 -3.037156 -0.520193
  H -3.150379 -2.963417 1.632845
  H -2.673893 -2.479369 3.259644
  H -1.669444 -3.621937 2.346227
  O 2.964737 0.172207 0.063201
  H 3.481416 -0.647740 -0.082855
  H 3.203250 0.599331 0.912741
  H 2.002977 0.001504 0.008554
 20
 0.695766
  C -0.993102 0.208247 0.013666
  C -1.793429 -1.066310 0.343547
  C -1.569108 -2.161148 -0.711042
  C -1.411022 -1.592290 1.715987
  O -0.461507 -1.136192 2.327198
  C -2.244466 -2.707141 2.263510
  H -1.283026 0.602280 -0.961275
  H 0.064828 -0.001643 0.010097
  H -1.180235 0.975882 0.765159
  H -2.859273 -0.820696 0.369468
  H -0.534830 -2.488568 -0.713524
  H -1.817173 -1.772027 -1.696234
  H -2.199865 -3.027179 -0.520469
  H -3.122324 -2.903226 1.655241
  H -2.554018 -2.454626 3.274356
  H -1.640393 -3.608263 2.326090
  O 2.723689 0.115095 0.113516
  H 3.215205 -0.714762 -0.011610
  H 2.955002 0.537457 0.951563
  H 1.757962 -0.026845 0.044941
 20
 1.619916
  C -0.951568 0.199450 -0.010204
  C -1.747131 -1.061841 0.324607
  C -1.560139 -2.155851 -0.736418
  C -1.326471 -1.614728 1.678853
  O -0.301704 -1.245384 2.217535
  C -2.209173 -2.667828 2.279052
  H -1.222573 0.577975 -0.993040
  H 0.127436 -0.021111 0.016854
  H -1.150722 0.970923 0.728223
  H -2.810902 -0.809996 0.374819
  H -0.529088 -2.501314 -0.762483
  H -1.823766 -1.762123 -1.717073
  H -2.200502 -3.011843 -0.531361
  H -3.142156 -2.780544 1.738912
  H -2.414008 -2.415454 3.317148
  H -1.675414 -3.617287 2.284577
  O 2.560046 0.100962 0.175887
  H 3.052869 -0.743661 0.092739
  H 2.777898 0.558327 1.014608
  H 1.573914 -0.035514 0.087031
 20
 4.892028
  C -0.908534 0.196759 -0.013907
  C -1.712546 -1.052205 0.315987
  C -1.544669 -2.148057 -0.750569
  C -1.272766 -1.611614 1.655992
  O -0.226961 -1.256581 2.167773
  C -2.163477 -2.636212 2.280896
  H -1.162594 0.575307 -0.992647
  H 0.165677 -0.046101 0.028930
  H -1.101104 0.969822 0.719935
  H -2.785350 -0.795817 0.375994
  H -0.514015 -2.505137 -0.790509
  H -1.817232 -1.749476 -1.727488
  H -2.188356 -2.998276 -0.540763
  H -3.105776 -2.727452 1.767480
  H -2.338152 -2.375620 3.330023
  H -1.650595 -3.600842 2.269594
  O 2.400425 0.066523 0.216331
  H 2.877541 -0.789809 0.146298
  H 2.616919 0.517612 1.053903
  H 1.396690 -0.040058 0.113164
 20
 11.321066
  C -0.903591 0.198478 -0.015299
  C -1.712672 -1.048353 0.323122
  C -1.542360 -2.139928 -0.744467
  C -1.271812 -1.605917 1.655400
  O -0.223422 -1.259112 2.157422
  C -2.154750 -2.628901 2.280055
  H -1.146733 0.575293 -0.996156
  H 0.209211 -0.061666 0.033277
  H -1.084254 0.978954 0.717377
  H -2.778736 -0.792815 0.386773
  H -0.511980 -2.493535 -0.784642
  H -1.815227 -1.743507 -1.718855
  H -2.181834 -2.990252 -0.537629
  H -3.099885 -2.718528 1.772528
  H -2.322931 -2.370921 3.330905
  H -1.641417 -3.591962 2.261606
  O 2.363714 0.059009 0.225274
  H 2.835840 -0.805089 0.164824
  H 2.580018 0.510566 1.060929
  H 1.288665 -0.045228 0.113726
 20
 18.653435
  C -0.887881 0.202891 -0.026488
  C -1.697422 -1.037072 0.317587
  C -1.539927 -2.133126 -0.752796
  C -1.238371 -1.608490 1.651021
  O -0.171591 -1.284038 2.128948
  C -2.132638 -2.618364 2.293259
  H -1.111579 0.573402 -1.016656
  H 0.221554 -0.073463 0.037278
  H -1.059745 0.989001 0.700190
  H -2.758412 -0.773787 0.390264
  H -0.513070 -2.488914 -0.799861
  H -1.818579 -1.737494 -1.726071
  H -2.182087 -2.982455 -0.540504
  H -3.099331 -2.685919 1.802160
  H -2.271739 -2.366170 3.346166
  H -1.639816 -3.590422 2.260872
  O 2.298194 0.042709 0.251888
  H 2.741185 -0.817117 0.213543
  H 2.509398 0.497398 1.096333
  H 1.158001 -0.048156 0.121570
 20
 29.372070
  C -0.926960 0.203105 -0.030023
  C -1.722184 -1.035046 0.319205
  C -1.562511 -2.129864 -0.746134
  C -1.256350 -1.602272 1.652343
  O -0.179561 -1.289615 2.116540
  C -2.141623 -2.617388 2.294379
  H -1.145458 0.564899 -1.023880
  H 0.264468 -0.082308 0.044308
  H -1.100368 0.991258 0.691695
  H -2.782466 -0.775767 0.394076
  H -0.533770 -2.480616 -0.794860
  H -1.845813 -1.738587 -1.720138
  H -2.200083 -2.981781 -0.529674
  H -3.108985 -2.681702 1.815660
  H -2.268781 -2.374663 3.349994
  H -1.648142 -3.587798 2.248691
  O 2.365648 0.060567 0.270196
  H 2.817213 -0.809302 0.241992
  H 2.565181 0.514921 1.101594
  H 1.115833 -0.045683 0.124253
 20
 42.800608
  C -0.974485 0.207214 -0.034691
  C -1.751643 -1.036565 0.321997
  C -1.591770 -2.133038 -0.743594
  C -1.275903 -1.605250 1.655636
  O -0.194090 -1.299121 2.109513
  C -2.159489 -2.621945 2.301270
  H -1.186339 0.561029 -1.033965
  H 0.310485 -0.087334 0.047733
  H -1.143538 0.998990 0.684694
  H -2.811067 -0.781775 0.402418
  H -0.562332 -2.476764 -0.797115
  H -1.882455 -1.745869 -1.716556
  H -2.223118 -2.988786 -0.521898
  H -3.136484 -2.682098 1.829091
  H -2.275249 -2.384741 3.357812
  H -1.669251 -3.592678 2.247681
  O 2.466744 0.081637 0.281514
  H 2.913538 -0.772808 0.263556
  H 2.661639 0.545015 1.118308
  H 1.087699 -0.043887 0.121207
 20
 56.622130
  C -1.058705 0.209835 -0.030975
  C -1.786471 -1.043365 0.321500
  C -1.622991 -2.137597 -0.746705
  C -1.295012 -1.620761 1.653092
  O -0.218892 -1.302836 2.107720
  C -2.185334 -2.623511 2.305056
  H -1.251484 0.554715 -1.034685
  H 0.327030 -0.089558 0.053320
  H -1.211577 1.004830 0.685439
  H -2.849439 -0.796525 0.414656
  H -0.587645 -2.464708 -0.807990
  H -1.926656 -1.755280 -1.717418
  H -2.238622 -3.002258 -0.519186
  H -3.164044 -2.680081 1.839131
  H -2.290133 -2.378586 3.362251
  H -1.703582 -3.598826 2.259795
  O 2.624019 0.111542 0.294189
  H 3.070596 -0.734617 0.286615
  H 2.815526 0.573209 1.125669
  H 1.050296 -0.043602 0.120679
 20
 66.619974
  C -1.184360 0.219490 -0.035793
  C -1.842328 -1.049071 0.326115
  C -1.668862 -2.143766 -0.737423
  C -1.345343 -1.620774 1.667095
  O -0.277079 -1.288688 2.119846
  C -2.224250 -2.638603 2.303758
  H -1.341209 0.550800 -1.051769
  H 0.299900 -0.083879 0.049522
  H -1.304105 1.021857 0.678532
  H -2.911507 -0.816413 0.424609
  H -0.626286 -2.440372 -0.807966
  H -1.994121 -1.779456 -1.706150
  H -2.255908 -3.022061 -0.492979
  H -3.201284 -2.703097 1.837011
  H -2.327779 -2.404806 3.363898
  H -1.735448 -3.613623 2.253154
  O 2.886969 0.152526 0.303323
  H 3.345335 -0.692416 0.319505
  H 3.088987 0.621373 1.125580
  H 1.001698 -0.044446 0.113944
 20
 75.443647
  C -1.303984 0.214838 -0.042500
  C -1.913390 -1.049999 0.339437
  C -1.736805 -2.150168 -0.718188
  C -1.405842 -1.617878 1.682014
  O -0.338176 -1.272419 2.127127
  C -2.268030 -2.661657 2.306645
  H -1.423196 0.531845 -1.069356
  H 0.327476 -0.106411 0.048651
  H -1.379096 1.022780 0.671606
  H -2.995986 -0.853489 0.431748
  H -0.692355 -2.436873 -0.795726
  H -2.079694 -1.801587 -1.687702
  H -2.312445 -3.032291 -0.460291
  H -3.246089 -2.726495 1.835234
  H -2.391470 -2.444830 3.366607
  H -1.775643 -3.627758 2.214751
  O 3.166652 0.219801 0.314852
  H 3.653296 -0.608390 0.331191
  H 3.371383 0.707072 1.121450
  H 1.010347 -0.053383 0.111224
 20
 80.284082
  C -1.446617 0.206620 -0.057098
  C -2.010342 -1.058077 0.335843
  C -1.855836 -2.177038 -0.717278
  C -1.471339 -1.635305 1.683215
  O -0.395776 -1.299979 2.101415
  C -2.321664 -2.679647 2.310326
  H -1.520599 0.509205 -1.090996
  H 0.376420 -0.140962 0.046903
  H -1.475800 1.015078 0.660057
  H -3.091143 -0.901158 0.469473
  H -0.813051 -2.478508 -0.798725
  H -2.208007 -1.844582 -1.687049
  H -2.433430 -3.052509 -0.441694
  H -3.302404 -2.735828 1.854658
  H -2.439382 -2.465973 3.370481
  H -1.837485 -3.648065 2.185953
  O 3.529494 0.339131 0.346190
  H 4.070463 -0.454313 0.347760
  H 3.740431 0.820793 1.156889
  H 1.065419 -0.067689 0.110533
 20
 82.556874
  C -1.590554 0.189073 -0.073642
  C -2.108513 -1.083119 0.319187
  C -1.965321 -2.193670 -0.726981
  C -1.521223 -1.664733 1.664144
  O -0.436614 -1.326004 2.042261
  C -2.370356 -2.693874 2.325346
  H -1.635098 0.497745 -1.108934
  H 0.424563 -0.184257 0.035278
  H -1.585194 0.979934 0.657867
  H -3.191529 -0.942003 0.514179
  H -0.923178 -2.485100 -0.819852
  H -2.326577 -1.862022 -1.696947
  H -2.531966 -3.072614 -0.444398
  H -3.360685 -2.762739 1.894195
  H -2.454325 -2.457279 3.386519
  H -1.884932 -3.661066 2.229009
  O 3.874126 0.448328 0.383146
  H 4.453349 -0.320487 0.374182
  H 4.079566 0.913126 1.204244
  H 1.116813 -0.094168 0.100352
 20
 84.404460
  C -1.731840 0.170287 -0.072328
  C -2.204973 -1.106425 0.325131
  C -2.080022 -2.210578 -0.730525
  C -1.580214 -1.694776 1.664285
  O -0.495707 -1.342067 2.030442
  C -2.422245 -2.714433 2.338838
  H -1.731908 0.452106 -1.116522
  H 0.504214 -0.239491 0.044675
  H -1.692457 0.967675 0.653224
  H -3.275406 -0.966454 0.563169
  H -1.036944 -2.496700 -0.846983
  H -2.460970 -1.877275 -1.693092
  H -2.635570 -3.095184 -0.441352
  H -3.417591 -2.786219 1.919785
  H -2.490982 -2.467909 3.395462
  H -1.936119 -3.684141 2.249977
  O 4.212856 0.549664 0.408993
  H 4.824866 -0.189866 0.394151
  H 4.417451 1.044797 1.213694
  H 1.198058 -0.128392 0.103754
