 32
 0.000000
  C 0.972361 0.138633 0.396512
  C 2.450335 0.139045 0.396879
  C 3.234786 0.609172 1.566735
  C 2.456271 1.098588 2.785284
  C 3.404352 1.544144 3.893980
  C 3.068214 -0.324133 -0.756518
  C 4.446946 -0.412833 -0.977760
  C 5.124050 -0.863790 -2.101707
  C 4.625289 -1.386921 -3.405720
  C 3.133418 -1.503376 -3.697010
  C 2.904009 -2.065128 -5.097312
  O 6.450733 -0.860921 -2.094467
  H 0.535204 0.508436 1.317130
  H 0.602133 -0.874103 0.229961
  H 0.601748 0.754488 -0.424349
  H 3.890820 1.421554 1.233645
  H 3.891122 -0.207638 1.888172
  H 1.818200 0.301265 3.171760
  H 1.817955 1.941509 2.512830
  H 4.040455 0.722810 4.217988
  H 2.837736 1.890163 4.755577
  H 4.040173 2.361553 3.559619
  H 2.411711 -0.642293 -1.548707
  H 5.066573 -0.081244 -0.151806
  H 5.079716 -2.376394 -3.532695
  H 5.080183 -0.759926 -4.181368
  H 2.659380 -0.522347 -3.642241
  H 2.658893 -2.174250 -2.979458
  H 3.340927 -1.418338 -5.855144
  H 1.837832 -2.144835 -5.296788
  H 3.340444 -3.056569 -5.197863
  H 6.808750 -0.523069 -1.252038
 32
 0.175537
  C 0.996195 -0.349436 0.620194
  C 2.448724 -0.118193 0.493826
  C 3.218756 0.625587 1.519741
  C 2.453430 1.160657 2.731871
  C 3.399884 1.895214 3.678453
  C 3.067569 -0.620443 -0.645165
  C 4.438169 -0.613678 -0.890009
  C 5.109488 -1.144525 -1.990590
  C 4.603726 -1.495852 -3.347462
  C 3.131800 -1.338773 -3.709303
  C 2.937080 -1.589187 -5.201530
  O 6.409351 -1.333526 -1.917800
  H 0.570387 0.076158 1.521342
  H 0.790596 -1.423093 0.601989
  H 0.478733 0.061758 -0.246080
  H 3.718084 1.468742 1.029019
  H 4.023503 -0.023085 1.885692
  H 1.984390 0.340151 3.274728
  H 1.674584 1.852574 2.411786
  H 4.180737 1.232189 4.040123
  H 2.855663 2.273379 4.540854
  H 3.869194 2.741033 3.180863
  H 2.429029 -1.117299 -1.355924
  H 5.078498 -0.218423 -0.107123
  H 4.923226 -2.521086 -3.557828
  H 5.193015 -0.880494 -4.030801
  H 2.789307 -0.326907 -3.475206
  H 2.525355 -2.060117 -3.166306
  H 3.508410 -0.878645 -5.794302
  H 1.888304 -1.484421 -5.468873
  H 3.255939 -2.594739 -5.472179
  H 6.808939 -1.093179 -1.074160
 32
 2.638499
  C 1.122901 -0.778221 0.830326
  C 2.497596 -0.323950 0.558276
  C 3.186323 0.665530 1.418465
  C 2.421948 1.205000 2.625860
  C 3.279411 2.206698 3.395609
  C 3.128369 -0.851323 -0.560157
  C 4.472985 -0.711062 -0.888482
  C 5.105096 -1.319425 -1.975847
  C 4.564121 -1.522403 -3.343660
  C 3.169558 -1.010149 -3.684241
  C 2.931614 -1.113442 -5.187463
  O 6.343515 -1.740633 -1.866287
  H 0.684073 -0.312107 1.703943
  H 1.112247 -1.861602 0.961909
  H 0.488986 -0.580659 -0.034224
  H 3.485093 1.513762 0.792124
  H 4.120642 0.220508 1.778904
  H 2.150935 0.387885 3.296375
  H 1.507410 1.704453 2.302283
  H 4.194553 1.741201 3.754821
  H 2.736201 2.587453 4.257858
  H 3.547619 3.053435 2.766849
  H 2.544823 -1.531792 -1.161394
  H 5.125969 -0.218038 -0.175550
  H 4.645962 -2.584312 -3.596985
  H 5.286978 -1.024067 -3.999539
  H 3.067789 0.032006 -3.376937
  H 2.403430 -1.595075 -3.181621
  H 3.655631 -0.519652 -5.740013
  H 1.938065 -0.751736 -5.439064
  H 3.010094 -2.145532 -5.522122
  H 6.762083 -1.596825 -0.995742
 32
 7.607226
  C 1.278227 -1.088326 0.992263
  C 2.563327 -0.463925 0.605962
  C 3.159919 0.669059 1.363577
  C 2.406350 1.168056 2.595884
  C 3.156848 2.325628 3.248295
  C 3.216369 -0.985821 -0.504760
  C 4.503664 -0.700071 -0.935800
  C 5.102324 -1.397576 -2.008079
  C 4.546725 -1.491052 -3.379332
  C 3.229117 -0.772671 -3.664868
  C 2.883986 -0.879252 -5.146505
  O 6.254259 -2.007964 -1.851259
  H 0.823397 -0.621353 1.857694
  H 1.429727 -2.148492 1.203998
  H 0.576916 -1.045023 0.158837
  H 3.286806 1.511432 0.673731
  H 4.171163 0.384467 1.674769
  H 2.301625 0.363060 3.324775
  H 1.409892 1.512552 2.315944
  H 4.152423 2.017954 3.559523
  H 2.623282 2.675792 4.128475
  H 3.254826 3.161858 2.559870
  H 2.702698 -1.778078 -1.029955
  H 5.134595 -0.036501 -0.360610
  H 4.480603 -2.543512 -3.674651
  H 5.325027 -1.071328 -4.026760
  H 3.315314 0.279723 -3.390392
  H 2.418571 -1.204762 -3.088991
  H 3.658504 -0.426685 -5.761519
  H 1.947888 -0.368394 -5.355213
  H 2.774955 -1.919588 -5.445434
  H 6.668262 -1.911484 -0.971196
 32
 14.230018
  C 1.443286 -1.313296 1.162308
  C 2.641075 -0.593463 0.671807
  C 3.152991 0.646004 1.318048
  C 2.404792 1.155490 2.548330
  C 3.059465 2.425955 3.084302
  C 3.302391 -1.129482 -0.432304
  C 4.491139 -0.713037 -0.982982
  C 5.075085 -1.463025 -2.049548
  C 4.521139 -1.463294 -3.417004
  C 3.266898 -0.620872 -3.635059
  C 2.851917 -0.654139 -5.101902
  O 6.114349 -2.210276 -1.861707
  H 0.978798 -0.826490 2.010572
  H 1.709052 -2.331975 1.448370
  H 0.707550 -1.402354 0.362196
  H 3.162386 1.444632 0.567972
  H 4.199742 0.484014 1.598898
  H 2.412413 0.397885 3.334392
  H 1.367114 1.378229 2.293589
  H 4.093879 2.240932 3.366914
  H 2.529464 2.784626 3.963956
  H 3.043277 3.216021 2.335841
  H 2.856304 -2.013458 -0.870354
  H 5.065646 0.092181 -0.547479
  H 4.351787 -2.495482 -3.744299
  H 5.326261 -1.101122 -4.067401
  H 3.458519 0.410958 -3.337730
  H 2.446473 -0.998081 -3.025036
  H 3.637492 -0.254002 -5.738963
  H 1.957463 -0.056547 -5.256164
  H 2.636950 -1.671007 -5.421525
  H 6.513556 -2.176401 -0.968018
 32
 21.266923
  C 1.481051 -1.359896 1.393899
  C 2.644252 -0.661513 0.791485
  C 3.166906 0.634065 1.311414
  C 2.467750 1.225524 2.533183
  C 3.119798 2.544004 2.939076
  C 3.256447 -1.265781 -0.302164
  C 4.338846 -0.811933 -1.018718
  C 4.895442 -1.649212 -2.063100
  C 4.452566 -1.532825 -3.456718
  C 3.367288 -0.490577 -3.718089
  C 3.016841 -0.441800 -5.201251
  O 5.740905 -2.571084 -1.797697
  H 1.051125 -0.812647 2.224408
  H 1.776699 -2.348468 1.748346
  H 0.705605 -1.518221 0.643371
  H 3.123235 1.372127 0.502268
  H 4.228068 0.510639 1.554757
  H 2.527036 0.530726 3.373253
  H 1.414693 1.409831 2.312088
  H 4.169836 2.398311 3.184301
  H 2.624245 2.960070 3.813251
  H 3.052290 3.273047 2.134225
  H 2.813548 -2.196875 -0.634066
  H 4.869830 0.087634 -0.750227
  H 4.133157 -2.522401 -3.804359
  H 5.337879 -1.314363 -4.067999
  H 3.711972 0.492822 -3.397112
  H 2.472560 -0.734124 -3.144953
  H 3.884117 -0.169967 -5.798355
  H 2.240159 0.296334 -5.382390
  H 2.650962 -1.405799 -5.546768
  H 6.084233 -2.594062 -0.877533
 32
 13.019809
  C 1.491706 -1.414614 1.678573
  C 2.592825 -0.765320 0.938064
  C 3.126259 0.569224 1.309356
  C 2.507184 1.256936 2.520858
  C 3.169653 2.608487 2.763008
  C 3.127426 -1.456374 -0.146300
  C 4.078954 -0.988610 -1.032677
  C 4.588040 -1.848434 -2.056026
  C 4.324982 -1.610267 -3.487052
  C 3.456642 -0.388640 -3.792871
  C 3.244362 -0.242831 -5.294567
  O 5.237277 -2.935305 -1.759235
  H 1.112987 -0.805723 2.488594
  H 1.828090 -2.366338 2.086982
  H 0.672174 -1.646321 1.001227
  H 3.015711 1.233088 0.445660
  H 4.201522 0.477094 1.484800
  H 2.634977 0.640079 3.409329
  H 1.441218 1.414355 2.361059
  H 4.235841 2.491474 2.944780
  H 2.731988 3.095830 3.630960
  H 3.036789 3.264870 1.905813
  H 2.701896 -2.427283 -0.359434
  H 4.505408 -0.008775 -0.929648
  H 3.869277 -2.521176 -3.887736
  H 5.281268 -1.529503 -4.019226
  H 3.934804 0.512375 -3.411784
  H 2.489844 -0.489573 -3.301152
  H 4.192967 -0.110358 -5.810018
  H 2.622554 0.621635 -5.507457
  H 2.750904 -1.121959 -5.704800
  H 5.497645 -3.015810 -0.817805
 32
 4.257820
  C 1.621346 -1.407127 1.960932
  C 2.613222 -0.786608 1.056490
  C 3.143527 0.584160 1.276567
  C 2.641440 1.346429 2.500278
  C 3.285245 2.727161 2.568094
  C 3.048602 -1.542144 -0.027174
  C 3.846875 -1.089798 -1.068684
  C 4.277560 -1.966732 -2.080685
  C 4.241612 -1.627820 -3.517759
  C 3.655137 -0.259594 -3.859717
  C 3.645376 -0.042948 -5.369235
  O 4.670408 -3.182375 -1.800654
  H 1.319349 -0.755571 2.771663
  H 2.024034 -2.327905 2.383046
  H 0.736901 -1.700072 1.393527
  H 2.923317 1.183732 0.385332
  H 4.237196 0.527128 1.332701
  H 2.887643 0.800493 3.412607
  H 1.558164 1.468445 2.451842
  H 4.366624 2.648585 2.636677
  H 2.931773 3.268155 3.442456
  H 3.038479 3.314527 1.687467
  H 2.647624 -2.543744 -0.120892
  H 4.151410 -0.059695 -1.120122
  H 3.672015 -2.420229 -4.013495
  H 5.254933 -1.711935 -3.930001
  H 4.248388 0.529686 -3.394256
  H 2.636678 -0.188307 -3.480739
  H 4.654691 -0.082659 -5.773598
  H 3.223678 0.928907 -5.610837
  H 3.047727 -0.802547 -5.866746
  H 4.845707 -3.333439 -0.858618
 32
 2.771078
  C 1.658279 -1.360001 2.052205
  C 2.613211 -0.737387 1.113020
  C 3.195252 0.605517 1.345559
  C 2.740403 1.371581 2.584482
  C 3.375836 2.758726 2.618000
  C 2.996345 -1.474988 -0.003663
  C 3.647418 -1.019606 -1.151333
  C 4.077054 -1.941896 -2.105857
  C 4.227251 -1.643596 -3.548264
  C 3.672739 -0.299606 -4.015371
  C 3.897197 -0.117848 -5.513961
  O 4.261195 -3.209182 -1.774981
  H 1.486779 -0.765744 2.941420
  H 2.003399 -2.352456 2.346406
  H 0.703124 -1.517468 1.544641
  H 2.992743 1.223822 0.462995
  H 4.285263 0.505005 1.377979
  H 3.030138 0.833936 3.488163
  H 1.655659 1.483053 2.582210
  H 4.461660 2.689097 2.649290
  H 3.049090 3.304125 3.499642
  H 3.092947 3.338230 1.740740
  H 2.580424 -2.475432 -0.070697
  H 3.880571 0.023117 -1.283410
  H 3.753245 -2.464437 -4.097400
  H 5.291251 -1.710380 -3.804794
  H 4.164674 0.517028 -3.485172
  H 2.602703 -0.248800 -3.804347
  H 4.956427 -0.166690 -5.756618
  H 3.520602 0.848516 -5.840244
  H 3.380803 -0.890840 -6.080778
  H 4.478810 -3.327619 -0.827556
