 28
 0.000000
  C 0.987631 0.145908 0.370508
  C 2.462842 0.160849 0.398666
  C 3.232004 0.618910 1.574762
  C 2.444075 1.091346 2.792884
  C 3.386849 1.526810 3.910444
  C 3.091734 -0.288731 -0.755621
  C 4.468103 -0.389657 -0.991978
  C 5.115161 -0.855901 -2.110045
  C 4.623618 -1.389447 -3.392760
  C 3.136042 -1.509262 -3.688580
  H 2.990626 -1.922221 -4.679144
  H 6.195526 -0.851024 -2.092320
  H 0.533959 0.500061 1.289172
  H 0.624460 -0.867442 0.178258
  H 0.626556 0.766691 -0.450596
  H 3.891070 1.434227 1.254137
  H 3.892949 -0.197517 1.888426
  H 1.807299 0.287353 3.166567
  H 1.805280 1.935349 2.526084
  H 4.023752 0.703799 4.227090
  H 2.817374 1.861683 4.773961
  H 4.021719 2.349024 3.587694
  H 2.427036 -0.600967 -1.545618
  H 5.108155 -0.055221 -0.183636
  H 5.084337 -2.379551 -3.506568
  H 5.088085 -0.775155 -4.175357
  H 2.657383 -0.532715 -3.657942
  H 2.653473 -2.172309 -2.973553
 28
 -0.504366
  C 0.959334 0.140287 0.407909
  C 2.429649 0.180475 0.382446
  C 3.215649 0.619902 1.554205
  C 2.445307 1.091428 2.784346
  C 3.409195 1.525719 3.885767
  C 3.046706 -0.265503 -0.784219
  C 4.428921 -0.403783 -0.969839
  C 5.088285 -0.870445 -2.080487
  C 4.629636 -1.374039 -3.379368
  C 3.151677 -1.458335 -3.718857
  H 3.042003 -1.869516 -4.718722
  H 6.168294 -0.882889 -2.000270
  H 0.521808 0.701633 1.223526
  H 0.675916 -0.909409 0.525490
  H 0.535659 0.456690 -0.543284
  H 3.891300 1.423147 1.235749
  H 3.873927 -0.204219 1.855891
  H 1.815013 0.286730 3.166423
  H 1.805337 1.938321 2.528788
  H 4.047708 0.700953 4.193035
  H 2.857798 1.866062 4.759693
  H 4.042754 2.343874 3.549500
  H 2.392806 -0.533938 -1.597746
  H 5.064441 -0.114184 -0.142945
  H 5.086195 -2.366269 -3.501762
  H 5.141689 -0.767906 -4.139971
  H 2.688920 -0.475040 -3.716322
  H 2.625541 -2.117164 -3.032850
 28
 2.492662
  C 0.963115 -0.006783 0.482590
  C 2.424637 0.056386 0.426368
  C 3.219238 0.585380 1.563631
  C 2.446308 1.112307 2.771083
  C 3.403549 1.715652 3.796818
  C 3.038961 -0.388726 -0.746853
  C 4.408389 -0.640396 -0.899410
  C 5.072243 -1.059816 -2.031420
  C 4.630359 -1.363527 -3.392648
  C 3.183696 -1.152443 -3.816315
  H 3.085882 -1.396548 -4.873789
  H 6.135538 -1.210591 -1.905405
  H 0.485738 0.615473 1.225827
  H 0.905828 -1.049201 0.859286
  H 0.474003 -0.019467 -0.486713
  H 3.855600 1.393319 1.177488
  H 3.906471 -0.196099 1.907576
  H 1.892534 0.299471 3.246390
  H 1.737657 1.882837 2.463012
  H 4.136022 0.982813 4.126184
  H 2.855178 2.059782 4.671862
  H 3.935674 2.568181 3.378958
  H 2.391630 -0.552424 -1.594579
  H 5.033679 -0.493034 -0.027803
  H 4.897651 -2.416866 -3.564903
  H 5.296951 -0.812039 -4.068832
  H 2.881399 -0.114927 -3.688723
  H 2.510208 -1.806841 -3.266926
 28
 13.115760
  C 0.946389 0.195493 0.430264
  C 2.393583 0.116540 0.399319
  C 3.214667 0.582993 1.549537
  C 2.452512 1.067840 2.782408
  C 3.426192 1.588598 3.839801
  C 3.003161 -0.286286 -0.791996
  C 4.381235 -0.499282 -0.929796
  C 5.061556 -0.960369 -2.024335
  C 4.638162 -1.376649 -3.376668
  C 3.170265 -1.342782 -3.784503
  H 3.079915 -1.708877 -4.804712
  H 6.129598 -1.076984 -1.883626
  H 0.452323 0.727416 1.223241
  H 1.093009 -0.899710 0.758953
  H 0.429325 0.128153 -0.519331
  H 3.842913 1.402875 1.185363
  H 3.895378 -0.218547 1.860469
  H 1.868428 0.252273 3.215411
  H 1.773049 1.879108 2.510708
  H 4.095033 0.799532 4.177357
  H 2.882725 1.962367 4.706784
  H 4.030265 2.403980 3.445279
  H 2.375165 -0.432898 -1.646113
  H 4.996743 -0.281131 -0.069825
  H 5.050319 -2.383679 -3.550661
  H 5.203398 -0.736581 -4.066523
  H 2.777791 -0.326802 -3.763600
  H 2.568578 -1.990348 -3.150790
 28
 33.960858
  C 0.928877 0.260457 0.432728
  C 2.345381 0.090580 0.418483
  C 3.196291 0.561350 1.564180
  C 2.440227 1.111446 2.773455
  C 3.423334 1.597194 3.835011
  C 2.985755 -0.315668 -0.792981
  C 4.353381 -0.535802 -0.923914
  C 5.043160 -0.974753 -2.027689
  C 4.627323 -1.361139 -3.391576
  C 3.162001 -1.319447 -3.797026
  H 3.075266 -1.642887 -4.831122
  H 6.113684 -1.057320 -1.898916
  H 0.414135 0.689784 1.269219
  H 1.604783 -0.897669 0.703723
  H 0.358974 0.055678 -0.458538
  H 3.850879 1.346616 1.181565
  H 3.837316 -0.256529 1.902353
  H 1.809110 0.337579 3.213464
  H 1.809704 1.951720 2.475895
  H 4.060389 0.783863 4.177935
  H 2.889208 1.991918 4.696388
  H 4.060371 2.388092 3.442704
  H 2.351697 -0.476424 -1.644659
  H 4.966122 -0.335041 -0.056921
  H 5.015110 -2.372380 -3.559332
  H 5.206354 -0.732033 -4.080393
  H 2.764200 -0.308796 -3.735249
  H 2.566578 -1.996776 -3.190795
 28
 40.499760
  C 0.924005 0.306620 0.425525
  C 2.324023 0.037660 0.449229
  C 3.191382 0.538032 1.589527
  C 2.434909 1.126130 2.781396
  C 3.416173 1.613728 3.843798
  C 2.983913 -0.359901 -0.790644
  C 4.346949 -0.559241 -0.928089
  C 5.035123 -0.968221 -2.047588
  C 4.611461 -1.335296 -3.412701
  C 3.141579 -1.312979 -3.803198
  H 3.049367 -1.623732 -4.842022
  H 6.109618 -1.039661 -1.926425
  H 0.415638 0.747655 1.260788
  H 1.916345 -1.020824 0.658086
  H 0.345113 0.068008 -0.449691
  H 3.853857 1.308856 1.189653
  H 3.821197 -0.276753 1.950370
  H 1.783690 0.372942 3.229512
  H 1.824029 1.970801 2.460808
  H 4.034717 0.795297 4.207746
  H 2.880729 2.034535 4.693044
  H 4.070935 2.385078 3.442964
  H 2.338709 -0.516541 -1.636003
  H 4.961887 -0.366387 -0.059282
  H 5.016904 -2.337710 -3.602582
  H 5.172944 -0.685038 -4.095973
  H 2.728486 -0.312551 -3.724303
  H 2.563247 -2.008176 -3.200981
 28
 42.536286
  C 0.919511 0.287340 0.451637
  C 2.306750 0.047880 0.462943
  C 3.183419 0.538677 1.606460
  C 2.433120 1.141143 2.794231
  C 3.418555 1.635683 3.848709
  C 2.964680 -0.384926 -0.788315
  C 4.338696 -0.577494 -0.928187
  C 5.020770 -0.968491 -2.049682
  C 4.593261 -1.322564 -3.416356
  C 3.120922 -1.304098 -3.801103
  H 3.026939 -1.603540 -4.842922
  H 6.096232 -1.034062 -1.934296
  H 0.413520 0.755082 1.272945
  H 2.253350 -1.122027 0.414317
  H 0.324305 0.013181 -0.402883
  H 3.858419 1.300590 1.210743
  H 3.799388 -0.281897 1.977154
  H 1.780889 0.393231 3.248442
  H 1.822754 1.983771 2.467511
  H 4.036900 0.819617 4.217307
  H 2.887051 2.063544 4.695109
  H 4.072517 2.402721 3.439315
  H 2.315726 -0.514963 -1.637527
  H 4.950407 -0.388813 -0.056993
  H 5.004122 -2.319831 -3.618292
  H 5.148403 -0.661689 -4.094201
  H 2.701704 -0.304855 -3.710641
  H 2.547848 -2.009811 -3.206065
 28
 39.356499
  C 0.927933 0.269824 0.478953
  C 2.280569 0.045156 0.489057
  C 3.162353 0.528685 1.614085
  C 2.426270 1.161205 2.796405
  C 3.422946 1.643626 3.844342
  C 2.930499 -0.467316 -0.747605
  C 4.325914 -0.639034 -0.899090
  C 5.008771 -0.985463 -2.028502
  C 4.581684 -1.301708 -3.405407
  C 3.107757 -1.290599 -3.783336
  H 3.013186 -1.557441 -4.834309
  H 6.085625 -1.037260 -1.920002
  H 0.421304 0.744695 1.302846
  H 2.427310 -1.207839 0.203174
  H 0.318160 -0.022418 -0.360775
  H 3.853104 1.269178 1.206126
  H 3.761556 -0.298343 1.996266
  H 1.756755 0.432429 3.257107
  H 1.834302 2.013966 2.459716
  H 4.021690 0.816932 4.222710
  H 2.901538 2.094003 4.685638
  H 4.095261 2.390690 3.425684
  H 2.282424 -0.577732 -1.603510
  H 4.933604 -0.462803 -0.021292
  H 5.005153 -2.286359 -3.641371
  H 5.125196 -0.611502 -4.063649
  H 2.675336 -0.300635 -3.659105
  H 2.546337 -2.023322 -3.209542
 28
 28.410332
  C 0.918416 0.253591 0.479167
  C 2.255245 0.047269 0.510174
  C 3.150945 0.523226 1.609172
  C 2.447560 1.217992 2.775353
  C 3.468704 1.691707 3.804259
  C 2.877712 -0.588436 -0.701101
  C 4.302223 -0.714366 -0.863974
  C 4.998679 -0.980337 -2.002839
  C 4.586337 -1.227392 -3.395589
  C 3.116998 -1.231462 -3.784769
  H 3.035795 -1.442430 -4.848881
  H 6.075831 -1.014299 -1.890076
  H 0.399562 0.746183 1.279633
  H 2.520595 -1.437625 -0.005390
  H 0.313004 -0.065318 -0.351381
  H 3.874039 1.219537 1.174904
  H 3.718062 -0.317974 2.015025
  H 1.752600 0.529814 3.259122
  H 1.886872 2.081240 2.414688
  H 4.034643 0.853925 4.205842
  H 2.970131 2.188800 4.632734
  H 4.167892 2.396980 3.360452
  H 2.240895 -0.626452 -1.573675
  H 4.896858 -0.571884 0.027634
  H 5.036330 -2.186478 -3.684492
  H 5.120073 -0.491333 -4.011254
  H 2.659667 -0.260815 -3.611138
  H 2.568377 -2.005841 -3.255671
 28
 18.752574
  C 0.909712 0.232346 0.491806
  C 2.240822 0.032102 0.515856
  C 3.146399 0.504352 1.597149
  C 2.475783 1.261746 2.742078
  C 3.515022 1.723671 3.758199
  C 2.822029 -0.718560 -0.648522
  C 4.268896 -0.796136 -0.810277
  C 4.980719 -0.974988 -1.954305
  C 4.583770 -1.149895 -3.361123
  C 3.120665 -1.189761 -3.764650
  H 3.054698 -1.348930 -4.838723
  H 6.057680 -0.991398 -1.833825
  H 0.386265 0.770780 1.260088
  H 2.500325 -1.696171 -0.222710
  H 0.303582 -0.128421 -0.321720
  H 3.905347 1.149429 1.142420
  H 3.675685 -0.352230 2.024745
  H 1.751718 0.618610 3.244473
  H 1.949899 2.135145 2.353586
  H 4.046560 0.875747 4.184587
  H 3.036666 2.263883 4.571500
  H 4.241861 2.387555 3.295315
  H 2.242326 -0.603735 -1.558170
  H 4.849459 -0.700548 0.096293
  H 5.072788 -2.073727 -3.701578
  H 5.098903 -0.366253 -3.933240
  H 2.623998 -0.246471 -3.548018
  H 2.595183 -2.006233 -3.277179
 28
 16.048457
  C 0.899337 0.205555 0.525144
  C 2.238687 0.052473 0.505158
  C 3.143714 0.513557 1.590494
  C 2.484318 1.255213 2.750762
  C 3.532562 1.712579 3.760283
  C 2.814036 -0.651353 -0.680899
  C 4.270626 -0.750419 -0.808788
  C 4.988374 -0.965061 -1.941917
  C 4.588922 -1.167704 -3.344512
  C 3.125724 -1.240142 -3.738533
  H 3.055543 -1.452957 -4.802785
  H 6.064153 -0.992949 -1.817282
  H 0.383557 0.694907 1.330018
  H 2.417459 -1.677790 -0.575447
  H 0.281897 -0.151020 -0.281598
  H 3.905837 1.162125 1.144885
  H 3.673565 -0.354197 1.997302
  H 1.769481 0.603660 3.255830
  H 1.947686 2.129373 2.377852
  H 4.075979 0.863191 4.168558
  H 3.060391 2.237752 4.586798
  H 4.248205 2.388359 3.297673
  H 2.342372 -0.293996 -1.598735
  H 4.841758 -0.653878 0.102445
  H 5.089195 -2.091745 -3.668730
  H 5.093332 -0.393409 -3.938400
  H 2.618833 -0.291645 -3.569545
  H 2.606239 -2.029649 -3.203351
