 31
 0.000000
  C 0.992157 0.116513 0.384668
  C 2.467922 0.126615 0.414441
  C 3.235599 0.609716 1.581448
  C 2.444671 1.109018 2.786825
  C 3.382903 1.569051 3.898227
  C 3.095068 -0.346411 -0.731462
  C 4.471342 -0.439401 -0.978373
  C 5.115393 -0.877583 -2.108749
  C 4.611738 -1.380898 -3.402012
  C 3.120847 -1.496506 -3.691724
  C 2.891552 -2.043123 -5.099342
  H 6.195509 -0.873539 -2.105598
  H 0.537993 0.494800 1.293559
  H 0.631727 -0.900080 0.223135
  H 0.627012 0.718223 -0.452612
  H 3.894123 1.418588 1.244608
  H 3.893925 -0.200681 1.915059
  H 1.806223 0.313597 3.175870
  H 1.806576 1.946863 2.499626
  H 4.018583 0.753354 4.235547
  H 2.809420 1.922489 4.751618
  H 4.018861 2.384252 3.560203
  H 2.428282 -0.666917 -1.516099
  H 5.112048 -0.120686 -0.163851
  H 5.069362 -2.368398 -3.543152
  H 5.066031 -0.745919 -4.173343
  H 2.645566 -0.516762 -3.625145
  H 2.648934 -2.176751 -2.981244
  H 3.326849 -1.387078 -5.849739
  H 1.826027 -2.123302 -5.300244
  H 3.330263 -3.032012 -5.211561
 31
 -0.095286
  C 0.951911 0.255221 0.385911
  C 2.417233 0.139457 0.409506
  C 3.215394 0.587730 1.570094
  C 2.459257 1.083789 2.799511
  C 3.434502 1.451648 3.914021
  C 3.027805 -0.343943 -0.748415
  C 4.406243 -0.328195 -1.004174
  C 5.060503 -0.755192 -2.132121
  C 4.602226 -1.337000 -3.397684
  C 3.126791 -1.583423 -3.681410
  C 2.945526 -2.177412 -5.075335
  H 6.138628 -0.643454 -2.106030
  H 0.510440 0.472976 1.348732
  H 0.486280 -0.613350 -0.070867
  H 0.737391 1.096033 -0.291655
  H 3.892756 1.384148 1.238278
  H 3.871429 -0.237570 1.873463
  H 1.786710 0.308130 3.168242
  H 1.865931 1.964287 2.548501
  H 4.030396 0.592048 4.209757
  H 2.894410 1.801952 4.789547
  H 4.108437 2.243797 3.597062
  H 2.374429 -0.751186 -1.502356
  H 5.040854 0.079315 -0.229583
  H 5.150737 -2.282793 -3.517766
  H 5.017959 -0.706184 -4.196971
  H 2.573742 -0.644395 -3.632423
  H 2.716889 -2.283599 -2.953263
  H 3.327858 -1.504736 -5.838969
  H 1.891862 -2.352498 -5.279112
  H 3.467278 -3.127679 -5.165497
 31
 3.470646
  C 0.947114 0.311445 0.397254
  C 2.403368 0.238567 0.366841
  C 3.218434 0.607546 1.549471
  C 2.462484 1.036985 2.804596
  C 3.439119 1.373526 3.925187
  C 2.997752 -0.226567 -0.810297
  C 4.377615 -0.218101 -1.053779
  C 5.045739 -0.684454 -2.159132
  C 4.600690 -1.299248 -3.415143
  C 3.127057 -1.587080 -3.687667
  C 2.964706 -2.311471 -5.021533
  H 6.125778 -0.603453 -2.111150
  H 0.479303 0.372961 1.370686
  H 0.442862 -0.328704 -0.310904
  H 0.919259 1.331816 -0.071995
  H 3.902869 1.413055 1.271755
  H 3.852202 -0.250894 1.798719
  H 1.807500 0.230153 3.145109
  H 1.851873 1.914825 2.597222
  H 4.057265 0.513272 4.174096
  H 2.900970 1.670036 4.820164
  H 4.095791 2.197437 3.638502
  H 2.343190 -0.646375 -1.557440
  H 5.003666 0.230003 -0.292099
  H 5.164797 -2.233020 -3.514839
  H 4.999739 -0.672461 -4.226902
  H 2.564852 -0.652539 -3.733049
  H 2.715656 -2.222348 -2.897946
  H 3.356553 -1.713401 -5.840329
  H 1.916803 -2.506997 -5.221663
  H 3.490430 -3.265501 -5.014093
 31
 16.649759
  C 0.945683 0.132697 0.480411
  C 2.384432 0.100044 0.424943
  C 3.209950 0.534515 1.581490
  C 2.452628 1.055192 2.802161
  C 3.432633 1.563815 3.859873
  C 2.990609 -0.390338 -0.742382
  C 4.372515 -0.381045 -0.986460
  C 5.042618 -0.801608 -2.105466
  C 4.595997 -1.353009 -3.398946
  C 3.120580 -1.581969 -3.698608
  C 2.949097 -2.152265 -5.100242
  H 6.115589 -0.664246 -2.079609
  H 0.434338 0.269205 1.418100
  H 0.401786 -0.379153 -0.300270
  H 1.230511 1.178286 -0.001628
  H 3.913941 1.312325 1.256182
  H 3.816442 -0.322972 1.886169
  H 1.855625 0.257519 3.240879
  H 1.786713 1.877487 2.517984
  H 4.088066 0.761064 4.198691
  H 2.892256 1.948311 4.725750
  H 4.054280 2.371666 3.466507
  H 2.341869 -0.781865 -1.503022
  H 4.999407 0.048562 -0.219091
  H 5.135996 -2.299339 -3.542743
  H 5.014455 -0.693089 -4.169421
  H 2.573566 -0.641056 -3.637480
  H 2.707505 -2.290929 -2.992505
  H 3.405262 -1.508550 -5.842630
  H 1.898068 -2.251940 -5.343083
  H 3.405469 -3.136126 -5.177906
 31
 34.357175
  C 0.923644 0.092692 0.525404
  C 2.329422 0.200937 0.386715
  C 3.188894 0.678782 1.529304
  C 2.448915 1.096158 2.798286
  C 3.444271 1.447253 3.897773
  C 2.971928 -0.350588 -0.773138
  C 4.343190 -0.318180 -1.009860
  C 5.027078 -0.768976 -2.112995
  C 4.597162 -1.382790 -3.387071
  C 3.117049 -1.615276 -3.693172
  C 2.948326 -2.185357 -5.097683
  H 6.102613 -0.670908 -2.058291
  H 0.425028 0.360435 1.435631
  H 0.344151 -0.417680 -0.230977
  H 1.562099 1.141664 -0.108550
  H 3.806303 1.517603 1.197585
  H 3.870735 -0.134935 1.783959
  H 1.819255 0.281567 3.152422
  H 1.819455 1.969345 2.607673
  H 4.072813 0.592719 4.140626
  H 2.920909 1.750028 4.802457
  H 4.090219 2.269207 3.591727
  H 2.327559 -0.815420 -1.504404
  H 4.966471 0.104149 -0.231848
  H 5.133442 -2.335587 -3.474353
  H 5.024025 -0.762175 -4.187136
  H 2.573699 -0.670497 -3.638192
  H 2.695528 -2.326259 -2.980847
  H 3.345189 -1.502636 -5.845678
  H 1.897701 -2.352875 -5.317362
  H 3.469046 -3.135485 -5.195805
 31
 40.325930
  C 0.907111 0.115758 0.526727
  C 2.309717 0.344991 0.344844
  C 3.197945 0.656951 1.543435
  C 2.453226 1.019392 2.825719
  C 3.440423 1.394905 3.924075
  C 2.948788 -0.219719 -0.845968
  C 4.316563 -0.217354 -1.061496
  C 5.003056 -0.714615 -2.145776
  C 4.575648 -1.367811 -3.392883
  C 3.100249 -1.607582 -3.693978
  C 2.945464 -2.313353 -5.037796
  H 6.081916 -0.621162 -2.088372
  H 0.403825 0.312156 1.455930
  H 0.307128 -0.222663 -0.300842
  H 1.976864 1.284456 -0.210049
  H 3.873489 1.476024 1.296825
  H 3.812159 -0.225605 1.741827
  H 1.857739 0.172775 3.170954
  H 1.788187 1.865969 2.656338
  H 4.118571 0.571485 4.132327
  H 2.911553 1.631354 4.843875
  H 4.030351 2.264907 3.640948
  H 2.285421 -0.610399 -1.602295
  H 4.937267 0.207844 -0.285892
  H 5.101995 -2.329436 -3.434646
  H 5.018629 -0.788582 -4.216471
  H 2.572052 -0.654352 -3.743968
  H 2.658534 -2.237552 -2.921011
  H 3.387842 -1.721820 -5.841843
  H 1.893341 -2.457648 -5.271589
  H 3.424154 -3.290500 -5.023734
 31
 42.216468
  C 0.918888 0.103679 0.542123
  C 2.299616 0.302307 0.375869
  C 3.182760 0.700933 1.551851
  C 2.437712 1.055406 2.837441
  C 3.427406 1.413419 3.942308
  C 2.950796 -0.256328 -0.831047
  C 4.328262 -0.262397 -1.050149
  C 5.003282 -0.761804 -2.132601
  C 4.564993 -1.393295 -3.390045
  C 3.086355 -1.605166 -3.693575
  C 2.914817 -2.254384 -5.064055
  H 6.082946 -0.695670 -2.070853
  H 0.419993 0.312735 1.467755
  H 0.316656 -0.266936 -0.269262
  H 2.311747 1.120544 -0.464662
  H 3.801255 1.555648 1.276358
  H 3.853322 -0.132142 1.769583
  H 1.836578 0.208985 3.171430
  H 1.776903 1.907916 2.669310
  H 4.092226 0.578982 4.152467
  H 2.899477 1.662356 4.859881
  H 4.033291 2.271271 3.659744
  H 2.291455 -0.725439 -1.542323
  H 4.948586 0.162794 -0.273018
  H 5.079772 -2.360997 -3.449655
  H 5.011755 -0.805324 -4.203216
  H 2.563416 -0.648576 -3.699829
  H 2.641878 -2.263145 -2.945631
  H 3.337084 -1.628957 -5.846819
  H 1.860938 -2.404940 -5.285041
  H 3.407341 -3.222935 -5.100062
 31
 38.089344
  C 0.909205 0.161704 0.539560
  C 2.265624 0.313551 0.404060
  C 3.156682 0.689138 1.561831
  C 2.432704 1.038258 2.862748
  C 3.442405 1.365687 3.959613
  C 2.910609 -0.160197 -0.853177
  C 4.313571 -0.182658 -1.073918
  C 4.988834 -0.704857 -2.138102
  C 4.555153 -1.374229 -3.378651
  C 3.078359 -1.596808 -3.681376
  C 2.913300 -2.297000 -5.025830
  H 6.067080 -0.625071 -2.083276
  H 0.399708 0.387291 1.456280
  H 0.300086 -0.198876 -0.273197
  H 2.491652 1.016057 -0.717805
  H 3.778625 1.541701 1.288296
  H 3.826804 -0.152070 1.759661
  H 1.821956 0.197638 3.192760
  H 1.784301 1.902237 2.712592
  H 4.094722 0.516932 4.151489
  H 2.930181 1.612575 4.886160
  H 4.059981 2.216162 3.680160
  H 2.253556 -0.657358 -1.549175
  H 4.928387 0.268589 -0.306996
  H 5.070487 -2.340768 -3.408803
  H 5.003825 -0.809167 -4.207652
  H 2.555510 -0.639302 -3.727817
  H 2.629231 -2.225513 -2.912278
  H 3.340316 -1.701975 -5.829819
  H 1.861130 -2.454637 -5.246137
  H 3.405017 -3.267022 -5.022593
 31
 27.334816
  C 0.915847 0.178845 0.507332
  C 2.237204 0.391162 0.386080
  C 3.149994 0.700846 1.531352
  C 2.462850 0.909892 2.881199
  C 3.491191 1.254200 3.952528
  C 2.848388 0.100770 -0.964497
  C 4.286639 -0.005756 -1.138503
  C 4.974916 -0.669481 -2.111316
  C 4.551230 -1.426391 -3.302713
  C 3.078108 -1.597417 -3.650322
  C 2.924874 -2.383479 -4.949218
  H 6.054335 -0.648315 -2.011557
  H 0.410889 0.283983 1.451260
  H 0.290436 -0.064503 -0.334643
  H 2.554609 1.209867 -1.026863
  H 3.726316 1.603051 1.312213
  H 3.862240 -0.122320 1.624838
  H 1.936846 0.001688 3.178394
  H 1.739354 1.723012 2.812901
  H 4.220991 0.454217 4.061269
  H 3.004075 1.397455 4.913091
  H 4.020867 2.170916 3.703991
  H 2.197374 -0.428749 -1.647732
  H 4.891455 0.474040 -0.380401
  H 5.017204 -2.418845 -3.224465
  H 5.063571 -0.967364 -4.158898
  H 2.607488 -0.624721 -3.782387
  H 2.568421 -2.147305 -2.856642
  H 3.404414 -1.866852 -5.776690
  H 1.874555 -2.509335 -5.195650
  H 3.369192 -3.370716 -4.862134
 31
 19.611766
  C 0.902121 0.219181 0.510625
  C 2.241922 0.370891 0.398496
  C 3.153628 0.700227 1.529277
  C 2.479410 0.908660 2.885203
  C 3.518020 1.231076 3.954382
  C 2.827360 0.108729 -0.960590
  C 4.267009 -0.001718 -1.123368
  C 4.961346 -0.649331 -2.099120
  C 4.544217 -1.405598 -3.294090
  C 3.075856 -1.600130 -3.640714
  C 2.929633 -2.400781 -4.932899
  H 6.040455 -0.589341 -2.017636
  H 0.375036 0.366409 1.436192
  H 0.299169 -0.088939 -0.327095
  H 2.562626 1.143324 -1.278304
  H 3.716084 1.608656 1.292275
  H 3.883199 -0.110610 1.617938
  H 1.942075 0.004598 3.176805
  H 1.764782 1.731413 2.827152
  H 4.237751 0.421649 4.052517
  H 3.037755 1.372518 4.919473
  H 4.057845 2.143445 3.710470
  H 2.217494 -0.544794 -1.568659
  H 4.863021 0.479766 -0.361059
  H 5.033114 -2.387977 -3.232710
  H 5.046404 -0.929491 -4.148782
  H 2.589094 -0.633408 -3.776876
  H 2.573624 -2.150144 -2.842151
  H 3.410636 -1.891062 -5.764959
  H 1.878817 -2.531327 -5.182249
  H 3.376422 -3.388276 -4.834557
 31
 16.984536
  C 0.909118 0.188174 0.535757
  C 2.250593 0.262529 0.434346
  C 3.153021 0.669739 1.543344
  C 2.482532 0.952158 2.886260
  C 3.525051 1.304611 3.942521
  C 2.823883 -0.027263 -0.918334
  C 4.277293 -0.084850 -1.084060
  C 4.974963 -0.678788 -2.085408
  C 4.554275 -1.401533 -3.296853
  C 3.085455 -1.568293 -3.650047
  C 2.927034 -2.304659 -4.977197
  H 6.053853 -0.621205 -2.001955
  H 0.384663 0.404814 1.448173
  H 0.296032 -0.108744 -0.297886
  H 2.450578 0.870064 -1.447462
  H 3.702904 1.566762 1.241163
  H 3.897717 -0.121756 1.681022
  H 1.926547 0.073420 3.217288
  H 1.783650 1.784499 2.789690
  H 4.226932 0.485634 4.083740
  H 3.045619 1.504496 4.897600
  H 4.085098 2.191801 3.655232
  H 2.299350 -0.851806 -1.401873
  H 4.865960 0.411419 -0.326575
  H 5.035572 -2.388999 -3.265832
  H 5.062663 -0.907405 -4.137794
  H 2.602293 -0.593957 -3.730546
  H 2.578380 -2.152886 -2.878496
  H 3.394617 -1.751946 -5.788949
  H 1.874552 -2.428012 -5.219510
  H 3.379700 -3.292810 -4.934147
 31
 16.565435
  C 0.931066 0.075935 0.567565
  C 2.274149 0.110225 0.498362
  C 3.160080 0.643362 1.571557
  C 2.464219 1.071673 2.863787
  C 3.485764 1.506436 3.907971
  C 2.867034 -0.331135 -0.809924
  C 4.320531 -0.334077 -0.985572
  C 5.010413 -0.812103 -2.054427
  C 4.562908 -1.391641 -3.331385
  C 3.085500 -1.496476 -3.670134
  C 2.886138 -2.058835 -5.072482
  H 6.090217 -0.768865 -1.977405
  H 0.381431 0.504426 1.383480
  H 0.347188 -0.400119 -0.197930
  H 2.418338 0.385484 -1.523944
  H 3.720571 1.496349 1.175930
  H 3.897242 -0.127030 1.813753
  H 1.876607 0.241049 3.264851
  H 1.787017 1.905816 2.666613
  H 4.162101 0.692630 4.151267
  H 2.987209 1.813840 4.822904
  H 4.073803 2.344401 3.548199
  H 2.425650 -1.285178 -1.111992
  H 4.907043 0.088096 -0.184823
  H 5.024480 -2.386039 -3.412573
  H 5.069197 -0.822464 -4.124474
  H 2.615109 -0.517539 -3.616559
  H 2.582925 -2.159275 -2.961876
  H 3.343951 -1.416517 -5.821297
  H 1.827744 -2.137166 -5.302613
  H 3.324275 -3.050057 -5.163616
 31
 15.202894
  C 0.915976 0.047197 0.595209
  C 2.258319 0.118505 0.484063
  C 3.148382 0.637108 1.557045
  C 2.465444 1.075942 2.850358
  C 3.498786 1.530804 3.875267
  C 2.852494 -0.329319 -0.809556
  C 4.313477 -0.352198 -0.963155
  C 5.005916 -0.826310 -2.030568
  C 4.562866 -1.393762 -3.314368
  C 3.089012 -1.481160 -3.667545
  C 2.896043 -2.028310 -5.077786
  H 6.085308 -0.789860 -1.948846
  H 0.390546 0.366989 1.476373
  H 0.305743 -0.334232 -0.205330
  H 2.428097 0.328868 -1.587677
  H 3.712310 1.486676 1.157273
  H 3.882185 -0.139140 1.800777
  H 1.892390 0.248326 3.270788
  H 1.780260 1.901210 2.651038
  H 4.183560 0.723236 4.120543
  H 3.010332 1.847029 4.792851
  H 4.077758 2.369144 3.496882
  H 2.427131 -1.305504 -1.075885
  H 4.903329 0.045265 -0.152139
  H 5.013397 -2.393217 -3.392354
  H 5.084400 -0.831828 -4.101850
  H 2.626330 -0.493691 -3.609870
  H 2.570076 -2.141205 -2.969284
  H 3.367823 -1.383541 -5.816580
  H 1.837688 -2.094038 -5.317866
  H 3.324522 -3.023780 -5.174597
