20
 0
 C -1.54824574 -1.62876510 -1.61853703
 C -2.23602081 -0.63666016 -0.68196933
 C -3.14067347 -1.37666098 0.29830424
 C -1.21168448 0.21365248 0.06738479
 O 0.00000000 0.00000000 0.00000000
 C -1.72985363 1.35454663 0.90663378
 H -2.28580468 -2.20189219 -2.19000918
 H -0.92536521 -2.33753246 -1.06116553
 H -0.90016691 -1.10814057 -2.33193228
 H -2.83807144 0.04582941 -1.29402269
 H -2.55775497 -2.01483492 0.97134947
 H -3.86046216 -2.00697499 -0.23462722
 H -3.71074419 -0.67909989 0.92025923
 H -2.80223145 1.49766069 0.75417950
 H -1.21907224 2.27577086 0.61455039
 H -1.54413722 1.13776080 1.96151289
 O 3.37448185 0.17182729 -0.05419183
 H 3.88878502 -0.67362352 -0.10707622
 H 2.40000000 0.00000000 0.00000000
 H 3.59407128 0.77690172 -0.80766766
