 20
 0.000000
  C -1.537103 -1.622647 -1.617761
  C -2.224541 -0.631855 -0.681684
  C -3.129094 -1.368180 0.306168
  C -1.211252 0.209420 0.061888
  O -0.014746 -0.003227 -0.004498
  C -1.735321 1.342271 0.897082
  H -2.272059 -2.191424 -2.182257
  H -0.919823 -2.324570 -1.060284
  H -0.894817 -1.103772 -2.327087
  H -2.828638 0.051614 -1.289020
  H -2.545697 -2.003555 0.970446
  H -3.843780 -1.993176 -0.223572
  H -3.693295 -0.673100 0.925514
  H -2.802116 1.484400 0.745781
  H -1.223642 2.259477 0.615527
  H -1.549530 1.126799 1.946216
  O 3.353847 0.164816 -0.055274
  H 3.859716 -0.673409 -0.111101
  H 2.388715 -0.004396 -0.002814
  H 3.570226 0.764279 -0.800295
 20
 -1.386411
  C -1.507576 -1.622584 -1.627516
  C -2.183983 -0.628873 -0.692784
  C -3.075072 -1.357877 0.313916
  C -1.170300 0.212553 0.051699
  O 0.024943 -0.010688 -0.010416
  C -1.704939 1.337636 0.877884
  H -2.253743 -2.190353 -2.172516
  H -0.893457 -2.317970 -1.060149
  H -0.876216 -1.103776 -2.345968
  H -2.804636 0.057748 -1.279393
  H -2.474039 -2.002526 0.953397
  H -3.791708 -1.980047 -0.217385
  H -3.626881 -0.662381 0.941251
  H -2.764678 1.490827 0.730496
  H -1.165803 2.246684 0.633592
  H -1.510775 1.124269 1.925082
  O 3.198670 0.156585 -0.033415
  H 3.681104 -0.696710 -0.097110
  H 2.229164 0.006337 0.007331
  H 3.419821 0.752561 -0.782969
 20
 -2.670973
  C -1.472336 -1.620182 -1.631702
  C -2.145119 -0.622381 -0.693382
  C -3.038970 -1.357278 0.317637
  C -1.132857 0.218853 0.048568
  O 0.062871 0.001178 -0.011170
  C -1.670669 1.343818 0.875106
  H -2.221181 -2.185351 -2.173678
  H -0.860015 -2.317975 -1.065426
  H -0.842057 -1.103827 -2.354170
  H -2.766768 0.066702 -1.276553
  H -2.438538 -2.006390 0.953817
  H -3.757063 -1.976939 -0.214426
  H -3.590546 -0.663661 0.950298
  H -2.728935 1.498681 0.725352
  H -1.129838 2.252749 0.638489
  H -1.479904 1.129545 1.921734
  O 3.057058 0.143631 -0.028730
  H 3.528934 -0.712870 -0.091358
  H 2.085887 -0.003366 0.012483
  H 3.279364 0.731006 -0.781810
 20
 -3.468061
  C -1.450902 -1.622072 -1.634190
  C -2.122737 -0.624283 -0.695198
  C -3.019274 -1.351902 0.317762
  C -1.106151 0.209210 0.047303
  O 0.085960 -0.022098 -0.012280
  C -1.632812 1.340218 0.873759
  H -2.203885 -2.185494 -2.177941
  H -0.839955 -2.321132 -1.066860
  H -0.820066 -1.104858 -2.354698
  H -2.744452 0.064095 -1.278279
  H -2.420455 -1.999613 0.952011
  H -3.739189 -1.966018 -0.213201
  H -3.563986 -0.655282 0.946695
  H -2.692106 1.505619 0.721790
  H -1.083546 2.247279 0.636125
  H -1.447737 1.124489 1.923406
  O 2.952691 0.150107 -0.018941
  H 3.425789 -0.703973 -0.083836
  H 1.979971 -0.009902 0.019894
  H 3.166036 0.740283 -0.775124
 20
 -4.931554
  C -1.440276 -1.623066 -1.663058
  C -2.084764 -0.626838 -0.702493
  C -2.953495 -1.352724 0.333382
  C -1.049787 0.197894 0.022159
  O 0.139098 -0.061239 -0.050568
  C -1.545742 1.339416 0.847124
  H -2.207978 -2.182098 -2.191016
  H -0.817896 -2.327547 -1.116156
  H -0.826534 -1.105220 -2.397022
  H -2.721519 0.064827 -1.266073
  H -2.342783 -2.014229 0.942894
  H -3.699469 -1.954446 -0.177318
  H -3.468501 -0.653679 0.985777
  H -2.598769 1.538492 0.685624
  H -0.964580 2.231733 0.624285
  H -1.379851 1.109200 1.898726
  O 2.742916 0.175829 0.034411
  H 3.233251 -0.670979 0.001229
  H 1.756637 -0.004955 0.055694
  H 2.953234 0.734301 -0.739401
