23

C 0.981032 0.134942 0.388268
C 2.458709 0.139076 0.397619
C 3.239141 0.609852 1.568419
C 2.455394 1.098204 2.783969
H 3.116903450663785 1.4119704769217996 3.564261153390369
C 3.07285 -0.324759 -0.756985
C 4.450298 -0.413051 -0.977376
C 5.123279 -0.864414 -2.102741
C 4.62314 -1.3867 -3.405263
H 3.575577233460923 -1.4675522140101014 -3.607686243849762
O 6.448664 -0.861152 -2.094623
H 0.536687 0.502943 1.30414
H 0.614694 -0.878814 0.219609
H 0.614144 0.749801 -0.434967
H 3.895117 1.422998 1.23706
H 3.895552 -0.206124 1.891843
H 1.817127 0.299885 3.167905
H 1.81673 1.939921 2.508782
H 2.402903 -0.638834 -1.538514
H 5.070703 -0.081812 -0.152336
H 5.076607 -2.376425 -3.532835
H 5.077108 -0.759701 -4.181316
H 6.822532 -0.526207 -1.258135
