 10
 0.000000
  H 3.378086 -0.451542 -1.073722
  C 4.453063 -0.437977 -1.039073
  C 5.239461 -0.870035 -2.117459
  C 4.635670 -1.365354 -3.353160
  H 3.551712 -1.351265 -3.318290
  O 6.530879 -0.842053 -2.048551
  H 4.935726 -0.079444 -0.144120
  H 4.997611 -2.374942 -3.568938
  H 4.999092 -0.786774 -4.207061
  H 6.904595 -0.504543 -1.206353
 10
 1.120564
  H 3.366327 -0.603177 -1.022386
  C 4.427303 -0.423473 -1.022871
  C 5.225277 -0.826028 -2.096880
  C 4.618110 -1.296562 -3.345719
  H 3.535271 -1.251798 -3.331856
  O 6.513490 -0.705966 -2.085446
  H 4.842162 0.165029 -0.218900
  H 4.944782 -2.327739 -3.524957
  H 5.019631 -0.749640 -4.201712
  H 6.943876 -0.645935 -1.210664
 10
 6.244849
  H 3.315442 -0.536767 -1.054003
  C 4.382412 -0.401350 -1.021126
  C 5.199342 -0.801042 -2.074663
  C 4.628236 -1.320345 -3.318953
  H 3.547212 -1.380274 -3.294060
  O 6.487321 -0.589691 -2.061698
  H 4.810398 0.146135 -0.197110
  H 5.073661 -2.302871 -3.513134
  H 4.954381 -0.734177 -4.183713
  H 7.023422 -0.896670 -1.306771
 10
 12.277232
  H 3.281950 -0.548167 -1.050887
  C 4.347354 -0.396789 -1.021918
  C 5.185649 -0.778447 -2.064448
  C 4.669931 -1.349905 -3.302550
  H 3.586788 -1.409745 -3.316992
  O 6.466097 -0.491581 -1.988051
  H 4.798217 0.087353 -0.168583
  H 5.121278 -2.330831 -3.465785
  H 5.028460 -0.792303 -4.178198
  H 7.105862 -1.054702 -1.521938
 10
 13.714615
  H 3.226398 -0.497253 -0.997838
  C 4.292173 -0.373085 -1.020364
  C 5.141444 -0.721254 -2.074433
  C 4.701824 -1.365402 -3.302939
  H 3.621716 -1.460663 -3.348448
  O 6.406043 -0.433393 -1.854667
  H 4.864843 0.019887 -0.190051
  H 5.162869 -2.346251 -3.447519
  H 5.074399 -0.788522 -4.160277
  H 7.090817 -1.102921 -1.692149
 10
 21.163347
  H 3.203374 -0.406944 -0.811207
  C 4.254503 -0.360067 -0.990682
  C 5.079649 -0.762958 -2.070496
  C 4.743593 -1.388116 -3.334601
  H 3.671131 -1.504859 -3.428132
  O 6.298556 -0.418621 -1.803423
  H 4.999107 -0.016411 -0.299668
  H 5.267051 -2.330304 -3.463999
  H 5.102665 -0.762351 -4.178040
  H 6.974668 -1.125649 -1.729134
 10
 37.767399
  H 3.211297 -0.419153 -0.697578
  C 4.225586 -0.414309 -1.002220
  C 5.037325 -0.833224 -2.057558
  C 4.756571 -1.381543 -3.365871
  H 3.696881 -1.501809 -3.473442
  O 6.271491 -0.427685 -1.738571
  H 5.144301 0.099859 -0.557746
  H 5.174702 -2.396096 -3.480406
  H 5.143102 -0.706157 -4.147279
  H 6.963713 -1.107847 -1.618240
 10
 59.061549
  H 3.175861 -0.362948 -0.579697
  C 4.127712 -0.425505 -1.049324
  C 4.878851 -0.787557 -2.056368
  C 4.707051 -1.386350 -3.384193
  H 3.654337 -1.538042 -3.600301
  O 6.188605 -0.365590 -1.628149
  H 5.464605 0.021470 -0.650868
  H 5.215182 -2.348807 -3.430841
  H 5.139447 -0.730192 -4.138392
  H 6.870276 -1.071156 -1.545590
 10
 50.183610
  H 3.061140 -0.420665 -0.573039
  C 3.999944 -0.458289 -1.076766
  C 4.812695 -0.772420 -2.034503
  C 4.697581 -1.386352 -3.361941
  H 3.666190 -1.512858 -3.662761
  O 6.207899 -0.317871 -1.614559
  H 5.770789 0.075952 -0.791100
  H 5.161815 -2.355294 -3.353154
  H 5.190022 -0.741242 -4.081387
  H 6.807780 -1.070190 -1.504274
 10
 48.871081
  H 3.072631 -0.373153 -0.615897
  C 4.021957 -0.438943 -1.078075
  C 4.811964 -0.754528 -2.042366
  C 4.708297 -1.378922 -3.375947
  H 3.670762 -1.579483 -3.623243
  O 6.196680 -0.351137 -1.615938
  H 5.805274 -0.015084 -0.734436
  H 5.267193 -2.308228 -3.398419
  H 5.141124 -0.709525 -4.114629
  H 6.826490 -1.108856 -1.527108
 10
 45.157805
  H 3.026801 -0.328977 -0.686121
  C 3.994902 -0.489624 -1.079972
  C 4.823834 -0.845417 -1.996951
  C 4.716880 -1.394250 -3.361562
  H 3.681884 -1.587855 -3.617087
  O 6.216213 -0.402767 -1.631327
  H 5.895319 0.013536 -0.796343
  H 5.292222 -2.312055 -3.461840
  H 5.133163 -0.656589 -4.055435
  H 6.894137 -1.100555 -1.494880
 10
 42.267007
  H 3.020213 -0.445825 -0.675843
  C 3.983937 -0.521211 -1.074083
  C 4.836593 -0.786953 -2.013251
  C 4.720030 -1.272284 -3.403425
  H 3.678571 -1.438393 -3.662546
  O 6.243060 -0.493221 -1.603169
  H 6.016112 -0.157279 -0.694920
  H 5.260938 -2.209365 -3.526465
  H 5.148624 -0.524736 -4.063339
  H 6.838266 -1.278909 -1.522662
 10
 39.466054
  H 2.951604 -0.431453 -0.791700
  C 3.958663 -0.456238 -1.110148
  C 4.841440 -0.761844 -1.993118
  C 4.741640 -1.386652 -3.339865
  H 3.708010 -1.611514 -3.579254
  O 6.236311 -0.401068 -1.664687
  H 6.127579 0.065766 -0.801755
  H 5.318356 -2.307615 -3.371923
  H 5.135450 -0.693448 -4.080717
  H 6.847085 -1.171995 -1.571852
 10
 38.461539
  H 2.887789 -0.459804 -0.888859
  C 3.922280 -0.459464 -1.108907
  C 4.845708 -0.763853 -1.955689
  C 4.746786 -1.368839 -3.320035
  H 3.724355 -1.656030 -3.537083
  O 6.234699 -0.421019 -1.646884
  H 6.247323 0.082467 -0.799191
  H 5.378588 -2.251014 -3.389282
  H 5.071333 -0.634520 -4.054227
  H 6.807277 -1.223986 -1.604860
 10
 37.859246
  H 2.854209 -0.511978 -0.905975
  C 3.891994 -0.484503 -1.102434
  C 4.832168 -0.747817 -1.938547
  C 4.752348 -1.374019 -3.297085
  H 3.719764 -1.559392 -3.569997
  O 6.209551 -0.375468 -1.642792
  H 6.295222 0.044263 -0.754011
  H 5.285430 -2.321218 -3.307675
  H 5.192212 -0.694998 -4.025087
  H 6.833240 -1.130931 -1.761416
