 23
 0.000000
  C 0.925935 0.046071 0.319191
  C 2.390202 0.063612 0.008409
  H 3.032833 0.014599 0.877112
  C 2.977372 0.131388 -1.192658
  C 2.349616 0.208672 -2.562331
  C 0.834305 0.218846 -2.742649
  C 0.482895 0.302518 -4.225550
  C 4.436216 0.132846 -1.218482
  C 5.230155 0.193171 -2.287699
  O 6.587200 0.190441 -2.239523
  H 0.754894 -0.014529 1.393072
  H 0.438276 -0.817809 -0.126931
  H 0.438269 0.954650 -0.026913
  H 2.737975 -0.639571 -3.136867
  H 2.737974 1.116173 -3.037799
  H 0.394300 1.077761 -2.236811
  H 0.394302 -0.691530 -2.336643
  H 0.885480 1.211275 -4.668378
  H -0.597060 0.309913 -4.356629
  H 0.885486 -0.550658 -4.767800
  H 4.924565 0.078215 -0.250341
  H 4.896307 0.250916 -3.310998
  H 6.877918 0.138539 -1.319693
 23
 13.557395
  C 0.779968 0.042132 0.388995
  C 2.402796 0.061701 0.042291
  H 3.042605 0.012914 0.906988
  C 3.029847 0.134507 -1.247959
  C 2.387778 0.211209 -2.607330
  C 0.869071 0.219068 -2.746611
  C 0.475420 0.302151 -4.219020
  C 4.482179 0.135013 -1.256902
  C 5.285161 0.194987 -2.319908
  O 6.640893 0.191644 -2.260795
  H 0.632640 -0.018496 1.463389
  H 0.300543 -0.820631 -0.059545
  H 0.300536 0.949873 0.040360
  H 2.767067 -0.636959 -3.188730
  H 2.767065 1.119402 -3.089625
  H 0.444282 1.076338 -2.226149
  H 0.444283 -0.691319 -2.325888
  H 0.864677 1.211436 -4.672599
  H -0.607657 0.307884 -4.320640
  H 0.864679 -0.550336 -4.772012
  H 4.959849 0.080058 -0.282980
  H 4.957415 0.252843 -3.345206
  H 6.925211 0.139630 -1.338943
 23
 40.455000
  C 0.574662 0.042590 0.380859
  C 2.456781 0.064765 -0.011931
  H 3.066587 0.015299 0.864765
  C 3.083341 0.137406 -1.299218
  C 2.421981 0.213286 -2.644082
  C 0.893848 0.217359 -2.716297
  C 0.427392 0.299227 -4.167156
  C 4.536870 0.135101 -1.258319
  C 5.384089 0.196138 -2.340200
  O 6.743993 0.191790 -2.263517
  H 0.516202 -0.018287 1.459623
  H 0.144238 -0.831609 -0.070701
  H 0.144230 0.962027 0.030517
  H 2.788602 -0.633819 -3.242553
  H 2.788584 1.122316 -3.143438
  H 0.511210 1.072206 -2.162336
  H 0.511222 -0.694370 -2.262027
  H 0.793863 1.209006 -4.638626
  H -0.659183 0.302122 -4.218571
  H 0.793872 -0.551750 -4.737985
  H 4.989493 0.079249 -0.268502
  H 5.063911 0.254196 -3.369240
  H 7.018678 0.139594 -1.338480
 23
 69.518962
  C 0.382453 0.038554 0.452418
  C 2.522925 0.066698 -0.046251
  H 3.097365 0.016648 0.840771
  C 3.130724 0.138918 -1.326117
  C 2.467284 0.214559 -2.666695
  C 0.938727 0.217048 -2.710832
  C 0.436390 0.298748 -4.158724
  C 4.580420 0.136778 -1.288193
  C 5.387302 0.196606 -2.348643
  O 6.737224 0.193406 -2.291996
  H 0.414437 -0.021923 1.524215
  H -0.003116 -0.839705 -0.016452
  H -0.003110 0.963972 0.085337
  H 2.829921 -0.635918 -3.267037
  H 2.829901 1.127146 -3.167520
  H 0.573610 1.070123 -2.144054
  H 0.573637 -0.694343 -2.243652
  H 0.790639 1.209158 -4.638672
  H -0.652312 0.300318 -4.186638
  H 0.790652 -0.551892 -4.738058
  H 5.041108 0.081085 -0.301109
  H 5.048375 0.254107 -3.367791
  H 7.024725 0.141648 -1.374539
 23
 93.326255
  C 0.151066 0.037562 0.470040
  C 2.593941 0.069498 -0.095862
  H 3.126673 0.017102 0.832779
  C 3.185733 0.139060 -1.328654
  C 2.515292 0.214765 -2.670302
  C 0.991150 0.214755 -2.670007
  C 0.440854 0.295723 -4.104949
  C 4.637642 0.138217 -1.313790
  C 5.422610 0.198912 -2.389622
  O 6.782721 0.197374 -2.362274
  H 0.226991 -0.023069 1.544511
  H -0.195501 -0.849347 -0.020710
  H -0.195494 0.974012 0.082197
  H 2.862152 -0.638161 -3.279722
  H 2.862137 1.130815 -3.179885
  H 0.639788 1.062777 -2.090054
  H 0.639801 -0.693105 -2.189158
  H 0.778544 1.205593 -4.596083
  H -0.645684 0.295387 -4.099041
  H 0.778571 -0.553176 -4.695352
  H 5.114337 0.082744 -0.330561
  H 5.061071 0.255993 -3.401285
  H 7.096249 0.145355 -1.440114
 23
 109.126109
  C -0.079589 0.036787 0.483390
  C 2.649992 0.072390 -0.147273
  H 3.118444 0.018623 0.805610
  C 3.241534 0.139863 -1.342881
  C 2.562541 0.215264 -2.679084
  C 1.033237 0.212426 -2.628970
  C 0.430728 0.292009 -4.039408
  C 4.705531 0.139829 -1.342216
  C 5.479004 0.200921 -2.424976
  O 6.829292 0.200101 -2.410817
  H 0.056578 -0.022803 1.540431
  H -0.375266 -0.847958 -0.030524
  H -0.375205 0.973743 0.072329
  H 2.900268 -0.637287 -3.288199
  H 2.900266 1.130966 -3.188434
  H 0.706443 1.061903 -2.028282
  H 0.706479 -0.699197 -2.127705
  H 0.748248 1.205717 -4.543677
  H -0.658472 0.289372 -3.992814
  H 0.748285 -0.559203 -4.643314
  H 5.184916 0.084616 -0.363697
  H 5.107730 0.257680 -3.430963
  H 7.147850 0.148759 -1.500910
 23
 118.197155
  C -0.293918 0.033997 0.533071
  C 2.678868 0.073948 -0.174767
  H 3.062149 0.017935 0.818034
  C 3.291682 0.141177 -1.366285
  C 2.601567 0.216227 -2.696398
  C 1.066638 0.211426 -2.611074
  C 0.432466 0.289344 -3.991878
  C 4.760843 0.141584 -1.373470
  C 5.529930 0.202899 -2.460257
  O 6.878590 0.202387 -2.450848
  H -0.073738 -0.024389 1.567549
  H -0.530349 -0.854274 0.001560
  H -0.530353 0.976429 0.104836
  H 2.932193 -0.633544 -3.303511
  H 2.932201 1.128859 -3.204052
  H 0.742689 1.060526 -2.005975
  H 0.742664 -0.700365 -2.105317
  H 0.734957 1.200735 -4.501535
  H -0.653523 0.285016 -3.914957
  H 0.734938 -0.558936 -4.600824
  H 5.236169 0.086791 -0.402116
  H 5.153562 0.259689 -3.466900
  H 7.198777 0.151502 -1.548664
 23
 124.086180
  C -0.517623 0.029132 0.619419
  C 2.721588 0.075938 -0.209774
  H 3.023989 0.019082 0.798136
  C 3.337097 0.141332 -1.368947
  C 2.622142 0.217179 -2.713258
  C 1.113004 0.210885 -2.601341
  C 0.454477 0.287973 -3.967845
  C 4.810338 0.143067 -1.399806
  C 5.565263 0.204750 -2.493351
  O 6.928021 0.205145 -2.500439
  H -0.222330 -0.028814 1.645140
  H -0.723935 -0.860873 0.077756
  H -0.724119 0.974352 0.181266
  H 2.935265 -0.626777 -3.323892
  H 2.935334 1.124566 -3.225178
  H 0.799909 1.058114 -1.989791
  H 0.799919 -0.699643 -2.089016
  H 0.746970 1.201356 -4.483614
  H -0.625922 0.282480 -3.870280
  H 0.746960 -0.561641 -4.583077
  H 5.291606 0.088259 -0.428172
  H 5.173762 0.261637 -3.501811
  H 7.259756 0.154461 -1.601822
 23
 126.920528
  C -0.723703 0.025466 0.684116
  C 2.761045 0.077559 -0.238449
  H 3.005837 0.019717 0.786913
  C 3.387180 0.142580 -1.390982
  C 2.660469 0.217674 -2.722031
  C 1.148946 0.209547 -2.577666
  C 0.457961 0.285909 -3.931042
  C 4.858781 0.144649 -1.427706
  C 5.604041 0.206807 -2.529798
  O 6.954054 0.207957 -2.550195
  H -0.393174 -0.031463 1.692917
  H -0.912603 -0.870431 0.132706
  H -0.912930 0.977668 0.237014
  H 2.968734 -0.630407 -3.335878
  H 2.968760 1.129431 -3.236612
  H 0.846349 1.054991 -1.960185
  H 0.846351 -0.699919 -2.059233
  H 0.735954 1.196166 -4.451961
  H -0.618305 0.279015 -3.808666
  H 0.735939 -0.559992 -4.551048
  H 5.349206 0.090021 -0.459205
  H 5.203492 0.263323 -3.531852
  H 7.296983 0.157119 -1.648720
 23
 128.392637
  C -0.925353 0.019825 0.784539
  C 2.790885 0.079481 -0.272507
  H 2.980645 0.020790 0.767824
  C 3.431536 0.144142 -1.418705
  C 2.701882 0.218493 -2.736520
  C 1.170382 0.209120 -2.570015
  C 0.465281 0.284653 -3.908561
  C 4.898792 0.146417 -1.459187
  C 5.640957 0.208600 -2.561730
  O 7.001288 0.210064 -2.587470
  H -0.563481 -0.036611 1.784989
  H -1.120090 -0.881763 0.232672
  H -1.120653 0.977664 0.337767
  H 3.007374 -0.632295 -3.355442
  H 3.007388 1.133495 -3.255808
  H 0.872691 1.054740 -1.948682
  H 0.872674 -0.701023 -2.047762
  H 0.738423 1.200375 -4.434679
  H -0.612245 0.276962 -3.772123
  H 0.738420 -0.566113 -4.534375
  H 5.390975 0.091882 -0.492301
  H 5.238230 0.264833 -3.558632
  H 7.351327 0.159002 -1.681942
 23
 128.841092
  C -1.125745 0.008790 0.980744
  C 2.798760 0.081734 -0.312411
  H 2.940643 0.022449 0.738485
  C 3.448618 0.145564 -1.443987
  C 2.726094 0.220086 -2.764770
  C 1.209001 0.210933 -2.602143
  C 0.501835 0.286975 -3.950156
  C 4.922841 0.147602 -1.480329
  C 5.666875 0.209628 -2.580055
  O 7.021193 0.210806 -2.601138
  H -0.713110 -0.046578 1.961941
  H -1.339774 -0.886062 0.441661
  H -1.340589 0.958347 0.546088
  H 3.031320 -0.630052 -3.380790
  H 3.031371 1.134205 -3.281325
  H 0.909589 1.058242 -1.980464
  H 0.909638 -0.700754 -2.079827
  H 0.775220 1.204323 -4.477592
  H -0.571910 0.279389 -3.815585
  H 0.775242 -0.565292 -4.577475
  H 5.414125 0.092700 -0.507045
  H 5.264144 0.266364 -3.585781
  H 7.364821 0.160093 -1.702056
 23
 129.171402
  C -1.296759 -0.007179 1.262833
  C 2.782881 0.084110 -0.354578
  H 2.900362 0.024806 0.696258
  C 3.451304 0.147590 -1.479498
  C 2.751565 0.222907 -2.814185
  C 1.228334 0.215306 -2.679242
  C 0.545571 0.292116 -4.040722
  C 4.916345 0.148281 -1.491855
  C 5.679524 0.209773 -2.581780
  O 7.030402 0.209779 -2.582691
  H -0.814982 -0.060853 2.213700
  H -1.541694 -0.902048 0.738479
  H -1.542821 0.941113 0.842856
  H 3.067037 -0.628337 -3.424250
  H 3.067007 1.137201 -3.324552
  H 0.919484 1.063359 -2.062599
  H 0.919424 -0.696915 -2.161809
  H 0.828223 1.205499 -4.560799
  H -0.535632 0.285630 -3.925787
  H 0.828241 -0.556990 -4.660247
  H 5.387491 0.093296 -0.517538
  H 5.295374 0.266361 -3.584711
  H 7.360936 0.158646 -1.676701
 23
 129.036879
  C -1.297999 -0.007149 1.261960
  C 2.782347 0.084523 -0.361284
  H 2.905611 0.025096 0.691858
  C 3.448666 0.147615 -1.479386
  C 2.746931 0.223047 -2.816512
  C 1.226825 0.215334 -2.679751
  C 0.543248 0.291966 -4.038005
  C 4.920128 0.148222 -1.490494
  C 5.683708 0.209634 -2.579465
  O 7.037783 0.209529 -2.579180
  H -0.815451 -0.060783 2.212697
  H -1.543534 -0.903021 0.737160
  H -1.544694 0.942155 0.841665
  H 3.062035 -0.627689 -3.427038
  H 3.061999 1.136913 -3.327412
  H 0.919018 1.063017 -2.062949
  H 0.918945 -0.696542 -2.162083
  H 0.825679 1.204496 -4.558002
  H -0.538215 0.285422 -3.921963
  H 0.825691 -0.556320 -4.657358
  H 5.391678 0.093209 -0.515748
  H 5.299272 0.266427 -3.585806
  H 7.367945 0.158347 -1.672319
