 20
 0.000000
  C 1.047195 -0.110187 -0.038601
  C 2.543128 -0.135676 -0.038755
  C 3.259315 -1.264963 -0.045525
  C 4.696951 -1.288758 -0.045665
  C 5.418234 -2.423551 -0.052468
  C 6.856437 -2.445138 -0.052594
  C 7.575493 -3.572185 -0.059350
  C 9.065395 -3.614842 -0.059605
  H 0.685395 0.916553 -0.032449
  H 0.651444 -0.610947 0.844708
  H 0.651443 -0.600329 -0.927846
  H 3.044049 0.823296 -0.033011
  H 2.749657 -2.220545 -0.051251
  H 5.201165 -0.330537 -0.039927
  H 4.914496 -3.381932 -0.058213
  H 7.362589 -1.487692 -0.046863
  H 7.077037 -4.533428 -0.065106
  H 9.498395 -2.616241 -0.053618
  H 9.424887 -4.140430 -0.945573
  H 9.424887 -4.151008 0.820002
 20
 2.114204
  C 1.065954 -0.123429 -0.029059
  C 2.558507 -0.096461 -0.078480
  C 3.284054 -1.215503 0.040136
  C 4.716040 -1.261553 0.049473
  C 5.434783 -2.395058 -0.029675
  C 6.869613 -2.437452 0.002287
  C 7.586904 -3.558543 -0.107440
  C 9.074391 -3.619669 -0.069880
  H 0.642525 0.782868 -0.445408
  H 0.729634 -0.221608 1.003719
  H 0.670536 -0.971896 -0.587095
  H 3.029410 0.876636 -0.115372
  H 2.729296 -2.123353 -0.158476
  H 5.224903 -0.312932 0.170335
  H 4.922576 -3.342187 -0.146183
  H 7.377225 -1.488499 0.127384
  H 7.080958 -4.507886 -0.233013
  H 9.504158 -2.629351 0.061410
  H 9.459270 -4.050251 -0.995136
  H 9.406132 -4.258852 0.749156
 20
 8.067065
  C 1.075261 -0.114263 -0.078978
  C 2.577240 -0.130371 -0.110864
  C 3.273870 -1.232033 0.194202
  C 4.688630 -1.271789 0.176588
  C 5.414669 -2.395906 0.007449
  C 6.843961 -2.443899 0.041305
  C 7.587082 -3.554055 -0.179400
  C 9.079495 -3.608912 -0.114489
  H 0.670325 0.594562 -0.816062
  H 0.747960 0.183633 0.927401
  H 0.658234 -1.109084 -0.283182
  H 3.070070 0.812084 -0.216161
  H 2.750081 -2.113948 -0.137562
  H 5.202485 -0.329794 0.397166
  H 4.905039 -3.336081 -0.173786
  H 7.342781 -1.503942 0.278643
  H 7.095192 -4.472993 -0.449697
  H 9.500407 -2.639311 0.126449
  H 9.486424 -3.938939 -1.070199
  H 9.401398 -4.328416 0.645420
 20
 23.192249
  C 1.100573 -0.099470 -0.073233
  C 2.584818 -0.167570 -0.168909
  C 3.254408 -1.257520 0.306424
  C 4.689026 -1.303719 0.302695
  C 5.414912 -2.407186 0.045121
  C 6.848029 -2.453872 0.109348
  C 7.579076 -3.521036 -0.222330
  C 9.064095 -3.585441 -0.149191
  H 0.675393 0.353315 -0.962069
  H 0.818258 0.491270 0.797325
  H 0.670997 -1.095394 0.039199
  H 3.083214 0.726792 -0.531531
  H 2.724295 -2.060397 -0.199957
  H 5.192793 -0.406847 0.641166
  H 4.912647 -3.309275 -0.280881
  H 7.342653 -1.555846 0.460951
  H 7.086896 -4.417978 -0.576548
  H 9.477756 -2.653503 0.227833
  H 9.484261 -3.783969 -1.134566
  H 9.375933 -4.398616 0.507823
 20
 53.767664
  C 1.119424 -0.122625 -0.091446
  C 2.586095 -0.260069 -0.257132
  C 3.262014 -1.238288 0.465695
  C 4.694084 -1.313695 0.426639
  C 5.412107 -2.399203 0.080118
  C 6.840857 -2.462355 0.150679
  C 7.570102 -3.503494 -0.259548
  C 9.055388 -3.580937 -0.177243
  H 0.671010 0.259850 -0.997448
  H 0.918257 0.569670 0.726493
  H 0.658926 -1.077445 0.157542
  H 3.076686 0.584276 -0.754976
  H 2.703332 -1.867790 -0.271431
  H 5.212307 -0.450483 0.837891
  H 4.905044 -3.266307 -0.324179
  H 7.338609 -1.597318 0.574291
  H 7.077878 -4.367456 -0.687158
  H 9.470615 -2.671195 0.253728
  H 9.484507 -3.726302 -1.169151
  H 9.358757 -4.429621 0.437214
 20
 74.424663
  C 1.095454 -0.077702 -0.030532
  C 2.545224 -0.374557 -0.285832
  C 3.276663 -1.255940 0.514736
  C 4.698627 -1.355864 0.469157
  C 5.425678 -2.413951 0.059947
  C 6.852744 -2.490111 0.178864
  C 7.599887 -3.490622 -0.294738
  C 9.083595 -3.574390 -0.164680
  H 0.581540 0.214259 -0.944860
  H 1.033485 0.754990 0.669700
  H 0.588466 -0.928271 0.417632
  H 3.014270 0.338106 -0.978488
  H 2.631260 -1.648368 -0.494207
  H 5.208255 -0.532000 0.961307
  H 4.932360 -3.242083 -0.434710
  H 7.333476 -1.667717 0.697220
  H 7.127446 -4.311951 -0.818863
  H 9.477384 -2.709825 0.366301
  H 9.551937 -3.623797 -1.149246
  H 9.368885 -4.477185 0.377813
 20
 70.881898
  C 1.100135 -0.046595 0.036568
  C 2.520472 -0.439365 -0.322317
  C 3.282630 -1.274715 0.524832
  C 4.685162 -1.409886 0.471344
  C 5.427534 -2.444646 0.032602
  C 6.852228 -2.518174 0.183353
  C 7.616630 -3.491589 -0.317488
  C 9.097007 -3.572804 -0.156021
  H 0.522878 0.264440 -0.835566
  H 1.138700 0.803353 0.717675
  H 0.587875 -0.857801 0.544861
  H 2.984274 0.249854 -1.040552
  H 2.500100 -1.533814 -0.749433
  H 5.179981 -0.603727 1.009796
  H 4.949292 -3.250427 -0.509858
  H 7.315699 -1.717719 0.749569
  H 7.161848 -4.290789 -0.889048
  H 9.472421 -2.731651 0.423035
  H 9.588588 -3.574308 -1.130154
  H 9.375344 -4.497860 0.351036
 20
 66.223219
  C 1.124238 -0.016128 0.127081
  C 2.469144 -0.506725 -0.393696
  C 3.275965 -1.304034 0.486818
  C 4.658974 -1.456636 0.414186
  C 5.428989 -2.493969 0.022497
  C 6.852275 -2.528037 0.186532
  C 7.644041 -3.500891 -0.277064
  C 9.123802 -3.544144 -0.098379
  H 0.489476 0.355021 -0.676784
  H 1.287617 0.804812 0.823522
  H 0.607938 -0.810419 0.658410
  H 2.941876 0.210192 -1.080536
  H 2.295655 -1.440120 -0.994219
  H 5.144006 -0.616465 0.914197
  H 4.969914 -3.324511 -0.496506
  H 7.294022 -1.699360 0.728932
  H 7.211770 -4.328274 -0.825473
  H 9.474935 -2.678122 0.458269
  H 9.625046 -3.564316 -1.067335
  H 9.417130 -4.447173 0.438959
 20
 63.719337
  C 1.120714 -0.065015 0.204391
  C 2.435860 -0.471219 -0.455971
  C 3.243105 -1.411498 0.309836
  C 4.627096 -1.519972 0.285907
  C 5.421590 -2.565112 -0.046137
  C 6.832049 -2.566512 0.143838
  C 7.653691 -3.536515 -0.287465
  C 9.125248 -3.557173 -0.063462
  H 0.506200 0.513846 -0.477822
  H 1.321798 0.544768 1.081588
  H 0.570345 -0.942775 0.520834
  H 2.954211 0.399792 -0.885789
  H 2.216723 -1.141547 -1.300580
  H 5.117399 -0.653267 0.739266
  H 4.986152 -3.406254 -0.564888
  H 7.249736 -1.722464 0.683338
  H 7.247773 -4.375492 -0.836745
  H 9.448111 -2.682451 0.495890
  H 9.655039 -3.579118 -1.016630
  H 9.414029 -4.451993 0.488883
 20
 62.318732
  C 1.144965 -0.109615 0.297668
  C 2.413399 -0.425510 -0.497544
  C 3.232123 -1.470066 0.107687
  C 4.600643 -1.523478 0.096900
  C 5.421425 -2.608838 -0.097169
  C 6.826911 -2.564427 0.086251
  C 7.663180 -3.568014 -0.226453
  C 9.133382 -3.545524 0.009571
  H 0.548917 0.646272 -0.213825
  H 1.410622 0.269989 1.282297
  H 0.541125 -1.009732 0.429029
  H 2.949001 0.504592 -0.746792
  H 2.121972 -0.893719 -1.445418
  H 5.098151 -0.600052 0.409287
  H 4.997743 -3.511130 -0.517427
  H 7.232761 -1.660925 0.525667
  H 7.268854 -4.469258 -0.680661
  H 9.442430 -2.611706 0.474791
  H 9.672244 -3.664238 -0.932394
  H 9.427019 -4.374595 0.656815
 20
 61.869818
  C 1.123855 -0.162315 0.275248
  C 2.437072 -0.392035 -0.473136
  C 3.236858 -1.487270 0.087856
  C 4.613035 -1.486362 0.098976
  C 5.422837 -2.585368 -0.059957
  C 6.834248 -2.543970 0.074745
  C 7.648552 -3.578602 -0.198390
  C 9.124673 -3.562424 -0.012756
  H 0.522630 0.589477 -0.228198
  H 1.327388 0.179039 1.287606
  H 0.556181 -1.087375 0.334888
  H 2.986669 0.557055 -0.587194
  H 2.207508 -0.744456 -1.488611
  H 5.116953 -0.549870 0.363323
  H 4.978080 -3.507632 -0.409050
  H 7.264163 -1.617854 0.438988
  H 7.227827 -4.500535 -0.579308
  H 9.462512 -2.604188 0.374749
  H 9.628253 -3.756727 -0.961003
  H 9.427573 -4.348562 0.679503
