 17
 0.000000
  H 1.433019 -0.076850 0.037190
  C 2.506133 -0.083343 0.024445
  C 3.220474 -0.593717 -0.977505
  C 4.657472 -0.605094 -0.999840
  C 5.379041 -1.120102 -2.010884
  C 6.816268 -1.130829 -2.031941
  C 7.534478 -1.641884 -3.035235
  C 9.023399 -1.662211 -3.075131
  H 3.002808 0.351865 0.878833
  H 2.711024 -1.027372 -1.828834
  H 5.161643 -0.170388 -0.146442
  H 4.874931 -1.554855 -2.864376
  H 7.322456 -0.696516 -1.179312
  H 7.035351 -2.077814 -3.891022
  H 9.456067 -1.209183 -2.185766
  H 9.382493 -1.117460 -3.949104
  H 9.382492 -2.689446 -3.148364
 17
 15.046697
  H 1.353185 -0.060548 0.069169
  C 2.427890 -0.065729 0.059013
  C 3.136310 -0.577270 -0.945213
  C 4.576401 -0.593188 -0.976450
  C 5.283198 -1.107486 -1.986096
  C 6.890005 -1.115570 -2.001962
  C 7.639231 -1.666473 -3.083501
  C 9.126152 -1.690276 -3.130233
  H 2.920221 0.370045 0.914497
  H 2.625727 -1.010711 -1.796123
  H 5.085514 -0.159650 -0.125345
  H 4.795503 -1.544248 -2.843536
  H 7.391866 -0.682855 -1.152473
  H 7.120180 -2.096853 -3.928407
  H 9.562425 -1.238036 -2.242408
  H 9.482613 -1.148204 -4.007259
  H 9.482615 -2.718390 -3.207438
 17
 44.684357
  H 1.308286 -0.036981 0.115388
  C 2.373688 -0.047556 0.094648
  C 3.053420 -0.566125 -0.923332
  C 4.498450 -0.597723 -0.985337
  C 5.162550 -1.115501 -2.001789
  C 7.025519 -1.102206 -1.975657
  C 7.723005 -1.669030 -3.088498
  C 9.200563 -1.709835 -3.168626
  H 2.876344 0.388370 0.950412
  H 2.529464 -0.995782 -1.766790
  H 5.024087 -0.167982 -0.141696
  H 4.765275 -1.569276 -2.892616
  H 7.473144 -0.659148 -1.105837
  H 7.153045 -2.082629 -3.900489
  H 9.654684 -1.263231 -2.291832
  H 9.542644 -1.175844 -4.051989
  H 9.542608 -2.738210 -3.256106
 17
 76.878294
  H 1.204925 0.000233 0.188519
  C 2.291305 -0.022886 0.143060
  C 2.938033 -0.548107 -0.888000
  C 4.393355 -0.597915 -0.985734
  C 5.025449 -1.121755 -2.014051
  C 7.187221 -1.108476 -1.988039
  C 7.827218 -1.669551 -3.089568
  C 9.316150 -1.731034 -3.210274
  H 2.816016 0.405727 0.984551
  H 2.391416 -0.972242 -1.720584
  H 4.937136 -0.174615 -0.154732
  H 4.665580 -1.575852 -2.905504
  H 7.613493 -0.664688 -1.116817
  H 7.225583 -2.074166 -3.883918
  H 9.799409 -1.286802 -2.337976
  H 9.644613 -1.197321 -4.111750
  H 9.644514 -2.773912 -3.308534
 17
 102.443447
  H 1.128038 0.036449 0.260004
  C 2.212805 -0.000116 0.187715
  C 2.823645 -0.533904 -0.860268
  C 4.279356 -0.601606 -0.993099
  C 4.887896 -1.127558 -2.025494
  C 7.351262 -1.112107 -1.995423
  C 7.941268 -1.663640 -3.078128
  C 9.424680 -1.752906 -3.253397
  H 2.772727 0.426664 1.025956
  H 2.255703 -0.950595 -1.678093
  H 4.837589 -0.183508 -0.172315
  H 4.564076 -1.588776 -2.930913
  H 7.739472 -0.654268 -1.096681
  H 7.334479 -2.065218 -3.866458
  H 9.942336 -1.322504 -2.407685
  H 9.725830 -1.225459 -4.165193
  H 9.725573 -2.800671 -3.362358
 17
 120.047521
  H 1.055985 0.073530 0.332867
  C 2.138617 0.023556 0.234168
  C 2.719701 -0.517757 -0.828682
  C 4.164623 -0.600091 -0.990225
  C 4.754772 -1.127856 -2.026146
  C 7.492956 -1.116585 -2.004067
  C 8.057081 -1.666505 -3.083578
  C 9.545653 -1.776711 -3.300033
  H 2.716138 0.438388 1.049111
  H 2.128276 -0.928706 -1.635271
  H 4.738614 -0.184337 -0.173882
  H 4.455730 -1.590297 -2.933982
  H 7.834390 -0.657238 -1.102371
  H 7.444362 -2.068338 -3.872316
  H 10.091507 -1.354349 -2.470957
  H 9.822912 -1.253420 -4.210625
  H 9.823061 -2.821267 -3.411866
 17
 131.529679
  H 0.975948 0.101210 0.390115
  C 2.042340 0.045891 0.277260
  C 2.604838 -0.499099 -0.793653
  C 4.047787 -0.590906 -0.973519
  C 4.632785 -1.118848 -2.009178
  C 7.645231 -1.125565 -2.022680
  C 8.186610 -1.673634 -3.097731
  C 9.669081 -1.803871 -3.352620
  H 2.632776 0.455312 1.084823
  H 1.998910 -0.907724 -1.594603
  H 4.634057 -0.174377 -0.155280
  H 4.344752 -1.585781 -2.925059
  H 7.955058 -0.667104 -1.123368
  H 7.560892 -2.073473 -3.881981
  H 10.247559 -1.382549 -2.526165
  H 9.928078 -1.280258 -4.274935
  H 9.927836 -2.858103 -3.470498
 17
 138.320967
  H 0.871336 0.131292 0.445778
  C 1.936456 0.068713 0.322555
  C 2.484645 -0.479072 -0.752682
  C 3.935150 -0.580071 -0.950414
  C 4.514384 -1.107755 -1.986189
  C 7.801700 -1.143455 -2.056222
  C 8.325212 -1.687051 -3.123510
  C 9.801807 -1.831113 -3.406818
  H 2.536049 0.475317 1.121614
  H 1.868040 -0.883674 -1.546809
  H 4.527930 -0.167608 -0.140920
  H 4.229452 -1.571666 -2.897202
  H 8.089710 -0.679921 -1.146242
  H 7.689855 -2.085870 -3.906382
  H 10.395999 -1.417203 -2.594432
  H 10.045613 -1.310692 -4.331085
  H 10.045795 -2.884453 -3.529095
 17
 142.076580
  H 0.770136 0.159658 0.506614
  C 1.832735 0.094521 0.371768
  C 2.367451 -0.455688 -0.709199
  C 3.817072 -0.564226 -0.921789
  C 4.388088 -1.094515 -1.961796
  C 7.940848 -1.168688 -2.105798
  C 8.463817 -1.708875 -3.165488
  C 9.944843 -1.857254 -3.457504
  H 2.441400 0.496391 1.166174
  H 1.741200 -0.858674 -1.497315
  H 4.420470 -0.152226 -0.113996
  H 4.090809 -1.561622 -2.878272
  H 8.215082 -0.702244 -1.190930
  H 7.830452 -2.107433 -3.946895
  H 10.543342 -1.444662 -2.648728
  H 10.184776 -1.338633 -4.381422
  H 10.185090 -2.908634 -3.580105
 17
 143.748880
  H 0.672619 0.189774 0.565051
  C 1.734258 0.119034 0.420697
  C 2.256658 -0.434137 -0.666117
  C 3.697095 -0.548777 -0.891600
  C 4.261049 -1.082908 -1.939453
  C 8.074437 -1.196460 -2.159029
  C 8.600835 -1.733590 -3.212948
  C 10.086639 -1.881821 -3.505679
  H 2.351008 0.518109 1.207554
  H 1.626447 -0.831322 -1.443471
  H 4.308540 -0.139117 -0.087916
  H 3.956745 -1.547644 -2.850977
  H 8.340999 -0.728539 -1.241477
  H 7.968351 -2.133873 -3.997175
  H 10.688158 -1.466892 -2.692431
  H 10.326944 -1.362154 -4.433011
  H 10.327104 -2.934616 -3.628590
 17
 144.457365
  H 0.557888 0.228759 0.625912
  C 1.633357 0.142948 0.473165
  C 2.141462 -0.412240 -0.614873
  C 3.587335 -0.533427 -0.855009
  C 4.139713 -1.066570 -1.904137
  C 8.217640 -1.230726 -2.223473
  C 8.746551 -1.760085 -3.265379
  C 10.231928 -1.906240 -3.556058
  H 2.261078 0.546039 1.250468
  H 1.489026 -0.811005 -1.403752
  H 4.201014 -0.131297 -0.063906
  H 3.825747 -1.528736 -2.813177
  H 8.475784 -0.763363 -1.304561
  H 8.118863 -2.161353 -4.053321
  H 10.835903 -1.489294 -2.737497
  H 10.470993 -1.389328 -4.477097
  H 10.472084 -2.952858 -3.680045
 17
 144.659577
  H 0.473264 0.234989 0.678976
  C 1.525194 0.171958 0.515924
  C 2.031393 -0.383148 -0.578697
  C 3.471640 -0.507373 -0.821975
  C 4.019033 -1.044296 -1.871096
  C 8.344975 -1.262242 -2.290743
  C 8.891140 -1.791981 -3.326438
  C 10.378881 -1.929142 -3.598869
  H 2.153908 0.556482 1.300525
  H 1.397550 -0.777629 -1.336475
  H 4.095606 -0.097770 -0.023912
  H 3.700317 -1.505773 -2.772638
  H 8.587974 -0.791401 -1.371714
  H 8.278209 -2.201109 -4.123821
  H 10.951945 -1.516533 -2.795753
  H 10.627845 -1.405876 -4.525987
  H 10.632150 -2.992622 -3.717094
 17
 144.803224
  H 0.378778 0.282625 0.736000
  C 1.442881 0.194145 0.573095
  C 1.937281 -0.365603 -0.524681
  C 3.360901 -0.492155 -0.775699
  C 3.899719 -1.029493 -1.832652
  C 8.475315 -1.307307 -2.370695
  C 9.036922 -1.829295 -3.397794
  C 10.520830 -1.954014 -3.647005
  H 2.083803 0.595107 1.349448
  H 1.284987 -0.757311 -1.297554
  H 3.979555 -0.094388 0.006320
  H 3.572054 -1.493445 -2.744804
  H 8.704307 -0.834172 -1.441196
  H 8.438139 -2.244481 -4.212024
  H 11.095410 -1.526367 -2.807636
  H 10.777117 -1.428755 -4.566221
  H 10.777056 -2.998289 -3.762428
 17
 144.749309
  H 0.260498 0.296487 0.806348
  C 1.323967 0.228784 0.625496
  C 1.810609 -0.327272 -0.471647
  C 3.262150 -0.462823 -0.736584
  C 3.791523 -1.003204 -1.792005
  C 8.606661 -1.344136 -2.453598
  C 9.189325 -1.865839 -3.473500
  C 10.695714 -1.981049 -3.703394
  H 1.964789 0.605450 1.401430
  H 1.152126 -0.725501 -1.232917
  H 3.899326 -0.057312 0.051014
  H 3.457772 -1.461748 -2.687388
  H 8.822189 -0.870750 -1.530483
  H 8.609013 -2.282615 -4.284846
  H 11.244403 -1.556475 -2.878538
  H 10.958973 -1.461964 -4.609007
  H 10.968002 -3.038966 -3.814498
