 23
 0.000000
  H 1.375272 0.140283 0.400410
  C 2.445261 0.138532 0.395784
  C 3.234973 0.607589 1.562934
  C 2.461488 1.098287 2.784371
  H 3.129843 1.409844 3.559699
  C 3.056527 -0.326240 -0.761266
  C 4.434557 -0.412807 -0.977341
  C 5.116634 -0.862171 -2.097644
  C 4.626711 -1.386353 -3.404443
  C 3.136043 -1.505154 -3.701248
  H 2.979055 -1.899161 -4.683599
  O 6.441363 -0.854110 -2.077903
  H 3.890881 1.419250 1.227711
  H 3.891049 -0.210235 1.882449
  H 1.823595 0.301943 3.173218
  H 1.823488 1.942218 2.514202
  H 2.395882 -0.642369 -1.548407
  H 5.050449 -0.080233 -0.149165
  H 5.083529 -2.374996 -3.529298
  H 5.083826 -0.758265 -4.177923
  H 2.660333 -0.524837 -3.647836
  H 2.660040 -2.176678 -2.985238
  H 6.799446 -0.516763 -1.236311
 23
 0.000000
  H 1.454221 0.109699 0.324173
  C 2.523792 0.121145 0.352429
  C 3.271425 0.599677 1.543214
  C 2.454776 1.080561 2.740223
  H 3.095101 1.400185 3.535669
  C 3.176012 -0.335828 -0.785212
  C 4.461101 -0.411466 -0.974017
  C 5.089853 -0.849891 -2.067043
  C 4.595750 -1.373529 -3.372486
  C 3.104139 -1.490679 -3.665180
  H 2.944007 -1.884511 -4.647094
  O 6.316999 -0.834191 -2.028228
  H 3.927268 1.419431 1.228157
  H 3.927412 -0.210057 1.882887
  H 1.815103 0.276334 3.109430
  H 1.815017 1.916613 2.450423
  H 2.573819 -0.659795 -1.591912
  H 5.083039 -0.080460 -0.149740
  H 5.051127 -2.362677 -3.498598
  H 5.051426 -0.745946 -4.147224
  H 2.629663 -0.509836 -3.610459
  H 2.629368 -2.161677 -2.947860
  H 6.609827 -0.485529 -1.158395
 23
 0.000000
  H 1.535288 0.079622 0.249196
  C 2.603220 0.104542 0.311028
  C 3.306998 0.592217 1.524621
  C 2.447158 1.062525 2.695304
  H 3.058107 1.390033 3.510412
  C 3.296558 -0.343942 -0.805486
  C 4.487246 -0.409627 -0.969454
  C 5.065361 -0.838390 -2.038384
  C 4.565814 -1.361311 -3.342040
  C 3.072992 -1.476308 -3.629371
  H 2.908764 -1.869906 -4.610702
  O 6.193182 -0.816628 -1.984426
  H 3.962030 1.420237 1.230161
  H 3.962150 -0.209254 1.884883
  H 1.806388 0.250224 3.044393
  H 1.806326 1.890507 2.385396
  H 2.752613 -0.676190 -1.632844
  H 5.116041 -0.080427 -0.149668
  H 5.019307 -2.351115 -3.469785
  H 5.019607 -0.734385 -4.118413
  H 2.600133 -0.494781 -3.572948
  H 2.599835 -2.146621 -2.910346
  H 6.415813 -0.455660 -1.083879
 23
 0.000000
  H 1.618166 0.050375 0.176288
  C 2.683160 0.089026 0.272336
  C 3.341319 0.585463 1.507787
  C 2.438386 1.044416 2.650202
  H 3.018614 1.379588 3.484425
  C 3.417672 -0.350259 -0.821281
  C 4.513241 -0.407046 -0.963037
  C 5.043719 -0.828054 -2.012629
  C 4.537151 -1.350039 -3.313950
  C 3.042801 -1.462252 -3.594348
  H 2.873285 -1.855540 -4.574904
  O 6.071021 -0.801860 -1.947591
  H 3.994750 1.421909 1.234324
  H 3.994845 -0.207586 1.889038
  H 1.797255 0.223860 2.978720
  H 1.797216 1.864147 2.319734
  H 2.932292 -0.691456 -1.670961
  H 5.149883 -0.079948 -0.148482
  H 4.988201 -2.340685 -3.443794
  H 4.988504 -0.723957 -4.092425
  H 2.572038 -0.479846 -3.535735
  H 2.571738 -2.131685 -2.873131
  H 6.216437 -0.427667 -1.014036
 23
 0.000000
  H 1.702333 0.022407 0.106562
  C 2.763024 0.075007 0.237373
  C 3.373870 0.579764 1.493586
  C 2.428118 1.026580 2.605778
  H 2.976316 1.369153 3.458461
  C 3.538605 -0.354363 -0.831559
  C 4.539456 -0.403382 -0.953920
  C 5.025608 -0.819404 -1.991077
  C 4.510089 -1.340173 -3.289367
  C 3.013838 -1.448826 -3.560894
  H 2.837573 -1.841703 -4.540424
  O 5.951990 -0.790413 -1.919033
  H 4.024865 1.424772 1.241460
  H 4.024933 -0.204726 1.896165
  H 1.787407 0.197610 2.913328
  H 1.787393 1.837901 2.254353
  H 3.112808 -0.705394 -1.705768
  H 5.185158 -0.078761 -0.145528
  H 4.958000 -2.331891 -3.421876
  H 4.958305 -0.715163 -4.070510
  H 2.545772 -0.465302 -3.499498
  H 2.545468 -2.117140 -2.836891
  H 6.010640 -0.402358 -0.950879
 23
 0.000000
  H 1.786913 -0.003643 0.041615
  C 2.841888 0.063052 0.207555
  C 3.403920 0.575617 1.483253
  C 2.415895 1.009544 2.563346
  H 2.930875 1.359196 3.433688
  C 3.658181 -0.355707 -0.834954
  C 4.566413 -0.398171 -0.940946
  C 5.011846 -0.813155 -1.975506
  C 4.485072 -1.332361 -3.269898
  C 2.986512 -1.436518 -3.530228
  H 2.801749 -1.828855 -4.508408
  O 5.838054 -0.782936 -1.900371
  H 4.051615 1.429280 1.252696
  H 4.051656 -0.200223 1.907391
  H 1.776424 0.172042 2.849634
  H 1.776435 1.812338 2.190671
  H 3.293832 -0.717665 -1.736411
  H 5.222649 -0.076499 -0.139891
  H 4.929000 -2.325417 -3.405742
  H 4.929309 -0.708691 -4.054379
  H 2.521873 -0.451594 -3.465345
  H 2.521566 -2.103430 -2.802734
  H 5.797389 -0.380957 -0.897467
 23
 0.000000
  H 1.870400 -0.026804 -0.016138
  C 2.918257 0.053991 0.184949
  C 3.430426 0.573753 1.478611
  C 2.401126 0.994147 2.524996
  H 2.882003 1.350473 3.411990
  C 3.774476 -0.353548 -0.829615
  C 4.594790 -0.390782 -0.922538
  C 5.003406 -0.810311 -1.968422
  C 4.462763 -1.327538 -3.257880
  C 2.961484 -1.426130 -3.504343
  H 2.766231 -1.817762 -4.480766
  O 5.731913 -0.780270 -1.893701
  H 4.073963 1.436076 1.269642
  H 4.073974 -0.193430 1.924326
  H 1.763729 0.148081 2.789937
  H 1.763767 1.788382 2.130986
  H 3.474296 -0.727751 -1.761607
  H 5.263337 -0.072649 -0.130297
  H 4.901729 -2.322233 -3.397803
  H 4.902041 -0.705509 -4.046446
  H 2.501123 -0.439489 -3.435185
  H 2.500811 -2.091323 -2.772569
  H 5.575923 -0.365266 -0.858290
 23
 0.000000
  H 1.948134 -0.045099 -0.061759
  C 2.987849 0.049180 0.172941
  C 3.451354 0.575241 1.482321
  C 2.383553 0.982085 2.494949
  H 2.830986 1.344404 3.396895
  C 3.881482 -0.347051 -0.813456
  C 4.624589 -0.380652 -0.897293
  C 5.001444 -0.812285 -1.973342
  C 4.444684 -1.327137 -3.256879
  C 2.940419 -1.419219 -3.487126
  H 2.732946 -1.809981 -4.461377
  O 5.639676 -0.783477 -1.901668
  H 4.090097 1.445849 1.294004
  H 4.090078 -0.183661 1.948679
  H 1.748934 0.127800 2.739404
  H 1.749000 1.768105 2.080464
  H 3.646989 -0.734939 -1.779564
  H 5.307177 -0.066688 -0.115428
  H 4.877801 -2.323721 -3.401506
  H 4.878117 -0.707000 -4.050155
  H 2.485108 -0.430595 -3.413029
  H 2.484791 -2.082427 -2.750407
  H 5.351808 -0.357868 -0.839797
 23
 0.000000
  H 2.006367 -0.055126 -0.086768
  C 3.038701 0.049812 0.174502
  C 3.463047 0.580438 1.495272
  C 2.365502 0.976140 2.480140
  H 2.785913 1.342921 3.393218
  C 3.961363 -0.337073 -0.788610
  C 4.651501 -0.369098 -0.868495
  C 5.005761 -0.819514 -1.991359
  C 4.433897 -1.332068 -3.269163
  C 2.927008 -1.418011 -3.484117
  H 2.708058 -1.807906 -4.456202
  O 5.575551 -0.792173 -1.923319
  H 4.097421 1.457595 1.323282
  H 4.097379 -0.171918 1.977951
  H 1.733643 0.115339 2.708353
  H 1.733731 1.755648 2.049420
  H 3.783706 -0.739092 -1.789932
  H 5.347709 -0.059314 -0.097039
  H 4.861456 -2.330408 -3.418159
  H 4.861777 -0.713689 -4.066815
  H 2.476509 -0.427539 -3.405422
  H 2.476185 -2.079368 -2.742793
  H 5.157586 -0.359884 -0.844785
 23
 0.000000
  H 2.045753 -0.057562 -0.092857
  C 3.072009 0.055346 0.188284
  C 3.466660 0.589142 1.516963
  C 2.347276 0.976259 2.480434
  H 2.747132 1.346216 3.401432
  C 4.016059 -0.324310 -0.756812
  C 4.675362 -0.356513 -0.837120
  C 5.014578 -0.831315 -2.020765
  C 4.429786 -1.341845 -3.293520
  C 2.920785 -1.422501 -3.495308
  H 2.691991 -1.811614 -4.465438
  O 5.535443 -0.805122 -1.955573
  H 4.097426 1.471198 1.357186
  H 4.097365 -0.158316 2.011852
  H 1.717813 0.110574 2.696470
  H 1.717919 1.750884 2.037542
  H 3.886350 -0.742042 -1.797283
  H 5.384504 -0.050829 -0.075875
  H 4.852526 -2.341675 -3.446226
  H 4.852851 -0.724959 -4.094888
  H 2.474465 -0.430457 -3.412700
  H 2.474136 -2.082283 -2.750065
  H 4.988545 -0.369083 -0.867698
 23
 0.000000
  H 2.066404 -0.052739 -0.080845
  C 3.088338 0.065485 0.213545
  C 3.462992 0.601277 1.547202
  C 2.329242 0.982548 2.496098
  H 2.715225 1.354544 3.422180
  C 4.046495 -0.309236 -0.719246
  C 4.695431 -0.343315 -0.804217
  C 5.026777 -0.847135 -2.060188
  C 4.432322 -1.356118 -3.329080
  C 2.921824 -1.432804 -3.520981
  H 2.685659 -1.821308 -4.489587
  O 5.516440 -0.821447 -1.996246
  H 4.091186 1.486601 1.395569
  H 4.091112 -0.142914 2.050234
  H 1.701538 0.113600 2.704002
  H 1.701656 1.753911 2.045075
  H 3.955290 -0.745975 -1.807066
  H 5.416598 -0.041561 -0.052763
  H 4.851421 -2.357055 -3.484540
  H 4.851750 -0.740342 -4.133209
  H 2.478665 -0.439591 -3.435463
  H 2.478332 -2.091414 -2.772820
  H 4.839412 -0.383250 -0.903003
 23
 0.000000
  H 2.068094 -0.040934 -0.051433
  C 3.087837 0.079886 0.249429
  C 3.452664 0.616620 1.585429
  C 2.311955 0.995000 2.527115
  H 2.691111 1.367970 3.455623
  C 4.052838 -0.292391 -0.677265
  C 4.710233 -0.330116 -0.771309
  C 5.041510 -0.866233 -2.107783
  C 4.441771 -1.374360 -3.374531
  C 2.930485 -1.448870 -3.561009
  H 2.690285 -1.837034 -4.528759
  O 5.516273 -0.840195 -2.042961
  H 4.079554 1.503539 1.437775
  H 4.079473 -0.125975 2.092440
  H 1.685157 0.124457 2.731043
  H 1.685281 1.764768 2.072115
  H 3.989428 -0.753266 -1.825200
  H 5.442186 -0.031985 -0.028889
  H 4.858867 -2.375901 -3.531488
  H 4.859198 -0.759191 -4.180163
  H 2.489068 -0.455018 -3.473907
  H 2.488732 -2.106839 -2.811257
  H 4.705219 -0.400117 -0.945043
 23
 0.000000
  H 2.052053 -0.023348 -0.007611
  C 3.071799 0.097469 0.293244
  C 3.436637 0.634205 1.629240
  C 2.295936 1.012590 2.570934
  H 2.675100 1.385561 3.499438
  C 4.036792 -0.274812 -0.633457
  C 4.717878 -0.317831 -0.740685
  C 5.057447 -0.887054 -2.159672
  C 4.457660 -1.395178 -3.426398
  C 2.946367 -1.469669 -3.612826
  H 2.706131 -1.857833 -4.580567
  O 5.531130 -0.859722 -2.091624
  H 4.063528 1.521122 1.481579
  H 4.063448 -0.108391 2.136248
  H 1.669137 0.142050 2.774868
  H 1.669261 1.782359 2.115937
  H 3.989183 -0.765519 -1.855692
  H 5.458856 -0.022808 -0.006016
  H 4.874738 -2.396726 -3.583364
  H 4.875069 -0.780018 -4.232046
  H 2.504966 -0.475811 -3.525714
  H 2.504629 -2.127629 -2.863058
  H 4.581992 -0.417436 -0.988206
 23
 0.000000
  H 2.022441 -0.002357 0.044700
  C 3.043852 0.116494 0.340651
  C 3.416141 0.652522 1.674874
  C 2.280709 1.033104 2.622036
  H 2.665049 1.405342 3.548705
  C 4.003662 -0.257646 -0.590674
  C 4.717484 -0.307115 -0.713976
  C 5.072840 -0.907642 -2.210979
  C 4.478142 -1.416601 -3.479768
  C 2.967607 -1.493188 -3.671420
  H 2.731258 -1.881688 -4.639983
  O 5.554531 -0.878163 -2.137584
  H 4.044024 1.538230 1.524196
  H 4.043948 -0.091281 2.178870
  H 1.653220 0.163773 2.828987
  H 1.653340 1.804080 2.170050
  H 3.960689 -0.782372 -1.897636
  H 5.465436 -0.014541 0.014580
  H 4.897149 -2.417568 -3.635285
  H 4.897480 -0.800863 -4.283973
  H 2.524529 -0.499944 -3.585841
  H 2.524194 -2.151759 -2.923179
  H 4.464901 -0.434158 -1.029881
