 20
 0.000000
  C 1.009068 0.117710 0.342043
  C 2.481960 0.115596 0.340945
  C 3.210639 0.593339 1.530541
  H 2.530830 0.908803 2.314119
  C 3.133124 -0.340885 -0.793628
  C 4.517639 -0.400626 -0.943876
  C 5.190075 -0.854153 -2.077464
  C 4.551122 -1.351056 -3.313848
  H 3.472061 -1.335939 -3.272613
  O 6.498082 -0.868894 -2.120600
  H 0.596506 0.492027 1.272337
  H 0.630343 -0.889653 0.163922
  H 0.632372 0.722836 -0.483719
  H 3.858680 1.431581 1.272597
  H 3.857674 -0.190837 1.924883
  H 2.508662 -0.668882 -1.610409
  H 5.129335 -0.068113 -0.115912
  H 4.897319 -2.365974 -3.509141
  H 4.895320 -0.751923 -4.156873
  H 6.942654 -0.544112 -1.314436
 20
 0.006225
  C 1.007968 0.127251 0.337547
  C 2.482830 0.095669 0.353474
  C 3.197714 0.520572 1.571375
  H 2.524424 0.588406 2.420471
  C 3.139446 -0.352218 -0.784994
  C 4.523167 -0.359195 -0.953195
  C 5.197999 -0.797819 -2.090481
  C 4.564198 -1.356330 -3.302839
  H 3.485559 -1.399991 -3.240066
  O 6.506192 -0.742822 -2.159434
  H 0.594052 0.522113 1.259492
  H 0.615344 -0.877965 0.175093
  H 0.649577 0.724181 -0.502141
  H 3.633761 1.509870 1.415518
  H 4.015530 -0.153918 1.815367
  H 2.517380 -0.696504 -1.597803
  H 5.131025 0.018556 -0.142016
  H 4.961243 -2.355527 -3.481635
  H 4.858644 -0.758992 -4.165645
  H 6.947311 -0.376815 -1.369993
 20
 1.342655
  C 1.041424 0.363238 0.258514
  C 2.513629 0.194161 0.320059
  C 3.190656 0.413838 1.610002
  H 2.483916 0.358551 2.432699
  C 3.139797 -0.347005 -0.795260
  C 4.519950 -0.344053 -0.992885
  C 5.181319 -0.867199 -2.101250
  C 4.535458 -1.551105 -3.240985
  H 3.457317 -1.584531 -3.163843
  O 6.486994 -0.795931 -2.202852
  H 0.642345 0.742542 1.193666
  H 0.576698 -0.596224 0.032787
  H 0.780753 1.047041 -0.549054
  H 3.622564 1.418163 1.636525
  H 3.998376 -0.294911 1.772206
  H 2.504596 -0.737128 -1.576148
  H 5.129990 0.124857 -0.231973
  H 4.927755 -2.565278 -3.314180
  H 4.821381 -1.049403 -4.165281
  H 6.936462 -0.362422 -1.452851
 20
 5.834169
  C 1.041803 0.306129 0.282876
  C 2.525680 0.213939 0.341670
  C 3.158056 0.336428 1.664071
  H 2.446810 0.128840 2.446625
  C 3.141781 -0.347255 -0.776372
  C 4.505141 -0.230153 -1.037222
  C 5.171537 -0.773859 -2.125649
  C 4.543896 -1.558737 -3.212793
  H 3.485228 -1.690763 -3.091798
  O 6.471960 -0.668111 -2.239514
  H 0.621639 0.643576 1.214346
  H 0.628806 -0.667439 0.004693
  H 0.757224 1.022425 -0.494468
  H 3.545785 1.354442 1.814838
  H 3.986928 -0.349996 1.770137
  H 2.523059 -0.873055 -1.490420
  H 5.107089 0.286814 -0.296317
  H 5.014203 -2.532483 -3.255268
  H 4.774500 -1.082881 -4.181481
  H 6.912351 -0.190153 -1.512892
 20
 20.804781
  C 1.055280 0.169879 0.229815
  C 2.607635 0.201726 0.445316
  C 2.945914 0.333038 1.857600
  H 2.097514 0.167244 2.509944
  C 3.202213 -0.340057 -0.686509
  C 4.551531 -0.237771 -1.009171
  C 5.136153 -0.665868 -2.207234
  C 4.462828 -1.429627 -3.270741
  H 3.458036 -1.720049 -3.001559
  O 6.391317 -0.393271 -2.478506
  H 0.607237 0.412410 1.180341
  H 0.849476 -0.873017 -0.010879
  H 0.807550 0.885935 -0.534952
  H 3.278509 1.353848 2.049308
  H 3.784078 -0.301687 2.126789
  H 2.555359 -0.830581 -1.423891
  H 5.192326 0.214445 -0.259468
  H 5.014464 -2.364339 -3.384361
  H 4.516884 -0.915341 -4.219991
  H 6.835988 0.186248 -1.801266
 20
 42.417739
  C 1.197159 0.361732 0.113758
  C 2.842703 0.311534 0.444791
  C 2.942889 0.459167 1.884157
  H 1.969551 0.541424 2.395040
  C 3.319379 -0.348908 -0.679083
  C 4.666418 -0.277771 -1.081357
  C 5.182893 -0.846571 -2.232666
  C 4.413216 -1.595079 -3.254763
  H 3.346634 -1.624408 -3.044615
  O 6.468302 -0.744068 -2.513355
  H 0.763548 0.751639 1.006294
  H 0.998522 -0.675574 -0.069173
  H 1.160396 0.962358 -0.762117
  H 3.421659 1.421453 2.099082
  H 3.485985 -0.353217 2.341432
  H 2.616856 -0.777408 -1.404364
  H 5.339731 0.237575 -0.409989
  H 4.820160 -2.595593 -3.352932
  H 4.530312 -1.090334 -4.223539
  H 7.018175 -0.362049 -1.795100
 20
 69.648064
  C 1.098560 0.269139 0.078105
  C 3.009621 0.281121 0.501287
  C 2.934394 0.567641 1.921301
  H 1.926733 0.599483 2.318440
  C 3.399580 -0.350784 -0.624005
  C 4.748658 -0.347325 -1.056086
  C 5.188869 -0.883094 -2.241168
  C 4.350809 -1.514369 -3.290143
  H 3.299121 -1.522112 -3.052951
  O 6.471125 -0.866914 -2.563846
  H 0.658038 0.626742 0.991505
  H 1.004050 -0.776649 -0.122169
  H 1.134316 0.959677 -0.737001
  H 3.327268 1.562490 2.090876
  H 3.511146 -0.169686 2.504554
  H 2.701441 -0.864299 -1.256499
  H 5.455902 0.178949 -0.427971
  H 4.696435 -2.545517 -3.447046
  H 4.496135 -0.975256 -4.222067
  H 7.039757 -0.465217 -1.883175
 20
 89.845657
  C 0.867376 0.234384 0.012068
  C 3.162672 0.274223 0.559569
  C 3.036281 0.613659 1.937801
  H 2.006739 0.624073 2.276968
  C 3.501051 -0.304143 -0.536589
  C 4.848208 -0.357068 -1.034778
  C 5.212305 -0.903087 -2.241860
  C 4.311130 -1.514138 -3.259381
  H 3.263562 -1.496517 -2.973526
  O 6.482467 -0.915486 -2.641816
  H 0.506299 0.622548 0.937386
  H 0.769647 -0.821533 -0.161568
  H 0.936345 0.907550 -0.816189
  H 3.401355 1.629864 2.110882
  H 3.564651 -0.111975 2.565167
  H 2.776158 -0.730403 -1.191486
  H 5.604581 0.072146 -0.403024
  H 4.622729 -2.542753 -3.431084
  H 4.433372 -0.986067 -4.195581
  H 7.080369 -0.521880 -2.006852
 20
 96.147577
  C 0.730786 0.269908 0.046950
  C 3.241364 0.305744 0.558911
  C 3.092245 0.616846 1.919939
  H 2.076741 0.591964 2.247615
  C 3.526997 -0.290007 -0.544708
  C 4.879670 -0.365693 -1.077810
  C 5.192008 -0.939901 -2.250848
  C 4.267165 -1.563500 -3.207226
  H 3.236198 -1.513956 -2.896162
  O 6.451421 -1.003793 -2.684902
  H 0.404542 0.642784 0.988989
  H 0.640971 -0.784894 -0.139836
  H 0.807801 0.956881 -0.772821
  H 3.428797 1.637538 2.110862
  H 3.626738 -0.103552 2.537750
  H 2.789290 -0.715067 -1.168262
  H 5.669217 0.071548 -0.470135
  H 4.559757 -2.599458 -3.345094
  H 4.376219 -1.068151 -4.167985
  H 7.076335 -0.605572 -2.075662
 20
 98.292849
  C 0.767387 -0.000460 -0.009051
  C 3.412996 0.283187 0.654504
  C 3.145885 0.679058 1.970913
  H 2.107688 0.483353 2.228991
  C 3.710557 -0.245488 -0.483026
  C 4.982826 -0.178342 -1.163969
  C 5.221527 -0.714680 -2.379385
  C 4.250101 -1.446985 -3.240267
  H 3.258911 -1.512672 -2.809905
  O 6.430953 -0.630735 -2.954045
  H 0.405753 0.381034 0.922989
  H 0.736885 -1.058372 -0.169455
  H 0.799758 0.665282 -0.846279
  H 3.281841 1.756361 2.095172
  H 3.751984 0.113584 2.680910
  H 2.948159 -0.760852 -1.050009
  H 5.775827 0.338449 -0.645053
  H 4.628520 -2.450761 -3.425109
  H 4.189780 -0.946596 -4.204951
  H 7.076870 -0.155175 -2.408708
 20
 91.862787
  C 1.141860 0.036253 -0.773320
  C 3.763298 0.250209 1.084731
  C 3.221882 0.750163 2.279611
  H 2.125034 0.686449 2.206919
  C 3.913219 -0.251710 -0.064334
  C 5.017157 -0.595448 -0.910860
  C 4.922307 -1.089980 -2.160435
  C 3.670473 -1.378809 -2.917686
  H 2.770666 -1.133532 -2.367087
  O 6.020642 -1.385256 -2.876417
  H 0.682540 0.458470 0.094976
  H 0.930737 -0.993005 -0.993651
  H 1.395756 0.702800 -1.574305
  H 3.447964 1.806934 2.430056
  H 3.517270 0.152300 3.143932
  H 2.871336 -0.391874 -0.528352
  H 5.990765 -0.434535 -0.472091
  H 3.652517 -2.435802 -3.179544
  H 3.684234 -0.821927 -3.853175
  H 6.845760 -1.206390 -2.399639
 20
 72.936452
  C 1.323550 -0.336850 -0.958114
  C 3.556639 0.470985 0.974744
  C 3.181635 0.796121 2.291462
  H 2.104717 0.639425 2.404965
  C 3.849832 -0.031372 -0.124072
  C 4.961386 -0.275589 -0.961222
  C 4.992886 -0.832189 -2.213112
  C 3.847912 -1.311196 -3.027830
  H 2.891834 -1.177543 -2.552353
  O 6.150813 -0.996312 -2.848761
  H 0.706902 -0.041114 -0.132059
  H 1.311283 -1.382133 -1.227329
  H 1.362565 0.372999 -1.768171
  H 3.373156 1.843861 2.517576
  H 3.676691 0.143156 3.007783
  H 2.512587 -0.317155 -0.647741
  H 5.899117 0.026535 -0.515736
  H 3.998713 -2.366507 -3.257144
  H 3.856480 -0.788670 -3.983944
  H 6.918593 -0.693175 -2.336752
 20
 55.167001
  C 1.263633 -0.240761 -0.909204
  C 3.717919 0.491202 1.043971
  C 3.284574 0.862208 2.329833
  H 2.202889 0.754469 2.416892
  C 4.015260 -0.030930 -0.036759
  C 5.029131 -0.346176 -0.929331
  C 4.982789 -0.931885 -2.192995
  C 3.782783 -1.347394 -2.935805
  H 2.862686 -1.141125 -2.414121
  O 6.092532 -1.154746 -2.846865
  H 0.652119 0.119816 -0.098173
  H 1.032750 -1.260596 -1.186523
  H 1.232850 0.432448 -1.755813
  H 3.539933 1.899091 2.540166
  H 3.740806 0.207104 3.069910
  H 2.326009 -0.281791 -0.575733
  H 6.011588 -0.087066 -0.547814
  H 3.853651 -2.413999 -3.150694
  H 3.777570 -0.847790 -3.904782
  H 6.907311 -0.894900 -2.378891
 20
 45.457763
  C 1.129967 -0.222199 -0.855631
  C 3.827341 0.485309 1.023721
  C 3.268650 0.808899 2.279707
  H 2.183739 0.693804 2.278606
  C 4.229948 0.025441 -0.045044
  C 5.190182 -0.292344 -0.979874
  C 5.061077 -0.911740 -2.226998
  C 3.801893 -1.384793 -2.820932
  H 2.943889 -1.197803 -2.191756
  O 6.113596 -1.114236 -2.971715
  H 0.525819 0.083015 -0.011948
  H 0.865092 -1.230585 -1.147800
  H 0.965184 0.457400 -1.681836
  H 3.517246 1.837003 2.546418
  H 3.692578 0.146451 3.036999
  H 2.175873 -0.185304 -0.571954
  H 6.193197 -0.009342 -0.671313
  H 3.885247 -2.452538 -3.028219
  H 3.663134 -0.909474 -3.792640
  H 6.965605 -0.808147 -2.604598
 20
 43.446437
  C 1.065669 -0.048684 -0.933326
  C 3.893768 0.414819 1.063047
  C 3.236212 0.722612 2.276289
  H 2.152797 0.695961 2.168110
  C 4.319210 0.014339 -0.021726
  C 5.252043 -0.278329 -0.979691
  C 5.085697 -0.922578 -2.206011
  C 3.822345 -1.507036 -2.683469
  H 3.019083 -1.410355 -1.964806
  O 6.096531 -1.064151 -3.023419
  H 0.494253 0.224010 -0.054380
  H 0.763578 -1.031104 -1.243818
  H 0.844556 0.666276 -1.725285
  H 3.554261 1.704624 2.630810
  H 3.537078 -0.006235 3.033491
  H 2.121316 -0.064734 -0.721768
  H 6.254403 0.052485 -0.725020
  H 3.986183 -2.559644 -2.916454
  H 3.542546 -1.044355 -3.631547
  H 6.949582 -0.689272 -2.724373
