 28
 0.000000
  C 0.905902 0.048645 0.273637
  C 2.396777 0.059192 0.086655
  C 3.243057 -0.012105 1.350280
  C 2.526318 -0.087994 2.695106
  H 3.248294 -0.133562 3.502711
  C 2.990423 0.127453 -1.123052
  C 2.348416 0.204852 -2.494735
  C 0.837481 0.217328 -2.715757
  C 0.523890 0.301496 -4.207428
  C 4.451888 0.132571 -1.213695
  C 5.189010 0.194923 -2.318817
  H 6.266399 0.194341 -2.308441
  H 0.612424 -0.010176 1.316009
  H 0.461191 -0.815293 -0.213383
  H 0.461192 0.961886 -0.113101
  H 3.889216 0.870846 1.379131
  H 3.889216 -0.892694 1.279622
  H 1.898518 -0.976311 2.748612
  H 1.898510 0.788660 2.848207
  H 2.739170 -0.643478 -3.067540
  H 2.739169 1.112239 -2.968470
  H 0.383188 1.077915 -2.226518
  H 0.383189 -0.692834 -2.326437
  H 0.937127 1.209960 -4.641176
  H -0.552793 0.310321 -4.363808
  H 0.937128 -0.552411 -4.740622
  H 4.995446 0.080059 -0.283051
  H 4.804520 0.251651 -3.324107
 28
 7.022478
  C 0.924418 0.049189 0.263985
  C 2.413345 0.060317 0.066731
  C 3.265218 -0.010431 1.320624
  C 2.476209 -0.094323 2.807263
  H 3.205679 -0.139457 3.607174
  C 3.000367 0.128711 -1.145334
  C 2.351042 0.205909 -2.513462
  C 0.838900 0.217916 -2.726176
  C 0.519980 0.302027 -4.216848
  C 4.461770 0.134281 -1.243982
  C 5.192978 0.196772 -2.351563
  H 6.271106 0.196174 -2.340948
  H 0.642565 -0.009801 1.309363
  H 0.476033 -0.814058 -0.221091
  H 0.476034 0.961525 -0.120899
  H 3.908430 0.870974 1.352665
  H 3.908431 -0.889843 1.253309
  H 1.852504 -0.981927 2.859984
  H 1.852494 0.781712 2.959504
  H 2.739792 -0.642253 -3.087884
  H 2.739790 1.113309 -2.988821
  H 0.386715 1.078278 -2.234522
  H 0.386716 -0.692293 -2.334431
  H 0.932047 1.210490 -4.651729
  H -0.557166 0.310673 -4.370050
  H 0.932048 -0.551748 -4.751166
  H 5.009728 0.081916 -0.315944
  H 4.802258 0.253354 -3.354292
 28
 22.008025
  C 0.947512 0.049048 0.266484
  C 2.432746 0.061301 0.049298
  C 3.289187 -0.008260 1.282167
  C 2.413504 -0.099721 2.902941
  H 3.155592 -0.143906 3.686059
  C 3.011630 0.129910 -1.166579
  C 2.352773 0.206854 -2.530206
  C 0.839185 0.218226 -2.731699
  C 0.515206 0.302289 -4.221469
  C 4.473408 0.136002 -1.274492
  C 5.200507 0.198718 -2.386045
  H 6.279100 0.197688 -2.367784
  H 0.692673 -0.010316 1.318480
  H 0.491247 -0.812669 -0.214442
  H 0.491247 0.959397 -0.114448
  H 3.922666 0.870493 1.338034
  H 3.922670 -0.887718 1.238824
  H 1.800316 -0.987363 2.937918
  H 1.800309 0.778344 3.037554
  H 2.739624 -0.641104 -3.106299
  H 2.739625 1.114235 -3.007246
  H 0.389715 1.078143 -2.236792
  H 0.389715 -0.691910 -2.336670
  H 0.926907 1.210628 -4.656963
  H -0.562200 0.310814 -4.372551
  H 0.926903 -0.551289 -4.756379
  H 5.025515 0.083730 -0.348092
  H 4.802295 0.255100 -3.385248
 28
 38.376181
  C 0.964284 0.049647 0.255843
  C 2.449787 0.062492 0.028195
  C 3.316806 -0.006678 1.254117
  C 2.358188 -0.105818 3.010966
  H 3.117766 -0.149070 3.777534
  C 3.023139 0.131307 -1.191325
  C 2.355964 0.207996 -2.550432
  C 0.840980 0.218619 -2.738653
  C 0.506642 0.302551 -4.226121
  C 4.483136 0.137720 -1.304956
  C 5.206495 0.200474 -2.417166
  H 6.284097 0.199096 -2.392735
  H 0.726900 -0.009868 1.310527
  H 0.503471 -0.810670 -0.223435
  H 0.503471 0.958421 -0.123607
  H 3.944083 0.876748 1.337013
  H 3.944089 -0.893821 1.237106
  H 1.751822 -1.000086 3.027385
  H 1.751810 0.780926 3.127884
  H 2.740097 -0.639821 -3.128583
  H 2.740102 1.115474 -3.029540
  H 0.395402 1.078102 -2.239436
  H 0.395400 -0.691571 -2.339291
  H 0.915911 1.210876 -4.663846
  H -0.571579 0.310723 -4.370934
  H 0.915909 -0.550765 -4.763246
  H 5.037123 0.085498 -0.379450
  H 4.803051 0.256701 -3.413629
 28
 54.725398
  C 0.988400 0.049471 0.258996
  C 2.468554 0.063483 0.010669
  C 3.341116 -0.004677 1.218676
  C 2.297581 -0.111432 3.110479
  H 3.070568 -0.153687 3.859367
  C 3.032627 0.132472 -1.211948
  C 2.357224 0.208984 -2.567936
  C 0.841066 0.219073 -2.746690
  C 0.498674 0.302907 -4.232408
  C 4.492704 0.139192 -1.331019
  C 5.215956 0.202250 -2.448629
  H 6.293865 0.200649 -2.420244
  H 0.775380 -0.010425 1.320421
  H 0.520469 -0.810047 -0.214157
  H 0.520469 0.956762 -0.114458
  H 3.957411 0.878806 1.327500
  H 3.957419 -0.894795 1.227422
  H 1.700475 -1.007453 3.106643
  H 1.700468 0.779323 3.207466
  H 2.739074 -0.638720 -3.147791
  H 2.739070 1.116527 -3.048742
  H 0.398468 1.078173 -2.244463
  H 0.398467 -0.691072 -2.344293
  H 0.906029 1.211265 -4.671906
  H -0.580141 0.310805 -4.372346
  H 0.906030 -0.550249 -4.771303
  H 5.047906 0.086965 -0.405417
  H 4.807912 0.258368 -3.443178
 28
 69.486074
  C 1.010240 0.049933 0.250779
  C 2.490647 0.064659 -0.010201
  C 3.369528 -0.003198 1.192433
  C 2.233942 -0.117342 3.215171
  H 3.019135 -0.158876 3.951306
  C 3.048602 0.133995 -1.238967
  C 2.363562 0.210133 -2.588326
  C 0.845863 0.219259 -2.750026
  C 0.487017 0.302864 -4.231706
  C 4.506519 0.141105 -1.364958
  C 5.219818 0.203892 -2.477745
  H 6.296819 0.202278 -2.449133
  H 0.814190 -0.010097 1.314593
  H 0.537507 -0.809336 -0.219044
  H 0.537507 0.956601 -0.119394
  H 3.976425 0.884111 1.330126
  H 3.976428 -0.900357 1.229435
  H 1.643494 -1.018074 3.189244
  H 1.643482 0.780588 3.290737
  H 2.741084 -0.637433 -3.171146
  H 2.741089 1.117891 -3.072107
  H 0.408637 1.078138 -2.242134
  H 0.408637 -0.691299 -2.341977
  H 0.889441 1.211386 -4.675363
  H -0.593153 0.310124 -4.360342
  H 0.889435 -0.549975 -4.774743
  H 5.064200 0.088985 -0.441222
  H 4.805465 0.259818 -3.468907
 28
 82.113270
  C 1.035856 0.049766 0.253775
  C 2.510960 0.065696 -0.028545
  C 3.394192 -0.001322 1.159224
  C 2.167422 -0.122875 3.313259
  H 2.962717 -0.163607 4.035217
  C 3.056911 0.134982 -1.256421
  C 2.363262 0.210946 -2.602706
  C 0.844393 0.219465 -2.753650
  C 0.474848 0.302929 -4.232818
  C 4.516492 0.142293 -1.385973
  C 5.240772 0.206131 -2.517395
  H 6.318856 0.204393 -2.486600
  H 0.862784 -0.010590 1.323366
  H 0.556467 -0.809056 -0.208748
  H 0.556467 0.955169 -0.109195
  H 3.988999 0.886672 1.322296
  H 3.989009 -0.902025 1.221367
  H 1.585061 -1.025029 3.266631
  H 1.585057 0.778783 3.368413
  H 2.737724 -0.636630 -3.187718
  H 2.737723 1.118945 -3.088655
  H 0.410895 1.077841 -2.242406
  H 0.410891 -0.690973 -2.342213
  H 0.874106 1.211564 -4.679143
  H -0.606133 0.309782 -4.354205
  H 0.874104 -0.549735 -4.778528
  H 5.073303 0.090012 -0.459395
  H 4.824012 0.262055 -3.508545
 28
 92.519347
  C 1.063362 0.049689 0.255118
  C 2.537937 0.066659 -0.045636
  C 3.427710 -0.000116 1.137821
  C 2.101221 -0.128795 3.418133
  H 2.904722 -0.168998 4.130710
  C 3.077399 0.136857 -1.289681
  C 2.373066 0.212409 -2.628637
  C 0.852777 0.219931 -2.761924
  C 0.465729 0.303130 -4.236401
  C 4.530053 0.144750 -1.429545
  C 5.219606 0.206728 -2.528001
  H 6.295206 0.205337 -2.503334
  H 0.909360 -0.010825 1.327503
  H 0.578088 -0.809502 -0.201691
  H 0.578088 0.954815 -0.102133
  H 4.011130 0.890794 1.327799
  H 4.011136 -0.906734 1.226371
  H 1.525319 -1.033934 3.349896
  H 1.525310 0.778269 3.452152
  H 2.742682 -0.634836 -3.216845
  H 2.742686 1.120448 -3.117807
  H 0.424933 1.078223 -2.245000
  H 0.424929 -0.691063 -2.344831
  H 0.859352 1.211958 -4.687241
  H -0.616545 0.309278 -4.345300
  H 0.859347 -0.549211 -4.786612
  H 5.092006 0.092829 -0.509348
  H 4.792349 0.262259 -3.512162
 28
 98.811515
  C 1.064656 0.049133 0.264937
  C 2.537092 0.067477 -0.060126
  C 3.442524 0.001598 1.107447
  C 2.063667 -0.135738 3.541170
  H 2.928959 -0.171374 4.172780
  C 3.069722 0.138168 -1.312935
  C 2.370207 0.213878 -2.654713
  C 0.846402 0.221067 -2.782059
  C 0.452041 0.304090 -4.253403
  C 4.532307 0.145264 -1.438679
  C 5.248494 0.207964 -2.549910
  H 6.325148 0.205657 -2.509004
  H 0.942918 -0.011526 1.339928
  H 0.571715 -0.808678 -0.185513
  H 0.571713 0.952174 -0.086152
  H 3.989004 0.896905 1.365284
  H 3.989003 -0.917014 1.262925
  H 1.514575 -1.049202 3.421635
  H 1.514563 0.785371 3.525157
  H 2.741543 -0.633872 -3.242265
  H 2.741550 1.122353 -3.143178
  H 0.421972 1.079026 -2.262303
  H 0.421968 -0.689916 -2.362114
  H 0.844087 1.212895 -4.705157
  H -0.630876 0.310028 -4.358567
  H 0.844081 -0.548126 -4.804533
  H 5.070996 0.092428 -0.502250
  H 4.824745 0.263664 -3.537103
 28
 105.220072
  C 1.116032 0.050283 0.244615
  C 2.580310 0.069367 -0.093583
  C 3.473781 0.004193 1.061491
  C 1.971515 -0.139495 3.607778
  H 2.829834 -0.175431 4.244703
  C 3.091173 0.138700 -1.322326
  C 2.376418 0.213740 -2.652236
  C 0.856082 0.219457 -2.753500
  C 0.435487 0.302166 -4.219297
  C 4.539831 0.146400 -1.458754
  C 5.246940 0.209492 -2.576940
  H 6.322475 0.207698 -2.545125
  H 1.003949 -0.010789 1.326907
  H 0.620297 -0.807551 -0.201236
  H 0.620297 0.952828 -0.101900
  H 4.006095 0.897384 1.338666
  H 4.006111 -0.914521 1.236429
  H 1.428423 -1.049867 3.470808
  H 1.428411 0.780502 3.574092
  H 2.738945 -0.633174 -3.244670
  H 2.738945 1.121915 -3.145636
  H 0.440572 1.076776 -2.225759
  H 0.440572 -0.691786 -2.325551
  H 0.818639 1.211676 -4.678363
  H -0.648609 0.307015 -4.305153
  H 0.818638 -0.549934 -4.777773
  H 5.085188 0.093771 -0.525986
  H 4.815008 0.264940 -3.559672
 28
 109.254935
  C 1.141015 0.049701 0.254990
  C 2.607113 0.069991 -0.104624
  C 3.510536 0.004700 1.052489
  C 1.880872 -0.145146 3.707948
  H 2.758900 -0.179437 4.315703
  C 3.110186 0.140644 -1.356772
  C 2.381577 0.215070 -2.675815
  C 0.860572 0.219160 -2.748246
  C 0.410212 0.301354 -4.204943
  C 4.566784 0.148754 -1.500444
  C 5.275017 0.212188 -2.624706
  H 6.351048 0.210545 -2.595550
  H 1.043129 -0.011345 1.336832
  H 0.640531 -0.809943 -0.185964
  H 0.640534 0.953496 -0.086457
  H 4.004829 0.900134 1.387023
  H 4.004840 -0.922698 1.284169
  H 1.355765 -1.057081 3.525479
  H 1.355769 0.781506 3.629231
  H 2.735577 -0.631033 -3.273165
  H 2.735575 1.122994 -3.174192
  H 0.455206 1.076755 -2.210628
  H 0.455208 -0.693456 -2.310522
  H 0.782962 1.211284 -4.671904
  H -0.675347 0.304939 -4.268430
  H 0.782963 -0.550286 -4.771311
  H 5.108141 0.095946 -0.564490
  H 4.838891 0.267507 -3.605182
 28
 112.589595
  C 1.157554 0.049262 0.262706
  C 2.620413 0.070564 -0.114829
  C 3.531522 0.005818 1.032617
  C 1.827852 -0.152002 3.829359
  H 2.715586 -0.185638 4.425495
  C 3.113469 0.141337 -1.369109
  C 2.378326 0.215931 -2.691099
  C 0.852314 0.219971 -2.762656
  C 0.400387 0.302094 -4.218083
  C 4.572142 0.149670 -1.516766
  C 5.276716 0.213107 -2.641044
  H 6.354473 0.211613 -2.614507
  H 1.072900 -0.011712 1.343284
  H 0.653015 -0.809670 -0.171208
  H 0.653018 0.951558 -0.071826
  H 4.018848 0.903704 1.376197
  H 4.018845 -0.925004 1.273000
  H 1.304442 -1.066652 3.640456
  H 1.304433 0.778093 3.744554
  H 2.732187 -0.631407 -3.290378
  H 2.732198 1.125318 -3.191268
  H 0.447582 1.076636 -2.225508
  H 0.447573 -0.691687 -2.325283
  H 0.772459 1.211558 -4.685127
  H -0.685604 0.305617 -4.280479
  H 0.772449 -0.549052 -4.784463
  H 5.115309 0.096776 -0.579272
  H 4.836739 0.268473 -3.622284
 28
 115.121031
  C 1.182868 0.049421 0.259953
  C 2.642627 0.071402 -0.129622
  C 3.554769 0.006847 1.014434
  C 1.747444 -0.157925 3.934340
  H 2.634822 -0.191389 4.527454
  C 3.126535 0.142405 -1.387988
  C 2.382031 0.216357 -2.698625
  C 0.858565 0.219322 -2.751132
  C 0.388557 0.301128 -4.200929
  C 4.581251 0.151352 -1.546508
  C 5.278188 0.215123 -2.676740
  H 6.354703 0.214098 -2.658504
  H 1.106102 -0.011755 1.344103
  H 0.675250 -0.810606 -0.170547
  H 0.675252 0.952421 -0.071064
  H 4.030616 0.903642 1.370224
  H 4.030624 -0.924283 1.267077
  H 1.229458 -1.069979 3.734996
  H 1.229453 0.770757 3.838869
  H 2.729442 -0.629625 -3.300688
  H 2.729441 1.124686 -3.201698
  H 0.460117 1.076230 -2.208236
  H 0.460115 -0.693216 -2.308078
  H 0.754258 1.211212 -4.672774
  H -0.697928 0.303883 -4.249699
  H 0.754256 -0.550106 -4.772159
  H 5.128911 0.098686 -0.613050
  H 4.831382 0.270209 -3.653042
 28
 116.799455
  C 1.204290 0.048882 0.269503
  C 2.659976 0.071923 -0.138870
  C 3.578445 0.007713 0.999092
  C 1.677723 -0.164361 4.048370
  H 2.569765 -0.197571 4.636997
  C 3.132502 0.143064 -1.399688
  C 2.378103 0.216957 -2.709279
  C 0.851950 0.219414 -2.752778
  C 0.372600 0.301054 -4.199645
  C 4.588272 0.152372 -1.564611
  C 5.280589 0.216253 -2.696809
  H 6.358209 0.215465 -2.682795
  H 1.140927 -0.012252 1.352928
  H 0.692346 -0.811057 -0.153799
  H 0.692349 0.950982 -0.054372
  H 4.045460 0.906201 1.365711
  H 4.045464 -0.926306 1.262302
  H 1.162200 -1.078264 3.839778
  H 1.162195 0.767195 3.943919
  H 2.722573 -0.629803 -3.314328
  H 2.722580 1.126412 -3.215243
  H 0.456687 1.075813 -2.207675
  H 0.456682 -0.692869 -2.307471
  H 0.734905 1.210999 -4.673656
  H -0.714294 0.303425 -4.241622
  H 0.734900 -0.549795 -4.773009
  H 5.138910 0.099698 -0.631023
  H 4.829126 0.271301 -3.672437
