 22
 0.000000
  C 0.998446 0.128302 0.372021
  C 2.466513 0.141366 0.403676
  C 3.226053 0.612415 1.574592
  C 2.444240 1.099724 2.787320
  C 3.390329 1.546186 3.898247
  C 3.131908 -0.317501 -0.738021
  C 4.528473 -0.390652 -0.922131
  C 5.062166 -0.855381 -2.080236
  H 4.435965 -1.181948 -2.892629
  H 6.127153 -0.914158 -2.227814
  H 0.541475 0.494495 1.282487
  H 0.641688 -0.885287 0.169648
  H 0.641476 0.719653 -0.475557
  H 3.901582 1.414191 1.246086
  H 3.901921 -0.193328 1.892313
  H 1.805874 0.301417 3.171623
  H 1.805765 1.941945 2.512430
  H 4.026503 0.726786 4.224380
  H 2.825004 1.892188 4.759583
  H 4.026430 2.363562 3.566648
  H 2.521137 -0.651494 -1.568248
  H 5.190398 -0.072128 -0.129667
 22
 13.782529
  C 0.977812 0.142892 0.408310
  C 2.431718 0.162051 0.455212
  C 3.193956 0.627095 1.611207
  C 2.419084 1.116554 2.829218
  C 3.374970 1.559866 3.932271
  C 3.168267 -0.342104 -0.799160
  C 4.540459 -0.404570 -0.956774
  C 5.135734 -0.907927 -2.211151
  H 4.516152 -1.235357 -3.025551
  H 6.199827 -0.959578 -2.341066
  H 0.511767 0.507577 1.315042
  H 0.627581 -0.871745 0.201450
  H 0.627386 0.731912 -0.443258
  H 3.869850 1.426359 1.277858
  H 3.870226 -0.180212 1.923704
  H 1.781895 0.320100 3.217904
  H 1.781835 1.960463 2.558745
  H 4.011126 0.738188 4.253377
  H 2.817226 1.907659 4.797980
  H 4.011031 2.375337 3.595450
  H 2.558577 -0.674677 -1.625861
  H 5.196672 -0.085657 -0.163425
 22
 41.247188
  C 0.923082 0.144385 0.412008
  C 2.361212 0.184667 0.511893
  C 3.170804 0.632323 1.624732
  C 2.420223 1.133710 2.871743
  C 3.406810 1.567002 3.950011
  C 3.185301 -0.378431 -0.889030
  C 4.517863 -0.404263 -0.955974
  C 5.200937 -0.924998 -2.254202
  H 4.593051 -1.251777 -3.066899
  H 6.275082 -0.945772 -2.307495
  H 0.422745 0.505287 1.310009
  H 0.591300 -0.880335 0.182434
  H 0.591210 0.724967 -0.462817
  H 3.850507 1.423311 1.265096
  H 3.850721 -0.187138 1.912603
  H 1.782895 0.337067 3.265386
  H 1.783149 1.981424 2.604394
  H 4.041549 0.738643 4.254659
  H 2.874785 1.920611 4.829498
  H 4.042006 2.375679 3.596517
  H 2.534578 -0.699937 -1.688236
  H 5.187205 -0.086576 -0.165763
 22
 73.582740
  C 0.867525 0.152220 0.431598
  C 2.296213 0.207016 0.567398
  C 3.130430 0.646463 1.659763
  C 2.411222 1.149988 2.912231
  C 3.423576 1.575445 3.970763
  C 3.214324 -0.412557 -0.974091
  C 4.527535 -0.417374 -0.988619
  C 5.291589 -0.957170 -2.334368
  H 4.693915 -1.287758 -3.156526
  H 6.355914 -0.956259 -2.333448
  H 0.342260 0.507016 1.314445
  H 0.554899 -0.866011 0.192794
  H 0.554699 0.721920 -0.445544
  H 3.806829 1.426317 1.285558
  H 3.807372 -0.175188 1.929333
  H 1.779597 0.360202 3.321300
  H 1.779842 2.003200 2.660783
  H 4.058023 0.741132 4.263077
  H 2.911762 1.933415 4.861109
  H 4.058072 2.379595 3.604312
  H 2.546321 -0.721467 -1.741729
  H 5.187390 -0.105029 -0.211508
 22
 104.537791
  C 0.838669 0.179274 0.498926
  C 2.234574 0.236633 0.641139
  C 3.071914 0.656585 1.685076
  C 2.379157 1.168925 2.959586
  C 3.415174 1.585488 3.995995
  C 3.259527 -0.461223 -1.095373
  C 4.578078 -0.450932 -1.072606
  C 5.383719 -0.992963 -2.423533
  H 4.797978 -1.324473 -3.247327
  H 6.448940 -0.976899 -2.384622
  H 0.302241 0.533104 1.379719
  H 0.533086 -0.848213 0.253805
  H 0.532840 0.751242 -0.388823
  H 3.749636 1.430639 1.288837
  H 3.749661 -0.176168 1.934617
  H 1.749819 0.385354 3.380205
  H 1.749960 2.025956 2.720922
  H 4.048038 0.747217 4.275751
  H 2.923530 1.946929 4.894991
  H 4.048384 2.384230 3.617495
  H 2.557815 -0.761531 -1.841937
  H 5.242710 -0.137208 -0.292088
 22
 126.153058
  C 0.728566 0.194968 0.537718
  C 2.120761 0.261845 0.708780
  C 3.000771 0.674076 1.734875
  C 2.373589 1.200625 3.033425
  C 3.462909 1.598249 4.025287
  C 3.332438 -0.558159 -1.312826
  C 4.632737 -0.517330 -1.211512
  C 5.481147 -0.992361 -2.434408
  H 4.953980 -1.336167 -3.294110
  H 6.542628 -0.935605 -2.314964
  H 0.159560 0.543500 1.400347
  H 0.444605 -0.825071 0.283576
  H 0.447020 0.755102 -0.352634
  H 3.680393 1.424614 1.313238
  H 3.675141 -0.163133 1.953342
  H 1.746507 0.427319 3.481329
  H 1.751860 2.071393 2.817093
  H 4.091492 0.747338 4.281206
  H 3.014962 1.970918 4.944092
  H 4.094924 2.385757 3.619503
  H 2.596928 -0.839308 -2.031178
  H 5.258714 -0.185544 -0.398795
 22
 138.672336
  C 0.669998 0.228134 0.644210
  C 2.069407 0.297267 0.782306
  C 2.943021 0.710616 1.805943
  C 2.331332 1.230072 3.115538
  C 3.429036 1.630879 4.091919
  C 3.441474 -0.621017 -1.547509
  C 4.746600 -0.599662 -1.427552
  C 5.579920 -1.048305 -2.542848
  H 5.090105 -1.393527 -3.437480
  H 6.643324 -1.010635 -2.390381
  H 0.105000 0.565142 1.521412
  H 0.388718 -0.796035 0.382767
  H 0.371584 0.798025 -0.240867
  H 3.618508 1.461476 1.371998
  H 3.630124 -0.124458 2.003660
  H 1.713753 0.447509 3.563992
  H 1.700364 2.096112 2.901837
  H 4.065395 0.785705 4.336441
  H 2.988740 1.995486 5.018945
  H 4.045809 2.426814 3.683520
  H 2.685937 -0.867142 -2.255174
  H 5.335487 -0.295135 -0.572762
 22
 146.060176
  C 0.640208 0.263863 0.748693
  C 2.044344 0.330190 0.853052
  C 2.901423 0.751821 1.892017
  C 2.275607 1.261927 3.208614
  C 3.358113 1.670199 4.184862
  C 3.543481 -0.674192 -1.736403
  C 4.864288 -0.666331 -1.644132
  C 5.675564 -1.124871 -2.718746
  H 5.202461 -1.479079 -3.614306
  H 6.739025 -1.135308 -2.573668
  H 0.088782 0.594386 1.632888
  H 0.355928 -0.758111 0.483258
  H 0.327620 0.834583 -0.130258
  H 3.573768 1.507722 1.460279
  H 3.595693 -0.073031 2.103415
  H 1.665776 0.468126 3.645281
  H 1.633177 2.119745 2.990363
  H 4.004978 0.832285 4.424661
  H 2.911807 2.023385 5.112970
  H 3.964524 2.474433 3.780710
  H 2.783646 -0.904184 -2.456165
  H 5.426598 -0.376391 -0.769692
 22
 148.959809
  C 0.598755 0.290254 0.837838
  C 2.004997 0.361003 0.932983
  C 2.855234 0.788441 1.981309
  C 2.227529 1.293452 3.293133
  C 3.306499 1.701720 4.269574
  C 3.635694 -0.720875 -1.905809
  C 4.971156 -0.703023 -1.846294
  C 5.766756 -1.195013 -2.875761
  H 5.305434 -1.581935 -3.772272
  H 6.831387 -1.267897 -2.724691
  H 0.046638 0.615232 1.723039
  H 0.320683 -0.729245 0.572112
  H 0.282723 0.859058 -0.036234
  H 3.523766 1.550068 1.559018
  H 3.548548 -0.035658 2.183629
  H 1.617767 0.496353 3.732526
  H 1.580734 2.156389 3.080465
  H 3.954233 0.867474 4.506898
  H 2.859090 2.051969 5.197959
  H 3.910273 2.504252 3.867899
  H 2.877407 -0.936766 -2.633396
  H 5.507678 -0.393632 -0.954884
 22
 148.012039
  C 0.563834 0.308309 0.909749
  C 1.968192 0.398500 1.025514
  C 2.813091 0.827583 2.072988
  C 2.169868 1.323818 3.386157
  C 3.251463 1.735054 4.377868
  C 3.742645 -0.741673 -2.040983
  C 5.088085 -0.685775 -2.053769
  C 5.830365 -1.281869 -3.049334
  H 5.350436 -1.746846 -3.891835
  H 6.886245 -1.453785 -2.913272
  H -0.008482 0.622254 1.788594
  H 0.306341 -0.719874 0.636284
  H 0.252385 0.879840 0.029860
  H 3.477923 1.599608 1.662950
  H 3.507114 0.000923 2.276521
  H 1.564694 0.522725 3.815571
  H 1.524521 2.177750 3.171150
  H 3.905443 0.896926 4.619596
  H 2.792153 2.080151 5.305994
  H 3.858715 2.550652 3.982548
  H 3.008089 -0.956844 -2.794844
  H 5.611074 -0.332933 -1.172519
 22
 145.852410
  C 0.539126 0.315356 0.970151
  C 1.926426 0.443798 1.134887
  C 2.765591 0.874904 2.183232
  C 2.107242 1.357712 3.494993
  C 3.178867 1.776875 4.490782
  C 3.878119 -0.752782 -2.137364
  C 5.234166 -0.692280 -2.239745
  C 5.853058 -1.397546 -3.232718
  H 5.291171 -1.868614 -4.019921
  H 6.900118 -1.652039 -3.163915
  H -0.070748 0.601317 1.833741
  H 0.320638 -0.716193 0.675029
  H 0.239529 0.885504 0.086112
  H 3.424012 1.655639 1.782629
  H 3.465110 0.052966 2.391561
  H 1.515242 0.549403 3.913533
  H 1.458702 2.196504 3.278255
  H 3.842992 0.949343 4.729068
  H 2.710685 2.106528 5.416709
  H 3.773402 2.605009 4.105787
  H 3.192410 -0.936570 -2.953499
  H 5.818088 -0.337980 -1.396520
 22
 144.047833
  C 0.485535 0.319265 1.018224
  C 1.857345 0.480826 1.236473
  C 2.708647 0.905024 2.263986
  C 2.070973 1.382007 3.588064
  C 3.152109 1.800525 4.572219
  C 3.973972 -0.774357 -2.233282
  C 5.331279 -0.683164 -2.388499
  C 5.891346 -1.488811 -3.339352
  H 5.290179 -1.951815 -4.108503
  H 6.918773 -1.816157 -3.256588
  H -0.162283 0.582990 1.862159
  H 0.300718 -0.713647 0.705142
  H 0.201991 0.889551 0.128114
  H 3.365329 1.684823 1.855381
  H 3.414291 0.083345 2.454346
  H 1.481372 0.571658 4.011494
  H 1.413591 2.222631 3.382260
  H 3.820746 0.976363 4.795594
  H 2.698013 2.122419 5.503746
  H 3.738691 2.627764 4.185050
  H 3.321039 -0.920219 -3.088498
  H 5.949840 -0.288325 -1.590943
 22
 139.193387
  C 0.458894 0.255495 1.026978
  C 1.807213 0.497595 1.289144
  C 2.671811 0.942402 2.289708
  C 2.061275 1.370094 3.648439
  C 3.156736 1.815338 4.600999
  C 4.181421 -0.657759 -2.418692
  C 5.494055 -0.472965 -2.469167
  C 5.784273 -1.570846 -3.289197
  H 5.240241 -1.786674 -4.189528
  H 6.433100 -2.350133 -2.916463
  H -0.232356 0.468663 1.850881
  H 0.346999 -0.783951 0.699316
  H 0.167479 0.819879 0.134205
  H 3.281799 1.757756 1.872675
  H 3.423983 0.152979 2.441151
  H 1.518114 0.528414 4.077547
  H 1.360688 2.187274 3.482714
  H 3.861423 1.011649 4.794156
  H 2.720021 2.112018 5.551933
  H 3.702258 2.668041 4.204134
  H 3.490837 -0.867675 -3.207907
  H 6.130989 -0.098273 -1.689382
