 23
 0.000000
  H 1.528269 0.151162 0.428256
  C 2.608574 0.140418 0.402272
  C 3.330849 0.616786 1.587030
  C 2.436613 1.078396 2.733659
  C 3.265417 1.555900 3.921800
  C 3.199381 -0.324229 -0.753548
  C 4.576599 -0.411251 -0.970262
  C 5.181797 -0.878393 -2.137279
  C 4.506965 -1.365168 -3.353172
  H 3.426527 -1.350755 -3.317485
  O 6.487024 -0.914109 -2.228023
  H 3.994546 1.441201 1.298322
  H 3.994030 -0.178265 1.949777
  H 1.792718 0.257300 3.054071
  H 1.793519 1.893218 2.396068
  H 3.898314 0.757092 4.301669
  H 2.615319 1.881284 4.729992
  H 3.899094 2.394731 3.642934
  H 2.540620 -0.642955 -1.547891
  H 5.242774 -0.093774 -0.177598
  H 4.852786 -2.380209 -3.554774
  H 4.852980 -0.769782 -4.199577
  H 6.964317 -0.597032 -1.437500
 23
 4.837448
  H 1.483159 0.172471 0.482000
  C 2.563835 0.144778 0.412934
  C 3.316916 0.616387 1.585265
  C 2.441766 1.082812 2.744871
  C 3.286525 1.556509 3.923453
  C 3.121858 -0.331334 -0.771566
  C 4.490775 -0.426487 -1.009051
  C 5.183573 -0.870086 -2.116829
  C 4.553323 -1.367657 -3.359464
  H 3.473102 -1.348247 -3.312326
  O 6.490064 -0.883104 -2.149872
  H 3.986673 1.432194 1.284769
  H 3.986688 -0.180339 1.933226
  H 1.797050 0.264975 3.072227
  H 1.797384 1.899871 2.414877
  H 3.919949 0.754570 4.295296
  H 2.648542 1.884953 4.739995
  H 3.920302 2.392435 3.636751
  H 2.449510 -0.646714 -1.556544
  H 5.279846 -0.160612 -0.345800
  H 4.898404 -2.382221 -3.560083
  H 4.899179 -0.772507 -4.204976
  H 6.947017 -0.561469 -1.347102
 23
 15.290380
  H 1.443471 0.180144 0.503250
  C 2.519702 0.147530 0.418247
  C 3.294576 0.611152 1.569089
  C 2.450359 1.081900 2.745824
  C 3.324522 1.549232 3.905443
  C 3.053867 -0.324563 -0.758483
  C 4.411100 -0.424395 -1.009086
  C 5.160068 -0.855442 -2.081947
  C 4.598027 -1.365975 -3.355571
  H 3.516577 -1.360860 -3.350759
  O 6.463895 -0.852662 -2.068386
  H 3.966338 1.420491 1.253477
  H 3.969901 -0.189360 1.900047
  H 1.807073 0.268402 3.086838
  H 1.803701 1.903098 2.430638
  H 3.960659 0.743087 4.262500
  H 2.707171 1.881245 4.736151
  H 3.957079 2.381101 3.605053
  H 2.374359 -0.640305 -1.542310
  H 5.291461 -0.207634 -0.470791
  H 4.960993 -2.376651 -3.538593
  H 4.965801 -0.765522 -4.187033
  H 6.902404 -0.528318 -1.250804
 23
 29.929246
  H 1.411383 0.190989 0.529693
  C 2.481658 0.152135 0.429535
  C 3.274004 0.607169 1.559199
  C 2.455814 1.082964 2.748529
  C 3.353488 1.543039 3.890254
  C 2.997225 -0.321347 -0.750344
  C 4.347962 -0.425694 -1.012212
  C 5.146567 -0.846441 -2.059643
  C 4.638453 -1.363600 -3.349501
  H 3.557320 -1.370370 -3.374523
  O 6.448257 -0.834249 -2.023100
  H 3.944625 1.409313 1.231040
  H 3.948039 -0.196848 1.875994
  H 1.813230 0.274644 3.100983
  H 1.809880 1.908425 2.445310
  H 3.990115 0.731892 4.235508
  H 2.753995 1.879450 4.732067
  H 3.986587 2.370450 3.578006
  H 2.309834 -0.635493 -1.530309
  H 5.301101 -0.252088 -0.581369
  H 5.017247 -2.367911 -3.521687
  H 5.022281 -0.760580 -4.168904
  H 6.887746 -0.503987 -1.191132
 23
 45.513874
  H 1.380739 0.196476 0.543618
  C 2.456375 0.154468 0.435924
  C 3.265160 0.610165 1.567078
  C 2.456139 1.090355 2.766704
  C 3.364681 1.547506 3.900988
  C 2.963653 -0.322636 -0.752660
  C 4.306806 -0.427611 -1.016254
  C 5.141645 -0.841519 -2.047637
  C 4.671872 -1.371758 -3.370704
  H 3.590581 -1.388571 -3.420988
  O 6.448320 -0.826263 -2.003573
  H 3.935126 1.408967 1.232643
  H 3.938093 -0.195533 1.877303
  H 1.813695 0.284311 3.124868
  H 1.810529 1.918132 2.468970
  H 4.001339 0.733983 4.241020
  H 2.773469 1.886096 4.747812
  H 3.997752 2.372576 3.583313
  H 2.274468 -0.633094 -1.523406
  H 5.303419 -0.292860 -0.682003
  H 5.063244 -2.374385 -3.535567
  H 5.068252 -0.765152 -4.183065
  H 6.887854 -0.501554 -1.185063
 23
 59.072932
  H 1.375554 0.198388 0.547194
  C 2.449550 0.155546 0.439938
  C 3.259446 0.611521 1.572882
  C 2.450792 1.093802 2.773412
  C 3.359858 1.549928 3.907039
  C 2.956813 -0.321952 -0.747616
  C 4.305599 -0.426104 -1.010819
  C 5.154739 -0.842764 -2.051082
  C 4.675505 -1.370826 -3.368876
  H 3.591514 -1.386351 -3.415509
  O 6.468453 -0.830338 -2.017065
  H 3.931198 1.409955 1.237875
  H 3.932032 -0.195855 1.883801
  H 1.807044 0.288874 3.132341
  H 1.806124 1.922728 2.475616
  H 3.995311 0.735552 4.246973
  H 2.769299 1.889766 4.753956
  H 3.994129 2.373874 3.588649
  H 2.259440 -0.633748 -1.520847
  H 5.346037 -0.328861 -0.771803
  H 5.064610 -2.375605 -3.533409
  H 5.069566 -0.762290 -4.182773
  H 6.920749 -0.507565 -1.206301
 23
 71.066301
  H 1.374032 0.196599 0.543585
  C 2.457673 0.155374 0.441055
  C 3.259183 0.612359 1.576211
  C 2.441859 1.094439 2.773835
  C 3.348732 1.555137 3.919068
  C 2.972994 -0.320812 -0.742423
  C 4.327873 -0.421180 -0.997240
  C 5.165737 -0.842463 -2.050899
  C 4.664688 -1.372152 -3.374070
  H 3.585645 -1.382385 -3.407836
  O 6.479203 -0.839343 -2.040487
  H 3.930405 1.409751 1.244593
  H 3.929831 -0.192001 1.889598
  H 1.795491 0.286230 3.130007
  H 1.795904 1.923894 2.471023
  H 3.985693 0.739830 4.264144
  H 2.751635 1.895215 4.764749
  H 3.984990 2.381800 3.603682
  H 2.290231 -0.627016 -1.501290
  H 5.373809 -0.359989 -0.848778
  H 5.046789 -2.380372 -3.543892
  H 5.051597 -0.765320 -4.193206
  H 6.959292 -0.516451 -1.229140
 23
 80.352410
  H 1.399685 0.194836 0.541120
  C 2.472562 0.156771 0.447295
  C 3.264000 0.615997 1.587197
  C 2.440054 1.095768 2.775911
  C 3.326611 1.552103 3.910179
  C 2.997715 -0.318711 -0.733104
  C 4.353369 -0.412059 -0.972041
  C 5.176690 -0.840116 -2.045723
  C 4.648211 -1.366531 -3.363259
  H 3.554856 -1.369171 -3.379351
  O 6.497672 -0.849499 -2.066013
  H 3.931006 1.408518 1.261611
  H 3.929210 -0.180819 1.902700
  H 1.798337 0.293212 3.126832
  H 1.799560 1.918277 2.471941
  H 3.957867 0.743183 4.255922
  H 2.727761 1.888806 4.745234
  H 3.958173 2.373454 3.599208
  H 2.303830 -0.634322 -1.514386
  H 5.418040 -0.380540 -0.898708
  H 5.020320 -2.376337 -3.538923
  H 5.025550 -0.762787 -4.187140
  H 6.995692 -0.536763 -1.278960
 23
 87.927823
  H 1.395737 0.231721 0.513297
  C 2.475701 0.185668 0.429762
  C 3.261315 0.625653 1.586351
  C 2.427304 1.091141 2.774553
  C 3.314546 1.530677 3.938350
  C 3.010218 -0.275679 -0.752621
  C 4.368201 -0.381090 -0.973221
  C 5.186205 -0.845582 -2.059746
  C 4.637955 -1.417983 -3.332450
  H 3.553985 -1.433599 -3.321078
  O 6.513090 -0.825640 -2.125650
  H 3.943408 1.429524 1.276381
  H 3.928091 -0.191177 1.898346
  H 1.773657 0.280609 3.107586
  H 1.789760 1.926795 2.473952
  H 3.941792 0.709927 4.280189
  H 2.705562 1.859486 4.777910
  H 3.957534 2.358570 3.645736
  H 2.327070 -0.557970 -1.541630
  H 5.454290 -0.388344 -0.956647
  H 5.018583 -2.430009 -3.490372
  H 4.989571 -0.827692 -4.182078
  H 7.032626 -0.463602 -1.375242
 23
 84.436946
  H 1.426560 0.289690 0.466884
  C 2.496047 0.238398 0.395536
  C 3.271231 0.640714 1.571406
  C 2.420928 1.074613 2.774104
  C 3.292868 1.473430 3.953886
  C 3.042036 -0.195829 -0.792466
  C 4.400229 -0.313106 -0.999052
  C 5.210738 -0.847554 -2.057472
  C 4.612783 -1.534461 -3.254035
  H 3.543200 -1.565165 -3.186555
  O 6.523621 -0.758256 -2.191790
  H 3.959157 1.455952 1.292587
  H 3.933321 -0.190413 1.863620
  H 1.765182 0.258901 3.074444
  H 1.792071 1.917047 2.494936
  H 3.908653 0.648742 4.273578
  H 2.677470 1.777226 4.795517
  H 3.935408 2.302949 3.695877
  H 2.365048 -0.442202 -1.601681
  H 5.488184 -0.281125 -0.983915
  H 4.995253 -2.543654 -3.377410
  H 4.904060 -0.983159 -4.141919
  H 7.046022 -0.273545 -1.514797
 23
 90.380124
  H 1.405646 0.377493 0.447561
  C 2.475052 0.300433 0.373727
  C 3.262610 0.656038 1.564004
  C 2.428868 1.064176 2.765208
  C 3.311329 1.413389 3.960617
  C 3.008275 -0.114834 -0.823459
  C 4.361280 -0.269813 -1.042097
  C 5.201153 -0.854413 -2.031888
  C 4.637951 -1.628650 -3.202269
  H 3.559125 -1.727487 -3.127561
  O 6.521224 -0.710232 -2.191086
  H 3.961435 1.464041 1.313704
  H 3.906716 -0.193994 1.829897
  H 1.754840 0.249388 3.041343
  H 1.811964 1.929835 2.509730
  H 3.917434 0.561771 4.256974
  H 2.699490 1.703547 4.813773
  H 3.973712 2.242647 3.725179
  H 2.325979 -0.304451 -1.643581
  H 5.458458 -0.271525 -1.019371
  H 5.082411 -2.613415 -3.301904
  H 4.903464 -1.075549 -4.102726
  H 7.019394 -0.135660 -1.573894
 23
 93.955682
  H 1.403240 0.455246 0.420256
  C 2.470564 0.350008 0.344009
  C 3.265172 0.655517 1.541608
  C 2.429908 1.050059 2.761048
  C 3.314685 1.346653 3.967794
  C 2.994676 -0.042918 -0.862597
  C 4.336020 -0.230989 -1.108862
  C 5.218333 -0.846698 -2.007161
  C 4.643941 -1.712683 -3.115125
  H 3.570970 -1.841786 -3.000326
  O 6.537790 -0.658145 -2.222322
  H 3.976507 1.455467 1.320025
  H 3.885396 -0.212318 1.783156
  H 1.740583 0.242978 3.010935
  H 1.835186 1.933220 2.527914
  H 3.903176 0.471848 4.242307
  H 2.708046 1.624834 4.824727
  H 3.995928 2.169547 3.757433
  H 2.310936 -0.176332 -1.692338
  H 5.446454 -0.239729 -1.049488
  H 5.119355 -2.692174 -3.180585
  H 4.866921 -1.177888 -4.038573
  H 7.013634 0.000121 -1.682017
 23
 94.955879
  H 1.387091 0.551718 0.404049
  C 2.451882 0.405157 0.320272
  C 3.261450 0.645747 1.522648
  C 2.441207 1.034583 2.752053
  C 3.336453 1.267432 3.963707
  C 2.957395 0.031814 -0.899903
  C 4.281053 -0.196526 -1.174775
  C 5.228026 -0.838768 -1.983779
  C 4.675575 -1.800534 -3.027596
  H 3.614468 -1.973548 -2.879834
  O 6.534750 -0.589143 -2.237771
  H 3.997518 1.430354 1.320115
  H 3.848601 -0.252213 1.742266
  H 1.722034 0.242185 2.982991
  H 1.874731 1.947456 2.544952
  H 3.891994 0.370793 4.211327
  H 2.737927 1.543937 4.833303
  H 4.044400 2.070589 3.774184
  H 2.268171 -0.044099 -1.736230
  H 5.408611 -0.208329 -1.059213
  H 5.205998 -2.758363 -3.042938
  H 4.847105 -1.307265 -3.976771
  H 6.965826 0.146723 -1.768354
 23
 95.207983
  H 1.375605 0.643437 0.385139
  C 2.435503 0.453207 0.297387
  C 3.258295 0.625422 1.509630
  C 2.455707 1.021514 2.743707
  C 3.355357 1.183195 3.958836
  C 2.925388 0.091390 -0.932523
  C 4.230561 -0.177000 -1.231818
  C 5.238235 -0.829064 -1.961303
  C 4.712955 -1.886379 -2.929245
  H 3.674245 -2.111151 -2.738688
  O 6.518157 -0.503707 -2.262491
  H 4.029996 1.382964 1.324900
  H 3.802863 -0.305979 1.712799
  H 1.705565 0.262554 2.953747
  H 1.935319 1.958653 2.559403
  H 3.871269 0.249845 4.186799
  H 2.768527 1.465629 4.831961
  H 4.102751 1.960255 3.788736
  H 2.231777 0.056259 -1.770160
  H 5.364281 -0.190044 -1.059616
  H 5.299433 -2.806976 -2.906562
  H 4.822764 -1.437642 -3.914001
  H 6.890835 0.304191 -1.861169
