 17
 0.000000
  C 0.923141 0.053383 0.205136
  C 2.406222 0.064783 0.012002
  H 2.995807 0.013107 0.915218
  C 3.044420 0.130320 -1.163439
  C 2.323753 0.204275 -2.476910
  H 1.245032 0.196679 -2.335705
  C 4.495584 0.131765 -1.193463
  C 5.253044 0.192985 -2.289924
  O 6.606474 0.193413 -2.302455
  H 0.679065 -0.001346 1.261603
  H 0.470323 -0.805366 -0.294018
  H 0.467892 0.955672 -0.202309
  H 2.598649 -0.644646 -3.103579
  H 2.599274 1.117615 -3.004893
  H 4.986905 0.077625 -0.228104
  H 4.860609 0.249211 -3.293256
  H 6.937644 0.142900 -1.400408
 17
 6.017487
  C 0.937272 0.074529 0.217124
  C 2.379514 0.088859 0.019264
  H 2.998264 0.055034 0.908519
  C 3.019019 0.149018 -1.157712
  C 2.291448 0.225583 -2.479855
  H 1.212363 0.233764 -2.343136
  C 4.485207 0.125655 -1.186590
  C 5.242769 0.178696 -2.277623
  O 6.594180 0.159540 -2.286955
  H 0.643892 -0.019175 1.268609
  H 0.777762 -0.830062 -0.316175
  H 0.400576 0.918621 -0.252192
  H 2.555335 -0.628689 -3.104327
  H 2.576721 1.133225 -3.012682
  H 4.977798 0.062059 -0.217713
  H 4.855551 0.244033 -3.276360
  H 6.919713 0.101112 -1.387020
 17
 18.732004
  C 0.922301 0.085485 0.231531
  C 2.362624 0.110015 0.031295
  H 2.997650 0.101315 0.910569
  C 3.012898 0.167148 -1.161830
  C 2.294510 0.245557 -2.475403
  H 1.216971 0.266139 -2.344494
  C 4.455957 0.120260 -1.187557
  C 5.219813 0.170475 -2.281010
  O 6.576428 0.127524 -2.286663
  H 0.603274 -0.019800 1.257278
  H 1.029594 -0.836895 -0.300938
  H 0.343037 0.843971 -0.289323
  H 2.551126 -0.610527 -3.095480
  H 2.590498 1.147189 -3.008901
  H 4.942880 0.041969 -0.222452
  H 4.835870 0.253460 -3.283049
  H 6.900487 0.055406 -1.377323
 17
 32.619759
  C 0.902520 0.098115 0.247073
  C 2.347512 0.103699 0.022765
  H 2.983697 0.088750 0.901836
  C 3.007217 0.169404 -1.171710
  C 2.287839 0.262416 -2.488346
  H 1.207816 0.281824 -2.355587
  C 4.448611 0.112036 -1.189870
  C 5.217843 0.170698 -2.278534
  O 6.578700 0.113147 -2.277887
  H 0.586794 0.035129 1.274226
  H 1.205617 -0.832708 -0.217995
  H 0.293909 0.765243 -0.343108
  H 2.542981 -0.588628 -3.118081
  H 2.583575 1.170797 -3.016413
  H 4.930695 0.016940 -0.223408
  H 4.839390 0.268651 -3.281045
  H 6.895328 0.027969 -1.369868
 17
 44.080250
  C 0.881636 0.111171 0.263016
  C 2.333396 0.093962 0.010508
  H 2.958313 0.062768 0.889169
  C 3.004681 0.168663 -1.187244
  C 2.285361 0.278677 -2.501310
  H 1.206318 0.297527 -2.365271
  C 4.448730 0.100844 -1.197677
  C 5.225098 0.167402 -2.280906
  O 6.582759 0.106093 -2.269902
  H 0.574666 0.103958 1.294306
  H 1.337103 -0.824924 -0.124954
  H 0.247780 0.676278 -0.383802
  H 2.535651 -0.561610 -3.138468
  H 2.580585 1.191698 -3.021411
  H 4.927365 -0.006064 -0.226285
  H 4.853756 0.279379 -3.286766
  H 6.889748 0.012435 -1.360723
 17
 52.628525
  C 0.873578 0.128592 0.269402
  C 2.326205 0.078562 0.001280
  H 2.951497 0.036965 0.894239
  C 2.999963 0.164169 -1.192139
  C 2.281840 0.291897 -2.508099
  H 1.204003 0.310450 -2.372277
  C 4.443163 0.090852 -1.198578
  C 5.224489 0.165178 -2.278992
  O 6.582049 0.103140 -2.261693
  H 0.572566 0.164019 1.291713
  H 1.446164 -0.816777 -0.058509
  H 0.218550 0.608356 -0.421526
  H 2.532978 -0.547688 -3.162822
  H 2.577111 1.208890 -3.016489
  H 4.917028 -0.024066 -0.232950
  H 4.856950 0.287309 -3.287735
  H 6.883381 0.003706 -1.350268
 17
 58.700667
  C 0.863442 0.144558 0.279082
  C 2.318018 0.064204 0.001922
  H 2.938896 0.033873 0.890565
  C 3.001609 0.166946 -1.203815
  C 2.285651 0.306400 -2.514601
  H 1.208860 0.323523 -2.378854
  C 4.436538 0.086784 -1.205256
  C 5.224651 0.164427 -2.283002
  O 6.590064 0.092682 -2.259435
  H 0.557849 0.218573 1.305871
  H 1.533525 -0.823103 0.007277
  H 0.185523 0.525829 -0.458758
  H 2.535208 -0.524875 -3.179015
  H 2.580706 1.228422 -3.012333
  H 4.908844 -0.038143 -0.235763
  H 4.862375 0.292633 -3.288879
  H 6.885694 -0.013223 -1.347543
 17
 63.628902
  C 0.863432 0.180927 0.282074
  C 2.315840 0.039855 0.005646
  H 2.938354 0.015262 0.892134
  C 3.004617 0.160157 -1.207684
  C 2.287499 0.307510 -2.514464
  H 1.210407 0.319875 -2.378299
  C 4.429340 0.078956 -1.207560
  C 5.221502 0.162030 -2.284508
  O 6.589673 0.097157 -2.255141
  H 0.546384 0.252588 1.304098
  H 1.595135 -0.832635 0.023403
  H 0.180723 0.503184 -0.478461
  H 2.538550 -0.513385 -3.185251
  H 2.579015 1.236310 -3.004993
  H 4.902667 -0.047592 -0.235796
  H 4.862856 0.294381 -3.289890
  H 6.881556 -0.009452 -1.341392
 17
 67.354589
  C 0.863649 0.216610 0.283720
  C 2.313983 0.021769 0.014295
  H 2.940577 0.015869 0.905744
  C 3.004923 0.156774 -1.207148
  C 2.281313 0.309354 -2.517141
  H 1.211299 0.316855 -2.380659
  C 4.430217 0.072744 -1.206613
  C 5.226134 0.159903 -2.283589
  O 6.590777 0.097628 -2.249284
  H 0.532549 0.268300 1.298164
  H 1.653595 -0.851827 0.027157
  H 0.180159 0.490446 -0.489979
  H 2.534619 -0.507435 -3.197465
  H 2.567595 1.243868 -3.002203
  H 4.902650 -0.056400 -0.238714
  H 4.869509 0.297573 -3.292168
  H 6.879161 -0.012262 -1.334282
 17
 68.567885
  C 0.869967 0.272196 0.283835
  C 2.306461 0.001463 0.021123
  H 2.936248 0.018645 0.910040
  C 3.007569 0.155042 -1.210951
  C 2.282483 0.307804 -2.512974
  H 1.207732 0.304442 -2.373163
  C 4.425173 0.070682 -1.207661
  C 5.225992 0.158763 -2.285141
  O 6.593149 0.097861 -2.245540
  H 0.520453 0.282522 1.295168
  H 1.715349 -0.908955 0.014018
  H 0.181381 0.498071 -0.503731
  H 2.542071 -0.500084 -3.198993
  H 2.558867 1.248676 -2.992259
  H 4.898976 -0.059965 -0.239205
  H 4.871899 0.298188 -3.292949
  H 6.878381 -0.013847 -1.330067
 17
 67.896686
  C 0.883620 0.334660 0.282783
  C 2.297785 -0.015529 0.026559
  H 2.929990 0.025829 0.915464
  C 3.008621 0.156211 -1.214208
  C 2.277995 0.306087 -2.510873
  H 1.204983 0.285803 -2.366538
  C 4.419039 0.071774 -1.206006
  C 5.227073 0.159334 -2.284016
  O 6.593012 0.091314 -2.237308
  H 0.515180 0.290581 1.287230
  H 1.792108 -0.977869 -0.008498
  H 0.187742 0.507242 -0.512592
  H 2.547824 -0.492062 -3.204234
  H 2.538521 1.258117 -2.985656
  H 4.892837 -0.061748 -0.237023
  H 4.876571 0.298821 -3.293228
  H 6.873909 -0.025713 -1.321469
 17
 65.988728
  C 0.900097 0.389603 0.280310
  C 2.287341 -0.032546 0.027764
  H 2.921052 0.023373 0.915671
  C 3.007060 0.145739 -1.215251
  C 2.275408 0.300933 -2.507537
  H 1.202441 0.274265 -2.359510
  C 4.409810 0.051985 -1.204948
  C 5.223773 0.146538 -2.282919
  O 6.587497 0.103013 -2.227533
  H 0.519137 0.304894 1.277913
  H 1.880386 -1.041144 -0.041644
  H 0.202213 0.538426 -0.520230
  H 2.547820 -0.490322 -3.206774
  H 2.530036 1.257970 -2.976609
  H 4.883879 -0.079430 -0.235918
  H 4.876090 0.299387 -3.290488
  H 6.866211 -0.015920 -1.309831
 17
 64.177556
  C 0.907758 0.424721 0.284155
  C 2.273418 -0.049051 0.033068
  H 2.909269 0.035847 0.917065
  C 3.009176 0.144256 -1.220703
  C 2.276216 0.299508 -2.512827
  H 1.203146 0.253132 -2.363601
  C 4.407291 0.054524 -1.203992
  C 5.226851 0.152011 -2.281182
  O 6.587794 0.087195 -2.223311
  H 0.513192 0.312734 1.275331
  H 1.976899 -1.098095 -0.059725
  H 0.202609 0.557907 -0.516024
  H 2.562689 -0.479362 -3.221778
  H 2.513005 1.262214 -2.969525
  H 4.878972 -0.086004 -0.235353
  H 4.881167 0.303294 -3.289033
  H 6.863921 -0.044297 -1.307515
