 29
 0.000000
  C 0.975790 0.137332 0.393142
  C 2.453972 0.138831 0.396445
  C 3.235887 0.609601 1.567949
  C 2.454651 1.098519 2.785050
  H 3.117958 1.411577 3.564099
  C 3.074760 -0.323868 -0.755623
  C 4.452396 -0.411652 -0.974602
  C 5.123831 -0.863395 -2.100714
  C 4.621920 -1.386396 -3.404454
  C 3.129954 -1.502980 -3.695876
  C 2.901042 -2.064737 -5.096300
  O 6.448567 -0.861790 -2.097024
  H 0.536390 0.506813 1.312870
  H 0.606624 -0.875729 0.225913
  H 0.606339 0.752985 -0.428456
  H 3.892013 1.422462 1.236076
  H 3.892206 -0.206765 1.890660
  H 1.816409 0.300727 3.170305
  H 1.816264 1.941012 2.511316
  H 2.419633 -0.642347 -1.548686
  H 5.073532 -0.080521 -0.149771
  H 5.075895 -2.376004 -3.531813
  H 5.076265 -0.759449 -4.180462
  H 2.655656 -0.522022 -3.641480
  H 2.655252 -2.174151 -2.978669
  H 3.338077 -1.417822 -5.854009
  H 1.834884 -2.144599 -5.296051
  H 3.337677 -3.056130 -5.196764
  H 6.820588 -0.526463 -1.260938
 29
 0.000000
  C 1.021856 0.128874 0.372076
  C 2.499972 0.134434 0.385482
  C 3.272565 0.607335 1.562300
  C 2.481689 1.094090 2.774031
  H 3.138794 1.408959 3.557594
  C 3.129888 -0.326544 -0.762314
  C 4.446166 -0.425284 -1.008620
  C 5.059703 -0.851273 -2.070533
  C 4.590170 -1.378433 -3.384624
  C 3.105799 -1.507746 -3.707753
  C 2.911585 -2.071316 -5.112686
  O 6.286180 -0.822727 -1.999678
  H 0.575167 0.497135 1.288777
  H 0.656626 -0.885195 0.202334
  H 0.656340 0.743520 -0.452032
  H 3.928709 1.421999 1.234915
  H 3.928904 -0.207229 1.889495
  H 1.843022 0.294542 3.154919
  H 1.842875 1.934829 2.495935
  H 2.481074 -0.646813 -1.559833
  H 5.086065 -0.099140 -0.196236
  H 5.055203 -2.364111 -3.502191
  H 5.055566 -0.747554 -4.150836
  H 2.622077 -0.530884 -3.663564
  H 2.621682 -2.183015 -3.000758
  H 3.359115 -1.420621 -5.860974
  H 1.850644 -2.160275 -5.335098
  H 3.358724 -3.058931 -5.203734
  H 6.578270 -0.455587 -1.084259
 29
 0.000000
  C 1.066465 0.120286 0.350675
  C 2.544413 0.130366 0.375336
  C 3.306573 0.605609 1.558001
  C 2.505006 1.089923 2.763671
  H 3.155159 1.406787 3.552213
  C 3.184458 -0.328663 -0.767626
  C 4.447524 -0.438253 -1.040981
  C 5.005038 -0.840767 -2.044375
  C 4.563325 -1.371255 -3.366749
  C 3.086053 -1.511377 -3.716795
  C 2.921523 -2.076260 -5.124991
  O 6.131772 -0.791144 -1.920977
  H 0.611684 0.487164 1.263946
  H 0.705642 -0.894893 0.178163
  H 0.705356 0.733825 -0.476197
  H 3.962696 1.422282 1.235616
  H 3.962889 -0.206949 1.890189
  H 1.865906 0.288420 3.139690
  H 1.865760 1.928709 2.480713
  H 2.542719 -0.650905 -1.570061
  H 5.107480 -0.117696 -0.242536
  H 5.037599 -2.353506 -3.475779
  H 5.037954 -0.736947 -4.124420
  H 2.594490 -0.538074 -3.681471
  H 2.594106 -2.190207 -3.018670
  H 3.377819 -1.422267 -5.865066
  H 1.865475 -2.172945 -5.366642
  H 3.377440 -3.060579 -5.207830
  H 6.330737 -0.391504 -0.924517
 29
 0.000000
  C 1.109167 0.111581 0.328974
  C 2.586805 0.126758 0.366331
  C 3.337133 0.604603 1.555497
  C 2.523571 1.086124 2.754232
  H 3.165829 1.405213 3.548328
  C 3.238226 -0.330037 -0.771087
  C 4.458150 -0.450204 -1.070804
  C 4.962255 -0.832168 -2.022970
  C 4.542352 -1.365111 -3.351449
  C 3.071010 -1.513626 -3.722390
  C 2.929671 -2.079383 -5.132753
  O 5.988374 -0.767482 -1.862017
  H 0.645293 0.476869 1.238301
  H 0.753343 -0.904833 0.153377
  H 0.753061 0.723888 -0.500975
  H 3.993180 1.423541 1.238753
  H 3.993370 -0.205694 1.893318
  H 1.884033 0.282413 3.124753
  H 1.883890 1.922706 2.465785
  H 2.604520 -0.654476 -1.579001
  H 5.139017 -0.135766 -0.287626
  H 5.023708 -2.344642 -3.453706
  H 5.024054 -0.728083 -4.102345
  H 2.573464 -0.543139 -3.694077
  H 2.573091 -2.195272 -3.031277
  H 3.392680 -1.422775 -5.866316
  H 1.877720 -2.182069 -5.389343
  H 3.392312 -3.061088 -5.209082
  H 6.079387 -0.335707 -0.785424
 29
 0.000000
  C 1.149287 0.102938 0.307422
  C 2.626426 0.123843 0.359049
  C 3.363376 0.604562 1.555401
  C 2.536414 1.082895 2.746217
  H 3.169731 1.404451 3.546476
  C 3.290569 -0.330395 -0.772019
  C 4.479284 -0.460588 -1.096725
  C 4.933782 -0.825896 -2.007364
  C 4.528302 -1.360391 -3.339695
  C 3.061053 -1.514419 -3.724353
  C 2.935010 -2.080681 -5.135963
  O 5.858713 -0.752205 -1.823951
  H 0.675240 0.466402 1.212223
  H 0.799118 -0.914843 0.128408
  H 0.798842 0.713881 -0.525935
  H 4.019273 1.426046 1.244999
  H 4.019456 -0.203193 1.899554
  H 1.896447 0.276701 3.110554
  H 1.896310 1.916998 2.451596
  H 2.665957 -0.657270 -1.586012
  H 5.181187 -0.152628 -0.329707
  H 5.014262 -2.338109 -3.437434
  H 5.014600 -0.721550 -4.086074
  H 2.559628 -0.545804 -3.700705
  H 2.559264 -2.197938 -3.037904
  H 3.402382 -1.422331 -5.865185
  H 1.885893 -2.187308 -5.402360
  H 3.402023 -3.060643 -5.207950
  H 5.826475 -0.289830 -0.671054
 29
 0.000000
  C 1.185968 0.094696 0.286863
  C 2.662368 0.121935 0.354277
  C 3.384419 0.605775 1.558431
  C 2.542730 1.080520 2.740333
  H 3.166072 1.404766 3.547311
  C 3.340506 -0.329416 -0.769621
  C 4.511328 -0.468469 -1.116404
  C 4.921818 -0.822547 -1.999042
  C 4.522156 -1.357656 -3.332885
  C 3.056598 -1.513902 -3.723053
  C 2.936717 -2.080356 -5.135123
  O 5.745198 -0.745819 -1.808038
  H 0.700721 0.456096 1.186539
  H 0.842101 -0.924572 0.104132
  H 0.841833 0.704156 -0.550202
  H 4.040067 1.430073 1.255045
  H 4.040242 -0.199169 1.909590
  H 1.902369 0.271578 3.097821
  H 1.902240 1.911880 2.438873
  H 2.726038 -0.658946 -1.590239
  H 5.233264 -0.166997 -0.365568
  H 5.009958 -2.334638 -3.428790
  H 5.010289 -0.718081 -4.077435
  H 2.553623 -0.546047 -3.701295
  H 2.553266 -2.198179 -3.038490
  H 3.405829 -1.421300 -5.862587
  H 1.888770 -2.188569 -5.405460
  H 3.405478 -3.059610 -5.205348
  H 5.575555 -0.255425 -0.585277
 29
 0.000000
  C 1.216648 0.087721 0.269457
  C 2.692089 0.121432 0.353009
  C 3.398803 0.608397 1.564978
  C 2.542168 1.079411 2.737598
  H 3.155222 1.406363 3.551339
  C 3.384449 -0.326906 -0.763401
  C 4.551145 -0.472131 -1.125559
  C 4.927626 -0.822989 -2.000163
  C 4.524526 -1.357745 -3.333111
  C 3.057966 -1.512691 -3.720021
  C 2.934444 -2.079042 -5.131819
  O 5.655299 -0.748626 -1.815031
  H 0.720012 0.446962 1.163768
  H 0.879272 -0.933040 0.082994
  H 0.879016 0.695691 -0.571332
  H 4.054108 1.435573 1.268764
  H 4.054272 -0.193673 1.923301
  H 1.901490 0.267658 3.088078
  H 1.901372 1.907963 2.429139
  H 2.780441 -0.659105 -1.590681
  H 5.289612 -0.176263 -0.388698
  H 5.011246 -2.335161 -3.430096
  H 5.011571 -0.718606 -4.078747
  H 2.555900 -0.544390 -3.697151
  H 2.555549 -2.196518 -3.034339
  H 3.402524 -1.420404 -5.860327
  H 1.885804 -2.186325 -5.399826
  H 3.402178 -3.058712 -5.203081
  H 5.345456 -0.234338 -0.532694
 29
 0.000000
  C 1.238862 0.082922 0.257476
  C 2.713271 0.122430 0.355485
  C 3.406152 0.612140 1.574316
  C 2.536220 1.079756 2.738478
  H 3.139979 1.409096 3.558183
  C 3.418296 -0.323158 -0.754078
  C 4.590593 -0.470489 -1.121484
  C 4.946983 -0.827322 -2.010977
  C 4.533390 -1.360972 -3.341152
  C 3.063821 -1.511923 -3.718096
  C 2.929178 -2.077926 -5.129017
  O 5.596312 -0.758501 -1.839637
  H 0.732077 0.440187 1.146872
  H 0.907345 -0.939153 0.067731
  H 0.907101 0.689579 -0.586591
  H 4.061074 1.441892 1.284527
  H 4.061225 -0.187357 1.939058
  H 1.895332 0.265483 3.082673
  H 1.895226 1.905790 2.423740
  H 2.823736 -0.657711 -1.587234
  H 5.339699 -0.178355 -0.393931
  H 5.016779 -2.339707 -3.441427
  H 5.017100 -0.723155 -4.090085
  H 2.564559 -0.542259 -3.691829
  H 2.564211 -2.194385 -3.029011
  H 3.394092 -1.420560 -5.860693
  H 1.878454 -2.182354 -5.389898
  H 3.393749 -3.058865 -5.203441
  H 5.163896 -0.224843 -0.509006
 29
 0.000000
  C 1.254766 0.080038 0.250274
  C 2.728078 0.124885 0.361600
  C 3.408142 0.617080 1.586636
  C 2.526038 1.081520 2.742885
  H 3.121170 1.413029 3.568009
  C 3.444709 -0.318126 -0.741543
  C 4.626735 -0.463803 -1.104823
  C 4.974772 -0.835270 -2.030791
  C 4.545953 -1.367254 -3.356808
  C 3.072144 -1.512377 -3.719219
  C 2.921334 -2.077818 -5.128731
  O 5.562450 -0.773193 -1.876245
  H 0.738674 0.435450 1.135051
  H 0.928681 -0.943227 0.057556
  H 0.928449 0.685506 -0.596765
  H 4.062645 1.449203 1.302765
  H 4.062785 -0.180046 1.957293
  H 1.885019 0.264924 3.081287
  H 1.884925 1.905233 2.422357
  H 2.858916 -0.654816 -1.580032
  H 5.381510 -0.173699 -0.382332
  H 5.024448 -2.347894 -3.461832
  H 5.024767 -0.731345 -4.110495
  H 2.577010 -0.540744 -3.688043
  H 2.576664 -2.192868 -3.025219
  H 3.381601 -1.422286 -5.864978
  H 1.867678 -2.178079 -5.379222
  H 3.381260 -3.060589 -5.207719
  H 5.024617 -0.220942 -0.499261
 29
 0.000000
  C 1.265700 0.079204 0.248179
  C 2.737769 0.129409 0.372876
  C 3.404888 0.624054 1.604029
  C 2.510638 1.085263 2.752216
  H 3.097045 1.418922 3.582704
  C 3.465994 -0.310973 -0.723710
  C 4.659789 -0.451769 -1.074824
  C 5.010284 -0.847927 -2.062338
  C 4.561419 -1.377616 -3.382632
  C 3.082263 -1.515011 -3.725775
  C 2.910115 -2.079609 -5.133184
  O 5.552584 -0.792969 -1.925521
  H 0.740306 0.432720 1.128229
  H 0.945102 -0.945238 0.052524
  H 0.944885 0.683495 -0.601798
  H 4.058911 1.458559 1.326099
  H 4.059036 -0.170690 1.980627
  H 1.869548 0.266334 3.084797
  H 1.869468 1.906643 2.425868
  H 2.889066 -0.649778 -1.567478
  H 5.416338 -0.162308 -0.353931
  H 5.033365 -2.360745 -3.493857
  H 5.033680 -0.744197 -4.142526
  H 2.592669 -0.540800 -3.688174
  H 2.592325 -2.192921 -3.025344
  H 3.364161 -1.426471 -5.875397
  H 1.852767 -2.174345 -5.369901
  H 3.363821 -3.064772 -5.218133
  H 4.921129 -0.217749 -0.491278
 29
 0.000000
  C 1.270838 0.081585 0.254097
  C 2.741387 0.137639 0.393390
  C 3.394288 0.634909 1.631091
  C 2.486865 1.092538 2.770341
  H 3.063673 1.428509 3.606600
  C 3.482200 -0.299824 -0.695909
  C 4.690839 -0.433333 -1.028854
  C 5.056437 -0.868341 -2.113214
  C 4.580610 -1.394759 -3.425352
  C 3.094693 -1.521660 -3.742339
  C 2.893750 -2.084939 -5.146458
  O 5.574570 -0.820583 -1.994334
  H 0.735338 0.432994 1.128884
  H 0.956272 -0.944120 0.055291
  H 0.956072 0.684612 -0.599034
  H 4.047714 1.472012 1.359646
  H 4.047822 -0.157237 2.014177
  H 1.845768 0.271061 3.096563
  H 1.845705 1.911369 2.437632
  H 2.915022 -0.640904 -1.545353
  H 5.446066 -0.143396 -0.306768
  H 5.043550 -2.381196 -3.544825
  H 5.043864 -0.764652 -4.193500
  H 2.612745 -0.544010 -3.696167
  H 2.612401 -2.196129 -3.033330
  H 3.339244 -1.434985 -5.896608
  H 1.831745 -2.172174 -5.364479
  H 3.338904 -3.073282 -5.239338
  H 4.857767 -0.210114 -0.472218
 29
 0.000000
  C 1.268125 0.088011 0.270091
  C 2.736982 0.149918 0.423996
  C 3.375561 0.649762 1.668116
  C 2.455041 1.103752 2.798280
  H 3.022165 1.442003 3.640224
  C 3.490325 -0.284572 -0.657876
  C 4.715850 -0.410964 -0.973074
  C 5.108056 -0.895731 -2.181467
  C 4.601041 -1.418096 -3.483509
  C 3.107926 -1.532714 -3.769885
  C 2.873534 -2.094199 -5.169534
  O 5.631133 -0.854408 -2.078625
  H 0.722559 0.437268 1.139505
  H 0.959638 -0.938936 0.068189
  H 0.959456 0.689795 -0.586139
  H 4.028315 1.489465 1.403162
  H 4.028404 -0.139782 2.057697
  H 1.814009 0.279723 3.118129
  H 1.813964 1.920030 2.459195
  H 2.932981 -0.627892 -1.512909
  H 5.468151 -0.119977 -0.248361
  H 5.053280 -2.408308 -3.612387
  H 5.053594 -0.791766 -4.261068
  H 2.635105 -0.551127 -3.713901
  H 2.634758 -2.203243 -3.051058
  H 3.308864 -1.447877 -5.928736
  H 1.806587 -2.172656 -5.365679
  H 3.308521 -3.086173 -5.271458
  H 4.846730 -0.194438 -0.433111
 29
 0.000000
  C 1.261720 0.095832 0.289566
  C 2.728758 0.163466 0.457764
  C 3.353238 0.665776 1.708034
  C 2.419993 1.116153 2.829171
  H 2.977568 1.456599 3.676591
  C 3.494288 -0.268063 -0.616712
  C 4.733247 -0.388015 -0.915842
  C 5.154215 -0.923172 -2.249847
  C 4.617548 -1.441414 -3.541615
  C 3.118221 -1.544208 -3.798527
  C 2.851885 -2.103715 -5.193249
  O 5.696043 -0.887643 -2.161448
  H 0.706357 0.442943 1.153619
  H 0.959222 -0.932307 0.084691
  H 0.959058 0.696421 -0.569642
  H 4.005260 1.508024 1.449431
  H 4.005332 -0.121221 2.103969
  H 1.779096 0.289624 3.142781
  H 1.779068 1.929929 2.483844
  H 2.946640 -0.613541 -1.477125
  H 5.482359 -0.095891 -0.188287
  H 5.059324 -2.435159 -3.679297
  H 5.059639 -0.818619 -4.327984
  H 2.654365 -0.558919 -3.733319
  H 2.654015 -2.211033 -3.070470
  H 3.277277 -1.460794 -5.960926
  H 1.780695 -2.173723 -5.368342
  H 3.276930 -3.099087 -5.303643
  H 4.853762 -0.175042 -0.384734
 29
 0.000000
  C 1.253341 0.104112 0.310183
  C 2.718300 0.177732 0.493322
  C 3.327950 0.682564 1.749880
  C 2.381497 1.129106 2.861439
  H 2.929012 1.471810 3.714490
  C 3.496497 -0.250647 -0.573287
  C 4.745401 -0.363920 -0.855754
  C 5.194372 -0.949137 -2.314546
  C 4.629370 -1.463186 -3.595868
  C 3.124697 -1.554545 -3.824288
  C 2.827703 -2.111908 -5.213670
  O 5.759429 -0.919459 -2.240735
  H 0.687788 0.448937 1.168525
  H 0.957147 -0.925249 0.102260
  H 0.957001 0.703477 -0.552078
  H 3.979130 1.527473 1.497917
  H 3.979183 -0.101771 2.152458
  H 1.740816 0.299961 3.168520
  H 1.740806 1.940265 2.509579
  H 2.959060 -0.598342 -1.439230
  H 5.491063 -0.070577 -0.125152
  H 5.060878 -2.460255 -3.741834
  H 5.061194 -0.843717 -4.390526
  H 2.669674 -0.565758 -3.750364
  H 2.669321 -2.217869 -3.087508
  H 3.243340 -1.472189 -5.989325
  H 1.752880 -2.173747 -5.368409
  H 3.242989 -3.110479 -5.332035
  H 4.857097 -0.154149 -0.332628
