14

H -1.0000785751776884 -2.295518147305087 -0.5942581599499914
C -1.772114 -1.595214 -0.352524
H -2.3395227568088255 -1.937628701226618 0.4875352092707211
C -1.203915 -0.222791 -0.071122
O -0.006171 -0.014179 -0.003501
C -2.184838 0.897604 0.120904
H -2.433117 -1.497526 -1.2211
H -3.199721 0.581044 -0.10275
H -1.923996 1.717341 -0.54437
H -2.136711 1.240138 1.151656
O 3.257137 0.171616 0.057972
H 3.441414 1.13347 0.113729
H 2.293242 -0.00082 0.002599
H 3.662552 -0.314915 0.807179
