 20
 0.000000
  C 0.971108 0.172362 0.479735
  C 2.426446 0.114681 0.336293
  H 3.046730 0.444574 1.157573
  C 3.017955 -0.347866 -0.815866
  C 4.400361 -0.418130 -0.991224
  C 5.115350 -0.864655 -2.104464
  C 4.648342 -1.390190 -3.414312
  C 3.167455 -1.518280 -3.733570
  H 3.062713 -1.920460 -4.736044
  O 6.430570 -0.845949 -2.058189
  H 0.660985 0.559976 1.444817
  H 0.539771 -0.821197 0.339382
  H 0.539804 0.792936 -0.308835
  H 2.370588 -0.668529 -1.614253
  H 4.998830 -0.080764 -0.151262
  H 5.123638 -2.371358 -3.529006
  H 5.123684 -0.760511 -4.175416
  H 2.672320 -0.551212 -3.710924
  H 2.672342 -2.201593 -3.048804
  H 6.808469 -0.511448 -1.222544
 20
 14.602596
  C 1.012459 0.093564 0.282502
  C 2.471755 0.092958 0.282388
  H 2.995236 0.446331 1.163606
  C 3.238925 -0.352482 -0.827227
  C 4.583407 -0.348255 -0.815522
  C 5.053526 -0.816875 -1.984555
  C 4.488515 -1.329515 -3.262737
  C 3.017109 -1.471012 -3.615310
  H 2.969587 -1.876202 -4.625376
  O 6.415527 -0.880368 -2.144034
  H 0.593137 0.468407 1.216214
  H 0.631721 -0.919441 0.087235
  H 0.632357 0.690832 -0.558848
  H 2.672058 -0.688530 -1.665180
  H 5.198621 -0.017179 0.011184
  H 4.962709 -2.308689 -3.386899
  H 4.962782 -0.707730 -4.029229
  H 2.499523 -0.513742 -3.635904
  H 2.499886 -2.177274 -2.968586
  H 6.914026 -0.569688 -1.373799
 20
 49.014489
  C 1.061812 0.019677 0.100507
  C 2.514351 0.075888 0.238285
  H 2.947920 0.446856 1.159869
  C 3.410646 -0.347881 -0.816540
  C 4.730845 -0.294947 -0.684611
  C 4.983726 -0.776085 -1.882677
  C 4.370619 -1.285998 -3.155547
  C 2.892745 -1.431348 -3.518616
  H 2.862254 -1.836444 -4.527568
  O 6.387926 -0.905362 -2.203179
  H 0.542535 0.376272 0.986835
  H 0.740431 -1.001416 -0.127235
  H 0.739533 0.597493 -0.771271
  H 2.881026 -0.689664 -1.666651
  H 5.369797 0.026782 0.117007
  H 4.840684 -2.266158 -3.282034
  H 4.842619 -0.665112 -3.923404
  H 2.364831 -0.479600 -3.550882
  H 2.365575 -2.141251 -2.883667
  H 6.964440 -0.614211 -1.478008
 20
 92.846086
  C 1.084444 -0.007350 0.029783
  C 2.517764 0.067689 0.219069
  H 2.916767 0.440358 1.149168
  C 3.488222 -0.357516 -0.839856
  C 4.797066 -0.269344 -0.617473
  C 4.890284 -0.754515 -1.828631
  C 4.320844 -1.270618 -3.116093
  C 2.860119 -1.415152 -3.474600
  H 2.831002 -1.821320 -4.488538
  O 6.389996 -0.924256 -2.252151
  H 0.533715 0.339293 0.893102
  H 0.782955 -1.032205 -0.209382
  H 0.783651 0.568046 -0.851473
  H 2.919559 -0.692412 -1.675857
  H 5.439376 0.043491 0.165802
  H 4.802096 -2.248754 -3.236029
  H 4.799925 -0.645217 -3.879125
  H 2.333343 -0.462580 -3.507082
  H 2.333169 -2.126980 -2.840410
  H 6.982281 -0.639851 -1.551367
 20
 131.694711
  C 1.068210 -0.007029 0.029602
  C 2.517346 0.060537 0.200675
  H 2.934605 0.432353 1.128372
  C 3.459103 -0.362542 -0.851921
  C 4.811287 -0.260895 -0.594297
  C 4.737824 -0.744614 -1.802848
  C 4.316315 -1.269381 -3.113441
  C 2.856719 -1.422971 -3.493440
  H 2.831602 -1.825431 -4.499052
  O 6.537064 -0.945735 -2.306703
  H 0.539021 0.345575 0.907103
  H 0.747918 -1.026066 -0.200209
  H 0.748923 0.570319 -0.841310
  H 2.818557 -0.687328 -1.661409
  H 5.469478 0.049960 0.184289
  H 4.819911 -2.232437 -3.214749
  H 4.821017 -0.640389 -3.848864
  H 2.329027 -0.467890 -3.531620
  H 2.330781 -2.141549 -2.861777
  H 7.104128 -0.652837 -1.588186
 20
 131.609177
  C 0.940554 0.344224 0.103992
  C 2.420018 0.337291 0.152218
  H 2.900616 0.781795 1.011755
  C 3.179529 -0.219288 -0.830599
  C 4.674535 -0.156064 -0.668680
  C 4.431864 -0.742525 -1.774801
  C 4.328199 -1.463331 -2.992653
  C 2.940847 -1.796040 -3.517070
  H 3.052316 -2.364936 -4.440932
  O 7.028297 -1.135803 -2.540969
  H 0.527669 0.825735 0.983647
  H 0.542723 -0.670838 0.041188
  H 0.579819 0.862422 -0.786328
  H 2.510718 -0.635887 -1.599012
  H 5.336572 0.227761 0.068179
  H 4.938761 -2.375846 -2.856410
  H 4.947583 -0.948280 -3.746814
  H 2.385130 -0.899401 -3.782585
  H 2.391671 -2.434178 -2.829119
  H 7.731588 -0.780511 -1.994187
 20
 133.167943
  C 0.881782 0.313867 0.144835
  C 2.370109 0.337942 0.169791
  H 2.854420 0.843381 0.998785
  C 3.126367 -0.230275 -0.811439
  C 4.659416 -0.187659 -0.635189
  C 4.319476 -0.737956 -1.723650
  C 4.322085 -1.430980 -2.964359
  C 2.964559 -1.766047 -3.556551
  H 3.111972 -2.284381 -4.500198
  O 7.283454 -1.216595 -2.676264
  H 0.474462 0.826581 1.008003
  H 0.505512 -0.706621 0.137888
  H 0.493897 0.785987 -0.757907
  H 2.435517 -0.639517 -1.582589
  H 5.320704 0.190932 0.099434
  H 4.943798 -2.328929 -2.827473
  H 4.937482 -0.843125 -3.659262
  H 2.394637 -0.865918 -3.782655
  H 2.404025 -2.441947 -2.911623
  H 8.010391 -0.889282 -2.168005
 20
 135.662419
  C 0.829063 0.283471 0.151425
  C 2.312323 0.302341 0.197448
  H 2.781928 0.807631 1.029943
  C 3.083255 -0.241794 -0.795012
  C 4.631265 -0.186049 -0.589363
  C 4.256716 -0.711186 -1.683189
  C 4.300740 -1.393825 -2.942328
  C 2.948108 -1.728289 -3.551860
  H 3.098688 -2.234535 -4.499776
  O 7.633550 -1.279264 -2.845482
  H 0.413246 0.784441 1.015291
  H 0.449518 -0.738602 0.127488
  H 0.451976 0.771265 -0.749503
  H 2.395250 -0.614614 -1.577164
  H 5.258904 0.189899 0.177966
  H 4.914657 -2.290783 -2.800117
  H 4.909728 -0.786150 -3.622506
  H 2.374550 -0.827158 -3.764496
  H 2.385145 -2.408521 -2.914242
  H 8.396248 -0.972948 -2.354865
 20
 137.353613
  C 0.773412 0.276618 0.167499
  C 2.253685 0.273603 0.218579
  H 2.723005 0.799833 1.038178
  C 3.017152 -0.274481 -0.773123
  C 4.586940 -0.213500 -0.538893
  C 4.195311 -0.719102 -1.638387
  C 4.262468 -1.360284 -2.924144
  C 2.918561 -1.690757 -3.556115
  H 3.083342 -2.159559 -4.523835
  O 8.073688 -1.313271 -3.014959
  H 0.361611 0.801087 1.022089
  H 0.375616 -0.739021 0.161654
  H 0.407674 0.753574 -0.744423
  H 2.318148 -0.683776 -1.529493
  H 5.186479 0.157269 0.253877
  H 4.878175 -2.257844 -2.807513
  H 4.861102 -0.717228 -3.581083
  H 2.331219 -0.789142 -3.738440
  H 2.358985 -2.403937 -2.948313
  H 8.822436 -1.004675 -2.508180
 20
 136.651654
  C 0.687712 0.297842 0.224450
  C 2.166402 0.275575 0.253952
  H 2.654546 0.801136 1.062417
  C 2.902120 -0.290313 -0.741151
  C 4.488915 -0.264655 -0.493098
  C 4.099960 -0.738996 -1.602127
  C 4.229708 -1.334048 -2.906836
  C 2.910741 -1.674843 -3.593834
  H 3.111157 -2.114672 -4.566366
  O 8.599650 -1.350910 -3.223840
  H 0.294166 0.830072 1.084610
  H 0.276088 -0.715739 0.226943
  H 0.316676 0.773501 -0.682179
  H 2.212113 -0.729037 -1.491286
  H 5.035071 0.092585 0.346511
  H 4.860288 -2.221354 -2.795450
  H 4.822990 -0.646696 -3.520472
  H 2.311589 -0.781534 -3.762047
  H 2.347174 -2.406398 -3.019230
  H 9.353014 -1.032744 -2.720156
 20
 140.159153
  C 0.646739 0.249392 0.214998
  C 2.126028 0.228272 0.264260
  H 2.598250 0.747126 1.084009
  C 2.882826 -0.311411 -0.745719
  C 4.471277 -0.247165 -0.475015
  C 4.058561 -0.704767 -1.581044
  C 4.171776 -1.293930 -2.893468
  C 2.841767 -1.618591 -3.559485
  H 3.020405 -2.056145 -4.540307
  O 8.941099 -1.358809 -3.293094
  H 0.245829 0.756462 1.085533
  H 0.227157 -0.757970 0.189222
  H 0.286218 0.759672 -0.683006
  H 2.193223 -0.752906 -1.496729
  H 5.000120 0.109415 0.372353
  H 4.793675 -2.189691 -2.796085
  H 4.760330 -0.602219 -3.508043
  H 2.249761 -0.713965 -3.709679
  H 2.274205 -2.347581 -2.977350
  H 9.703356 -1.064678 -2.786175
 20
 130.024946
  C 0.396735 0.298710 0.360741
  C 1.874346 0.305467 0.363456
  H 2.370219 0.813889 1.175510
  C 2.600478 -0.306513 -0.601199
  C 4.117673 -0.312614 -0.400040
  C 3.981082 -0.742702 -1.580123
  C 4.084767 -1.313580 -2.875876
  C 2.766783 -1.556127 -3.617503
  H 2.976763 -2.010251 -4.583391
  O 10.470356 -1.456938 -3.795018
  H 0.005933 0.831579 1.224906
  H 0.003454 -0.718485 0.369301
  H 0.007369 0.766846 -0.550035
  H 1.996925 -0.864066 -1.324743
  H 4.638977 0.081856 0.439567
  H 4.634869 -2.258891 -2.770221
  H 4.714711 -0.634523 -3.472900
  H 2.241333 -0.624369 -3.794837
  H 2.129326 -2.240005 -3.065916
  H 11.192171 -1.164938 -3.233908
 20
 119.991441
  C 0.238890 0.413587 0.592226
  C 1.704403 0.338241 0.500301
  H 2.285008 0.867497 1.240971
  C 2.313711 -0.363505 -0.460618
  C 3.785214 -0.441706 -0.519996
  C 4.024316 -0.868590 -1.692767
  C 4.132402 -1.362522 -2.981516
  C 2.792725 -1.578349 -3.731500
  H 3.013608 -1.959694 -4.721243
  O 11.012236 -1.351450 -3.820753
  H -0.069514 1.033959 1.426252
  H -0.192304 -0.580919 0.711549
  H -0.185598 0.811358 -0.330607
  H 1.714157 -0.875243 -1.197079
  H 4.364527 -0.090961 0.312494
  H 4.661365 -2.326430 -2.933732
  H 4.731341 -0.649416 -3.569200
  H 2.260931 -0.639162 -3.827968
  H 2.178539 -2.305283 -3.210275
  H 11.744295 -1.069309 -3.268117
