19

C 0.908957 0.051234 0.265899
C 2.403139 0.059608 0.08463
C 3.241948 -0.013076 1.354619
C 2.524389 -0.087838 2.700702
H 3.2242663349124956 -0.13426065261460313 3.508734581892591
C 2.999883 0.1263 -1.121835
H 2.544646849957702 0.18100454642701247 -2.088617012810996
C 4.458676 0.132433 -1.209544
C 5.197334 0.195405 -2.31725
H 6.267250958136231 0.1971261987362579 -2.330468932159085
H 0.600724 -0.010726 1.30474
H 0.466884 -0.814538 -0.221374
H 0.465268 0.968898 -0.116051
H 3.889283 0.870028 1.386079
H 3.886822 -0.895926 1.286622
H 1.889884 -0.976535 2.741769
H 1.892302 0.792374 2.84127
H 5.004679 0.080394 -0.277707
H 4.819702 0.251812 -3.325086
