 28
 0.000000
  C 0.950366 0.145313 0.413613
  C 2.423812 0.139465 0.398578
  C 3.220702 0.604261 1.554572
  C 2.463358 1.098311 2.783886
  C 3.439600 1.535434 3.871782
  C 3.030325 -0.328110 -0.764961
  C 4.411743 -0.411593 -0.974173
  C 5.089271 -0.857432 -2.086103
  C 4.618394 -1.377706 -3.383092
  C 3.136521 -1.504920 -3.700158
  H 3.013704 -1.905314 -4.698553
  H 6.168566 -0.843191 -2.051388
  H 0.531792 0.517929 1.340476
  H 0.574564 -0.864206 0.240400
  H 0.574191 0.753833 -0.410136
  H 3.880563 1.410402 1.214106
  H 3.880696 -0.213144 1.866716
  H 1.828199 0.305255 3.182267
  H 1.828247 1.946543 2.522709
  H 4.074973 0.708432 4.180767
  H 2.898382 1.886977 4.746618
  H 4.075071 2.346196 3.522597
  H 2.359034 -0.642229 -1.545987
  H 5.041571 -0.083086 -0.156917
  H 5.092026 -2.360921 -3.503406
  H 5.092136 -0.750273 -4.149543
  H 2.650054 -0.532694 -3.662440
  H 2.650152 -2.181774 -3.001164
 28
 5.308669
  C 0.994891 0.121396 0.353685
  C 2.468622 0.127036 0.367179
  C 3.227524 0.603242 1.551759
  C 2.444692 1.091269 2.766442
  C 3.395494 1.536039 3.873742
  C 3.129291 -0.316674 -0.737147
  C 4.499145 -0.417059 -0.988167
  C 5.110875 -0.870282 -2.118344
  C 4.586745 -1.378449 -3.384825
  C 3.090962 -1.475982 -3.627521
  H 2.916608 -1.875354 -4.623085
  H 6.193687 -0.863223 -2.101533
  H 0.558122 0.490918 1.272990
  H 0.628445 -0.891029 0.170839
  H 0.627997 0.725387 -0.478991
  H 3.891235 1.412154 1.224225
  H 3.891387 -0.207219 1.875060
  H 1.808832 0.292804 3.152927
  H 1.808884 1.935244 2.493117
  H 4.031398 0.714148 4.195039
  H 2.834674 1.883199 4.737956
  H 4.031504 2.351710 3.537170
  H 2.345499 -0.577174 -1.384897
  H 5.159289 -0.097321 -0.192334
  H 5.042859 -2.367356 -3.529798
  H 5.042843 -0.764061 -4.173231
  H 2.620944 -0.497906 -3.571516
  H 2.621099 -2.144356 -2.911087
 28
 15.283754
  C 1.022209 0.105604 0.313438
  C 2.503990 0.123246 0.357578
  C 3.224339 0.610107 1.569237
  C 2.422170 1.092783 2.770290
  C 3.355208 1.543426 3.892397
  C 3.204006 -0.316800 -0.737614
  C 4.568539 -0.426616 -1.011674
  C 5.154657 -0.888975 -2.165270
  C 4.571767 -1.391866 -3.418836
  C 3.065842 -1.459459 -3.585004
  H 2.829814 -1.858280 -4.579683
  H 6.246138 -0.890001 -2.169171
  H 0.567423 0.472071 1.224579
  H 0.661888 -0.905438 0.128199
  H 0.661930 0.706847 -0.520213
  H 3.894830 1.417356 1.254559
  H 3.894812 -0.190517 1.900543
  H 1.785658 0.289763 3.148262
  H 1.786025 1.934338 2.487572
  H 3.991399 0.725169 4.222593
  H 2.779973 1.887517 4.748720
  H 3.991657 2.362555 3.564731
  H 2.305221 -0.518225 -1.238939
  H 5.235602 -0.112230 -0.228016
  H 5.007712 -2.388130 -3.590216
  H 5.006779 -0.789474 -4.231155
  H 2.621080 -0.474898 -3.503610
  H 2.622204 -2.115842 -2.845935
 28
 29.309477
  C 1.038664 0.100655 0.301123
  C 2.531727 0.119952 0.349130
  C 3.224162 0.615054 1.581624
  C 2.405804 1.093767 2.773000
  C 3.321055 1.549237 3.906881
  C 3.266888 -0.320704 -0.747900
  C 4.614017 -0.438151 -1.040816
  C 5.174949 -0.901442 -2.196307
  C 4.563362 -1.400316 -3.439664
  C 3.047068 -1.455367 -3.574854
  H 2.787430 -1.850072 -4.558899
  H 6.266783 -0.908871 -2.215711
  H 0.585219 0.467023 1.212388
  H 0.672801 -0.912321 0.118238
  H 0.672719 0.705067 -0.531974
  H 3.897612 1.425278 1.275942
  H 3.897595 -0.181529 1.921295
  H 1.769472 0.287260 3.143703
  H 1.769760 1.932745 2.482679
  H 3.957510 0.733849 4.245217
  H 2.732839 1.890399 4.756046
  H 3.957515 2.371983 3.587061
  H 2.282707 -0.468809 -1.116629
  H 5.294187 -0.126841 -0.264696
  H 4.989243 -2.401561 -3.619684
  H 4.988546 -0.800516 -4.261776
  H 2.612781 -0.464868 -3.483342
  H 2.613753 -2.108773 -2.824149
 28
 44.658460
  C 1.086466 0.093485 0.283288
  C 2.561779 0.112674 0.330734
  C 3.229059 0.614111 1.579251
  C 2.381757 1.087478 2.757401
  C 3.268255 1.549659 3.908015
  C 3.326063 -0.320942 -0.748871
  C 4.665463 -0.441865 -1.050148
  C 5.196701 -0.914355 -2.228393
  C 4.539168 -1.405261 -3.451858
  C 3.016365 -1.437380 -3.530002
  H 2.718758 -1.822413 -4.490035
  H 6.271070 -0.935057 -2.280660
  H 0.642014 0.462531 1.201610
  H 0.712491 -0.926818 0.105965
  H 0.712180 0.707161 -0.550744
  H 3.904965 1.429808 1.283910
  H 3.904909 -0.179322 1.930067
  H 1.744986 0.276914 3.115115
  H 1.745237 1.920482 2.454885
  H 3.904181 0.739682 4.259100
  H 2.660215 1.885707 4.744477
  H 3.904117 2.377331 3.601161
  H 2.311909 -0.428911 -1.017887
  H 5.374875 -0.133085 -0.280002
  H 4.943137 -2.409479 -3.646530
  H 4.942385 -0.813466 -4.286471
  H 2.599689 -0.436652 -3.420699
  H 2.600529 -2.085915 -2.759394
 28
 57.604393
  C 1.047741 0.087174 0.274929
  C 2.537338 0.108523 0.325534
  C 3.210989 0.612141 1.575544
  C 2.381624 1.088999 2.759463
  C 3.287449 1.548614 3.898942
  C 3.317012 -0.331200 -0.766977
  C 4.659222 -0.445943 -1.053056
  C 5.197881 -0.917901 -2.232042
  C 4.546318 -1.401131 -3.443355
  C 3.035736 -1.427516 -3.514675
  H 2.728247 -1.815188 -4.486847
  H 6.288844 -0.939677 -2.284078
  H 0.605222 0.453794 1.185660
  H 0.673613 -0.924989 0.100891
  H 0.672413 0.695461 -0.551922
  H 3.885918 1.422175 1.274317
  H 3.886426 -0.180169 1.919533
  H 1.745713 0.281715 3.127398
  H 1.745354 1.925521 2.464892
  H 3.924280 0.735779 4.242565
  H 2.691854 1.888764 4.743522
  H 3.923565 2.373047 3.582635
  H 2.277620 -0.399694 -0.936819
  H 5.363179 -0.138523 -0.284403
  H 4.945469 -2.402885 -3.637834
  H 4.947455 -0.809772 -4.274077
  H 2.627627 -0.431214 -3.399895
  H 2.625404 -2.069734 -2.745921
 28
 68.738659
  C 1.027205 0.087995 0.282366
  C 2.512986 0.102991 0.313663
  C 3.204092 0.609658 1.567938
  C 2.383010 1.089804 2.759626
  C 3.297278 1.547853 3.892671
  C 3.299100 -0.340927 -0.786654
  C 4.652138 -0.446724 -1.048937
  C 5.204177 -0.913806 -2.218041
  C 4.558921 -1.400568 -3.443624
  C 3.045566 -1.426925 -3.520012
  H 2.739241 -1.814885 -4.496551
  H 6.279531 -0.932065 -2.258357
  H 0.596884 0.462780 1.212679
  H 0.644269 -0.926864 0.114335
  H 0.641899 0.701072 -0.542492
  H 3.878970 1.417604 1.261612
  H 3.880277 -0.184303 1.906763
  H 1.748448 0.284132 3.132294
  H 1.747070 1.927644 2.469179
  H 3.933573 0.735112 4.231588
  H 2.709310 1.889134 4.740075
  H 3.931949 2.369384 3.572197
  H 2.236599 -0.378145 -0.879881
  H 5.347712 -0.138383 -0.273002
  H 4.960793 -2.407293 -3.636935
  H 4.964911 -0.804151 -4.275209
  H 2.636429 -0.427432 -3.403819
  H 2.631954 -2.071324 -2.749283
 28
 77.295889
  C 1.000544 0.071983 0.309708
  C 2.502465 0.093369 0.300963
  C 3.208197 0.609201 1.537679
  C 2.378262 1.082415 2.721884
  C 3.295740 1.549215 3.847055
  C 3.300727 -0.358357 -0.779562
  C 4.659618 -0.474333 -1.039201
  C 5.222384 -0.924867 -2.199014
  C 4.568020 -1.390608 -3.431151
  C 3.052081 -1.381434 -3.488617
  H 2.724807 -1.750433 -4.455841
  H 6.307187 -0.957747 -2.234396
  H 0.605902 0.450436 1.242769
  H 0.612722 -0.940502 0.168545
  H 0.591738 0.683250 -0.498142
  H 3.869337 1.428754 1.228482
  H 3.884283 -0.185549 1.876108
  H 1.752384 0.271600 3.098461
  H 1.735312 1.915167 2.431535
  H 3.940422 0.740873 4.184888
  H 2.706930 1.887360 4.695709
  H 3.923002 2.375989 3.521121
  H 2.208091 -0.369665 -0.834012
  H 5.342208 -0.196069 -0.246658
  H 4.943152 -2.397809 -3.632727
  H 4.973930 -0.791993 -4.251065
  H 2.667431 -0.371897 -3.360502
  H 2.633778 -2.026486 -2.717970
 28
 79.782659
  C 0.991239 -0.017217 0.302545
  C 2.510300 0.044861 0.265264
  C 3.233447 0.623656 1.511937
  C 2.371028 1.090360 2.671988
  C 3.279960 1.595139 3.788868
  C 3.339450 -0.417633 -0.716189
  C 4.694436 -0.569845 -1.008467
  C 5.248209 -0.972550 -2.166346
  C 4.548242 -1.361973 -3.420301
  C 3.035775 -1.246167 -3.419900
  H 2.645499 -1.553103 -4.379417
  H 6.327147 -1.050847 -2.211675
  H 0.620216 0.385339 1.231039
  H 0.619282 -1.042858 0.214447
  H 0.557030 0.574089 -0.507335
  H 3.861007 1.458905 1.197842
  H 3.907093 -0.158691 1.860612
  H 1.767559 0.271328 3.060663
  H 1.714167 1.903668 2.367782
  H 3.942826 0.805223 4.139978
  H 2.678038 1.931838 4.630606
  H 3.888861 2.432295 3.449949
  H 2.205370 -0.422087 -0.806003
  H 5.369722 -0.377500 -0.176708
  H 4.856542 -2.390082 -3.667137
  H 4.969282 -0.734694 -4.221364
  H 2.730412 -0.220394 -3.248210
  H 2.605566 -1.896541 -2.664047
 28
 82.587195
  C 1.027029 -0.054690 0.288083
  C 2.565536 0.024909 0.261432
  C 3.248260 0.633122 1.526808
  C 2.344993 1.100012 2.662901
  C 3.216257 1.637428 3.795028
  C 3.429946 -0.442524 -0.664479
  C 4.759036 -0.634189 -1.012622
  C 5.262867 -1.024495 -2.204693
  C 4.512824 -1.348686 -3.436851
  C 3.005387 -1.177103 -3.374729
  H 2.566683 -1.445587 -4.334877
  H 6.334691 -1.137165 -2.291659
  H 0.648721 0.364609 1.222175
  H 0.671159 -1.091384 0.219299
  H 0.585031 0.522187 -0.534563
  H 3.862979 1.478012 1.208592
  H 3.922756 -0.134927 1.910328
  H 1.749256 0.274638 3.052424
  H 1.681653 1.899163 2.332507
  H 3.883826 0.866735 4.172384
  H 2.588196 1.973455 4.615914
  H 3.816125 2.479847 3.459851
  H 2.250809 -0.443505 -0.775302
  H 5.448655 -0.485986 -0.202135
  H 4.766320 -2.374631 -3.716756
  H 4.922709 -0.717572 -4.231772
  H 2.745759 -0.136340 -3.166300
  H 2.576337 -1.838942 -2.616043
 28
 85.070508
  C 1.060168 -0.114130 0.288485
  C 2.603274 0.003652 0.280286
  C 3.245832 0.648618 1.545980
  C 2.320564 1.120199 2.653805
  C 3.164845 1.695252 3.788510
  C 3.494633 -0.487851 -0.611208
  C 4.806884 -0.719551 -0.999881
  C 5.259987 -1.078323 -2.213931
  C 4.469196 -1.320113 -3.450957
  C 2.973955 -1.089461 -3.358599
  H 2.512853 -1.300661 -4.320745
  H 6.320557 -1.229687 -2.328875
  H 0.671174 0.314651 1.197249
  H 0.731232 -1.153058 0.244448
  H 0.615983 0.429894 -0.545496
  H 3.847809 1.491576 1.215745
  H 3.923626 -0.098372 1.947497
  H 1.736911 0.295410 3.050328
  H 1.652368 1.898959 2.299818
  H 3.840299 0.944179 4.191097
  H 2.518409 2.036861 4.594411
  H 3.755549 2.541484 3.445541
  H 2.289300 -0.477008 -0.723493
  H 5.535607 -0.633985 -0.187982
  H 4.669850 -2.354306 -3.779781
  H 4.891526 -0.669019 -4.235783
  H 2.763192 -0.061322 -3.107741
  H 2.533285 -1.754394 -2.629739
 28
 84.879108
  C 1.077497 -0.299059 0.366368
  C 2.620743 -0.122425 0.335462
  C 3.239815 0.631163 1.547283
  C 2.298223 1.182683 2.613744
  C 3.126330 1.853911 3.708978
  C 3.521429 -0.647161 -0.544394
  C 4.803508 -0.950200 -0.951958
  C 5.241291 -1.195550 -2.212287
  C 4.457649 -1.213051 -3.465728
  C 2.972948 -0.878508 -3.358847
  H 2.515524 -0.934649 -4.350614
  H 6.289655 -1.405662 -2.342807
  H 0.689914 0.123137 1.276367
  H 0.787704 -1.348679 0.335752
  H 0.600560 0.224714 -0.463608
  H 3.845168 1.455612 1.162588
  H 3.923248 -0.082778 2.010520
  H 1.719060 0.382665 3.073483
  H 1.621404 1.925944 2.192042
  H 3.805301 1.143118 4.172506
  H 2.471481 2.249130 4.481565
  H 3.710990 2.675610 3.308648
  H 2.295082 -0.532553 -0.670738
  H 5.528633 -1.020663 -0.145685
  H 4.582613 -2.202389 -3.918310
  H 4.941858 -0.511699 -4.155096
  H 2.830837 0.133149 -2.979795
  H 2.463920 -1.600479 -2.715399
 28
 83.704961
  C 1.002735 -0.416114 0.439727
  C 2.532360 -0.199090 0.363898
  C 3.206195 0.613503 1.493026
  C 2.312482 1.221125 2.566062
  C 3.184194 1.948730 3.593218
  C 3.456088 -0.748894 -0.495323
  C 4.725027 -1.084338 -0.880600
  C 5.206885 -1.240539 -2.145146
  C 4.481296 -1.105153 -3.427332
  C 3.018941 -0.722266 -3.355136
  H 2.616136 -0.668307 -4.367721
  H 6.252945 -1.487188 -2.244412
  H 0.628243 0.013953 1.355729
  H 0.745217 -1.479113 0.431770
  H 0.490240 0.078460 -0.382518
  H 3.791348 1.420277 1.045923
  H 3.904085 -0.076735 1.962764
  H 1.748927 0.445523 3.088645
  H 1.615337 1.938556 2.132061
  H 3.882904 1.262386 4.066265
  H 2.560691 2.386002 4.370655
  H 3.754202 2.753816 3.125094
  H 2.241222 -0.566141 -0.644313
  H 5.416832 -1.262363 -0.055979
  H 4.588972 -2.054643 -3.972603
  H 5.024470 -0.365993 -4.033281
  H 2.894100 0.259380 -2.892348
  H 2.450990 -1.477483 -2.819584
 28
 81.104620
  C 0.959656 -0.483463 0.511744
  C 2.475280 -0.241587 0.373445
  C 3.188745 0.619892 1.435659
  C 2.318215 1.259045 2.524633
  C 3.208275 2.041501 3.495120
  C 3.407878 -0.831614 -0.468447
  C 4.651827 -1.226499 -0.850062
  C 5.177307 -1.318512 -2.112419
  C 4.515023 -1.031294 -3.400185
  C 3.065789 -0.570693 -3.345054
  H 2.702638 -0.388669 -4.353483
  H 6.212003 -1.619734 -2.193272
  H 0.607524 -0.049188 1.437217
  H 0.726002 -1.546713 0.520069
  H 0.403395 -0.013120 -0.301554
  H 3.743959 1.417906 0.936285
  H 3.918049 -0.042580 1.904903
  H 1.788488 0.495404 3.093679
  H 1.592650 1.948278 2.087604
  H 3.937317 1.384614 3.970655
  H 2.601343 2.496857 4.278924
  H 3.745862 2.834433 2.979645
  H 2.203945 -0.550006 -0.640658
  H 5.298019 -1.505107 -0.018943
  H 4.595059 -1.935110 -4.020445
  H 5.122112 -0.275176 -3.919375
  H 2.986112 0.358819 -2.796510
  H 2.438373 -1.324485 -2.884392
