17

C      2.411484   -0.559001    1.173188
C      3.631025    0.288748    1.127461
H      4.149000    0.503304   -0.296915
C      0.317584    1.050729   -0.163607
C     -0.980448    0.342634    0.027422
H     -2.075040    1.229463   -0.609366
C     -0.845867   -1.072574   -0.549093
H     -2.088526   -1.956535   -0.517982
H      1.982183   -0.709677    2.151042
H      2.443588   -1.455257    0.573652
H      3.435595    1.263762    1.579719
H      4.424159   -0.194191    1.723083
H      0.680451    1.097016   -1.179004
H      0.427543    1.985356    0.365960
H     -1.191413    0.265765    1.098651
H     -0.072473   -1.569228    0.039622
H     -0.496527   -1.014184   -1.581868
