 19
 0.000000
  C 1.022756 0.118448 0.347417
  C 2.493205 0.117467 0.344901
  C 3.227167 0.593351 1.526189
  H 2.556589 0.910989 2.316032
  C 3.140306 -0.342388 -0.798093
  C 4.529705 -0.408188 -0.963351
  C 5.167989 -0.860774 -2.092846
  C 4.558404 -1.353529 -3.324217
  H 3.476564 -1.350678 -3.319232
  H 6.249285 -0.856488 -2.081421
  H 0.606691 0.492591 1.277043
  H 0.645357 -0.889583 0.164356
  H 0.645406 0.718855 -0.482745
  H 3.881268 1.425264 1.261023
  H 3.882189 -0.189534 1.911191
  H 2.505750 -0.668831 -1.609049
  H 5.152970 -0.079710 -0.144295
  H 4.923861 -2.363624 -3.525046
  H 4.925118 -0.761838 -4.166665
 19
 1.067340
  C 1.043782 0.202808 0.288752
  C 2.514032 0.155988 0.325905
  C 3.244150 0.463197 1.562360
  H 2.581458 0.768084 2.365353
  C 3.166345 -0.240393 -0.840766
  C 4.547889 -0.186909 -1.071086
  C 5.191523 -0.746698 -2.153594
  C 4.581958 -1.497458 -3.244876
  H 3.504403 -1.596864 -3.163370
  H 6.266953 -0.635204 -2.208594
  H 0.615369 0.265594 1.281871
  H 0.629575 -0.678448 -0.204215
  H 0.714036 1.066007 -0.294265
  H 3.984572 1.248212 1.391482
  H 3.816367 -0.408762 1.888106
  H 2.494860 -0.649258 -1.582608
  H 5.153199 0.347422 -0.350252
  H 5.042190 -2.486265 -3.306207
  H 4.839254 -1.018949 -4.194255
 19
 3.202434
  C 1.031325 0.374149 0.291484
  C 2.488243 0.148679 0.284418
  C 3.239486 0.283269 1.538133
  H 2.604155 0.616633 2.353473
  C 3.120798 -0.166149 -0.912262
  C 4.476748 0.016896 -1.202278
  C 5.162591 -0.610338 -2.209639
  C 4.656205 -1.628404 -3.128242
  H 3.617677 -1.890084 -2.970186
  H 6.203421 -0.350344 -2.335029
  H 0.607411 0.254751 1.283991
  H 0.511058 -0.277827 -0.407033
  H 0.841439 1.397609 -0.042033
  H 4.084498 0.961782 1.417499
  H 3.680368 -0.678358 1.805007
  H 2.510092 -0.716888 -1.617200
  H 5.015128 0.741712 -0.609459
  H 5.275074 -2.524218 -3.050757
  H 4.793794 -1.280247 -4.154061
 19
 7.710921
  C 1.047703 0.503489 0.258344
  C 2.465913 0.117356 0.292769
  C 3.206662 0.127197 1.563999
  H 2.575874 0.394869 2.400885
  C 3.108271 -0.170683 -0.908877
  C 4.431445 0.090915 -1.273725
  C 5.126957 -0.557597 -2.261152
  C 4.701976 -1.738449 -3.016075
  H 3.728665 -2.114833 -2.731725
  H 6.131497 -0.217451 -2.460428
  H 0.549502 0.258166 1.190408
  H 0.513124 0.046784 -0.571349
  H 1.000095 1.581192 0.111878
  H 4.056026 0.808133 1.499377
  H 3.640897 -0.854835 1.746956
  H 2.510663 -0.848505 -1.510002
  H 4.901535 0.946180 -0.814382
  H 5.442365 -2.529719 -2.905471
  H 4.699467 -1.493661 -4.084908
 19
 21.796087
  C 1.081254 0.583754 0.187230
  C 2.473297 0.115006 0.304731
  C 3.106848 -0.000826 1.617394
  H 2.404498 0.225155 2.422657
  C 3.199701 -0.026812 -0.885137
  C 4.462552 0.234388 -1.407799
  C 5.136477 -0.542468 -2.325014
  C 4.671366 -1.801955 -2.910497
  H 3.699298 -2.117056 -2.542827
  H 6.104214 -0.186258 -2.661025
  H 0.512731 0.294633 1.054038
  H 0.576678 0.202829 -0.694870
  H 1.101478 1.671903 0.094423
  H 3.962300 0.657406 1.670633
  H 3.497667 -1.012452 1.759215
  H 2.616453 -0.915765 -1.221563
  H 4.919730 1.165916 -1.100724
  H 5.402441 -2.590217 -2.712709
  H 4.631929 -1.700638 -3.995794
 19
 36.104781
  C 1.131936 0.678504 0.099914
  C 2.506570 0.164290 0.272433
  C 3.015960 -0.118003 1.625220
  H 2.239187 0.008419 2.373510
  C 3.333833 0.112358 -0.846843
  C 4.513394 0.322679 -1.502770
  C 5.115587 -0.520814 -2.403782
  C 4.663232 -1.876878 -2.761007
  H 3.835981 -2.225431 -2.157447
  H 5.967797 -0.144419 -2.951879
  H 0.499293 0.331833 0.902208
  H 0.685345 0.383000 -0.848960
  H 1.183027 1.769823 0.110310
  H 3.853736 0.547086 1.848819
  H 3.400600 -1.128386 1.695135
  H 2.734451 -0.856799 -0.985111
  H 4.973593 1.293039 -1.331878
  H 5.492910 -2.578777 -2.664288
  H 4.372062 -1.902010 -3.814053
 19
 44.721235
  C 1.170788 0.681185 0.015707
  C 2.555790 0.146122 0.226121
  C 2.962430 -0.175391 1.637164
  H 2.120020 -0.062459 2.310795
  C 3.495625 0.230541 -0.768401
  C 4.544067 0.400062 -1.588155
  C 5.090942 -0.501620 -2.483400
  C 4.633208 -1.886966 -2.694876
  H 3.829817 -2.183249 -2.025835
  H 5.921148 -0.173864 -3.084425
  H 0.491174 0.285723 0.763675
  H 0.784037 0.453905 -0.975077
  H 1.205914 1.763571 0.115280
  H 3.756944 0.499538 1.950763
  H 3.343972 -1.188633 1.728339
  H 2.797625 -0.825175 -0.627284
  H 4.980071 1.388562 -1.532200
  H 5.472100 -2.575355 -2.571102
  H 4.298963 -2.012417 -3.726665
 19
 45.360833
  C 1.192976 0.695588 -0.007205
  C 2.561705 0.090732 0.222512
  C 2.944371 -0.163599 1.671101
  H 2.072155 -0.076591 2.310050
  C 3.536604 0.201192 -0.735547
  C 4.544905 0.362645 -1.584448
  C 5.096549 -0.505241 -2.510158
  C 4.651273 -1.889579 -2.739674
  H 3.861235 -2.201702 -2.063771
  H 5.913099 -0.147340 -3.115533
  H 0.471846 0.305252 0.704646
  H 0.836267 0.520286 -1.017086
  H 1.262959 1.771263 0.141048
  H 3.681876 0.567752 1.991112
  H 3.378820 -1.149117 1.806730
  H 2.668354 -0.922440 -0.422912
  H 4.961074 1.366603 -1.515194
  H 5.497703 -2.571503 -2.641972
  H 4.302738 -1.999880 -3.768866
 19
 44.368768
  C 1.197504 0.737386 -0.034461
  C 2.537855 0.041271 0.195610
  C 2.922635 -0.154915 1.665491
  H 2.040521 -0.087933 2.288863
  C 3.536752 0.184668 -0.740349
  C 4.545993 0.323063 -1.574357
  C 5.126015 -0.523393 -2.504005
  C 4.688087 -1.902320 -2.757171
  H 3.884510 -2.218289 -2.099697
  H 5.953412 -0.151426 -3.087151
  H 0.444331 0.360702 0.649636
  H 0.849697 0.611420 -1.058978
  H 1.317605 1.803768 0.155623
  H 3.620496 0.618057 1.975017
  H 3.395258 -1.116434 1.830815
  H 2.466592 -0.999639 -0.290673
  H 4.955608 1.331161 -1.483141
  H 5.535740 -2.586812 -2.649387
  H 4.360446 -2.001284 -3.795734
 19
 42.986969
  C 1.268437 0.803758 -0.049742
  C 2.537858 -0.022170 0.203709
  C 2.939223 -0.106905 1.687490
  H 2.046384 -0.076663 2.308193
  C 3.561317 0.096002 -0.718353
  C 4.571845 0.242354 -1.539101
  C 5.195837 -0.557214 -2.477731
  C 4.788392 -1.940717 -2.774022
  H 3.980051 -2.280989 -2.143391
  H 6.025632 -0.150543 -3.030614
  H 0.470041 0.473390 0.610786
  H 0.937379 0.715984 -1.082122
  H 1.471996 1.848929 0.160199
  H 3.569895 0.734953 1.953418
  H 3.485784 -1.023338 1.900816
  H 2.298700 -1.068809 -0.127494
  H 4.957522 1.265229 -1.410215
  H 5.642108 -2.609753 -2.663249
  H 4.485731 -2.021812 -3.822227
 19
 42.783025
  C 1.308178 0.832670 -0.062403
  C 2.524851 -0.068016 0.221701
  C 2.917081 -0.099552 1.708038
  H 2.022767 -0.033784 2.317061
  C 3.570699 0.022513 -0.685313
  C 4.531975 0.214890 -1.549649
  C 5.182104 -0.558286 -2.496021
  C 4.825227 -1.954266 -2.786138
  H 4.043695 -2.327726 -2.134093
  H 5.977869 -0.113973 -3.069316
  H 0.442973 0.438934 0.458160
  H 1.091536 0.881477 -1.124638
  H 1.509763 1.835652 0.302550
  H 3.559463 0.742130 1.947156
  H 3.444096 -1.013749 1.959442
  H 2.201388 -1.097802 -0.065188
  H 4.867653 1.255267 -1.434861
  H 5.709173 -2.586352 -2.694986
  H 4.503637 -2.048342 -3.825152
 19
 42.094300
  C 1.316729 0.845267 -0.068233
  C 2.528459 -0.056462 0.221995
  C 2.911416 -0.084916 1.708358
  H 2.033772 -0.314762 2.305233
  C 3.579661 0.021848 -0.680000
  C 4.558961 0.192505 -1.529436
  C 5.190056 -0.580609 -2.486186
  C 4.795602 -1.962244 -2.801821
  H 4.003669 -2.327329 -2.155556
  H 6.004763 -0.150415 -3.044772
  H 0.448027 0.461007 0.453569
  H 1.101435 0.889609 -1.130961
  H 1.519764 1.849373 0.291263
  H 3.285891 0.888762 2.009239
  H 3.678673 -0.828003 1.905647
  H 2.218199 -1.094091 -0.057975
  H 4.928380 1.218751 -1.386268
  H 5.661119 -2.619620 -2.725000
  H 4.469556 -2.026984 -3.842746
