 20
 0.000000
  C 1.007456 -0.071253 0.048156
  C 2.503189 -0.082651 0.024911
  C 3.219150 -0.596118 -0.980441
  C 4.656429 -0.606528 -1.001880
  C 5.378369 -1.121375 -2.013359
  C 6.816311 -1.131299 -2.032499
  C 7.534392 -1.641661 -3.036942
  C 9.024306 -1.661637 -3.073595
  H 0.647141 0.397037 0.962970
  H 0.610782 -1.085695 0.012631
  H 0.610404 0.491813 -0.796212
  H 3.004252 0.354260 0.878543
  H 2.708538 -1.030588 -1.831169
  H 5.160482 -0.171222 -0.147969
  H 4.874785 -1.556097 -2.867750
  H 7.322636 -0.697867 -1.178845
  H 7.035833 -2.076238 -3.894255
  H 9.456453 -1.210062 -2.182441
  H 9.384990 -1.114553 -3.945982
  H 9.383500 -2.689248 -3.147321
 20
 1.813105
  C 1.041388 -0.160874 -0.034446
  C 2.516459 -0.010828 0.053472
  C 3.291973 -0.469539 -0.924124
  C 4.713828 -0.480919 -0.930577
  C 5.394730 -1.043477 -1.927465
  C 6.819261 -1.127562 -1.989593
  C 7.469502 -1.672020 -3.009857
  C 8.950113 -1.715476 -3.108791
  H 0.538472 0.181629 0.872977
  H 0.827460 -1.205976 -0.191120
  H 0.636078 0.395718 -0.888934
  H 2.941417 0.429607 0.951450
  H 2.815281 -0.918081 -1.792674
  H 5.231120 -0.046396 -0.081236
  H 4.849069 -1.475661 -2.762845
  H 7.376306 -0.700711 -1.158643
  H 6.934169 -2.090391 -3.850813
  H 9.413377 -1.279071 -2.230013
  H 9.283823 -1.168334 -3.988940
  H 9.294747 -2.743084 -3.212236
 20
 3.734798
  C 1.048991 -0.281432 -0.133620
  C 2.492784 0.025938 0.087270
  C 3.355383 -0.325309 -0.865273
  C 4.780015 -0.296488 -0.840496
  C 5.444771 -0.919739 -1.817984
  C 6.858508 -1.080576 -1.931071
  C 7.406073 -1.719038 -2.960564
  C 8.887739 -1.810649 -3.171999
  H 0.443583 -0.145389 0.764067
  H 1.003808 -1.304673 -0.464208
  H 0.632819 0.343077 -0.933308
  H 2.809822 0.446670 1.033623
  H 2.937729 -0.767353 -1.764662
  H 5.291979 0.158307 -0.000874
  H 4.868176 -1.368088 -2.620599
  H 7.482830 -0.649219 -1.156758
  H 6.786351 -2.135386 -3.743886
  H 9.429431 -1.389825 -2.328049
  H 9.169781 -1.266851 -4.077445
  H 9.198806 -2.849564 -3.307741
 20
 7.430334
  C 1.100053 -0.355127 -0.234583
  C 2.493775 0.047816 0.100746
  C 3.409674 -0.214287 -0.822114
  C 4.832135 -0.187562 -0.766020
  C 5.473497 -0.862836 -1.726840
  C 6.864528 -1.078865 -1.890934
  C 7.330863 -1.801807 -2.913791
  C 8.802791 -1.848577 -3.206547
  H 0.454563 -0.410362 0.632437
  H 1.186920 -1.344977 -0.721839
  H 0.655635 0.329698 -0.947433
  H 2.724564 0.431025 1.077624
  H 3.032253 -0.626147 -1.749467
  H 5.344660 0.278417 0.061485
  H 4.869109 -1.320042 -2.498230
  H 7.542829 -0.624657 -1.185634
  H 6.659945 -2.250538 -3.628978
  H 9.372456 -1.399340 -2.402997
  H 9.013243 -1.305773 -4.127888
  H 9.144067 -2.870710 -3.350757
 20
 10.934727
  C 1.158466 -0.541468 -0.313993
  C 2.480287 0.038502 0.117406
  C 3.449270 -0.052820 -0.800032
  C 4.880676 0.039068 -0.724334
  C 5.520656 -0.637454 -1.690968
  C 6.895868 -0.949950 -1.867032
  C 7.257390 -1.727983 -2.903251
  C 8.698843 -2.008580 -3.216361
  H 0.502464 -0.793914 0.515607
  H 1.416521 -1.440680 -0.890983
  H 0.624203 0.145423 -0.971372
  H 2.633747 0.361347 1.139027
  H 3.120302 -0.436473 -1.762282
  H 5.373818 0.466706 0.136470
  H 4.899858 -1.070408 -2.469186
  H 7.632778 -0.553327 -1.178724
  H 6.528442 -2.115737 -3.595873
  H 9.354966 -1.622157 -2.434461
  H 8.978416 -1.531330 -4.150729
  H 8.871688 -3.085812 -3.342928
 20
 15.947141
  C 1.280446 -0.691503 -0.359549
  C 2.518500 0.007270 0.115025
  C 3.469348 0.078275 -0.816285
  C 4.896070 0.198582 -0.748279
  C 5.512238 -0.479085 -1.728267
  C 6.866819 -0.887724 -1.887902
  C 7.169179 -1.718974 -2.881668
  C 8.584449 -2.109260 -3.155226
  H 0.665877 -1.081017 0.447489
  H 1.667017 -1.513067 -0.984066
  H 0.661474 -0.034669 -0.977841
  H 2.645865 0.269083 1.148087
  H 3.143657 -0.234436 -1.803996
  H 5.397139 0.580817 0.126015
  H 4.877750 -0.873645 -2.516962
  H 7.622685 -0.534907 -1.206908
  H 6.419709 -2.072412 -3.580822
  H 9.238710 -1.791635 -2.346092
  H 8.928283 -1.641798 -4.083563
  H 8.676090 -3.182081 -3.284370
 20
 18.651998
  C 1.436445 -0.895837 -0.405733
  C 2.601382 -0.085047 0.074731
  C 3.459617 0.271807 -0.879479
  C 4.885441 0.399672 -0.800486
  C 5.505222 -0.243905 -1.804222
  C 6.836839 -0.746796 -1.910186
  C 7.081243 -1.701291 -2.806430
  C 8.443202 -2.264891 -3.063121
  H 0.925114 -1.416698 0.398943
  H 1.892538 -1.629310 -1.089975
  H 0.709317 -0.291209 -0.947791
  H 2.791449 0.019992 1.133831
  H 3.105233 0.122965 -1.894322
  H 5.380988 0.724573 0.098327
  H 4.880011 -0.564459 -2.631757
  H 7.596176 -0.422667 -1.214284
  H 6.302414 -2.032856 -3.483967
  H 9.117079 -2.042721 -2.239733
  H 8.856737 -1.830422 -3.978084
  H 8.403502 -3.342568 -3.199548
 20
 21.115927
  C 1.622568 -1.085649 -0.441138
  C 2.740576 -0.212331 0.020365
  C 3.451305 0.396347 -0.924642
  C 4.875820 0.549138 -0.873829
  C 5.484956 -0.005806 -1.932166
  C 6.775321 -0.613569 -1.976678
  C 6.964361 -1.659489 -2.777106
  C 8.267742 -2.386565 -2.902853
  H 1.195129 -1.675620 0.366603
  H 2.111480 -1.760318 -1.171804
  H 0.827380 -0.531301 -0.934909
  H 3.065777 -0.264971 1.052670
  H 3.033585 0.392949 -1.926829
  H 5.379985 0.758592 0.050742
  H 4.864332 -0.246352 -2.789782
  H 7.533900 -0.303635 -1.274171
  H 6.186128 -1.973794 -3.459283
  H 8.921475 -2.164771 -2.065058
  H 8.773174 -2.081023 -3.825225
  H 8.111529 -3.462412 -2.956963
 20
 25.002719
  C 1.809301 -1.258003 -0.482477
  C 2.857636 -0.298303 -0.038328
  C 3.449511 0.455907 -0.958525
  C 4.868862 0.661934 -0.932851
  C 5.472382 0.153481 -2.013716
  C 6.732968 -0.519383 -2.023132
  C 6.847131 -1.642439 -2.725599
  C 8.096477 -2.471154 -2.772246
  H 1.438640 -1.873411 0.327135
  H 2.338756 -1.899066 -1.221685
  H 0.968489 -0.768619 -0.975358
  H 3.263146 -0.402390 0.953001
  H 2.987418 0.513503 -1.936853
  H 5.385862 0.829779 -0.000022
  H 4.852192 -0.057792 -2.879553
  H 7.510968 -0.209155 -1.334654
  H 6.046938 -1.962170 -3.388500
  H 8.751779 -2.238892 -1.938685
  H 8.638678 -2.271506 -3.700036
  H 7.860557 -3.531466 -2.754604
 20
 28.397494
  C 1.993991 -1.426252 -0.535445
  C 2.962145 -0.381765 -0.086741
  C 3.446929 0.479330 -0.982396
  C 4.862927 0.753589 -0.983988
  C 5.465285 0.293104 -2.090391
  C 6.710732 -0.431133 -2.082289
  C 6.737362 -1.622858 -2.675049
  C 7.916821 -2.539842 -2.636342
  H 1.645183 -2.059241 0.278083
  H 2.589065 -2.033712 -1.247208
  H 1.139209 -1.007954 -1.059623
  H 3.454454 -0.530486 0.868289
  H 2.938784 0.573934 -1.933180
  H 5.393148 0.886559 -0.053091
  H 4.846889 0.106784 -2.956641
  H 7.516606 -0.107697 -1.444288
  H 5.902107 -1.956477 -3.281128
  H 8.617251 -2.243719 -1.857812
  H 8.441795 -2.518595 -3.597511
  H 7.601206 -3.563630 -2.460577
 20
 33.074264
  C 2.178859 -1.559590 -0.578298
  C 3.041704 -0.429132 -0.123538
  C 3.439257 0.487250 -1.009158
  C 4.847002 0.816236 -1.031252
  C 5.438428 0.352766 -2.141776
  C 6.669051 -0.401986 -2.116280
  C 6.632642 -1.636778 -2.611277
  C 7.780836 -2.592479 -2.530803
  H 1.858146 -2.205443 0.235066
  H 2.847386 -2.129921 -1.260809
  H 1.309240 -1.223358 -1.140026
  H 3.570814 -0.557974 0.813570
  H 2.904766 0.573109 -1.946429
  H 5.386035 0.963127 -0.111044
  H 4.810026 0.154009 -2.996418
  H 7.502465 -0.061728 -1.522774
  H 5.763089 -1.985668 -3.163047
  H 8.516921 -2.256162 -1.809446
  H 8.269274 -2.680168 -3.505316
  H 7.433623 -3.584725 -2.249068
 20
 38.000371
  C 2.369861 -1.685566 -0.617991
  C 3.129724 -0.490200 -0.160478
  C 3.431754 0.472347 -1.035726
  C 4.823118 0.860146 -1.084870
  C 5.408291 0.404250 -2.201995
  C 6.621945 -0.380366 -2.150507
  C 6.527694 -1.648203 -2.543050
  C 7.645552 -2.635816 -2.414768
  H 2.075454 -2.346548 0.194915
  H 3.105436 -2.208689 -1.274755
  H 1.497438 -1.424829 -1.209219
  H 3.705742 -0.600894 0.753209
  H 2.868637 0.544172 -1.951033
  H 5.375037 1.009130 -0.169788
  H 4.773637 0.197209 -3.054616
  H 7.477820 -0.027045 -1.607445
  H 5.628031 -2.010422 -3.044977
  H 8.421336 -2.261105 -1.760372
  H 8.088154 -2.837668 -3.392631
  H 7.273286 -3.583605 -2.021328
 20
 43.127774
  C 2.572918 -1.815687 -0.650875
  C 3.229103 -0.558178 -0.197513
  C 3.423590 0.441905 -1.064039
  C 4.795420 0.892905 -1.141333
  C 5.374828 0.447031 -2.266630
  C 6.570277 -0.370216 -2.181608
  C 6.419159 -1.660768 -2.470671
  C 7.506408 -2.674785 -2.291835
  H 2.318656 -2.490150 0.162934
  H 3.360556 -2.285070 -1.289153
  H 1.689928 -1.629036 -1.264200
  H 3.854185 -0.639710 0.684236
  H 2.829433 0.492834 -1.962033
  H 5.358371 1.047658 -0.238097
  H 4.736284 0.231442 -3.110996
  H 7.454510 -0.007606 -1.684843
  H 5.502347 -2.026403 -2.921015
  H 8.320014 -2.272153 -1.694509
  H 7.908409 -2.979816 -3.262999
  H 7.117294 -3.563331 -1.807163
 20
 48.739406
  C 2.790725 -1.950092 -0.676238
  C 3.336779 -0.637383 -0.230726
  C 3.418332 0.387973 -1.089854
  C 4.763719 0.909818 -1.205306
  C 5.341374 0.481572 -2.340015
  C 6.519110 -0.365505 -2.214772
  C 6.314960 -1.669137 -2.395868
  C 7.368686 -2.704514 -2.158971
  H 2.588088 -2.637916 0.140579
  H 3.620153 -2.353325 -1.307060
  H 1.900246 -1.841853 -1.298025
  H 4.005452 -0.675790 0.621833
  H 2.786910 0.414435 -1.962297
  H 5.341531 1.073967 -0.312942
  H 4.704402 0.265944 -3.186039
  H 7.423086 0.001782 -1.758728
  H 5.378775 -2.036675 -2.803837
  H 8.211797 -2.284540 -1.617466
  H 7.732806 -3.107277 -3.108743
  H 6.958835 -3.531851 -1.589619
