 11
 0.000000
  H 1.365650 0.141294 0.403454
  C 2.435627 0.138812 0.396949
  H 3.007996 0.476028 1.235745
  C 3.047724 -0.326485 -0.761128
  C 4.427680 -0.410350 -0.970580
  C 5.111749 -0.860636 -2.093538
  H 4.760337 -1.236769 -3.031586
  O 6.434575 -0.852273 -2.073085
  H 2.388559 -0.643775 -1.550690
  H 5.047217 -0.079018 -0.145404
  H 6.800018 -0.516405 -1.234749
 11
 0.000000
  H 1.347997 0.141034 0.402789
  C 2.417928 0.145739 0.414209
  H 2.973888 0.486747 1.262457
  C 3.052451 -0.315374 -0.733426
  C 4.436256 -0.389958 -0.919727
  C 5.207134 -0.876686 -2.133558
  H 4.874019 -1.255121 -3.077340
  O 6.384678 -0.874805 -2.129247
  H 2.408751 -0.637043 -1.533902
  H 5.039644 -0.054516 -0.084306
  H 6.684384 -0.539595 -1.292560
 11
 0.000000
  H 1.323539 0.142985 0.407633
  C 2.393120 0.154282 0.435496
  H 2.933866 0.498671 1.292172
  C 3.048036 -0.302862 -0.702230
  C 4.434976 -0.368909 -0.867237
  C 5.300667 -0.895393 -2.180203
  H 4.984435 -1.275831 -3.128975
  O 6.357292 -0.900390 -2.193024
  H 2.418708 -0.628455 -1.512490
  H 5.023376 -0.029793 -0.022657
  H 6.606279 -0.562855 -1.350539
 11
 0.000000
  H 1.292681 0.147282 0.418327
  C 2.361695 0.164518 0.461005
  H 2.888600 0.511875 1.325077
  C 3.034840 -0.288940 -0.667521
  C 4.424280 -0.347278 -0.813295
  C 5.392573 -0.916906 -2.233842
  H 5.091632 -1.299060 -3.186891
  O 6.351961 -0.928735 -2.263681
  H 2.418615 -0.617994 -1.486409
  H 4.999030 -0.004930 0.039342
  H 6.561951 -0.585767 -1.407648
 11
 0.000000
  H 1.256377 0.153838 0.434648
  C 2.324691 0.176316 0.490405
  H 2.839273 0.526229 1.360851
  C 3.013813 -0.273804 -0.629785
  C 4.405203 -0.325321 -0.758542
  C 5.482324 -0.940875 -2.293603
  H 5.194948 -1.324473 -3.250251
  O 6.366515 -0.959190 -2.339602
  H 2.409277 -0.605853 -1.456143
  H 4.967790 0.019818 0.101055
  H 6.546540 -0.607755 -1.462451
 11
 0.000000
  H 1.216002 0.162322 0.455779
  C 2.283555 0.189371 0.522939
  H 2.787311 0.541464 1.398822
  C 2.986520 -0.257773 -0.589817
  C 4.379414 -0.303332 -0.703709
  C 5.569279 -0.966523 -2.357552
  H 5.293778 -1.351328 -3.317206
  O 6.396928 -0.990863 -2.418560
  H 2.392268 -0.592389 -1.422576
  H 4.931308 0.044194 0.161838
  H 6.553333 -0.628376 -1.513842
 11
 0.000000
  H 1.172773 0.172335 0.480722
  C 2.239542 0.203385 0.557866
  H 2.733758 0.557351 1.438417
  C 2.954559 -0.241102 -0.548257
  C 4.348619 -0.281437 -0.649111
  C 5.653363 -0.993039 -2.423662
  H 5.388297 -1.378858 -3.385844
  O 6.438712 -1.022968 -2.498596
  H 2.369382 -0.577931 -1.386532
  H 4.891084 0.068142 0.221555
  H 6.575214 -0.647553 -1.561633
 11
 0.000000
  H 1.127392 0.183569 0.508708
  C 2.193372 0.218181 0.594743
  H 2.679044 0.573786 1.479378
  C 2.919066 -0.223901 -0.505374
  C 4.314046 -0.259578 -0.594603
  C 5.735014 -1.019826 -2.490449
  H 5.479269 -1.406516 -3.454802
  O 6.488331 -1.055004 -2.578461
  H 2.342027 -0.562673 -1.348494
  H 4.848063 0.091801 0.280550
  H 6.606433 -0.665480 -1.606307
 11
 0.000000
  H 1.080114 0.195839 0.539281
  C 2.145300 0.233693 0.633402
  H 2.623162 0.590764 1.521693
  C 2.880663 -0.206171 -0.461171
  C 4.276382 -0.237604 -0.539810
  C 5.814772 -1.046502 -2.556956
  H 5.567529 -1.433957 -3.523218
  O 6.543494 -1.086689 -2.657451
  H 2.311071 -0.546687 -1.308641
  H 4.802672 0.115389 0.339366
  H 6.643027 -0.682418 -1.648515
 11
 0.000000
  H 1.030901 0.209062 0.572227
  C 2.095287 0.249923 0.673855
  H 2.565864 0.608335 1.565489
  C 2.839587 -0.187852 -0.415502
  C 4.235910 -0.215342 -0.484300
  C 5.893027 -1.072797 -2.622514
  H 5.653697 -1.460940 -3.590491
  O 6.602838 -1.117850 -2.735134
  H 2.276948 -0.529969 -1.266963
  H 4.754990 0.139128 0.398561
  H 6.682395 -0.698574 -1.688775
 11
 0.000000
  H 0.979521 0.223218 0.607499
  C 2.043092 0.266922 0.716222
  H 2.506754 0.626583 1.610970
  C 2.795807 -0.168855 -0.368143
  C 4.192626 -0.192614 -0.427628
  C 5.969944 -1.098480 -2.686544
  H 5.738113 -1.487252 -3.656093
  O 6.665541 -1.148344 -2.811154
  H 2.239774 -0.512468 -1.223334
  H 4.704859 0.163235 0.458671
  H 6.722781 -0.714059 -1.727363
 11
 0.000000
  H 0.925553 0.238338 0.645177
  C 1.988290 0.284773 0.760717
  H 2.445280 0.645619 1.658416
  C 2.749060 -0.149061 -0.318796
  C 4.146288 -0.169231 -0.369323
  C 6.045442 -1.123299 -2.748421
  H 5.820831 -1.512657 -3.719433
  O 6.731036 -1.178006 -2.885100
  H 2.199406 -0.494095 -1.177531
  H 4.651911 0.187928 0.520239
  H 6.762878 -0.728871 -1.764277
 11
 0.000000
  H 0.868323 0.254510 0.685476
  C 1.930194 0.303614 0.807676
  H 2.380640 0.665600 1.708219
  C 2.698805 -0.128301 -0.267042
  C 4.096368 -0.144961 -0.308808
  C 6.119154 -1.146931 -2.807334
  H 5.901614 -1.536843 -3.779733
  O 6.798784 -1.206599 -2.956381
  H 2.155414 -0.474709 -1.129203
  H 4.595506 0.213461 0.583903
  H 6.801526 -0.742869 -1.799163
 11
 0.000000
  H 0.806667 0.271906 0.728827
  C 1.867627 0.323671 0.857666
  H 2.311522 0.686779 1.761007
  C 2.644026 -0.106309 -0.212219
  C 4.041861 -0.119466 -0.245241
  C 6.190296 -1.168887 -2.862069
  H 5.979821 -1.559334 -3.835807
  O 6.868013 -1.233718 -3.023984
  H 2.106909 -0.454073 -1.077759
  H 4.534505 0.240200 0.650572
  H 6.837395 -0.755698 -1.831135
