 20
 0.000000
  C 1.006659 -0.071896 0.046917
  C 2.502898 -0.082315 0.026464
  C 3.219303 -0.594939 -0.979905
  C 4.657063 -0.605492 -1.000623
  C 5.377791 -1.120731 -2.012122
  C 6.816275 -1.130255 -2.030813
  C 7.534310 -1.642090 -3.035639
  C 9.024633 -1.662010 -3.074738
  H 0.643690 0.394231 0.961998
  H 0.611501 -1.086883 0.007964
  H 0.611502 0.493368 -0.796999
  H 3.002619 0.353287 0.881627
  H 2.708545 -1.028507 -1.831060
  H 5.161381 -0.170542 -0.146746
  H 4.873961 -1.555763 -2.866161
  H 7.324083 -0.696021 -1.178340
  H 7.035215 -2.078291 -3.891957
  H 9.463166 -1.209343 -2.186084
  H 9.382402 -1.116584 -3.949403
  H 9.382403 -2.690205 -3.147831
 20
 0.238858
  C 1.011934 -0.026701 0.037220
  C 2.502955 -0.082844 0.025364
  C 3.223094 -0.585983 -0.981276
  C 4.654603 -0.662247 -0.982865
  C 5.379553 -1.162117 -1.999875
  C 6.814801 -1.214856 -2.011131
  C 7.535669 -1.672818 -3.037646
  C 9.021050 -1.611217 -3.090023
  H 0.653738 0.687939 0.771324
  H 0.599614 -1.004396 0.289039
  H 0.626527 0.249929 -0.941249
  H 3.008136 0.280773 0.910649
  H 2.719152 -0.955204 -1.865076
  H 5.159819 -0.290647 -0.100574
  H 4.874608 -1.529240 -2.883097
  H 7.316450 -0.881922 -1.112043
  H 7.041375 -2.110683 -3.896414
  H 9.410119 -1.255117 -2.136759
  H 9.327424 -0.899305 -3.858727
  H 9.458048 -2.575195 -3.342005
 20
 2.956416
  C 1.024996 0.014507 0.023755
  C 2.513326 -0.095183 0.023806
  C 3.226064 -0.597812 -0.987833
  C 4.655943 -0.726752 -0.977145
  C 5.374489 -1.217373 -2.002688
  C 6.810246 -1.288774 -2.013977
  C 7.533861 -1.743049 -3.043354
  C 9.007797 -1.548116 -3.104022
  H 0.688688 0.770571 0.729015
  H 0.577740 -0.936945 0.312515
  H 0.653572 0.265421 -0.968006
  H 3.023724 0.250904 0.914134
  H 2.718238 -0.936577 -1.880398
  H 5.163617 -0.399267 -0.082576
  H 4.866542 -1.533082 -2.902159
  H 7.303974 -1.037879 -1.085882
  H 7.067691 -2.282774 -3.855103
  H 9.331229 -1.136029 -2.150256
  H 9.228303 -0.781419 -3.851725
  H 9.553422 -2.446315 -3.375090
 20
 10.937281
  C 1.064067 0.093692 0.004369
  C 2.545925 -0.124756 0.034889
  C 3.252741 -0.597366 -0.993476
  C 4.667041 -0.815356 -0.960554
  C 5.372013 -1.317720 -1.985820
  C 6.795200 -1.390400 -2.006152
  C 7.526387 -1.835423 -3.042005
  C 8.960589 -1.427548 -3.105980
  H 0.762236 0.841096 0.741449
  H 0.539761 -0.838805 0.237078
  H 0.736879 0.418615 -0.986949
  H 3.058215 0.156303 0.948205
  H 2.744523 -0.858408 -1.915580
  H 5.182557 -0.519295 -0.056223
  H 4.855986 -1.578789 -2.906064
  H 7.276950 -1.221671 -1.049528
  H 7.136574 -2.533100 -3.770572
  H 9.136534 -0.911490 -2.153650
  H 9.051533 -0.618830 -3.843478
  H 9.667421 -2.213629 -3.369295
 20
 25.095394
  C 1.093572 0.151837 0.012441
  C 2.564084 -0.157761 0.053009
  C 3.272973 -0.548302 -1.005766
  C 4.673751 -0.844435 -0.969224
  C 5.373573 -1.353489 -2.023285
  C 6.796968 -1.470635 -2.045339
  C 7.533257 -1.903344 -3.079929
  C 8.921381 -1.368087 -3.083395
  H 0.785250 0.704807 0.897678
  H 0.512385 -0.774347 -0.021988
  H 0.840388 0.733122 -0.877322
  H 3.052695 -0.068552 1.015417
  H 2.780786 -0.652056 -1.967784
  H 5.199075 -0.599117 -0.052271
  H 4.843876 -1.578246 -2.951123
  H 7.246424 -1.478793 -1.057860
  H 7.221640 -2.678677 -3.757124
  H 8.927358 -0.834279 -2.118091
  H 8.956220 -0.500015 -3.752805
  H 9.719570 -2.045935 -3.352386
 20
 48.692889
  C 1.148091 0.228242 -0.004610
  C 2.588708 -0.166149 0.041315
  C 3.302326 -0.530041 -1.037014
  C 4.676091 -0.932733 -0.993040
  C 5.384983 -1.330488 -2.078727
  C 6.788623 -1.575316 -2.063362
  C 7.553383 -1.975810 -3.131946
  C 8.871818 -1.336370 -3.012780
  H 0.857987 0.753460 0.901233
  H 0.517433 -0.658119 -0.094040
  H 0.945164 0.865284 -0.864292
  H 3.053264 -0.189038 1.018957
  H 2.831266 -0.525605 -2.013368
  H 5.173978 -0.858287 -0.033475
  H 4.895665 -1.355466 -3.047045
  H 7.157357 -1.821678 -1.075539
  H 7.287439 -2.731486 -3.849669
  H 8.578152 -0.859770 -2.000297
  H 8.917835 -0.332552 -3.455411
  H 9.750593 -1.902149 -3.288462
 20
 68.917239
  C 1.166065 0.183141 -0.008669
  C 2.626561 -0.123515 0.035694
  C 3.331129 -0.553908 -1.012683
  C 4.719245 -0.894301 -0.960966
  C 5.428944 -1.337859 -2.022962
  C 6.839080 -1.581681 -2.000811
  C 7.568030 -2.079988 -3.072162
  C 8.784715 -1.287938 -3.130061
  H 0.875375 0.818781 0.822634
  H 0.582980 -0.737813 0.046115
  H 0.903815 0.682766 -0.940418
  H 3.111323 -0.026736 0.998083
  H 2.849247 -0.639257 -1.979170
  H 5.219921 -0.750262 -0.011348
  H 4.937876 -1.429660 -2.985259
  H 7.234777 -1.731948 -1.004738
  H 7.302327 -2.914443 -3.701183
  H 8.337023 -0.738895 -2.085577
  H 8.701968 -0.292281 -3.569153
  H 9.707609 -1.765571 -3.436855
 20
 80.954026
  C 1.150471 0.153959 -0.020969
  C 2.618481 -0.114019 0.031623
  C 3.338448 -0.544841 -1.008094
  C 4.743886 -0.832611 -0.950407
  C 5.463273 -1.285777 -1.993249
  C 6.891295 -1.509775 -1.965649
  C 7.609201 -2.107774 -3.044429
  C 8.765832 -1.344432 -3.220416
  H 0.847459 0.825601 0.778031
  H 0.592949 -0.777770 0.094678
  H 0.868336 0.590741 -0.977504
  H 3.101561 0.032116 0.989046
  H 2.855847 -0.690560 -1.966848
  H 5.235266 -0.660561 0.000121
  H 4.975487 -1.431943 -2.949210
  H 7.283546 -1.664165 -0.965049
  H 7.329239 -3.000734 -3.582277
  H 8.109691 -0.653646 -2.039270
  H 8.681646 -0.342098 -3.617810
  H 9.696855 -1.809022 -3.548102
 20
 66.908392
  C 1.175610 0.149442 -0.084663
  C 2.638602 -0.123213 0.005013
  C 3.373707 -0.524376 -1.003777
  C 4.774697 -0.821684 -0.908175
  C 5.490664 -1.310631 -1.896184
  C 6.941668 -1.486356 -1.864587
  C 7.633725 -2.127495 -2.997611
  C 8.682154 -1.353257 -3.330842
  H 0.837745 0.758296 0.755206
  H 0.618772 -0.789602 -0.060728
  H 0.927565 0.655103 -1.016251
  H 3.094046 -0.002398 0.979820
  H 2.925062 -0.620059 -1.987710
  H 5.259382 -0.574830 0.029744
  H 5.012402 -1.516386 -2.844471
  H 7.361331 -1.673597 -0.865392
  H 7.350227 -3.057594 -3.456944
  H 7.847233 -0.648277 -1.945779
  H 8.536362 -0.325140 -3.620063
  H 9.593171 -1.740331 -3.776662
 20
 49.597939
  C 1.131437 0.120018 -0.044586
  C 2.607911 -0.094409 0.022094
  C 3.344005 -0.534137 -0.998094
  C 4.766559 -0.750902 -0.930853
  C 5.498669 -1.201383 -1.949304
  C 6.957016 -1.399417 -1.905008
  C 7.669213 -2.116397 -2.991747
  C 8.770959 -1.443097 -3.341517
  H 0.795131 0.777124 0.756944
  H 0.605644 -0.831137 0.056421
  H 0.846097 0.554098 -0.999876
  H 3.081050 0.094588 0.978405
  H 2.867427 -0.753595 -1.947436
  H 5.243439 -0.535946 0.017796
  H 5.024269 -1.395321 -2.903199
  H 7.308018 -1.655253 -0.893466
  H 7.345064 -3.056141 -3.412423
  H 7.755286 -0.544842 -1.930185
  H 8.703366 -0.409269 -3.640610
  H 9.653961 -1.910508 -3.774550
 20
 28.463632
  C 1.079579 0.075775 -0.037885
  C 2.563140 -0.107560 0.037896
  C 3.328188 -0.510957 -0.995326
  C 4.774519 -0.661809 -0.928258
  C 5.539237 -1.100560 -1.958539
  C 7.013463 -1.305454 -1.887763
  C 7.709282 -2.081163 -2.969308
  C 8.805481 -1.554147 -3.415806
  H 0.728497 0.748534 0.745231
  H 0.570048 -0.883431 0.089027
  H 0.789865 0.475789 -1.002516
  H 3.029457 0.116351 0.992857
  H 2.861966 -0.747842 -1.948764
  H 5.233503 -0.457607 0.032464
  H 5.074473 -1.326116 -2.914402
  H 7.311162 -1.684151 -0.895780
  H 7.321314 -3.026673 -3.307496
  H 7.668513 -0.408495 -1.884531
  H 8.882973 -0.490498 -3.588833
  H 9.571545 -2.115739 -3.943937
 20
 16.727035
  C 1.099862 0.093702 -0.091926
  C 2.579853 -0.089252 0.008056
  C 3.350119 -0.528680 -0.992276
  C 4.772325 -0.740780 -0.880992
  C 5.550871 -1.146144 -1.896019
  C 7.033857 -1.278655 -1.817075
  C 7.706333 -2.071413 -2.899098
  C 8.723528 -1.543772 -3.518146
  H 0.734198 0.753595 0.689245
  H 0.595181 -0.866401 0.016722
  H 0.823057 0.504219 -1.059824
  H 3.027980 0.127451 0.969793
  H 2.901241 -0.775649 -1.946241
  H 5.214013 -0.535575 0.087353
  H 5.116034 -1.306708 -2.874254
  H 7.337463 -1.682529 -0.841020
  H 7.329196 -3.052042 -3.134947
  H 7.571676 -0.322073 -1.836120
  H 8.855231 -0.475299 -3.559571
  H 9.400140 -2.067773 -4.160445
 20
 11.180814
  C 1.087406 0.036504 -0.122928
  C 2.569194 -0.110495 -0.002497
  C 3.365736 -0.493469 -1.000408
  C 4.792948 -0.658399 -0.874646
  C 5.585995 -1.060667 -1.867609
  C 7.069241 -1.211408 -1.754891
  C 7.684977 -2.063836 -2.821995
  C 8.630252 -1.598913 -3.613794
  H 0.692685 0.671141 0.666515
  H 0.603586 -0.938644 -0.045042
  H 0.816458 0.462127 -1.087598
  H 2.996679 0.096196 0.970000
  H 2.943565 -0.697990 -1.976589
  H 5.221723 -0.426090 0.092785
  H 5.163889 -1.287196 -2.838318
  H 7.338402 -1.617292 -0.772442
  H 7.318802 -3.077283 -2.914376
  H 7.582619 -0.237236 -1.803878
  H 8.896844 -0.551991 -3.617737
  H 9.203098 -2.198426 -4.308057
 20
 10.401729
  C 1.079631 0.051976 -0.164806
  C 2.554979 -0.121089 -0.019546
  C 3.367438 -0.491884 -1.009147
  C 4.789862 -0.672140 -0.860240
  C 5.598185 -1.063011 -1.845906
  C 7.082570 -1.217974 -1.708556
  C 7.704096 -2.044345 -2.794051
  C 8.544137 -1.560293 -3.687815
  H 0.703606 0.792969 0.539278
  H 0.566901 -0.890611 0.036065
  H 0.822432 0.360036 -1.176783
  H 2.964204 0.061465 0.965250
  H 2.964487 -0.668668 -1.997616
  H 5.203550 -0.468383 0.121588
  H 5.193742 -1.270485 -2.827473
  H 7.324648 -1.666823 -0.739014
  H 7.474279 -3.102093 -2.771358
  H 7.573733 -0.230989 -1.701049
  H 8.726298 -0.499360 -3.767053
  H 9.066725 -2.176460 -4.399333
 20
 9.209541
  C 1.083299 0.021036 -0.183224
  C 2.557946 -0.144265 -0.027763
  C 3.384852 -0.484008 -1.016008
  C 4.806837 -0.664658 -0.850809
  C 5.630899 -1.013282 -1.837958
  C 7.114244 -1.178740 -1.680890
  C 7.701055 -2.035805 -2.757438
  C 8.489700 -1.577826 -3.711302
  H 0.707532 0.793245 0.484448
  H 0.573372 -0.910900 0.068017
  H 0.825288 0.279069 -1.207989
  H 2.952178 0.011049 0.968439
  H 2.995117 -0.637173 -2.014940
  H 5.199309 -0.501109 0.145347
  H 5.240395 -1.178979 -2.833722
  H 7.327676 -1.625335 -0.704464
  H 7.422947 -3.081378 -2.725593
  H 7.600149 -0.197696 -1.702109
  H 8.769960 -0.537204 -3.755368
  H 8.922749 -2.214203 -4.464237
