 22
 0.000000
  C 0.976498 0.210665 0.565817
  C 2.416771 0.123372 0.351773
  H 3.087087 0.437716 1.140746
  C 2.954657 -0.349675 -0.823278
  C 4.351452 -0.424270 -1.008810
  C 5.049297 -0.868270 -2.112583
  C 4.620616 -1.388786 -3.407792
  C 3.150970 -1.532161 -3.767290
  C 2.995172 -2.098077 -5.176392
  H 6.128843 -0.830198 -2.017144
  H 0.722188 0.606059 1.543911
  H 0.518446 -0.774191 0.440734
  H 0.515134 0.829455 -0.208145
  H 2.281614 -0.664118 -1.604930
  H 4.952478 -0.087379 -0.171459
  H 5.117625 -2.363113 -3.527479
  H 5.118756 -0.769140 -4.168340
  H 2.659319 -0.558568 -3.730445
  H 2.657955 -2.208900 -3.067357
  H 3.455220 -1.444853 -5.914395
  H 1.942881 -2.198772 -5.429517
  H 3.453742 -3.081029 -5.257198
 22
 3.409402
  C 0.992554 0.245156 0.564544
  C 2.399669 0.123166 0.347468
  H 3.077274 0.430483 1.137093
  C 2.943250 -0.352420 -0.820900
  C 4.330179 -0.428273 -0.999020
  C 5.033104 -0.870481 -2.097516
  C 4.611402 -1.389860 -3.398447
  C 3.143692 -1.532591 -3.768391
  C 2.997746 -2.095632 -5.179874
  H 6.111821 -0.833556 -1.995617
  H 0.707769 0.611009 1.544899
  H 0.731909 -0.776941 0.406891
  H 0.483479 0.821824 -0.211633
  H 2.276119 -0.666976 -1.605434
  H 4.926288 -0.092211 -0.159270
  H 5.109945 -2.363701 -3.519060
  H 5.115643 -0.770915 -4.156161
  H 2.652047 -0.558951 -3.732596
  H 2.646409 -2.210803 -3.073106
  H 3.463115 -1.440730 -5.912983
  H 1.947248 -2.195947 -5.440684
  H 3.457225 -3.078225 -5.259231
 22
 8.245921
  C 0.975485 0.285604 0.551082
  C 2.393911 0.141034 0.347930
  H 3.078406 0.446281 1.128744
  C 2.941492 -0.357426 -0.818319
  C 4.333995 -0.443332 -0.992307
  C 5.035056 -0.885379 -2.086873
  C 4.611284 -1.396567 -3.392987
  C 3.141061 -1.526751 -3.762744
  C 2.991852 -2.077195 -5.178452
  H 6.114254 -0.858152 -1.982441
  H 0.668106 0.680661 1.518099
  H 0.937811 -0.802514 0.462459
  H 0.399574 0.713772 -0.277766
  H 2.278017 -0.674161 -1.606004
  H 4.931279 -0.110591 -0.151576
  H 5.102278 -2.372620 -3.520298
  H 5.118867 -0.777734 -4.147590
  H 2.656382 -0.549842 -3.719235
  H 2.640674 -2.208453 -3.073057
  H 3.462188 -1.418957 -5.905661
  H 1.940682 -2.168975 -5.440705
  H 3.445968 -3.061855 -5.265223
 22
 14.639337
  C 0.964510 0.319395 0.563285
  C 2.380347 0.141626 0.354074
  H 3.068942 0.441750 1.135797
  C 2.927982 -0.361150 -0.816648
  C 4.324148 -0.451136 -0.990329
  C 5.029236 -0.893683 -2.085622
  C 4.612647 -1.401438 -3.394786
  C 3.143688 -1.529323 -3.770862
  C 3.001296 -2.075197 -5.189476
  H 6.107481 -0.868860 -1.978176
  H 0.649600 0.716793 1.518491
  H 1.082883 -0.778674 0.499038
  H 0.360221 0.673571 -0.264869
  H 2.264052 -0.675524 -1.606518
  H 4.921724 -0.121218 -0.147621
  H 5.101510 -2.378536 -3.520733
  H 5.122340 -0.779160 -4.145020
  H 2.659933 -0.552152 -3.726770
  H 2.640353 -2.213501 -3.086172
  H 3.475967 -1.414701 -5.911695
  H 1.951741 -2.165811 -5.457653
  H 3.455901 -3.059504 -5.276855
 22
 19.905862
  C 0.962928 0.346179 0.555525
  C 2.369751 0.131517 0.348846
  H 3.058352 0.429801 1.133154
  C 2.924514 -0.372524 -0.824239
  C 4.317768 -0.460911 -0.990724
  C 5.026441 -0.899170 -2.081719
  C 4.615113 -1.402210 -3.391708
  C 3.146080 -1.526964 -3.766123
  C 3.002473 -2.067300 -5.186453
  H 6.102626 -0.875187 -1.971829
  H 0.638089 0.759435 1.492958
  H 1.208256 -0.769884 0.532385
  H 0.337872 0.623772 -0.275302
  H 2.264648 -0.685132 -1.618197
  H 4.911404 -0.132525 -0.144784
  H 5.100964 -2.379265 -3.518312
  H 5.122912 -0.776171 -4.138312
  H 2.663967 -0.549431 -3.718107
  H 2.643399 -2.213536 -3.083738
  H 3.477748 -1.404444 -5.906031
  H 1.952948 -2.156172 -5.454665
  H 3.456688 -3.051475 -5.277443
 22
 22.887435
  C 0.959488 0.377427 0.563087
  C 2.353487 0.126524 0.351435
  H 3.043548 0.415237 1.135800
  C 2.913776 -0.377340 -0.826636
  C 4.313256 -0.467724 -0.989038
  C 5.026586 -0.903025 -2.074030
  C 4.621519 -1.406610 -3.396998
  C 3.150451 -1.529553 -3.777515
  C 3.010868 -2.066202 -5.200281
  H 6.102724 -0.879651 -1.958324
  H 0.642334 0.808367 1.498576
  H 1.302947 -0.736433 0.611860
  H 0.303631 0.565085 -0.273221
  H 2.253976 -0.684280 -1.623175
  H 4.905680 -0.141851 -0.139906
  H 5.104878 -2.385628 -3.521588
  H 5.130115 -0.776110 -4.139715
  H 2.669475 -0.551270 -3.728868
  H 2.645337 -2.218342 -3.098579
  H 3.489885 -1.401499 -5.916259
  H 1.961975 -2.153764 -5.472870
  H 3.465440 -3.050404 -5.291989
 22
 24.650013
  C 0.963280 0.391832 0.546484
  C 2.352253 0.116149 0.349170
  H 3.034313 0.414862 1.136594
  C 2.921001 -0.390453 -0.833988
  C 4.297992 -0.478865 -0.987059
  C 5.022130 -0.913952 -2.080411
  C 4.622142 -1.408138 -3.396971
  C 3.157112 -1.526063 -3.772939
  C 3.015410 -2.053103 -5.192556
  H 6.096637 -0.892474 -1.962947
  H 0.641175 0.865520 1.454885
  H 1.396941 -0.716973 0.689895
  H 0.287976 0.480646 -0.301316
  H 2.263955 -0.693225 -1.632088
  H 4.884946 -0.154992 -0.134385
  H 5.100928 -2.382302 -3.523957
  H 5.127182 -0.777280 -4.132569
  H 2.678530 -0.548071 -3.718292
  H 2.653168 -2.216915 -3.096776
  H 3.494306 -1.385546 -5.905130
  H 1.966472 -2.137675 -5.463435
  H 3.468704 -3.036978 -5.289593
 22
 26.033205
  C 0.964450 0.413039 0.551844
  C 2.346260 0.112394 0.366668
  H 3.042384 0.426117 1.156188
  C 2.909283 -0.393837 -0.820681
  C 4.300093 -0.486038 -0.979006
  C 5.019056 -0.913603 -2.060385
  C 4.623685 -1.410951 -3.400719
  C 3.154405 -1.531048 -3.793117
  C 3.025941 -2.055260 -5.220000
  H 6.095501 -0.891529 -1.935811
  H 0.638129 0.924499 1.437961
  H 1.467847 -0.685934 0.776174
  H 0.274836 0.409771 -0.285698
  H 2.239007 -0.695225 -1.619033
  H 4.892353 -0.164085 -0.123106
  H 5.106980 -2.393174 -3.527209
  H 5.135984 -0.770257 -4.136633
  H 2.673892 -0.553946 -3.740123
  H 2.645852 -2.225301 -3.123942
  H 3.510523 -1.384361 -5.926054
  H 1.979289 -2.141132 -5.501465
  H 3.482189 -3.037781 -5.316074
 22
 27.234084
  C 0.966071 0.428024 0.551234
  C 2.348252 0.108795 0.377116
  H 3.038361 0.428617 1.141988
  C 2.909452 -0.399412 -0.819780
  C 4.291090 -0.494195 -0.982583
  C 5.013158 -0.922664 -2.069679
  C 4.626243 -1.410449 -3.394943
  C 3.160725 -1.528318 -3.792570
  C 3.038104 -2.050794 -5.223539
  H 6.086133 -0.902888 -1.945849
  H 0.637123 0.954917 1.418771
  H 1.529589 -0.664844 0.826615
  H 0.264874 0.356793 -0.279244
  H 2.242982 -0.696348 -1.604204
  H 4.882317 -0.176755 -0.132217
  H 5.106319 -2.387824 -3.519958
  H 5.138603 -0.771150 -4.122885
  H 2.679480 -0.547237 -3.739698
  H 2.647381 -2.226072 -3.124503
  H 3.527330 -1.377782 -5.927423
  H 1.990663 -2.135753 -5.510791
  H 3.495443 -3.035564 -5.319739
 22
 28.628953
  C 0.963907 0.427920 0.514516
  C 2.347314 0.099757 0.372062
  H 3.044171 0.445948 1.143482
  C 2.920846 -0.408846 -0.820782
  C 4.300017 -0.498701 -0.974555
  C 5.025788 -0.926320 -2.062215
  C 4.633288 -1.410619 -3.388915
  C 3.166286 -1.518814 -3.772122
  C 3.024900 -2.040024 -5.213080
  H 6.104012 -0.907783 -1.938979
  H 0.615219 0.969066 1.371297
  H 1.580568 -0.662779 0.838053
  H 0.273543 0.297707 -0.312763
  H 2.258005 -0.713012 -1.612107
  H 4.889315 -0.179885 -0.119965
  H 5.112689 -2.402209 -3.519887
  H 5.149253 -0.761646 -4.127766
  H 2.692917 -0.535920 -3.709673
  H 2.657286 -2.212940 -3.100480
  H 3.511082 -1.367982 -5.921613
  H 1.972970 -2.118327 -5.491171
  H 3.475420 -3.027962 -5.318074
 22
 29.964286
  C 0.959004 0.443607 0.516285
  C 2.349243 0.098066 0.384738
  H 3.040192 0.455817 1.135101
  C 2.919645 -0.411103 -0.813066
  C 4.307838 -0.503096 -0.972769
  C 5.027061 -0.926865 -2.054420
  C 4.632628 -1.415665 -3.400148
  C 3.169783 -1.525670 -3.790426
  C 3.039447 -2.036024 -5.209889
  H 6.099894 -0.907072 -1.929613
  H 0.604546 0.988483 1.376183
  H 1.624299 -0.658964 0.863707
  H 0.274574 0.279703 -0.295461
  H 2.256685 -0.713938 -1.596034
  H 4.896763 -0.187794 -0.126098
  H 5.106700 -2.393522 -3.530534
  H 5.142354 -0.774740 -4.126541
  H 2.696619 -0.550944 -3.730683
  H 2.660793 -2.218905 -3.128684
  H 3.523311 -1.368023 -5.905564
  H 2.000634 -2.114797 -5.489753
  H 3.488374 -3.012296 -5.311581
 22
 31.210281
  C 0.963928 0.451871 0.500792
  C 2.349672 0.091700 0.390311
  H 3.047152 0.468486 1.145135
  C 2.924892 -0.414978 -0.810888
  C 4.308120 -0.505485 -0.968369
  C 5.028227 -0.927733 -2.051127
  C 4.638155 -1.411933 -3.389259
  C 3.166527 -1.524227 -3.784582
  C 3.037830 -2.035793 -5.214402
  H 6.098389 -0.906910 -1.926374
  H 0.603305 0.992135 1.357402
  H 1.668777 -0.666927 0.868117
  H 0.281329 0.262060 -0.311754
  H 2.272418 -0.714678 -1.581987
  H 4.906797 -0.185160 -0.106009
  H 5.119137 -2.397358 -3.521507
  H 5.153534 -0.764120 -4.120048
  H 2.691848 -0.552414 -3.725435
  H 2.657234 -2.219070 -3.126825
  H 3.524764 -1.361752 -5.912831
  H 1.996224 -2.116057 -5.496646
  H 3.490151 -3.015345 -5.317137
 22
 32.212342
  C 0.963090 0.459038 0.472325
  C 2.352853 0.081041 0.389183
  H 3.044301 0.475185 1.139898
  C 2.938368 -0.421078 -0.812630
  C 4.319918 -0.508341 -0.962944
  C 5.043436 -0.929287 -2.049665
  C 4.645309 -1.411196 -3.388136
  C 3.177155 -1.518712 -3.766191
  C 3.033049 -2.026449 -5.194729
  H 6.118607 -0.908077 -1.927136
  H 0.590909 0.994409 1.325940
  H 1.709996 -0.687606 0.864785
  H 0.287279 0.246662 -0.340079
  H 2.281687 -0.726182 -1.597729
  H 4.906911 -0.193170 -0.111227
  H 5.122414 -2.395420 -3.525599
  H 5.154635 -0.763290 -4.120999
  H 2.704702 -0.543962 -3.698805
  H 2.673124 -2.213978 -3.103510
  H 3.512482 -1.354284 -5.894245
  H 1.989341 -2.103735 -5.466065
  H 3.481462 -3.005284 -5.304364
 22
 32.891096
  C 0.965509 0.472821 0.458657
  C 2.357199 0.074708 0.397505
  H 3.043825 0.486225 1.139980
  C 2.946647 -0.425289 -0.809757
  C 4.321675 -0.510714 -0.958337
  C 5.046419 -0.930433 -2.048310
  C 4.647986 -1.409967 -3.385431
  C 3.183826 -1.518115 -3.760670
  C 3.038162 -2.025205 -5.195038
  H 6.118370 -0.908005 -1.927304
  H 0.584348 1.003943 1.312274
  H 1.760048 -0.711254 0.875056
  H 0.292308 0.241187 -0.349218
  H 2.287042 -0.732007 -1.597950
  H 4.911768 -0.194052 -0.100501
  H 5.122496 -2.387814 -3.523616
  H 5.152099 -0.764053 -4.113622
  H 2.710015 -0.539373 -3.688884
  H 2.680817 -2.217875 -3.093861
  H 3.518507 -1.347713 -5.897963
  H 1.986371 -2.103868 -5.467734
  H 3.489980 -3.008065 -5.308102
