 24
 0.000000
  C 0.830880 0.043096 0.328392
  C 2.316971 0.055362 0.104722
  C 3.230338 -0.012892 1.320575
  C 2.583207 -0.084781 2.699309
  H 3.354645 -0.127874 3.462053
  C 2.898253 0.124737 -1.090893
  C 2.345700 0.204809 -2.490242
  C 0.841734 0.218263 -2.748535
  C 0.563870 0.304775 -4.246927
  H 3.982152 0.126680 -1.112313
  H 0.576184 -0.025143 1.380621
  H 0.372850 -0.812832 -0.160888
  H 0.372835 0.955838 -0.045677
  H 3.880883 0.867116 1.304082
  H 3.875400 -0.890185 1.209842
  H 1.961659 -0.973881 2.794352
  H 1.966830 0.792789 2.888628
  H 2.767509 -0.641642 -3.046643
  H 2.765840 1.110532 -2.945376
  H 0.379369 1.076598 -2.262581
  H 0.381126 -0.691401 -2.365146
  H 0.990188 1.213427 -4.667527
  H -0.508299 0.314421 -4.432218
  H 0.991970 -0.548367 -4.769583
 24
 3.874398
  C 0.811514 0.012215 0.351441
  C 2.272633 0.053033 0.115941
  C 3.220090 -0.022514 1.315855
  C 2.595007 -0.076934 2.702564
  H 3.385477 -0.125797 3.448105
  C 2.856956 0.134433 -1.077719
  C 2.341000 0.218392 -2.489318
  C 0.838219 0.208761 -2.760178
  C 0.566767 0.301374 -4.258586
  H 3.943658 0.153833 -1.074588
  H 0.538059 -0.027584 1.393682
  H 0.315399 -0.798537 -0.167970
  H 0.563165 0.946306 -0.067051
  H 3.884801 0.844206 1.277910
  H 3.851366 -0.906697 1.194514
  H 1.969251 -0.958786 2.821199
  H 1.999444 0.811212 2.903560
  H 2.789874 -0.616122 -3.042241
  H 2.760326 1.132276 -2.928563
  H 0.359210 1.053984 -2.266407
  H 0.395356 -0.711288 -2.380699
  H 0.981994 1.220318 -4.667861
  H -0.503436 0.293422 -4.453690
  H 1.016120 -0.539833 -4.782764
 24
 11.025790
  C 0.803542 0.007798 0.364442
  C 2.267679 0.046257 0.120568
  C 3.220793 -0.049448 1.308863
  C 2.590803 -0.071310 2.697970
  H 3.379314 -0.137242 3.448344
  C 2.848561 0.149687 -1.072896
  C 2.333260 0.242140 -2.479770
  C 0.833759 0.179572 -2.758894
  C 0.566889 0.288125 -4.258011
  H 3.933377 0.197447 -1.069587
  H 0.509746 -0.003907 1.404988
  H 0.266536 -0.743632 -0.196533
  H 0.770713 0.972714 -0.073596
  H 3.915473 0.793606 1.260792
  H 3.820013 -0.958175 1.190889
  H 1.938845 -0.933764 2.823402
  H 2.022606 0.837597 2.889057
  H 2.813251 -0.566059 -3.044384
  H 2.721136 1.177885 -2.900882
  H 0.316558 0.994257 -2.252109
  H 0.427080 -0.766018 -2.397875
  H 0.947358 1.230194 -4.648034
  H -0.500726 0.240395 -4.460245
  H 1.053656 -0.524087 -4.794203
 24
 21.606645
  C 0.799387 -0.011565 0.369847
  C 2.279393 0.043622 0.117473
  C 3.216358 -0.054195 1.295836
  C 2.569468 -0.059472 2.676899
  H 3.349118 -0.129676 3.438569
  C 2.866735 0.155077 -1.074746
  C 2.342269 0.252120 -2.479708
  C 0.842528 0.169863 -2.744638
  C 0.559203 0.287324 -4.240849
  H 3.946572 0.209075 -1.070830
  H 0.491419 -0.006599 1.414125
  H 0.248017 -0.725390 -0.206241
  H 0.936100 0.946361 -0.077529
  H 3.921147 0.779193 1.247613
  H 3.802588 -0.971926 1.185132
  H 1.903606 -0.915746 2.799118
  H 2.007271 0.859346 2.854602
  H 2.826806 -0.543468 -3.053723
  H 2.712500 1.194918 -2.896138
  H 0.317735 0.970517 -2.225464
  H 0.454531 -0.785088 -2.387676
  H 0.921234 1.238813 -4.626460
  H -0.509542 0.224690 -4.432837
  H 1.053326 -0.512632 -4.789243
 24
 31.674932
  C 0.781826 -0.024269 0.370517
  C 2.259360 0.043930 0.118806
  C 3.209990 -0.062334 1.309647
  C 2.588743 -0.048550 2.693433
  H 3.375090 -0.124996 3.435317
  C 2.855711 0.160782 -1.068051
  C 2.339297 0.261895 -2.487073
  C 0.840167 0.158847 -2.758708
  C 0.559165 0.284529 -4.250961
  H 3.939052 0.223016 -1.050746
  H 0.461121 -0.027521 1.398119
  H 0.208110 -0.695529 -0.244410
  H 1.056096 0.940301 -0.056213
  H 3.931421 0.755785 1.251024
  H 3.775902 -0.987829 1.199990
  H 1.916086 -0.891603 2.833562
  H 2.046466 0.877229 2.874723
  H 2.840253 -0.523397 -3.066932
  H 2.698788 1.216187 -2.896060
  H 0.299907 0.947951 -2.232274
  H 0.468050 -0.804257 -2.412068
  H 0.907010 1.245074 -4.626667
  H -0.508432 0.206347 -4.446747
  H 1.067927 -0.502594 -4.804442
 24
 40.905746
  C 0.772354 -0.030963 0.386813
  C 2.251476 0.044059 0.108660
  C 3.210596 -0.068457 1.297936
  C 2.582233 -0.037522 2.688156
  H 3.370144 -0.118702 3.439732
  C 2.851881 0.164335 -1.081879
  C 2.341056 0.268468 -2.485703
  C 0.847754 0.143813 -2.758699
  C 0.564317 0.283403 -4.250575
  H 3.933182 0.232867 -1.062802
  H 0.476595 -0.043389 1.416032
  H 0.175884 -0.646576 -0.253759
  H 1.153966 0.929016 -0.010468
  H 3.945535 0.738458 1.234928
  H 3.760383 -1.007349 1.189774
  H 1.896936 -0.872904 2.831895
  H 2.048020 0.897685 2.861165
  H 2.853670 -0.500048 -3.072189
  H 2.683989 1.229243 -2.884808
  H 0.295100 0.916715 -2.221922
  H 0.493161 -0.832777 -2.424401
  H 0.895592 1.254667 -4.614216
  H -0.501306 0.189160 -4.447795
  H 1.086944 -0.487698 -4.813697
 24
 47.714410
  C 0.774211 -0.047165 0.393154
  C 2.247443 0.042090 0.106721
  C 3.195524 -0.068204 1.294353
  C 2.579138 -0.022145 2.674190
  H 3.365411 -0.098812 3.415078
  C 2.859479 0.161498 -1.083113
  C 2.350767 0.269494 -2.488234
  C 0.855474 0.135814 -2.756283
  C 0.563590 0.285745 -4.244457
  H 3.944468 0.229756 -1.057799
  H 0.486596 -0.091842 1.422676
  H 0.157044 -0.604534 -0.289142
  H 1.238204 0.918159 0.046021
  H 3.935045 0.728857 1.225961
  H 3.732339 -1.007441 1.192397
  H 1.896182 -0.849379 2.830227
  H 2.052792 0.912431 2.840365
  H 2.868779 -0.494526 -3.081152
  H 2.685985 1.238974 -2.883380
  H 0.299340 0.902125 -2.208677
  H 0.509938 -0.846765 -2.428812
  H 0.886032 1.262476 -4.601423
  H -0.502320 0.185345 -4.437095
  H 1.088997 -0.476826 -4.816532
 24
 52.645393
  C 0.766288 -0.065513 0.396277
  C 2.243162 0.042200 0.103033
  C 3.198448 -0.067914 1.297886
  C 2.588030 -0.007844 2.696457
  H 3.384315 -0.077554 3.432992
  C 2.858474 0.159157 -1.087941
  C 2.349534 0.270194 -2.503329
  C 0.859689 0.131543 -2.772295
  C 0.566782 0.288998 -4.255509
  H 3.934943 0.226974 -1.057850
  H 0.479189 -0.154458 1.423652
  H 0.138311 -0.548363 -0.311937
  H 1.301192 0.914691 0.101992
  H 3.945050 0.725449 1.220032
  H 3.732020 -1.016539 1.197229
  H 1.900011 -0.842694 2.871452
  H 2.059031 0.936247 2.861123
  H 2.868703 -0.486460 -3.097728
  H 2.677276 1.238114 -2.894267
  H 0.305000 0.886885 -2.223680
  H 0.520706 -0.850088 -2.452250
  H 0.884493 1.268360 -4.605967
  H -0.498354 0.185034 -4.448070
  H 1.095187 -0.467347 -4.831823
 24
 56.701019
  C 0.776066 -0.075482 0.388664
  C 2.249088 0.050289 0.096054
  C 3.193260 -0.065138 1.296298
  C 2.574918 0.000484 2.683338
  H 3.366516 -0.065373 3.427614
  C 2.874003 0.164577 -1.097390
  C 2.365685 0.273511 -2.504062
  C 0.870189 0.130239 -2.760115
  C 0.559941 0.286640 -4.244961
  H 3.946883 0.229386 -1.064781
  H 0.486072 -0.206792 1.414992
  H 0.132671 -0.494110 -0.350655
  H 1.364834 0.910256 0.148178
  H 3.939086 0.718396 1.224855
  H 3.722791 -1.016041 1.201779
  H 1.897330 -0.819968 2.855380
  H 2.050824 0.930875 2.837441
  H 2.884227 -0.483444 -3.101917
  H 2.688071 1.242512 -2.898745
  H 0.322866 0.881184 -2.209162
  H 0.536912 -0.852388 -2.435313
  H 0.870167 1.262041 -4.598193
  H -0.502119 0.180541 -4.425994
  H 1.081347 -0.464974 -4.823536
 24
 59.861768
  C 0.778136 -0.090407 0.406452
  C 2.247056 0.052372 0.105818
  C 3.197082 -0.064710 1.298078
  C 2.587531 0.010998 2.696262
  H 3.384975 -0.046283 3.432709
  C 2.869833 0.164346 -1.092168
  C 2.361388 0.274461 -2.508454
  C 0.869712 0.129362 -2.773780
  C 0.566595 0.288461 -4.265791
  H 3.949388 0.229724 -1.057540
  H 0.495287 -0.256244 1.417774
  H 0.113564 -0.448563 -0.355917
  H 1.410246 0.900559 0.206555
  H 3.944912 0.715117 1.216455
  H 3.722376 -1.017524 1.202814
  H 1.902366 -0.824195 2.885219
  H 2.056176 0.951695 2.848973
  H 2.881079 -0.476429 -3.102112
  H 2.680981 1.239291 -2.900242
  H 0.316276 0.883166 -2.221821
  H 0.536002 -0.856371 -2.451209
  H 0.880629 1.274230 -4.618696
  H -0.504319 0.180270 -4.454810
  H 1.098048 -0.469607 -4.848850
 24
 62.681025
  C 0.771159 -0.105437 0.401519
  C 2.245438 0.051333 0.104537
  C 3.197551 -0.067732 1.297633
  C 2.591125 0.020457 2.689347
  H 3.391637 -0.028470 3.429057
  C 2.870235 0.162288 -1.096687
  C 2.363142 0.275683 -2.510263
  C 0.874773 0.126536 -2.775502
  C 0.575611 0.288790 -4.252967
  H 3.954778 0.231457 -1.060896
  H 0.479279 -0.299221 1.414682
  H 0.103734 -0.402739 -0.373623
  H 1.446682 0.892270 0.235353
  H 3.955642 0.713372 1.209687
  H 3.715180 -1.021697 1.207696
  H 1.913125 -0.806829 2.884629
  H 2.059499 0.958683 2.831448
  H 2.888335 -0.475696 -3.109102
  H 2.681899 1.251162 -2.903286
  H 0.318137 0.877409 -2.221255
  H 0.545582 -0.857027 -2.458870
  H 0.884835 1.270131 -4.598882
  H -0.487684 0.178536 -4.441803
  H 1.106003 -0.459485 -4.833369
 24
 65.175833
  C 0.776499 -0.122994 0.403508
  C 2.253213 0.054224 0.110061
  C 3.206165 -0.067705 1.305039
  C 2.594501 0.029677 2.692702
  H 3.391503 -0.011450 3.437300
  C 2.879881 0.163245 -1.095895
  C 2.374493 0.278661 -2.505252
  C 0.875918 0.128459 -2.771907
  C 0.570898 0.291978 -4.269314
  H 3.954345 0.233899 -1.060208
  H 0.480665 -0.334888 1.409684
  H 0.105645 -0.370722 -0.382391
  H 1.483857 0.883535 0.262387
  H 3.965722 0.708162 1.215891
  H 3.719983 -1.024199 1.220106
  H 1.918241 -0.796629 2.890472
  H 2.058724 0.967754 2.824739
  H 2.903075 -0.476865 -3.106807
  H 2.695654 1.260924 -2.900337
  H 0.319060 0.882424 -2.216607
  H 0.544043 -0.862311 -2.450771
  H 0.882789 1.281606 -4.620400
  H -0.503049 0.181095 -4.459553
  H 1.104488 -0.463238 -4.855335
 24
 67.603731
  C 0.783593 -0.133797 0.393812
  C 2.253887 0.062864 0.107607
  C 3.208055 -0.067562 1.304473
  C 2.593762 0.034877 2.688812
  H 3.396877 -0.002985 3.444800
  C 2.883293 0.169635 -1.100833
  C 2.375974 0.283690 -2.509949
  C 0.881702 0.131878 -2.772560
  C 0.576185 0.289603 -4.256422
  H 3.977037 0.243724 -1.064030
  H 0.479138 -0.358704 1.403745
  H 0.110484 -0.336811 -0.402715
  H 1.512287 0.877458 0.274658
  H 3.967554 0.698396 1.217551
  H 3.714201 -1.021402 1.222697
  H 1.917650 -0.789864 2.887163
  H 2.057975 0.969980 2.814303
  H 2.903422 -0.468659 -3.109168
  H 2.692434 1.257368 -2.903396
  H 0.325906 0.886170 -2.219772
  H 0.552632 -0.852829 -2.449730
  H 0.885819 1.275208 -4.609030
  H -0.493856 0.177787 -4.442906
  H 1.107585 -0.464630 -4.839051
 24
 69.674456
  C 0.776258 -0.157124 0.416460
  C 2.257725 0.064730 0.118080
  C 3.214828 -0.067907 1.300555
  C 2.604222 0.043226 2.693517
  H 3.396736 0.012121 3.432669
  C 2.882268 0.169722 -1.096966
  C 2.377132 0.286022 -2.507017
  C 0.884218 0.135667 -2.779394
  C 0.590182 0.293531 -4.266297
  H 3.952109 0.244356 -1.061807
  H 0.482406 -0.377709 1.410971
  H 0.085231 -0.328334 -0.381325
  H 1.532136 0.875652 0.299114
  H 3.990956 0.710176 1.201926
  H 3.721358 -1.037506 1.215344
  H 1.931041 -0.780587 2.901385
  H 2.065675 0.981548 2.817368
  H 2.908392 -0.468834 -3.108326
  H 2.697724 1.266938 -2.902009
  H 0.325858 0.891661 -2.231766
  H 0.551722 -0.849471 -2.458837
  H 0.902692 1.275319 -4.616001
  H -0.474206 0.183648 -4.460195
  H 1.122752 -0.458744 -4.842695
