 22
 0.000000
  C 1.005452 0.117896 0.346028
  C 2.476794 0.129696 0.374549
  C 3.234720 0.603295 1.552003
  C 2.430299 1.085415 2.751939
  H 3.101431 1.402999 3.541670
  C 3.130627 -0.329392 -0.767924
  C 4.519786 -0.401235 -0.947537
  C 5.147815 -0.855343 -2.079958
  C 4.542655 -1.351445 -3.317527
  H 3.462713 -1.368132 -3.359913
  H 6.227954 -0.862765 -2.098420
  H 0.551902 0.484869 1.258854
  H 0.647404 -0.896378 0.162239
  H 0.647005 0.722483 -0.488644
  H 3.895538 1.415191 1.227720
  H 3.896016 -0.206752 1.879803
  H 1.797009 0.291413 3.142663
  H 1.796617 1.928710 2.484595
  H 2.500798 -0.656947 -1.582882
  H 5.148525 -0.073704 -0.131626
  H 4.926697 -2.358022 -3.502237
  H 4.927190 -0.751569 -4.146408
 22
 0.056770
  C 1.014804 0.270832 0.275032
  C 2.484146 0.224048 0.335147
  C 3.222767 0.723427 1.512677
  C 2.435724 0.871278 2.809090
  H 3.109752 1.175589 3.605227
  C 3.143731 -0.289750 -0.778895
  C 4.531827 -0.382032 -0.950132
  C 5.151399 -0.885653 -2.068919
  C 4.526138 -1.442801 -3.265850
  H 3.442958 -1.462319 -3.244183
  H 6.234118 -0.881157 -2.078948
  H 0.564246 0.727298 1.147327
  H 0.618021 -0.740555 0.163938
  H 0.697183 0.806615 -0.620829
  H 3.626919 1.708777 1.243754
  H 4.091312 0.087342 1.696451
  H 1.979343 -0.073418 3.094402
  H 1.657933 1.626362 2.733191
  H 2.515888 -0.637636 -1.586860
  H 5.171775 -0.024802 -0.156473
  H 4.908068 -2.453106 -3.429061
  H 4.865320 -0.878312 -4.137829
 22
 0.452691
  C 1.033934 0.507416 0.190910
  C 2.495890 0.368231 0.291564
  C 3.200304 0.846192 1.498073
  C 2.471819 0.603098 2.821394
  H 3.098384 0.942431 3.641280
  C 3.152182 -0.205025 -0.793845
  C 4.533326 -0.398968 -0.929642
  C 5.139518 -0.978544 -2.020325
  C 4.501487 -1.527238 -3.212766
  H 3.419271 -1.472896 -3.209820
  H 6.219543 -1.048341 -2.002606
  H 0.603877 1.067877 1.012496
  H 0.569833 -0.480377 0.162887
  H 0.765897 0.980342 -0.754926
  H 3.328999 1.930462 1.380969
  H 4.198578 0.416636 1.563457
  H 2.278455 -0.458172 2.956114
  H 1.529544 1.138355 2.884154
  H 2.523373 -0.521355 -1.614198
  H 5.182577 -0.064463 -0.133724
  H 4.818056 -2.564253 -3.342465
  H 4.893067 -1.012582 -4.093879
 22
 0.321544
  C 1.012160 0.643039 0.148733
  C 2.472200 0.486461 0.260021
  C 3.143808 1.009285 1.466972
  C 2.614194 0.366047 2.758614
  H 3.160406 0.768035 3.607210
  C 3.129413 -0.140251 -0.793654
  C 4.501254 -0.414045 -0.879659
  C 5.108784 -1.046126 -1.940634
  C 4.482579 -1.552544 -3.156548
  H 3.410329 -1.402853 -3.206624
  H 6.179643 -1.190930 -1.877728
  H 0.591522 1.222790 0.962164
  H 0.532682 -0.337772 0.125123
  H 0.757884 1.112983 -0.801890
  H 2.939952 2.083609 1.522981
  H 4.222692 0.876853 1.426131
  H 2.764446 -0.708399 2.729807
  H 1.558773 0.565964 2.911227
  H 2.507483 -0.450877 -1.622416
  H 5.138235 -0.116817 -0.061250
  H 4.711496 -2.615076 -3.260679
  H 4.960917 -1.090035 -4.022057
 22
 0.697924
  C 1.000576 0.837412 0.104565
  C 2.470301 0.685409 0.208965
  C 3.099999 1.103518 1.474718
  C 2.737020 0.125254 2.606460
  H 3.264603 0.417883 3.508263
  C 3.094666 -0.040296 -0.799412
  C 4.457846 -0.372029 -0.837093
  C 5.061850 -1.097156 -1.839823
  C 4.446910 -1.630870 -3.050221
  H 3.383129 -1.436056 -3.138436
  H 6.124839 -1.284250 -1.737335
  H 0.581359 1.321974 0.979317
  H 0.538367 -0.140435 -0.037864
  H 0.765634 1.429145 -0.782338
  H 2.747900 2.101181 1.744888
  H 4.188332 1.150985 1.389790
  H 3.027998 -0.884701 2.339989
  H 1.671411 0.138984 2.817417
  H 2.479301 -0.351060 -1.631297
  H 5.080382 -0.064534 -0.005734
  H 4.625667 -2.709440 -3.098721
  H 4.975069 -1.232793 -3.922737
 22
 7.208249
  C 1.036007 0.884859 0.114180
  C 2.541970 0.870507 0.160184
  C 3.107373 1.177948 1.487237
  C 2.735920 0.062939 2.488434
  H 3.256861 0.249602 3.422054
  C 3.102023 0.051069 -0.807056
  C 4.409555 -0.465100 -0.766542
  C 5.010184 -1.154618 -1.787557
  C 4.400870 -1.619748 -3.031687
  H 3.343347 -1.406902 -3.113955
  H 6.053505 -1.427820 -1.659471
  H 0.630484 1.387893 0.993066
  H 0.691749 -0.143305 0.067934
  H 0.716088 1.400242 -0.792598
  H 2.795093 2.153510 1.854030
  H 4.198214 1.216402 1.414949
  H 3.041268 -0.901430 2.112351
  H 1.665039 0.045909 2.693028
  H 2.501606 -0.181088 -1.676016
  H 4.987488 -0.279354 0.124231
  H 4.560381 -2.690886 -3.131437
  H 4.921169 -1.166867 -3.875635
 22
 39.929858
  C 1.209833 0.719115 0.091914
  C 2.881353 0.902760 0.254900
  C 3.001048 1.244872 1.664295
  C 2.540795 0.173994 2.650596
  H 2.829939 0.485491 3.645296
  C 3.266497 0.082752 -0.779987
  C 4.569449 -0.476609 -0.903764
  C 4.988097 -1.233150 -1.969531
  C 4.232717 -1.627231 -3.175207
  H 3.213505 -1.245728 -3.205057
  H 6.023025 -1.541995 -1.977705
  H 0.735499 1.067845 0.989861
  H 1.083941 -0.337861 -0.067200
  H 1.013833 1.335299 -0.765226
  H 2.525371 2.213006 1.867459
  H 4.069264 1.461982 1.876904
  H 3.027198 -0.776560 2.425932
  H 1.454371 0.016070 2.644599
  H 2.610254 -0.130288 -1.588103
  H 5.259170 -0.278545 -0.083647
  H 4.195536 -2.726888 -3.237628
  H 4.769708 -1.282433 -4.074460
 22
 68.798221
  C 1.058636 0.528723 0.048192
  C 3.105775 0.809545 0.350531
  C 3.089391 1.227605 1.721069
  C 2.433857 0.284156 2.712922
  H 2.629078 0.640221 3.714934
  C 3.399651 0.101122 -0.708656
  C 4.671543 -0.587411 -0.914527
  C 4.971806 -1.268606 -2.038749
  C 4.137906 -1.470938 -3.249433
  H 3.171265 -0.981140 -3.202203
  H 5.944735 -1.739346 -2.076415
  H 0.622939 0.910786 0.946093
  H 1.100140 -0.535044 -0.059400
  H 0.976217 1.144658 -0.821934
  H 2.719468 2.261250 1.821847
  H 4.167710 1.310503 1.989161
  H 2.839937 -0.719611 2.609923
  H 1.363265 0.238709 2.585384
  H 2.754669 0.041121 -1.553099
  H 5.387044 -0.546463 -0.095428
  H 3.981512 -2.538293 -3.408100
  H 4.672198 -1.094785 -4.123113
 22
 82.478820
  C 0.845254 0.273605 0.010931
  C 3.209602 0.763010 0.431727
  C 3.123268 1.228959 1.761549
  C 2.480814 0.297290 2.783185
  H 2.616399 0.709470 3.777509
  C 3.478300 0.134302 -0.667578
  C 4.757110 -0.490260 -0.990359
  C 4.996785 -1.148178 -2.129630
  C 4.078129 -1.382440 -3.270332
  H 3.098465 -0.932680 -3.136544
  H 5.984969 -1.570990 -2.256690
  H 0.416479 0.627920 0.925231
  H 1.016604 -0.779200 -0.094289
  H 0.731151 0.895270 -0.853331
  H 2.674671 2.229062 1.791313
  H 4.175155 1.406130 2.056097
  H 2.936382 -0.686644 2.747099
  H 1.418907 0.183055 2.607823
  H 2.761518 0.062504 -1.471373
  H 5.526043 -0.407181 -0.238084
  H 3.951570 -2.454451 -3.421641
  H 4.525715 -0.987380 -4.181664
 22
 88.742035
  C 0.693977 0.159312 -0.138698
  C 3.340439 0.768729 0.491111
  C 3.200517 1.287866 1.788325
  C 2.454144 0.412640 2.794691
  H 2.540623 0.844730 3.788049
  C 3.578747 0.128211 -0.594565
  C 4.799889 -0.590345 -0.953369
  C 4.961995 -1.232844 -2.111937
  C 4.004838 -1.360124 -3.237244
  H 3.066252 -0.836868 -3.070952
  H 5.907694 -1.738189 -2.267260
  H 0.217582 0.516106 0.749284
  H 0.928415 -0.882363 -0.210019
  H 0.628394 0.770398 -1.016190
  H 2.797861 2.308813 1.763682
  H 4.244006 1.432224 2.131236
  H 2.864067 -0.593110 2.812257
  H 1.399663 0.347372 2.544112
  H 2.845708 0.135745 -1.399449
  H 5.582996 -0.590652 -0.210785
  H 3.789254 -2.413303 -3.415017
  H 4.463403 -0.974136 -4.147353
 22
 91.843410
  C 0.769307 -0.194252 -0.508059
  C 3.435481 0.820944 0.620228
  C 3.293959 1.385719 1.915725
  C 2.527929 0.523898 2.924957
  H 2.590908 0.972456 3.920064
  C 3.630824 0.173017 -0.458751
  C 4.795654 -0.560115 -0.947178
  C 4.851956 -1.206034 -2.122560
  C 3.802710 -1.321605 -3.164424
  H 2.884865 -0.785335 -2.917787
  H 5.779297 -1.717086 -2.363231
  H 0.217779 0.132583 0.344706
  H 1.089352 -1.215098 -0.539987
  H 0.658962 0.381798 -1.405700
  H 2.888266 2.408956 1.871839
  H 4.342273 1.539144 2.273715
  H 2.941991 -0.487616 2.962339
  H 1.467074 0.451102 2.649676
  H 2.744015 0.198379 -1.183024
  H 5.647310 -0.564694 -0.273389
  H 3.560348 -2.371694 -3.333226
  H 4.192401 -0.936548 -4.113106
 22
 69.756000
  C 1.332245 -0.084913 -1.042306
  C 3.501433 0.804400 0.839342
  C 3.378240 1.377746 2.090127
  C 2.492191 0.582722 3.050536
  H 2.526922 1.037257 4.031824
  C 3.583767 0.125299 -0.224990
  C 4.522165 -0.760593 -0.859961
  C 4.529419 -1.337065 -2.058799
  C 3.581753 -1.247508 -3.180005
  H 2.752383 -0.569618 -3.007717
  H 5.380059 -1.976822 -2.265417
  H 0.664592 0.283720 -0.245195
  H 1.426326 -1.175791 -1.090448
  H 1.229119 0.428729 -1.981236
  H 3.057139 2.430906 2.028658
  H 4.370193 1.462371 2.494531
  H 2.812809 -0.433778 3.129965
  H 1.479137 0.596137 2.717133
  H 2.456853 0.285529 -0.806151
  H 5.361140 -0.944199 -0.217113
  H 3.186607 -2.243123 -3.404810
  H 4.123875 -0.924445 -4.065432
 22
 62.509548
  C 1.251624 -0.100141 -1.062840
  C 3.732665 0.747159 0.889696
  C 3.533576 1.299306 2.169236
  C 2.384485 0.682645 2.941220
  H 2.386594 1.066514 3.949775
  C 3.748390 0.114339 -0.192939
  C 4.664251 -0.677273 -0.936417
  C 4.593259 -1.291597 -2.110793
  C 3.501589 -1.324458 -3.069938
  H 2.646359 -0.690306 -2.780247
  H 5.480833 -1.838240 -2.428876
  H 0.569263 0.301930 -0.304992
  H 1.242586 -1.186310 -1.109970
  H 1.160923 0.363232 -1.981137
  H 3.455721 2.404581 2.121700
  H 4.441825 1.092695 2.699776
  H 2.469706 -0.388728 2.978793
  H 1.462397 0.928196 2.480435
  H 2.381728 0.124947 -0.711735
  H 5.565076 -0.802233 -0.373983
  H 3.171963 -2.345738 -3.201166
  H 3.884785 -0.987376 -4.040643
 22
 84.222611
  C 0.876388 -0.266976 -1.242367
  C 3.689318 0.761637 0.884229
  C 3.619220 1.311627 2.174924
  C 2.480337 0.753721 3.036331
  H 2.557270 1.153486 4.042187
  C 3.613160 0.160054 -0.233373
  C 4.557987 -0.762350 -0.840731
  C 4.503283 -1.357233 -2.031839
  C 3.513268 -1.217023 -3.124210
  H 2.740716 -0.492666 -2.910322
  H 5.313057 -2.038850 -2.260445
  H 0.146191 0.042793 -0.521529
  H 1.235165 -1.276603 -1.206076
  H 0.974901 0.315594 -2.138446
  H 3.600661 2.406681 2.138332
  H 4.584965 1.056017 2.642198
  H 2.522217 -0.330072 3.087710
  H 1.519952 1.045105 2.622412
  H 2.615108 0.335584 -0.822264
  H 5.406332 -0.968186 -0.204647
  H 3.053792 -2.183401 -3.330293
  H 4.032341 -0.914914 -4.033182
 22
 89.845312
  C 0.353531 -0.524574 -1.143858
  C 3.829268 0.744064 0.866058
  C 3.689094 1.337481 2.120059
  C 2.533549 0.797710 2.967523
  H 2.568831 1.241981 3.956474
  C 3.841798 0.147042 -0.257733
  C 4.770753 -0.801083 -0.850149
  C 4.635641 -1.322387 -2.070379
  C 3.569151 -1.060189 -3.064043
  H 2.832779 -0.340482 -2.717979
  H 5.391365 -2.024393 -2.397457
  H -0.430215 -0.281520 -0.459706
  H 0.847781 -1.469247 -1.069778
  H 0.553188 0.132820 -1.963114
  H 3.673069 2.430979 2.046584
  H 4.644910 1.108521 2.625359
  H 2.590826 -0.282017 3.067494
  H 1.582430 1.051921 2.509910
  H 2.995090 0.402434 -0.914619
  H 5.605732 -1.074367 -0.225470
  H 3.061406 -1.991627 -3.310963
  H 4.015652 -0.689043 -3.985612
