 26
 0.000000
  C 0.904154 0.048439 0.272177
  C 2.396274 0.056955 0.086815
  C 3.240789 -0.013505 1.352285
  C 2.522398 -0.087182 2.696451
  H 3.245566 -0.132098 3.503004
  C 2.992760 0.126310 -1.121134
  C 2.354679 0.204662 -2.495508
  C 0.844011 0.216356 -2.712013
  H 0.631608 0.277240 -3.774366
  C 4.452335 0.131646 -1.209071
  C 5.193720 0.195261 -2.316871
  O 6.553481 0.196346 -2.329253
  H 0.613306 -0.015788 1.314671
  H 0.456772 -0.811133 -0.220257
  H 0.458954 0.963521 -0.110131
  H 3.888034 0.869275 1.381425
  H 3.886865 -0.895022 1.284030
  H 1.894677 -0.975366 2.751461
  H 1.895765 0.790348 2.848729
  H 2.747503 -0.642997 -3.067709
  H 2.746703 1.112496 -2.967085
  H 0.384358 1.074548 -2.230697
  H 0.385215 -0.691771 -2.332211
  H 4.998669 0.078395 -0.278065
  H 4.817385 0.252907 -3.324650
  H 6.883425 0.144501 -1.422649
 26
 5.662623
  C 0.913802 0.021539 0.277596
  C 2.372368 0.048137 0.090592
  C 3.241968 -0.039690 1.361208
  C 2.497117 -0.081143 2.697666
  H 3.228333 -0.140581 3.503475
  C 2.984333 0.121117 -1.116973
  C 2.339843 0.201219 -2.485477
  C 0.829228 0.192870 -2.690972
  H 0.638573 0.259356 -3.760728
  C 4.446021 0.145427 -1.212809
  C 5.187662 0.219908 -2.323138
  O 6.552526 0.226741 -2.332910
  H 0.598545 0.009513 1.296204
  H 0.409609 -0.767419 -0.252484
  H 0.748833 0.977751 -0.168067
  H 3.913136 0.824820 1.382866
  H 3.858203 -0.942886 1.294557
  H 1.851869 -0.953518 2.771385
  H 1.903035 0.816857 2.853786
  H 2.744294 -0.638214 -3.061090
  H 2.723287 1.117303 -2.948627
  H 0.341502 1.040915 -2.218988
  H 0.374182 -0.727053 -2.333726
  H 5.000384 0.090273 -0.288140
  H 4.810953 0.279715 -3.331779
  H 6.884355 0.171568 -1.425715
 26
 17.683722
  C 0.911049 0.018043 0.290932
  C 2.352909 0.044741 0.085860
  C 3.256830 -0.056376 1.371754
  C 2.523853 -0.077773 2.709697
  H 3.259053 -0.149799 3.512461
  C 2.964238 0.119256 -1.116226
  C 2.327066 0.205992 -2.499484
  C 0.815951 0.169913 -2.728507
  H 0.639184 0.248617 -3.803378
  C 4.414999 0.148338 -1.197637
  C 5.165920 0.235631 -2.302143
  O 6.530062 0.246694 -2.299572
  H 0.577247 0.062974 1.312600
  H 0.357848 -0.741423 -0.261790
  H 0.971585 0.968965 -0.188375
  H 3.943690 0.791963 1.380513
  H 3.845485 -0.972526 1.294259
  H 1.862027 -0.936318 2.788971
  H 1.950739 0.833490 2.865735
  H 2.752235 -0.619770 -3.080136
  H 2.700336 1.133469 -2.948694
  H 0.299649 0.997250 -2.251851
  H 0.378424 -0.765830 -2.395791
  H 4.961207 0.082125 -0.263809
  H 4.798880 0.306564 -3.311873
  H 6.851115 0.181676 -1.393209
 26
 31.678779
  C 0.884790 -0.005185 0.284358
  C 2.340521 0.039686 0.081696
  C 3.241214 -0.058855 1.363656
  C 2.519291 -0.066340 2.709198
  H 3.256601 -0.140035 3.503089
  C 2.966552 0.115040 -1.116343
  C 2.329672 0.207768 -2.496537
  C 0.823680 0.158470 -2.711254
  H 0.635268 0.247545 -3.775375
  C 4.416529 0.147774 -1.199584
  C 5.154827 0.246000 -2.302290
  O 6.536204 0.258764 -2.310175
  H 0.523233 0.057186 1.294270
  H 0.327494 -0.697987 -0.288998
  H 1.151273 0.931594 -0.181421
  H 3.942903 0.786248 1.362616
  H 3.823348 -0.987606 1.279797
  H 1.851231 -0.922553 2.798563
  H 1.957305 0.855030 2.865401
  H 2.757318 -0.605607 -3.086453
  H 2.691170 1.141155 -2.938806
  H 0.302193 0.974849 -2.217130
  H 0.402669 -0.789361 -2.385817
  H 4.965058 0.072973 -0.276118
  H 4.776894 0.327518 -3.313983
  H 6.870347 0.182393 -1.389652
 26
 44.312299
  C 0.881082 -0.034977 0.298277
  C 2.336951 0.038466 0.070452
  C 3.235900 -0.050255 1.350744
  C 2.512368 -0.051400 2.688951
  H 3.248424 -0.121683 3.482213
  C 2.970898 0.112867 -1.128394
  C 2.324590 0.210002 -2.507916
  C 0.818600 0.159969 -2.700136
  H 0.615570 0.257039 -3.756686
  C 4.419830 0.144442 -1.198755
  C 5.176512 0.250369 -2.295661
  O 6.542143 0.258623 -2.283319
  H 0.536561 0.023821 1.309955
  H 0.289820 -0.696642 -0.307983
  H 1.282842 0.894391 -0.135344
  H 3.939684 0.794963 1.348535
  H 3.814254 -0.979948 1.269426
  H 1.845640 -0.903542 2.781678
  H 1.949525 0.867799 2.841104
  H 2.744784 -0.594368 -3.104975
  H 2.677896 1.141356 -2.946451
  H 0.303276 0.974176 -2.188933
  H 0.403605 -0.795584 -2.375437
  H 4.959187 0.061560 -0.275208
  H 4.814424 0.341936 -3.308175
  H 6.849717 0.174878 -1.391360
 26
 53.289088
  C 0.879714 -0.070114 0.307456
  C 2.335389 0.040478 0.073401
  C 3.227428 -0.035669 1.361237
  C 2.499343 -0.038796 2.693912
  H 3.235074 -0.099955 3.491110
  C 2.979780 0.112094 -1.129581
  C 2.332427 0.211680 -2.514815
  C 0.820621 0.164855 -2.702562
  H 0.611268 0.270301 -3.757617
  C 4.427321 0.139798 -1.204552
  C 5.174477 0.252567 -2.310852
  O 6.535954 0.253703 -2.312536
  H 0.535927 -0.029721 1.311336
  H 0.274140 -0.683576 -0.338674
  H 1.382376 0.866045 -0.080731
  H 3.924843 0.812864 1.361343
  H 3.809120 -0.959609 1.285136
  H 1.842491 -0.893273 2.787854
  H 1.929261 0.872580 2.840740
  H 2.750546 -0.591174 -3.118328
  H 2.683708 1.144766 -2.952597
  H 0.310405 0.974792 -2.183100
  H 0.406385 -0.790676 -2.384411
  H 4.974655 0.046381 -0.286403
  H 4.801995 0.354916 -3.316273
  H 6.857933 0.155872 -1.401417
 26
 59.719056
  C 0.874256 -0.107409 0.313111
  C 2.331197 0.040590 0.069937
  C 3.218825 -0.023552 1.362100
  C 2.492488 -0.025579 2.699867
  H 3.232670 -0.073894 3.498265
  C 2.982076 0.108918 -1.140531
  C 2.340847 0.211122 -2.515398
  C 0.826320 0.168432 -2.700902
  H 0.610155 0.285649 -3.762867
  C 4.426794 0.134427 -1.213735
  C 5.171413 0.253760 -2.319278
  O 6.545046 0.249776 -2.322911
  H 0.527945 -0.087986 1.329183
  H 0.261362 -0.658360 -0.365793
  H 1.459297 0.850731 -0.028867
  H 3.905816 0.824396 1.357950
  H 3.803691 -0.941197 1.291032
  H 1.842920 -0.889028 2.801285
  H 1.912255 0.881685 2.841627
  H 2.762111 -0.594087 -3.126326
  H 2.695264 1.151754 -2.952328
  H 0.322867 0.970734 -2.173428
  H 0.413669 -0.783590 -2.393286
  H 4.977501 0.029882 -0.293151
  H 4.796745 0.366817 -3.325304
  H 6.863265 0.142136 -1.421211
 26
 64.362437
  C 0.865075 -0.152323 0.321731
  C 2.319940 0.034781 0.067382
  C 3.219587 -0.013883 1.352048
  C 2.513479 -0.008400 2.694092
  H 3.262526 -0.038719 3.477014
  C 2.973655 0.100412 -1.152767
  C 2.337079 0.211192 -2.524757
  C 0.827906 0.177024 -2.710813
  H 0.614101 0.309084 -3.765244
  C 4.414020 0.126189 -1.211759
  C 5.172872 0.254332 -2.309394
  O 6.544705 0.246063 -2.295624
  H 0.528393 -0.149756 1.322432
  H 0.238654 -0.642088 -0.386570
  H 1.514071 0.836386 0.022496
  H 3.896904 0.833418 1.331108
  H 3.807604 -0.922190 1.283949
  H 1.872413 -0.884407 2.815729
  H 1.920614 0.901377 2.834360
  H 2.757100 -0.592032 -3.139738
  H 2.697026 1.158895 -2.957051
  H 0.325974 0.981147 -2.168201
  H 0.408237 -0.786001 -2.414753
  H 4.960470 0.010586 -0.274457
  H 4.812325 0.377677 -3.316385
  H 6.851146 0.127694 -1.389336
 26
 67.808767
  C 0.877561 -0.202374 0.312833
  C 2.329227 0.031308 0.068169
  C 3.222739 -0.002559 1.367020
  C 2.492084 0.009058 2.699413
  H 3.229593 -0.001816 3.498475
  C 2.988715 0.094063 -1.158218
  C 2.346497 0.213026 -2.522705
  C 0.831586 0.187708 -2.696363
  H 0.605245 0.335377 -3.756330
  C 4.418683 0.117976 -1.223022
  C 5.174702 0.253859 -2.325923
  O 6.542222 0.239896 -2.318405
  H 0.525934 -0.216740 1.326543
  H 0.244444 -0.629017 -0.432262
  H 1.576669 0.832288 0.060742
  H 3.896928 0.858445 1.345173
  H 3.825571 -0.914415 1.315475
  H 1.864415 -0.868756 2.819411
  H 1.887801 0.905782 2.817421
  H 2.759147 -0.587782 -3.145160
  H 2.705193 1.156077 -2.950794
  H 0.343063 0.980635 -2.142791
  H 0.414666 -0.767357 -2.410981
  H 4.962539 -0.006527 -0.304062
  H 4.809696 0.387921 -3.329859
  H 6.851419 0.111060 -1.414196
 26
 70.740441
  C 0.879454 -0.251874 0.315512
  C 2.327551 0.030777 0.073745
  C 3.227460 0.007271 1.367089
  C 2.495172 0.024284 2.700346
  H 3.225851 0.031062 3.496085
  C 2.988101 0.089541 -1.157683
  C 2.342860 0.215896 -2.527115
  C 0.829765 0.200963 -2.702318
  H 0.608520 0.358195 -3.746841
  C 4.423165 0.111313 -1.222538
  C 5.178671 0.251480 -2.324066
  O 6.549774 0.234595 -2.315031
  H 0.520756 -0.270849 1.323663
  H 0.238866 -0.629266 -0.453604
  H 1.618883 0.830184 0.096588
  H 3.893597 0.872383 1.334046
  H 3.836229 -0.896539 1.320793
  H 1.878266 -0.860065 2.829883
  H 1.877902 0.915845 2.808829
  H 2.751682 -0.587673 -3.153900
  H 2.708501 1.165153 -2.955598
  H 0.344915 0.993564 -2.140853
  H 0.405174 -0.757208 -2.426326
  H 4.974149 -0.021446 -0.295003
  H 4.812501 0.393323 -3.330409
  H 6.857078 0.099697 -1.411891
 26
 71.873197
  C 0.891477 -0.337697 0.310797
  C 2.323974 0.030583 0.076044
  C 3.233968 0.025897 1.372485
  C 2.503412 0.048541 2.701565
  H 3.238339 0.086948 3.504894
  C 2.988536 0.079261 -1.162426
  C 2.341700 0.219185 -2.529198
  C 0.826388 0.226174 -2.703634
  H 0.602977 0.410878 -3.758611
  C 4.421919 0.100284 -1.223127
  C 5.184456 0.246638 -2.321175
  O 6.555794 0.223152 -2.306130
  H 0.509354 -0.345811 1.307050
  H 0.243627 -0.649105 -0.475229
  H 1.641702 0.833334 0.123516
  H 3.884334 0.900550 1.325527
  H 3.855394 -0.869817 1.334162
  H 1.905978 -0.848764 2.844375
  H 1.864230 0.925802 2.792516
  H 2.740091 -0.581720 -3.160623
  H 2.715539 1.160207 -2.950548
  H 0.351798 1.013884 -2.123720
  H 0.389801 -0.733190 -2.447250
  H 4.966557 -0.043158 -0.301262
  H 4.825318 0.397532 -3.321687
  H 6.858931 0.079102 -1.402756
 26
 73.259853
  C 0.915173 -0.398410 0.305935
  C 2.333942 0.032661 0.077433
  C 3.238368 0.038298 1.370814
  C 2.487355 0.067022 2.694268
  H 3.208970 0.122002 3.508081
  C 2.999779 0.078500 -1.170731
  C 2.342326 0.226134 -2.528016
  C 0.827789 0.246867 -2.684229
  H 0.593983 0.444042 -3.727873
  C 4.425362 0.097304 -1.230520
  C 5.193459 0.244690 -2.329407
  O 6.556968 0.215313 -2.308408
  H 0.515302 -0.383374 1.304429
  H 0.263935 -0.680829 -0.497224
  H 1.683785 0.838871 0.128855
  H 3.884623 0.917304 1.320537
  H 3.867182 -0.852930 1.346450
  H 1.896329 -0.834945 2.836602
  H 1.837119 0.936687 2.765845
  H 2.727896 -0.574043 -3.167106
  H 2.715635 1.161658 -2.948438
  H 0.368786 1.029182 -2.091105
  H 0.386164 -0.710132 -2.432543
  H 4.972287 -0.051731 -0.301974
  H 4.836481 0.400268 -3.335778
  H 6.855866 0.067187 -1.402119
 26
 71.181630
  C 0.965025 -0.580336 0.299782
  C 2.324283 0.019940 0.079095
  C 3.231485 0.077595 1.374304
  C 2.481371 0.120533 2.699076
  H 3.196450 0.232739 3.506418
  C 3.004783 0.058387 -1.174568
  C 2.348502 0.240920 -2.524793
  C 0.830903 0.319692 -2.668389
  H 0.596585 0.568553 -3.699211
  C 4.424922 0.075815 -1.231039
  C 5.193189 0.228937 -2.331705
  O 6.559531 0.183349 -2.316149
  H 0.505736 -0.491951 1.269598
  H 0.326702 -0.847426 -0.512865
  H 1.670389 0.827255 0.115028
  H 3.848798 0.971772 1.299180
  H 3.881948 -0.793045 1.372537
  H 1.929878 -0.795872 2.871757
  H 1.797521 0.961660 2.741443
  H 2.704990 -0.562740 -3.178313
  H 2.752452 1.172925 -2.935968
  H 0.401880 1.096607 -2.034593
  H 0.353485 -0.636875 -2.452048
  H 4.968400 -0.086250 -0.310773
  H 4.832983 0.394560 -3.332447
  H 6.860866 0.024206 -1.414087
 26
 68.547447
  C 1.049546 -0.764355 0.286623
  C 2.323393 0.009086 0.077980
  C 3.222738 0.127941 1.368940
  C 2.454649 0.184392 2.682575
  H 3.153150 0.354368 3.497296
  C 3.013955 0.052692 -1.185624
  C 2.340158 0.263412 -2.518625
  C 0.827044 0.412552 -2.615042
  H 0.573112 0.703010 -3.631078
  C 4.427128 0.058064 -1.237299
  C 5.205406 0.208182 -2.336378
  O 6.568174 0.143927 -2.315033
  H 0.513950 -0.616785 1.211976
  H 0.455753 -1.071503 -0.550056
  H 1.657899 0.808768 0.087747
  H 3.813896 1.042273 1.271192
  H 3.903325 -0.723189 1.398658
  H 1.938054 -0.746953 2.877002
  H 1.732814 0.998435 2.685118
  H 2.646358 -0.546850 -3.185568
  H 2.772790 1.187224 -2.936255
  H 0.454481 1.186112 -1.945379
  H 0.310894 -0.521093 -2.409935
  H 4.962173 -0.117231 -0.316218
  H 4.850986 0.381773 -3.332962
  H 6.865003 -0.023641 -1.412709
