13

C 1.047971 -0.113119 -0.03885
C 2.544326 -0.134358 -0.037837
C 3.259983 -1.26423 -0.044636
C 4.69798 -1.287779 -0.045163
C 5.417951 -2.423367 -0.05199
H 6.48783464738783 -2.4391407735015136 -0.052401244012367974
H 0.686033 0.914482 -0.032649
H 0.651153 -0.613533 0.844403
H 0.652773 -0.601153 -0.930423
H 3.043249 0.825868 -0.032854
H 2.748615 -2.219226 -0.050027
H 5.202777 -0.329612 -0.039736
H 4.913656 -3.381729 -0.057426
