 25
 0.000000
  C 1.014310 0.130882 0.417823
  C 2.487844 0.127427 0.418346
  C 3.248131 0.617623 1.577037
  H 2.627189 0.962871 2.393950
  C 3.099944 -0.355698 -0.731476
  C 4.474893 -0.448202 -0.985172
  C 5.107254 -0.886626 -2.125352
  C 4.606921 -1.385852 -3.415226
  C 3.117260 -1.504428 -3.707997
  C 2.893167 -2.047691 -5.117460
  H 6.189055 -0.875101 -2.108045
  H 0.591468 0.524989 1.336895
  H 0.638485 -0.882422 0.268416
  H 0.639592 0.722136 -0.422545
  H 3.904263 1.433156 1.265316
  H 3.904970 -0.173712 1.944717
  H 2.424646 -0.678279 -1.508724
  H 5.127781 -0.132934 -0.179516
  H 5.072297 -2.370058 -3.562349
  H 5.066245 -0.752299 -4.186321
  H 2.640173 -0.525696 -3.638548
  H 2.646485 -2.187432 -2.999344
  H 3.329251 -1.388508 -5.864650
  H 1.829066 -2.131269 -5.323854
  H 3.335732 -3.034740 -5.231187
 25
 -0.550525
  C 1.005696 0.153341 0.476153
  C 2.474910 0.105879 0.411903
  C 3.267547 0.615705 1.540785
  H 2.636755 1.003124 2.331261
  C 3.054047 -0.391334 -0.750543
  C 4.433572 -0.444009 -0.993097
  C 5.080016 -0.877084 -2.126519
  C 4.603926 -1.387098 -3.413939
  C 3.121115 -1.535346 -3.719722
  C 2.919313 -2.069626 -5.134271
  H 6.161972 -0.834101 -2.081242
  H 0.635876 0.363311 1.474635
  H 0.557213 -0.761184 0.092374
  H 0.665700 0.950775 -0.190813
  H 3.950159 1.399472 1.214064
  H 3.893701 -0.178925 1.950725
  H 2.378743 -0.746086 -1.511361
  H 5.077940 -0.103201 -0.193661
  H 5.099048 -2.357251 -3.564414
  H 5.066090 -0.755404 -4.186361
  H 2.624133 -0.567789 -3.642199
  H 2.662231 -2.233480 -3.019346
  H 3.343278 -1.393850 -5.870402
  H 1.859737 -2.178729 -5.350675
  H 3.387953 -3.042978 -5.254651
 25
 0.985583
  C 1.009933 0.216644 0.475831
  C 2.470720 0.122081 0.406162
  C 3.267322 0.496980 1.589902
  H 2.639055 0.888818 2.385097
  C 3.040403 -0.335170 -0.778003
  C 4.416761 -0.342546 -1.036518
  C 5.069028 -0.778515 -2.167097
  C 4.601763 -1.351420 -3.436204
  C 3.123288 -1.588025 -3.712291
  C 2.929357 -2.174994 -5.108454
  H 6.147323 -0.668542 -2.144034
  H 0.604938 0.227804 1.480315
  H 0.484082 -0.451021 -0.198185
  H 0.885996 1.230151 0.060987
  H 4.032388 1.233531 1.343702
  H 3.793226 -0.381952 1.968311
  H 2.368892 -0.700232 -1.535783
  H 5.056661 0.042055 -0.253670
  H 5.144370 -2.299290 -3.564154
  H 5.015932 -0.717854 -4.233897
  H 2.576863 -0.645458 -3.656120
  H 2.713288 -2.288606 -2.983361
  H 3.302172 -1.496231 -5.872981
  H 1.874755 -2.352190 -5.302519
  H 3.453103 -3.123241 -5.209321
 25
 11.418774
  C 1.005464 0.131648 0.524249
  C 2.450353 0.163133 0.375939
  C 3.273388 0.469599 1.570699
  H 2.662761 0.850380 2.386152
  C 3.016014 -0.288970 -0.811917
  C 4.394734 -0.279232 -1.068896
  C 5.055053 -0.726445 -2.185992
  C 4.599421 -1.327826 -3.444881
  C 3.119591 -1.573101 -3.714552
  C 2.929685 -2.227134 -5.080340
  H 6.134913 -0.638319 -2.148206
  H 0.571875 0.159838 1.511763
  H 0.418589 -0.332237 -0.258580
  H 1.143064 1.211075 0.191521
  H 4.062419 1.191854 1.354761
  H 3.752392 -0.447849 1.908036
  H 2.344729 -0.647013 -1.575212
  H 5.033407 0.106219 -0.281809
  H 5.141739 -2.281710 -3.547751
  H 5.009753 -0.705884 -4.253227
  H 2.576952 -0.627681 -3.707794
  H 2.705709 -2.237978 -2.951580
  H 3.346745 -1.607053 -5.871335
  H 1.872954 -2.372593 -5.289709
  H 3.416363 -3.197537 -5.116377
 25
 26.548621
  C 0.995180 0.045616 0.603301
  C 2.410849 0.136676 0.400124
  C 3.270857 0.554864 1.547998
  H 2.668846 0.924831 2.377183
  C 2.997940 -0.365351 -0.784947
  C 4.373467 -0.316395 -1.053830
  C 5.038876 -0.759386 -2.161250
  C 4.591781 -1.373400 -3.429754
  C 3.110956 -1.556814 -3.735860
  C 2.927413 -2.166676 -5.121399
  H 6.119056 -0.701825 -2.102067
  H 0.546447 0.276334 1.554847
  H 0.380567 -0.447034 -0.136420
  H 1.436737 1.082085 0.066909
  H 3.984126 1.328635 1.266068
  H 3.834900 -0.311007 1.896866
  H 2.338017 -0.778171 -1.530013
  H 5.004783 0.097672 -0.282682
  H 5.090855 -2.348075 -3.499494
  H 5.046410 -0.783445 -4.238300
  H 2.602991 -0.591452 -3.713923
  H 2.658920 -2.224693 -3.004212
  H 3.320108 -1.506957 -5.891121
  H 1.873611 -2.334878 -5.327062
  H 3.442257 -3.122675 -5.197189
 25
 37.293147
  C 0.972212 0.033105 0.605978
  C 2.383485 0.174984 0.406457
  C 3.256680 0.564089 1.568907
  H 2.656884 0.898129 2.409476
  C 2.980664 -0.359873 -0.793252
  C 4.347589 -0.343179 -1.036870
  C 5.022292 -0.775603 -2.151549
  C 4.579714 -1.360289 -3.433865
  C 3.101390 -1.594495 -3.722200
  C 2.916798 -2.168109 -5.124877
  H 6.098712 -0.660455 -2.112737
  H 0.506609 0.279653 1.542826
  H 0.361968 -0.402348 -0.167548
  H 1.759233 1.104567 -0.028427
  H 3.952160 1.355142 1.304998
  H 3.834110 -0.299805 1.887878
  H 2.313072 -0.776436 -1.525924
  H 4.974364 0.058858 -0.253494
  H 5.117028 -2.310806 -3.548227
  H 4.995294 -0.724882 -4.227944
  H 2.556694 -0.651064 -3.662084
  H 2.686981 -2.301939 -3.002892
  H 3.297956 -1.484772 -5.880617
  H 1.865106 -2.354534 -5.327595
  H 3.448869 -3.112166 -5.226777
 25
 40.373952
  C 0.971154 -0.030187 0.637619
  C 2.359926 0.208578 0.399461
  C 3.236968 0.578439 1.579094
  H 2.629427 0.871707 2.429186
  C 2.983819 -0.345130 -0.805752
  C 4.347964 -0.327228 -1.045403
  C 5.020509 -0.780962 -2.155382
  C 4.575555 -1.375432 -3.427065
  C 3.094964 -1.577949 -3.727136
  C 2.912450 -2.165331 -5.124436
  H 6.099308 -0.694509 -2.105826
  H 0.527526 0.182821 1.592785
  H 0.336833 -0.420065 -0.139439
  H 2.049267 1.144490 -0.182285
  H 3.909931 1.396658 1.342043
  H 3.834317 -0.280828 1.872632
  H 2.313710 -0.781867 -1.526417
  H 4.974236 0.081682 -0.264055
  H 5.090876 -2.340839 -3.518430
  H 5.016725 -0.764109 -4.225694
  H 2.571024 -0.622278 -3.684489
  H 2.657987 -2.268739 -3.004689
  H 3.301162 -1.490797 -5.884275
  H 1.858784 -2.334988 -5.331878
  H 3.430977 -3.117192 -5.217084
 25
 42.140428
  C 0.974360 -0.005033 0.642984
  C 2.352459 0.183547 0.425287
  C 3.227743 0.587910 1.590976
  H 2.618114 0.862425 2.445848
  C 2.976161 -0.353206 -0.800860
  C 4.349204 -0.337903 -1.040467
  C 5.015491 -0.789114 -2.148787
  C 4.565823 -1.377428 -3.423058
  C 3.083870 -1.573492 -3.720969
  C 2.896615 -2.152373 -5.121145
  H 6.094954 -0.706789 -2.101655
  H 0.530714 0.206628 1.597936
  H 0.330941 -0.378655 -0.134232
  H 2.294404 1.023600 -0.386848
  H 3.869952 1.428953 1.347339
  H 3.858362 -0.248696 1.883401
  H 2.308641 -0.826165 -1.501285
  H 4.973339 0.074526 -0.259283
  H 5.077408 -2.343947 -3.519883
  H 5.006912 -0.763265 -4.219163
  H 2.562667 -0.616671 -3.672814
  H 2.645703 -2.267632 -3.002546
  H 3.281099 -1.472522 -5.878408
  H 1.842203 -2.322466 -5.325314
  H 3.416114 -3.102804 -5.222028
 25
 38.612987
  C 0.989127 0.003883 0.658214
  C 2.338104 0.170594 0.454550
  C 3.227974 0.549472 1.602822
  H 2.635218 0.798119 2.477377
  C 2.946342 -0.274566 -0.821762
  C 4.343284 -0.287390 -1.058314
  C 5.007318 -0.768328 -2.146244
  C 4.557889 -1.379839 -3.411958
  C 3.075466 -1.562972 -3.715214
  C 2.889189 -2.170689 -5.103282
  H 6.087280 -0.699162 -2.095717
  H 0.547639 0.202927 1.617423
  H 0.328167 -0.327127 -0.123465
  H 2.487406 0.915388 -0.601499
  H 3.859731 1.402054 1.368893
  H 3.873051 -0.288984 1.857277
  H 2.276966 -0.752868 -1.519446
  H 4.964812 0.130480 -0.278258
  H 5.056896 -2.355094 -3.482765
  H 5.011958 -0.790468 -4.219313
  H 2.566178 -0.598705 -3.692708
  H 2.623499 -2.235415 -2.984508
  H 3.286622 -1.512844 -5.873226
  H 1.834093 -2.332109 -5.310194
  H 3.397262 -3.129631 -5.179917
 25
 27.105892
  C 1.009801 -0.037244 0.668973
  C 2.333799 0.156992 0.486484
  C 3.244096 0.479562 1.617609
  H 2.677855 0.645845 2.528981
  C 2.907148 -0.120378 -0.871882
  C 4.329948 -0.187870 -1.091299
  C 4.997500 -0.734084 -2.142995
  C 4.549308 -1.386372 -3.385473
  C 3.068938 -1.543111 -3.705391
  C 2.885448 -2.207433 -5.067767
  H 6.078247 -0.691078 -2.078755
  H 0.559909 0.088050 1.637997
  H 0.348075 -0.314967 -0.132799
  H 2.600424 0.987742 -0.882380
  H 3.837643 1.370293 1.421977
  H 3.930202 -0.349931 1.781426
  H 2.240878 -0.633454 -1.550529
  H 4.946673 0.234974 -0.310282
  H 5.025345 -2.375978 -3.407706
  H 5.033372 -0.847681 -4.211439
  H 2.584718 -0.566142 -3.732381
  H 2.587668 -2.170089 -2.952598
  H 3.316727 -1.598927 -5.859812
  H 1.829117 -2.343038 -5.285839
  H 3.361612 -3.185328 -5.092683
 25
 17.955517
  C 1.028870 -0.062978 0.683323
  C 2.350826 0.114450 0.499239
  C 3.272489 0.441645 1.612311
  H 2.728826 0.555001 2.545353
  C 2.876731 -0.033177 -0.894393
  C 4.320027 -0.131626 -1.096583
  C 4.989843 -0.718170 -2.123141
  C 4.541380 -1.398737 -3.348656
  C 3.066098 -1.514624 -3.697966
  C 2.883454 -2.207839 -5.045612
  H 6.070820 -0.695547 -2.046643
  H 0.576544 0.011674 1.656761
  H 0.365823 -0.305180 -0.129545
  H 2.585237 0.994712 -1.202039
  H 3.813392 1.366591 1.417699
  H 4.010384 -0.352037 1.727130
  H 2.268355 -0.694152 -1.504243
  H 4.931334 0.326139 -0.331769
  H 4.991817 -2.401139 -3.339446
  H 5.060256 -0.901839 -4.181380
  H 2.611634 -0.524687 -3.752710
  H 2.548016 -2.106926 -2.940218
  H 3.337976 -1.629717 -5.847020
  H 1.826711 -2.322228 -5.273573
  H 3.334922 -3.197482 -5.041704
 25
 16.202019
  C 1.014959 0.059286 0.677741
  C 2.351569 0.103966 0.505104
  C 3.277886 0.421664 1.616613
  H 2.736996 0.559095 2.547909
  C 2.872327 -0.135120 -0.872043
  C 4.323564 -0.166656 -1.075500
  C 5.001611 -0.697081 -2.125452
  C 4.552221 -1.363075 -3.359348
  C 3.075153 -1.512582 -3.682796
  C 2.880207 -2.181841 -5.040080
  H 6.081729 -0.630724 -2.068994
  H 0.557055 0.230527 1.635970
  H 0.343920 -0.168867 -0.132987
  H 2.467230 0.730183 -1.427544
  H 3.833217 1.335200 1.405671
  H 4.004127 -0.380958 1.742066
  H 2.362765 -0.983292 -1.336579
  H 4.924242 0.294473 -0.305109
  H 5.034525 -2.350142 -3.388113
  H 5.039365 -0.829090 -4.188417
  H 2.590335 -0.535724 -3.700538
  H 2.586082 -2.134098 -2.928170
  H 3.305840 -1.577459 -5.838021
  H 1.821807 -2.314507 -5.249426
  H 3.353032 -3.161053 -5.066783
 25
 15.478605
  C 1.005895 0.186228 0.643324
  C 2.345219 0.119478 0.490703
  C 3.269706 0.391516 1.614717
  H 2.725379 0.519957 2.544624
  C 2.877803 -0.238554 -0.850948
  C 4.330990 -0.206911 -1.055973
  C 5.011782 -0.663269 -2.138419
  C 4.559017 -1.308569 -3.379318
  C 3.083188 -1.515915 -3.660905
  C 2.872485 -2.164508 -5.024279
  H 6.088011 -0.547432 -2.104813
  H 0.554869 0.447860 1.586591
  H 0.329483 -0.015396 -0.168320
  H 2.397235 0.431865 -1.582966
  H 3.839114 1.302280 1.426082
  H 3.981395 -0.422244 1.728088
  H 2.473359 -1.220661 -1.140697
  H 4.924090 0.234536 -0.269711
  H 5.081009 -2.271044 -3.450723
  H 4.999355 -0.732873 -4.205503
  H 2.554859 -0.560207 -3.640103
  H 2.641654 -2.167268 -2.904104
  H 3.266340 -1.537376 -5.820375
  H 1.813150 -2.317363 -5.211955
  H 3.366378 -3.132000 -5.079839
 25
 15.322151
  C 1.004522 0.167464 0.642249
  C 2.344605 0.120018 0.493537
  C 3.260746 0.471157 1.605435
  H 2.706450 0.682896 2.516277
  C 2.890434 -0.308122 -0.824123
  C 4.344508 -0.274396 -1.027702
  C 5.019399 -0.694744 -2.127967
  C 4.558887 -1.299790 -3.389104
  C 3.080344 -1.507755 -3.666265
  C 2.862726 -2.118253 -5.046316
  H 6.096822 -0.581624 -2.095382
  H 0.551659 0.461498 1.573163
  H 0.330139 -0.084465 -0.159624
  H 2.396348 0.280476 -1.611136
  H 3.846623 1.352550 1.349097
  H 3.957955 -0.342997 1.797779
  H 2.514334 -1.321847 -1.036407
  H 4.943229 0.129045 -0.225792
  H 5.082322 -2.262068 -3.488256
  H 4.995283 -0.702942 -4.203144
  H 2.548615 -0.555570 -3.618226
  H 2.644618 -2.177858 -2.922077
  H 3.251174 -1.468976 -5.827233
  H 1.802142 -2.268122 -5.232088
  H 3.357880 -3.083449 -5.131520
