 22
 0.000000
  H 1.432114 0.162637 0.457144
  C 2.512005 0.148491 0.420868
  C 3.267344 0.615475 1.581894
  H 2.632216 0.942625 2.396827
  C 3.074646 -0.321877 -0.750442
  C 4.456731 -0.417677 -0.990133
  C 5.091552 -0.872694 -2.123935
  C 4.599747 -1.386040 -3.403373
  C 3.115090 -1.508072 -3.709044
  C 2.901377 -2.071142 -5.112291
  H 6.174515 -0.859706 -2.091518
  H 3.928814 1.436411 1.293394
  H 3.929672 -0.176129 1.941487
  H 2.393246 -0.633077 -1.524578
  H 5.105498 -0.094775 -0.186172
  H 5.071049 -2.370870 -3.537698
  H 5.071966 -0.767864 -4.181181
  H 2.637042 -0.528307 -3.656196
  H 2.636333 -2.179121 -2.993706
  H 3.343212 -1.423630 -5.866074
  H 1.838994 -2.156465 -5.325990
  H 3.342686 -3.060405 -5.209203
 22
 0.136531
  H 1.445281 0.224828 0.477983
  C 2.523455 0.146033 0.419863
  C 3.292192 0.698737 1.533801
  H 2.645870 1.089499 2.312631
  C 3.047071 -0.446182 -0.709955
  C 4.428800 -0.572468 -0.937875
  C 5.080324 -0.934903 -2.095744
  C 4.598898 -1.380098 -3.400459
  C 3.117315 -1.528745 -3.704088
  C 2.905328 -2.013394 -5.135671
  H 6.162747 -0.886920 -2.046650
  H 3.952501 1.497668 1.189428
  H 3.956540 -0.056053 1.958817
  H 2.351317 -0.791904 -1.455932
  H 5.070768 -0.283875 -0.116182
  H 5.106851 -2.336004 -3.604653
  H 5.058331 -0.718043 -4.149502
  H 2.613108 -0.567269 -3.585258
  H 2.664161 -2.252062 -3.022402
  H 3.321333 -1.311087 -5.852513
  H 1.844643 -2.116358 -5.346273
  H 3.372479 -2.981825 -5.294990
 22
 2.094338
  H 1.459459 0.363139 0.430323
  C 2.524703 0.156038 0.400874
  C 3.334402 0.754923 1.449041
  H 2.715931 1.233748 2.202596
  C 2.994540 -0.574372 -0.672173
  C 4.372779 -0.704984 -0.902074
  C 5.063607 -0.998792 -2.050686
  C 4.611332 -1.381751 -3.380162
  C 3.135522 -1.543352 -3.681535
  C 2.915441 -1.935432 -5.139052
  H 6.142661 -0.943901 -1.978361
  H 4.007248 1.506946 1.034250
  H 3.971553 0.009019 1.925466
  H 2.267131 -0.970752 -1.366572
  H 5.014167 -0.462958 -0.053367
  H 5.137142 -2.320597 -3.621311
  H 5.056367 -0.672497 -4.090903
  H 2.602274 -0.602328 -3.498220
  H 2.707483 -2.317632 -3.035084
  H 3.307059 -1.176349 -5.812828
  H 1.853434 -2.054255 -5.345667
  H 3.406250 -2.879196 -5.367964
 22
 4.982720
  H 1.484275 0.401153 0.357493
  C 2.528674 0.127638 0.368206
  C 3.337345 0.840975 1.355780
  H 2.717463 1.393620 2.041640
  C 2.960781 -0.740773 -0.609352
  C 4.349513 -0.838815 -0.860540
  C 5.075243 -1.106505 -1.996656
  C 4.637268 -1.410367 -3.355602
  C 3.150640 -1.528961 -3.657224
  C 2.908322 -1.817138 -5.133182
  H 6.158178 -1.068532 -1.898897
  H 3.998841 1.545848 0.855930
  H 3.994865 0.163588 1.900480
  H 2.245183 -1.209835 -1.241846
  H 4.982008 -0.603947 -0.006626
  H 5.144820 -2.351970 -3.644468
  H 5.092360 -0.654066 -4.031445
  H 2.642728 -0.598288 -3.389472
  H 2.714489 -2.341985 -3.066451
  H 3.310917 -1.030538 -5.759996
  H 1.853292 -1.916867 -5.331233
  H 3.383065 -2.759038 -5.425098
 22
 7.425157
  H 1.541103 0.479471 -0.004764
  C 2.545926 0.119952 0.223163
  C 3.297137 0.933323 1.187146
  H 2.636770 1.572009 1.764172
  C 3.012908 -0.921538 -0.532476
  C 4.419376 -0.985411 -0.779432
  C 5.113766 -1.260712 -1.920416
  C 4.649934 -1.458157 -3.299675
  C 3.161182 -1.514958 -3.584444
  C 2.887902 -1.649770 -5.079008
  H 6.192555 -1.297021 -1.820488
  H 3.999196 1.583957 0.674639
  H 3.890262 0.315453 1.856897
  H 2.329210 -1.555261 -1.058571
  H 5.026931 -0.750537 0.090691
  H 5.114065 -2.389665 -3.641420
  H 5.112303 -0.682986 -3.920802
  H 2.670403 -0.611908 -3.213550
  H 2.712852 -2.364536 -3.070166
  H 3.293409 -0.803563 -5.626443
  H 1.818358 -1.690879 -5.266445
  H 3.333208 -2.559679 -5.477687
 22
 13.903712
  H 1.784606 0.680000 -0.445917
  C 2.642638 0.193323 0.020195
  C 3.328183 0.963081 1.052225
  H 2.648484 1.683906 1.504784
  C 2.974207 -1.038952 -0.474624
  C 4.387101 -1.173324 -0.683597
  C 5.087040 -1.377017 -1.820701
  C 4.633935 -1.448479 -3.224604
  C 3.142359 -1.491418 -3.521175
  C 2.897749 -1.573175 -5.026033
  H 6.164127 -1.398144 -1.723174
  H 4.147957 1.559388 0.631300
  H 3.750484 0.316078 1.817210
  H 2.247105 -1.639146 -0.989583
  H 4.959300 -1.020008 0.229686
  H 5.121455 -2.332123 -3.668269
  H 5.081811 -0.602760 -3.752898
  H 2.657770 -0.596974 -3.135577
  H 2.706802 -2.375207 -3.051646
  H 3.295771 -0.697215 -5.530365
  H 1.834910 -1.629224 -5.236065
  H 3.367609 -2.453317 -5.451436
 22
 28.039273
  H 2.082462 0.815534 -0.647735
  C 2.790134 0.208108 -0.065028
  C 3.348604 0.939939 1.076605
  H 2.707452 1.777483 1.318679
  C 2.907830 -1.093848 -0.474033
  C 4.331850 -1.070035 -0.695948
  C 5.063657 -1.224850 -1.828885
  C 4.630661 -1.392192 -3.225897
  C 3.137341 -1.473158 -3.529000
  C 2.900012 -1.607442 -5.032431
  H 6.137353 -1.271286 -1.697560
  H 4.335125 1.354265 0.868740
  H 3.449944 0.286773 1.938527
  H 2.156521 -1.641805 -1.004884
  H 4.903317 -1.025312 0.233310
  H 5.132940 -2.291904 -3.616602
  H 5.065906 -0.572197 -3.807278
  H 2.631650 -0.575217 -3.172034
  H 2.710604 -2.346055 -3.038027
  H 3.339332 -0.773964 -5.573813
  H 1.836051 -1.624719 -5.249758
  H 3.336455 -2.526131 -5.411350
 22
 40.311623
  H 2.294281 0.614094 -0.897700
  C 2.905525 0.058687 -0.171669
  C 3.455681 0.942791 0.876898
  H 2.848675 1.841524 0.942691
  C 2.826896 -1.316019 -0.391297
  C 4.230052 -1.082609 -0.616398
  C 5.008740 -1.163524 -1.756402
  C 4.598970 -1.277774 -3.163683
  C 3.116316 -1.414058 -3.483649
  C 2.899722 -1.521670 -4.987281
  H 6.079976 -1.132258 -1.602916
  H 4.475578 1.260860 0.668337
  H 3.453762 0.436877 1.839990
  H 2.062662 -1.890088 -0.876281
  H 4.785460 -1.082694 0.321131
  H 5.138870 -2.136226 -3.586228
  H 5.015302 -0.417975 -3.705424
  H 2.560668 -0.558721 -3.107955
  H 2.732228 -2.318681 -3.019011
  H 3.264419 -0.634558 -5.497928
  H 1.843003 -1.630720 -5.212926
  H 3.418811 -2.383657 -5.391626
