 16
 0.000000
  H 1.425645 0.196104 0.539650
  C 2.489935 0.136821 0.392292
  H 3.136021 0.458378 1.192926
  C 2.996346 -0.334019 -0.780440
  C 4.390709 -0.416802 -0.986617
  C 5.071208 -0.863465 -2.100519
  C 4.617681 -1.377702 -3.383170
  C 3.149426 -1.512461 -3.719659
  H 3.044697 -1.915093 -4.723904
  H 6.152784 -0.833362 -2.025160
  H 2.314958 -0.644460 -1.554136
  H 5.001673 -0.083814 -0.156249
  H 5.113888 -2.353811 -3.513217
  H 5.114241 -0.762131 -4.151552
  H 2.646048 -0.548304 -3.692270
  H 2.645904 -2.190577 -3.033840
 16
 9.669643
  H 1.394353 0.213886 0.583972
  C 2.459307 0.156077 0.440362
  H 3.098777 0.479420 1.245573
  C 2.975154 -0.314032 -0.730664
  C 4.360068 -0.391256 -0.922992
  C 5.115476 -0.890291 -2.167476
  C 4.643270 -1.397083 -3.431481
  C 3.165346 -1.520632 -3.739999
  H 3.037207 -1.922223 -4.741589
  H 6.193161 -0.858415 -2.087661
  H 2.300334 -0.627152 -1.511169
  H 4.977011 -0.061343 -0.100164
  H 5.133268 -2.375504 -3.570726
  H 5.133621 -0.786233 -4.208158
  H 2.670614 -0.552852 -3.702787
  H 2.670436 -2.194549 -3.044548
 16
 29.451047
  H 1.362244 0.206486 0.565872
  C 2.430086 0.155372 0.438741
  H 3.047348 0.483950 1.257985
  C 2.969895 -0.305353 -0.709618
  C 4.342706 -0.364506 -0.856763
  C 5.172867 -0.916021 -2.231868
  C 4.654824 -1.409225 -3.461700
  C 3.167001 -1.513660 -3.722583
  H 3.002289 -1.913035 -4.718328
  H 6.238056 -0.867439 -2.110301
  H 2.317030 -0.624606 -1.505664
  H 4.993098 -0.046727 -0.063809
  H 5.133835 -2.389270 -3.625053
  H 5.134198 -0.814128 -4.257070
  H 2.688902 -0.538195 -3.673791
  H 2.688531 -2.184937 -3.013248
 16
 51.368989
  H 1.314757 0.211827 0.578307
  C 2.385923 0.165531 0.464571
  H 2.986424 0.498546 1.295638
  C 2.952751 -0.294630 -0.683082
  C 4.329155 -0.341068 -0.798463
  C 5.226224 -0.946552 -2.308274
  C 4.671919 -1.426429 -3.504318
  C 3.176641 -1.512436 -3.719242
  H 2.974057 -1.908848 -4.707615
  H 6.273609 -0.873688 -2.126558
  H 2.313602 -0.617931 -1.490392
  H 5.037138 -0.043614 -0.055755
  H 5.140352 -2.409218 -3.677372
  H 5.140410 -0.835937 -4.308523
  H 2.716933 -0.529585 -3.652943
  H 2.716388 -2.176952 -2.992120
 16
 73.386219
  H 1.278702 0.227437 0.616801
  C 2.347409 0.187296 0.518589
  H 2.933193 0.522871 1.356367
  C 2.937558 -0.273993 -0.631597
  C 4.299309 -0.313586 -0.729854
  C 5.267666 -0.972224 -2.372032
  C 4.692580 -1.448273 -3.558532
  C 3.189607 -1.522207 -3.743270
  H 2.961957 -1.917720 -4.729827
  H 6.319302 -0.888957 -2.164720
  H 2.312194 -0.599686 -1.445086
  H 5.036754 -0.024265 -0.007352
  H 5.155446 -2.439611 -3.743540
  H 5.155397 -0.859393 -4.377154
  H 2.741457 -0.536496 -3.666168
  H 2.741085 -2.181453 -3.006741
 16
 93.336232
  H 1.243530 0.250928 0.675695
  C 2.316264 0.212811 0.582268
  H 2.899063 0.549970 1.423998
  C 2.912510 -0.247930 -0.566712
  C 4.269309 -0.285212 -0.659404
  C 5.306276 -0.997612 -2.435249
  C 4.717011 -1.471565 -3.616505
  C 3.211737 -1.538145 -3.783139
  H 2.969753 -1.931760 -4.765017
  H 6.351307 -0.912238 -2.222694
  H 2.288246 -0.575666 -1.385111
  H 5.016660 -0.002055 0.047665
  H 5.172317 -2.462359 -3.806665
  H 5.172399 -0.886674 -4.438406
  H 2.769853 -0.548689 -3.699639
  H 2.769340 -2.195741 -3.039286
 16
 110.677534
  H 1.210365 0.270729 0.725305
  C 2.281288 0.235965 0.640074
  H 2.856487 0.574070 1.483993
  C 2.886823 -0.223834 -0.506585
  C 4.240593 -0.258148 -0.592066
  C 5.342839 -1.024887 -2.503233
  C 4.740760 -1.493631 -3.671411
  C 3.232418 -1.551123 -3.815593
  H 2.972099 -1.943427 -4.794115
  H 6.389462 -0.936604 -2.283419
  H 2.267767 -0.552406 -1.326754
  H 5.006923 0.019205 0.100408
  H 5.188503 -2.488014 -3.868024
  H 5.188748 -0.910683 -4.500472
  H 2.799256 -0.559294 -3.724369
  H 2.798709 -2.204954 -3.064487
 16
 124.875274
  H 1.173743 0.289254 0.771723
  C 2.247418 0.259061 0.697829
  H 2.813938 0.599437 1.547806
  C 2.866114 -0.199222 -0.445530
  C 4.214401 -0.229672 -0.521409
  C 5.380649 -1.051027 -2.568448
  C 4.764573 -1.516543 -3.728454
  C 3.252986 -1.564938 -3.850044
  H 2.974513 -1.955225 -4.823468
  H 6.422959 -0.960847 -2.343874
  H 2.252434 -0.529917 -1.271202
  H 4.995862 0.039532 0.150915
  H 5.204059 -2.513310 -3.931680
  H 5.204370 -0.936529 -4.563904
  H 2.828315 -0.569844 -3.750953
  H 2.827721 -2.215656 -3.090845
 16
 136.049273
  H 1.139058 0.307203 0.816669
  C 2.211947 0.282308 0.755961
  H 2.767484 0.624406 1.610511
  C 2.844943 -0.174131 -0.383258
  C 4.188403 -0.201002 -0.450365
  C 5.414531 -1.077845 -2.635175
  C 4.787901 -1.539606 -3.785793
  C 3.273918 -1.579369 -3.885922
  H 2.978213 -1.967924 -4.855203
  H 6.459142 -0.987122 -2.409245
  H 2.237828 -0.506340 -1.212847
  H 4.989390 0.060689 0.203392
  H 5.219653 -2.538523 -3.995481
  H 5.219984 -0.962447 -4.627310
  H 2.857471 -0.581904 -3.779358
  H 2.856940 -2.226663 -3.119772
 16
 144.341754
  H 1.102008 0.326891 0.865339
  C 2.176696 0.307350 0.818494
  H 2.722060 0.651908 1.679131
  C 2.824734 -0.147188 -0.315952
  C 4.163387 -0.171282 -0.376422
  C 5.446414 -1.104046 -2.700367
  C 4.812593 -1.564056 -3.846676
  C 3.295762 -1.596393 -3.928230
  H 2.985020 -1.983174 -4.893442
  H 6.493247 -1.016116 -2.481426
  H 2.223733 -0.481300 -1.150420
  H 4.978617 0.082983 0.258948
  H 5.238589 -2.564536 -4.062667
  H 5.238871 -0.989923 -4.693713
  H 2.886141 -0.596959 -3.814831
  H 2.885673 -2.240610 -3.155900
 16
 149.914004
  H 1.065390 0.348138 0.917864
  C 2.140196 0.333415 0.883586
  H 2.676183 0.680085 1.748741
  C 2.802040 -0.119237 -0.245602
  C 4.139024 -0.141772 -0.302911
  C 5.477234 -1.130703 -2.766691
  C 4.838468 -1.590213 -3.911779
  C 3.319333 -1.615113 -3.974923
  H 2.993497 -2.000222 -4.936275
  H 6.529929 -1.048479 -2.561977
  H 2.206982 -0.455306 -1.084639
  H 4.966000 0.108195 0.321574
  H 5.258695 -2.592079 -4.133502
  H 5.259002 -1.018893 -4.763864
  H 2.916564 -0.614049 -3.854660
  H 2.916062 -2.255844 -3.196676
 16
 153.758822
  H 1.029413 0.371033 0.973797
  C 2.105374 0.360094 0.950073
  H 2.634064 0.708793 1.819708
  C 2.778986 -0.090838 -0.174100
  C 4.115045 -0.112566 -0.229854
  C 5.508138 -1.157501 -2.833555
  C 4.864930 -1.617487 -3.979896
  C 3.344110 -1.636070 -4.027047
  H 3.005216 -2.019516 -4.984558
  H 6.564975 -1.081723 -2.644951
  H 2.189372 -0.428595 -1.017500
  H 4.949078 0.133588 0.385391
  H 5.279502 -2.620537 -4.206142
  H 5.279702 -1.048187 -4.835989
  H 2.947285 -0.633343 -3.900757
  H 2.946864 -2.274114 -3.243393
 16
 156.434564
  H 0.996283 0.395164 1.032163
  C 2.072196 0.387076 1.016997
  H 2.594764 0.737556 1.889425
  C 2.755254 -0.062702 -0.102534
  C 4.090800 -0.084156 -0.158291
  C 5.537147 -1.185202 -2.902608
  C 4.891454 -1.645398 -4.049756
  C 3.369625 -1.659144 -4.084497
  H 3.020458 -2.041178 -5.039065
  H 6.599113 -1.115944 -2.730421
  H 2.170198 -0.402040 -0.949350
  H 4.932352 0.159120 0.449916
  H 5.301138 -2.649400 -4.279267
  H 5.301179 -1.077239 -4.908676
  H 2.977548 -0.655269 -3.953286
  H 2.977373 -2.295068 -3.296878
 16
 158.253875
  H 0.964976 0.419377 1.090124
  C 2.041437 0.413515 1.082652
  H 2.558736 0.765724 1.958018
  C 2.732995 -0.035156 -0.032489
  C 4.067876 -0.056351 -0.088378
  C 5.566237 -1.213634 -2.973775
  C 4.918139 -1.674252 -4.122195
  C 3.395335 -1.684181 -4.146854
  H 3.037825 -2.064998 -5.098816
  H 6.631775 -1.150734 -2.817610
  H 2.152260 -0.375877 -0.882784
  H 4.915101 0.183579 0.512300
  H 5.323503 -2.679110 -4.354135
  H 5.323328 -1.106732 -4.983315
  H 3.007122 -0.679289 -4.011659
  H 3.007152 -2.318573 -3.355781
