 23
 0.000000
  H 1.405373 0.151545 0.432560
  C 2.484147 0.140637 0.403130
  C 3.235904 0.611662 1.571294
  H 2.608674 0.940712 2.390214
  C 3.061615 -0.327905 -0.762376
  C 4.438919 -0.415094 -0.981141
  C 5.121538 -0.868269 -2.111607
  C 4.617880 -1.388252 -3.409054
  C 3.127207 -1.504623 -3.700903
  C 2.913897 -2.067015 -5.104197
  O 6.436170 -0.862431 -2.097325
  H 3.890789 1.436269 1.279540
  H 3.892417 -0.183884 1.931835
  H 2.390476 -0.641657 -1.541609
  H 5.066179 -0.085859 -0.161847
  H 5.077264 -2.375546 -3.537477
  H 5.078048 -0.763492 -4.183835
  H 2.651578 -0.524653 -3.649087
  H 2.650895 -2.177166 -2.986743
  H 3.356651 -1.418707 -5.856585
  H 1.851292 -2.151767 -5.316729
  H 3.356078 -3.055816 -5.200395
  H 6.831703 -0.530830 -1.267902
 23
 0.983562
  H 1.448176 -0.215592 0.562649
  C 2.508505 -0.068114 0.413984
  C 3.176902 0.921752 1.264982
  H 2.495304 1.345269 1.996505
  C 3.110888 -0.780620 -0.595797
  C 4.488272 -0.741332 -0.855518
  C 5.169669 -1.047879 -2.032274
  C 4.634369 -1.415992 -3.366612
  C 3.134883 -1.509675 -3.615453
  C 2.868472 -1.761789 -5.097157
  O 6.480012 -0.961311 -2.054188
  H 3.594908 1.731706 0.663813
  H 4.025756 0.470258 1.783759
  H 2.483216 -1.418874 -1.195611
  H 5.110043 -0.405611 -0.032631
  H 5.103696 -2.369925 -3.635274
  H 5.067155 -0.695602 -4.072440
  H 2.644902 -0.581896 -3.325054
  H 2.704589 -2.335547 -3.047249
  H 3.237542 -0.939223 -5.706051
  H 1.802759 -1.859914 -5.277126
  H 3.351399 -2.677443 -5.430106
  H 6.899290 -0.742233 -1.201498
 23
 4.883607
  H 1.482946 -0.450748 0.520113
  C 2.519049 -0.230701 0.308062
  C 3.073663 1.025551 0.835614
  H 2.355374 1.551982 1.458210
  C 3.212516 -1.097081 -0.487633
  C 4.599683 -0.985492 -0.753892
  C 5.257951 -1.124279 -1.968828
  C 4.660079 -1.347112 -3.307724
  C 3.151601 -1.471622 -3.453409
  C 2.765648 -1.514942 -4.927345
  O 6.561871 -0.985851 -2.031676
  H 3.385376 1.690030 0.028974
  H 3.976592 0.820471 1.413438
  H 2.686104 -1.955107 -0.885742
  H 5.224624 -0.757112 0.105139
  H 5.139009 -2.244446 -3.718173
  H 5.020659 -0.532224 -3.949393
  H 2.656580 -0.622107 -2.984295
  H 2.797587 -2.387289 -2.975412
  H 3.020583 -0.582261 -5.425084
  H 1.696417 -1.671192 -5.032577
  H 3.275649 -2.326223 -5.439182
  H 7.010980 -0.857967 -1.173713
 23
 10.239972
  H 1.524886 -0.528366 0.435960
  C 2.555046 -0.324836 0.196031
  C 3.068604 1.033435 0.470720
  H 2.337707 1.633875 1.008920
  C 3.289663 -1.285734 -0.404060
  C 4.691405 -1.194890 -0.680539
  C 5.304631 -1.135485 -1.918265
  C 4.643275 -1.212678 -3.244276
  C 3.146270 -1.468052 -3.315526
  C 2.653988 -1.384015 -4.759091
  O 6.601193 -0.934671 -2.014020
  H 3.330019 1.553239 -0.451260
  H 3.987876 0.964823 1.053530
  H 2.822671 -2.234818 -0.628472
  H 5.327045 -1.116774 0.190515
  H 5.168620 -1.991942 -3.807025
  H 4.888741 -0.288126 -3.783361
  H 2.608112 -0.730858 -2.715095
  H 2.911801 -2.456487 -2.922870
  H 2.779020 -0.380663 -5.156530
  H 1.599904 -1.639311 -4.814597
  H 3.202499 -2.075732 -5.401178
  H 7.072521 -0.847806 -1.165217
 23
 15.368724
  H 1.575741 -0.648951 0.385484
  C 2.592613 -0.419209 0.105681
  C 3.011620 1.007823 0.150109
  H 2.230004 1.629577 0.573415
  C 3.404505 -1.405494 -0.281028
  C 4.798785 -1.300738 -0.637757
  C 5.345876 -1.109270 -1.895241
  C 4.613538 -1.111158 -3.187115
  C 3.118698 -1.388636 -3.195540
  C 2.555512 -1.262059 -4.607556
  O 6.639797 -0.938458 -2.046374
  H 3.238544 1.366597 -0.853999
  H 3.917126 1.125660 0.743649
  H 3.034309 -2.429117 -0.261439
  H 5.486026 -1.389910 0.198905
  H 5.123720 -1.837945 -3.831280
  H 4.811380 -0.147743 -3.674544
  H 2.594297 -0.688999 -2.545943
  H 2.924050 -2.398400 -2.829834
  H 2.632922 -0.239868 -4.967359
  H 1.506589 -1.545040 -4.622253
  H 3.088095 -1.909317 -5.301220
  H 7.162324 -0.921528 -1.220775
 23
 11.742433
  H 1.706289 -0.679150 0.550902
  C 2.681182 -0.444055 0.140224
  C 3.020066 0.981106 -0.035159
  H 2.214078 1.624430 0.308257
  C 3.522451 -1.448512 -0.151846
  C 4.870924 -1.353724 -0.644100
  C 5.328481 -1.057449 -1.908712
  C 4.541276 -1.038631 -3.168174
  C 3.049389 -1.349659 -3.136213
  C 2.457222 -1.222087 -4.533177
  O 6.616586 -0.896958 -2.133615
  H 3.222659 1.178821 -1.084423
  H 3.921213 1.243820 0.503038
  H 3.229728 -2.457081 0.133266
  H 5.630965 -1.567444 0.103944
  H 5.043990 -1.737991 -3.846615
  H 4.700230 -0.058825 -3.631815
  H 2.521129 -0.668112 -2.472009
  H 2.888596 -2.371757 -2.777274
  H 2.497656 -0.193929 -4.878194
  H 1.420044 -1.536682 -4.534034
  H 2.995737 -1.838477 -5.240968
  H 7.183259 -0.924136 -1.340342
 23
 11.291191
  H 1.705454 -0.724162 0.528653
  C 2.667699 -0.454986 0.118211
  C 2.934741 0.981761 -0.106442
  H 2.102390 1.595476 0.223771
  C 3.556093 -1.434549 -0.152885
  C 4.884063 -1.309456 -0.650403
  C 5.349991 -1.061615 -1.924098
  C 4.554068 -1.061440 -3.173330
  C 3.054143 -1.299391 -3.100056
  C 2.426596 -1.175945 -4.492657
  O 6.634951 -0.892759 -2.156595
  H 3.139612 1.177864 -1.163896
  H 3.833590 1.294118 0.424098
  H 3.387028 -2.413955 0.315623
  H 5.607426 -1.662137 0.074746
  H 5.016504 -1.825768 -3.822749
  H 4.746565 -0.108943 -3.683111
  H 2.582266 -0.572224 -2.441258
  H 2.854879 -2.292576 -2.710878
  H 2.468207 -0.144272 -4.852699
  H 1.383699 -1.478791 -4.463467
  H 2.941514 -1.807746 -5.212366
  H 7.203396 -0.879407 -1.367146
