9

C 1.00757 -0.072204 0.045803
C 2.503924 -0.082859 0.027403
C 3.219587 -0.595678 -0.979407
H 4.289443614831054 -0.6033701856213648 -0.995144025849996
H 0.645633 0.394184 0.96149
H 0.610749 -1.086616 0.006887
H 0.612374 0.495687 -0.797157
H 3.002854 0.353663 0.882679
H 2.708209 -1.029446 -1.830224
