 13
 0.000000
  C 0.925259 0.051206 0.219572
  C 2.416613 0.057975 0.101233
  H 2.979050 0.008256 1.026484
  C 3.072566 0.122333 -1.057588
  H 2.514573 0.171948 -1.986244
  C 4.511504 0.130583 -1.171289
  C 5.160538 0.194973 -2.332130
  H 6.238352 0.199597 -2.386531
  H 0.617107 -0.018051 1.259843
  H 0.499699 -0.791915 -0.325255
  H 0.502008 0.960656 -0.204202
  H 5.063469 0.080625 -0.241283
  H 4.630660 0.245520 -3.271875
 13
 5.831470
  C 0.929521 0.011339 0.234099
  C 2.385410 0.036965 0.108734
  H 2.977273 -0.003120 1.017775
  C 3.044673 0.098162 -1.061739
  H 2.488465 0.121427 -1.990930
  C 4.482793 0.148845 -1.170244
  C 5.137231 0.207620 -2.324228
  H 6.212147 0.243800 -2.370739
  H 0.571902 -0.010120 1.256691
  H 0.446356 -0.768460 -0.351867
  H 0.791036 0.970498 -0.221117
  H 5.030828 0.134850 -0.236858
  H 4.615744 0.222335 -3.267613
 13
 18.271827
  C 0.918505 -0.014740 0.245085
  C 2.362028 0.030796 0.111895
  H 2.971466 -0.005604 1.004373
  C 3.028132 0.085898 -1.067760
  H 2.470224 0.084989 -2.006453
  C 4.461253 0.165952 -1.168029
  C 5.126451 0.215136 -2.323551
  H 6.198862 0.273048 -2.362545
  H 0.535533 -0.011182 1.255581
  H 0.407416 -0.733864 -0.377291
  H 1.011875 0.952284 -0.205300
  H 5.005509 0.183284 -0.228586
  H 4.614381 0.196694 -3.268128
 13
 31.524019
  C 0.898131 -0.036822 0.257156
  C 2.344378 0.040584 0.097019
  H 2.957780 0.029464 0.988343
  C 3.017998 0.074453 -1.085835
  H 2.471316 0.031889 -2.014287
  C 4.449169 0.188871 -1.177249
  C 5.126541 0.213919 -2.324368
  H 6.201888 0.289623 -2.352150
  H 0.522304 -0.080109 1.262186
  H 0.349616 -0.659516 -0.436585
  H 1.174389 0.945004 -0.111214
  H 4.984850 0.249311 -0.232131
  H 4.624869 0.148312 -3.276833
 13
 41.935411
  C 0.882734 -0.057777 0.265754
  C 2.330192 0.051948 0.079135
  H 2.934391 0.081698 0.977362
  C 3.013476 0.056350 -1.105407
  H 2.472444 -0.031026 -2.034248
  C 4.441094 0.200038 -1.187044
  C 5.134818 0.205890 -2.325100
  H 6.207570 0.319054 -2.340527
  H 0.515345 -0.169217 1.273612
  H 0.303108 -0.556108 -0.489564
  H 1.303088 0.938996 -0.001203
  H 4.960779 0.307488 -0.245621
  H 4.647089 0.101127 -3.283956
 13
 50.199203
  C 0.875108 -0.080489 0.270683
  C 2.320133 0.066245 0.067202
  H 2.922994 0.116647 0.971168
  C 3.009415 0.053220 -1.116655
  H 2.474744 -0.054883 -2.045373
  C 4.431721 0.209016 -1.192495
  C 5.135401 0.205922 -2.325083
  H 6.202701 0.324977 -2.333401
  H 0.510343 -0.207682 1.274512
  H 0.281464 -0.512788 -0.509207
  H 1.402923 0.927059 0.039126
  H 4.951446 0.333903 -0.241465
  H 4.658790 0.086470 -3.279954
 13
 56.209166
  C 0.868457 -0.102615 0.275615
  C 2.315874 0.083747 0.075383
  H 2.911256 0.140380 0.980021
  C 3.016264 0.045947 -1.122389
  H 2.476811 -0.086868 -2.049840
  C 4.431801 0.212688 -1.195939
  C 5.142145 0.200366 -2.327070
  H 6.206323 0.348251 -2.331996
  H 0.496194 -0.245121 1.268771
  H 0.260820 -0.457963 -0.539314
  H 1.480356 0.924019 0.087322
  H 4.941279 0.362808 -0.253888
  H 4.669580 0.063211 -3.287110
 13
 61.219678
  C 0.871206 -0.130746 0.270829
  C 2.314725 0.105051 0.081013
  H 2.911973 0.159704 0.986436
  C 3.015554 0.052892 -1.118819
  H 2.470653 -0.089509 -2.045009
  C 4.426645 0.224394 -1.194951
  C 5.139001 0.201813 -2.326549
  H 6.207029 0.328923 -2.329419
  H 0.484347 -0.264210 1.260444
  H 0.270303 -0.447428 -0.557884
  H 1.543884 0.927860 0.092500
  H 4.937712 0.380734 -0.255112
  H 4.667043 0.065726 -3.283820
 13
 64.942981
  C 0.872652 -0.157571 0.268982
  C 2.312789 0.118146 0.090904
  H 2.913657 0.152676 0.997831
  C 3.019953 0.049787 -1.117123
  H 2.470830 -0.097182 -2.041366
  C 4.425490 0.223491 -1.194380
  C 5.139723 0.196484 -2.326741
  H 6.201393 0.354737 -2.331906
  H 0.468200 -0.268837 1.251788
  H 0.271415 -0.431783 -0.574996
  H 1.607336 0.952470 0.094693
  H 4.936293 0.396937 -0.256865
  H 4.669537 0.051381 -3.282612
 13
 67.070425
  C 0.881844 -0.207415 0.267368
  C 2.308023 0.142856 0.102548
  H 2.911148 0.163699 1.010368
  C 3.022583 0.069785 -1.120217
  H 2.471737 -0.080672 -2.034371
  C 4.422330 0.252103 -1.198293
  C 5.138983 0.212932 -2.331270
  H 6.210190 0.300155 -2.328633
  H 0.456662 -0.288619 1.246041
  H 0.281831 -0.445015 -0.587312
  H 1.649255 0.991200 0.091508
  H 4.939320 0.411197 -0.257101
  H 4.669192 0.053926 -3.287076
 13
 67.550645
  C 0.889964 -0.243914 0.264237
  C 2.303622 0.153862 0.112504
  H 2.905481 0.146503 1.021335
  C 3.026398 0.066954 -1.116539
  H 2.470740 -0.084951 -2.032753
  C 4.419735 0.251262 -1.195251
  C 5.138626 0.207548 -2.331165
  H 6.204718 0.335641 -2.332418
  H 0.445666 -0.293013 1.236567
  H 0.290289 -0.437557 -0.599848
  H 1.719750 1.045788 0.082483
  H 4.938453 0.422603 -0.256876
  H 4.669625 0.031596 -3.283468
 13
 66.821302
  C 0.904898 -0.286014 0.262118
  C 2.295708 0.172014 0.117924
  H 2.898625 0.142552 1.024287
  C 3.027386 0.078838 -1.117243
  H 2.468114 -0.071211 -2.031340
  C 4.414768 0.266356 -1.193119
  C 5.137924 0.213046 -2.330913
  H 6.206711 0.327417 -2.328387
  H 0.445357 -0.307574 1.229411
  H 0.301647 -0.448219 -0.607031
  H 1.784363 1.104051 0.070532
  H 4.934614 0.438342 -0.256842
  H 4.670682 0.017653 -3.281840
 13
 65.640936
  C 0.917330 -0.322984 0.263014
  C 2.286074 0.189341 0.119455
  H 2.892120 0.141447 1.024378
  C 3.029272 0.084778 -1.121670
  H 2.473406 -0.071585 -2.033846
  C 4.412131 0.281719 -1.194653
  C 5.140664 0.221399 -2.331325
  H 6.211401 0.310195 -2.321816
  H 0.447504 -0.308902 1.226524
  H 0.306111 -0.469695 -0.604848
  H 1.847566 1.155800 0.055358
  H 4.931887 0.455697 -0.255078
  H 4.675510 0.029564 -3.284073
 13
 64.829849
  C 0.919118 -0.333924 0.264862
  C 2.279057 0.197491 0.121805
  H 2.885301 0.123400 1.027289
  C 3.037314 0.070651 -1.125321
  H 2.482127 -0.091632 -2.039472
  C 4.415684 0.276345 -1.193919
  C 5.147343 0.223319 -2.331077
  H 6.210894 0.368280 -2.326437
  H 0.442182 -0.296871 1.223937
  H 0.302739 -0.475191 -0.602108
  H 1.931540 1.197765 0.043151
  H 4.930351 0.475558 -0.257053
  H 4.685739 0.017431 -3.281958
