 19
 0.000000
  H 1.270298 0.068448 -0.077372
  C 2.344979 0.070102 -0.106693
  H 2.847733 0.016427 0.844593
  C 3.034589 0.134300 -1.244378
  C 2.411396 0.211352 -2.609907
  C 0.887801 0.214853 -2.671893
  C 0.403135 0.296343 -4.116095
  C 4.493519 0.131724 -1.198664
  C 5.324766 0.190036 -2.232179
  H 6.395959 0.183217 -2.111321
  H 2.778005 -0.635445 -3.199224
  H 2.778005 1.119070 -3.100219
  H 0.493055 1.071171 -2.121412
  H 0.493054 -0.697960 -2.221238
  H 0.760159 1.207095 -4.592521
  H -0.684200 0.298291 -4.150615
  H 0.760160 -0.555036 -4.691954
  H 4.926259 0.075744 -0.206563
  H 5.012476 0.248152 -3.262095
 19
 13.382002
  H -nan -nan -nan
  C -nan -nan -nan
  H -nan -nan -nan
  C -nan -nan -nan
  C -nan -nan -nan
  C -nan -nan -nan
  C -nan -nan -nan
  C -nan -nan -nan
  C -nan -nan -nan
  H -nan -nan -nan
  H -nan -nan -nan
  H -nan -nan -nan
  H -nan -nan -nan
  H -nan -nan -nan
  H -nan -nan -nan
  H -nan -nan -nan
  H -nan -nan -nan
  H -nan -nan -nan
  H -nan -nan -nan
