 14
 0.000000
  C 0.992129 0.125941 0.361475
  C 2.449396 0.148562 0.318682
  H 2.998508 0.485811 1.187818
  C 3.135181 -0.274519 -0.796922
  C 4.528729 -0.332817 -0.893746
  C 5.160586 -0.834651 -2.019428
  H 4.578496 -1.195108 -2.864561
  O 6.434203 -0.937314 -2.193993
  H 0.590914 0.440071 1.318414
  H 0.632445 -0.878936 0.111768
  H 0.583246 0.756431 -0.432108
  H 2.554505 -0.614367 -1.646847
  H 5.122819 0.022385 -0.061379
  H 6.986866 -0.620668 -1.450788
 14
 -0.154898
  C 0.990341 0.133484 0.370076
  C 2.445713 0.134524 0.301930
  H 3.006743 0.412334 1.185382
  C 3.127702 -0.252945 -0.830120
  C 4.521722 -0.342814 -0.898631
  C 5.167319 -0.797052 -2.034873
  H 4.597402 -1.087753 -2.911597
  O 6.441716 -0.929733 -2.185450
  H 0.610899 0.609922 1.266715
  H 0.644155 -0.909065 0.355299
  H 0.549868 0.574972 -0.526396
  H 2.556293 -0.525508 -1.708253
  H 5.103096 -0.054114 -0.033102
  H 6.985678 -0.675856 -1.411346
 14
 1.088054
  C 0.991307 0.133551 0.376030
  C 2.443287 0.191583 0.279186
  H 3.009367 0.502437 1.151239
  C 3.120092 -0.190401 -0.859387
  C 4.511009 -0.337933 -0.907490
  C 5.162858 -0.753287 -2.055448
  H 4.606871 -0.924623 -2.974805
  O 6.428546 -0.976061 -2.173585
  H 0.587612 0.663959 1.227707
  H 0.814346 -0.945924 0.532410
  H 0.487936 0.360616 -0.559644
  H 2.556188 -0.409512 -1.762969
  H 5.084581 -0.156681 -0.000950
  H 6.960149 -0.815215 -1.365141
 14
 3.743238
  C 0.985277 0.194930 0.367843
  C 2.436952 0.133685 0.274147
  H 3.018037 0.364133 1.165093
  C 3.102649 -0.207227 -0.874020
  C 4.492784 -0.364757 -0.904278
  C 5.154158 -0.756203 -2.055738
  H 4.604751 -0.959861 -2.968366
  O 6.428955 -0.954753 -2.174459
  H 0.579529 0.723892 1.214637
  H 0.939334 -0.884930 0.611815
  H 0.451258 0.316798 -0.569922
  H 2.555227 -0.367994 -1.785208
  H 5.064311 -0.170723 -0.007534
  H 6.949365 -0.781895 -1.360959
 14
 12.115080
  C 0.999974 0.263808 0.372962
  C 2.414612 0.072328 0.263184
  H 3.017137 0.265509 1.139947
  C 3.083547 -0.236032 -0.899397
  C 4.472715 -0.378826 -0.925286
  C 5.147802 -0.771624 -2.057295
  H 4.614044 -0.954960 -2.995745
  O 6.430663 -0.897744 -2.173551
  H 0.599071 0.778994 1.232217
  H 1.080796 -0.838205 0.683445
  H 0.436483 0.313273 -0.543782
  H 2.535110 -0.378225 -1.821148
  H 5.029707 -0.185130 -0.019341
  H 6.929143 -0.777935 -1.338531
 14
 26.353745
  C 0.982857 0.311238 0.347970
  C 2.376210 0.082370 0.293509
  H 2.985536 0.413427 1.141376
  C 3.081336 -0.216722 -0.890684
  C 4.459125 -0.410850 -0.925920
  C 5.125693 -0.744160 -2.078808
  H 4.595481 -0.867957 -3.019365
  O 6.405530 -0.953782 -2.188647
  H 0.513996 0.719005 1.232940
  H 1.483730 -0.805176 0.696858
  H 0.381995 0.201082 -0.543220
  H 2.520803 -0.334119 -1.819866
  H 5.023905 -0.281273 -0.014417
  H 6.896313 -0.851286 -1.338049
 14
 31.916752
  C 0.972728 0.429850 0.333429
  C 2.345659 0.011145 0.329395
  H 2.963456 0.321004 1.170705
  C 3.058043 -0.293372 -0.881015
  C 4.433021 -0.434499 -0.924576
  C 5.103449 -0.749160 -2.085460
  H 4.569470 -0.905148 -3.014600
  O 6.398991 -0.889453 -2.213258
  H 0.514673 0.788569 1.235647
  H 1.772459 -0.932963 0.657309
  H 0.370974 0.367738 -0.556491
  H 2.489635 -0.437269 -1.788087
  H 5.003936 -0.280242 -0.017817
  H 6.892721 -0.752791 -1.382683
 14
 31.100927
  C 0.966887 0.454219 0.340785
  C 2.326790 -0.015293 0.358515
  H 2.938861 0.317346 1.195403
  C 3.048970 -0.292856 -0.870912
  C 4.418280 -0.438336 -0.921347
  C 5.080400 -0.738678 -2.094742
  H 4.535671 -0.880921 -3.019585
  O 6.368610 -0.873258 -2.236219
  H 0.505555 0.819505 1.238702
  H 1.921967 -1.027027 0.654375
  H 0.372521 0.397417 -0.554868
  H 2.473182 -0.418392 -1.775728
  H 4.995799 -0.297817 -0.017623
  H 6.876003 -0.747813 -1.409856
 14
 30.070798
  C 0.968300 0.478469 0.317644
  C 2.305377 -0.057271 0.377040
  H 2.914096 0.346519 1.186792
  C 3.040848 -0.311446 -0.858982
  C 4.404183 -0.461958 -0.908418
  C 5.067658 -0.728410 -2.094450
  H 4.517988 -0.848713 -3.021083
  O 6.349672 -0.845574 -2.242823
  H 0.495680 0.856475 1.197493
  H 2.057197 -1.097151 0.707146
  H 0.397828 0.435091 -0.590914
  H 2.464067 -0.419789 -1.765044
  H 4.981401 -0.348495 -0.002313
  H 6.865201 -0.739650 -1.415188
 14
 29.922469
  C 0.965219 0.476318 0.316722
  C 2.303652 -0.057459 0.376726
  H 2.912703 0.355452 1.184066
  C 3.040452 -0.310458 -0.860558
  C 4.404431 -0.462735 -0.909361
  C 5.067824 -0.728322 -2.094672
  H 4.518307 -0.846178 -3.021609
  O 6.351395 -0.848294 -2.242606
  H 0.485555 0.845544 1.202998
  H 2.070169 -1.095021 0.717932
  H 0.397976 0.442349 -0.596066
  H 2.463842 -0.415737 -1.768910
  H 4.982456 -0.352028 -0.001041
  H 6.865516 -0.745334 -1.416723
