19
 0
 C 0.97876649 -1.92479745 1.24602795
 C -0.47665886 -2.37019781 1.31962929
 C -0.91020911 -2.50948026 2.77797839
 C -1.48513710 -1.49258385 0.57627197
 C -1.07045359 -0.18874969 -0.05622140
 O -2.66945728 -1.84087619 0.50674038
 H 1.63031791 -2.64975913 1.74613081
 H 1.12864791 -0.95463480 1.73210031
 H 1.31464662 -1.84460975 0.20688195
 H -0.53635787 -3.35674368 0.84146598
 H -0.90101977 -1.53977242 3.28760890
 H -0.24499045 -3.18924815 3.32102573
 H -1.92689111 -2.91073681 2.85149094
 H 0.00000000 0.00000000 0.00000000
 H -1.58937679 0.63075390 0.44815150
 H -1.35098382 -0.20854928 -1.11336424
 O 2.80000000 0.00000000 0.00000000
 H 3.52318977 0.64263783 0.05458952
 H 3.25036323 -0.84956671 -0.11985406
