 19
 0.000000
  C 0.982296 -1.927126 1.229356
  C -0.446404 -2.367075 1.325074
  C -0.937840 -2.477344 2.756311
  C -1.514357 -1.501413 0.584073
  C -1.043438 -0.228687 -0.025002
  O -2.651636 -1.857017 0.554128
  H 1.621090 -2.657204 1.726864
  H 1.156244 -0.977045 1.733133
  H 1.316121 -1.850283 0.197806
  H -0.544967 -3.340591 0.821416
  H -0.920456 -1.518217 3.272076
  H -0.282685 -3.150140 3.306886
  H -1.956385 -2.859576 2.790876
  H 0.026083 -0.056244 0.014554
  H -1.565338 0.579589 0.489398
  H -1.372926 -0.232666 -1.064750
  O 2.819122 0.008263 -0.005665
  H 3.500935 0.683980 0.062883
  H 3.278937 -0.828120 -0.142763
 19
 -0.974646
  C 0.995228 -1.984188 1.251776
  C -0.437793 -2.394358 1.348195
  C -0.971924 -2.439042 2.763621
  C -1.496104 -1.513101 0.557918
  C -0.980732 -0.256349 -0.031709
  O -2.625534 -1.876639 0.511497
  H 1.606239 -2.747512 1.739490
  H 1.203984 -1.053727 1.777383
  H 1.338372 -1.914918 0.223156
  H -0.587703 -3.354272 0.832708
  H -0.908101 -1.470227 3.258690
  H -0.349562 -3.120414 3.345902
  H -2.004354 -2.780215 2.790814
  H 0.087846 -0.086259 0.028284
  H -1.511731 0.554153 0.472513
  H -1.303613 -0.242059 -1.074460
  O 2.763750 0.050332 -0.051267
  H 3.375971 0.788975 0.025234
  H 3.290683 -0.737324 -0.219614
 19
 -1.037383
  C 0.996226 -1.985232 1.281328
  C -0.439162 -2.391054 1.363225
  C -0.987594 -2.439944 2.772314
  C -1.482764 -1.508214 0.561867
  C -0.950069 -0.261076 -0.035833
  O -2.616586 -1.858825 0.506493
  H 1.604107 -2.743037 1.779956
  H 1.198739 -1.051240 1.802575
  H 1.341633 -1.920374 0.253491
  H -0.581974 -3.352348 0.848216
  H -0.931263 -1.472716 3.270411
  H -0.372153 -3.122696 3.359116
  H -2.020285 -2.779736 2.785877
  H 0.117098 -0.103455 0.053798
  H -1.487712 0.560440 0.443560
  H -1.246360 -0.263130 -1.086443
  O 2.724586 0.066785 -0.085108
  H 3.340630 0.803296 -0.048651
  H 3.249518 -0.730550 -0.208568
 19
 -1.347669
  C 1.002458 -2.027815 1.271856
  C -0.440504 -2.406284 1.356091
  C -0.983874 -2.462634 2.766473
  C -1.469734 -1.488925 0.571029
  C -0.908649 -0.245328 -0.006959
  O -2.610097 -1.816279 0.512883
  H 1.598712 -2.807283 1.750784
  H 1.226059 -1.108166 1.809707
  H 1.340637 -1.949602 0.242578
  H -0.607329 -3.355732 0.826791
  H -0.902858 -1.504124 3.277845
  H -0.380791 -3.167128 3.340547
  H -2.023560 -2.780179 2.780964
  H 0.161789 -0.119113 0.091540
  H -1.427883 0.581447 0.483043
  H -1.200889 -0.224921 -1.058324
  O 2.649941 0.110248 -0.097547
  H 3.236865 0.870307 -0.065957
  H 3.203374 -0.665300 -0.234712
 19
 -1.802142
  C 1.011014 -2.082510 1.275007
  C -0.440854 -2.424296 1.361584
  C -0.988330 -2.445665 2.771171
  C -1.446025 -1.489052 0.562942
  C -0.852285 -0.258837 -0.009321
  O -2.591051 -1.796596 0.494039
  H 1.586104 -2.875413 1.758064
  H 1.257630 -1.165644 1.807201
  H 1.351353 -2.020787 0.245292
  H -0.631970 -3.375489 0.844307
  H -0.879533 -1.483164 3.269543
  H -0.406439 -3.159789 3.355444
  H -2.036251 -2.734412 2.789151
  H 0.219841 -0.157882 0.103427
  H -1.358503 0.579802 0.473878
  H -1.130619 -0.233291 -1.064262
  O 2.555470 0.154891 -0.091746
  H 3.088688 0.953688 -0.068183
  H 3.156075 -0.580534 -0.249188
 19
 -2.291184
  C 1.023573 -2.167511 1.267563
  C -0.440751 -2.449859 1.362626
  C -0.986466 -2.405389 2.772994
  C -1.409898 -1.495861 0.543020
  C -0.780117 -0.276833 -0.012836
  O -2.559125 -1.780746 0.450095
  H 1.563556 -2.977810 1.762710
  H 1.308910 -1.253095 1.783717
  H 1.366889 -2.141117 0.237462
  H -0.668985 -3.408970 0.876915
  H -0.832095 -1.434806 3.242401
  H -0.437129 -3.129550 3.376248
  H -2.045899 -2.647348 2.801629
  H 0.292971 -0.197923 0.119823
  H -1.275464 0.570874 0.465733
  H -1.035873 -0.241091 -1.073008
  O 2.425177 0.210021 -0.045030
  H 2.878776 1.056772 -0.027455
  H 3.078655 -0.462038 -0.261124
 19
 -1.596128
  C 1.052059 -2.293346 1.256339
  C -0.431678 -2.477110 1.348082
  C -0.963724 -2.339748 2.763826
  C -1.335659 -1.505390 0.510113
  C -0.690291 -0.270564 0.003727
  O -2.487569 -1.756542 0.348414
  H 1.524324 -3.113574 1.806624
  H 1.393444 -1.370414 1.726589
  H 1.416084 -2.352993 0.232640
  H -0.705501 -3.456067 0.930673
  H -0.732555 -1.365612 3.192521
  H -0.476320 -3.088123 3.389339
  H -2.039584 -2.495670 2.803561
  H 0.387870 -0.193576 0.162644
  H -1.181149 0.565098 0.506022
  H -0.914878 -0.194859 -1.059906
  O 2.217549 0.246593 0.042117
  H 2.559616 1.141855 0.006068
  H 2.881361 -0.351460 -0.307256
 19
 0.789301
  C 1.058868 -2.331889 1.254293
  C -0.432346 -2.486561 1.347342
  C -0.950962 -2.340814 2.772526
  C -1.288433 -1.510482 0.517396
  C -0.656079 -0.260492 -0.004599
  O -2.450989 -1.701730 0.322694
  H 1.524114 -3.145215 1.812486
  H 1.403240 -1.403992 1.707717
  H 1.412218 -2.397451 0.227836
  H -0.718482 -3.471367 0.951067
  H -0.709658 -1.364807 3.188675
  H -0.479121 -3.096651 3.398002
  H -2.030284 -2.473302 2.812716
  H 0.422593 -0.178466 0.167054
  H -1.139146 0.582187 0.493029
  H -0.860771 -0.192560 -1.071764
  O 2.152543 0.249458 0.107359
  H 2.434283 1.160151 -0.025365
  H 2.784225 -0.348962 -0.298702
 19
 4.702171
  C 1.056406 -2.348988 1.275286
  C -0.442318 -2.493339 1.369028
  C -0.958983 -2.372487 2.803721
  C -1.226732 -1.503087 0.537774
  C -0.598150 -0.269103 -0.043858
  O -2.400693 -1.603452 0.310865
  H 1.526489 -3.182931 1.795209
  H 1.399323 -1.431391 1.746148
  H 1.370295 -2.391713 0.237863
  H -0.728277 -3.480249 0.979044
  H -0.707946 -1.404284 3.230393
  H -0.498000 -3.144269 3.414178
  H -2.038897 -2.497930 2.838658
  H 0.506631 -0.152047 0.124462
  H -1.036602 0.601704 0.449371
  H -0.798356 -0.207914 -1.111376
  O 2.077055 0.259707 0.130063
  H 2.289756 1.182248 -0.049226
  H 2.677844 -0.334402 -0.333572
 19
 9.040681
  C 1.062600 -2.406352 1.274181
  C -0.448349 -2.513900 1.364990
  C -0.946222 -2.360494 2.810746
  C -1.177028 -1.508736 0.529538
  C -0.555347 -0.271622 -0.034008
  O -2.355475 -1.567961 0.251041
  H 1.515804 -3.244396 1.797373
  H 1.412408 -1.495385 1.750303
  H 1.375526 -2.449000 0.236922
  H -0.773190 -3.497873 1.005351
  H -0.651362 -1.397509 3.219120
  H -0.513781 -3.143768 3.425698
  H -2.029753 -2.442440 2.856990
  H 0.636108 -0.104600 0.141404
  H -0.973743 0.612401 0.448366
  H -0.690518 -0.219138 -1.112484
  O 1.971857 0.273978 0.187729
  H 2.087927 1.199164 -0.066871
  H 2.529196 -0.294730 -0.358924
 19
 12.262605
  C 1.054227 -2.404975 1.282874
  C -0.459954 -2.521758 1.367427
  C -0.957601 -2.380678 2.815681
  C -1.181388 -1.503757 0.540684
  C -0.554098 -0.282625 -0.031946
  O -2.369124 -1.556420 0.276220
  H 1.511223 -3.240774 1.805762
  H 1.393301 -1.493278 1.763037
  H 1.364106 -2.447475 0.245378
  H -0.784228 -3.501806 0.999322
  H -0.667198 -1.418075 3.228750
  H -0.523380 -3.165744 3.427666
  H -2.041113 -2.467173 2.860595
  H 0.807661 -0.045067 0.139065
  H -0.940095 0.614196 0.448421
  H -0.662574 -0.237106 -1.112026
  O 1.937289 0.292279 0.159599
  H 2.038390 1.219007 -0.124814
  H 2.511215 -0.291132 -0.364228
 19
 12.460845
  C 1.050522 -2.418325 1.271902
  C -0.465455 -2.526669 1.364700
  C -0.951083 -2.374453 2.815867
  C -1.189013 -1.508677 0.537708
  C -0.558490 -0.293706 -0.039125
  O -2.379822 -1.561258 0.280512
  H 1.503761 -3.257957 1.791676
  H 1.396949 -1.509949 1.753254
  H 1.359401 -2.460827 0.233022
  H -0.797832 -3.507142 1.004935
  H -0.653180 -1.410659 3.220578
  H -0.515625 -3.157575 3.429520
  H -2.034581 -2.455865 2.869692
  H 0.848464 -0.056012 0.124904
  H -0.931926 0.607570 0.440920
  H -0.666129 -0.249689 -1.118971
  O 1.932966 0.293806 0.175583
  H 2.012175 1.229521 -0.091318
  H 2.521269 -0.264009 -0.366879
 19
 12.035864
  C 1.050938 -2.437596 1.263991
  C -0.462247 -2.530815 1.363843
  C -0.943173 -2.353930 2.813777
  C -1.177166 -1.516038 0.530139
  C -0.543267 -0.297893 -0.042459
  O -2.364717 -1.561946 0.259979
  H 1.498861 -3.278441 1.787950
  H 1.410472 -1.528622 1.736702
  H 1.356233 -2.490614 0.224706
  H -0.804300 -3.512177 1.017892
  H -0.631035 -1.388690 3.206197
  H -0.515921 -3.136229 3.436389
  H -2.027588 -2.420753 2.870864
  H 0.786699 -0.085015 0.102513
  H -0.920116 0.597811 0.447795
  H -0.667598 -0.246481 -1.121628
  O 1.924007 0.294545 0.197163
  H 1.986834 1.238585 -0.032037
  H 2.525457 -0.227574 -0.365295
