 22
 0.000000
  H 1.556226 0.156136 0.442812
  C 2.638616 0.136637 0.393634
  C 3.355324 0.612837 1.576376
  C 2.453322 1.071451 2.716919
  C 3.265231 1.553860 3.915166
  C 3.211557 -0.331848 -0.771890
  C 4.592104 -0.422368 -0.997299
  C 5.166994 -0.887524 -2.158673
  C 4.489271 -1.364299 -3.352167
  H 3.406208 -1.339323 -3.292945
  H 6.250848 -0.904844 -2.199868
  H 4.030081 1.432659 1.289848
  H 4.030751 -0.176443 1.937328
  H 1.808140 0.248389 3.030656
  H 1.807595 1.882137 2.373318
  H 3.897995 0.759344 4.303459
  H 2.604327 1.875822 4.715861
  H 3.897399 2.396303 3.644775
  H 2.544980 -0.648597 -1.560328
  H 5.255870 -0.105808 -0.206362
  H 4.828174 -2.380660 -3.576161
  H 4.829977 -0.783566 -4.215051
 22
 14.184462
  H 1.516654 0.184328 0.513455
  C 2.595016 0.167296 0.470414
  C 3.317986 0.637721 1.638573
  C 2.425444 1.099188 2.785994
  C 3.250329 1.578217 3.975362
  C 3.222826 -0.344829 -0.803666
  C 4.584165 -0.427528 -1.009593
  C 5.216128 -0.936515 -2.280612
  C 4.532561 -1.408540 -3.462977
  H 3.450082 -1.381037 -3.397940
  H 6.295453 -0.950830 -2.313915
  H 3.993415 1.454229 1.346640
  H 3.994174 -0.152846 1.993365
  H 1.780477 0.278310 3.105444
  H 1.779906 1.912130 2.447896
  H 3.883841 0.780974 4.357428
  H 2.598298 1.902741 4.782200
  H 3.883169 2.418294 3.698374
  H 2.553727 -0.659712 -1.587469
  H 5.249655 -0.112552 -0.222344
  H 4.868041 -2.425377 -3.688435
  H 4.870155 -0.828360 -4.327095
 22
 42.928066
  H 1.440451 0.176612 0.496387
  C 2.517064 0.182416 0.509782
  C 3.270151 0.644821 1.656830
  C 2.406604 1.116796 2.829950
  C 3.273235 1.587051 3.995748
  C 3.228020 -0.368936 -0.861548
  C 4.555654 -0.414592 -0.975401
  C 5.272997 -0.961927 -2.342541
  C 4.566111 -1.425079 -3.505066
  H 3.483040 -1.387300 -3.418710
  H 6.348172 -0.952517 -2.315162
  H 3.951146 1.452945 1.349640
  H 3.952325 -0.149896 1.994972
  H 1.763552 0.302799 3.171500
  H 1.762614 1.939685 2.512135
  H 3.908470 0.781789 4.359017
  H 2.649006 1.919471 4.821755
  H 3.907300 2.420047 3.698904
  H 2.539410 -0.675702 -1.625016
  H 5.237988 -0.107478 -0.207133
  H 4.885491 -2.446191 -3.736708
  H 4.888458 -0.843989 -4.375373
 22
 77.438658
  H 1.386798 0.203361 0.562264
  C 2.464338 0.213856 0.587484
  C 3.226976 0.668844 1.716645
  C 2.379435 1.144394 2.898776
  C 3.262266 1.610225 4.054041
  C 3.232780 -0.380918 -0.892789
  C 4.554844 -0.419222 -0.988585
  C 5.329235 -1.010350 -2.463711
  C 4.612207 -1.467382 -3.609572
  H 3.529773 -1.424625 -3.510047
  H 6.407511 -0.995932 -2.423940
  H 3.910107 1.474833 1.400456
  H 3.911123 -0.130725 2.046596
  H 1.736809 0.333574 3.246145
  H 1.735970 1.969172 2.587483
  H 3.897397 0.802379 4.409384
  H 2.649640 1.945414 4.887053
  H 3.896309 2.439554 3.749882
  H 2.530693 -0.683709 -1.646551
  H 5.250209 -0.115769 -0.230659
  H 4.925911 -2.492806 -3.845455
  H 4.928579 -0.886730 -4.486314
 22
 111.083972
  H 1.330741 0.216041 0.595359
  C 2.401973 0.239223 0.651848
  C 3.175486 0.681980 1.749500
  C 2.356859 1.165421 2.950482
  C 3.268296 1.623148 4.084354
  C 3.243435 -0.398276 -0.932623
  C 4.546687 -0.416119 -0.976697
  C 5.384464 -1.047159 -2.554880
  C 4.650202 -1.489447 -3.667493
  H 3.569978 -1.436633 -3.542792
  H 6.456668 -1.021702 -2.486651
  H 3.865139 1.478862 1.420301
  H 3.866318 -0.119676 2.064267
  H 1.712674 0.361065 3.309269
  H 1.711564 1.993077 2.651502
  H 3.903876 0.810001 4.425886
  H 2.675910 1.963405 4.929600
  H 3.902454 2.446677 3.766101
  H 2.521786 -0.692698 -1.665638
  H 5.263817 -0.123006 -0.242031
  H 4.950482 -2.518499 -3.912397
  H 4.953616 -0.910987 -4.552084
 22
 141.647062
  H 1.266803 0.224762 0.615216
  C 2.334862 0.260647 0.703289
  C 3.131971 0.703106 1.801221
  C 2.332372 1.193134 3.020324
  C 3.270170 1.644036 4.138058
  C 3.255622 -0.417480 -0.984528
  C 4.535421 -0.414714 -0.977176
  C 5.442772 -1.086290 -2.652923
  C 4.693425 -1.525830 -3.755797
  H 3.620740 -1.467336 -3.615870
  H 6.505661 -1.048414 -2.554263
  H 3.818926 1.493649 1.461243
  H 3.820379 -0.101447 2.103170
  H 1.690216 0.389727 3.388213
  H 1.688862 2.026405 2.729377
  H 3.906398 0.825048 4.467660
  H 2.695268 1.988550 4.995137
  H 3.904737 2.464017 3.807697
  H 2.514886 -0.701940 -1.693078
  H 5.273596 -0.130953 -0.267496
  H 4.981683 -2.552622 -4.004244
  H 4.984715 -0.953438 -4.642684
 22
 167.682545
  H 1.215076 0.243726 0.661643
  C 2.276232 0.287932 0.771172
  C 3.084788 0.723934 1.853716
  C 2.307767 1.218888 3.084205
  C 3.266755 1.661513 4.182189
  C 3.270653 -0.433692 -1.025798
  C 4.531715 -0.412150 -0.972462
  C 5.501334 -1.123299 -2.745968
  C 4.734434 -1.563089 -3.847880
  H 3.664125 -1.499767 -3.694389
  H 6.558616 -1.075118 -2.622598
  H 3.771304 1.511914 1.501750
  H 3.772224 -0.087439 2.145557
  H 1.667999 0.419702 3.460088
  H 1.667244 2.055054 2.801765
  H 3.901927 0.837908 4.500542
  H 2.708757 2.009804 5.048006
  H 3.900937 2.476587 3.840623
  H 2.504483 -0.705875 -1.703787
  H 5.296850 -0.139392 -0.292069
  H 5.012078 -2.595594 -4.100226
  H 5.014586 -0.989904 -4.742139
 22
 188.742995
  H 1.160784 0.269197 0.725048
  C 2.224960 0.316624 0.842869
  C 3.042719 0.749969 1.918945
  C 2.279415 1.249645 3.160472
  C 3.254472 1.688349 4.249027
  C 3.281566 -0.449593 -1.065218
  C 4.530448 -0.420147 -0.992684
  C 5.556429 -1.172969 -2.870209
  C 4.786363 -1.608061 -3.959919
  H 3.718111 -1.541463 -3.797737
  H 6.613895 -1.120460 -2.736434
  H 3.727000 1.532706 1.561069
  H 3.727639 -0.061921 2.203105
  H 1.639442 0.451968 3.543100
  H 1.639071 2.089642 2.883700
  H 3.889483 0.861460 4.560665
  H 2.707185 2.039497 5.121370
  H 3.888907 2.500785 3.900318
  H 2.498119 -0.715839 -1.728031
  H 5.311429 -0.153518 -0.327964
  H 5.056331 -2.638851 -4.212559
  H 5.058597 -1.036383 -4.853337
 22
 203.073796
  H 1.115145 0.303927 0.811791
  C 2.182379 0.346284 0.917447
  C 2.971774 0.777504 1.988234
  C 2.244682 1.284880 3.248666
  C 3.244708 1.713872 4.312552
  C 3.310630 -0.469168 -1.115421
  C 4.530963 -0.425937 -1.008702
  C 5.608056 -1.214940 -2.974608
  C 4.840041 -1.658361 -4.084755
  H 3.762014 -1.593636 -3.928159
  H 6.670144 -1.161094 -2.836818
  H 3.657721 1.555937 1.619846
  H 3.658676 -0.038360 2.261706
  H 1.607506 0.492854 3.643968
  H 1.607046 2.129542 2.984747
  H 3.878429 0.881875 4.610348
  H 2.720656 2.069523 5.195876
  H 3.877729 2.520397 3.950121
  H 2.488325 -0.718633 -1.736586
  H 5.348682 -0.175054 -0.383413
  H 5.113881 -2.695243 -4.339218
  H 5.116663 -1.083937 -4.983849
 22
 207.282307
  H 1.066483 0.352045 0.933560
  C 2.143573 0.374783 0.991814
  C 2.907813 0.812344 2.077958
  C 2.205736 1.327772 3.352745
  C 3.225846 1.750691 4.402206
  C 3.317232 -0.494566 -1.172878
  C 4.524454 -0.443800 -1.047660
  C 5.639533 -1.270120 -3.114117
  C 4.915749 -1.711086 -4.219170
  H 3.830997 -1.655741 -4.083050
  H 6.710716 -1.231689 -3.017108
  H 3.596271 1.581752 1.685194
  H 3.595252 -0.014878 2.329700
  H 1.568935 0.541568 3.758070
  H 1.570896 2.176171 3.097972
  H 3.857416 0.914807 4.691398
  H 2.719424 2.111490 5.294001
  H 3.859102 2.551727 4.029941
  H 2.467814 -0.723015 -1.742308
  H 5.368265 -0.211916 -0.470972
  H 5.214715 -2.743904 -4.475995
  H 5.216207 -1.139381 -5.116171
 22
 209.662145
  H 1.029701 0.395034 1.041047
  C 2.110654 0.408499 1.076405
  C 2.864494 0.847778 2.166524
  C 2.171769 1.364331 3.442988
  C 3.197673 1.784843 4.486743
  C 3.331725 -0.509856 -1.209561
  C 4.529756 -0.455731 -1.075862
  C 5.689201 -1.323961 -3.248723
  C 4.972400 -1.769760 -4.366282
  H 3.889098 -1.719683 -4.242744
  H 6.764959 -1.293016 -3.171040
  H 3.554326 1.610584 1.768851
  H 3.552828 0.021680 2.410570
  H 1.534399 0.578794 3.851823
  H 1.536748 2.214990 3.190759
  H 3.829150 0.946927 4.773156
  H 2.696371 2.147103 5.381277
  H 3.831293 2.584934 4.110896
  H 2.455939 -0.730638 -1.760016
  H 5.398159 -0.231048 -0.517380
  H 5.281124 -2.796485 -4.624429
  H 5.282308 -1.202765 -5.259762
 22
 211.151704
  H 0.989166 0.433353 1.136792
  C 2.071686 0.441014 1.158005
  C 2.824885 0.880929 2.249417
  C 2.140539 1.398503 3.527179
  C 3.172883 1.816186 4.564260
  C 3.340720 -0.525280 -1.246820
  C 4.534964 -0.465771 -1.099633
  C 5.739015 -1.376694 -3.380847
  C 5.027504 -1.822213 -4.497842
  H 3.943025 -1.774340 -4.379130
  H 6.818039 -1.350696 -3.316116
  H 3.518242 1.639629 1.845869
  H 3.516291 0.053413 2.486874
  H 1.503357 0.614776 3.938805
  H 1.506246 2.250052 3.277748
  H 3.803497 0.977053 4.847356
  H 2.677317 2.179663 5.460840
  H 3.806228 2.614324 4.184993
  H 2.455987 -0.735223 -1.770292
  H 5.413299 -0.251362 -0.566905
  H 5.342191 -2.847326 -4.757858
  H 5.343091 -1.257196 -5.391522
 22
 212.077549
  H 0.950334 0.468682 1.224999
  C 2.032713 0.472908 1.238008
  C 2.787431 0.912550 2.328605
  C 2.110186 1.432094 3.609972
  C 3.149773 1.847601 4.642029
  C 3.352743 -0.540359 -1.283835
  C 4.540485 -0.474678 -1.121372
  C 5.791104 -1.428332 -3.510413
  C 5.080509 -1.873562 -4.626518
  H 3.997707 -1.826678 -4.509712
  H 6.868201 -1.405200 -3.453312
  H 3.482977 1.666367 1.920652
  H 3.480515 0.085166 2.560016
  H 1.472661 0.649441 4.024572
  H 1.476138 2.285220 3.362924
  H 3.780075 1.006616 4.922334
  H 2.659048 2.212630 5.541437
  H 3.783403 2.644559 4.259284
  H 2.448648 -0.742526 -1.787782
  H 5.437435 -0.268129 -0.608510
  H 5.397454 -2.896447 -4.888169
  H 5.398053 -1.311137 -5.519749
 22
 212.458122
  H 0.909872 0.503649 1.312766
  C 1.993010 0.505113 1.319474
  C 2.749956 0.943984 2.407552
  C 2.080841 1.465443 3.691864
  C 3.127025 1.878286 4.717126
  C 3.364319 -0.555435 -1.319081
  C 4.547828 -0.483366 -1.140438
  C 5.844202 -1.479242 -3.637900
  C 5.131776 -1.923320 -4.752490
  H 4.048277 -1.876137 -4.634900
  H 6.923315 -1.458452 -3.586509
  H 3.448070 1.693817 1.994703
  H 3.445099 0.115854 2.633387
  H 1.443587 0.684512 4.109532
  H 1.447585 2.319650 3.447453
  H 3.756463 1.036007 4.994254
  H 2.642034 2.244711 5.618618
  H 3.760337 2.673323 4.330734
  H 2.451513 -0.747535 -1.798171
  H 5.454736 -0.286816 -0.652263
  H 5.449471 -2.945715 -5.016707
  H 5.450192 -1.362301 -5.646824
