 23
 0.000000
  H 1.424303 0.161925 0.455637
  C 2.502721 0.147504 0.418895
  C 3.257340 0.618003 1.588383
  C 2.400769 1.087499 2.757048
  H 3.029113 1.416826 3.575855
  C 3.072967 -0.321822 -0.749316
  C 4.448328 -0.412810 -0.977057
  C 5.119959 -0.868043 -2.112557
  C 4.603026 -1.386646 -3.405851
  C 3.110442 -1.494842 -3.676300
  H 2.963088 -1.894465 -4.672819
  O 6.434747 -0.866468 -2.109203
  H 3.918428 1.437024 1.280627
  H 3.919082 -0.185594 1.933021
  H 1.762513 0.282452 3.114906
  H 1.762012 1.915926 2.458322
  H 2.393430 -0.632926 -1.523236
  H 5.089449 -0.087076 -0.166093
  H 5.061825 -2.373802 -3.537052
  H 5.062249 -0.764016 -4.182810
  H 2.632226 -0.519654 -3.631932
  H 2.631934 -2.169044 -2.970493
  H 6.836727 -0.535715 -1.283011
 23
 15.899695
  H 1.450702 0.191704 0.530076
  C 2.530924 0.155176 0.438290
  C 3.305831 0.624489 1.604270
  C 2.437692 1.090692 2.764657
  H 3.057444 1.424389 3.594199
  C 3.045603 -0.319679 -0.743718
  C 4.470871 -0.432236 -1.025185
  C 5.036618 -0.882227 -2.148388
  C 4.611195 -1.407267 -3.458177
  C 3.134444 -1.524934 -3.751014
  H 3.011427 -1.926596 -4.753009
  O 6.284630 -0.795521 -1.932590
  H 3.969360 1.441396 1.296342
  H 3.970204 -0.177525 1.947380
  H 1.800167 0.284965 3.120199
  H 1.799601 1.917951 2.463710
  H 2.346815 -0.628544 -1.512852
  H 5.091962 -0.104963 -0.207787
  H 5.088653 -2.380372 -3.568088
  H 5.088462 -0.779673 -4.210018
  H 2.645541 -0.555445 -3.720721
  H 2.645873 -2.205325 -3.059391
  H 6.596220 -0.453396 -1.076553
 23
 59.634883
  H 1.449758 0.202722 0.560733
  C 2.528532 0.158000 0.445979
  C 3.319305 0.625129 1.603171
  C 2.462096 1.093797 2.772403
  H 3.090787 1.426939 3.597518
  C 3.017478 -0.316377 -0.734854
  C 4.535622 -0.444133 -1.053807
  C 4.999171 -0.895647 -2.180950
  C 4.628003 -1.425829 -3.504954
  C 3.147477 -1.541259 -3.792851
  H 3.011953 -1.942184 -4.794077
  O 6.188958 -0.752527 -1.823992
  H 3.978282 1.443421 1.289738
  H 3.981647 -0.179841 1.942902
  H 1.826862 0.289419 3.134559
  H 1.823668 1.922813 2.477548
  H 2.331577 -0.623942 -1.500474
  H 5.076433 -0.100368 -0.194283
  H 5.111561 -2.397569 -3.601164
  H 5.111718 -0.789477 -4.245554
  H 2.663531 -0.571412 -3.754179
  H 2.663762 -2.216564 -3.095543
  H 6.476875 -0.409828 -0.960848
 23
 113.089581
  H 1.435012 0.173139 0.637558
  C 2.504893 0.179446 0.454964
  C 3.324635 0.674401 1.592855
  C 2.486506 1.079066 2.796464
  H 3.127714 1.425783 3.605098
  C 2.900579 -0.260322 -0.709718
  C 4.633420 -0.447399 -1.079148
  C 4.948367 -0.928889 -2.219092
  C 4.638623 -1.454515 -3.532184
  C 3.155716 -1.559015 -3.849399
  H 3.038089 -1.964425 -4.847967
  O 6.179186 -0.729054 -1.751431
  H 3.926866 1.536385 1.270233
  H 4.019388 -0.116642 1.897311
  H 1.899768 0.235304 3.166127
  H 1.802721 1.888121 2.537901
  H 2.266724 -0.559353 -1.513614
  H 5.027512 -0.118405 -0.137083
  H 5.122583 -2.437385 -3.601997
  H 5.152002 -0.816254 -4.267006
  H 2.684097 -0.585944 -3.826461
  H 2.653404 -2.222618 -3.157107
  H 6.512532 -0.439301 -0.887483
 23
 140.592705
  H 1.333510 0.248121 0.702177
  C 2.403237 0.188044 0.487665
  C 3.289526 0.641465 1.611108
  C 2.486146 1.103481 2.829984
  H 3.159172 1.425799 3.629489
  C 2.734627 -0.264053 -0.680558
  C 4.795622 -0.454397 -1.124933
  C 4.988715 -0.936150 -2.277517
  C 4.669702 -1.468337 -3.587325
  C 3.176357 -1.571019 -3.853661
  H 3.021780 -1.979480 -4.852070
  O 6.269878 -0.703868 -1.771299
  H 3.899661 1.469496 1.258606
  H 3.928633 -0.193957 1.906893
  H 1.868167 0.295090 3.217309
  H 1.843149 1.945402 2.577407
  H 2.141555 -0.581509 -1.502366
  H 5.078271 -0.090046 -0.169676
  H 5.150891 -2.449081 -3.644358
  H 5.157826 -0.815827 -4.313740
  H 2.706614 -0.592704 -3.814563
  H 2.699297 -2.235013 -3.139619
  H 6.664061 -0.442915 -0.918798
 23
 150.895214
  H 1.155590 0.312678 0.828571
  C 2.220581 0.224658 0.538834
  C 3.181466 0.635499 1.623431
  C 2.458102 1.114686 2.879505
  H 3.184622 1.415557 3.644614
  C 2.503427 -0.238302 -0.632345
  C 5.042713 -0.475765 -1.199610
  C 5.093373 -0.968330 -2.364466
  C 4.727453 -1.501383 -3.648899
  C 3.208740 -1.560893 -3.815790
  H 2.981014 -1.962952 -4.799331
  O 6.477261 -0.739521 -1.877815
  H 3.803837 1.448008 1.248574
  H 3.809847 -0.218303 1.881913
  H 1.832226 0.331274 3.294999
  H 1.834272 1.988336 2.659720
  H 1.891639 -0.576701 -1.446656
  H 5.204320 -0.079776 -0.233206
  H 5.184654 -2.493306 -3.721813
  H 5.186561 -0.852275 -4.395046
  H 2.773415 -0.570547 -3.750365
  H 2.761122 -2.205299 -3.075250
  H 6.964523 -0.501670 -1.064679
 23
 151.774065
  H 1.029225 0.397619 0.920055
  C 2.068561 0.271608 0.583281
  C 3.088728 0.617622 1.638038
  C 2.435570 1.111655 2.924408
  H 3.193784 1.360501 3.664455
  C 2.301674 -0.163617 -0.609949
  C 5.239864 -0.451189 -1.294164
  C 5.193670 -0.970118 -2.436986
  C 4.776843 -1.532328 -3.686660
  C 3.251453 -1.575562 -3.766478
  H 2.957842 -2.000280 -4.721843
  O 6.626685 -0.720587 -1.994162
  H 3.724417 1.412421 1.255109
  H 3.695577 -0.259165 1.861006
  H 1.797958 0.341986 3.354964
  H 1.834937 2.001947 2.740052
  H 1.674993 -0.471441 -1.420720
  H 5.327900 -0.138577 -0.280617
  H 5.209516 -2.531051 -3.764273
  H 5.193439 -0.912489 -4.478748
  H 2.833072 -0.570794 -3.689085
  H 2.838694 -2.192258 -2.968171
  H 7.166894 -0.502632 -1.215563
 23
 145.939062
  H 0.914498 0.360122 1.054155
  C 1.925748 0.226008 0.650549
  C 3.007881 0.627351 1.618419
  C 2.436828 1.140415 2.935307
  H 3.237010 1.425144 3.611655
  C 2.096416 -0.200676 -0.557918
  C 5.431228 -0.499079 -1.313898
  C 5.252874 -0.994015 -2.458633
  C 4.821386 -1.520225 -3.705272
  C 3.286757 -1.532135 -3.725017
  H 2.954316 -1.929591 -4.672448
  O 6.761652 -0.729696 -2.045391
  H 3.609089 1.413900 1.164668
  H 3.647383 -0.233641 1.819865
  H 1.840594 0.373568 3.423850
  H 1.805896 2.012252 2.770229
  H 1.465277 -0.495186 -1.367232
  H 5.309620 -0.115244 -0.333639
  H 5.221202 -2.531559 -3.832267
  H 5.217233 -0.897175 -4.511401
  H 2.890977 -0.525131 -3.609607
  H 2.894022 -2.156466 -2.926601
  H 7.384530 -0.721398 -1.290998
 23
 131.510753
  H 0.833279 0.601149 1.087217
  C 1.802312 0.288266 0.681195
  C 2.947600 0.542655 1.635344
  C 2.475025 1.120355 2.960800
  H 3.317345 1.286872 3.624883
  C 1.905300 -0.055081 -0.562805
  C 5.489382 -0.317393 -1.360536
  C 5.287289 -0.959781 -2.455484
  C 4.882013 -1.483302 -3.715382
  C 3.357074 -1.685267 -3.673740
  H 3.028987 -2.077238 -4.634503
  O 6.764222 -0.471455 -2.045921
  H 3.653103 1.234625 1.169297
  H 3.463085 -0.404696 1.825904
  H 1.780431 0.446567 3.452753
  H 1.975557 2.073843 2.807124
  H 1.257893 -0.250559 -1.389336
  H 5.273697 -0.070433 -0.348592
  H 5.375206 -2.440494 -3.900716
  H 5.156361 -0.795671 -4.514752
  H 2.851179 -0.734804 -3.494870
  H 3.075519 -2.382801 -2.896130
  H 7.384974 -0.977905 -1.465915
