 29
 0.000000
  C 0.970157 0.139798 0.406112
  C 2.447554 0.136727 0.396296
  C 3.233683 0.605586 1.562772
  C 2.459230 1.099898 2.780186
  H 3.135977 1.413599 3.560939
  C 3.058338 -0.328144 -0.762076
  C 4.435717 -0.413456 -0.975581
  C 5.116136 -0.863528 -2.099555
  C 4.623612 -1.385571 -3.403685
  C 3.133587 -1.504062 -3.700778
  C 2.914320 -2.065343 -5.103014
  O 6.438361 -0.857748 -2.085068
  H 0.544329 0.504932 1.333603
  H 0.597331 -0.871491 0.238648
  H 0.583992 0.759444 -0.405207
  H 3.892159 1.414618 1.227283
  H 3.887384 -0.212725 1.884901
  H 1.821139 0.308502 3.172040
  H 1.825747 1.944311 2.510579
  H 2.398237 -0.644966 -1.551169
  H 5.053663 -0.082082 -0.149173
  H 5.080933 -2.373619 -3.529254
  H 5.081465 -0.757498 -4.176392
  H 2.657567 -0.524129 -3.647882
  H 2.657075 -2.176549 -2.986396
  H 3.354493 -1.417128 -5.857262
  H 1.850158 -2.147709 -5.309592
  H 3.354019 -3.055185 -5.201521
  H 6.811607 -0.523302 -1.248085
 29
 3.800479
  C 0.994201 0.111306 0.436550
  C 2.425365 0.130993 0.390992
  C 3.223497 0.602615 1.555913
  C 2.449818 1.108770 2.767948
  H 3.143411 1.417952 3.543165
  C 3.037552 -0.331707 -0.770031
  C 4.409366 -0.409780 -0.974234
  C 5.097412 -0.856396 -2.093106
  C 4.608997 -1.379644 -3.398623
  C 3.121257 -1.502700 -3.702000
  C 2.921276 -2.065447 -5.106934
  O 6.418702 -0.845920 -2.072646
  H 0.550412 0.493054 1.349836
  H 0.582439 -0.879939 0.230687
  H 0.790309 0.739060 -0.388182
  H 3.893697 1.400584 1.218242
  H 3.869202 -0.221335 1.879761
  H 1.809135 0.330979 3.177623
  H 1.829989 1.963948 2.507160
  H 2.379334 -0.649493 -1.558872
  H 5.031844 -0.079769 -0.151721
  H 5.074155 -2.364475 -3.522127
  H 5.072414 -0.751391 -4.168096
  H 2.641858 -0.524575 -3.653719
  H 2.643625 -2.177994 -2.991561
  H 3.367735 -1.414753 -5.855156
  H 1.860893 -2.155323 -5.328637
  H 3.369489 -3.051894 -5.199602
  H 6.803923 -0.513476 -1.240993
 29
 8.744689
  C 0.945309 0.064993 0.445086
  C 2.412345 0.113898 0.390257
  C 3.236556 0.592528 1.544884
  C 2.475746 1.118135 2.753792
  H 3.177226 1.414473 3.510829
  C 3.025546 -0.340572 -0.774584
  C 4.405622 -0.406004 -0.978623
  C 5.086795 -0.841941 -2.084530
  C 4.604276 -1.366128 -3.383037
  C 3.118766 -1.498033 -3.682744
  C 2.925599 -2.062767 -5.086825
  O 6.384629 -0.822093 -2.066196
  H 0.475782 0.462183 1.343360
  H 0.491360 -0.887310 0.135472
  H 0.963295 0.740727 -0.381324
  H 3.925720 1.369868 1.205699
  H 3.859771 -0.246540 1.865533
  H 1.827150 0.354782 3.184804
  H 1.875905 1.992225 2.497394
  H 2.370673 -0.665205 -1.565023
  H 5.037038 -0.075336 -0.161523
  H 5.079101 -2.345913 -3.506373
  H 5.066273 -0.736373 -4.151682
  H 2.634595 -0.522083 -3.636398
  H 2.647708 -2.177605 -2.971863
  H 3.370248 -1.408995 -5.833980
  H 1.866574 -2.161667 -5.312632
  H 3.383090 -3.045447 -5.177408
  H 6.771164 -0.490804 -1.244115
 29
 15.807710
  C 0.942952 0.052912 0.495553
  C 2.397584 0.117222 0.406964
  C 3.224542 0.597068 1.553230
  C 2.465427 1.129361 2.761340
  H 3.169000 1.425085 3.522249
  C 3.003555 -0.334343 -0.761669
  C 4.392913 -0.399081 -0.972652
  C 5.084969 -0.840643 -2.095890
  C 4.606324 -1.371328 -3.402747
  C 3.121866 -1.511214 -3.711191
  C 2.937693 -2.079593 -5.115657
  O 6.398752 -0.817128 -2.079675
  H 0.476645 0.431873 1.399950
  H 0.459403 -0.848682 0.112289
  H 1.103904 0.782016 -0.292709
  H 3.920570 1.368112 1.213698
  H 3.834823 -0.252906 1.874100
  H 1.813880 0.370289 3.190896
  H 1.871116 2.004224 2.502090
  H 2.347219 -0.661228 -1.547049
  H 5.025185 -0.067156 -0.154565
  H 5.085644 -2.349560 -3.523188
  H 5.068682 -0.740798 -4.170867
  H 2.633118 -0.537506 -3.670009
  H 2.650576 -2.192284 -3.002127
  H 3.383071 -1.425359 -5.861769
  H 1.880351 -2.183736 -5.346321
  H 3.400168 -3.060193 -5.202220
  H 6.783581 -0.482476 -1.254722
 29
 21.990788
  C 0.941044 0.034990 0.512382
  C 2.394511 0.121394 0.404387
  C 3.218820 0.598643 1.553098
  C 2.460065 1.132160 2.763884
  H 3.174261 1.428695 3.532796
  C 3.006303 -0.332813 -0.773962
  C 4.383893 -0.393472 -0.979192
  C 5.079580 -0.834405 -2.095983
  C 4.604332 -1.371307 -3.405353
  C 3.119408 -1.514964 -3.716196
  C 2.938103 -2.089153 -5.119734
  O 6.407405 -0.806896 -2.076558
  H 0.464214 0.380036 1.408134
  H 0.442242 -0.807305 0.069335
  H 1.226875 0.811472 -0.238700
  H 3.921922 1.367465 1.215315
  H 3.822424 -0.258692 1.874037
  H 1.810252 0.375984 3.192817
  H 1.869258 2.006599 2.508000
  H 2.351641 -0.666373 -1.559399
  H 5.009130 -0.059525 -0.160620
  H 5.085486 -2.349727 -3.521104
  H 5.066810 -0.741485 -4.174559
  H 2.629330 -0.542053 -3.679296
  H 2.648345 -2.194035 -3.005312
  H 3.383767 -1.437122 -5.867447
  H 1.881589 -2.195895 -5.351807
  H 3.402414 -3.069177 -5.201978
  H 6.789232 -0.468937 -1.250486
 29
 26.484328
  C 0.947753 0.015783 0.530451
  C 2.387170 0.119800 0.403635
  C 3.215416 0.603933 1.553970
  C 2.446287 1.133789 2.758037
  H 3.153658 1.439905 3.529748
  C 3.004993 -0.335302 -0.776488
  C 4.395256 -0.395285 -0.988092
  C 5.086832 -0.836176 -2.105967
  C 4.610745 -1.373929 -3.411738
  C 3.124837 -1.517026 -3.714637
  C 2.934971 -2.092599 -5.115570
  O 6.411443 -0.807950 -2.091846
  H 0.469190 0.329048 1.433439
  H 0.423451 -0.757250 -0.004096
  H 1.324047 0.850681 -0.149201
  H 3.913790 1.375516 1.216924
  H 3.816058 -0.252131 1.877031
  H 1.803281 0.372584 3.185768
  H 1.847625 2.000444 2.497058
  H 2.345785 -0.674671 -1.560320
  H 5.025966 -0.059991 -0.170608
  H 5.090494 -2.352195 -3.527345
  H 5.069552 -0.744579 -4.182527
  H 2.636058 -0.543386 -3.675916
  H 2.657610 -2.194845 -2.999871
  H 3.377222 -1.442104 -5.866232
  H 1.877415 -2.198826 -5.341652
  H 3.398238 -3.072746 -5.198965
  H 6.794027 -0.466024 -1.258300
 29
 29.337388
  C 0.943570 0.001715 0.557296
  C 2.380403 0.124388 0.406210
  C 3.211769 0.607060 1.546429
  C 2.458271 1.136428 2.755010
  H 3.177056 1.448852 3.515353
  C 3.000943 -0.336269 -0.780876
  C 4.370574 -0.391927 -0.983059
  C 5.074145 -0.834527 -2.101421
  C 4.610706 -1.376172 -3.413548
  C 3.128162 -1.523451 -3.729173
  C 2.952397 -2.100872 -5.131704
  O 6.399117 -0.803096 -2.079313
  H 0.469226 0.292649 1.478993
  H 0.402594 -0.717496 -0.040345
  H 1.392335 0.889800 -0.066656
  H 3.901368 1.375610 1.202177
  H 3.814156 -0.244637 1.862709
  H 1.824607 0.370833 3.198792
  H 1.850779 2.002823 2.499397
  H 2.345906 -0.678658 -1.559901
  H 4.992367 -0.054954 -0.165191
  H 5.094107 -2.354098 -3.523542
  H 5.074600 -0.745459 -4.181031
  H 2.636591 -0.550486 -3.695233
  H 2.656713 -2.202244 -3.017439
  H 3.399903 -1.449635 -5.878957
  H 1.896916 -2.210297 -5.367462
  H 3.419431 -3.080005 -5.210055
  H 6.768720 -0.464906 -1.255047
 29
 31.552225
  C 0.951775 -0.025522 0.552245
  C 2.378714 0.119714 0.393332
  C 3.213275 0.610407 1.538320
  C 2.447830 1.142343 2.750787
  H 3.163116 1.469327 3.510003
  C 2.999788 -0.341744 -0.788610
  C 4.382876 -0.397306 -0.992626
  C 5.080024 -0.836885 -2.101232
  C 4.613568 -1.376567 -3.410070
  C 3.127988 -1.519478 -3.719998
  C 2.943887 -2.095700 -5.122636
  O 6.414393 -0.806399 -2.079213
  H 0.474836 0.236509 1.484013
  H 0.402552 -0.687509 -0.100024
  H 1.458230 0.906898 -0.017369
  H 3.898180 1.386885 1.187708
  H 3.825640 -0.238954 1.860986
  H 1.823480 0.371152 3.202065
  H 1.827981 2.001037 2.490493
  H 2.341659 -0.686152 -1.566707
  H 5.007971 -0.059506 -0.175105
  H 5.094096 -2.356179 -3.521216
  H 5.076693 -0.746340 -4.178811
  H 2.639444 -0.544577 -3.682803
  H 2.657532 -2.197439 -3.006022
  H 3.390371 -1.445207 -5.871655
  H 1.886768 -2.201792 -5.353969
  H 3.407767 -3.076436 -5.203638
  H 6.789722 -0.464225 -1.242491
 29
 33.226884
  C 0.950244 -0.041477 0.561270
  C 2.370729 0.123490 0.397417
  C 3.219131 0.619691 1.546044
  C 2.461370 1.149299 2.756175
  H 3.185045 1.489585 3.513223
  C 2.993361 -0.343624 -0.788497
  C 4.361246 -0.395472 -0.987255
  C 5.070371 -0.839136 -2.101982
  C 4.614608 -1.379490 -3.412366
  C 3.132567 -1.524515 -3.732259
  C 2.959674 -2.099633 -5.136276
  O 6.398388 -0.807289 -2.074802
  H 0.471984 0.194097 1.493267
  H 0.392453 -0.649467 -0.138276
  H 1.502196 0.920575 0.040510
  H 3.893584 1.397243 1.188413
  H 3.834812 -0.219286 1.867046
  H 1.848445 0.374051 3.216779
  H 1.831157 2.000627 2.496128
  H 2.335630 -0.690748 -1.565069
  H 4.982180 -0.054526 -0.167656
  H 5.097026 -2.357997 -3.519657
  H 5.081747 -0.748392 -4.177607
  H 2.642136 -0.550056 -3.697334
  H 2.658351 -2.204087 -3.021775
  H 3.410559 -1.447727 -5.881396
  H 1.904656 -2.207369 -5.375416
  H 3.426007 -3.079502 -5.214761
  H 6.762942 -0.470001 -1.248858
 29
 34.890738
  C 0.960639 -0.049798 0.573364
  C 2.381704 0.131138 0.401167
  C 3.222438 0.620477 1.538518
  C 2.445818 1.148001 2.752078
  H 3.153366 1.494274 3.505126
  C 3.004962 -0.341853 -0.790119
  C 4.379822 -0.393958 -0.994275
  C 5.078494 -0.835768 -2.095932
  C 4.617171 -1.381292 -3.413627
  C 3.128988 -1.525101 -3.734151
  C 2.952762 -2.101795 -5.140700
  O 6.417395 -0.804157 -2.066985
  H 0.478324 0.176537 1.512819
  H 0.398831 -0.613027 -0.150502
  H 1.552844 0.931618 0.079608
  H 3.893116 1.404800 1.178912
  H 3.847010 -0.220843 1.862691
  H 1.836296 0.363153 3.213149
  H 1.804019 1.995921 2.486797
  H 2.345936 -0.690213 -1.561429
  H 5.001121 -0.053139 -0.181433
  H 5.098868 -2.363323 -3.520275
  H 5.085634 -0.750838 -4.182164
  H 2.639721 -0.549187 -3.699208
  H 2.654108 -2.204126 -3.022675
  H 3.404129 -1.450779 -5.887093
  H 1.896486 -2.208047 -5.379008
  H 3.417487 -3.082745 -5.219419
  H 6.784288 -0.463064 -1.233610
 29
 36.519672
  C 0.947646 -0.071217 0.552714
  C 2.375023 0.133274 0.385871
  C 3.223400 0.621856 1.538662
  C 2.453539 1.145231 2.749533
  H 3.159424 1.493382 3.496106
  C 3.005726 -0.342088 -0.802282
  C 4.377789 -0.389798 -0.998474
  C 5.084570 -0.839002 -2.109479
  C 4.621464 -1.380853 -3.410530
  C 3.142446 -1.517137 -3.714275
  C 2.952626 -2.092074 -5.111810
  O 6.417327 -0.810900 -2.086469
  H 0.454925 0.147730 1.486915
  H 0.393644 -0.602435 -0.192817
  H 1.579599 0.935354 0.078871
  H 3.895376 1.412482 1.179691
  H 3.847955 -0.217558 1.861633
  H 1.856051 0.366611 3.209199
  H 1.814732 1.981186 2.488922
  H 2.346833 -0.695849 -1.582954
  H 5.001951 -0.041062 -0.175462
  H 5.094433 -2.356278 -3.517035
  H 5.083172 -0.758904 -4.177380
  H 2.660212 -0.543207 -3.675571
  H 2.673501 -2.189874 -3.000287
  H 3.400258 -1.443846 -5.862566
  H 1.895522 -2.193699 -5.339757
  H 3.412460 -3.074884 -5.192921
  H 6.788846 -0.468117 -1.251905
 29
 38.004619
  C 0.943945 -0.068104 0.582077
  C 2.371880 0.150524 0.399254
  C 3.230741 0.626418 1.548168
  C 2.469243 1.147117 2.762106
  H 3.182253 1.494918 3.507705
  C 2.995232 -0.331605 -0.794488
  C 4.368018 -0.381982 -0.997610
  C 5.072141 -0.831123 -2.098837
  C 4.618895 -1.383300 -3.416114
  C 3.139471 -1.529365 -3.745034
  C 2.974712 -2.109618 -5.149319
  O 6.404129 -0.799445 -2.064066
  H 0.459040 0.151944 1.517120
  H 0.381373 -0.578431 -0.172839
  H 1.609401 0.955149 0.108959
  H 3.900126 1.411729 1.190020
  H 3.851100 -0.213200 1.863148
  H 1.868700 0.359989 3.227554
  H 1.823359 1.991048 2.504005
  H 2.332529 -0.682815 -1.566001
  H 4.990637 -0.033277 -0.182298
  H 5.099057 -2.361309 -3.514569
  H 5.089242 -0.758789 -4.181558
  H 2.649845 -0.555240 -3.716340
  H 2.661822 -2.206393 -3.035905
  H 3.430773 -1.459841 -5.894289
  H 1.920383 -2.218056 -5.394747
  H 3.441675 -3.090363 -5.221508
  H 6.767461 -0.454097 -1.227058
 29
 39.685623
  C 0.962992 -0.090012 0.547437
  C 2.389727 0.156309 0.376310
  C 3.232160 0.625457 1.541689
  C 2.441769 1.135528 2.744083
  H 3.129133 1.483356 3.497407
  C 3.027341 -0.326838 -0.808074
  C 4.398692 -0.372503 -1.001040
  C 5.104313 -0.827517 -2.103351
  C 4.633519 -1.378833 -3.404187
  C 3.138816 -1.511060 -3.701589
  C 2.938157 -2.093565 -5.097754
  O 6.446461 -0.802938 -2.080297
  H 0.470798 0.126626 1.466903
  H 0.401134 -0.592185 -0.236568
  H 1.656603 0.955292 0.085470
  H 3.900210 1.414609 1.200126
  H 3.858309 -0.223018 1.866581
  H 1.847118 0.351982 3.189139
  H 1.798018 1.966967 2.480282
  H 2.367042 -0.686065 -1.592119
  H 5.012022 -0.024429 -0.193538
  H 5.109776 -2.372076 -3.507604
  H 5.101413 -0.755749 -4.187422
  H 2.657673 -0.529041 -3.665693
  H 2.667423 -2.182484 -2.977653
  H 3.383226 -1.453479 -5.852240
  H 1.880016 -2.191829 -5.319739
  H 3.391753 -3.075673 -5.176195
  H 6.815155 -0.462080 -1.260230
 29
 40.772854
  C 0.945528 -0.096096 0.576846
  C 2.376919 0.170573 0.388656
  C 3.238485 0.631234 1.554141
  C 2.469695 1.142426 2.764032
  H 3.173474 1.487861 3.511423
  C 3.005335 -0.319765 -0.803005
  C 4.374441 -0.370110 -1.002120
  C 5.080888 -0.826901 -2.102547
  C 4.624363 -1.384188 -3.414895
  C 3.145562 -1.525381 -3.737415
  C 2.974197 -2.109754 -5.136622
  O 6.413264 -0.799038 -2.067830
  H 0.455443 0.127645 1.502213
  H 0.383962 -0.575077 -0.201826
  H 1.672029 0.979139 0.105235
  H 3.907346 1.417323 1.207719
  H 3.855285 -0.212745 1.866693
  H 1.870846 0.351075 3.221853
  H 1.821792 1.984590 2.506412
  H 2.338306 -0.674942 -1.580014
  H 4.995061 -0.018258 -0.189663
  H 5.101668 -2.366752 -3.508609
  H 5.096142 -0.763987 -4.185471
  H 2.659102 -0.548918 -3.710758
  H 2.667022 -2.197930 -3.023551
  H 3.429770 -1.465438 -5.885200
  H 1.918784 -2.215174 -5.378029
  H 3.436745 -3.091693 -5.206461
  H 6.776440 -0.452715 -1.237511
