28

C 0.974207 0.139661 0.400006
C 2.453703 0.138582 0.396402
C 3.237667 0.608754 1.565702
C 2.458306 1.098111 2.783709
C 3.40577 1.544111 3.892873
C 3.063474 -0.326113 -0.760314
C 4.44246 -0.412792 -0.976741
C 5.119133 -0.863303 -2.099995
C 4.623831 -1.386278 -3.40425
C 3.13257 -1.503681 -3.698104
H 2.973887998829407 -1.8974935393855463 -4.680260660786457
H 6.189080074516807 -0.8593384570454332 -2.0901187592127526
H 0.527037 0.508474 1.317867
H 0.606077 -0.873661 0.232479
H 0.605575 0.754993 -0.422124
H 3.893295 1.421734 1.233051
H 3.893699 -0.208006 1.888093
H 1.820295 0.300663 3.169794
H 1.81993 1.940714 2.510661
H 4.041911 0.723031 4.217349
H 2.83861 1.890078 4.754076
H 4.041517 2.361621 3.558765
H 2.402873 -0.643203 -1.549309
H 5.060443 -0.080937 -0.150238
H 5.079178 -2.375373 -3.530286
H 5.079665 -0.758648 -4.17875
H 2.657664 -0.523043 -3.644102
H 2.657151 -2.175048 -2.981605
