 26
 0.000000
  H 1.457319 0.160103 0.450134
  C 2.535519 0.147481 0.418214
  C 3.293391 0.617052 1.586576
  C 2.449458 1.090673 2.765722
  C 3.331997 1.554847 3.920585
  C 3.111478 -0.320152 -0.746553
  C 4.484072 -0.417202 -0.988278
  C 5.133052 -0.876619 -2.133749
  C 4.599512 -1.393097 -3.421495
  C 3.103321 -1.495281 -3.677065
  H 2.937497 -1.893885 -4.670835
  O 6.449359 -0.883673 -2.151566
  H 3.953520 1.435849 1.275470
  H 3.953857 -0.189109 1.928361
  H 1.807226 0.280242 3.115310
  H 1.806943 1.917518 2.457493
  H 3.967109 0.746377 4.275717
  H 2.718240 1.889297 4.753345
  H 3.966781 2.384499 3.617508
  H 2.434584 -0.631949 -1.523225
  H 5.131060 -0.093337 -0.181140
  H 5.047841 -2.384040 -3.557065
  H 5.048259 -0.770842 -4.204321
  H 2.630577 -0.517395 -3.625853
  H 2.630174 -2.166476 -2.964332
  H 6.863403 -0.554780 -1.330560
 26
 15.845373
  H 1.625264 0.114500 0.341454
  C 2.707002 0.124373 0.360610
  C 3.371404 0.608905 1.565331
  C 2.423840 1.059405 2.681876
  C 3.200642 1.545197 3.902871
  C 3.372872 -0.339323 -0.795940
  C 4.711488 -0.371002 -0.880752
  C 5.084733 -0.851770 -2.075745
  C 4.449165 -1.350109 -3.312367
  C 2.961023 -1.450078 -3.561924
  H 2.819730 -1.854267 -4.561083
  O 6.438113 -0.936348 -2.286600
  H 4.035953 1.450901 1.318243
  H 4.037497 -0.177907 1.951756
  H 1.776771 0.230915 2.976318
  H 1.783451 1.864822 2.317920
  H 3.827448 0.753337 4.306406
  H 2.515728 1.861627 4.685609
  H 3.834692 2.392022 3.650156
  H 2.721543 -0.662169 -1.596410
  H 5.393603 -0.057773 -0.106784
  H 4.907275 -2.335608 -3.447062
  H 4.898850 -0.736502 -4.099923
  H 2.478668 -0.476234 -3.541086
  H 2.477335 -2.134922 -2.869971
  H 6.977343 -0.632085 -1.525208
 26
 48.946995
  H 1.785967 0.072132 0.243114
  C 2.857913 0.113668 0.337218
  C 3.413986 0.616890 1.586912
  C 2.378674 1.033830 2.622762
  C 3.041268 1.544595 3.896235
  C 3.660163 -0.341013 -0.798600
  C 4.988749 -0.337914 -0.802705
  C 5.092809 -0.830943 -2.022904
  C 4.332448 -1.317206 -3.233054
  C 2.832937 -1.401748 -3.445642
  H 2.687503 -1.805866 -4.445870
  O 6.437132 -1.019627 -2.491439
  H 4.073390 1.460950 1.380798
  H 4.075877 -0.137576 2.013095
  H 1.738344 0.183756 2.868053
  H 1.741509 1.818585 2.208878
  H 3.660528 0.771135 4.346291
  H 2.288975 1.837245 4.624626
  H 3.665288 2.412151 3.693400
  H 3.034720 -0.666636 -1.601838
  H 5.715499 -0.048687 -0.090734
  H 4.745786 -2.315809 -3.404891
  H 4.750380 -0.717096 -4.047090
  H 2.343043 -0.436095 -3.428598
  H 2.346289 -2.085920 -2.761047
  H 7.095535 -0.758575 -1.836609
 26
 92.591484
  H 1.820776 0.045871 0.181044
  C 2.897711 0.099675 0.306172
  C 3.421990 0.602957 1.553189
  C 2.366303 1.010990 2.575756
  C 3.006133 1.529336 3.853734
  C 3.748670 -0.352006 -0.824238
  C 5.079280 -0.313334 -0.741987
  C 5.013256 -0.804520 -1.955254
  C 4.287218 -1.295576 -3.178794
  C 2.784209 -1.373194 -3.381096
  H 2.630687 -1.773190 -4.375939
  O 6.449435 -1.041252 -2.535449
  H 4.090229 1.460627 1.349877
  H 4.097835 -0.153103 2.001891
  H 1.732897 0.154253 2.812813
  H 1.726722 1.787215 2.155176
  H 3.628319 0.767124 4.314121
  H 2.242165 1.814605 4.570589
  H 3.622068 2.404482 3.654350
  H 3.078775 -0.663261 -1.596465
  H 5.823501 -0.029027 -0.041266
  H 4.705580 -2.287868 -3.343533
  H 4.708858 -0.696089 -3.985976
  H 2.295202 -0.395162 -3.359464
  H 2.291717 -2.060961 -2.689959
  H 7.136031 -0.788377 -1.891885
 26
 132.148331
  H 1.817069 0.035648 0.153638
  C 2.889668 0.091538 0.283651
  C 3.420411 0.600587 1.544977
  C 2.362210 1.006631 2.568535
  C 3.001919 1.527600 3.851391
  C 3.739181 -0.355733 -0.838536
  C 5.097621 -0.292780 -0.704644
  C 4.887505 -0.780728 -1.901640
  C 4.270814 -1.287869 -3.157233
  C 2.774531 -1.368871 -3.372126
  H 2.626586 -1.774316 -4.374236
  O 6.527825 -1.070600 -2.599637
  H 4.079789 1.451504 1.355544
  H 4.086755 -0.142629 1.990394
  H 1.729156 0.144255 2.801299
  H 1.718006 1.787854 2.152433
  H 3.628245 0.767820 4.314130
  H 2.236500 1.810042 4.568049
  H 3.613157 2.404657 3.653472
  H 3.015386 -0.654757 -1.584417
  H 5.860272 -0.008994 -0.008303
  H 4.709629 -2.269930 -3.306313
  H 4.720340 -0.689759 -3.944356
  H 2.284897 -0.392710 -3.357981
  H 2.280135 -2.057599 -2.682640
  H 7.198258 -0.823352 -1.961084
 26
 136.861747
  H 1.695499 0.004610 0.311175
  C 2.771983 0.060530 0.340147
  C 3.392619 0.604846 1.565136
  C 2.377300 1.004261 2.631251
  C 3.069158 1.560551 3.871086
  C 3.477251 -0.372405 -0.762533
  C 4.981666 -0.230965 -0.743423
  C 4.584114 -0.790333 -1.812085
  C 4.271002 -1.272163 -3.134845
  C 2.806201 -1.379898 -3.527900
  H 2.759101 -1.744544 -4.550841
  O 6.827956 -1.184802 -2.633301
  H 4.008619 1.477349 1.320092
  H 4.091193 -0.126769 1.986493
  H 1.785421 0.133912 2.917685
  H 1.702168 1.761585 2.230828
  H 3.730918 0.822071 4.316334
  H 2.330611 1.838380 4.620294
  H 3.645208 2.450702 3.632024
  H 2.711942 -0.702738 -1.483651
  H 5.762112 0.114639 -0.114001
  H 4.773022 -2.240227 -3.248735
  H 4.823282 -0.628864 -3.828747
  H 2.312222 -0.410108 -3.530125
  H 2.269702 -2.102005 -2.917808
  H 7.507814 -0.981541 -1.988157
 26
 137.187250
  H 1.656924 -0.043367 0.354056
  C 2.732552 0.035651 0.358416
  C 3.361675 0.609538 1.569692
  C 2.355697 0.995736 2.647491
  C 3.049833 1.582488 3.869341
  C 3.422789 -0.395945 -0.739398
  C 4.945698 -0.217540 -0.726156
  C 4.498836 -0.804620 -1.768094
  C 4.234469 -1.266373 -3.110579
  C 2.776735 -1.336419 -3.534180
  H 2.722480 -1.690754 -4.558778
  O 7.189410 -1.283983 -2.787567
  H 3.953919 1.492574 1.304327
  H 4.081735 -0.102554 1.987860
  H 1.781476 0.117608 2.948915
  H 1.652148 1.729364 2.250196
  H 3.740824 0.870289 4.310330
  H 2.317610 1.858752 4.623689
  H 3.599673 2.484683 3.606499
  H 2.648703 -0.739155 -1.450818
  H 5.710830 0.150914 -0.085683
  H 4.723435 -2.245019 -3.208422
  H 4.819129 -0.617375 -3.771847
  H 2.307144 -0.351527 -3.509239
  H 2.215824 -2.042147 -2.924775
  H 7.913935 -1.092727 -2.186808
 26
 136.368840
  H 1.575597 -0.000925 0.421681
  C 2.652008 0.070150 0.396518
  C 3.311236 0.639971 1.598060
  C 2.323293 1.022748 2.696421
  C 3.052273 1.589387 3.910159
  C 3.312639 -0.374038 -0.716440
  C 4.863000 -0.169552 -0.732596
  C 4.379721 -0.787089 -1.732552
  C 4.210269 -1.266917 -3.072803
  C 2.776812 -1.347852 -3.576321
  H 2.795423 -1.730725 -4.593513
  O 7.558571 -1.383255 -2.989054
  H 3.908189 1.517808 1.327895
  H 4.018076 -0.092430 2.002894
  H 1.763032 0.139623 3.005458
  H 1.635048 1.779142 2.318842
  H 3.734229 0.853999 4.331839
  H 2.339565 1.846575 4.690920
  H 3.614924 2.484435 3.653748
  H 2.527161 -0.740290 -1.421443
  H 5.604328 0.233968 -0.086349
  H 4.705850 -2.250428 -3.148970
  H 4.843691 -0.644534 -3.726523
  H 2.309285 -0.369428 -3.624880
  H 2.189654 -2.065021 -3.010414
  H 8.318454 -1.195783 -2.435866
 26
 140.129466
  H 1.564304 -0.031536 0.422228
  C 2.641125 0.066859 0.396991
  C 3.288350 0.641599 1.600563
  C 2.285543 1.023674 2.690429
  C 2.999381 1.600233 3.911412
  C 3.319868 -0.375811 -0.706653
  C 4.881942 -0.164000 -0.702274
  C 4.355750 -0.773584 -1.687559
  C 4.183277 -1.274388 -3.033976
  C 2.741677 -1.311414 -3.524086
  H 2.737364 -1.691042 -4.545324
  O 7.833544 -1.467350 -3.190170
  H 3.872512 1.531140 1.329355
  H 4.003488 -0.083983 2.012680
  H 1.733400 0.134657 3.000644
  H 1.589159 1.770245 2.304560
  H 3.686082 0.872984 4.342275
  H 2.275927 1.854389 4.684377
  H 3.552746 2.502007 3.658007
  H 2.526052 -0.746919 -1.394690
  H 5.635247 0.248114 -0.071088
  H 4.658385 -2.258803 -3.106591
  H 4.804729 -0.647040 -3.684883
  H 2.308916 -0.317544 -3.574231
  H 2.130864 -2.007491 -2.950780
  H 8.610749 -1.277716 -2.656401
 26
 137.777019
  H 1.479452 0.010292 0.483943
  C 2.549866 0.101011 0.433104
  C 3.226729 0.655821 1.634250
  C 2.260491 1.042915 2.751968
  C 3.011192 1.611563 3.953325
  C 3.185073 -0.344206 -0.693229
  C 4.778923 -0.162824 -0.682062
  C 4.243725 -0.743715 -1.679170
  C 4.153368 -1.258689 -3.034774
  C 2.735563 -1.340796 -3.580622
  H 2.764846 -1.746832 -4.590992
  O 8.306741 -1.554832 -3.409701
  H 3.810620 1.540428 1.355020
  H 3.948088 -0.073389 2.019260
  H 1.691854 0.165644 3.070611
  H 1.558716 1.795331 2.384960
  H 3.702629 0.877922 4.363029
  H 2.315121 1.878628 4.745236
  H 3.569490 2.504683 3.682386
  H 2.384378 -0.686582 -1.375813
  H 5.499703 0.249339 -0.019556
  H 4.627540 -2.250188 -3.051967
  H 4.787314 -0.625038 -3.662317
  H 2.282981 -0.357167 -3.652081
  H 2.124577 -2.025763 -2.998287
  H 9.052144 -1.364863 -2.850135
 26
 111.111000
  H 1.461981 0.022915 0.519193
  C 2.532355 0.117963 0.476009
  C 3.198249 0.676567 1.681521
  C 2.222385 1.060672 2.791882
  C 2.962055 1.633417 3.998127
  C 3.237311 -0.366755 -0.749283
  C 4.790737 -0.176320 -0.715485
  C 4.244667 -0.747054 -1.687864
  C 4.140590 -1.260918 -3.042906
  C 2.717803 -1.337270 -3.576491
  H 2.736768 -1.742850 -4.587291
  O 8.405301 -1.592159 -3.501840
  H 3.780530 1.563312 1.405729
  H 3.919775 -0.049357 2.072381
  H 1.655042 0.181360 3.107189
  H 1.520217 1.809898 2.419144
  H 3.653500 0.902959 4.413468
  H 2.259194 1.898317 4.784749
  H 3.518650 2.528576 3.730434
  H 2.443123 -0.713078 -1.437455
  H 5.511378 0.237599 -0.053924
  H 4.610777 -2.254222 -3.064730
  H 4.771507 -0.629356 -3.675585
  H 2.268406 -0.351870 -3.643507
  H 2.109253 -2.020211 -2.989244
  H 9.155831 -1.403958 -2.948563
 26
 10000.000000
  H 1.434699 0.040231 0.565261
  C 2.504975 0.138494 0.527108
  C 3.163416 0.699991 1.735366
  C 2.181110 1.081942 2.840779
  C 2.913281 1.657803 4.050110
  C 3.278380 -0.386486 -0.799335
  C 4.800625 -0.189539 -0.749833
  C 4.245633 -0.752346 -1.702697
  C 4.129588 -1.265356 -3.057091
  C 2.702533 -1.337017 -3.579819
  H 2.712498 -1.742264 -4.590882
  O 8.506117 -1.630532 -3.598457
  H 3.744317 1.588297 1.461696
  H 3.885266 -0.023457 2.130199
  H 1.614936 0.201142 3.154029
  H 1.478461 1.828764 2.464143
  H 3.604947 0.929748 4.469284
  H 2.205877 1.921142 4.833177
  H 3.468431 2.554452 3.784410
  H 2.488655 -0.735790 -1.491127
  H 5.521715 0.225682 -0.089578
  H 4.596458 -2.260129 -3.082866
  H 4.757645 -0.635542 -3.694343
  H 2.255749 -0.350179 -3.643044
  H 2.096334 -2.018263 -2.988188
  H 9.261122 -1.443822 -3.050792
