 17
 0.000000
  C 1.007849 -0.071122 0.048436
  C 2.503790 -0.082479 0.026143
  C 3.220123 -0.594500 -0.979043
  C 4.656567 -0.606247 -1.002102
  C 5.378016 -1.121376 -2.013385
  C 6.815253 -1.131957 -2.034154
  C 7.531026 -1.641564 -3.034605
  H 8.603893 -1.654055 -3.059123
  H 0.643901 0.394392 0.962312
  H 0.612957 -1.085544 0.007195
  H 0.612959 0.491958 -0.796370
  H 3.004767 0.352515 0.880110
  H 2.709807 -1.027873 -1.829816
  H 5.161204 -0.171581 -0.148783
  H 4.874083 -1.556106 -2.866833
  H 7.321133 -0.697449 -1.181143
  H 7.035395 -2.077418 -3.890246
 17
 12.144114
  C 0.880169 -0.043225 0.076607
  C 2.531634 -0.060520 0.088245
  C 3.272851 -0.610265 -0.981607
  C 4.697886 -0.627959 -1.010240
  C 5.416389 -1.135947 -2.028921
  C 6.853491 -1.158328 -2.060756
  C 7.571100 -1.639226 -3.077959
  H 8.645637 -1.642264 -3.078043
  H 0.498225 0.337990 1.012507
  H 0.545315 -1.065051 -0.099125
  H 0.474144 0.595729 -0.705108
  H 3.025970 0.377902 0.934390
  H 2.716916 -1.045468 -1.796525
  H 5.202491 -0.194196 -0.155952
  H 4.931313 -1.581952 -2.889527
  H 7.352464 -0.710104 -1.208230
  H 7.077124 -2.077388 -3.930898
 17
 37.207198
  C 0.711429 -0.047786 0.081773
  C 2.591641 -0.035612 0.129931
  C 3.313309 -0.610792 -0.980642
  C 4.733461 -0.629158 -1.014280
  C 5.447832 -1.142624 -2.037517
  C 6.874863 -1.158516 -2.078028
  C 7.584035 -1.654044 -3.097625
  H 8.659802 -1.651332 -3.098212
  H 0.402003 0.333356 1.056337
  H 0.442745 -1.072786 -0.083461
  H 0.456927 0.603940 -0.743725
  H 3.035602 0.414723 0.984573
  H 2.747502 -1.043506 -1.798514
  H 5.257827 -0.191232 -0.161075
  H 4.930500 -1.578119 -2.881037
  H 7.383404 -0.720743 -1.230350
  H 7.104898 -2.092187 -3.958191
 17
 67.638865
  C 0.515412 -0.045883 0.086250
  C 2.681490 -0.022248 0.148156
  C 3.369517 -0.594025 -0.952140
  C 4.795875 -0.625375 -1.005945
  C 5.487497 -1.143382 -2.036950
  C 6.922384 -1.168816 -2.100928
  C 7.608888 -1.671566 -3.124306
  H 8.690908 -1.676249 -3.143520
  H 0.253749 0.339292 1.052203
  H 0.298794 -1.089184 -0.072229
  H 0.296529 0.616001 -0.736843
  H 3.103672 0.437897 1.016595
  H 2.790475 -1.016464 -1.755965
  H 5.332099 -0.193486 -0.164360
  H 4.954811 -1.575054 -2.878217
  H 7.447895 -0.739551 -1.257521
  H 7.106427 -2.103759 -3.982884
 17
 92.779671
  C 0.306498 -0.051434 0.080935
  C 2.783392 -0.016367 0.157829
  C 3.434002 -0.569097 -0.910065
  C 4.865303 -0.608787 -0.992121
  C 5.525998 -1.134187 -2.031753
  C 6.958547 -1.178326 -2.120345
  C 7.618189 -1.693837 -3.153145
  H 8.707680 -1.705053 -3.195920
  H 0.097004 0.333744 1.056541
  H 0.146508 -1.098048 -0.073430
  H 0.148676 0.619769 -0.744017
  H 3.173619 0.455047 1.049361
  H 2.859019 -0.995371 -1.720696
  H 5.423373 -0.178990 -0.151070
  H 4.968972 -1.563690 -2.864738
  H 7.504951 -0.756517 -1.289216
  H 7.091270 -2.127031 -4.006961
 17
 109.602281
  C 0.100995 -0.048207 0.082296
  C 2.849792 0.002447 0.194531
  C 3.490283 -0.548188 -0.864122
  C 4.930463 -0.601431 -0.974461
  C 5.566612 -1.135266 -2.026731
  C 7.004345 -1.189132 -2.147637
  C 7.636440 -1.711717 -3.191960
  H 8.713229 -1.735158 -3.254758
  H -0.049111 0.337921 1.064198
  H 0.018043 -1.100457 -0.077087
  H 0.041792 0.617885 -0.752242
  H 3.169706 0.472634 1.084226
  H 2.923658 -0.978526 -1.680301
  H 5.500196 -0.177579 -0.155903
  H 4.989074 -1.561190 -2.847670
  H 7.569733 -0.768789 -1.330112
  H 7.091078 -2.142950 -4.034406
 17
 121.127944
  C -0.107844 -0.042600 0.096916
  C 2.918166 0.009931 0.205102
  C 3.550572 -0.532578 -0.841566
  C 4.994255 -0.594081 -0.972855
  C 5.612219 -1.135730 -2.033040
  C 7.044414 -1.201560 -2.172822
  C 7.659065 -1.735342 -3.226336
  H 8.733219 -1.765650 -3.306332
  H -0.209321 0.345037 1.086868
  H -0.141692 -1.099717 -0.066574
  H -0.114268 0.624643 -0.738490
  H 3.199815 0.487577 1.114642
  H 2.985015 -0.961170 -1.659284
  H 5.576236 -0.173698 -0.160062
  H 5.026812 -1.554608 -2.840895
  H 7.625538 -0.782685 -1.360702
  H 7.104715 -2.159039 -4.048371
 17
 127.856250
  C -0.316747 -0.029075 0.125798
  C 2.982972 0.010419 0.205771
  C 3.613662 -0.525011 -0.830032
  C 5.056725 -0.591119 -0.976257
  C 5.662651 -1.138613 -2.043189
  C 7.086153 -1.211036 -2.194200
  C 7.688333 -1.754544 -3.251663
  H 8.750145 -1.785208 -3.343669
  H -0.369799 0.357376 1.113877
  H -0.315008 -1.084727 -0.036974
  H -0.290818 0.639975 -0.707506
  H 3.227354 0.491520 1.125915
  H 3.046552 -0.956882 -1.654923
  H 5.642936 -0.173782 -0.171033
  H 5.071483 -1.556467 -2.843851
  H 7.676568 -0.792866 -1.386808
  H 7.125929 -2.175022 -4.064131
 17
 131.786866
  C -0.543723 0.003726 0.186833
  C 3.029973 -0.004818 0.176356
  C 3.664254 -0.533642 -0.844712
  C 5.112480 -0.601433 -0.993510
  C 5.714490 -1.149348 -2.058091
  C 7.145043 -1.217428 -2.217141
  C 7.744364 -1.760852 -3.274125
  H 8.814848 -1.807172 -3.361492
  H -0.539397 0.391825 1.179995
  H -0.522870 -1.051346 0.025989
  H -0.507425 0.670837 -0.645771
  H 3.231725 0.478950 1.102291
  H 3.104531 -0.967063 -1.668554
  H 5.700498 -0.178050 -0.188514
  H 5.121365 -1.567588 -2.857955
  H 7.736301 -0.797555 -1.413827
  H 7.177205 -2.186540 -4.085888
 17
 133.573867
  C -0.776430 0.054665 0.289366
  C 3.058633 -0.035411 0.110770
  C 3.710965 -0.556835 -0.894720
  C 5.160843 -0.617229 -1.029328
  C 5.776896 -1.164328 -2.087879
  C 7.206424 -1.228877 -2.228449
  C 7.819314 -1.771023 -3.279050
  H 8.889864 -1.799911 -3.361807
  H -0.720011 0.443386 1.281076
  H -0.766064 -0.998279 0.129588
  H -0.757292 0.719722 -0.542496
  H 3.233161 0.452384 1.041267
  H 3.166496 -0.994166 -1.725969
  H 5.735896 -0.190771 -0.217910
  H 5.192885 -1.588676 -2.896048
  H 7.788059 -0.802924 -1.418528
  H 7.264003 -2.194902 -4.096655
 17
 134.321389
  C -1.017917 0.126688 0.440292
  C 3.061306 -0.086902 0.000275
  C 3.739156 -0.595806 -0.984532
  C 5.194710 -0.639702 -1.086607
  C 5.840536 -1.180073 -2.128180
  C 7.277520 -1.233194 -2.233584
  C 7.920421 -1.770685 -3.267357
  H 8.996096 -1.787452 -3.325209
  H -0.898819 0.514706 1.428186
  H -1.038374 -0.929755 0.281224
  H -1.024345 0.795163 -0.392677
  H 3.210453 0.402662 0.934825
  H 3.217706 -1.038105 -1.828634
  H 5.745683 -0.208824 -0.262031
  H 5.279604 -1.610180 -2.948116
  H 7.834593 -0.804094 -1.410757
  H 7.388302 -2.204418 -4.099572
 17
 134.148117
  C -1.007627 0.127797 0.440000
  C 3.056501 -0.088095 -0.001344
  C 3.737169 -0.598254 -0.986003
  C 5.191762 -0.642474 -1.085945
  C 5.839103 -1.182988 -2.126925
  C 7.275169 -1.231781 -2.232608
  C 7.919761 -1.768088 -3.266457
  H 8.993587 -1.786201 -3.322154
  H -0.894502 0.516386 1.428018
  H -1.033236 -0.927605 0.281626
  H -1.021522 0.795023 -0.393119
  H 3.211197 0.401253 0.931666
  H 3.216894 -1.041531 -1.830729
  H 5.742357 -0.209385 -0.261123
  H 5.280127 -1.613617 -2.948194
  H 7.831145 -0.800962 -1.409636
  H 7.388744 -2.199450 -4.099525
