19
 0
 C -3.67846199 -0.54690309 -0.18149365
 C -2.20355865 -0.84738648 -0.41904668
 C -1.95575233 -1.12290398 -1.90121728
 C -1.21582274 0.21438217 0.06761529
 C -1.69367211 1.53794207 0.60784020
 O 0.00000000 0.00000000 0.00000000
 H -4.30054669 -1.39125476 -0.49815191
 H -4.00599838 0.33455847 -0.74335820
 H -3.87929709 -0.37213806 0.88067036
 H -1.96386828 -1.75519348 0.15008585
 H -2.14796467 -0.23050052 -2.50686692
 H -2.60239058 -1.92941180 -2.26302491
 H -0.91774101 -1.42451158 -2.07903335
 H -2.77677161 1.60813342 0.68924558
 H -1.34777702 2.33657038 -0.05383106
 H -1.27377137 1.67908005 1.60804201
 O 2.70000000 0.00000000 0.00000000
 H 3.20830891 -0.69766200 0.44029152
 H 3.36524409 0.49073311 -0.50555607
