 19
 0.000000
  C -3.685768 -0.528778 -0.163262
  C -2.235509 -0.844973 -0.409862
  C -1.922961 -1.078905 -1.875793
  C -1.181784 0.213455 0.071226
  C -1.725197 1.504391 0.581515
  O -0.022530 -0.016850 -0.005314
  H -4.286893 -1.380514 -0.484651
  H -4.028786 0.327097 -0.741684
  H -3.896512 -0.373950 0.892250
  H -1.976709 -1.740290 0.175384
  H -2.113823 -0.195308 -2.483952
  H -2.569279 -1.871855 -2.250957
  H -0.882594 -1.367988 -2.012224
  H -2.804991 1.535800 0.641770
  H -1.363405 2.286445 -0.087165
  H -1.287929 1.668159 1.566573
  O 2.718961 -0.016857 -0.018118
  H 3.210608 -0.713814 0.431674
  H 3.365259 0.478271 -0.535199
 19
 -1.024419
  C -3.663282 -0.588715 -0.047984
  C -2.262913 -0.929301 -0.449153
  C -2.048488 -1.003221 -1.941284
  C -1.122673 0.089616 0.029361
  C -1.606088 1.428500 0.425452
  O 0.001668 -0.278352 -0.005030
  H -4.287467 -1.452708 -0.286295
  H -4.072380 0.250684 -0.601952
  H -3.760967 -0.433552 1.022339
  H -1.936570 -1.846936 0.054097
  H -2.311035 -0.073081 -2.441102
  H -2.719234 -1.767286 -2.338440
  H -1.027464 -1.275009 -2.192417
  H -2.679518 1.542835 0.429627
  H -1.148906 2.139691 -0.265316
  H -1.192282 1.634095 1.413239
  O 2.676948 0.059769 0.185027
  H 3.180952 -0.577921 0.701004
  H 3.305888 0.572415 -0.332184
 19
 -1.699276
  C -3.600651 -0.620689 0.066511
  C -2.253412 -0.957331 -0.497961
  C -2.159347 -0.899462 -2.003385
  C -1.065161 0.027116 -0.032775
  C -1.478118 1.411411 0.257002
  O 0.021121 -0.436061 0.003665
  H -4.260775 -1.461842 -0.158890
  H -4.045947 0.261945 -0.382961
  H -3.583499 -0.531455 1.149817
  H -1.894425 -1.913299 -0.103245
  H -2.454096 0.071019 -2.397301
  H -2.862214 -1.632357 -2.405809
  H -1.166480 -1.156566 -2.362987
  H -2.542646 1.590575 0.203784
  H -0.949707 2.051796 -0.453331
  H -1.096133 1.656694 1.249540
  O 2.522971 0.176223 0.375213
  H 3.022373 -0.418114 0.942932
  H 3.157567 0.666206 -0.157349
 19
 -2.528154
  C -3.521493 -0.703196 0.163385
  C -2.240991 -1.011278 -0.554540
  C -2.264552 -0.846884 -2.054113
  C -1.017424 -0.074052 -0.090699
  C -1.347930 1.342988 0.108618
  O 0.019561 -0.629056 0.028677
  H -4.217693 -1.513602 -0.062231
  H -3.981012 0.225080 -0.162346
  H -3.395167 -0.697234 1.243238
  H -1.852994 -1.993646 -0.269623
  H -2.576521 0.150783 -2.354580
  H -2.998544 -1.552635 -2.448446
  H -1.305364 -1.083540 -2.507381
  H -2.396024 1.582534 -0.008435
  H -0.750053 1.914051 -0.605465
  H -0.997723 1.619192 1.104600
  O 2.339985 0.259976 0.565925
  H 2.825433 -0.291965 1.186583
  H 2.989361 0.724820 0.027862
 19
 -1.295499
  C -3.446071 -0.769020 0.243414
  C -2.251904 -0.973672 -0.640737
  C -2.397220 -0.782006 -2.127619
  C -0.984292 -0.118253 -0.152633
  C -1.196448 1.323957 -0.023912
  O -0.029696 -0.782161 0.061569
  H -4.180332 -1.531416 -0.017326
  H -3.902957 0.208549 0.108224
  H -3.199408 -0.900675 1.293963
  H -1.816675 -1.967960 -0.465535
  H -2.726415 0.223318 -2.384911
  H -3.152175 -1.487481 -2.475710
  H -1.471260 -0.996600 -2.654695
  H -2.219489 1.636129 -0.193068
  H -0.535226 1.814848 -0.741805
  H -0.853276 1.620364 0.968805
  O 2.159307 0.389559 0.765399
  H 2.627572 -0.124637 1.430209
  H 2.826658 0.873652 0.264586
 19
 9.270459
  C -3.459780 -0.834611 0.229759
  C -2.276505 -0.879819 -0.691660
  C -2.408598 -0.821453 -2.197524
  C -1.057615 -0.024402 -0.180450
  C -1.127263 1.410302 0.038524
  O -0.152681 -0.791757 -0.017777
  H -4.132313 -1.647371 -0.027090
  H -3.979219 0.118407 0.120378
  H -3.179890 -0.933410 1.275217
  H -1.693217 -1.828310 -0.533237
  H -2.802310 0.147097 -2.508416
  H -3.093320 -1.606219 -2.507577
  H -1.458183 -0.962915 -2.704428
  H -2.128146 1.807769 -0.085742
  H -0.446537 1.893471 -0.664677
  H -0.727077 1.633969 1.028405
  O 2.116139 0.390274 0.805394
  H 2.510603 -0.049466 1.568959
  H 2.822362 0.868983 0.347985
 19
 21.260760
  C -3.513341 -0.868053 0.142123
  C -2.296113 -0.791270 -0.714614
  C -2.388252 -0.877245 -2.213808
  C -1.138421 0.035440 -0.185646
  C -1.088045 1.453018 0.138783
  O -0.244313 -0.798957 -0.037309
  H -4.107807 -1.742147 -0.108120
  H -4.119569 0.022931 -0.038616
  H -3.275296 -0.884852 1.203052
  H -1.493270 -1.712759 -0.495164
  H -2.874257 0.028799 -2.587552
  H -2.989177 -1.732595 -2.507454
  H -1.413808 -0.934609 -2.692594
  H -2.052301 1.935369 0.027044
  H -0.353180 1.936057 -0.508455
  H -0.686071 1.585130 1.143768
  O 2.087256 0.421807 0.828168
  H 2.516767 -0.101914 1.511771
  H 2.779302 0.933385 0.398251
 19
 28.359003
  C -3.549864 -0.858282 0.092845
  C -2.307009 -0.743500 -0.714065
  C -2.387861 -0.863525 -2.202214
  C -1.166479 0.036472 -0.187261
  C -1.076728 1.437643 0.159050
  O -0.256537 -0.825402 -0.056108
  H -4.101159 -1.756984 -0.170145
  H -4.197698 -0.003131 -0.120469
  H -3.346835 -0.853378 1.160849
  H -1.207419 -1.700323 -0.438458
  H -2.919300 0.006147 -2.599429
  H -2.950564 -1.747426 -2.487900
  H -1.408296 -0.883230 -2.674304
  H -2.029718 1.945733 0.064882
  H -0.334511 1.915453 -0.484523
  H -0.660598 1.542844 1.162415
  O 2.060474 0.430000 0.849868
  H 2.496493 -0.094200 1.527397
  H 2.743142 0.964766 0.433920
 19
 13.195748
  C -3.609449 -0.783022 0.043746
  C -2.345295 -0.720725 -0.725023
  C -2.432345 -0.880919 -2.205581
  C -1.201359 -0.007061 -0.219784
  C -1.079216 1.353865 0.186511
  O -0.254364 -0.922090 -0.086115
  H -4.175582 -1.664785 -0.226042
  H -4.239941 0.069869 -0.209403
  H -3.440457 -0.745450 1.112832
  H -0.847027 -1.716113 -0.365104
  H -3.025941 -0.052335 -2.598293
  H -2.943232 -1.799048 -2.482679
  H -1.465742 -0.836410 -2.688836
  H -2.008804 1.885337 0.106312
  H -0.301492 1.826851 -0.419129
  H -0.679098 1.407449 1.199982
  O 2.025250 0.472461 0.823878
  H 2.470169 -0.031630 1.499400
  H 2.683805 1.044757 0.411708
 19
 -1.712008
  C -3.642822 -0.701292 0.027546
  C -2.383113 -0.649545 -0.750054
  C -2.440480 -0.935660 -2.205416
  C -1.202688 -0.038016 -0.227999
  C -1.075434 1.332585 0.237569
  O -0.178767 -0.871944 -0.196795
  H -4.164141 -1.631615 -0.187532
  H -4.322640 0.110260 -0.248953
  H -3.458376 -0.626578 1.096123
  H -0.603346 -1.735712 -0.453807
  H -2.932808 -0.089334 -2.693323
  H -3.039797 -1.820034 -2.423934
  H -1.454297 -1.045891 -2.654223
  H -2.030564 1.844574 0.258508
  H -0.393086 1.849781 -0.441234
  H -0.576222 1.369206 1.206823
  O 1.984372 0.527168 0.878632
  H 2.441950 -0.019945 1.519130
  H 2.679887 1.053331 0.451693
 19
 -9.773482
  C -3.635101 -0.573195 -0.003998
  C -2.370421 -0.638489 -0.761604
  C -2.417516 -1.033709 -2.183556
  C -1.180046 -0.060882 -0.250108
  C -1.100065 1.283728 0.318448
  O -0.121760 -0.833104 -0.232723
  H -4.212004 -1.478910 -0.175970
  H -4.261802 0.254430 -0.348278
  H -3.463150 -0.439976 1.059783
  H -0.413626 -1.716063 -0.540134
  H -2.936049 -0.241292 -2.727984
  H -2.997293 -1.942766 -2.339535
  H -1.430516 -1.144935 -2.625879
  H -2.069403 1.762735 0.378278
  H -0.431982 1.870453 -0.313473
  H -0.605280 1.258681 1.290123
  O 2.003151 0.529618 0.842504
  H 2.501495 -0.011983 1.456304
  H 2.620106 1.175225 0.482821
 19
 -16.748308
  C -3.659558 -0.450247 -0.064169
  C -2.381650 -0.589368 -0.784265
  C -2.403240 -1.121168 -2.160741
  C -1.182990 -0.056046 -0.263558
  C -1.127660 1.219046 0.464317
  O -0.065893 -0.720049 -0.397161
  H -4.251258 -1.355609 -0.184925
  H -4.262468 0.356000 -0.491277
  H -3.516010 -0.242899 0.991581
  H -0.232291 -1.625532 -0.723780
  H -2.923022 -0.395088 -2.790765
  H -2.981701 -2.041990 -2.234571
  H -1.411873 -1.267277 -2.581293
  H -2.105052 1.662976 0.603322
  H -0.491065 1.901964 -0.098960
  H -0.611878 1.081419 1.415022
  O 2.030095 0.548373 0.802630
  H 2.568730 -0.023652 1.356045
  H 2.609335 1.242333 0.475392
 19
 -19.638698
  C -3.677987 -0.331994 -0.120405
  C -2.395264 -0.525666 -0.810908
  C -2.411355 -1.197822 -2.123851
  C -1.184556 -0.041993 -0.285588
  C -1.106595 1.161816 0.558880
  O -0.042312 -0.628855 -0.542568
  H -4.266143 -1.247655 -0.166058
  H -4.281222 0.423640 -0.633782
  H -3.554471 -0.032798 0.915384
  H -0.130775 -1.544837 -0.886266
  H -2.962967 -0.565591 -2.825772
  H -2.966396 -2.135434 -2.089010
  H -1.424541 -1.361242 -2.541819
  H -2.078111 1.576677 0.800370
  H -0.515031 1.910577 0.036402
  H -0.530782 0.937390 1.456117
  O 2.070343 0.610334 0.850802
  H 2.599461 0.011444 1.382564
  H 2.678661 1.242514 0.459834
 19
 -23.352952
  C -3.708944 -0.163925 -0.240755
  C -2.411799 -0.492340 -0.850001
  C -2.423842 -1.374272 -2.034223
  C -1.199983 -0.007226 -0.323094
  C -1.122017 1.095456 0.649216
  O -0.044412 -0.480669 -0.700652
  H -4.457416 -0.904656 -0.509522
  H -4.066648 0.794036 -0.629681
  H -3.652774 -0.065652 0.838846
  H -0.080198 -1.255082 -1.295522
  H -3.311531 -1.173185 -2.633179
  H -2.516790 -2.418712 -1.719585
  H -1.546122 -1.277607 -2.665892
  H -2.083876 1.404539 1.035339
  H -0.637268 1.946208 0.166796
  H -0.440959 0.817731 1.454082
  O 2.126585 0.610939 0.929642
  H 2.653901 -0.058862 1.374047
  H 2.744050 1.263784 0.588464
