 26
 0.000000
  C 0.904151 0.049013 0.272213
  C 2.396273 0.061396 0.087071
  C 3.240787 -0.010938 1.352438
  C 2.522399 -0.088953 2.696361
  H 3.245568 -0.135050 3.502845
  C 2.992762 0.128374 -1.121021
  C 2.354684 0.205129 -2.495490
  C 0.844011 0.217872 -2.711934
  H 0.631610 0.276881 -3.774389
  C 4.452335 0.132972 -1.208998
  C 5.193719 0.194371 -2.316928
  O 6.553492 0.194691 -2.329353
  H 0.613303 -0.004449 1.315306
  H 0.458953 -0.817252 -0.210612
  H 0.456768 0.958524 -0.120397
  H 3.886861 0.872662 1.383783
  H 3.888032 -0.891391 1.282084
  H 1.895770 -0.978050 2.748948
  H 1.894671 0.787400 2.850940
  H 2.746706 -0.643890 -3.066201
  H 2.747503 1.111774 -2.968693
  H 0.385213 1.077511 -2.232377
  H 0.384358 -0.689022 -2.330220
  H 4.998663 0.081154 -0.277923
  H 4.817383 0.250462 -3.324790
  H 6.883436 0.144225 -1.422675
 26
 5.662447
  C 0.913837 0.075121 0.280609
  C 2.372399 0.069740 0.091829
  C 3.241965 0.014080 1.364295
  C 2.497094 -0.095087 2.696873
  H 3.228297 -0.126674 3.504305
  C 2.984385 0.133074 -1.116328
  C 2.339864 0.207431 -2.485165
  C 0.829253 0.238853 -2.688359
  H 0.638578 0.293126 -3.758737
  C 4.446095 0.119700 -1.214325
  C 5.187635 0.170583 -2.325932
  O 6.552345 0.164893 -2.336438
  H 0.598571 -0.027514 1.294085
  H 0.748883 -0.824908 -0.269786
  H 0.409637 0.918698 -0.157383
  H 3.858167 0.919018 1.399706
  H 3.913126 -0.847346 1.288601
  H 1.903031 -1.004947 2.750957
  H 1.851845 0.763436 2.868230
  H 2.723285 -0.650754 -3.048445
  H 2.744309 1.106293 -2.962707
  H 0.374233 1.112748 -2.229892
  H 0.341528 -0.656911 -2.314760
  H 5.000456 0.070495 -0.289387
  H 4.810931 0.224605 -3.334801
  H 6.884221 0.117673 -1.428727
 26
 17.687098
  C 0.911117 0.077123 0.294355
  C 2.352888 0.073632 0.087541
  C 3.256798 0.029388 1.376705
  C 2.523740 -0.099795 2.708564
  H 3.258908 -0.118592 3.514359
  C 2.964164 0.134821 -1.115273
  C 2.327062 0.204226 -2.499464
  C 0.815979 0.265797 -2.723234
  H 0.639414 0.308503 -3.800179
  C 4.415025 0.115163 -1.199536
  C 5.165953 0.152693 -2.306974
  O 6.530124 0.141354 -2.305794
  H 0.577375 -0.082544 1.304434
  H 0.971421 -0.813613 -0.288893
  H 0.357905 0.894112 -0.169319
  H 3.845526 0.948381 1.402786
  H 3.943570 -0.814594 1.290002
  H 1.950561 -1.022737 2.761088
  H 1.861984 0.744424 2.883899
  H 2.700440 -0.666813 -3.050137
  H 2.752272 1.090072 -2.983504
  H 0.378337 1.158185 -2.287437
  H 0.299590 -0.609963 -2.342763
  H 4.961348 0.075919 -0.264180
  H 4.798862 0.195771 -3.318197
  H 6.851235 0.103988 -1.398032
 26
 31.687545
  C 0.884417 0.100997 0.290451
  C 2.340374 0.079229 0.083879
  C 3.241312 0.032958 1.368131
  C 2.520613 -0.111096 2.706322
  H 3.258631 -0.127085 3.502947
  C 2.966383 0.139070 -1.115162
  C 2.329272 0.202190 -2.497531
  C 0.823278 0.275282 -2.705176
  H 0.634691 0.306513 -3.772437
  C 4.415924 0.115799 -1.200858
  C 5.154867 0.142204 -2.307136
  O 6.535827 0.130346 -2.315494
  H 0.523030 -0.074872 1.286210
  H 1.151083 -0.777035 -0.278036
  H 0.327140 0.853979 -0.200919
  H 3.823223 0.965150 1.388965
  H 3.942912 -0.806473 1.271566
  H 1.958919 -1.044116 2.758302
  H 1.852761 0.729271 2.891928
  H 2.690668 -0.675408 -3.042021
  H 2.756772 1.076722 -2.992260
  H 0.402381 1.180238 -2.275146
  H 0.301939 -0.591398 -2.306042
  H 4.963755 0.086172 -0.274652
  H 4.777696 0.175068 -3.321620
  H 6.869738 0.102602 -1.390925
 26
 44.305692
  C 0.881318 0.128985 0.306877
  C 2.337436 0.081466 0.073057
  C 3.236162 0.025588 1.356381
  C 2.511772 -0.123647 2.685526
  H 3.247349 -0.143028 3.482341
  C 2.971385 0.142404 -1.126496
  C 2.325100 0.201134 -2.508006
  C 0.819302 0.272398 -2.693304
  H 0.616200 0.294937 -3.753949
  C 4.419891 0.119070 -1.200604
  C 5.175848 0.137327 -2.303180
  O 6.540861 0.127948 -2.292891
  H 0.536376 -0.043174 1.304284
  H 1.283066 -0.745636 -0.228692
  H 0.290153 0.855388 -0.221646
  H 3.814381 0.958125 1.380564
  H 3.939725 -0.813807 1.259683
  H 1.948975 -1.053832 2.732873
  H 1.845213 0.712359 2.872799
  H 2.678413 -0.674771 -3.048580
  H 2.745224 1.067493 -3.010668
  H 0.404302 1.185123 -2.263052
  H 0.304051 -0.594149 -2.277070
  H 4.959357 0.097579 -0.274088
  H 4.813230 0.160240 -3.318894
  H 6.849210 0.110831 -1.396493
 26
 53.290758
  C 0.880752 0.162835 0.319849
  C 2.336594 0.078987 0.075804
  C 3.227138 0.009940 1.364579
  C 2.497515 -0.136575 2.688171
  H 3.232197 -0.165339 3.488107
  C 2.981255 0.143246 -1.127600
  C 2.333123 0.200314 -2.515275
  C 0.821294 0.267819 -2.695030
  H 0.610698 0.282017 -3.755282
  C 4.427757 0.124308 -1.205904
  C 5.174068 0.136899 -2.318490
  O 6.535475 0.136048 -2.321377
  H 0.535498 0.009535 1.313936
  H 1.383720 -0.723655 -0.171350
  H 0.275937 0.845346 -0.253400
  H 3.808775 0.936640 1.393470
  H 3.924422 -0.833323 1.270194
  H 1.927322 -1.058590 2.730970
  H 1.840402 0.701936 2.876553
  H 2.684173 -0.677442 -3.055653
  H 2.750903 1.066073 -3.024708
  H 0.407534 1.180919 -2.270755
  H 0.311858 -0.595331 -2.269742
  H 4.975542 0.113860 -0.283464
  H 4.800799 0.148344 -3.328752
  H 6.858096 0.130691 -1.405465
 26
 59.729541
  C 0.872241 0.199700 0.330553
  C 2.329671 0.079619 0.071568
  C 3.217805 -0.001825 1.360683
  C 2.494504 -0.150464 2.692298
  H 3.235923 -0.191846 3.488417
  C 2.980682 0.147858 -1.139250
  C 2.340727 0.201020 -2.515642
  C 0.827144 0.264160 -2.695587
  H 0.611795 0.267323 -3.762814
  C 4.425671 0.130423 -1.213666
  C 5.171391 0.136247 -2.324433
  O 6.545727 0.140719 -2.325986
  H 0.526913 0.065505 1.337801
  H 1.457839 -0.713986 -0.117302
  H 0.259507 0.823310 -0.281037
  H 3.803106 0.919336 1.392188
  H 3.905722 -0.845033 1.259840
  H 1.914271 -1.069056 2.732787
  H 1.844782 0.696509 2.891988
  H 2.695647 -0.684560 -3.055414
  H 2.762098 1.069683 -3.031459
  H 0.413944 1.176333 -2.282475
  H 0.323348 -0.593280 -2.261805
  H 4.975469 0.130554 -0.286551
  H 4.797820 0.137336 -3.337465
  H 6.862831 0.146128 -1.417882
 26
 64.350897
  C 0.865514 0.243645 0.343464
  C 2.320389 0.085703 0.070234
  C 3.219247 -0.010728 1.352303
  C 2.512079 -0.167175 2.685395
  H 3.260551 -0.225217 3.467247
  C 2.974526 0.157764 -1.149582
  C 2.338221 0.201920 -2.524422
  C 0.829962 0.256435 -2.704591
  H 0.615924 0.243744 -3.765863
  C 4.413378 0.138799 -1.211574
  C 5.172274 0.134940 -2.317491
  O 6.541696 0.141734 -2.303285
  H 0.529255 0.127762 1.337545
  H 1.514535 -0.705763 -0.064410
  H 0.238282 0.810594 -0.306032
  H 3.807149 0.899079 1.386966
  H 3.896244 -0.850031 1.236423
  H 1.920348 -1.084834 2.722255
  H 1.872270 0.687668 2.904222
  H 2.698040 -0.690753 -3.060465
  H 2.757783 1.069157 -3.045195
  H 0.410987 1.178691 -2.302579
  H 0.329014 -0.602709 -2.256184
  H 4.958332 0.148279 -0.270785
  H 4.811521 0.125638 -3.331784
  H 6.848931 0.157494 -1.387538
 26
 67.804086
  C 0.878003 0.294113 0.339524
  C 2.329692 0.088601 0.070441
  C 3.222492 -0.023348 1.363257
  C 2.489575 -0.184833 2.688351
  H 3.225969 -0.263546 3.483573
  C 2.989583 0.164320 -1.155694
  C 2.346723 0.199808 -2.523292
  C 0.832772 0.244162 -2.689901
  H 0.605247 0.217064 -3.757067
  C 4.419876 0.147945 -1.222914
  C 5.176192 0.137202 -2.333692
  O 6.542190 0.150543 -2.323891
  H 0.524591 0.193975 1.353108
  H 1.577390 -0.706274 -0.026949
  H 0.244623 0.802766 -0.353423
  H 3.827002 0.891289 1.414044
  H 3.899117 -0.879334 1.244007
  H 1.884295 -1.090760 2.704985
  H 1.860937 0.674882 2.906254
  H 2.705041 -0.689683 -3.055736
  H 2.758166 1.065946 -3.051784
  H 0.415990 1.161830 -2.297322
  H 0.345135 -0.606952 -2.228234
  H 4.963857 0.168162 -0.294892
  H 4.812018 0.117066 -3.345997
  H 6.850970 0.176846 -1.410154
 26
 70.690736
  C 0.881667 0.344671 0.349096
  C 2.328331 0.088462 0.079117
  C 3.224963 -0.033786 1.363733
  C 2.493451 -0.200587 2.686188
  H 3.223012 -0.297403 3.474662
  C 2.989897 0.169308 -1.151543
  C 2.345370 0.197633 -2.525943
  C 0.833015 0.231369 -2.697751
  H 0.612055 0.192179 -3.751486
  C 4.421503 0.154954 -1.219324
  C 5.175492 0.139544 -2.331350
  O 6.547442 0.155904 -2.323092
  H 0.519942 0.250681 1.352450
  H 1.620543 -0.708054 0.012460
  H 0.242059 0.803926 -0.374548
  H 3.833015 0.867862 1.419429
  H 3.889315 -0.888600 1.233487
  H 1.875903 -1.097998 2.693564
  H 1.877561 0.663508 2.914751
  H 2.711942 -0.698672 -3.059418
  H 2.754083 1.067809 -3.058698
  H 0.408403 1.151583 -2.316341
  H 0.349013 -0.619144 -2.228816
  H 4.973691 0.182764 -0.282807
  H 4.807068 0.111588 -3.347323
  H 6.856293 0.188647 -1.412045
 26
 72.459860
  C 0.890511 0.402678 0.351722
  C 2.330534 0.088114 0.079757
  C 3.232290 -0.046079 1.367673
  C 2.494503 -0.217624 2.683369
  H 3.227746 -0.335554 3.485402
  C 2.994384 0.175104 -1.158048
  C 2.348060 0.194182 -2.526452
  C 0.834673 0.213838 -2.697734
  H 0.610348 0.158337 -3.764760
  C 4.419185 0.161928 -1.222959
  C 5.180983 0.142167 -2.334885
  O 6.544462 0.160877 -2.319657
  H 0.514519 0.301707 1.346879
  H 1.655209 -0.713825 0.029712
  H 0.248879 0.818000 -0.389145
  H 3.847383 0.848516 1.431358
  H 3.889280 -0.906187 1.228764
  H 1.862944 -1.106200 2.675684
  H 1.886695 0.655152 2.917772
  H 2.716208 -0.690322 -3.050564
  H 2.747651 1.057681 -3.060601
  H 0.399461 1.143350 -2.324756
  H 0.355248 -0.640522 -2.213864
  H 4.964674 0.197227 -0.292977
  H 4.820758 0.107466 -3.344552
  H 6.849766 0.199426 -1.402443
 26
 73.651903
  C 0.899627 0.472570 0.356274
  C 2.325993 0.089888 0.076589
  C 3.240072 -0.060778 1.362420
  C 2.499617 -0.239329 2.684401
  H 3.227267 -0.378319 3.478642
  C 2.991107 0.182225 -1.167860
  C 2.340222 0.188265 -2.532418
  C 0.825235 0.189664 -2.697505
  H 0.598023 0.114849 -3.754126
  C 4.423384 0.168222 -1.225294
  C 5.195245 0.144577 -2.328424
  O 6.562838 0.169402 -2.298123
  H 0.507947 0.350800 1.349475
  H 1.677132 -0.715678 0.033606
  H 0.251036 0.860281 -0.399294
  H 3.867431 0.830445 1.431418
  H 3.887919 -0.927604 1.208762
  H 1.855200 -1.115300 2.666735
  H 1.906543 0.636908 2.930755
  H 2.716674 -0.701072 -3.054927
  H 2.731011 1.055016 -3.075950
  H 0.382986 1.116137 -2.339509
  H 0.359836 -0.657368 -2.199862
  H 4.964971 0.208643 -0.286202
  H 4.843187 0.105026 -3.346588
  H 6.857606 0.213287 -1.380588
 26
 73.263988
  C 0.936020 0.589218 0.365474
  C 2.323534 0.089814 0.080911
  C 3.240317 -0.088973 1.363783
  C 2.496322 -0.271004 2.677128
  H 3.219636 -0.445692 3.471387
  C 2.997177 0.190979 -1.169773
  C 2.342448 0.177872 -2.533274
  C 0.827885 0.144867 -2.690870
  H 0.595445 0.038650 -3.749780
  C 4.419943 0.177559 -1.223939
  C 5.195580 0.152173 -2.329310
  O 6.560804 0.191349 -2.298495
  H 0.509311 0.422175 1.334096
  H 1.688860 -0.716766 0.035472
  H 0.289095 0.951068 -0.403970
  H 3.882579 0.786912 1.444390
  H 3.868684 -0.965364 1.196226
  H 1.826140 -1.128836 2.640703
  H 1.926437 0.617432 2.937670
  H 2.732786 -0.706204 -3.050109
  H 2.714361 1.046372 -3.084875
  H 0.368262 1.069492 -2.353264
  H 0.382952 -0.699808 -2.168381
  H 4.958695 0.227515 -0.286712
  H 4.845123 0.107988 -3.342098
  H 6.855439 0.242702 -1.380429
 26
 70.768967
  C 1.006590 0.757137 0.373703
  C 2.325622 0.093676 0.086047
  C 3.230213 -0.133149 1.364867
  C 2.469878 -0.321225 2.665929
  H 3.178179 -0.546133 3.462959
  C 3.010901 0.196226 -1.169184
  C 2.343538 0.157497 -2.529249
  C 0.829157 0.065012 -2.664338
  H 0.585332 -0.080126 -3.713360
  C 4.428961 0.193652 -1.226016
  C 5.199811 0.173256 -2.338158
  O 6.563597 0.228445 -2.316126
  H 0.513683 0.527783 1.302654
  H 1.689871 -0.711023 0.019328
  H 0.386910 1.132539 -0.414952
  H 3.896480 0.718692 1.470618
  H 3.832140 -1.024101 1.181584
  H 1.765268 -1.151589 2.598598
  H 1.931737 0.581896 2.943656
  H 2.757527 -0.717956 -3.046142
  H 2.679405 1.033935 -3.092966
  H 0.337976 0.978032 -2.345341
  H 0.424662 -0.779374 -2.109743
  H 4.971385 0.255225 -0.291869
  H 4.839618 0.123103 -3.350417
  H 6.864485 0.285050 -1.401177
