 13
 0.000000
  C 1.007538 -0.071144 0.048857
  C 2.504932 -0.084030 0.022438
  C 3.218949 -0.596945 -0.982628
  C 4.660188 -0.608941 -1.007200
  C 5.372458 -1.118488 -2.009341
  H 6.445296 -1.125455 -2.021571
  H 0.648329 0.397441 0.963269
  H 0.610003 -1.085124 0.013363
  H 0.609935 0.490773 -0.795383
  H 3.007922 0.352297 0.874678
  H 2.707395 -1.030601 -1.832494
  H 5.165653 -0.174989 -0.154121
  H 4.870824 -1.551441 -2.862001
 13
 -0.103230
  C 1.012097 -0.100640 0.064411
  C 2.504661 -0.095565 0.033358
  C 3.225559 -0.433278 -1.034954
  C 4.665382 -0.546890 -1.032825
  C 5.350124 -1.151380 -1.998041
  H 6.419155 -1.270180 -1.962239
  H 0.631046 0.536840 0.857958
  H 0.660587 -1.118493 0.244748
  H 0.599445 0.227885 -0.887515
  H 3.005385 0.145948 0.961939
  H 2.726272 -0.686617 -1.961854
  H 5.176361 -0.158381 -0.161150
  H 4.853500 -1.555523 -2.865417
 13
 3.098827
  C 1.047096 -0.173466 0.034111
  C 2.529642 0.001072 0.015543
  C 3.264550 -0.174055 -1.080155
  C 4.691939 -0.416195 -1.057213
  C 5.252553 -1.260710 -1.913287
  H 6.278214 -1.579909 -1.848086
  H 0.592171 0.280861 0.909704
  H 0.867629 -1.250098 0.062068
  H 0.583720 0.225515 -0.865271
  H 3.016476 0.105474 0.976690
  H 2.772960 -0.301396 -2.037066
  H 5.244510 -0.030653 -0.210542
  H 4.688469 -1.658252 -2.742155
 13
 9.429185
  C 1.112130 -0.246083 -0.004086
  C 2.549895 0.102147 -0.003851
  C 3.297675 0.024571 -1.094438
  C 4.716298 -0.333338 -1.051658
  C 5.120364 -1.321038 -1.842502
  H 6.072375 -1.810566 -1.748011
  H 0.596558 0.022677 0.914342
  H 1.124609 -1.336513 -0.119109
  H 0.583401 0.191352 -0.861654
  H 3.045199 0.109966 0.973284
  H 2.816074 -0.033647 -2.062154
  H 5.285396 -0.012069 -0.214473
  H 4.506306 -1.639172 -2.667767
 13
 17.647189
  C 1.192922 -0.339600 -0.051078
  C 2.577052 0.205763 0.003510
  C 3.353324 0.211175 -1.079521
  C 4.710920 -0.303971 -1.036569
  C 4.950924 -1.351730 -1.807491
  H 5.833294 -1.968884 -1.722722
  H 0.606045 -0.164060 0.843966
  H 1.408973 -1.413440 -0.148223
  H 0.647097 -0.000989 -0.932722
  H 3.039031 0.244385 0.986094
  H 2.869167 0.156794 -2.045170
  H 5.311642 -0.085611 -0.175312
  H 4.320138 -1.557298 -2.651642
 13
 28.089567
  C 1.292772 -0.427548 -0.089334
  C 2.593096 0.299330 0.003695
  C 3.370843 0.342326 -1.087006
  C 4.688535 -0.263098 -1.055055
  C 4.785555 -1.393059 -1.747333
  H 5.605742 -2.079227 -1.622512
  H 0.693865 -0.393326 0.814354
  H 1.688714 -1.446891 -0.243998
  H 0.701504 -0.139970 -0.953407
  H 3.057430 0.321632 0.982687
  H 2.875446 0.334973 -2.056819
  H 5.297107 -0.092323 -0.176670
  H 4.163408 -1.566860 -2.608956
 13
 41.188592
  C 1.431613 -0.518792 -0.119131
  C 2.609071 0.393453 -0.012264
  C 3.389652 0.478263 -1.113006
  C 4.643304 -0.247291 -1.046415
  C 4.585502 -1.416956 -1.686404
  H 5.325527 -2.184457 -1.521815
  H 0.872073 -0.651429 0.799398
  H 1.995489 -1.449165 -0.353562
  H 0.774471 -0.303743 -0.956791
  H 3.064745 0.482014 0.967939
  H 2.871044 0.397356 -2.066427
  H 5.248026 -0.132049 -0.158226
  H 4.001719 -1.535616 -2.583104
 13
 53.828318
  C 1.556591 -0.578516 -0.146340
  C 2.630501 0.438420 0.003240
  C 3.375588 0.569255 -1.130447
  C 4.584855 -0.223095 -1.072855
  C 4.385060 -1.443191 -1.602175
  H 5.088086 -2.237292 -1.394580
  H 0.984905 -0.807963 0.744455
  H 2.250231 -1.441465 -0.396123
  H 0.921409 -0.455582 -1.018491
  H 3.149032 0.435892 0.954997
  H 2.835140 0.514753 -2.072726
  H 5.222041 -0.109166 -0.205821
  H 3.835731 -1.573160 -2.520686
 13
 70.153609
  C 1.693198 -0.598363 -0.175544
  C 2.662441 0.453874 -0.010297
  C 3.366781 0.580650 -1.142444
  C 4.512694 -0.234580 -1.052211
  C 4.202829 -1.440985 -1.533696
  H 4.854744 -2.283832 -1.290353
  H 1.207973 -0.970626 0.704067
  H 2.508840 -1.426754 -0.538652
  H 1.017221 -0.544116 -1.029487
  H 3.184515 0.516096 0.931020
  H 2.793491 0.477438 -2.076800
  H 5.119188 -0.151132 -0.164760
  H 3.717725 -1.545363 -2.491505
 13
 77.856391
  C 1.734004 -0.600854 -0.158153
  C 2.626051 0.473544 0.011960
  C 3.375566 0.616201 -1.166484
  C 4.478011 -0.244842 -1.044596
  C 4.098230 -1.518307 -1.506497
  H 4.736688 -2.352057 -1.255253
  H 1.263316 -1.004364 0.725973
  H 2.804882 -1.563494 -0.685324
  H 1.098438 -0.621097 -1.033001
  H 3.112981 0.600976 0.969721
  H 2.814463 0.534978 -2.094708
  H 5.113318 -0.174351 -0.171753
  H 3.636831 -1.606261 -2.480744
 13
 65.315295
  C 1.651852 -0.506008 -0.086103
  C 2.585146 0.475272 0.045430
  C 3.347211 0.564593 -1.167167
  C 4.446310 -0.257846 -1.060670
  C 4.112397 -1.618291 -1.517551
  H 4.813730 -2.391424 -1.245665
  H 1.174921 -0.893627 0.803600
  H 3.105319 -1.748146 -0.883706
  H 1.039598 -0.569784 -0.970530
  H 3.122526 0.560869 0.979481
  H 2.784263 0.505813 -2.093392
  H 5.046173 -0.192026 -0.161547
  H 3.753431 -1.715089 -2.541318
 13
 51.908099
  C 1.555658 -0.417980 0.004863
  C 2.528234 0.482782 0.069249
  C 3.348006 0.463395 -1.144976
  C 4.422428 -0.364372 -1.010632
  C 4.212077 -1.701786 -1.601189
  H 4.995393 -2.430144 -1.420743
  H 1.032830 -0.713501 0.893146
  H 3.297864 -1.954496 -0.977925
  H 1.008508 -0.581406 -0.901489
  H 2.997217 0.724295 0.993127
  H 2.789935 0.351972 -2.062896
  H 5.036170 -0.294488 -0.110899
  H 3.885004 -1.703034 -2.637033
 13
 38.363154
  C 1.434829 -0.302734 0.080188
  C 2.500177 0.486883 0.074966
  C 3.315821 0.317546 -1.113222
  C 4.403191 -0.474488 -0.979400
  C 4.352858 -1.776667 -1.674333
  H 5.243136 -2.415174 -1.531647
  H 0.875897 -0.501672 0.999757
  H 3.482213 -2.187183 -1.126436
  H 0.921416 -0.537863 -0.803418
  H 2.954264 0.797863 0.967916
  H 2.769692 0.200910 -2.043067
  H 4.968053 -0.423820 -0.040722
  H 4.063918 -1.711534 -2.734059
 13
 24.810635
  C 1.308834 -0.163328 0.163153
  C 2.467188 0.483940 0.110769
  C 3.264479 0.200078 -1.068989
  C 4.366017 -0.553445 -0.958297
  C 4.463300 -1.813737 -1.754278
  H 5.411735 -2.333411 -1.655043
  H 0.729166 -0.239736 1.069847
  H 3.662073 -2.385303 -1.263868
  H 0.802036 -0.472797 -0.733690
  H 2.964242 0.826281 1.006063
  H 2.704903 0.117768 -1.997098
  H 4.940642 -0.513027 -0.039724
  H 4.200851 -1.681217 -2.802321
 13
 0.245315
  C 1.025384 0.373320 0.303564
  C 2.343392 0.245435 0.198018
  C 2.986785 -0.405153 -0.922792
  C 4.199445 -0.953989 -0.852128
  C 4.801952 -1.783646 -1.941769
  H 5.883445 -1.671951 -1.970885
  H 0.556543 0.819668 1.164333
  H 4.576453 -2.835906 -1.760490
  H 0.367056 0.023467 -0.475666
  H 2.986753 0.566879 1.007583
  H 2.391282 -0.523658 -1.819862
  H 4.778047 -0.869396 0.057864
  H 4.388931 -1.513002 -2.911246
