 26
 0.000000
  C 0.999910 0.147532 0.418747
  C 2.474771 0.139206 0.397210
  C 3.243808 0.608002 1.563289
  H 2.631566 0.940855 2.392149
  C 3.083537 -0.327065 -0.763644
  C 4.458464 -0.415255 -0.984161
  C 5.125180 -0.869948 -2.117133
  C 4.614782 -1.390567 -3.414673
  C 3.122730 -1.505054 -3.701472
  C 2.903098 -2.067667 -5.103619
  O 6.445883 -0.869885 -2.117181
  H 0.594614 0.523055 1.353541
  H 0.616777 -0.860534 0.255330
  H 0.616284 0.762122 -0.396626
  H 3.897743 1.428927 1.262031
  H 3.898266 -0.192706 1.913705
  H 2.418514 -0.642772 -1.548922
  H 5.091225 -0.087266 -0.167677
  H 5.071135 -2.378905 -3.543311
  H 5.071890 -0.765836 -4.190833
  H 2.649231 -0.524192 -3.648831
  H 2.648517 -2.177068 -2.985514
  H 3.344362 -1.420315 -5.857802
  H 1.839497 -2.150873 -5.312097
  H 3.343715 -3.057115 -5.200930
  H 6.843587 -0.538631 -1.290086
 26
 14.430247
  C 1.011207 0.212055 0.580401
  C 2.537177 0.109211 0.323017
  C 3.399055 0.558334 1.438361
  H 2.799760 0.893865 2.273581
  C 2.878971 -0.378717 -0.890696
  C 4.224912 -0.403588 -0.954597
  C 5.020549 -0.850306 -2.067629
  C 4.602622 -1.382366 -3.393445
  C 3.130728 -1.531714 -3.767906
  C 3.011973 -2.098496 -5.181525
  O 6.360240 -0.810575 -1.969372
  H 0.774850 0.605614 1.559304
  H 0.560256 -0.769968 0.473952
  H 0.559644 0.846746 -0.176122
  H 4.037251 1.385425 1.134372
  H 4.038436 -0.248097 1.791452
  H 2.179425 -0.680545 -1.640520
  H 4.825930 -0.071019 -0.127913
  H 5.096083 -2.358139 -3.495138
  H 5.096767 -0.748002 -4.141274
  H 2.632975 -0.562121 -3.744668
  H 2.631708 -2.215994 -3.081476
  H 3.484329 -1.439926 -5.906519
  H 1.966401 -2.208446 -5.457825
  H 3.482997 -3.076159 -5.250384
  H 6.708244 -0.467290 -1.111700
 26
 51.510440
  C 1.057932 0.246279 0.658393
  C 2.613106 0.079218 0.246829
  C 3.478804 0.525117 1.366383
  H 2.866475 0.861143 2.199320
  C 2.741486 -0.408674 -0.970627
  C 4.059967 -0.399655 -0.947542
  C 4.964051 -0.843202 -2.055104
  C 4.609997 -1.380190 -3.391088
  C 3.162931 -1.542508 -3.790812
  C 3.078030 -2.110824 -5.205933
  O 6.255150 -0.769883 -1.879474
  H 0.913048 0.643423 1.652292
  H 0.580605 -0.727977 0.583756
  H 0.583632 0.902774 -0.067313
  H 4.114175 1.365773 1.084256
  H 4.107218 -0.282727 1.744664
  H 1.993376 -0.691026 -1.677648
  H 4.668835 -0.075418 -0.135660
  H 5.115991 -2.349705 -3.481037
  H 5.113968 -0.741267 -4.127106
  H 2.657506 -0.575967 -3.775358
  H 2.659452 -2.230961 -3.110725
  H 3.558628 -1.447792 -5.922211
  H 2.039414 -2.231310 -5.503459
  H 3.560165 -3.084296 -5.265145
  H 6.549374 -0.418271 -1.008693
 26
 100.398362
  C 1.050682 0.264973 0.707856
  C 2.690130 0.056496 0.192893
  C 3.521886 0.516602 1.339960
  H 2.896952 0.847618 2.164629
  C 2.664697 -0.433875 -1.027507
  C 3.974444 -0.387373 -0.914886
  C 4.948236 -0.841259 -2.048871
  C 4.624127 -1.379777 -3.388845
  C 3.173114 -1.547741 -3.807217
  C 3.103761 -2.116368 -5.222173
  O 6.233388 -0.752131 -1.831002
  H 0.951623 0.663406 1.702710
  H 0.575970 -0.710398 0.648914
  H 0.578351 0.931563 -0.008191
  H 4.153563 1.365583 1.066212
  H 4.153913 -0.286226 1.728549
  H 1.894399 -0.706306 -1.707413
  H 4.641645 -0.080460 -0.144162
  H 5.138961 -2.347904 -3.470358
  H 5.139360 -0.737484 -4.117471
  H 2.666365 -0.583209 -3.797190
  H 2.666067 -2.236720 -3.132341
  H 3.590740 -1.451520 -5.933620
  H 2.068151 -2.239844 -5.531234
  H 3.589650 -3.089246 -5.275835
  H 6.497607 -0.401784 -0.958580
 26
 144.604074
  C 1.012735 0.303470 0.748050
  C 2.763801 0.029716 0.171989
  C 3.540164 0.539889 1.345148
  H 2.898091 0.889092 2.134427
  C 2.627538 -0.508222 -1.027351
  C 3.940284 -0.402851 -0.861034
  C 4.953293 -0.859812 -2.055794
  C 4.635713 -1.384778 -3.398722
  C 3.187377 -1.548930 -3.828028
  C 3.125532 -2.104130 -5.260550
  O 6.233740 -0.776764 -1.817389
  H 0.943661 0.720970 1.731931
  H 0.556376 -0.672816 0.709847
  H 0.557588 0.959987 0.021354
  H 4.166582 1.378528 1.056500
  H 4.168431 -0.241514 1.769315
  H 1.845720 -0.788632 -1.679151
  H 4.678850 -0.132490 -0.133856
  H 5.144842 -2.346595 -3.488722
  H 5.147471 -0.736903 -4.113452
  H 2.679460 -0.582955 -3.808254
  H 2.678205 -2.248035 -3.162576
  H 3.614168 -1.432084 -5.960619
  H 2.087842 -2.225757 -5.578677
  H 3.611526 -3.073810 -5.324388
  H 6.486606 -0.431467 -0.938109
 26
 129.938427
  C 0.549403 0.373796 0.662866
  C 3.207505 -0.087019 0.092028
  C 3.547946 0.663132 1.271824
  H 2.643189 1.017777 1.764017
  C 2.866034 -0.874200 -0.828226
  C 4.404477 -0.660954 -0.850978
  C 5.093870 -0.948420 -2.006184
  C 4.647476 -1.378583 -3.374360
  C 3.167668 -1.522352 -3.712123
  C 3.000762 -1.907461 -5.177019
  O 6.435794 -0.915362 -2.003509
  H 0.454777 0.984476 1.539142
  H 0.281738 -0.659484 0.741327
  H 0.304807 0.864109 -0.259927
  H 4.133363 1.542958 1.009278
  H 4.084404 0.034786 1.980734
  H 2.071873 -1.259743 -1.407650
  H 5.156813 -0.448221 -0.094017
  H 5.160473 -2.318468 -3.594348
  H 5.082522 -0.630849 -4.046753
  H 2.652494 -0.576423 -3.534123
  H 2.716192 -2.294210 -3.089985
  H 3.428805 -1.149897 -5.830087
  H 1.947619 -2.012006 -5.425610
  H 3.491591 -2.854772 -5.387752
  H 6.852402 -0.633814 -1.172258
 26
 106.263605
  C 0.343704 0.223515 0.266310
  C 3.364731 -0.156343 0.151068
  C 3.460780 0.938872 1.047771
  H 2.437407 1.191681 1.338094
  C 3.263281 -1.267425 -0.460444
  C 4.730626 -0.994464 -0.755615
  C 5.292646 -1.136467 -1.997717
  C 4.654169 -1.343224 -3.334892
  C 3.137611 -1.414307 -3.460746
  C 2.746809 -1.514099 -4.933265
  O 6.612532 -1.155309 -2.118247
  H 0.107637 1.030044 0.929050
  H 0.289873 -0.778574 0.637087
  H 0.319513 0.400369 -0.788566
  H 3.898644 1.815360 0.570345
  H 4.030397 0.680103 1.942412
  H 2.574872 -1.942572 -0.899588
  H 5.427541 -0.890645 0.068153
  H 5.096986 -2.243764 -3.768629
  H 5.021088 -0.516421 -3.951655
  H 2.677648 -0.520828 -3.036512
  H 2.756945 -2.299539 -2.954279
  H 3.092516 -0.644743 -5.488008
  H 1.666363 -1.572552 -5.036146
  H 3.178545 -2.401892 -5.389428
  H 7.108828 -0.988764 -1.292722
