 19
 0.000000
  C 0.973367 0.182176 0.496070
  C 2.425228 0.120660 0.345451
  H 3.064859 0.442820 1.154586
  C 2.986670 -0.348650 -0.820778
  C 4.375588 -0.421488 -1.001755
  C 5.076671 -0.863274 -2.100883
  C 4.649898 -1.385348 -3.400000
  C 3.180317 -1.526989 -3.752868
  H 3.088921 -1.930405 -4.756793
  H 6.156232 -0.829243 -2.016219
  H 0.665129 0.572290 1.461224
  H 0.536200 -0.810946 0.357718
  H 0.539633 0.801048 -0.292970
  H 2.322401 -0.664937 -1.607582
  H 4.972779 -0.084100 -0.162753
  H 5.143543 -2.361636 -3.513206
  H 5.143845 -0.759194 -4.157295
  H 2.677894 -0.562824 -3.733647
  H 2.677726 -2.209632 -3.071872
 19
 3.204159
  C 0.984581 0.223177 0.510176
  C 2.399479 0.115098 0.330516
  H 3.059030 0.425607 1.133576
  C 2.961657 -0.357148 -0.832346
  C 4.348995 -0.428897 -0.997766
  C 5.060260 -0.866819 -2.088601
  C 4.648359 -1.385455 -3.392954
  C 3.182692 -1.526695 -3.760746
  H 3.104495 -1.927568 -4.768112
  H 6.138271 -0.829395 -1.983587
  H 0.668641 0.584347 1.483276
  H 0.735237 -0.801049 0.347020
  H 0.493216 0.802075 -0.275403
  H 2.303758 -0.672804 -1.624423
  H 4.937058 -0.092439 -0.152634
  H 5.147584 -2.358992 -3.506846
  H 5.153709 -0.760426 -4.143958
  H 2.678440 -0.563555 -3.747146
  H 2.672778 -2.213815 -3.090122
 19
 7.898437
  C 0.963644 0.273913 0.523277
  C 2.386554 0.133473 0.337562
  H 3.064862 0.436127 1.129605
  C 2.945992 -0.359422 -0.823763
  C 4.337266 -0.445647 -0.982433
  C 5.058798 -0.885070 -2.082061
  C 4.652218 -1.388987 -3.401447
  C 3.187210 -1.514736 -3.782892
  H 3.116192 -1.901978 -4.797436
  H 6.137224 -0.859094 -1.963613
  H 0.645247 0.667230 1.477999
  H 0.927495 -0.811992 0.438417
  H 0.399418 0.696779 -0.309519
  H 2.291872 -0.670449 -1.618676
  H 4.924285 -0.118172 -0.132010
  H 5.146185 -2.363682 -3.525054
  H 5.169988 -0.762381 -4.142170
  H 2.690000 -0.548330 -3.764198
  H 2.667514 -2.209994 -3.128843
 19
 13.681903
  C 0.959000 0.302251 0.516513
  C 2.378966 0.128209 0.334206
  H 3.058357 0.426879 1.130008
  C 2.945814 -0.369096 -0.832734
  C 4.329417 -0.459785 -0.982163
  C 5.050853 -0.892613 -2.070302
  C 4.651026 -1.386487 -3.397286
  C 3.185447 -1.502750 -3.784231
  H 3.116274 -1.881164 -4.802653
  H 6.129100 -0.872471 -1.944764
  H 0.631390 0.722334 1.447321
  H 1.085061 -0.798577 0.499320
  H 0.359971 0.615630 -0.336217
  H 2.296921 -0.674786 -1.633276
  H 4.912085 -0.139916 -0.128134
  H 5.139617 -2.363578 -3.524053
  H 5.172726 -0.754421 -4.130701
  H 2.693198 -0.534442 -3.759500
  H 2.661626 -2.201879 -3.138329
 19
 19.113750
  C 0.952534 0.331647 0.515570
  C 2.366917 0.120291 0.333297
  H 3.043882 0.415149 1.124697
  C 2.935799 -0.378258 -0.834719
  C 4.327273 -0.471996 -0.982059
  C 5.050614 -0.900237 -2.068383
  C 4.656165 -1.385716 -3.398114
  C 3.191974 -1.497033 -3.787608
  H 3.125056 -1.868427 -4.807901
  H 6.126486 -0.883537 -1.940623
  H 0.611122 0.771025 1.439428
  H 1.208648 -0.787719 0.538650
  H 0.331340 0.568025 -0.334998
  H 2.285604 -0.679352 -1.639260
  H 4.909919 -0.156520 -0.124319
  H 5.141374 -2.362846 -3.527718
  H 5.178218 -0.748885 -4.125647
  H 2.701299 -0.527375 -3.758092
  H 2.666151 -2.200557 -3.147444
 19
 22.206773
  C 0.953753 0.358270 0.520396
  C 2.350897 0.111323 0.333314
  H 3.030579 0.403322 1.127056
  C 2.926915 -0.386227 -0.839011
  C 4.321746 -0.482341 -0.979665
  C 5.048880 -0.903432 -2.055013
  C 4.663166 -1.385693 -3.402520
  C 3.196252 -1.493968 -3.805419
  H 3.136050 -1.859717 -4.830453
  H 6.125017 -0.888542 -1.917955
  H 0.623109 0.815956 1.420306
  H 1.307472 -0.753419 0.621328
  H 0.300763 0.502191 -0.338317
  H 2.277451 -0.681528 -1.646335
  H 4.902152 -0.171724 -0.116860
  H 5.146471 -2.364282 -3.532380
  H 5.188868 -0.742948 -4.122670
  H 2.706718 -0.523868 -3.773953
  H 2.665345 -2.201556 -3.173317
 19
 24.137936
  C 0.956498 0.377599 0.519822
  C 2.343648 0.104270 0.338575
  H 3.010622 0.393594 1.128197
  C 2.926060 -0.393510 -0.842135
  C 4.309101 -0.490569 -0.976186
  C 5.043807 -0.908311 -2.049806
  C 4.667619 -1.386516 -3.408873
  C 3.208428 -1.492461 -3.822898
  H 3.157030 -1.852389 -4.848195
  H 6.117373 -0.894595 -1.904740
  H 0.622435 0.866668 1.418302
  H 1.390372 -0.721052 0.692945
  H 0.292711 0.440885 -0.328731
  H 2.275163 -0.684245 -1.652674
  H 4.884168 -0.184410 -0.110773
  H 5.148814 -2.361714 -3.538783
  H 5.195632 -0.741964 -4.119804
  H 2.719296 -0.522627 -3.790698
  H 2.673232 -2.203004 -3.198851
 19
 25.564576
  C 0.948309 0.384448 0.486581
  C 2.342969 0.089084 0.330524
  H 3.021969 0.392550 1.140245
  C 2.928397 -0.402348 -0.850293
  C 4.319439 -0.502793 -0.981327
  C 5.056278 -0.920408 -2.063541
  C 4.673847 -1.381111 -3.398531
  C 3.203851 -1.472078 -3.789686
  H 3.132626 -1.826401 -4.817667
  H 6.132473 -0.913120 -1.926109
  H 0.602089 0.892908 1.360879
  H 1.454049 -0.710021 0.726997
  H 0.279286 0.372047 -0.362991
  H 2.283739 -0.684641 -1.656639
  H 4.894520 -0.201963 -0.115058
  H 5.149706 -2.368162 -3.537607
  H 5.201682 -0.728269 -4.116575
  H 2.723108 -0.497144 -3.743708
  H 2.671903 -2.181853 -3.159917
 19
 26.962822
  C 0.951028 0.402590 0.492010
  C 2.342918 0.085852 0.346875
  H 3.009713 0.387941 1.127793
  C 2.930499 -0.406157 -0.843763
  C 4.311771 -0.507704 -0.975770
  C 5.051488 -0.921758 -2.056363
  C 4.677110 -1.381541 -3.403173
  C 3.216658 -1.473858 -3.806977
  H 3.156209 -1.826899 -4.841640
  H 6.129462 -0.914761 -1.913585
  H 0.599753 0.923265 1.362631
  H 1.511886 -0.690579 0.773316
  H 0.276866 0.336561 -0.349276
  H 2.280421 -0.685508 -1.652069
  H 4.884762 -0.211637 -0.110464
  H 5.150779 -2.360678 -3.539251
  H 5.204364 -0.729087 -4.109247
  H 2.734772 -0.499186 -3.762335
  H 2.680967 -2.187277 -3.183433
 19
 28.566492
  C 0.956890 0.413027 0.482321
  C 2.337202 0.080177 0.354145
  H 3.012487 0.395141 1.129370
  C 2.925710 -0.411661 -0.838208
  C 4.311500 -0.513649 -0.973160
  C 5.052088 -0.924052 -2.052474
  C 4.682692 -1.378225 -3.397216
  C 3.216693 -1.469888 -3.807882
  H 3.159829 -1.821884 -4.851505
  H 6.135745 -0.918261 -1.908356
  H 0.599055 0.940263 1.347612
  H 1.559933 -0.680634 0.796166
  H 0.284203 0.301602 -0.352891
  H 2.277559 -0.687399 -1.638960
  H 4.882245 -0.223006 -0.112888
  H 5.163375 -2.371535 -3.535765
  H 5.219270 -0.712135 -4.109681
  H 2.734282 -0.493528 -3.761079
  H 2.678543 -2.186870 -3.187103
 19
 29.836012
  C 0.954427 0.422539 0.464285
  C 2.347137 0.071127 0.358200
  H 3.033670 0.411285 1.144970
  C 2.939446 -0.417641 -0.837012
  C 4.319143 -0.516214 -0.964204
  C 5.058702 -0.925273 -2.046836
  C 4.680694 -1.379302 -3.403960
  C 3.222322 -1.464928 -3.803260
  H 3.158379 -1.805927 -4.823879
  H 6.130559 -0.920178 -1.904128
  H 0.584907 0.949231 1.324351
  H 1.605799 -0.690359 0.806476
  H 0.284620 0.277894 -0.371186
  H 2.277456 -0.702498 -1.663296
  H 4.901765 -0.220958 -0.081404
  H 5.148048 -2.354097 -3.546826
  H 5.203772 -0.727123 -4.104389
  H 2.746942 -0.497041 -3.751680
  H 2.690642 -2.174815 -3.188307
 19
 30.891875
  C 0.953044 0.432587 0.449366
  C 2.349916 0.063200 0.364627
  H 3.025067 0.415149 1.139785
  C 2.949384 -0.421899 -0.833446
  C 4.329934 -0.519259 -0.959950
  C 5.069903 -0.926245 -2.043394
  C 4.689162 -1.376415 -3.398079
  C 3.218220 -1.460061 -3.794563
  H 3.148391 -1.804390 -4.831619
  H 6.146044 -0.920545 -1.901583
  H 0.573426 0.956379 1.310620
  H 1.646032 -0.700944 0.811232
  H 0.290686 0.266758 -0.382621
  H 2.299277 -0.703945 -1.647215
  H 4.905234 -0.228342 -0.087589
  H 5.158164 -2.356104 -3.545056
  H 5.213641 -0.720210 -4.101885
  H 2.738887 -0.481656 -3.738648
  H 2.682030 -2.178024 -3.172381
 19
 32.074926
  C 0.955002 0.443983 0.436344
  C 2.349678 0.055821 0.371969
  H 3.021595 0.421258 1.139845
  C 2.953439 -0.424049 -0.829743
  C 4.337121 -0.521123 -0.957614
  C 5.075739 -0.926921 -2.043330
  C 4.689965 -1.375002 -3.397279
  C 3.222835 -1.455413 -3.783677
  H 3.147284 -1.794134 -4.807232
  H 6.150815 -0.921960 -1.904654
  H 0.569070 0.959045 1.295788
  H 1.687897 -0.716759 0.816255
  H 0.293005 0.258925 -0.397127
  H 2.304970 -0.705195 -1.639411
  H 4.908546 -0.235721 -0.093273
  H 5.158566 -2.358736 -3.547796
  H 5.213389 -0.716256 -4.104802
  H 2.750242 -0.486724 -3.724631
  H 2.694436 -2.165495 -3.165826
 19
 32.949981
  C 0.964140 0.457072 0.427567
  C 2.351255 0.049918 0.384832
  H 3.029318 0.435119 1.151986
  C 2.955242 -0.426165 -0.821159
  C 4.337318 -0.522048 -0.951636
  C 5.079694 -0.925415 -2.037012
  C 4.700789 -1.372239 -3.392709
  C 3.222829 -1.457834 -3.794467
  H 3.154664 -1.797963 -4.825999
  H 6.157146 -0.918626 -1.894846
  H 0.570216 0.969176 1.289855
  H 1.737367 -0.736305 0.828887
  H 0.307639 0.254007 -0.398938
  H 2.295637 -0.710642 -1.635515
  H 4.900817 -0.242865 -0.099011
  H 5.170542 -2.347939 -3.539139
  H 5.222472 -0.716454 -4.088832
  H 2.743645 -0.485513 -3.737746
  H 2.688405 -2.174268 -3.177889
