 14
 0.000000
  C 0.957221 0.139289 0.398343
  C 2.413762 0.110415 0.328566
  H 2.987082 0.451925 1.180004
  C 3.076539 -0.339815 -0.792454
  C 4.469589 -0.379073 -0.891354
  C 5.135680 -0.830006 -2.015178
  H 4.625085 -1.187552 -2.903848
  O 6.421636 -0.879294 -2.141357
  H 0.586358 0.519373 1.344878
  H 0.553451 -0.862098 0.227337
  H 0.554622 0.745485 -0.417451
  H 2.489340 -0.678588 -1.636124
  H 5.052371 -0.038355 -0.044302
  H 6.927418 -0.565235 -1.361984
 14
 14.272186
  C 0.913761 0.155656 0.438705
  C 2.356350 0.130877 0.379953
  H 2.930516 0.470651 1.227430
  C 3.088338 -0.361160 -0.844992
  C 4.474108 -0.392319 -0.923621
  C 5.138744 -0.838727 -2.036317
  H 4.642336 -1.196571 -2.925438
  O 6.554063 -0.888025 -2.163793
  H 0.538316 0.535032 1.383443
  H 0.512154 -0.846782 0.261800
  H 0.513726 0.758830 -0.382057
  H 2.505223 -0.699309 -1.687411
  H 5.048001 -0.049401 -0.070949
  H 7.035551 -0.571339 -1.379770
 14
 43.463298
  C 0.902360 0.171634 0.477988
  C 2.322882 0.148391 0.423579
  H 2.973715 0.469572 1.223484
  C 3.083951 -0.391757 -0.919471
  C 4.467729 -0.405876 -0.953947
  C 5.112178 -0.850870 -2.065739
  H 4.703261 -1.220605 -2.987738
  O 6.665879 -0.880778 -2.149136
  H 0.529044 0.555263 1.430624
  H 0.489320 -0.831392 0.284018
  H 0.491140 0.762182 -0.356658
  H 2.453301 -0.715317 -1.726861
  H 5.027398 -0.060532 -0.093393
  H 7.017108 -0.539169 -1.302028
 14
 79.045089
  C 0.875041 0.188572 0.520397
  C 2.278083 0.167834 0.471428
  H 2.959135 0.476848 1.241232
  C 3.077211 -0.413715 -0.975398
  C 4.454670 -0.421900 -0.995702
  C 5.095933 -0.863225 -2.096906
  H 4.751434 -1.239705 -3.033658
  O 6.795254 -0.876866 -2.138554
  H 0.498089 0.569769 1.467976
  H 0.463076 -0.808266 0.316338
  H 0.464306 0.767614 -0.316887
  H 2.422899 -0.729340 -1.762654
  H 5.007401 -0.074991 -0.131124
  H 7.074164 -0.526510 -1.269112
 14
 115.688347
  C 0.823230 0.206331 0.566482
  C 2.224646 0.190011 0.524402
  H 2.920165 0.497788 1.289218
  C 3.077106 -0.431687 -1.023456
  C 4.453594 -0.435034 -1.032531
  C 5.100456 -0.875794 -2.130558
  H 4.786995 -1.257362 -3.079837
  O 6.939560 -0.880922 -2.144132
  H 0.437653 0.588499 1.517233
  H 0.411840 -0.796782 0.354576
  H 0.411042 0.783261 -0.280674
  H 2.415488 -0.746020 -1.805577
  H 4.998913 -0.086559 -0.164903
  H 7.181479 -0.532554 -1.275651
 14
 149.726225
  C 0.805755 0.219858 0.600437
  C 2.194773 0.206028 0.562819
  H 2.926018 0.499284 1.290541
  C 3.049003 -0.448016 -1.065214
  C 4.421335 -0.449941 -1.068503
  C 5.058003 -0.888336 -2.161534
  H 4.824686 -1.274254 -3.123392
  O 7.078685 -0.867901 -2.112867
  H 0.414642 0.600607 1.547558
  H 0.393532 -0.778956 0.378906
  H 0.391547 0.785975 -0.250773
  H 2.357071 -0.751326 -1.820258
  H 4.967859 -0.101383 -0.200138
  H 7.246347 -0.519327 -1.239964
 14
 132.128213
  C 0.874692 0.218663 0.618876
  C 2.300474 0.098883 0.297597
  H 3.006176 0.381661 1.067362
  C 2.715344 -0.354391 -0.915298
  C 4.123918 -0.513108 -1.257705
  C 4.674074 -0.925178 -2.319754
  H 5.005111 -1.346723 -3.240163
  O 7.500881 -0.733499 -1.839315
  H 0.711903 0.628574 1.601607
  H 0.381945 -0.758469 0.540322
  H 0.351647 0.827465 -0.135675
  H 2.022005 -0.636586 -1.695916
  H 4.771212 -0.158090 -0.442865
  H 7.625345 -0.487637 -0.917657
 14
 129.771022
  C 0.892274 0.241377 0.673693
  C 2.288809 0.078000 0.263787
  H 3.052876 0.324619 0.988635
  C 2.622229 -0.375853 -0.965038
  C 3.967774 -0.577449 -1.420427
  C 4.632951 -0.958836 -2.413013
  H 5.218524 -1.345582 -3.215444
  O 7.478089 -0.679999 -1.641743
  H 0.804362 0.668614 1.666554
  H 0.374917 -0.721819 0.651746
  H 0.345303 0.855556 -0.045096
  H 1.862711 -0.648408 -1.685684
  H 4.725492 -0.226981 -0.682212
  H 7.781858 -0.395484 -0.773786
