 18
 0.000000
  C 0.903486 0.052572 0.203966
  C 2.402238 0.058719 0.094977
  C 3.256602 -0.011849 1.345669
  C 2.526569 -0.087183 2.680698
  H 3.250944 -0.132793 3.489019
  C 3.008690 0.125252 -1.084096
  C 2.359498 0.201151 -2.429165
  H 1.273708 0.199249 -2.395449
  H 4.091024 0.127461 -1.123220
  H 0.566923 -0.005497 1.233039
  H 0.487534 -0.803669 -0.325157
  H 0.487534 0.962911 -0.225476
  H 3.907538 0.867201 1.362714
  H 3.907546 -0.887238 1.263715
  H 1.901082 -0.975526 2.735693
  H 1.901051 0.789357 2.835282
  H 2.687542 -0.643150 -3.039576
  H 2.687551 1.108786 -2.940743
 18
 10.317832
  C 0.780975 0.054827 0.164051
  C 2.408991 0.061418 0.047184
  C 3.326051 -0.015660 1.413255
  C 2.576600 -0.090167 2.733618
  H 3.289618 -0.136411 3.553187
  C 3.016510 0.127235 -1.119207
  C 2.373602 0.203197 -2.465398
  H 1.288993 0.201284 -2.431484
  H 4.099228 0.129082 -1.151915
  H 0.449045 -0.003284 1.193854
  H 0.370571 -0.800583 -0.365902
  H 0.370573 0.964429 -0.266307
  H 3.974560 0.862449 1.432858
  H 3.974565 -0.890400 1.333950
  H 1.949558 -0.978189 2.778947
  H 1.949540 0.787124 2.878559
  H 2.702201 -0.640984 -3.074380
  H 2.702205 1.110536 -2.975559
 18
 31.019251
  C 0.691094 0.053864 0.181107
  C 2.432224 0.064348 -0.004714
  C 3.400422 -0.020379 1.496885
  C 2.569113 -0.090995 2.748317
  H 3.232062 -0.140010 3.617010
  C 3.039066 0.129835 -1.165252
  C 2.381493 0.205545 -2.506953
  H 1.299853 0.200694 -2.420954
  H 4.123353 0.131154 -1.188624
  H 0.465855 -0.005656 1.235862
  H 0.331907 -0.812965 -0.354071
  H 0.331909 0.975401 -0.253152
  H 4.018240 0.871883 1.465451
  H 4.018245 -0.903437 1.365279
  H 1.939711 -0.981227 2.753524
  H 1.939696 0.793000 2.853638
  H 2.690605 -0.641119 -3.119622
  H 2.690609 1.115746 -3.020479
