 23
 0.000000
  C 1.018728 0.109195 0.322242
  C 2.493193 0.125587 0.363532
  C 3.239934 0.602960 1.551752
  C 2.418057 1.080958 2.741656
  H 3.086130 1.400781 3.538033
  C 3.155396 -0.330323 -0.771271
  C 4.538850 -0.395531 -0.934474
  C 5.194789 -0.852911 -2.074573
  C 4.537641 -1.346404 -3.304258
  H 3.456948 -1.329040 -3.261438
  O 6.506073 -0.876785 -2.135624
  H 0.560877 0.475024 1.232836
  H 0.664657 -0.905374 0.134401
  H 0.664992 0.712254 -0.515143
  H 3.899403 1.418376 1.235423
  H 3.899433 -0.204608 1.887480
  H 1.787069 0.285968 3.132569
  H 1.787250 1.925552 2.474043
  H 2.531594 -0.659070 -1.589590
  H 5.156603 -0.064825 -0.110603
  H 4.882202 -2.361736 -3.503418
  H 4.882497 -0.750626 -4.150147
  H 6.960174 -0.554391 -1.333686
 23
 1.070088
  C 1.025070 0.179562 0.274868
  C 2.497126 0.119106 0.358982
  C 3.226237 0.755389 1.481764
  C 2.436061 0.968679 2.770263
  H 3.103248 1.348468 3.539769
  C 3.160320 -0.517599 -0.682344
  C 4.544327 -0.574270 -0.853126
  C 5.194240 -0.916979 -2.036371
  C 4.528810 -1.284624 -3.304199
  H 3.454500 -1.165966 -3.271838
  O 6.503030 -0.915170 -2.112301
  H 0.572481 0.705560 1.105626
  H 0.612044 -0.828837 0.224274
  H 0.728935 0.666625 -0.655464
  H 3.577285 1.735188 1.134298
  H 4.120090 0.173251 1.712041
  H 2.010726 0.032967 3.124048
  H 1.636973 1.693878 2.645850
  H 2.537736 -0.942478 -1.456572
  H 5.175641 -0.275457 -0.027026
  H 4.775588 -2.318981 -3.545675
  H 4.942210 -0.681168 -4.111266
  H 6.965164 -0.695499 -1.282178
 23
 0.425150
  C 0.992173 0.397227 0.171921
  C 2.461518 0.349733 0.273292
  C 3.115630 1.032441 1.414914
  C 2.614854 0.542402 2.780190
  H 3.197596 1.015861 3.567947
  C 3.153872 -0.285348 -0.748401
  C 4.537436 -0.433237 -0.855877
  C 5.193890 -0.957021 -1.967721
  C 4.533548 -1.499340 -3.172050
  H 3.514941 -1.143657 -3.298771
  O 6.500708 -1.023916 -2.009065
  H 0.536162 0.959334 0.980840
  H 0.578645 -0.611409 0.160895
  H 0.701472 0.846161 -0.778094
  H 2.882241 2.097699 1.337855
  H 4.201945 0.930633 1.380895
  H 2.735677 -0.535463 2.864017
  H 1.568928 0.787466 2.945086
  H 2.545612 -0.700301 -1.541043
  H 5.164306 -0.080554 -0.048388
  H 4.523737 -2.588711 -3.104208
  H 5.128889 -1.252152 -4.049337
  H 6.959899 -0.701645 -1.209903
 23
 2.216424
  C 1.033564 0.400630 0.137505
  C 2.495540 0.266014 0.310971
  C 3.140566 1.013914 1.415552
  C 2.547662 0.648243 2.786542
  H 3.120308 1.142093 3.566021
  C 3.174285 -0.515959 -0.610380
  C 4.554812 -0.496917 -0.818630
  C 5.193230 -0.873988 -1.998152
  C 4.515375 -1.399430 -3.201005
  H 3.449084 -1.221834 -3.198225
  O 6.493963 -0.767058 -2.128744
  H 0.582480 1.036345 0.891925
  H 0.552155 -0.578091 0.149231
  H 0.820778 0.826243 -0.844650
  H 2.978237 2.082915 1.250432
  H 4.212612 0.834512 1.452939
  H 2.604490 -0.424796 2.946987
  H 1.512739 0.958970 2.883365
  H 2.565980 -1.071327 -1.310225
  H 5.187690 -0.086776 -0.043027
  H 4.698782 -2.472206 -3.265203
  H 4.965576 -0.960007 -4.087839
  H 6.969311 -0.457049 -1.334580
 23
 7.900413
  C 1.150068 0.432042 0.036569
  C 2.567993 0.140460 0.339123
  C 3.213556 0.896595 1.438898
  C 2.469804 0.697658 2.770266
  H 3.040122 1.167166 3.566698
  C 3.193647 -0.830171 -0.422611
  C 4.564415 -0.731497 -0.719672
  C 5.140558 -0.955679 -1.960605
  C 4.390550 -1.319178 -3.183516
  H 3.322177 -1.186264 -3.075915
  O 6.431450 -0.818038 -2.151381
  H 0.720500 1.150434 0.725651
  H 0.556476 -0.481790 0.034701
  H 1.075850 0.845021 -0.970793
  H 3.206953 1.963048 1.198302
  H 4.245520 0.583206 1.583631
  H 2.374264 -0.361085 2.995908
  H 1.480016 1.142189 2.760052
  H 2.574121 -1.439537 -1.066088
  H 5.230423 -0.390591 0.063144
  H 4.602184 -2.361437 -3.427292
  H 4.757905 -0.729968 -4.021517
  H 6.950004 -0.608876 -1.352488
 23
 15.144631
  C 1.180361 0.259993 -0.006561
  C 2.609693 0.039024 0.347946
  C 3.211538 0.941985 1.367904
  C 2.458595 0.831675 2.705823
  H 3.003761 1.387978 3.460565
  C 3.256668 -1.004729 -0.278123
  C 4.622424 -0.782858 -0.635830
  C 5.134792 -0.824154 -1.942455
  C 4.321818 -1.086814 -3.158559
  H 3.257468 -1.067732 -2.947461
  O 6.416208 -0.599587 -2.195064
  H 0.715828 1.029801 0.601811
  H 0.615818 -0.663874 0.057621
  H 1.118748 0.581142 -1.048380
  H 3.174034 1.970766 1.016012
  H 4.248522 0.679367 1.549550
  H 2.407247 -0.208823 3.026550
  H 1.453683 1.234559 2.652459
  H 2.682642 -1.712969 -0.837717
  H 5.312035 -0.530505 0.157223
  H 4.596273 -2.054988 -3.565473
  H 4.559592 -0.350208 -3.927185
  H 6.974264 -0.465366 -1.410084
 23
 32.842076
  C 1.444376 0.368833 -0.215986
  C 2.800348 0.002273 0.300037
  C 3.321375 0.851562 1.403343
  C 2.367607 0.796952 2.604843
  H 2.858581 1.266963 3.452154
  C 3.279752 -1.221354 -0.113618
  C 4.598314 -0.843089 -0.570717
  C 5.011888 -0.794306 -1.876967
  C 4.102541 -1.009391 -3.030540
  H 3.061880 -1.022659 -2.730681
  O 6.266354 -0.550199 -2.214117
  H 1.020809 1.205236 0.330391
  H 0.772057 -0.485325 -0.167734
  H 1.528018 0.665362 -1.261084
  H 3.440652 1.885900 1.075082
  H 4.293581 0.487827 1.737367
  H 2.141009 -0.232450 2.868480
  H 1.437326 1.325152 2.424111
  H 2.716590 -2.077578 -0.438478
  H 5.347325 -0.717437 0.203622
  H 4.350493 -1.963064 -3.497810
  H 4.273584 -0.244369 -3.785071
  H 6.872874 -0.417232 -1.464661
 23
 46.378349
  C 1.653726 0.319337 -0.366078
  C 2.964120 -0.111683 0.274880
  C 3.423447 0.774040 1.390434
  C 2.361992 0.884433 2.488214
  H 2.811588 1.370780 3.349297
  C 3.241418 -1.448753 0.013051
  C 4.492659 -0.888659 -0.480741
  C 4.872381 -0.710126 -1.796290
  C 3.940357 -0.832222 -2.942319
  H 2.905381 -0.884919 -2.625717
  O 6.119408 -0.438487 -2.133457
  H 1.261121 1.205848 0.120995
  H 0.932431 -0.489851 -0.300004
  H 1.815693 0.558420 -1.415247
  H 3.678658 1.763963 1.009236
  H 4.319914 0.351103 1.848004
  H 2.019509 -0.100904 2.791883
  H 1.503384 1.475745 2.187137
  H 2.683465 -2.325290 -0.235318
  H 5.273291 -0.859048 0.274937
  H 4.181610 -1.740647 -3.496481
  H 4.094735 -0.004617 -3.632172
  H 6.744450 -0.361951 -1.391034
 23
 57.058362
  C 1.722382 0.280849 -0.397738
  C 3.111715 -0.236311 0.298585
  C 3.459994 0.742667 1.382304
  C 2.369668 0.970029 2.426973
  H 2.806184 1.512519 3.261451
  C 3.135702 -1.598288 0.022055
  C 4.396811 -0.978514 -0.439268
  C 4.803248 -0.694044 -1.762635
  C 3.904569 -0.658431 -2.934457
  H 2.858908 -0.678885 -2.659616
  O 6.068837 -0.493554 -2.052485
  H 1.422797 1.185178 0.107843
  H 1.012614 -0.518893 -0.247488
  H 1.916004 0.469899 -1.442606
  H 3.768522 1.684731 0.929550
  H 4.328883 0.339879 1.915917
  H 1.986023 0.023259 2.795966
  H 1.538028 1.561016 2.056140
  H 2.562722 -2.460628 -0.212573
  H 5.198092 -1.118429 0.285172
  H 4.113696 -1.524724 -3.564071
  H 4.132503 0.217565 -3.540349
  H 6.691042 -0.521932 -1.299209
 23
 76.917639
  C 1.528639 0.192733 -0.368910
  C 3.179660 -0.291373 0.312561
  C 3.465885 0.744837 1.346493
  C 2.354915 1.022948 2.360699
  H 2.775561 1.616354 3.168576
  C 3.140557 -1.600048 -0.047191
  C 4.473040 -1.045733 -0.440936
  C 4.895477 -0.713774 -1.737201
  C 3.985604 -0.468432 -2.866416
  H 2.957924 -0.371134 -2.548917
  O 6.167717 -0.633771 -2.039710
  H 1.237067 1.071856 0.171029
  H 0.936972 -0.677413 -0.147209
  H 1.684953 0.370356 -1.418810
  H 3.788116 1.667049 0.863143
  H 4.317117 0.362104 1.923445
  H 1.973200 0.093826 2.775575
  H 1.525929 1.584079 1.949010
  H 2.551006 -2.439861 -0.320966
  H 5.252090 -1.288610 0.278558
  H 4.061236 -1.306237 -3.562469
  H 4.309498 0.412579 -3.415835
  H 6.789950 -0.799985 -1.309487
 23
 93.651890
  C 1.169161 0.236539 -0.466518
  C 3.283293 -0.347357 0.370539
  C 3.570368 0.709136 1.340260
  C 2.458649 1.035517 2.337076
  H 2.872893 1.662628 3.122212
  C 3.172706 -1.582118 -0.037879
  C 4.549286 -1.088188 -0.395279
  C 4.953238 -0.738005 -1.691721
  C 4.022371 -0.435625 -2.794357
  H 3.007031 -0.309806 -2.443281
  O 6.214161 -0.688908 -2.017976
  H 0.908849 1.113863 0.087299
  H 0.676274 -0.671367 -0.186177
  H 1.372912 0.386364 -1.507781
  H 3.888535 1.612974 0.817015
  H 4.427559 0.346752 1.921438
  H 2.067469 0.129438 2.790902
  H 1.639877 1.578588 1.880769
  H 2.557113 -2.386783 -0.354629
  H 5.341407 -1.367396 0.295526
  H 4.051849 -1.253506 -3.515878
  H 4.362766 0.450106 -3.327514
  H 6.848941 -0.893406 -1.305006
 23
 95.229846
  C 0.896476 0.236991 -0.505107
  C 3.388848 -0.401071 0.420306
  C 3.693980 0.696551 1.325040
  C 2.559517 1.065158 2.281979
  H 2.942120 1.741242 3.042466
  C 3.197385 -1.588867 -0.033098
  C 4.613642 -1.155267 -0.371182
  C 4.987714 -0.764691 -1.664190
  C 4.020716 -0.343600 -2.692301
  H 3.037815 -0.166737 -2.271567
  O 6.227673 -0.774753 -2.048650
  H 0.646572 1.118495 0.043061
  H 0.509525 -0.697410 -0.158319
  H 1.114447 0.351035 -1.545978
  H 4.010719 1.571026 0.752749
  H 4.550707 0.367827 1.925823
  H 2.165952 0.179630 2.773747
  H 1.748672 1.564754 1.765621
  H 2.553333 -2.358938 -0.374661
  H 5.406336 -1.503335 0.284425
  H 3.953422 -1.122692 -3.452210
  H 4.390940 0.543404 -3.202652
  H 6.885975 -1.060640 -1.382724
 23
 93.934704
  C 0.704671 -0.031227 -0.624417
  C 3.487814 -0.389931 0.462953
  C 3.798046 0.677553 1.397044
  C 2.585836 1.153573 2.198655
  H 2.914859 1.831680 2.981067
  C 3.184097 -1.535308 -0.022408
  C 4.631687 -1.166610 -0.369027
  C 4.986913 -0.725160 -1.654210
  C 4.020446 -0.121801 -2.586285
  H 3.093656 0.144425 -2.091110
  O 6.193284 -0.833616 -2.103984
  H 0.556332 0.842430 -0.028238
  H 0.268194 -0.946735 -0.287457
  H 0.910166 0.089218 -1.666731
  H 4.247781 1.516582 0.862429
  H 4.549886 0.282939 2.088636
  H 2.073671 0.314473 2.660889
  H 1.882976 1.684661 1.564840
  H 2.500118 -2.252812 -0.398016
  H 5.414466 -1.618468 0.232446
  H 3.810343 -0.833039 -3.386159
  H 4.468880 0.745723 -3.066948
  H 6.848616 -1.239490 -1.502021
 23
 91.703747
  C 0.622859 -0.328909 -0.678061
  C 3.608661 -0.338719 0.528695
  C 3.937579 0.727078 1.458920
  C 2.691911 1.316715 2.122845
  H 2.989202 2.021900 2.893764
  C 3.166038 -1.441823 0.052390
  C 4.637853 -1.189797 -0.337509
  C 4.973451 -0.749739 -1.631279
  C 4.030551 -0.014134 -2.490728
  H 3.174217 0.352327 -1.935487
  O 6.135488 -0.972468 -2.150348
  H 0.599466 0.547979 -0.068810
  H 0.122152 -1.203199 -0.320146
  H 0.830387 -0.238163 -1.722531
  H 4.493905 1.510785 0.940894
  H 4.594885 0.304023 2.224981
  H 2.093083 0.534997 2.581913
  H 2.079718 1.845035 1.397555
  H 2.409218 -2.091483 -0.305906
  H 5.396141 -1.737653 0.212932
  H 3.684480 -0.679735 -3.282711
  H 4.550890 0.801014 -2.990248
  H 6.772669 -1.466299 -1.596602
 23
 89.682156
  C 0.569616 -0.590484 -0.716695
  C 3.684266 -0.310903 0.565367
  C 4.003725 0.749075 1.509324
  C 2.734211 1.395077 2.068133
  H 2.997681 2.116116 2.836305
  C 3.118074 -1.339308 0.054299
  C 4.606974 -1.208936 -0.346646
  C 4.960157 -0.733883 -1.626581
  C 4.077697 0.138902 -2.420547
  H 3.290408 0.585091 -1.817216
  O 6.082159 -1.044343 -2.188651
  H 0.645820 0.269989 -0.090543
  H 0.018915 -1.434185 -0.360897
  H 0.764158 -0.500516 -1.764844
  H 4.625217 1.499884 1.024982
  H 4.587975 0.311800 2.325998
  H 2.082587 0.644331 2.508244
  H 2.189593 1.915130 1.286669
  H 2.278882 -1.900177 -0.278327
  H 5.312524 -1.863990 0.150966
  H 3.621171 -0.455696 -3.212304
  H 4.669251 0.901557 -2.920512
  H 6.673742 -1.634799 -1.682000
