 17
 0.000000
  H 1.434108 -0.076329 0.038213
  C 2.506427 -0.083601 0.023937
  C 3.219638 -0.595058 -0.980139
  C 4.656813 -0.605592 -1.000817
  C 5.378196 -1.120587 -2.011837
  C 6.815862 -1.130697 -2.031683
  C 7.534114 -1.641944 -3.035351
  C 9.023371 -1.661691 -3.074115
  H 3.004873 0.351464 0.878045
  H 2.708711 -1.028364 -1.830782
  H 5.160480 -0.170718 -0.147089
  H 4.874279 -1.555370 -2.865389
  H 7.322055 -0.696321 -1.178925
  H 7.035363 -2.078019 -3.891425
  H 9.456400 -1.208624 -2.184672
  H 9.382555 -1.116402 -3.947887
  H 9.382556 -2.689085 -3.146794
 17
 1.821739
  H 1.399942 -0.248276 -0.067432
  C 2.471900 -0.179318 0.006728
  C 3.275354 -0.532456 -0.998022
  C 4.709803 -0.491777 -0.960624
  C 5.415931 -1.043150 -1.961197
  C 6.845634 -1.091620 -2.027015
  C 7.534278 -1.653958 -3.024032
  C 9.019848 -1.708886 -3.104129
  H 2.860662 0.179675 0.945512
  H 2.821134 -0.873674 -1.920351
  H 5.177582 -0.039470 -0.098741
  H 4.784534 -1.477546 -2.723582
  H 7.370457 -0.628429 -1.200681
  H 7.003802 -2.116196 -3.846840
  H 9.481007 -1.222843 -2.248151
  H 9.367782 -1.232356 -4.021218
  H 9.355757 -2.746834 -3.137277
 17
 4.694014
  H 1.358206 -0.414414 -0.241778
  C 2.404632 -0.248655 -0.043303
  C 3.335301 -0.487080 -0.964876
  C 4.767763 -0.408345 -0.878290
  C 5.461442 -0.975610 -1.883578
  C 6.886467 -1.065774 -2.000771
  C 7.515878 -1.672725 -3.009909
  C 8.996445 -1.755130 -3.155963
  H 2.656164 0.063729 0.957559
  H 2.957168 -0.713456 -1.951262
  H 5.218974 0.052091 -0.007465
  H 4.797563 -1.424823 -2.613267
  H 7.456194 -0.581043 -1.215534
  H 6.929993 -2.153613 -3.790835
  H 9.500756 -1.236359 -2.342740
  H 9.307206 -1.303184 -4.103094
  H 9.317708 -2.797122 -3.167758
 17
 10.873577
  H 1.369791 -0.485458 -0.248994
  C 2.416241 -0.329353 -0.041865
  C 3.352694 -0.453285 -0.993093
  C 4.780842 -0.361374 -0.893524
  C 5.457561 -0.944668 -1.905120
  C 6.881190 -1.032908 -2.023181
  C 7.515536 -1.680871 -3.004351
  C 8.995871 -1.778057 -3.135021
  H 2.666509 -0.096688 0.986633
  H 2.939695 -0.562861 -1.995116
  H 5.221521 0.108044 -0.026981
  H 4.710170 -1.366928 -2.565936
  H 7.443887 -0.527028 -1.251919
  H 6.943595 -2.195171 -3.763883
  H 9.514265 -1.258021 -2.330221
  H 9.304517 -1.359033 -4.095663
  H 9.298591 -2.823248 -3.174881
 17
 15.735228
  H 1.390615 -0.545902 -0.295141
  C 2.424815 -0.402901 -0.059734
  C 3.363471 -0.373482 -1.003551
  C 4.798850 -0.320630 -0.876721
  C 5.438401 -0.894013 -1.929853
  C 6.861849 -1.037676 -2.051711
  C 7.501645 -1.732947 -2.993339
  C 8.979172 -1.809106 -3.143417
  H 2.667637 -0.384875 0.989585
  H 2.967693 -0.252676 -2.017378
  H 5.255228 0.096928 0.003617
  H 4.632404 -1.267883 -2.551173
  H 7.427793 -0.493882 -1.308348
  H 6.932060 -2.320350 -3.697088
  H 9.473200 -1.178013 -2.411155
  H 9.273012 -1.430885 -4.122661
  H 9.347719 -2.833543 -3.050768
 17
 19.452255
  H 1.446769 -0.832781 -0.427902
  C 2.461735 -0.599552 -0.140477
  C 3.387702 -0.277183 -1.041959
  C 4.823885 -0.157474 -0.855014
  C 5.479149 -0.762271 -1.878217
  C 6.889819 -0.944503 -2.031211
  C 7.445509 -1.730128 -2.949110
  C 8.911771 -1.881116 -3.148477
  H 2.706745 -0.757247 0.894338
  H 2.995322 0.092014 -1.982074
  H 5.240823 0.239298 0.042453
  H 4.668358 -1.149826 -2.502038
  H 7.509571 -0.359781 -1.361528
  H 6.809261 -2.331746 -3.589408
  H 9.464334 -1.248383 -2.456288
  H 9.186891 -1.602538 -4.169400
  H 9.211751 -2.917512 -2.981850
 17
 24.415203
  H 1.535919 -1.044158 -0.647806
  C 2.508749 -0.778695 -0.279513
  C 3.411406 -0.174191 -1.036781
  C 4.845560 -0.033568 -0.797800
  C 5.497057 -0.640805 -1.802041
  C 6.900377 -0.859283 -2.007876
  C 7.381491 -1.759700 -2.867357
  C 8.830650 -1.949079 -3.146383
  H 2.772055 -1.198682 0.681021
  H 3.043039 0.467031 -1.831505
  H 5.253045 0.358738 0.120924
  H 4.686097 -1.031963 -2.426269
  H 7.565390 -0.202751 -1.477067
  H 6.700027 -2.432771 -3.390467
  H 9.432522 -1.227611 -2.602206
  H 9.017297 -1.788656 -4.214265
  H 9.150515 -2.962582 -2.903527
 17
 37.494750
  H 1.708659 -1.338093 -0.903443
  C 2.573731 -0.907698 -0.421166
  C 3.442969 -0.133991 -1.064289
  C 4.843075 0.075253 -0.692533
  C 5.519142 -0.533036 -1.699909
  C 6.886623 -0.771533 -2.015524
  C 7.311086 -1.750629 -2.817741
  C 8.747354 -2.007416 -3.162146
  H 2.885122 -1.402998 0.484669
  H 3.052506 0.694725 -1.661404
  H 5.195771 0.445597 0.246679
  H 4.700103 -0.908694 -2.369437
  H 7.613315 -0.081717 -1.579781
  H 6.598945 -2.443505 -3.236068
  H 9.407804 -1.267977 -2.698830
  H 8.885544 -1.984136 -4.248699
  H 9.042878 -2.981965 -2.823808
 17
 61.824695
  H 1.868808 -1.508212 -1.076032
  C 2.610978 -0.954380 -0.525381
  C 3.481493 -0.132985 -1.117409
  C 4.853294 0.093185 -0.609886
  C 5.562718 -0.516951 -1.622607
  C 6.898150 -0.758681 -2.023433
  C 7.299400 -1.787289 -2.762046
  C 8.708497 -2.021708 -3.168514
  H 2.872675 -1.373796 0.435477
  H 3.077638 0.746309 -1.604252
  H 5.106602 0.496172 0.339463
  H 4.554913 -0.828200 -2.275008
  H 7.604097 -0.001541 -1.739778
  H 6.576261 -2.525187 -3.102922
  H 9.361773 -1.221247 -2.808222
  H 8.774219 -2.060078 -4.239555
  H 9.076768 -2.984380 -2.782975
 17
 81.110330
  H 1.824530 -1.464597 -1.132473
  C 2.590022 -0.978270 -0.555767
  C 3.527306 -0.177146 -1.151074
  C 4.874903 0.058150 -0.594135
  C 5.609356 -0.470617 -1.560894
  C 6.931695 -0.716092 -2.006343
  C 7.317815 -1.787340 -2.699639
  C 8.706400 -2.017035 -3.186364
  H 2.791039 -1.401808 0.415982
  H 3.179733 0.687193 -1.707008
  H 5.110570 0.446169 0.379768
  H 4.262414 -0.792150 -2.202116
  H 7.644127 0.082614 -1.816627
  H 6.601351 -2.570311 -2.917765
  H 9.358407 -1.184196 -2.930522
  H 8.706896 -2.148537 -4.258949
  H 9.118832 -2.938874 -2.750013
 17
 86.875712
  H 1.849487 -1.572636 -1.085946
  C 2.611469 -1.034130 -0.549751
  C 3.509399 -0.187230 -1.242179
  C 4.869714 0.068954 -0.627247
  C 5.685724 -0.424153 -1.510272
  C 6.965157 -0.678584 -2.006687
  C 7.332438 -1.781588 -2.680221
  C 8.712225 -2.035507 -3.176423
  H 2.876195 -1.418065 0.421154
  H 3.107746 0.727149 -1.680090
  H 5.024222 0.454586 0.368892
  H 3.984718 -0.724874 -2.187177
  H 7.686233 0.125943 -1.873053
  H 6.613307 -2.570498 -2.853122
  H 9.373112 -1.198570 -2.952777
  H 8.699677 -2.199631 -4.256081
  H 9.120438 -2.939459 -2.721683
 17
 86.945308
  H 1.737297 -1.530085 -0.904792
  C 2.541485 -0.975288 -0.451829
  C 3.458056 -0.255311 -1.294883
  C 4.838876 0.002368 -0.716943
  C 5.702218 -0.475143 -1.558627
  C 6.996409 -0.723383 -2.003111
  C 7.383357 -1.788134 -2.727380
  C 8.779597 -2.024674 -3.183805
  H 2.814032 -1.251234 0.550340
  H 3.069996 0.667705 -1.733039
  H 4.959264 0.389958 0.285428
  H 3.753918 -0.886317 -2.189439
  H 7.726822 0.053043 -1.777740
  H 6.662769 -2.553062 -2.981645
  H 9.437682 -1.217912 -2.869561
  H 8.812561 -2.101366 -4.271441
  H 9.159679 -2.964506 -2.781489
