 17
 0.000000
  H 1.414936 0.182662 0.505703
  C 2.482522 0.134232 0.385194
  H 3.112374 0.459949 1.195558
  C 3.009502 -0.335334 -0.783826
  C 4.394612 -0.414483 -0.981270
  C 5.110391 -0.863651 -2.101537
  C 4.628641 -1.385160 -3.401889
  C 3.144117 -1.505280 -3.701578
  H 3.021436 -1.906632 -4.702259
  O 6.418520 -0.844917 -2.054917
  H 2.334290 -0.647655 -1.561632
  H 5.000008 -0.078579 -0.144214
  H 5.099067 -2.368408 -3.525159
  H 5.099261 -0.759804 -4.170545
  H 2.653509 -0.535982 -3.670531
  H 2.653434 -2.184455 -3.009358
  H 6.805882 -0.511474 -1.221335
 17
 4.459536
  H 1.427047 0.232316 0.628768
  C 2.481617 0.150605 0.425809
  H 3.164248 0.462342 1.201949
  C 2.936025 -0.333575 -0.779637
  C 4.313806 -0.436060 -1.034818
  C 5.093530 -0.862324 -2.098400
  C 4.655181 -1.388388 -3.410356
  C 3.175136 -1.509396 -3.711501
  H 3.056199 -1.911587 -4.714323
  O 6.396720 -0.825963 -2.007882
  H 2.222316 -0.635005 -1.530739
  H 5.061120 -0.151497 -0.325631
  H 5.136081 -2.367189 -3.532128
  H 5.135930 -0.765028 -4.174882
  H 2.683174 -0.540934 -3.685335
  H 2.683431 -2.191604 -3.023293
  H 6.772501 -0.491350 -1.170296
 17
 14.647400
  H 1.441482 0.252171 0.676342
  C 2.488600 0.157819 0.443621
  H 3.195802 0.459980 1.200262
  C 2.900631 -0.324441 -0.759145
  C 4.256980 -0.441296 -1.048554
  C 5.079991 -0.855745 -2.083020
  C 4.675982 -1.392348 -3.421575
  C 3.190469 -1.515976 -3.726189
  H 3.066795 -1.918503 -4.729334
  O 6.374107 -0.809416 -1.966602
  H 2.175555 -0.616376 -1.489127
  H 5.111446 -0.207839 -0.466196
  H 5.160528 -2.365691 -3.539348
  H 5.159153 -0.769411 -4.179579
  H 2.700075 -0.548946 -3.697123
  H 2.701820 -2.195685 -3.036471
  H 6.745691 -0.474836 -1.125221
 17
 28.340592
  H 1.439747 0.266299 0.711881
  C 2.481186 0.164254 0.459899
  H 3.204473 0.460017 1.201488
  C 2.867628 -0.322353 -0.754404
  C 4.213891 -0.449215 -1.068575
  C 5.072454 -0.855424 -2.082172
  C 4.695005 -1.390078 -3.415820
  C 3.210120 -1.513055 -3.718816
  H 3.082469 -1.915526 -4.721206
  O 6.373657 -0.806273 -1.958467
  H 2.122944 -0.611603 -1.478096
  H 5.144892 -0.260731 -0.598432
  H 5.185907 -2.372104 -3.531600
  H 5.184459 -0.759523 -4.178383
  H 2.719467 -0.541446 -3.686330
  H 2.721059 -2.193356 -3.023128
  H 6.752468 -0.472794 -1.120254
 17
 43.786793
  H 1.433995 0.275934 0.736219
  C 2.472771 0.170038 0.474490
  H 3.205996 0.462848 1.208901
  C 2.845157 -0.319484 -0.747332
  C 4.180987 -0.451506 -1.074453
  C 5.071249 -0.852383 -2.074544
  C 4.714341 -1.392438 -3.421518
  C 3.228715 -1.511895 -3.715927
  H 3.092438 -1.914042 -4.717303
  O 6.377854 -0.804493 -1.953887
  H 2.090079 -0.606268 -1.464861
  H 5.160847 -0.302237 -0.702197
  H 5.202739 -2.368832 -3.535409
  H 5.201357 -0.764743 -4.178882
  H 2.740515 -0.537699 -3.678094
  H 2.741890 -2.190142 -3.014507
  H 6.769240 -0.474031 -1.123451
 17
 57.093163
  H 1.432134 0.285116 0.759625
  C 2.468019 0.176273 0.490175
  H 3.205877 0.466150 1.217601
  C 2.829134 -0.312544 -0.730236
  C 4.165581 -0.448322 -1.066448
  C 5.076803 -0.849867 -2.067858
  C 4.723454 -1.392232 -3.420601
  C 3.236061 -1.517442 -3.729799
  H 3.108250 -1.919346 -4.730116
  O 6.383214 -0.803690 -1.951367
  H 2.063333 -0.597141 -1.442523
  H 5.194567 -0.333170 -0.779119
  H 5.213714 -2.368026 -3.530746
  H 5.212528 -0.762390 -4.174820
  H 2.748041 -0.552027 -3.696158
  H 2.749245 -2.191792 -3.037419
  H 6.786638 -0.471867 -1.119464
 17
 67.468097
  H 1.420894 0.281279 0.760539
  C 2.457802 0.187883 0.486780
  H 3.190243 0.507052 1.200998
  C 2.822975 -0.327157 -0.722904
  C 4.161208 -0.446289 -1.063070
  C 5.081548 -0.846576 -2.067882
  C 4.725619 -1.386809 -3.425128
  C 3.252297 -1.507893 -3.725642
  H 3.122408 -1.909763 -4.721934
  O 6.394047 -0.821427 -1.953523
  H 2.063478 -0.647444 -1.412693
  H 5.210713 -0.332849 -0.848381
  H 5.211460 -2.365035 -3.530992
  H 5.214560 -0.761632 -4.182989
  H 2.765239 -0.537793 -3.691683
  H 2.765884 -2.182487 -3.027670
  H 6.809432 -0.510007 -1.119037
 17
 72.052411
  H 1.395603 0.286070 0.724409
  C 2.454858 0.203275 0.458761
  H 3.188230 0.543735 1.189773
  C 2.839422 -0.325151 -0.740187
  C 4.182976 -0.431827 -1.065622
  C 5.100373 -0.834086 -2.069844
  C 4.728525 -1.381805 -3.415164
  C 3.243717 -1.502946 -3.711023
  H 3.107857 -1.921876 -4.712816
  O 6.414477 -0.844288 -1.955437
  H 2.083831 -0.670360 -1.429594
  H 5.227498 -0.329841 -0.874410
  H 5.213400 -2.378254 -3.505645
  H 5.209500 -0.782688 -4.172380
  H 2.757468 -0.533570 -3.689276
  H 2.762709 -2.160681 -3.008043
  H 6.835653 -0.557173 -1.108792
 17
 77.102029
  H 1.415574 0.280393 0.715773
  C 2.450550 0.198009 0.463290
  H 3.175842 0.528955 1.201219
  C 2.837041 -0.322082 -0.742426
  C 4.183514 -0.426651 -1.059433
  C 5.110528 -0.816156 -2.071028
  C 4.728798 -1.383533 -3.422091
  C 3.249389 -1.504358 -3.713634
  H 3.114376 -1.933465 -4.701902
  O 6.428212 -0.838295 -1.953894
  H 2.078895 -0.664146 -1.447942
  H 5.240828 -0.344497 -0.884385
  H 5.201590 -2.367514 -3.489646
  H 5.218721 -0.788475 -4.210202
  H 2.767959 -0.531243 -3.706807
  H 2.758834 -2.162614 -2.989985
  H 6.851447 -0.567325 -1.109776
 17
 79.249353
  H 1.402996 0.273879 0.761178
  C 2.438023 0.193287 0.495262
  H 3.172249 0.538313 1.219279
  C 2.808858 -0.335226 -0.715856
  C 4.150592 -0.436840 -1.056588
  C 5.118978 -0.826151 -2.084064
  C 4.740601 -1.378928 -3.438909
  C 3.271383 -1.507377 -3.734424
  H 3.137473 -1.911905 -4.734242
  O 6.439838 -0.837561 -1.973604
  H 2.047082 -0.683043 -1.399782
  H 5.263081 -0.345569 -0.899630
  H 5.228272 -2.371742 -3.530169
  H 5.217878 -0.784259 -4.216998
  H 2.785956 -0.533421 -3.706273
  H 2.786901 -2.162143 -3.019144
  H 6.867914 -0.565440 -1.130882
 17
 85.757545
  H 1.412998 0.237785 0.729428
  C 2.445530 0.220914 0.451423
  H 3.148432 0.674400 1.130871
  C 2.851943 -0.396565 -0.679162
  C 4.177091 -0.469185 -1.071888
  C 5.098933 -0.836133 -2.036963
  C 4.735239 -1.346867 -3.427819
  C 3.255642 -1.472334 -3.744620
  H 3.141741 -1.883052 -4.741750
  O 6.442600 -0.879704 -1.964843
  H 2.108127 -0.882043 -1.304105
  H 5.273036 -0.303148 -0.987326
  H 5.211702 -2.333431 -3.476086
  H 5.243605 -0.735022 -4.177133
  H 2.758512 -0.504239 -3.732879
  H 2.765854 -2.142077 -3.048152
  H 6.887078 -0.647575 -1.126470
 17
 84.491212
  H 1.407516 0.216082 0.687062
  C 2.435787 0.254568 0.363091
  H 3.110392 0.854173 0.941821
  C 2.857929 -0.492153 -0.681068
  C 4.170778 -0.538019 -1.116576
  C 5.163133 -0.861639 -2.023422
  C 4.733611 -1.310923 -3.430614
  C 3.249232 -1.422718 -3.697157
  H 3.110595 -1.792191 -4.710668
  O 6.503165 -0.933028 -1.945372
  H 2.144079 -1.128946 -1.191572
  H 5.260777 -0.249123 -1.037887
  H 5.202718 -2.299374 -3.512522
  H 5.210325 -0.658431 -4.166815
  H 2.753641 -0.454903 -3.627117
  H 2.783340 -2.133335 -3.029567
  H 6.939108 -0.751157 -1.093045
 17
 81.954186
  H 1.462888 0.210248 0.767127
  C 2.445817 0.293928 0.329890
  H 3.109264 1.026244 0.751515
  C 2.848447 -0.576066 -0.633560
  C 4.117529 -0.611025 -1.156738
  C 5.172745 -0.882233 -2.026960
  C 4.755356 -1.285301 -3.450374
  C 3.268388 -1.385252 -3.716277
  H 3.127445 -1.724476 -4.735320
  O 6.502132 -0.960748 -1.905550
  H 2.154233 -1.326678 -0.988207
  H 5.179562 -0.180191 -1.125433
  H 5.221100 -2.268178 -3.561474
  H 5.231238 -0.608062 -4.169719
  H 2.772204 -0.420106 -3.614039
  H 2.804620 -2.114022 -3.065500
  H 6.896045 -0.824314 -1.024053
