 14
 0.000000
  C 0.957221 0.139289 0.398343
  C 2.413762 0.110415 0.328566
  H 2.987082 0.451925 1.180004
  C 3.076539 -0.339815 -0.792454
  C 4.469589 -0.379073 -0.891354
  C 5.135680 -0.830006 -2.015178
  H 4.625085 -1.187552 -2.903848
  O 6.421636 -0.879294 -2.141357
  H 0.586358 0.519373 1.344878
  H 0.553451 -0.862098 0.227337
  H 0.554622 0.745485 -0.417451
  H 2.489340 -0.678588 -1.636124
  H 5.052371 -0.038355 -0.044302
  H 6.927418 -0.565235 -1.361984
 14
 15.975836
  C 0.921673 0.146608 0.416067
  C 2.375755 0.119263 0.351169
  H 2.944176 0.461837 1.205789
  C 3.048515 -0.329773 -0.766700
  C 4.433104 -0.361261 -0.846076
  C 5.162270 -0.856353 -2.080102
  H 4.658851 -1.211720 -2.962839
  O 6.575059 -0.904029 -2.203850
  H 0.548491 0.526195 1.361424
  H 0.518915 -0.854762 0.241803
  H 0.520586 0.750979 -0.401992
  H 2.471596 -0.670968 -1.616770
  H 5.014651 -0.021783 -0.002043
  H 7.057545 -0.586819 -1.418898
 14
 49.831043
  C 0.898983 0.150295 0.424985
  C 2.348065 0.123725 0.362268
  H 2.913390 0.466564 1.217547
  C 3.029846 -0.321520 -0.745873
  C 4.408080 -0.335558 -0.781794
  C 5.167543 -0.886677 -2.155848
  H 4.678793 -1.238826 -3.030602
  O 6.696585 -0.919866 -2.243667
  H 0.532643 0.530193 1.371443
  H 0.492189 -0.850886 0.254561
  H 0.493864 0.757134 -0.390208
  H 2.469905 -0.665677 -1.603068
  H 5.023195 -0.008002 0.031972
  H 7.086364 -0.590458 -1.427785
 14
 89.168070
  C 0.880438 0.156206 0.438842
  C 2.317031 0.135346 0.392189
  H 2.874498 0.480306 1.252762
  C 3.018657 -0.310214 -0.715576
  C 4.371637 -0.310752 -0.717849
  C 5.174013 -0.920134 -2.238516
  H 4.703563 -1.276794 -3.125307
  O 6.805337 -0.934631 -2.283487
  H 0.496673 0.534579 1.380322
  H 0.480523 -0.845843 0.252407
  H 0.483017 0.752688 -0.388855
  H 2.472858 -0.657623 -1.581116
  H 5.032289 0.004723 0.064898
  H 7.105599 -0.592813 -1.435888
 14
 128.427965
  C 0.834129 0.164305 0.457630
  C 2.277840 0.154439 0.440590
  H 2.821579 0.503203 1.309558
  C 3.009563 -0.292319 -0.667685
  C 4.345087 -0.281273 -0.640486
  C 5.221934 -0.961787 -2.342579
  H 4.779439 -1.323601 -3.243503
  O 6.906418 -0.960646 -2.352449
  H 0.424165 0.539288 1.388328
  H 0.444688 -0.839338 0.254567
  H 0.447999 0.749726 -0.383986
  H 2.478568 -0.643009 -1.541656
  H 5.050138 0.018626 0.103398
  H 7.140892 -0.607662 -1.475411
 14
 133.297459
  C 0.683063 0.167084 0.468361
  C 2.139982 0.262930 0.573738
  H 2.580939 0.653662 1.475424
  C 2.997712 -0.196601 -0.458203
  C 4.328359 -0.258620 -0.335364
  C 5.569640 -1.018681 -2.591788
  H 5.101455 -1.373209 -3.528769
  O 6.859625 -1.066275 -2.641346
  H 0.179610 0.546978 1.348475
  H 0.376002 -0.869745 0.287202
  H 0.348727 0.693737 -0.432359
  H 2.530745 -0.564016 -1.363388
  H 5.086644 0.023560 0.372015
  H 7.352955 -0.775148 -1.854397
 14
 138.964512
  C 0.648503 0.149416 0.473780
  C 2.087534 0.319645 0.601321
  H 2.496299 0.696985 1.513016
  C 2.980574 -0.113416 -0.402859
  C 4.282182 -0.230402 -0.195563
  C 5.658891 -1.050628 -2.676285
  H 5.168090 -1.367301 -3.594289
  O 6.934289 -1.149764 -2.787123
  H 0.101734 0.504547 1.357832
  H 0.392267 -0.907929 0.285416
  H 0.295963 0.667957 -0.435382
  H 2.554145 -0.483633 -1.320228
  H 5.024747 0.081508 0.508234
  H 7.465493 -0.890428 -1.996744
 14
 142.290250
  C 0.612098 0.135856 0.481551
  C 2.028742 0.367618 0.631974
  H 2.413300 0.738335 1.569989
  C 2.958559 -0.031621 -0.351381
  C 4.232345 -0.194738 -0.055525
  C 5.752044 -1.094023 -2.748621
  H 5.214853 -1.376478 -3.656991
  O 7.010556 -1.224756 -2.923758
  H 0.041486 0.457139 1.344382
  H 0.406570 -0.923989 0.283262
  H 0.255658 0.631571 -0.432216
  H 2.570259 -0.402205 -1.297975
  H 4.958052 0.130039 0.665195
  H 7.579030 -0.986173 -2.154978
 14
 143.650758
  C 0.581185 0.102310 0.488507
  C 1.980815 0.423755 0.661226
  H 2.329676 0.800122 1.606374
  C 2.944756 0.075426 -0.310332
  C 4.183321 -0.138868 0.076095
  C 5.830971 -1.121643 -2.829824
  H 5.260478 -1.365721 -3.741954
  O 7.075802 -1.311008 -3.036676
  H -0.021208 0.395278 1.340643
  H 0.442214 -0.968297 0.302058
  H 0.210101 0.564552 -0.432757
  H 2.596719 -0.268974 -1.282801
  H 4.895584 0.164536 0.808914
  H 7.653160 -1.126313 -2.261773
 14
 144.166355
  C 0.558638 0.077418 0.499982
  C 1.943659 0.475045 0.677966
  H 2.265566 0.886539 1.618133
  C 2.925392 0.143598 -0.282314
  C 4.116859 -0.112662 0.206292
  C 5.912776 -1.162650 -2.917159
  H 5.315198 -1.360280 -3.828097
  O 7.138978 -1.381200 -3.141963
  H -0.061788 0.374069 1.336327
  H 0.470430 -0.997837 0.363837
  H 0.169597 0.495743 -0.445043
  H 2.614611 -0.183560 -1.270982
  H 4.790899 0.166560 0.977340
  H 7.717619 -1.207776 -2.363074
 14
 144.181842
  C 0.546476 0.060365 0.517047
  C 1.914262 0.530085 0.682852
  H 2.213045 0.983850 1.611151
  C 2.905913 0.201898 -0.271182
  C 4.031366 -0.091230 0.327624
  C 5.973389 -1.181132 -3.014916
  H 5.378774 -1.354437 -3.928727
  O 7.193888 -1.428095 -3.222325
  H -0.088007 0.368851 1.339731
  H 0.501898 -1.042728 0.431563
  H 0.152572 0.419298 -0.427373
  H 2.633781 -0.119273 -1.273804
  H 4.655763 0.162226 1.146794
  H 7.761539 -1.305660 -2.424068
 14
 143.663075
  C 0.546189 0.028061 0.544953
  C 1.888464 0.585017 0.684849
  H 2.159668 1.090151 1.597429
  C 2.891541 0.272798 -0.270650
  C 3.931132 -0.067114 0.438666
  C 6.018897 -1.212440 -3.111864
  H 5.451861 -1.327971 -4.048801
  O 7.238647 -1.500716 -3.276202
  H -0.102904 0.340144 1.358355
  H 0.568110 -1.063981 0.515929
  H 0.124332 0.325318 -0.419445
  H 2.666132 -0.032815 -1.281183
  H 4.484517 0.144216 1.321428
  H 7.791093 -1.400079 -2.466111
 14
 142.729173
  C 0.566011 -0.012325 0.578477
  C 1.877078 0.639037 0.679809
  H 2.112818 1.213686 1.562339
  C 2.881080 0.347380 -0.285474
  C 3.806822 -0.032485 0.545459
  C 6.053865 -1.214949 -3.216623
  H 5.541355 -1.291322 -4.181691
  O 7.263172 -1.561997 -3.298910
  H -0.095048 0.309013 1.379065
  H 0.655831 -1.102564 0.617042
  H 0.115815 0.209898 -0.391374
  H 2.707468 0.062046 -1.308513
  H 4.295008 0.117642 1.474802
  H 7.750738 -1.525000 -2.441505
 14
 141.075416
  C 0.601074 -0.069674 0.628054
  C 1.862770 0.693324 0.687198
  H 2.043466 1.327904 1.531790
  C 2.863703 0.455490 -0.314970
  C 3.661745 0.048538 0.621330
  C 6.102577 -1.220912 -3.320348
  H 5.673223 -1.244379 -4.328114
  O 7.274413 -1.663602 -3.285196
  H -0.071266 0.230664 1.427162
  H 0.777728 -1.139622 0.708294
  H 0.114888 0.089188 -0.330813
  H 2.734976 0.186519 -1.349493
  H 4.096733 0.099160 1.588028
  H 7.670828 -1.685801 -2.380329
