 28
 0.000000
  C 0.955302 0.144071 0.410483
  C 2.428655 0.139658 0.398711
  C 3.223474 0.605105 1.556486
  C 2.462485 1.098171 2.783771
  C 3.430759 1.537789 3.877750
  C 3.039020 -0.326718 -0.762147
  C 4.422128 -0.411579 -0.974492
  C 5.094514 -0.857825 -2.087133
  C 4.628771 -1.378379 -3.384621
  C 3.147053 -1.506715 -3.704503
  H 3.019461 -1.907349 -4.703291
  H 6.174968 -0.843392 -2.051715
  H 0.528858 0.515527 1.334765
  H 0.581232 -0.866766 0.241236
  H 0.580769 0.756385 -0.411216
  H 3.882079 1.412426 1.216094
  H 3.882321 -0.213074 1.869329
  H 1.826268 0.304225 3.179220
  H 1.826139 1.944927 2.519996
  H 4.066494 0.712770 4.191400
  H 2.881206 1.887460 4.748216
  H 4.066388 2.350546 3.533341
  H 2.377725 -0.643886 -1.551031
  H 5.044257 -0.081130 -0.151938
  H 5.099661 -2.363025 -3.504196
  H 5.099723 -0.749462 -4.151611
  H 2.659909 -0.534728 -3.666953
  H 2.659937 -2.183352 -3.005673
 28
 10.705106
  C 0.939075 0.204596 0.405349
  C 2.407995 0.166027 0.409236
  C 3.191084 0.547556 1.607595
  C 2.466692 1.047179 2.846943
  C 3.461949 1.513028 3.911308
  C 3.003679 -0.282061 -0.769268
  C 4.387704 -0.359991 -0.992132
  C 4.965615 -0.809379 -2.149927
  C 4.685327 -1.422138 -3.435015
  C 3.186695 -1.604263 -3.715332
  H 3.065561 -1.990532 -4.726972
  H 6.143513 -0.739574 -2.039410
  H 0.521476 0.545841 1.341714
  H 0.540281 -0.777310 0.154295
  H 0.593764 0.874293 -0.390790
  H 3.843985 1.370271 1.261221
  H 3.914125 -0.238738 1.846015
  H 1.817100 0.274250 3.256911
  H 1.824177 1.895071 2.583544
  H 4.107852 0.713874 4.259684
  H 2.915085 1.922943 4.762350
  H 4.054235 2.351632 3.539121
  H 2.342992 -0.568321 -1.558236
  H 5.017356 -0.046782 -0.185431
  H 5.223222 -2.360285 -3.556128
  H 5.071579 -0.795737 -4.237341
  H 2.693173 -0.636789 -3.691004
  H 2.714394 -2.254122 -2.990601
 28
 28.707585
  C 0.944414 0.203348 0.406267
  C 2.403796 0.161780 0.406947
  C 3.195779 0.636613 1.569828
  C 2.463794 1.113445 2.811996
  C 3.458267 1.531405 3.897468
  C 2.980187 -0.322816 -0.741295
  C 4.359648 -0.454385 -0.939981
  C 4.953933 -0.868248 -2.116043
  C 4.669320 -1.321401 -3.448996
  C 3.172225 -1.590582 -3.709923
  H 3.079852 -1.914735 -4.740654
  H 6.281031 -0.855875 -2.009850
  H 0.570803 0.564653 1.362143
  H 0.572471 -0.811071 0.265496
  H 0.588294 0.793585 -0.429439
  H 3.918981 1.374667 1.207706
  H 3.862839 -0.207758 1.818698
  H 1.784920 0.372953 3.247890
  H 1.821744 1.957759 2.531504
  H 4.053470 0.697824 4.263162
  H 2.907043 1.887186 4.766494
  H 4.098322 2.341793 3.545167
  H 2.351550 -0.638513 -1.559100
  H 5.016328 -0.197453 -0.126497
  H 5.199128 -2.267102 -3.632132
  H 5.027959 -0.616583 -4.199497
  H 2.572573 -0.674131 -3.671355
  H 2.799716 -2.356689 -3.030123
 28
 62.118760
  C 0.871910 0.165551 0.490898
  C 2.330464 0.153700 0.424712
  C 3.172884 0.609384 1.540360
  C 2.486461 1.108302 2.802580
  C 3.505319 1.532085 3.854152
  C 2.894861 -0.319905 -0.762117
  C 4.288697 -0.417146 -1.002647
  C 4.833471 -0.869169 -2.118850
  C 4.691345 -1.396890 -3.414619
  C 3.191271 -1.518106 -3.769759
  H 3.138176 -1.922325 -4.776774
  H 6.669336 -0.802014 -1.837548
  H 0.483684 0.545335 1.425524
  H 0.481122 -0.840138 0.317688
  H 0.462771 0.750846 -0.336246
  H 3.849072 1.394397 1.172561
  H 3.856426 -0.207327 1.814065
  H 1.855164 0.322183 3.224205
  H 1.843912 1.961495 2.573232
  H 4.148295 0.700745 4.137702
  H 3.001344 1.883392 4.750264
  H 4.138823 2.337482 3.487939
  H 2.224766 -0.639158 -1.544528
  H 4.948064 -0.103652 -0.211374
  H 5.162371 -2.383318 -3.485430
  H 5.188809 -0.756714 -4.151158
  H 2.710078 -0.545835 -3.762899
  H 2.688263 -2.203959 -3.096454
 28
 65.214538
  C 0.819639 0.166135 0.545922
  C 2.279440 0.122476 0.450279
  C 3.153373 0.579331 1.537705
  C 2.504822 1.125049 2.798783
  C 3.549778 1.559160 3.819520
  C 2.806943 -0.371005 -0.740108
  C 4.197590 -0.490119 -1.009904
  C 4.740930 -0.912292 -2.120129
  C 4.717705 -1.382463 -3.425436
  C 3.220751 -1.502135 -3.827763
  H 3.213269 -1.873768 -4.848829
  H 6.943797 -0.736145 -1.684471
  H 0.459875 0.552527 1.490849
  H 0.403099 -0.829922 0.376047
  H 0.408872 0.764920 -0.271470
  H 3.838704 1.340408 1.138283
  H 3.824139 -0.246192 1.816335
  H 1.865184 0.365477 3.254560
  H 1.874896 1.984632 2.557156
  H 4.182722 0.725256 4.117900
  H 3.067771 1.947748 4.713188
  H 4.191911 2.342266 3.420018
  H 2.119430 -0.679947 -1.513694
  H 4.872141 -0.202356 -0.215238
  H 5.201706 -2.359610 -3.522337
  H 5.233022 -0.703651 -4.113406
  H 2.732472 -0.532812 -3.802999
  H 2.703193 -2.213124 -3.192850
 28
 63.701121
  C 0.783173 0.199076 0.579024
  C 2.237040 0.148855 0.450986
  C 3.141226 0.587594 1.522737
  C 2.527188 1.119020 2.806559
  C 3.595078 1.527500 3.812016
  C 2.735483 -0.340126 -0.751303
  C 4.116645 -0.472810 -1.055359
  C 4.660386 -0.900705 -2.152702
  C 4.739184 -1.392664 -3.438303
  C 3.241964 -1.546399 -3.861478
  H 3.267130 -1.934879 -4.875971
  H 7.123012 -0.648890 -1.452576
  H 0.444789 0.586767 1.531340
  H 0.357415 -0.794972 0.418991
  H 0.355463 0.797587 -0.229972
  H 3.820758 1.349755 1.115842
  H 3.815030 -0.244129 1.772882
  H 1.889745 0.357677 3.264681
  H 1.898440 1.987790 2.592697
  H 4.227020 0.683809 4.083677
  H 3.135090 1.904824 4.720825
  H 4.236860 2.310318 3.413139
  H 2.032652 -0.646222 -1.512850
  H 4.821115 -0.175644 -0.286625
  H 5.246081 -2.360900 -3.499550
  H 5.254850 -0.716495 -4.128101
  H 2.734894 -0.587706 -3.864293
  H 2.725378 -2.257193 -3.224479
 28
 58.549339
  C 0.677264 0.248160 0.667330
  C 2.120469 0.147865 0.454487
  C 3.100121 0.555096 1.469775
  C 2.585760 1.101162 2.787656
  C 3.726660 1.472454 3.722909
  C 2.541380 -0.353254 -0.773856
  C 3.896080 -0.509668 -1.152922
  C 4.471186 -0.923619 -2.231279
  C 4.807284 -1.401985 -3.471188
  C 3.325467 -1.621162 -3.957183
  H 3.429139 -2.009871 -4.968956
  H 7.123454 -0.311242 -0.673925
  H 0.409069 0.650657 1.636020
  H 0.211783 -0.733932 0.537818
  H 0.223346 0.857712 -0.120221
  H 3.779481 1.294776 1.023872
  H 3.764158 -0.296506 1.676401
  H 1.953516 0.360431 3.284134
  H 1.973111 1.989823 2.614127
  H 4.349091 0.609266 3.951920
  H 3.338507 1.861992 4.659269
  H 4.367454 2.234505 3.283440
  H 1.796697 -0.645914 -1.499862
  H 4.672731 -0.234816 -0.433314
  H 5.365717 -2.342158 -3.472706
  H 5.332972 -0.692839 -4.117015
  H 2.768716 -0.689871 -4.000356
  H 2.804463 -2.358013 -3.354234
 28
 58.478695
  C 0.680752 0.236360 0.699421
  C 2.121293 0.120974 0.478173
  C 3.110903 0.541968 1.474626
  C 2.609979 1.141892 2.773003
  C 3.758738 1.514629 3.697860
  C 2.533058 -0.413335 -0.741744
  C 3.886270 -0.593592 -1.126071
  C 4.464462 -0.952703 -2.222128
  C 4.837421 -1.359158 -3.474239
  C 3.349319 -1.558714 -3.963455
  H 3.452985 -1.883064 -4.997952
  H 7.160854 -0.303806 -0.546894
  H 0.421827 0.668848 1.657008
  H 0.208869 -0.745066 0.603023
  H 0.223919 0.824296 -0.101076
  H 3.804687 1.252623 1.002463
  H 3.759291 -0.315655 1.707869
  H 1.958143 0.433321 3.291563
  H 2.018634 2.039288 2.570524
  H 4.358812 0.644057 3.956369
  H 3.379206 1.944595 4.620213
  H 4.419106 2.245361 3.235059
  H 1.781630 -0.718118 -1.458404
  H 4.674332 -0.347250 -0.406637
  H 5.403102 -2.293465 -3.523031
  H 5.360158 -0.615136 -4.080005
  H 2.784190 -0.631724 -3.947910
  H 2.836093 -2.336077 -3.406360
 28
 56.381879
  C 0.709840 0.165864 0.640589
  C 2.139451 0.117443 0.371608
  C 2.977519 0.634259 1.493474
  C 2.654019 1.189464 2.691675
  C 3.715165 1.526543 3.731341
  C 2.583675 -0.490080 -0.631073
  C 3.874657 -0.512169 -1.180214
  C 4.494321 -1.199687 -2.245997
  C 4.844905 -1.196277 -3.418694
  C 3.318253 -1.416298 -4.023539
  H 3.392729 -1.741319 -5.026200
  H 7.228605 -0.615186 -0.226321
  H 0.426401 0.555418 1.673642
  H 0.244239 -0.911766 0.659582
  H 0.208308 0.705625 -0.035671
  H 3.867301 1.319058 1.028817
  H 3.838170 -0.362753 1.666656
  H 1.973139 0.484965 3.375666
  H 1.962421 1.931310 2.523964
  H 4.443140 0.790677 3.842369
  H 3.377401 2.032461 4.570125
  H 4.324848 2.408795 3.220713
  H 1.820427 -0.731827 -1.445491
  H 4.677296 -0.424275 -0.459697
  H 5.298725 -2.364004 -3.573707
  H 5.387058 -0.691716 -4.116346
  H 2.818726 -0.449420 -3.907890
  H 2.756151 -2.214429 -3.426722
