 23
 0.000000
  H 1.412675 0.146710 0.427329
  C 2.493707 0.142005 0.413148
  C 3.255984 0.612718 1.575368
  C 2.430840 1.091065 2.761339
  H 3.077878 1.416926 3.568779
  C 3.078539 -0.324179 -0.748699
  C 4.454503 -0.413957 -0.975306
  C 5.126736 -0.867371 -2.109828
  C 4.615772 -1.385420 -3.405156
  C 3.123550 -1.494859 -3.678758
  H 2.968773 -1.893565 -4.675909
  O 6.442465 -0.865203 -2.105837
  H 3.919063 1.423768 1.246931
  H 3.915169 -0.198268 1.908201
  H 1.792875 0.291562 3.131576
  H 1.792416 1.923494 2.473449
  H 2.402615 -0.635117 -1.524267
  H 5.086409 -0.086338 -0.157995
  H 5.071398 -2.373617 -3.536162
  H 5.071414 -0.760117 -4.181518
  H 2.646815 -0.519153 -3.630409
  H 2.646809 -2.168255 -2.971028
  H 6.838337 -0.534313 -1.276547
 23
 0.680662
  H 1.520557 -0.311087 0.699765
  C 2.575420 -0.136577 0.550396
  C 3.274999 0.670075 1.559837
  C 2.374439 1.175849 2.671161
  H 2.942697 1.779185 3.375659
  C 3.113994 -0.553729 -0.647287
  C 4.487042 -0.632558 -0.898494
  C 5.146040 -0.988074 -2.074758
  C 4.603840 -1.334304 -3.410892
  C 3.109537 -1.333705 -3.671339
  H 2.944549 -1.597457 -4.715388
  O 6.462612 -1.033632 -2.078959
  H 3.745420 1.509722 1.036098
  H 4.103321 0.092896 1.996922
  H 1.928459 0.349998 3.214680
  H 1.575307 1.789417 2.270677
  H 2.416444 -0.823207 -1.420223
  H 5.134531 -0.426304 -0.053492
  H 5.014698 -2.317815 -3.658808
  H 5.090915 -0.650434 -4.113340
  H 2.676807 -0.353807 -3.509482
  H 2.598314 -2.074228 -3.067259
  H 6.887600 -0.815097 -1.232911
 23
 4.403927
  H 1.612454 -0.544560 0.819618
  C 2.629861 -0.238174 0.616333
  C 3.244866 0.755848 1.502097
  C 2.333055 1.240866 2.617732
  H 2.832822 2.002534 3.209680
  C 3.156274 -0.610631 -0.607034
  C 4.518823 -0.723582 -0.870990
  C 5.159551 -1.030290 -2.070408
  C 4.599975 -1.275177 -3.426836
  C 3.102892 -1.204843 -3.677533
  H 2.923131 -1.411456 -4.729923
  O 6.470763 -1.132703 -2.083872
  H 3.540261 1.578077 0.840673
  H 4.177613 0.370732 1.932182
  H 2.059144 0.422338 3.278671
  H 1.421345 1.672597 2.213071
  H 2.441832 -0.749017 -1.400522
  H 5.173499 -0.613461 -0.013339
  H 4.973450 -2.258357 -3.734487
  H 5.109934 -0.567183 -4.090390
  H 2.708426 -0.214646 -3.468051
  H 2.565694 -1.955656 -3.104875
  H 6.906557 -0.984478 -1.223503
 23
 10.015584
  H 1.777462 -0.730401 0.925110
  C 2.694206 -0.227794 0.634533
  C 3.173742 0.881830 1.457875
  C 2.275595 1.224866 2.634928
  H 2.666383 2.084885 3.166686
  C 3.219547 -0.535708 -0.614653
  C 4.560618 -0.765579 -0.868416
  C 5.180170 -1.112565 -2.066404
  C 4.608768 -1.311471 -3.430922
  C 3.119853 -1.124589 -3.688132
  H 2.926310 -1.329731 -4.740411
  O 6.475936 -1.326540 -2.071571
  H 3.265621 1.721036 0.760550
  H 4.195170 0.688794 1.814549
  H 2.215450 0.394823 3.332165
  H 1.271836 1.463867 2.299832
  H 2.496705 -0.585161 -1.413315
  H 5.215257 -0.726135 -0.003775
  H 4.904023 -2.322512 -3.736592
  H 5.176901 -0.645072 -4.092231
  H 2.805612 -0.101308 -3.493742
  H 2.522429 -1.823613 -3.107001
  H 6.916113 -1.219170 -1.203854
 23
 18.080007
  H 1.963712 -0.901774 1.078461
  C 2.788513 -0.302285 0.708357
  C 3.101221 0.955083 1.393869
  C 2.186572 1.272418 2.568865
  H 2.444811 2.236962 2.999123
  C 3.297235 -0.612598 -0.565975
  C 4.612685 -0.908428 -0.838098
  C 5.209587 -1.204560 -2.065174
  C 4.616530 -1.278222 -3.428846
  C 3.139939 -0.998764 -3.647072
  H 2.921199 -1.128946 -4.703363
  O 6.496639 -1.484962 -2.098091
  H 3.046563 1.722698 0.618977
  H 4.144787 0.961552 1.730818
  H 2.283761 0.520735 3.346963
  H 1.146506 1.311356 2.252217
  H 2.577290 -0.511338 -1.368625
  H 5.274155 -0.955752 0.018949
  H 4.850744 -2.281299 -3.800585
  H 5.211762 -0.604872 -4.057127
  H 2.890485 0.024200 -3.389242
  H 2.509953 -1.695004 -3.096443
  H 6.946987 -1.457865 -1.234741
 23
 28.323486
  H 2.305145 -1.022522 1.248051
  C 2.928574 -0.276123 0.776592
  C 2.971635 1.078854 1.339019
  C 2.068382 1.270940 2.549955
  H 2.130301 2.296563 2.904253
  C 3.413457 -0.558808 -0.546735
  C 4.667178 -1.004269 -0.831448
  C 5.233921 -1.319196 -2.083926
  C 4.631025 -1.290771 -3.441197
  C 3.185173 -0.865790 -3.640167
  H 2.948573 -0.944625 -4.698263
  O 6.482320 -1.715450 -2.127166
  H 2.707976 1.784674 0.540723
  H 4.006977 1.328050 1.608637
  H 2.363405 0.613982 3.364147
  H 1.031969 1.062227 2.297143
  H 2.708067 -0.336662 -1.338895
  H 5.322800 -1.163410 0.017374
  H 4.769979 -2.297382 -3.850489
  H 5.283827 -0.655060 -4.050617
  H 3.030207 0.170106 -3.351744
  H 2.499899 -1.517025 -3.103362
  H 6.935853 -1.762383 -1.263508
 23
 19.890853
  H 2.646431 -1.049436 1.370519
  C 3.068251 -0.238836 0.793916
  C 2.859092 1.136127 1.259218
  C 2.006239 1.233516 2.516376
  H 1.885439 2.272565 2.809981
  C 3.508684 -0.534190 -0.520093
  C 4.714717 -1.114921 -0.825709
  C 5.244343 -1.433571 -2.079850
  C 4.650043 -1.297898 -3.436436
  C 3.244190 -0.740419 -3.618287
  H 3.003944 -0.758744 -4.679790
  O 6.463203 -1.922641 -2.148653
  H 2.417409 1.730067 0.446939
  H 3.839247 1.592596 1.439306
  H 2.470005 0.700927 3.343753
  H 1.017113 0.812993 2.346923
  H 2.827813 -0.245859 -1.312892
  H 5.349756 -1.363746 0.017513
  H 4.703134 -2.297624 -3.883961
  H 5.357401 -0.696045 -4.020710
  H 3.179145 0.292298 -3.291906
  H 2.502699 -1.350342 -3.105793
  H 6.914011 -2.032997 -1.291083
 23
 11.224833
  H 2.957565 -0.979987 1.452049
  C 3.156969 -0.144446 0.793199
  C 2.722417 1.187961 1.219144
  C 1.938094 1.184352 2.525903
  H 1.642718 2.195836 2.791779
  C 3.565248 -0.430780 -0.513146
  C 4.722712 -1.122384 -0.822228
  C 5.222735 -1.482271 -2.071924
  C 4.639624 -1.302853 -3.429063
  C 3.296963 -0.613846 -3.612546
  H 3.051854 -0.620889 -4.672101
  O 6.389257 -2.088030 -2.141919
  H 2.137362 1.658372 0.417416
  H 3.610259 1.822850 1.327067
  H 2.537536 0.784576 3.340176
  H 1.037606 0.582363 2.433499
  H 2.943284 -0.039267 -1.307103
  H 5.335084 -1.414796 0.023198
  H 4.591484 -2.307562 -3.864393
  H 5.399524 -0.781416 -4.021282
  H 3.335440 0.425301 -3.297925
  H 2.503299 -1.141117 -3.090961
  H 6.826515 -2.244784 -1.282730
 23
 4.236547
  H 3.316859 -0.849293 1.540854
  C 3.275900 -0.056457 0.805053
  C 2.601942 1.191958 1.167921
  C 1.894369 1.139549 2.516066
  H 1.419279 2.092662 2.731394
  C 3.622701 -0.357266 -0.501013
  C 4.710396 -1.162460 -0.820157
  C 5.186226 -1.548094 -2.073017
  C 4.647420 -1.274284 -3.432083
  C 3.377454 -0.460169 -3.615642
  H 3.152919 -0.413397 -4.678545
  O 6.282623 -2.270835 -2.142909
  H 1.906991 1.467112 0.364579
  H 3.345536 1.998420 1.183231
  H 2.596376 0.925186 3.317830
  H 1.126501 0.369938 2.516689
  H 3.023003 0.087222 -1.280414
  H 5.283673 -1.525031 0.026450
  H 4.516351 -2.256483 -3.901010
  H 5.463526 -0.807598 -3.994911
  H 3.504479 0.560690 -3.267092
  H 2.529413 -0.926983 -3.122856
  H 6.689256 -2.490593 -1.284243
 23
 1.612142
  H 3.640606 -0.654239 1.566212
  C 3.422850 0.090322 0.804528
  C 2.557091 1.213402 1.167759
  C 1.804949 1.023193 2.478361
  H 1.180273 1.890436 2.683907
  C 3.760550 -0.181720 -0.500311
  C 4.809374 -1.038952 -0.838286
  C 5.193927 -1.512884 -2.090811
  C 4.571852 -1.305085 -3.424766
  C 3.356504 -0.408109 -3.585289
  H 3.048367 -0.435323 -4.625472
  O 6.180038 -2.379427 -2.165199
  H 1.874495 1.405051 0.341090
  H 3.181447 2.114669 1.247742
  H 2.493058 0.897256 3.309720
  H 1.165558 0.147081 2.427926
  H 3.227157 0.345950 -1.271899
  H 5.403479 -1.392681 -0.003096
  H 4.332497 -2.311994 -3.800262
  H 5.369629 -0.951886 -4.080931
  H 3.587654 0.628847 -3.342592
  H 2.521686 -0.759129 -2.986620
  H 6.590201 -2.615819 -1.312109
