 16
 0.000000
  H 1.489756 0.160156 0.449269
  C 2.572936 0.148885 0.420588
  C 3.266314 0.624590 1.603642
  C 2.370645 1.077868 2.734303
  H 2.961845 1.418064 3.581448
  C 3.170155 -0.314558 -0.732743
  C 4.566921 -0.401010 -0.947760
  C 5.075966 -0.870613 -2.117589
  H 4.429260 -1.192724 -2.920261
  H 6.139124 -0.938345 -2.285570
  H 3.955917 1.434074 1.321891
  H 3.956914 -0.154134 1.959663
  H 1.724404 0.268858 3.070685
  H 1.723470 1.894345 2.418474
  H 2.526595 -0.639258 -1.541376
  H 5.236337 -0.085741 -0.161829
 16
 0.654740
  H 1.478665 0.237033 0.417138
  C 2.559195 0.205684 0.392683
  C 3.259978 0.594738 1.605021
  C 2.375898 1.025043 2.755297
  H 2.974900 1.303478 3.619017
  C 3.157348 -0.233030 -0.770987
  C 4.553810 -0.257255 -1.017069
  C 5.081331 -0.946259 -2.060193
  H 4.456198 -1.516451 -2.732829
  H 6.141753 -0.971652 -2.237578
  H 3.978513 1.386205 1.362995
  H 3.930311 -0.219504 1.927647
  H 1.701988 0.223100 3.052832
  H 1.756327 1.876690 2.475062
  H 2.515009 -0.591417 -1.568774
  H 5.210240 0.311602 -0.373253
 16
 2.672529
  H 1.452259 0.285081 0.405758
  C 2.532354 0.251643 0.361532
  C 3.262313 0.576174 1.578329
  C 2.405232 0.943523 2.768917
  H 3.023958 1.173395 3.632453
  C 3.117559 -0.142327 -0.819588
  C 4.514431 -0.128871 -1.092355
  C 5.091240 -1.002244 -1.948434
  H 4.528699 -1.804941 -2.396305
  H 6.144947 -0.964307 -2.163226
  H 3.974511 1.386373 1.351673
  H 3.944147 -0.245321 1.844935
  H 1.738745 0.128829 3.038493
  H 1.781619 1.807857 2.548568
  H 2.468421 -0.483675 -1.615785
  H 5.112138 0.650497 -0.638334
 16
 6.034316
  H 1.421731 0.287892 0.426048
  C 2.501269 0.287852 0.337671
  C 3.272913 0.584767 1.535148
  C 2.455698 0.856657 2.776521
  H 3.100801 1.055330 3.625580
  C 3.048987 -0.050821 -0.876319
  C 4.445912 -0.052416 -1.177094
  C 5.105464 -1.040711 -1.808388
  H 4.640750 -1.997648 -1.990723
  H 6.144085 -0.943149 -2.078026
  H 3.950672 1.428975 1.324854
  H 3.988520 -0.231492 1.732972
  H 1.819410 0.005700 3.024255
  H 1.799161 1.715215 2.631490
  H 2.374810 -0.330542 -1.678375
  H 4.971695 0.864470 -0.927555
 16
 9.860861
  H 1.389399 0.277930 0.458090
  C 2.465567 0.269423 0.336052
  C 3.279231 0.541140 1.510210
  C 2.512449 0.819824 2.781026
  H 3.190760 1.009483 3.610752
  C 2.973619 -0.018439 -0.908049
  C 4.351377 -0.030712 -1.250159
  C 5.135817 -1.014534 -1.696246
  H 4.803878 -2.039956 -1.658382
  H 6.145345 -0.847124 -2.016170
  H 3.973458 1.363672 1.295336
  H 3.978137 -0.299272 1.674022
  H 1.875609 -0.013543 3.048224
  H 1.870358 1.692996 2.660111
  H 2.276306 -0.248262 -1.712501
  H 4.755256 0.986781 -1.228673
 16
 13.834524
  H 1.375292 0.291628 0.497474
  C 2.453878 0.275167 0.359858
  C 3.287869 0.550332 1.526985
  C 2.524089 0.822666 2.811348
  H 3.206246 0.974390 3.635766
  C 2.943291 -0.034071 -0.886452
  C 4.338941 -0.105966 -1.247115
  C 5.167622 -1.014230 -1.712905
  H 5.020521 -2.056251 -1.476765
  H 6.091513 -0.761423 -2.200272
  H 3.972073 1.374032 1.315455
  H 3.971714 -0.295249 1.673938
  H 1.866278 -0.011388 3.060967
  H 1.903063 1.713574 2.712082
  H 2.248265 -0.237520 -1.691274
  H 4.536521 0.970390 -1.437384
 16
 21.567370
  H 1.368708 0.384068 0.507434
  C 2.445268 0.289616 0.384652
  C 3.290598 0.535431 1.545363
  C 2.528896 0.847321 2.824926
  H 3.215904 0.986188 3.655877
  C 2.922970 -0.053842 -0.849825
  C 4.298228 -0.245576 -1.210464
  C 5.217709 -1.006223 -1.750201
  H 5.249784 -2.066647 -1.546113
  H 6.054929 -0.605777 -2.305225
  H 3.999047 1.338108 1.327338
  H 3.935514 -0.347934 1.704085
  H 1.843050 0.039571 3.083964
  H 1.947598 1.758126 2.719885
  H 2.219474 -0.242745 -1.646721
  H 4.297056 0.854181 -1.462029
 16
 30.685660
  H 1.370120 0.477601 0.514734
  C 2.471754 0.346485 0.409875
  C 3.321436 0.503865 1.559149
  C 2.556165 0.828675 2.844246
  H 3.229677 0.938047 3.680285
  C 2.933025 -0.010401 -0.868921
  C 4.257056 -0.339882 -1.254383
  C 5.233464 -0.978134 -1.779392
  H 5.349275 -2.017510 -1.495824
  H 5.993761 -0.535422 -2.363103
  H 4.063842 1.275968 1.356462
  H 3.905836 -0.413646 1.697915
  H 1.847226 0.038045 3.093549
  H 1.993579 1.776478 2.736814
  H 2.197815 -0.216020 -1.623507
  H 4.035709 0.792023 -1.474529
 16
 34.250299
  H 1.362840 0.477993 0.531872
  C 2.417381 0.339682 0.357582
  C 3.351843 0.509676 1.479306
  C 2.658586 0.839087 2.794909
  H 3.388731 0.957460 3.590513
  C 2.839198 -0.013108 -0.953314
  C 4.121367 -0.494052 -1.263158
  C 5.264753 -0.976780 -1.566959
  H 5.485274 -2.023738 -1.404427
  H 6.083589 -0.411320 -1.990515
  H 4.082913 1.295286 1.248780
  H 3.948033 -0.405554 1.593184
  H 1.973807 0.045263 3.080882
  H 2.094021 1.764962 2.714376
  H 2.053380 -0.244268 -1.668936
  H 3.561942 0.810153 -1.454119
 16
 32.442886
  H 1.369123 0.492045 0.509027
  C 2.425147 0.369996 0.339238
  C 3.352500 0.514856 1.465423
  C 2.655285 0.805944 2.788633
  H 3.383730 0.904654 3.588042
  C 2.866241 0.052826 -1.000663
  C 4.111366 -0.566600 -1.243277
  C 5.269264 -1.014304 -1.511321
  H 5.506217 -2.066853 -1.408618
  H 6.104595 -0.418853 -1.859702
  H 4.079249 1.310261 1.257028
  H 3.956463 -0.398697 1.556624
  H 1.972352 0.002465 3.052033
  H 2.088414 1.731579 2.732575
  H 2.079522 -0.197428 -1.710192
  H 3.407512 0.964387 -1.402587
 16
 29.910817
  H 1.382172 0.575292 0.488535
  C 2.435358 0.412780 0.327979
  C 3.357594 0.476441 1.459817
  C 2.678125 0.788149 2.787966
  H 3.409654 0.819662 3.590162
  C 2.880680 0.107860 -1.030459
  C 4.104808 -0.559643 -1.241850
  C 5.268747 -1.011397 -1.466535
  H 5.510049 -2.062733 -1.384954
  H 6.124175 -0.407471 -1.751823
  H 4.137193 1.223834 1.261593
  H 3.905380 -0.475222 1.532058
  H 1.941681 0.029637 3.033606
  H 2.176507 1.751740 2.750382
  H 2.083123 -0.232925 -1.693629
  H 3.194852 1.096726 -1.439939
 16
 28.786989
  H 1.393865 0.671831 0.461316
  C 2.433464 0.419194 0.324970
  C 3.338140 0.406801 1.471246
  C 2.686781 0.820561 2.784616
  H 3.396720 0.737664 3.603771
  C 2.888789 0.104574 -1.030955
  C 4.142010 -0.506215 -1.231904
  C 5.305714 -0.956231 -1.451111
  H 5.559849 -2.010950 -1.386489
  H 6.159953 -0.341997 -1.713743
  H 4.199385 1.054848 1.262206
  H 3.775210 -0.597767 1.566731
  H 1.833798 0.185859 3.013157
  H 2.342495 1.852216 2.739059
  H 2.112464 -0.376464 -1.634790
  H 2.984798 1.109521 -1.494654
 16
 27.859469
  H 1.429316 0.804998 0.441743
  C 2.437224 0.443602 0.319562
  C 3.316381 0.330524 1.477759
  C 2.707497 0.834947 2.779002
  H 3.403219 0.698060 3.602704
  C 2.877993 0.102546 -1.030486
  C 4.164111 -0.435628 -1.227359
  C 5.335969 -0.876190 -1.427638
  H 5.597678 -1.928886 -1.383775
  H 6.183840 -0.249235 -1.680896
  H 4.258414 0.856143 1.269112
  H 3.618323 -0.721785 1.588109
  H 1.794068 0.294740 3.016144
  H 2.470065 1.893955 2.710429
  H 2.126272 -0.510918 -1.547732
  H 2.833067 1.036571 -1.623252
