 14
 0.000000
  C 0.965582 0.149925 0.421512
  C 2.416936 0.098789 0.300396
  H 3.017627 0.432824 1.136239
  C 3.051080 -0.357127 -0.834599
  C 4.444493 -0.399206 -0.937052
  C 5.161102 -0.840723 -2.036803
  H 4.717961 -1.209924 -2.955396
  O 6.453033 -0.855060 -2.090046
  H 0.641509 0.535604 1.382392
  H 0.537550 -0.843783 0.267000
  H 0.540587 0.763348 -0.376991
  H 2.440927 -0.687654 -1.662401
  H 5.012670 -0.054361 -0.079976
  H 6.912183 -0.530109 -1.286248
 14
 -0.026593
  C 0.958960 0.174051 0.410063
  C 2.413930 0.069329 0.314006
  H 3.014108 0.363914 1.169519
  C 3.052548 -0.389116 -0.814443
  C 4.446469 -0.445960 -0.913990
  C 5.147005 -0.917962 -2.016442
  H 4.675261 -1.392591 -2.873921
  O 6.501712 -0.757022 -2.125781
  H 0.629261 0.514003 1.387855
  H 0.485053 -0.784690 0.171895
  H 0.581626 0.856216 -0.362529
  H 2.445121 -0.693816 -1.661751
  H 5.018939 -0.068667 -0.074247
  H 6.960205 -0.322608 -1.326042
 14
 0.873279
  C 0.956091 0.176664 0.376470
  C 2.405197 0.021813 0.332282
  H 2.975311 0.237494 1.226411
  C 3.077341 -0.391296 -0.796364
  C 4.470986 -0.454838 -0.868553
  C 5.165559 -0.901402 -1.983494
  H 4.693016 -1.479433 -2.769639
  O 6.430608 -0.716302 -2.160077
  H 0.593265 0.423881 1.367991
  H 0.459243 -0.724419 0.009251
  H 0.646898 0.958060 -0.324239
  H 2.514098 -0.642304 -1.680893
  H 5.040568 -0.088997 -0.022342
  H 6.885669 -0.213494 -1.452379
 14
 4.481925
  C 0.956502 0.241264 0.336534
  C 2.395492 -0.004290 0.369404
  H 2.927341 0.161997 1.297301
  C 3.107973 -0.430298 -0.729865
  C 4.502423 -0.514953 -0.770692
  C 5.150769 -1.002177 -1.898557
  H 4.708827 -1.798566 -2.491181
  O 6.315835 -0.653493 -2.322239
  H 0.549164 0.451017 1.319362
  H 0.426728 -0.598431 -0.117721
  H 0.746058 1.088527 -0.322755
  H 2.591655 -0.680698 -1.645924
  H 5.085157 -0.107537 0.045962
  H 6.789517 0.008054 -1.773762
 14
 12.748779
  C 0.972704 0.291753 0.256110
  C 2.393865 -0.025584 0.397630
  H 2.850360 0.062921 1.374571
  C 3.176563 -0.446069 -0.653053
  C 4.565398 -0.580345 -0.640933
  C 5.140247 -1.050989 -1.828278
  H 4.810621 -2.001815 -2.243683
  O 6.130136 -0.545168 -2.473944
  H 0.503025 0.501384 1.211188
  H 0.439796 -0.515802 -0.248106
  H 0.854131 1.162509 -0.393915
  H 2.743993 -0.680913 -1.616430
  H 5.174026 -0.202510 0.168473
  H 6.567943 0.232919 -2.063555
 14
 25.306253
  C 1.006505 0.312747 0.150056
  C 2.404540 -0.021537 0.432910
  H 2.748560 -0.003391 1.458417
  C 3.279633 -0.457613 -0.530805
  C 4.666730 -0.598884 -0.488764
  C 5.077332 -1.076294 -1.756955
  H 4.883721 -2.115729 -2.020287
  O 5.837998 -0.486351 -2.603243
  H 0.440734 0.479963 1.060470
  H 0.528704 -0.472025 -0.436838
  H 0.955003 1.214255 -0.464311
  H 2.938709 -0.717994 -1.531970
  H 5.330335 -0.221928 0.270558
  H 6.252790 0.358052 -2.315736
 14
 41.845126
  C 1.057256 0.298175 0.023488
  C 2.422543 -0.029349 0.449639
  H 2.674792 0.027190 1.498998
  C 3.413214 -0.411399 -0.409277
  C 4.795845 -0.577953 -0.340455
  C 4.969065 -1.083507 -1.670583
  H 4.901210 -2.159822 -1.833497
  O 5.501657 -0.471378 -2.658367
  H 0.413237 0.487834 0.875412
  H 0.628716 -0.502176 -0.582977
  H 1.063777 1.187265 -0.609186
  H 3.139585 -0.809222 -1.413633
  H 5.530492 -0.196789 0.338480
  H 5.888509 0.419367 -2.480509
 14
 54.867483
  C 1.128574 0.257894 -0.098799
  C 2.463141 0.004038 0.471534
  H 2.594130 0.046627 1.545174
  C 3.565293 -0.357147 -0.238540
  C 4.922660 -0.508812 -0.238992
  C 4.816476 -1.079644 -1.581380
  H 4.827828 -2.166806 -1.678710
  O 5.175511 -0.481142 -2.671278
  H 0.390903 0.405076 0.682543
  H 0.806076 -0.561014 -0.743763
  H 1.149662 1.151438 -0.726080
  H 3.340170 -0.862307 -1.336431
  H 5.737773 -0.107364 0.319651
  H 5.549920 0.418128 -2.563311
 14
 59.309411
  C 1.181841 0.247541 -0.154992
  C 2.472163 -0.015047 0.506618
  H 2.510343 -0.040153 1.589858
  C 3.637927 -0.301269 -0.092886
  C 4.959874 -0.455924 -0.208341
  C 4.695447 -1.077765 -1.539814
  H 4.811158 -2.161939 -1.604076
  O 5.031882 -0.467341 -2.684799
  H 0.380658 0.335407 0.571118
  H 0.932665 -0.536755 -0.870643
  H 1.233599 1.178910 -0.724852
  H 3.471324 -0.949620 -1.376069
  H 5.831096 -0.041959 0.248530
  H 5.404893 0.423703 -2.571280
 14
 50.809190
  C 1.166484 0.305294 -0.100337
  C 2.429726 -0.043417 0.572683
  H 2.400673 -0.207502 1.649395
  C 3.608914 -0.252130 0.025881
  C 4.877862 -0.408556 -0.274796
  C 4.705391 -1.122135 -1.595285
  H 4.979170 -2.183455 -1.582331
  O 5.161692 -0.510770 -2.731545
  H 0.335069 0.300158 0.595718
  H 0.960197 -0.380499 -0.920948
  H 1.241158 1.301335 -0.544262
  H 3.562970 -1.127570 -1.601759
  H 5.760812 0.053256 0.122494
  H 5.465713 0.398755 -2.588766
 14
 39.583014
  C 1.125935 0.384119 0.005076
  C 2.360986 -0.140266 0.627235
  H 2.279479 -0.475521 1.661268
  C 3.533613 -0.296464 0.078759
  C 4.753663 -0.343584 -0.406768
  C 4.774654 -1.147645 -1.664717
  H 5.171464 -2.161819 -1.494712
  O 5.391785 -0.601619 -2.766457
  H 0.281318 0.307636 0.680391
  H 0.902542 -0.136162 -0.924192
  H 1.273306 1.435299 -0.252394
  H 3.690877 -1.309916 -1.863777
  H 5.579221 0.267068 -0.078237
  H 5.635356 0.329125 -2.647480
 14
 35.280792
  C 1.022409 0.374845 0.164176
  C 2.326599 -0.166055 0.626820
  H 2.334355 -0.574446 1.637533
  C 3.448318 -0.236161 -0.020987
  C 4.639010 -0.255757 -0.593449
  C 4.810725 -1.101967 -1.792206
  H 5.023991 -2.141937 -1.474913
  O 5.757704 -0.744343 -2.722610
  H 0.241506 0.196925 0.894670
  H 0.734378 -0.056345 -0.791565
  H 1.124226 1.451236 0.017465
  H 3.811331 -1.184485 -2.262030
  H 5.429561 0.408991 -0.269926
  H 6.152363 0.124881 -2.551633
 14
 33.910602
  C 0.962209 0.342328 0.258826
  C 2.317933 -0.124389 0.646102
  H 2.421508 -0.449245 1.680667
  C 3.375091 -0.226626 -0.091656
  C 4.539868 -0.233507 -0.722977
  C 4.829940 -1.076725 -1.887976
  H 4.841737 -2.135885 -1.568654
  O 5.994799 -0.846499 -2.584959
  H 0.248361 0.180639 1.058043
  H 0.618942 -0.157671 -0.643477
  H 1.011203 1.409723 0.043910
  H 3.969413 -1.044537 -2.585438
  H 5.298003 0.472491 -0.400593
  H 6.427468 -0.014713 -2.340471
 14
 30.640342
  C 0.976806 0.285872 0.233589
  C 2.338118 -0.064336 0.686182
  H 2.441704 -0.300618 1.743672
  C 3.423357 -0.079136 -0.041084
  C 4.502513 -0.083400 -0.773417
  C 4.755389 -1.035168 -1.910444
  H 4.895728 -2.016741 -1.413951
  O 5.821455 -0.735524 -2.723587
  H 0.228454 -0.286882 0.776055
  H 0.852999 0.160958 -0.837842
  H 0.809232 1.336443 0.483087
  H 3.881009 -1.131852 -2.561133
  H 5.289214 0.637990 -0.577884
  H 6.640498 -0.592222 -2.221895
