12

C -3.51557 0.980377 -0.127002
C -2.071025 0.588421 -0.027771
C -1.649768 -0.471576 0.639299
C -0.235815 -0.938442 0.797173
H 0.07722968936396246 -0.6811870990613753 0.5911999108672289
H -4.113842 0.156364 -0.512537
H -3.64206 1.838301 -0.780754
H -3.909887 1.238517 0.855729
H -1.369167 1.231806 -0.53901
H -2.377626 -1.098772 1.140513
H -0.010269 -0.991285 1.866916
H -0.170501 -1.960042 0.409408
