 20
 0.000000
  H 1.506737 0.164290 0.459058
  C 2.587540 0.155877 0.439057
  C 3.312346 0.629517 1.618042
  C 2.427413 1.092715 2.769343
  C 3.262871 1.568035 3.953870
  C 3.177883 -0.309365 -0.718176
  C 4.557544 -0.397810 -0.938273
  C 5.106637 -0.869525 -2.114658
  H 4.515764 -1.208802 -2.958862
  O 6.376189 -0.962273 -2.349401
  H 3.978231 1.451363 1.325519
  H 3.977419 -0.166759 1.975823
  H 1.782612 0.274339 3.094833
  H 1.783746 1.909543 2.437790
  H 3.895417 0.768135 4.331679
  H 2.616879 1.894284 4.764827
  H 3.896614 2.406191 3.673576
  H 2.523581 -0.630162 -1.517407
  H 5.223424 -0.080625 -0.147609
  H 6.954589 -0.665687 -1.615028
 20
 0.066452
  H 1.551410 0.382868 0.403015
  C 2.621957 0.253607 0.403729
  C 3.329933 0.671852 1.612994
  C 2.422212 1.065293 2.770484
  C 3.229568 1.512696 3.985009
  C 3.205787 -0.287554 -0.719918
  C 4.584792 -0.349707 -0.949151
  C 5.104285 -0.974784 -2.066909
  H 4.444825 -1.473147 -2.777606
  O 6.351351 -1.058662 -2.379268
  H 3.973527 1.532501 1.361951
  H 4.028711 -0.106857 1.936520
  H 1.798760 0.214316 3.050091
  H 1.755660 1.873832 2.462869
  H 3.884275 0.715164 4.333446
  H 2.565623 1.781224 4.802689
  H 3.840012 2.383645 3.749867
  H 2.554118 -0.673366 -1.493990
  H 5.253729 0.140997 -0.250369
  H 6.970291 -0.620125 -1.756537
 20
 2.408132
  H 1.603005 0.681128 0.299893
  C 2.646064 0.396486 0.351863
  C 3.346901 0.721461 1.596304
  C 2.422379 1.066881 2.761470
  C 3.218100 1.419897 4.013097
  C 3.196282 -0.285371 -0.709375
  C 4.567629 -0.303020 -0.990340
  C 5.124860 -1.109866 -1.961768
  H 4.532481 -1.883872 -2.439741
  O 6.351022 -1.079465 -2.365370
  H 3.990420 1.594815 1.408594
  H 4.031130 -0.083373 1.879925
  H 1.778734 0.212408 2.977435
  H 1.779695 1.906992 2.493082
  H 3.851030 0.589892 4.318423
  H 2.545971 1.648740 4.836066
  H 3.847973 2.290095 3.843501
  H 2.526044 -0.769745 -1.407782
  H 5.178516 0.410706 -0.455517
  H 6.912062 -0.393561 -1.946164
 20
 7.324186
  H 1.768914 0.898683 0.206391
  C 2.736998 0.438791 0.368393
  C 3.386605 0.734511 1.646566
  C 2.402998 1.076851 2.768006
  C 3.140147 1.395167 4.063579
  C 3.262346 -0.362761 -0.625388
  C 4.589764 -0.294004 -1.049570
  C 5.129426 -1.155129 -1.982060
  H 4.575619 -2.027753 -2.312580
  O 6.298145 -1.053312 -2.526390
  H 4.037153 1.612321 1.507398
  H 4.048478 -0.081477 1.945630
  H 1.738127 0.227882 2.934495
  H 1.789735 1.932016 2.480436
  H 3.743390 0.549490 4.385291
  H 2.430175 1.620865 4.855150
  H 3.791952 2.256980 3.941189
  H 2.572825 -0.988994 -1.181125
  H 5.167196 0.538358 -0.669933
  H 6.820986 -0.275869 -2.240920
 20
 15.362574
  H 1.974802 1.075400 0.142336
  C 2.857172 0.492261 0.386543
  C 3.438487 0.732398 1.707347
  C 2.389089 1.106827 2.761025
  C 3.046996 1.371792 4.109548
  C 3.339831 -0.413848 -0.554859
  C 4.600685 -0.287809 -1.122154
  C 5.143505 -1.199907 -2.002669
  H 4.665149 -2.158901 -2.170245
  O 6.232162 -1.042681 -2.685812
  H 4.138580 1.580229 1.641425
  H 4.031831 -0.124380 2.032380
  H 1.676915 0.287053 2.865194
  H 1.838619 1.993048 2.443250
  H 3.572688 0.489150 4.465833
  H 2.294719 1.636647 4.848147
  H 3.757250 2.192636 4.044053
  H 2.641140 -1.140754 -0.957199
  H 5.107733 0.638533 -0.890826
  H 6.683623 -0.185078 -2.548760
 20
 27.577979
  H 2.249726 1.235538 0.095425
  C 3.049163 0.576661 0.421186
  C 3.514653 0.738151 1.798882
  C 2.376538 1.154537 2.745403
  C 2.902568 1.341394 4.162771
  C 3.462802 -0.440134 -0.475840
  C 4.594819 -0.262838 -1.241622
  C 5.153477 -1.239172 -2.061990
  H 4.801058 -2.264724 -2.018905
  O 6.108377 -1.055549 -2.920928
  H 4.266479 1.540814 1.842053
  H 4.008397 -0.168734 2.151965
  H 1.609054 0.379771 2.745680
  H 1.921337 2.082287 2.398453
  H 3.319476 0.414403 4.548714
  H 2.095180 1.648855 4.822552
  H 3.674714 2.106134 4.196170
  H 2.838805 -1.320663 -0.587680
  H 5.050889 0.710131 -1.122770
  H 6.433466 -0.134243 -2.984960
 20
 23.786856
  H 2.573376 1.369029 0.043852
  C 3.234503 0.613499 0.449016
  C 3.527882 0.680492 1.878092
  C 2.366721 1.188884 2.750371
  C 2.790163 1.297177 4.209582
  C 3.644675 -0.479324 -0.345820
  C 4.548657 -0.230860 -1.360985
  C 5.145693 -1.206539 -2.136321
  H 5.012882 -2.256302 -1.901657
  O 5.939140 -0.998647 -3.134667
  H 4.340732 1.410626 1.987415
  H 3.911308 -0.272564 2.249632
  H 1.531296 0.492592 2.669429
  H 2.030564 2.162820 2.393185
  H 3.080265 0.327117 4.605083
  H 1.968494 1.678642 4.810428
  H 3.629784 1.979836 4.322268
  H 3.198178 -1.455366 -0.201338
  H 4.854239 0.805143 -1.395679
  H 6.074036 -0.056977 -3.363849
 20
 31.469721
  H 2.761542 1.361876 0.064196
  C 3.390008 0.575704 0.462498
  C 3.632863 0.636215 1.907888
  C 2.433876 1.212745 2.689288
  C 2.750712 1.285683 4.177213
  C 3.566929 -0.605607 -0.300667
  C 4.448799 -0.313941 -1.322157
  C 5.177560 -1.149991 -2.145835
  H 5.332220 -2.190518 -1.879509
  O 5.835925 -0.784476 -3.197745
  H 4.480931 1.305399 2.086356
  H 3.897207 -0.349500 2.296787
  H 1.565533 0.572199 2.534936
  H 2.194301 2.210698 2.320652
  H 2.952951 0.296677 4.581138
  H 1.905113 1.704187 4.717513
  H 3.616704 1.916632 4.362301
  H 3.017467 -1.521566 -0.161310
  H 4.704491 0.742685 -1.188417
  H 5.703158 0.147696 -3.466637
 20
 47.005636
  H 2.727292 1.318276 0.033447
  C 3.354352 0.519015 0.407768
  C 3.662428 0.582561 1.847622
  C 2.495980 1.214906 2.636750
  C 2.835346 1.281466 4.120103
  C 3.360209 -0.716944 -0.333652
  C 4.341447 -0.407280 -1.235290
  C 5.198017 -1.078519 -2.086789
  H 5.436069 -2.122407 -1.905805
  O 5.895865 -0.547387 -3.043893
  H 4.543265 1.207642 2.015791
  H 3.879192 -0.414790 2.235760
  H 1.597203 0.614138 2.497601
  H 2.297160 2.220853 2.265248
  H 2.998506 0.286618 4.527276
  H 2.016011 1.740507 4.667853
  H 3.731094 1.873841 4.289686
  H 2.701505 -1.559967 -0.258413
  H 4.565392 0.656202 -0.890598
  H 5.687953 0.388381 -3.240089
 20
 56.432104
  H 2.748963 1.339456 -0.038488
  C 3.346809 0.505994 0.321194
  C 3.700129 0.535707 1.775729
  C 2.565352 1.212434 2.566266
  C 2.903693 1.243609 4.051358
  C 3.170703 -0.778235 -0.379169
  C 4.217783 -0.509465 -1.162550
  C 5.190888 -1.016355 -1.986907
  H 5.476786 -2.058822 -1.878061
  O 5.948961 -0.357051 -2.828774
  H 4.614369 1.105442 1.947315
  H 3.859799 -0.476571 2.149319
  H 1.636666 0.660545 2.419468
  H 2.418670 2.231870 2.207685
  H 3.017679 0.236895 4.445721
  H 2.107031 1.735215 4.603928
  H 3.827236 1.789208 4.229073
  H 2.430499 -1.546984 -0.322309
  H 4.380991 0.632746 -0.589277
  H 5.703993 0.576316 -2.965315
 20
 54.830624
  H 2.748312 1.359004 -0.053380
  C 3.364740 0.538855 0.301951
  C 3.710291 0.546627 1.767190
  C 2.574311 1.210676 2.561565
  C 2.904957 1.220775 4.048894
  C 3.173637 -0.771420 -0.386178
  C 4.220967 -0.570956 -1.169162
  C 5.214007 -1.037532 -1.972083
  H 5.553978 -2.060836 -1.824319
  O 5.940702 -0.372920 -2.834122
  H 4.625465 1.110285 1.951674
  H 3.865580 -0.470962 2.125793
  H 1.645805 0.661197 2.402724
  H 2.429851 2.235136 2.216301
  H 3.013738 0.208346 4.430067
  H 2.106904 1.707628 4.604076
  H 3.829354 1.760940 4.238834
  H 2.406062 -1.513447 -0.319006
  H 4.344589 0.694595 -0.495570
  H 5.650363 0.542492 -3.011364
 20
 47.491208
  H 2.742702 1.402836 -0.057266
  C 3.402474 0.608867 0.284307
  C 3.727377 0.587393 1.765093
  C 2.567001 1.200748 2.562414
  C 2.885482 1.188756 4.053643
  C 3.206921 -0.720480 -0.385359
  C 4.234645 -0.640129 -1.189540
  C 5.221929 -1.087047 -1.986898
  H 5.592144 -2.097662 -1.808633
  O 5.913613 -0.441798 -2.879678
  H 4.629955 1.163252 1.970599
  H 3.898838 -0.435347 2.101661
  H 1.655184 0.628410 2.385088
  H 2.396581 2.227824 2.236808
  H 3.009003 0.171279 4.417255
  H 2.074592 1.651943 4.610838
  H 3.798967 1.740919 4.260909
  H 2.416322 -1.433763 -0.272108
  H 4.345858 0.820988 -0.398838
  H 5.604023 0.461496 -3.086414
 20
 21.846074
  H 3.165259 2.018861 0.052043
  C 3.939459 1.297823 0.327703
  C 3.966996 1.120941 1.845686
  C 2.582261 0.975431 2.458879
  C 2.635639 0.720772 3.958105
  C 3.598631 -0.029080 -0.309193
  C 4.296640 -0.728574 -1.121688
  C 5.026274 -1.519444 -1.930621
  H 5.520174 -2.393862 -1.509486
  O 5.222952 -1.376927 -3.206716
  H 4.454224 2.003670 2.267314
  H 4.585018 0.263070 2.118534
  H 2.065051 0.131462 1.988435
  H 1.984915 1.868684 2.259088
  H 3.196593 -0.182967 4.180904
  H 1.635145 0.608683 4.364021
  H 3.115269 1.550471 4.471371
  H 2.625589 -0.388860 0.026747
  H 4.900493 1.647114 -0.046729
  H 4.807030 -0.588784 -3.610515
