 17
 0.000000
  C 1.002224 0.128586 0.372408
  C 2.471823 0.134433 0.387508
  C 3.187657 0.615415 1.582608
  H 2.499896 0.929572 2.360034
  C 3.144847 -0.322479 -0.743864
  C 4.535143 -0.375748 -0.882052
  C 5.130841 -0.842942 -2.035043
  H 4.528270 -1.187165 -2.866321
  O 6.402965 -0.925494 -2.258265
  H 0.574825 0.491968 1.300263
  H 0.631421 -0.878511 0.174451
  H 0.632263 0.737347 -0.453655
  H 3.837933 1.454416 1.329860
  H 3.835854 -0.165850 1.982831
  H 2.548119 -0.661351 -1.579942
  H 5.161061 -0.041117 -0.066489
  H 6.970214 -0.618123 -1.522423
 17
 0.495894
  C 1.009664 0.204112 0.331356
  C 2.475129 0.095917 0.411763
  C 3.178361 0.535881 1.626604
  H 2.491568 0.925928 2.370765
  C 3.154688 -0.416669 -0.690311
  C 4.537095 -0.375937 -0.875568
  C 5.126372 -0.875081 -2.018811
  H 4.533404 -1.386308 -2.769664
  O 6.385228 -0.809567 -2.320786
  H 0.579993 0.675744 1.208141
  H 0.560354 -0.781301 0.199829
  H 0.736152 0.773382 -0.560598
  H 3.915074 1.304915 1.392297
  H 3.735855 -0.295105 2.061132
  H 2.561210 -0.842301 -1.487849
  H 5.159169 0.102562 -0.132553
  H 6.945312 -0.358839 -1.655655
 17
 1.717637
  C 1.020383 0.243210 0.308128
  C 2.474874 0.057986 0.436323
  C 3.163360 0.498561 1.658738
  H 2.496645 1.029361 2.329986
  C 3.160043 -0.507642 -0.635401
  C 4.526448 -0.375199 -0.878562
  C 5.123476 -0.912988 -2.000301
  H 4.565613 -1.557368 -2.671190
  O 6.354098 -0.735855 -2.369399
  H 0.585297 0.714549 1.184252
  H 0.515926 -0.704663 0.118542
  H 0.825572 0.865128 -0.568580
  H 4.022774 1.127539 1.433598
  H 3.562646 -0.372179 2.183016
  H 2.574389 -1.031415 -1.379446
  H 5.124560 0.231163 -0.212723
  H 6.885530 -0.172228 -1.771096
 17
 3.999271
  C 1.064930 0.316160 0.250846
  C 2.489246 0.022285 0.463684
  C 3.155527 0.447078 1.705051
  H 2.507085 1.053289 2.330498
  C 3.184595 -0.601896 -0.568007
  C 4.523711 -0.375603 -0.880547
  C 5.125706 -0.937227 -1.985323
  H 4.620826 -1.702222 -2.564990
  O 6.303123 -0.642410 -2.445246
  H 0.630592 0.863064 1.079282
  H 0.487266 -0.588882 0.073516
  H 0.984495 0.910311 -0.661108
  H 4.081918 0.985657 1.506052
  H 3.453716 -0.440771 2.270837
  H 2.611104 -1.213219 -1.255598
  H 5.079151 0.352139 -0.302657
  H 6.783880 0.039391 -1.930798
 17
 7.008786
  C 1.112857 0.386866 0.198250
  C 2.499823 -0.003244 0.495971
  C 3.140463 0.401714 1.752079
  H 2.509568 1.055770 2.344421
  C 3.209362 -0.683510 -0.498437
  C 4.502888 -0.367066 -0.890103
  C 5.119670 -0.961024 -1.970808
  H 4.673003 -1.815657 -2.466377
  O 6.240041 -0.584617 -2.512527
  H 0.684576 1.007460 0.977459
  H 0.469254 -0.476821 0.029500
  H 1.139101 0.936952 -0.744608
  H 4.108638 0.871022 1.580680
  H 3.360637 -0.494516 2.336689
  H 2.662938 -1.399845 -1.099850
  H 5.009062 0.447776 -0.389959
  H 6.666260 0.179184 -2.075025
 17
 10.700827
  C 1.157813 0.462608 0.161424
  C 2.505859 -0.010275 0.511175
  C 3.130597 0.355327 1.785512
  H 2.535830 1.066341 2.352108
  C 3.225041 -0.734499 -0.456908
  C 4.464760 -0.345060 -0.931563
  C 5.117220 -0.979856 -1.967538
  H 4.731818 -1.900561 -2.389396
  O 6.207571 -0.568481 -2.549044
  H 0.745596 1.115634 0.921531
  H 0.464762 -0.359644 -0.013505
  H 1.248851 0.997554 -0.787362
  H 4.141322 0.739493 1.642675
  H 3.258777 -0.550928 2.379547
  H 2.720727 -1.554120 -0.950087
  H 4.912162 0.541685 -0.503769
  H 6.581594 0.251051 -2.170204
 17
 15.820398
  C 1.240807 0.551881 0.108003
  C 2.527026 -0.001511 0.539143
  C 3.093610 0.295655 1.855554
  H 2.492129 1.001014 2.420301
  C 3.262461 -0.764994 -0.399412
  C 4.445033 -0.329050 -0.962863
  C 5.107538 -1.004800 -1.966630
  H 4.776486 -1.982313 -2.296073
  O 6.141100 -0.562588 -2.630698
  H 0.840227 1.264258 0.821970
  H 0.496678 -0.228052 -0.066963
  H 1.413938 1.029155 -0.857866
  H 4.121885 0.652782 1.775749
  H 3.169552 -0.638634 2.417020
  H 2.805571 -1.671902 -0.777926
  H 4.835370 0.629248 -0.644351
  H 6.455126 0.317793 -2.341977
 17
 21.485192
  C 1.303025 0.630241 0.065734
  C 2.538984 0.013995 0.550147
  C 3.044876 0.239915 1.903998
  H 2.441905 0.947522 2.463672
  C 3.296973 -0.772713 -0.371809
  C 4.404825 -0.299321 -1.030298
  C 5.088409 -1.018788 -1.990769
  H 4.806926 -2.035187 -2.236035
  O 6.087909 -0.575603 -2.706018
  H 0.904674 1.360721 0.763075
  H 0.533639 -0.122433 -0.125212
  H 1.513326 1.086673 -0.902988
  H 4.087640 0.560455 1.886408
  H 3.063561 -0.715661 2.433668
  H 2.909203 -1.753399 -0.625773
  H 4.739816 0.704429 -0.807420
  H 6.352175 0.340160 -2.493051
 17
 27.380831
  C 1.392524 0.711921 0.043083
  C 2.558972 0.023777 0.583898
  C 2.986369 0.181825 1.968112
  H 2.378055 0.896821 2.513199
  C 3.354777 -0.780541 -0.320358
  C 4.366816 -0.270710 -1.091477
  C 5.068171 -1.030883 -2.015763
  H 4.834856 -2.075182 -2.178220
  O 6.041066 -0.593884 -2.780067
  H 0.991169 1.453466 0.726355
  H 0.606872 -0.020829 -0.173631
  H 1.628145 1.150085 -0.928066
  H 4.040866 0.463123 2.010179
  H 2.947825 -0.785222 2.478942
  H 3.066701 -1.816965 -0.441795
  H 4.645344 0.766885 -0.960024
  H 6.259584 0.346872 -2.636874
 17
 19.770021
  C 1.514437 0.797874 0.012757
  C 2.612976 0.031986 0.602266
  C 2.910209 0.094688 2.034403
  H 2.273124 0.803012 2.553599
  C 3.426398 -0.756610 -0.265746
  C 4.328246 -0.229279 -1.173008
  C 5.035826 -1.036085 -2.038312
  H 4.854679 -2.101298 -2.085035
  O 5.962302 -0.640778 -2.863058
  H 1.116134 1.552711 0.683226
  H 0.712903 0.090723 -0.223633
  H 1.784533 1.217995 -0.956501
  H 3.960692 0.350160 2.177137
  H 2.801305 -0.888957 2.501228
  H 3.292403 -1.831652 -0.235113
  H 4.523903 0.833702 -1.158275
  H 6.139060 0.316354 -2.828013
 17
 12.316928
  C 1.656648 0.864716 -0.003443
  C 2.662608 0.020635 0.646656
  C 2.817555 0.018894 2.106778
  H 2.146806 0.722916 2.587496
  C 3.523407 -0.741351 -0.165191
  C 4.294855 -0.221089 -1.198526
  C 5.002999 -1.043582 -2.047643
  H 4.884727 -2.119621 -2.008444
  O 5.847897 -0.657513 -2.963427
  H 1.269251 1.644468 0.644183
  H 0.820925 0.210624 -0.275559
  H 2.001954 1.252196 -0.959843
  H 3.851424 0.251212 2.362057
  H 2.641245 -0.976689 2.521920
  H 3.554823 -1.811804 -0.001620
  H 4.402725 0.851504 -1.277884
  H 5.966465 0.310967 -3.015986
 17
 6.177556
  C 1.784600 0.977761 0.005764
  C 2.723564 0.060945 0.659737
  C 2.725466 -0.075077 2.125228
  H 2.016633 0.597081 2.597058
  C 3.617267 -0.681832 -0.113132
  C 4.288617 -0.216140 -1.245486
  C 4.998081 -1.077321 -2.055156
  H 4.949819 -2.149344 -1.902870
  O 5.749985 -0.740546 -3.062975
  H 1.442467 1.774055 0.659377
  H 0.903580 0.386409 -0.267390
  H 2.165501 1.348769 -0.941655
  H 3.726808 0.117623 2.510588
  H 2.494260 -1.100069 2.422216
  H 3.806296 -1.705602 0.186954
  H 4.313631 0.846231 -1.443309
  H 5.805213 0.222590 -3.223616
 17
 5.903106
  C 1.917631 0.973318 -0.038263
  C 2.804053 0.076402 0.711674
  C 2.640354 -0.102840 2.162285
  H 1.881476 0.557304 2.569231
  C 3.759112 -0.638663 0.001070
  C 4.336404 -0.199292 -1.199372
  C 4.920473 -1.068290 -2.093026
  H 4.832327 -2.140993 -1.963120
  O 5.554079 -0.739465 -3.180096
  H 1.546108 1.810672 0.542366
  H 1.042914 0.382227 -0.333443
  H 2.382560 1.247976 -0.981169
  H 3.588421 0.071601 2.671055
  H 2.370091 -1.135266 2.391834
  H 4.070306 -1.602066 0.384324
  H 4.400806 0.863726 -1.390009
  H 5.652772 0.223899 -3.317758
