 23
 0.000000
  C 0.949865 0.053709 0.183885
  C 2.452746 0.058477 0.099333
  C 3.248263 -0.014304 1.389240
  C 2.468527 -0.088143 2.697742
  H 3.161834 -0.135306 3.533592
  C 3.070722 0.125844 -1.094523
  C 2.330034 0.199564 -2.401023
  H 1.250018 0.195341 -2.326140
  C 4.519455 0.132548 -1.213265
  C 5.219087 0.196542 -2.347491
  O 6.576458 0.200423 -2.416205
  H 0.584063 -0.003882 1.204476
  H 0.539982 -0.804445 -0.348134
  H 0.539983 0.966267 -0.248216
  H 3.896908 0.866452 1.442714
  H 3.896908 -0.895483 1.343293
  H 1.839112 -0.975495 2.728794
  H 1.839104 0.790083 2.828422
  H 2.625193 -0.645289 -3.024579
  H 2.625193 1.109207 -2.925578
  H 5.088033 0.080670 -0.293858
  H 4.796888 0.252403 -3.337451
  H 6.944879 0.150115 -1.524600
 23
 3.447027
  C 0.936842 0.056148 0.140662
  C 2.420233 0.059178 0.086927
  C 3.219296 -0.013576 1.376350
  C 2.456241 -0.087935 2.694057
  H 3.173010 -0.134051 3.511366
  C 3.072817 0.125843 -1.094487
  C 2.335334 0.199738 -2.404094
  H 1.259868 0.192214 -2.270747
  C 4.523401 0.131692 -1.198112
  C 5.222246 0.195640 -2.331518
  O 6.575549 0.199719 -2.403780
  H 0.808117 -0.003287 1.193921
  H 0.492024 -0.803983 -0.356981
  H 0.492026 0.966803 -0.257058
  H 3.867508 0.866290 1.423552
  H 3.867507 -0.893160 1.324271
  H 1.834125 -0.979575 2.749081
  H 1.834122 0.791845 2.849039
  H 2.609439 -0.646569 -3.032771
  H 2.609443 1.111408 -2.933585
  H 5.087912 0.079709 -0.276785
  H 4.792001 0.251246 -3.317043
  H 6.947067 0.149528 -1.514163
