 26
 0.000000
  C 0.966881 0.140951 0.402175
  C 2.445261 0.138532 0.395784
  C 3.234973 0.607589 1.562934
  C 2.461488 1.098287 2.784371
  H 3.129843 1.409844 3.559699
  C 3.056527 -0.326240 -0.761266
  C 4.434557 -0.412807 -0.977341
  C 5.116634 -0.862171 -2.097644
  C 4.626711 -1.386353 -3.404443
  C 3.136043 -1.505154 -3.701248
  H 2.979055 -1.899161 -4.683599
  O 6.441363 -0.854110 -2.077903
  H 0.534203 0.511600 1.324625
  H 0.594015 -0.871193 0.237377
  H 0.593750 0.757524 -0.417125
  H 3.890881 1.419250 1.227711
  H 3.891049 -0.210235 1.882449
  H 1.823595 0.301943 3.173218
  H 1.823488 1.942218 2.514202
  H 2.395882 -0.642369 -1.548407
  H 5.050449 -0.080233 -0.149165
  H 5.083529 -2.374996 -3.529298
  H 5.083826 -0.758265 -4.177923
  H 2.660333 -0.524837 -3.647836
  H 2.660040 -2.176678 -2.985238
  H 6.799446 -0.516763 -1.236311
 26
 0.000000
  C 1.039861 0.112699 0.331753
  C 2.517783 0.126852 0.366651
  C 3.269288 0.604542 1.555334
  C 2.456540 1.086342 2.754624
  H 3.099450 1.405246 3.548271
  C 3.166296 -0.330853 -0.772812
  C 4.450765 -0.407936 -0.965220
  C 5.075956 -0.847068 -2.060005
  C 4.577607 -1.370149 -3.364056
  C 3.085050 -1.485623 -3.652568
  H 2.921724 -1.879274 -4.634028
  O 6.303223 -0.832749 -2.024632
  H 0.577462 0.478326 1.241708
  H 0.683110 -0.903535 0.156756
  H 0.682867 0.725184 -0.497742
  H 3.925166 1.423559 1.238437
  H 3.925313 -0.205929 1.893169
  H 1.817000 0.282835 3.125625
  H 1.816912 1.923113 2.466617
  H 2.561482 -0.654142 -1.577818
  H 5.075383 -0.077630 -0.142690
  H 5.031517 -2.359808 -3.491441
  H 5.031815 -0.743079 -4.140070
  H 2.611833 -0.504247 -3.596519
  H 2.611538 -2.156086 -2.933918
  H 6.598879 -0.484417 -1.155625
 26
 0.000000
  C 1.114752 0.084625 0.261773
  C 2.590819 0.115717 0.338877
  C 3.302535 0.601792 1.548474
  C 2.450382 1.074039 2.723985
  H 3.066659 1.400159 3.535628
  C 3.276829 -0.334329 -0.781526
  C 4.466421 -0.402710 -0.952213
  C 5.037522 -0.832775 -2.024386
  C 4.529444 -1.354559 -3.325199
  C 3.034768 -1.466177 -3.604101
  H 2.864115 -1.859398 -4.584487
  O 6.165674 -0.813568 -1.976798
  H 0.622381 0.444772 1.158092
  H 0.774820 -0.935604 0.076813
  H 0.774600 0.693116 -0.577681
  H 3.957766 1.428329 1.250315
  H 3.957893 -0.201161 1.905040
  H 1.809757 0.263188 3.076689
  H 1.809688 1.903470 2.417690
  H 2.727475 -0.665341 -1.605796
  H 5.100574 -0.074937 -0.135990
  H 4.979968 -2.345386 -3.455493
  H 4.980267 -0.728659 -4.104126
  H 2.564457 -0.483583 -3.545019
  H 2.564160 -2.135421 -2.882413
  H 6.394198 -0.453110 -1.077527
 26
 0.000000
  C 1.191299 0.056986 0.192875
  C 2.664022 0.105376 0.313083
  C 3.334332 0.599553 1.542890
  C 2.442702 1.061564 2.692919
  H 3.031129 1.394749 3.522177
  C 3.387720 -0.336394 -0.786721
  C 4.481844 -0.396911 -0.937778
  C 5.001953 -0.819713 -1.991833
  C 4.482579 -1.339955 -3.288798
  C 2.985527 -1.447076 -3.556495
  H 2.806354 -1.839773 -4.535569
  O 6.029852 -0.797021 -1.935526
  H 0.668749 0.411174 1.074365
  H 0.868908 -0.967128 -0.001774
  H 0.868712 0.661594 -0.656264
  H 3.988260 1.433772 1.263873
  H 3.988366 -0.195721 1.918591
  H 1.801595 0.243192 3.026883
  H 1.801546 1.883478 2.367893
  H 2.893985 -0.675925 -1.632239
  H 5.126490 -0.071993 -0.128664
  H 4.929134 -2.332130 -3.422450
  H 4.929435 -0.715405 -4.071088
  H 2.518627 -0.463073 -3.493903
  H 2.518328 -2.114909 -2.831292
  H 6.184461 -0.423337 -1.003251
 26
 0.000000
  C 1.269070 0.030145 0.125966
  C 2.736864 0.096171 0.290119
  C 3.364157 0.598124 1.539325
  C 2.433081 1.049199 2.662124
  H 2.992431 1.389262 3.508540
  C 3.498350 -0.336687 -0.787498
  C 4.497519 -0.390244 -0.921175
  C 4.970018 -0.808446 -1.963755
  C 4.437494 -1.326844 -3.256118
  C 2.937790 -1.428705 -3.510705
  H 2.748680 -1.820757 -4.488168
  O 5.897276 -0.783660 -1.902200
  H 0.716203 0.377880 0.991391
  H 0.964942 -0.997725 -0.078055
  H 0.964771 0.630999 -0.732539
  H 4.016082 1.440177 1.279829
  H 4.016165 -0.189319 1.934539
  H 1.792139 0.223135 2.976924
  H 1.792110 1.863424 2.317942
  H 3.061109 -0.685763 -1.656822
  H 5.153787 -0.068572 -0.120145
  H 4.879377 -2.320579 -3.393654
  H 4.879678 -0.703856 -4.042298
  H 2.474912 -0.443070 -3.444048
  H 2.474612 -2.094903 -2.781431
  H 5.968627 -0.395898 -0.934789
 26
 0.000000
  C 1.347331 0.004639 0.062381
  C 2.808530 0.088579 0.271177
  C 3.391279 0.597928 1.538835
  C 2.420967 1.037368 2.632661
  H 2.950065 1.384085 3.495673
  C 3.607743 -0.334728 -0.782660
  C 4.514142 -0.382301 -0.901392
  C 4.942671 -0.799751 -1.942087
  C 4.394872 -1.315940 -3.228938
  C 2.892243 -1.411656 -3.468211
  H 2.691568 -1.802913 -4.443685
  O 5.770007 -0.774187 -1.878563
  H 0.764132 0.345422 0.910497
  H 1.062154 -1.026835 -0.150630
  H 1.062009 0.601891 -0.805110
  H 4.040465 1.447941 1.299175
  H 4.040524 -0.181559 1.953877
  H 1.780877 0.203467 2.927931
  H 1.780870 1.843760 2.268960
  H 3.228751 -0.694597 -1.678895
  H 5.183354 -0.064353 -0.109637
  H 4.831257 -2.311474 -3.370953
  H 4.831560 -0.694753 -4.019603
  H 2.434109 -0.424135 -3.396857
  H 2.433805 -2.075966 -2.734234
  H 5.745678 -0.372023 -0.875211
 26
 0.000000
  C 1.424795 -0.018699 0.004194
  C 2.877702 0.083303 0.258007
  C 3.414663 0.599587 1.542971
  C 2.405654 1.026753 2.606229
  H 2.903508 1.379833 3.485111
  C 3.714271 -0.329860 -0.770568
  C 4.532666 -0.372539 -0.877072
  C 4.921106 -0.794724 -1.929560
  C 4.355758 -1.308286 -3.209856
  C 2.849979 -1.396894 -3.431415
  H 2.635984 -1.787174 -4.404447
  O 5.650933 -0.769529 -1.866926
  H 0.811497 0.314663 0.833832
  H 1.159138 -1.053588 -0.217336
  H 1.159021 0.575140 -0.871810
  H 4.060360 1.457628 1.323319
  H 4.060394 -0.171875 1.978013
  H 1.767130 0.184925 2.881742
  H 1.767147 1.825222 2.222780
  H 3.396220 -0.702014 -1.697433
  H 5.216342 -0.058892 -0.096030
  H 4.785732 -2.305867 -3.356971
  H 4.786036 -0.689149 -4.005628
  H 2.397388 -0.407222 -3.354701
  H 2.397082 -2.059050 -2.692070
  H 5.514870 -0.353551 -0.829106
 26
 0.000000
  C 1.497312 -0.038054 -0.044064
  C 2.940599 0.081425 0.253309
  C 3.432411 0.603913 1.553753
  C 2.386798 1.018677 2.586117
  H 2.853704 1.377576 3.479514
  C 3.812649 -0.321424 -0.749576
  C 4.553786 -0.360589 -0.847290
  C 4.907225 -0.794966 -1.930164
  C 4.322739 -1.305553 -3.203037
  C 2.813785 -1.386351 -3.405132
  H 2.585224 -1.775486 -4.375307
  O 5.546883 -0.770949 -1.870439
  H 0.855363 0.287731 0.766701
  H 1.250942 -1.076033 -0.273302
  H 1.250855 0.552698 -0.927771
  H 4.074023 1.469724 1.353467
  H 4.074031 -0.159782 2.008153
  H 1.750480 0.169154 2.842452
  H 1.750521 1.809455 2.183500
  H 3.557249 -0.707482 -1.711100
  H 5.253197 -0.051795 -0.078337
  H 4.745603 -2.305345 -3.355655
  H 4.745909 -0.688630 -4.004321
  H 2.367356 -0.394348 -3.322616
  H 2.367046 -2.046173 -2.659977
  H 5.282099 -0.343266 -0.803416
 26
 0.000000
  C 1.552335 -0.049939 -0.073702
  C 2.986720 0.083599 0.258714
  C 3.441593 0.610710 1.570692
  C 2.367147 1.015113 2.577243
  H 2.808632 1.378448 3.481705
  C 3.886830 -0.310589 -0.722595
  C 4.574957 -0.348137 -0.816255
  C 4.903100 -0.801295 -1.945935
  C 4.301742 -1.309162 -3.212020
  C 2.790217 -1.383020 -3.396827
  H 2.548781 -1.771079 -4.364312
  O 5.474338 -0.778526 -1.889301
  H 0.887680 0.269460 0.721155
  H 1.321773 -1.090248 -0.308753
  H 1.321709 0.538484 -0.963218
  H 4.079404 1.482773 1.385989
  H 4.079391 -0.146735 2.040670
  H 1.733104 0.159383 2.818106
  H 1.733165 1.799686 2.159160
  H 3.685997 -0.711098 -1.720130
  H 5.288893 -0.043993 -0.058883
  H 4.718233 -2.310882 -3.369440
  H 4.718543 -0.694171 -4.018113
  H 2.349325 -0.388979 -3.309235
  H 2.349010 -2.040800 -2.646588
  H 5.081472 -0.342986 -0.802681
 26
 0.000000
  C 1.590413 -0.054879 -0.086025
  C 3.017248 0.089454 0.273298
  C 3.443378 0.619888 1.593564
  C 2.347171 1.016101 2.579705
  H 2.768815 1.382691 3.492286
  C 3.938602 -0.297862 -0.690884
  C 4.595838 -0.335471 -0.784678
  C 4.906844 -0.812951 -1.974979
  C 4.291951 -1.318568 -3.235452
  C 2.778522 -1.386824 -3.406301
  H 2.526732 -1.773972 -4.371510
  O 5.429136 -0.791041 -1.920474
  H 0.908536 0.259440 0.696171
  H 1.372167 -1.096880 -0.325299
  H 1.372122 0.531852 -0.979763
  H 4.077953 1.496751 1.420828
  H 4.077922 -0.132758 2.075506
  H 1.715184 0.155594 2.808661
  H 1.715261 1.795898 2.149719
  H 3.784198 -0.714434 -1.728442
  H 5.322899 -0.035673 -0.038134
  H 4.703258 -2.321822 -3.396689
  H 4.703571 -0.705113 -4.045369
  H 2.342141 -0.391157 -3.314664
  H 2.341822 -2.042976 -2.652010
  H 4.908219 -0.350616 -0.821679
 26
 0.000000
  C 1.611529 -0.053098 -0.081597
  C 3.032707 0.098783 0.296542
  C 3.438539 0.631422 1.622305
  C 2.327312 1.021784 2.593863
  H 2.734913 1.390573 3.511924
  C 3.968761 -0.283610 -0.655369
  C 4.615555 -0.322939 -0.753434
  C 4.917379 -0.829331 -2.015800
  C 4.293318 -1.333392 -3.272385
  C 2.778679 -1.397834 -3.433735
  H 2.519864 -1.784342 -4.397341
  O 5.408430 -0.807616 -1.961769
  H 0.917719 0.257574 0.691511
  H 1.401989 -1.096234 -0.323698
  H 1.401958 0.532499 -0.978162
  H 4.070685 1.511642 1.457938
  H 4.070641 -0.117867 2.112615
  H 1.696925 0.157931 2.814479
  H 1.697014 1.798237 2.155538
  H 3.852074 -0.719516 -1.741086
  H 5.354170 -0.027087 -0.016722
  H 4.701077 -2.337678 -3.436188
  H 4.701393 -0.720972 -4.084875
  H 2.345391 -0.401072 -3.339373
  H 2.345069 -2.052888 -2.676712
  H 4.757189 -0.364037 -0.855120
 26
 0.000000
  C 1.615272 -0.044780 -0.060876
  C 3.033171 0.111297 0.327724
  C 3.427646 0.645120 1.656436
  C 2.308141 1.032186 2.619775
  H 2.707875 1.402169 3.540810
  C 3.977340 -0.268318 -0.617259
  C 4.632507 -0.311090 -0.723892
  C 4.933976 -0.849648 -2.066430
  C 4.306182 -1.353069 -3.321411
  C 2.791070 -1.415953 -3.478883
  H 2.529391 -1.802197 -4.441822
  O 5.410088 -0.827265 -2.010728
  H 0.914869 0.263832 0.707096
  H 1.410606 -1.088529 -0.304501
  H 1.410584 0.540203 -0.958967
  H 4.058381 1.527207 1.496721
  H 4.058330 -0.102302 2.151399
  H 1.678701 0.166471 2.835749
  H 1.678797 1.806776 2.176808
  H 3.888401 -0.728616 -1.763733
  H 5.380824 -0.018640 0.004341
  H 4.712488 -2.357774 -3.486253
  H 4.712806 -0.741071 -4.134946
  H 2.359050 -0.418746 -3.383416
  H 2.358725 -2.070559 -2.720749
  H 4.623632 -0.381044 -0.897504
 26
 0.000000
  C 1.602504 -0.030952 -0.026417
  C 3.019645 0.126078 0.364557
  C 3.411535 0.660167 1.693926
  C 2.290159 1.046483 2.655388
  H 2.688101 1.416735 3.577091
  C 3.965650 -0.252903 -0.578843
  C 4.644444 -0.300692 -0.697970
  C 4.955149 -0.872204 -2.122640
  C 4.329760 -1.376043 -3.378653
  C 2.814951 -1.439931 -3.538625
  H 2.555116 -1.826350 -4.501992
  O 5.430139 -0.848198 -2.062894
  H 0.900609 0.277191 0.740380
  H 1.398948 -1.074838 -0.270382
  H 1.398928 0.553893 -0.924851
  H 4.041945 1.542677 1.535266
  H 4.041892 -0.086831 2.189947
  H 1.660940 0.180346 2.870310
  H 1.661038 1.820650 2.211366
  H 3.893239 -0.743199 -1.800029
  H 5.400203 -0.010908 0.023613
  H 4.737001 -2.380480 -3.542821
  H 4.737320 -0.763779 -4.191519
  H 2.382115 -0.443009 -3.443875
  H 2.381789 -2.094820 -2.781202
  H 4.503563 -0.399331 -0.943078
 26
 0.000000
  C 1.576767 -0.013789 0.016354
  C 2.995110 0.141728 0.403554
  C 3.391107 0.675399 1.731874
  C 2.272707 1.062913 2.696315
  H 2.673495 1.432740 3.616954
  C 3.938196 -0.238264 -0.542359
  C 4.649730 -0.292121 -0.676606
  C 4.978373 -0.894760 -2.178853
  C 4.361162 -1.400001 -3.438344
  C 2.847420 -1.467292 -3.606797
  H 2.593855 -1.854292 -4.571600
  O 5.461318 -0.868249 -2.112865
  H 0.877244 0.295104 0.785015
  H 1.371447 -1.057457 -0.227066
  H 1.371425 0.571272 -0.881537
  H 4.022034 1.557235 1.571534
  H 4.021983 -0.072271 2.226218
  H 1.643137 0.197448 2.912914
  H 1.643233 1.837750 2.253967
  H 3.871949 -0.762664 -1.848484
  H 5.410556 -0.004180 0.040377
  H 4.771573 -2.403520 -3.600219
  H 4.771891 -0.786820 -4.248921
  H 2.411821 -0.471346 -3.514482
  H 2.411497 -2.123155 -2.851805
  H 4.391561 -0.417597 -0.988595
