 20
 0.000000
  H 1.420204 0.162407 0.461100
  C 2.500416 0.139581 0.401697
  C 3.243028 0.613470 1.574221
  H 2.570832 0.931880 2.365712
  C 3.053257 -0.334143 -0.775308
  C 4.432702 -0.419865 -0.990725
  C 5.124649 -0.870726 -2.116804
  C 4.621115 -1.389292 -3.412856
  C 3.132047 -1.499740 -3.690605
  H 3.001794 -1.901153 -4.694266
  O 6.435549 -0.862240 -2.096031
  H 3.897430 1.445779 1.308777
  H 3.899619 -0.168465 1.959961
  H 2.371900 -0.645610 -1.548083
  H 5.061189 -0.090718 -0.171521
  H 5.086401 -2.373405 -3.541744
  H 5.087269 -0.766402 -4.185131
  H 2.645381 -0.529078 -3.661648
  H 2.644600 -2.182343 -3.000347
  H 6.841974 -0.532762 -1.269924
 20
 13.550950
  H 1.374833 0.202009 0.558841
  C 2.450792 0.182287 0.507524
  C 3.199642 0.650932 1.667863
  H 2.534230 0.970724 2.462882
  C 3.056652 -0.332522 -0.771850
  C 4.413140 -0.409614 -0.965468
  C 5.172870 -0.905257 -2.203150
  C 4.652708 -1.419179 -3.487260
  C 3.156677 -1.517805 -3.735317
  H 3.001364 -1.917547 -4.734577
  O 6.472030 -0.891725 -2.169829
  H 3.855748 1.481723 1.397299
  H 3.857688 -0.133826 2.048646
  H 2.375695 -0.642555 -1.541463
  H 5.043029 -0.082172 -0.150352
  H 5.109627 -2.406783 -3.622876
  H 5.110463 -0.798570 -4.266926
  H 2.679251 -0.542984 -3.695412
  H 2.678536 -2.195751 -3.034185
  H 6.870558 -0.560749 -1.340335
 20
 40.440449
  H 1.319516 0.212768 0.581491
  C 2.394746 0.206951 0.566597
  C 3.197439 0.661946 1.697546
  H 2.560928 0.991878 2.518987
  C 3.046256 -0.339906 -0.794130
  C 4.366723 -0.390063 -0.919236
  C 5.220575 -0.935432 -2.279890
  C 4.676918 -1.438312 -3.534558
  C 3.172691 -1.519790 -3.738308
  H 2.978847 -1.918498 -4.733151
  O 6.503485 -0.893028 -2.174690
  H 3.858219 1.487317 1.405214
  H 3.858695 -0.135832 2.057549
  H 2.330266 -0.640052 -1.541349
  H 5.028397 -0.074992 -0.133908
  H 5.123205 -2.430872 -3.685238
  H 5.123687 -0.825281 -4.329298
  H 2.711653 -0.538095 -3.683727
  H 2.711574 -2.192055 -3.020955
  H 6.869664 -0.550305 -1.316500
 20
 72.166711
  H 1.269903 0.235821 0.638227
  C 2.337705 0.241025 0.651012
  C 3.153476 0.686601 1.759521
  H 2.532763 1.017821 2.584495
  C 3.039791 -0.337435 -0.788871
  C 4.342958 -0.372357 -0.875789
  C 5.282802 -0.968988 -2.363758
  C 4.706089 -1.469908 -3.613094
  C 3.195385 -1.526615 -3.754928
  H 2.949294 -1.919769 -4.735674
  O 6.564473 -0.913074 -2.224835
  H 3.811510 1.504156 1.459450
  H 3.811852 -0.111244 2.108114
  H 2.317018 -0.625792 -1.507010
  H 5.032478 -0.068197 -0.117475
  H 5.132517 -2.469917 -3.770185
  H 5.132982 -0.856178 -4.417760
  H 2.757198 -0.537042 -3.675449
  H 2.757066 -2.187215 -3.013895
  H 6.911039 -0.574364 -1.376938
 20
 103.021074
  H 1.213340 0.266486 0.710946
  C 2.281029 0.278996 0.743202
  C 3.121194 0.715346 1.834110
  H 2.511542 1.050761 2.671923
  C 3.000010 -0.318310 -0.746728
  C 4.301586 -0.343269 -0.807463
  C 5.338593 -1.008083 -2.462301
  C 4.750817 -1.500580 -3.688125
  C 3.231665 -1.543178 -3.793947
  H 2.954145 -1.935936 -4.772030
  O 6.587147 -0.945751 -2.307330
  H 3.781124 1.533008 1.524673
  H 3.780572 -0.090620 2.174103
  H 2.247316 -0.598987 -1.447235
  H 5.031548 -0.053782 -0.084360
  H 5.167916 -2.505602 -3.853991
  H 5.168138 -0.889845 -4.503346
  H 2.807479 -0.549294 -3.701631
  H 2.807742 -2.197377 -3.039889
  H 6.928390 -0.603726 -1.452618
 20
 122.431400
  H 1.198267 0.291038 0.623523
  C 2.264657 0.309284 0.736877
  C 2.978436 0.709500 1.950844
  H 2.276460 0.991796 2.731624
  C 3.003610 -0.156059 -0.556698
  C 4.310634 -0.188609 -0.590264
  C 5.456873 -1.066346 -2.657537
  C 4.780242 -1.580732 -3.834313
  C 3.255171 -1.579785 -3.791716
  H 2.865909 -1.986176 -4.721995
  O 6.723298 -1.016321 -2.553755
  H 3.640868 1.559246 1.757737
  H 3.605229 -0.106527 2.324816
  H 2.292926 -0.417608 -1.308841
  H 5.150905 0.046188 0.013219
  H 5.158421 -2.599932 -4.006229
  H 5.138224 -1.000405 -4.698390
  H 2.877690 -0.570621 -3.678794
  H 2.895940 -2.195060 -2.975705
  H 7.108946 -0.665879 -1.722673
 20
 132.787289
  H 1.151595 0.395588 0.644766
  C 2.220761 0.354524 0.801419
  C 2.892964 0.728387 2.033913
  H 2.171468 1.029963 2.791525
  C 2.956640 -0.098628 -0.389317
  C 4.264516 -0.139266 -0.399000
  C 5.527205 -1.106403 -2.789536
  C 4.820324 -1.628215 -3.948026
  C 3.303092 -1.614467 -3.820078
  H 2.857735 -2.023206 -4.725177
  O 6.800522 -1.064635 -2.767573
  H 3.595055 1.547121 1.866544
  H 3.491253 -0.100367 2.418388
  H 2.275730 -0.339980 -1.198753
  H 5.121558 0.061946 0.201999
  H 5.183250 -2.646273 -4.143644
  H 5.137153 -1.048080 -4.824539
  H 2.940593 -0.601854 -3.694179
  H 2.984775 -2.222979 -2.982379
  H 7.214339 -0.701844 -1.956397
 20
 137.665073
  H 1.115939 0.461739 0.683295
  C 2.180521 0.400307 0.878803
  C 2.772952 0.764620 2.152345
  H 2.013071 1.064537 2.876715
  C 2.954632 -0.042219 -0.256835
  C 4.269080 -0.095329 -0.253865
  C 5.598251 -1.146365 -2.920053
  C 4.842722 -1.669670 -4.055231
  C 3.336806 -1.644999 -3.854127
  H 2.848869 -2.058624 -4.730399
  O 6.878586 -1.125630 -2.978599
  H 3.494939 1.582497 2.026145
  H 3.359262 -0.071016 2.557199
  H 2.328534 -0.276127 -1.104384
  H 5.140309 0.075900 0.330308
  H 5.188284 -2.692985 -4.261290
  H 5.121648 -1.097913 -4.949647
  H 2.986989 -0.630679 -3.728575
  H 3.056167 -2.245781 -3.001331
  H 7.335253 -0.762459 -2.192270
 20
 139.275746
  H 1.087208 0.504878 0.727317
  C 2.143565 0.432793 0.949297
  C 2.646074 0.804070 2.261958
  H 1.847123 1.094198 2.939385
  C 2.959371 0.001760 -0.123078
  C 4.278174 -0.055356 -0.106328
  C 5.671046 -1.193581 -3.048721
  C 4.863362 -1.708979 -4.153050
  C 3.366817 -1.662728 -3.875350
  H 2.821083 -2.069905 -4.719754
  O 6.949426 -1.204344 -3.207744
  H 3.368001 1.619918 2.179829
  H 3.224077 -0.015453 2.691729
  H 2.407532 -0.236298 -1.027493
  H 5.152113 0.093494 0.467911
  H 5.185325 -2.738173 -4.366702
  H 5.104810 -1.134894 -5.055666
  H 3.044236 -0.644142 -3.726438
  H 3.128496 -2.245465 -3.003521
  H 7.459671 -0.839532 -2.455998
 20
 139.776246
  H 1.050142 0.495269 0.784113
  C 2.095697 0.444581 1.019374
  C 2.544357 0.845233 2.344275
  H 1.714882 1.108981 2.988112
  C 2.949170 0.034020 -0.013951
  C 4.268217 -0.007390 0.024992
  C 5.744757 -1.230430 -3.165232
  C 4.872684 -1.738051 -4.240030
  C 3.392553 -1.658937 -3.896314
  H 2.806885 -2.054870 -4.701969
  O 7.011325 -1.281260 -3.399219
  H 3.241001 1.696443 2.281586
  H 3.143929 0.045011 2.804656
  H 2.463084 -0.234990 -0.931257
  H 5.158745 0.127273 0.618572
  H 5.162032 -2.770350 -4.458835
  H 5.086933 -1.171065 -5.150594
  H 3.098931 -0.628400 -3.732820
  H 3.180497 -2.238103 -2.998492
  H 7.573263 -0.951203 -2.657227
 20
 140.085880
  H 1.010162 0.486127 0.845553
  C 2.054236 0.446882 1.106967
  C 2.464572 0.912034 2.425318
  H 1.613822 1.183618 3.042431
  C 2.939555 0.014952 0.107309
  C 4.257408 -0.008402 0.167262
  C 5.809025 -1.274674 -3.272868
  C 4.886152 -1.756327 -4.319019
  C 3.420142 -1.653805 -3.915047
  H 2.786586 -2.034189 -4.709832
  O 7.065676 -1.339022 -3.550077
  H 3.132001 1.769011 2.347337
  H 3.064722 0.152136 2.922276
  H 2.477011 -0.275342 -0.831485
  H 5.138259 0.107992 0.748257
  H 5.146658 -2.793723 -4.559190
  H 5.078625 -1.179974 -5.233678
  H 3.154270 -0.624650 -3.728962
  H 3.236387 -2.232791 -3.022885
  H 7.647458 -1.023517 -2.823988
 20
 139.928095
  H 0.968522 0.480681 0.899511
  C 2.005052 0.445679 1.193796
  C 2.387757 0.981815 2.491987
  H 1.519311 1.263257 3.080957
  C 2.924092 -0.018241 0.228416
  C 4.238035 -0.017660 0.316554
  C 5.861763 -1.315614 -3.371024
  C 4.893501 -1.768457 -4.392126
  C 3.444955 -1.647689 -3.937872
  H 2.779240 -2.007623 -4.714910
  O 7.108446 -1.390385 -3.687178
  H 3.038215 1.859312 2.386841
  H 3.000567 0.249273 3.034333
  H 2.486156 -0.312807 -0.723650
  H 5.123973 0.075216 0.900681
  H 5.128094 -2.803944 -4.653238
  H 5.061584 -1.183511 -5.305058
  H 3.200756 -0.604500 -3.726753
  H 3.282386 -2.238993 -3.041331
  H 7.710235 -1.083424 -2.979587
 20
 139.938580
  H 0.940966 0.485104 0.948724
  C 1.965513 0.455675 1.276034
  C 2.301066 1.041093 2.568436
  H 1.409784 1.318711 3.125721
  C 2.915263 -0.017957 0.356398
  C 4.225864 -0.001983 0.472727
  C 5.910865 -1.361132 -3.472917
  C 4.898296 -1.782703 -4.461863
  C 3.468544 -1.635362 -3.955564
  H 2.765321 -1.977579 -4.715171
  O 7.140785 -1.453555 -3.837647
  H 2.922760 1.927291 2.458682
  H 2.910704 0.343405 3.139839
  H 2.509046 -0.310193 -0.614740
  H 5.115629 0.070514 1.060631
  H 5.107851 -2.823804 -4.737588
  H 5.041510 -1.193352 -5.377761
  H 3.255621 -0.598397 -3.730689
  H 3.324716 -2.226489 -3.062525
  H 7.775978 -1.148664 -3.154574
