 16
 0.000000
  H 1.420528 0.185707 0.513345
  C 2.489188 0.138186 0.395267
  H 3.116040 0.464713 1.208738
  C 3.022773 -0.328232 -0.766721
  C 4.415450 -0.415504 -0.984031
  C 5.080308 -0.865780 -2.106778
  C 4.613647 -1.379118 -3.386701
  C 3.142112 -1.510599 -3.714716
  H 3.029815 -1.912842 -4.717508
  H 6.162620 -0.842135 -2.047726
  H 2.352067 -0.642490 -1.550101
  H 5.043293 -0.087084 -0.165133
  H 5.103553 -2.357827 -3.518091
  H 5.103853 -0.762756 -4.158047
  H 2.641958 -0.544539 -3.684239
  H 2.641873 -2.187750 -3.025119
 16
 4.302027
  H 1.488602 0.237058 0.640173
  C 2.541704 0.153510 0.433193
  H 3.221542 0.465427 1.211373
  C 2.992226 -0.329970 -0.771719
  C 4.362423 -0.443543 -1.053419
  C 5.080142 -0.875052 -2.129901
  C 4.642071 -1.387210 -3.407303
  C 3.171092 -1.519811 -3.737065
  H 3.056640 -1.922088 -4.740155
  H 6.155579 -0.828622 -2.014096
  H 2.254513 -0.625139 -1.508977
  H 4.791284 -0.079935 -0.145605
  H 5.148260 -2.358253 -3.546717
  H 5.148143 -0.781551 -4.179013
  H 2.669156 -0.555518 -3.705555
  H 2.669677 -2.195455 -3.047913
 16
 14.061466
  H 1.528706 0.246966 0.666206
  C 2.575490 0.154110 0.436544
  H 3.264227 0.461033 1.208486
  C 2.988218 -0.329380 -0.773965
  C 4.343970 -0.459555 -1.095580
  C 5.096681 -0.881426 -2.147716
  C 4.664573 -1.392726 -3.420820
  C 3.189904 -1.516572 -3.728249
  H 3.052392 -1.919463 -4.730298
  H 6.167864 -0.826702 -2.010939
  H 2.201023 -0.606147 -1.468809
  H 4.601974 -0.079564 -0.145710
  H 5.169069 -2.360835 -3.568086
  H 5.169088 -0.795954 -4.197084
  H 2.694715 -0.545934 -3.682787
  H 2.694933 -2.185853 -3.023404
 16
 27.685746
  H 1.546915 0.259272 0.694235
  C 2.595744 0.163084 0.459416
  H 3.293234 0.470760 1.238738
  C 2.988782 -0.316552 -0.745318
  C 4.333612 -0.465186 -1.108552
  C 5.104071 -0.885109 -2.157718
  C 4.669954 -1.402273 -3.444511
  C 3.209722 -1.521677 -3.738371
  H 3.064304 -1.919105 -4.726265
  H 6.178832 -0.826800 -2.014159
  H 2.166413 -0.584199 -1.425583
  H 4.453473 -0.077885 -0.135603
  H 5.174291 -2.375546 -3.595487
  H 5.173393 -0.803162 -4.227245
  H 2.723823 -0.561358 -3.687044
  H 2.725236 -2.179740 -3.036508
 16
 41.698097
  H 1.538099 0.259261 0.671502
  C 2.590075 0.160900 0.471938
  H 3.250562 0.439833 1.287258
  C 3.011385 -0.280499 -0.733433
  C 4.366893 -0.476620 -1.138272
  C 5.130152 -0.878400 -2.166802
  C 4.690494 -1.411563 -3.461450
  C 3.207710 -1.528325 -3.714427
  H 3.034461 -1.933631 -4.711651
  H 6.205539 -0.814427 -2.039464
  H 2.184901 -0.502663 -1.437087
  H 4.369237 -0.109180 -0.137084
  H 5.186866 -2.389020 -3.612564
  H 5.170858 -0.796842 -4.245934
  H 2.721604 -0.554332 -3.653928
  H 2.734177 -2.196218 -2.993243
 16
 47.212849
  H 1.489159 0.241923 0.623902
  C 2.558525 0.155563 0.493209
  H 3.137021 0.414990 1.360750
  C 3.056718 -0.235621 -0.678138
  C 4.407549 -0.486897 -1.173707
  C 5.141932 -0.869795 -2.176241
  C 4.701872 -1.431972 -3.503446
  C 3.203578 -1.530997 -3.688968
  H 3.001189 -1.942596 -4.673433
  H 6.220328 -0.808633 -2.092077
  H 2.296935 -0.423326 -1.447738
  H 4.353067 -0.126901 -0.132612
  H 5.168570 -2.407272 -3.618916
  H 5.140035 -0.797393 -4.270846
  H 2.733313 -0.553094 -3.639977
  H 2.755325 -2.197521 -2.957047
 16
 53.600542
  H 1.483666 0.245037 0.635058
  C 2.549883 0.158345 0.519590
  H 3.128398 0.410816 1.412055
  C 3.063059 -0.219529 -0.648747
  C 4.407985 -0.488154 -1.185942
  C 5.141725 -0.869344 -2.185702
  C 4.704197 -1.435967 -3.509455
  C 3.201282 -1.536934 -3.695218
  H 2.996319 -1.955944 -4.682163
  H 6.223312 -0.805317 -2.102641
  H 2.334499 -0.399251 -1.445382
  H 4.288397 -0.124539 -0.139410
  H 5.169192 -2.417790 -3.608359
  H 5.140742 -0.797629 -4.281632
  H 2.733262 -0.556471 -3.659080
  H 2.753308 -2.196879 -2.958986
 16
 58.915486
  H 1.466210 0.243734 0.640994
  C 2.543637 0.153821 0.536550
  H 3.099480 0.381237 1.413091
  C 3.070930 -0.207392 -0.634066
  C 4.428609 -0.485201 -1.192364
  C 5.150559 -0.868926 -2.194478
  C 4.701521 -1.438670 -3.511739
  C 3.200237 -1.533533 -3.685972
  H 2.986550 -1.958816 -4.659424
  H 6.239550 -0.805020 -2.117319
  H 2.347716 -0.373052 -1.447541
  H 4.240834 -0.114090 -0.151465
  H 5.164432 -2.437561 -3.606949
  H 5.138874 -0.800970 -4.299856
  H 2.736747 -0.549999 -3.652655
  H 2.753843 -2.186167 -2.935239
 16
 63.610579
  H 1.443140 0.239648 0.625399
  C 2.534241 0.145044 0.543004
  H 3.084545 0.353984 1.449433
  C 3.084217 -0.193546 -0.621547
  C 4.452166 -0.478640 -1.188135
  C 5.158554 -0.866604 -2.199126
  C 4.697583 -1.442625 -3.512704
  C 3.194640 -1.535766 -3.681063
  H 2.975182 -1.972669 -4.655229
  H 6.236606 -0.803323 -2.132558
  H 2.378251 -0.338428 -1.457022
  H 4.204123 -0.102638 -0.153663
  H 5.153802 -2.434239 -3.600970
  H 5.128255 -0.815387 -4.302485
  H 2.732573 -0.548179 -3.655392
  H 2.750048 -2.180522 -2.921283
 16
 67.371318
  H 1.452731 0.237381 0.610818
  C 2.513669 0.130328 0.551793
  H 3.043283 0.292516 1.474593
  C 3.085306 -0.170878 -0.618834
  C 4.474907 -0.468177 -1.189822
  C 5.167344 -0.862199 -2.208702
  C 4.692497 -1.448327 -3.512121
  C 3.185098 -1.539785 -3.670128
  H 2.958328 -1.986789 -4.633840
  H 6.254456 -0.798779 -2.155286
  H 2.399118 -0.275011 -1.468995
  H 4.166336 -0.081267 -0.148319
  H 5.145100 -2.441374 -3.594584
  H 5.120037 -0.831461 -4.308915
  H 2.727504 -0.555686 -3.654853
  H 2.745385 -2.169270 -2.903916
 16
 70.725939
  H 1.431425 0.234775 0.583544
  C 2.499147 0.109399 0.550002
  H 3.005631 0.208236 1.498311
  C 3.098238 -0.142544 -0.618863
  C 4.506265 -0.452979 -1.185494
  C 5.176651 -0.854477 -2.214452
  C 4.683186 -1.454747 -3.508439
  C 3.175263 -1.543943 -3.652591
  H 2.939608 -2.005426 -4.609309
  H 6.255200 -0.795138 -2.180407
  H 2.437194 -0.198425 -1.491859
  H 4.140824 -0.058494 -0.145508
  H 5.132854 -2.448137 -3.582717
  H 5.104373 -0.848797 -4.318020
  H 2.718913 -0.556349 -3.650066
  H 2.740130 -2.160617 -2.872895
 16
 73.524031
  H 1.408686 0.230847 0.554629
  C 2.479004 0.082004 0.543905
  H 2.958753 0.095829 1.510991
  C 3.107324 -0.106248 -0.623737
  C 4.534416 -0.437262 -1.187388
  C 5.184920 -0.846479 -2.224598
  C 4.672543 -1.461432 -3.503035
  C 3.161158 -1.549445 -3.629430
  H 2.913932 -2.026571 -4.577578
  H 6.279498 -0.789556 -2.208850
  H 2.476566 -0.090459 -1.519289
  H 4.117513 -0.033669 -0.143577
  H 5.117836 -2.454127 -3.568511
  H 5.084316 -0.870202 -4.320938
  H 2.708924 -0.565402 -3.639499
  H 2.730915 -2.152658 -2.832018
 16
 75.993193
  H 1.404598 0.267175 0.539073
  C 2.457322 0.051613 0.546189
  H 2.914171 -0.001827 1.520794
  C 3.110237 -0.075031 -0.618547
  C 4.542596 -0.433694 -1.187239
  C 5.181929 -0.832806 -2.233735
  C 4.662713 -1.469672 -3.502794
  C 3.153465 -1.563318 -3.616475
  H 2.900880 -2.068530 -4.548286
  H 6.256586 -0.760433 -2.232775
  H 2.518310 0.026979 -1.527279
  H 4.090913 -0.067520 -0.124463
  H 5.111803 -2.465943 -3.555886
  H 5.070600 -0.885053 -4.340255
  H 2.697711 -0.577259 -3.652519
  H 2.731731 -2.139065 -2.801864
 16
 78.517130
  H 1.387755 0.246209 0.528741
  C 2.443126 0.029329 0.540744
  H 2.878313 -0.079260 1.520124
  C 3.112015 -0.056076 -0.621939
  C 4.554212 -0.423510 -1.192474
  C 5.182996 -0.832792 -2.240607
  C 4.651610 -1.480678 -3.498694
  C 3.140256 -1.561365 -3.600967
  H 2.873985 -2.081392 -4.526673
  H 6.266611 -0.764850 -2.246326
  H 2.535847 0.086903 -1.536197
  H 4.065143 -0.017897 -0.122030
  H 5.092451 -2.474947 -3.541926
  H 5.061321 -0.908422 -4.343689
  H 2.696951 -0.576464 -3.646551
  H 2.719426 -2.121075 -2.774280
