 19
 0.000000
  C 0.963128 0.190289 0.526002
  C 2.408618 0.111102 0.328848
  H 3.061255 0.433460 1.130927
  C 2.969499 -0.357647 -0.838246
  C 4.360563 -0.424662 -1.006007
  C 5.072634 -0.863238 -2.100073
  C 4.660322 -1.385383 -3.402451
  C 3.194953 -1.531721 -3.767501
  H 3.116085 -1.935219 -4.774358
  H 6.151858 -0.821988 -1.997630
  H 0.694415 0.582780 1.502735
  H 0.510219 -0.796491 0.395527
  H 0.510169 0.812435 -0.250972
  H 2.310273 -0.674916 -1.628056
  H 4.948901 -0.085854 -0.161805
  H 5.161685 -2.358392 -3.513795
  H 5.161715 -0.758808 -4.154988
  H 2.687582 -0.570477 -3.753708
  H 2.687626 -2.217442 -3.093682
 19
 10.000744
  C 0.935322 0.203327 0.558532
  C 2.381311 0.127398 0.369545
  H 3.027290 0.451222 1.175361
  C 2.951835 -0.339987 -0.794240
  C 4.332671 -0.401253 -0.947756
  C 5.124347 -0.891234 -2.169963
  C 4.693487 -1.406114 -3.454110
  C 3.219180 -1.541050 -3.790753
  H 3.116553 -1.943641 -4.795281
  H 6.198695 -0.848242 -2.063117
  H 0.661321 0.594740 1.532655
  H 0.485473 -0.783552 0.424741
  H 0.485483 0.823330 -0.220884
  H 2.299257 -0.660087 -1.591105
  H 4.927077 -0.065543 -0.111252
  H 5.188410 -2.382036 -3.574075
  H 5.188499 -0.783419 -4.214988
  H 2.720104 -0.575860 -3.766734
  H 2.720097 -2.222497 -3.106798
 19
 30.180692
  C 0.925044 0.196134 0.540452
  C 2.365460 0.129994 0.376530
  H 2.992925 0.456649 1.190957
  C 2.952511 -0.327334 -0.763370
  C 4.320003 -0.373139 -0.878051
  C 5.184762 -0.915898 -2.232027
  C 4.700480 -1.417186 -3.481975
  C 3.215369 -1.530196 -3.763050
  H 3.069058 -1.930473 -4.761365
  H 6.246121 -0.858964 -2.090432
  H 0.635869 0.584160 1.507234
  H 0.484693 -0.791414 0.397379
  H 0.485333 0.811370 -0.245565
  H 2.317844 -0.651891 -1.571850
  H 4.953280 -0.050367 -0.073247
  H 5.181504 -2.396605 -3.628205
  H 5.181408 -0.810135 -4.264518
  H 2.733898 -0.556634 -3.723444
  H 2.734101 -2.206921 -3.061698
 19
 52.766393
  C 0.885953 0.199323 0.548243
  C 2.343690 0.143397 0.410388
  H 2.955624 0.475389 1.238918
  C 2.963946 -0.315593 -0.734170
  C 4.312065 -0.347938 -0.815273
  C 5.250871 -0.943180 -2.300461
  C 4.720685 -1.438855 -3.536211
  C 3.218391 -1.529864 -3.761864
  H 3.022988 -1.928777 -4.756247
  H 6.311168 -0.867673 -2.112730
  H 0.576211 0.587676 1.516518
  H 0.453303 -0.794654 0.397551
  H 0.454372 0.814580 -0.247470
  H 2.349743 -0.643033 -1.550325
  H 4.991485 -0.038750 -0.044226
  H 5.187507 -2.431829 -3.693072
  H 5.187151 -0.829563 -4.335859
  H 2.757219 -0.549527 -3.699972
  H 2.757711 -2.195870 -3.039698
 19
 75.058902
  C 0.855489 0.212580 0.581139
  C 2.303154 0.160878 0.454174
  H 2.907340 0.493471 1.284218
  C 2.931889 -0.297775 -0.689408
  C 4.295979 -0.326983 -0.762847
  C 5.302479 -0.976105 -2.382611
  C 4.753449 -1.459779 -3.588428
  C 3.252383 -1.537098 -3.779815
  H 3.032272 -1.932587 -4.765821
  H 6.349329 -0.897336 -2.186948
  H 0.542053 0.597746 1.541349
  H 0.428121 -0.779120 0.428771
  H 0.429418 0.825103 -0.214236
  H 2.316574 -0.628765 -1.514536
  H 4.996305 -0.025980 -0.012351
  H 5.207616 -2.450434 -3.754175
  H 5.207159 -0.858090 -4.392923
  H 2.802307 -0.551033 -3.707001
  H 2.802761 -2.199944 -3.045745
 19
 94.802982
  C 0.819073 0.220666 0.601459
  C 2.278915 0.181858 0.506400
  H 2.866819 0.519300 1.348384
  C 2.934585 -0.275502 -0.634041
  C 4.280742 -0.297833 -0.690898
  C 5.351302 -1.002126 -2.446824
  C 4.775958 -1.483479 -3.646879
  C 3.268279 -1.548425 -3.808194
  H 3.023362 -1.941650 -4.789247
  H 6.388421 -0.909229 -2.216306
  H 0.482617 0.603409 1.555985
  H 0.402683 -0.775347 0.442534
  H 0.403760 0.831844 -0.201443
  H 2.331017 -0.609194 -1.465845
  H 5.027249 -0.014384 0.015500
  H 5.218204 -2.479003 -3.824697
  H 5.217898 -0.886261 -4.463183
  H 2.831141 -0.557616 -3.722747
  H 2.831362 -2.206199 -3.062006
 19
 112.340396
  C 0.787619 0.236517 0.640896
  C 2.247070 0.202119 0.556955
  H 2.827863 0.540623 1.401468
  C 2.910769 -0.253424 -0.578769
  C 4.253165 -0.273169 -0.629259
  C 5.395425 -1.030424 -2.517474
  C 4.809719 -1.507995 -3.708101
  C 3.296508 -1.565202 -3.849994
  H 3.035312 -1.957741 -4.829262
  H 6.439367 -0.934671 -2.279845
  H 0.442893 0.619671 1.596323
  H 0.374633 -0.762442 0.479170
  H 0.375751 0.847872 -0.166117
  H 2.312802 -0.587680 -1.411851
  H 5.014675 0.006362 0.067311
  H 5.246363 -2.508497 -3.891150
  H 5.246058 -0.910837 -4.531605
  H 2.866341 -0.572406 -3.758009
  H 2.866701 -2.219826 -3.097783
 19
 126.830168
  C 0.754856 0.250591 0.676116
  C 2.216532 0.223043 0.609084
  H 2.787740 0.563688 1.459356
  C 2.893807 -0.230541 -0.522283
  C 4.230961 -0.246929 -0.564284
  C 5.441157 -1.058141 -2.586618
  C 4.840903 -1.533298 -3.771115
  C 3.326070 -1.580970 -3.889339
  H 3.046604 -1.971250 -4.862769
  H 6.478197 -0.960683 -2.344564
  H 0.399867 0.631184 1.625744
  H 0.348083 -0.749048 0.510749
  H 0.349106 0.860192 -0.133717
  H 2.301480 -0.566839 -1.360740
  H 5.006606 0.024984 0.113609
  H 5.268319 -2.535918 -3.960362
  H 5.268160 -0.939086 -4.600658
  H 2.904721 -0.585131 -3.789621
  H 2.904982 -2.232357 -3.129216
 19
 138.317748
  C 0.722466 0.263896 0.709454
  C 2.185228 0.243894 0.661094
  H 2.745281 0.586416 1.516589
  C 2.876894 -0.207233 -0.464887
  C 4.209580 -0.220726 -0.499651
  C 5.483581 -1.086863 -2.658102
  C 4.872248 -1.558393 -3.833517
  C 3.353708 -1.596965 -3.929095
  H 3.055998 -1.985749 -4.898712
  H 6.524673 -0.988467 -2.413623
  H 0.354970 0.643299 1.656882
  H 0.321917 -0.738426 0.539833
  H 0.322812 0.872885 -0.104961
  H 2.291048 -0.544901 -1.307220
  H 5.003454 0.044332 0.161626
  H 5.291318 -2.563879 -4.028636
  H 5.291218 -0.966312 -4.669308
  H 2.940692 -0.598337 -3.821836
  H 2.941000 -2.245043 -3.161576
 19
 146.482471
  C 0.686709 0.283710 0.758492
  C 2.148588 0.268598 0.723093
  H 2.701753 0.612977 1.583427
  C 2.852174 -0.181276 -0.399837
  C 4.183030 -0.194957 -0.435404
  C 5.519478 -1.115947 -2.730696
  C 4.910830 -1.586508 -3.903783
  C 3.390562 -1.620762 -3.987970
  H 3.083473 -2.008428 -4.955016
  H 6.567163 -1.022875 -2.499912
  H 0.309746 0.661908 1.702977
  H 0.291035 -0.719826 0.585538
  H 0.292164 0.891545 -0.059081
  H 2.270272 -0.520005 -1.245260
  H 4.984112 0.066379 0.216980
  H 5.328100 -2.592063 -4.102822
  H 5.327712 -0.996828 -4.742363
  H 2.981488 -0.621598 -3.875775
  H 2.982091 -2.266131 -3.216594
 19
 151.101818
  C 0.650884 0.307146 0.816501
  C 2.108746 0.294606 0.788379
  H 2.657843 0.640274 1.651479
  C 2.821546 -0.154616 -0.332361
  C 4.153265 -0.169656 -0.372099
  C 5.554183 -1.144975 -2.803175
  C 4.954097 -1.617075 -3.980135
  C 3.432329 -1.649016 -4.058142
  H 3.119107 -2.036125 -5.024076
  H 6.610738 -1.061289 -2.596299
  H 0.266517 0.684947 1.759399
  H 0.258671 -0.697589 0.640295
  H 0.260081 0.913528 -0.004436
  H 2.242401 -0.494884 -1.181579
  H 4.954684 0.092246 0.281768
  H 5.372394 -2.621505 -4.181635
  H 5.371758 -1.029623 -4.819608
  H 3.025150 -0.649492 -3.941933
  H 3.025942 -2.292101 -3.283809
 19
 153.919889
  C 0.615967 0.331159 0.875759
  C 2.070170 0.319751 0.851635
  H 2.617433 0.666377 1.716753
  C 2.789760 -0.128747 -0.266674
  C 4.123234 -0.144855 -0.309910
  C 5.590931 -1.173896 -2.875634
  C 4.998020 -1.648650 -4.059195
  C 3.475837 -1.678699 -4.131767
  H 3.157063 -2.065030 -5.095976
  H 6.653720 -1.099912 -2.693504
  H 0.226159 0.708322 1.816411
  H 0.226168 -0.674038 0.696071
  H 0.227998 0.935478 0.051795
  H 2.213869 -0.470273 -1.119196
  H 4.921015 0.118531 0.347961
  H 5.416680 -2.652034 -4.262293
  H 5.415733 -1.062696 -4.899063
  H 3.070615 -0.678954 -4.011850
  H 3.071695 -2.319737 -3.354704
 19
 155.773223
  C 0.582491 0.355593 0.935868
  C 2.033618 0.343988 0.912655
  H 2.580885 0.691136 1.778339
  C 2.756952 -0.104005 -0.203333
  C 4.092178 -0.121063 -0.250015
  C 5.628167 -1.203389 -2.949670
  C 5.042879 -1.680592 -4.139375
  C 3.520226 -1.710090 -4.209692
  H 3.198098 -2.096049 -5.173227
  H 6.697780 -1.138481 -2.790815
  H 0.189020 0.732753 1.875417
  H 0.193741 -0.649914 0.752951
  H 0.196090 0.957735 0.108994
  H 2.183764 -0.446533 -1.058213
  H 4.885803 0.144702 0.414152
  H 5.462303 -2.682962 -4.342836
  H 5.460977 -1.095219 -4.978729
  H 3.115866 -0.710175 -4.087108
  H 3.117365 -2.349836 -3.430778
 19
 156.981160
  C 0.550916 0.379768 0.995449
  C 1.999326 0.367337 0.971487
  H 2.547682 0.714818 1.837133
  C 2.724683 -0.080345 -0.142746
  C 4.061425 -0.098012 -0.192475
  C 5.666806 -1.233555 -3.025446
  C 5.088326 -1.713203 -4.221196
  C 3.565473 -1.742884 -4.291468
  H 3.241801 -2.128605 -5.254478
  H 6.741270 -1.176926 -2.887644
  H 0.155303 0.756885 1.933812
  H 0.162531 -0.625587 0.809556
  H 0.165328 0.979541 0.166185
  H 2.153775 -0.423751 -0.999513
  H 4.849715 0.169952 0.477762
  H 5.508633 -2.714805 -4.424208
  H 5.507099 -1.127872 -5.059719
  H 3.161448 -0.743076 -4.167252
  H 3.163150 -2.381631 -3.511453
