 26
 0.000000
  C 0.980818 0.152191 0.430091
  C 2.454864 0.136747 0.391387
  C 3.233775 0.603866 1.553219
  H 2.627633 0.938372 2.385795
  C 3.059952 -0.329800 -0.769756
  C 4.435882 -0.413236 -0.978069
  C 5.115009 -0.864935 -2.104501
  C 4.617780 -1.387225 -3.406786
  C 3.128364 -1.506903 -3.705504
  C 2.921537 -2.069933 -5.109418
  O 6.435597 -0.860271 -2.093487
  H 0.587289 0.529563 1.368855
  H 0.591364 -0.854096 0.269764
  H 0.591148 0.767458 -0.382081
  H 3.886703 1.424208 1.248530
  H 3.887020 -0.198890 1.900964
  H 2.402932 -0.647147 -1.559842
  H 5.060840 -0.083354 -0.156583
  H 5.077963 -2.374199 -3.531731
  H 5.078194 -0.760266 -4.179119
  H 2.650973 -0.527705 -3.656369
  H 2.650845 -2.180738 -2.993420
  H 3.366369 -1.420885 -5.860057
  H 1.859850 -2.156750 -5.326110
  H 3.366308 -3.057834 -5.203558
  H 6.825032 -0.527751 -1.262894
 26
 -0.126843
  C 0.991459 0.001857 0.517056
  C 2.456357 0.104056 0.389014
  C 3.229210 0.805801 1.430944
  H 2.584421 1.197743 2.210473
  C 3.051978 -0.462780 -0.728278
  C 4.425566 -0.482800 -0.958932
  C 5.114391 -0.988093 -2.059497
  C 4.617026 -1.463552 -3.379015
  C 3.129539 -1.489148 -3.706819
  C 2.928605 -1.907932 -5.161436
  O 6.431600 -1.053375 -2.011835
  H 0.620556 0.470928 1.422293
  H 0.684516 -1.045139 0.505448
  H 0.504445 0.459074 -0.345699
  H 3.796298 1.630634 0.999020
  H 3.955238 0.132603 1.887970
  H 2.398624 -0.940427 -1.437384
  H 5.052146 -0.081814 -0.171139
  H 5.035564 -2.465467 -3.527874
  H 5.127279 -0.840179 -4.123661
  H 2.693990 -0.499372 -3.567805
  H 2.612623 -2.208957 -3.071896
  H 3.410915 -1.207351 -5.839160
  H 1.869445 -1.936106 -5.404033
  H 3.342179 -2.897390 -5.342226
  H 6.829480 -0.741622 -1.177028
 26
 0.627525
  C 1.026632 -0.202176 0.599170
  C 2.455327 0.073280 0.359649
  C 3.154941 1.075648 1.186121
  H 2.491478 1.525885 1.917131
  C 3.092603 -0.607921 -0.668045
  C 4.460220 -0.558835 -0.928691
  C 5.131268 -1.145030 -2.000009
  C 4.615993 -1.529493 -3.340569
  C 3.133966 -1.407782 -3.673391
  C 2.917736 -1.639904 -5.166687
  O 6.433479 -1.328337 -1.919634
  H 0.623729 0.385496 1.417398
  H 0.879523 -1.261861 0.813529
  H 0.445671 -0.001817 -0.302299
  H 3.573727 1.863233 0.559489
  H 3.994158 0.620384 1.713208
  H 2.499428 -1.276731 -1.266592
  H 5.087901 -0.080110 -0.186565
  H 4.954277 -2.551822 -3.540796
  H 5.182392 -0.908666 -4.046222
  H 2.768953 -0.413041 -3.416267
  H 2.557563 -2.154826 -3.128143
  H 3.451627 -0.899730 -5.758079
  H 1.861241 -1.568380 -5.411568
  H 3.265610 -2.627393 -5.460871
  H 6.836563 -1.047475 -1.076807
 26
 2.736352
  C 1.104272 -0.430426 0.722680
  C 2.454556 -0.000202 0.323190
  C 3.036716 1.220850 0.904743
  H 2.351796 1.703027 1.591872
  C 3.135381 -0.751110 -0.613369
  C 4.482553 -0.606188 -0.932657
  C 5.139360 -1.307092 -1.939924
  C 4.608265 -1.627717 -3.288129
  C 3.152850 -1.317173 -3.619733
  C 2.930760 -1.403425 -5.126650
  O 6.397016 -1.651108 -1.815079
  H 0.639525 0.261994 1.416311
  H 1.151844 -1.417111 1.186522
  H 0.463620 -0.545334 -0.152019
  H 3.303858 1.926704 0.119463
  H 3.958385 0.990519 1.438850
  H 2.613453 -1.570036 -1.081125
  H 5.099556 0.008755 -0.288019
  H 4.828291 -2.676339 -3.507751
  H 5.249666 -1.058592 -3.972397
  H 2.892635 -0.314287 -3.278022
  H 2.489243 -2.033841 -3.136970
  H 3.544378 -0.677154 -5.653966
  H 1.890566 -1.203345 -5.367923
  H 3.178668 -2.394422 -5.499152
  H 6.813371 -1.388314 -0.976913
 26
 8.074714
  C 1.216016 -0.579445 0.901462
  C 2.449305 -0.023154 0.311249
  C 2.864357 1.359303 0.624094
  H 2.166013 1.847059 1.296188
  C 3.192783 -0.805937 -0.557165
  C 4.504077 -0.583042 -0.951994
  C 5.111717 -1.412963 -1.912366
  C 4.598109 -1.640578 -3.286206
  C 3.191099 -1.153375 -3.621473
  C 2.971402 -1.176941 -5.130952
  O 6.283764 -1.957862 -1.705072
  H 0.688116 0.149100 1.508278
  H 1.459703 -1.443271 1.521804
  H 0.546959 -0.947884 0.123558
  H 2.942892 1.944946 -0.291518
  H 3.854748 1.371853 1.081161
  H 2.765468 -1.715460 -0.953317
  H 5.122755 0.130090 -0.424178
  H 4.706033 -2.699115 -3.540935
  H 5.315279 -1.115136 -3.929438
  H 3.047793 -0.136807 -3.254528
  H 2.445733 -1.795071 -3.154012
  H 3.671871 -0.517063 -5.637523
  H 1.964155 -0.847819 -5.372261
  H 3.101554 -2.181595 -5.526265
  H 6.704383 -1.732385 -0.852683
 26
 16.193529
  C 1.387471 -0.737341 1.121681
  C 2.463692 -0.094001 0.340535
  C 2.659514 1.370283 0.398382
  H 1.958920 1.843024 1.078957
  C 3.257099 -0.873637 -0.487719
  C 4.505488 -0.551421 -0.996649
  C 5.062889 -1.491287 -1.904674
  C 4.589247 -1.636010 -3.297074
  C 3.232338 -1.022467 -3.635385
  C 3.029296 -0.979417 -5.146136
  O 6.099470 -2.204464 -1.616063
  H 0.789718 -0.010976 1.663214
  H 1.815974 -1.440092 1.837856
  H 0.735168 -1.323196 0.473958
  H 2.534818 1.801131 -0.594868
  H 3.673858 1.616858 0.714729
  H 2.909645 -1.842009 -0.828961
  H 5.105394 0.261017 -0.614797
  H 4.623639 -2.688093 -3.593268
  H 5.363638 -1.133618 -3.891553
  H 3.169445 -0.010618 -3.233859
  H 2.433265 -1.614219 -3.190574
  H 3.790865 -0.368124 -5.624523
  H 2.057715 -0.555548 -5.385778
  H 3.075418 -1.978667 -5.572396
  H 6.540391 -1.993661 -0.769445
 26
 27.580696
  C 1.640609 -0.891365 1.356857
  C 2.484986 -0.172721 0.378560
  C 2.381084 1.293797 0.214782
  H 1.645362 1.720097 0.889156
  C 3.358256 -0.891681 -0.428798
  C 4.528952 -0.489837 -1.041832
  C 4.967450 -1.551221 -1.907197
  C 4.526727 -1.641141 -3.314821
  C 3.258711 -0.865153 -3.668640
  C 3.101078 -0.753253 -5.180991
  O 5.918244 -2.367940 -1.579328
  H 0.943071 -0.223031 1.852118
  H 2.267254 -1.361375 2.116262
  H 1.082349 -1.695924 0.877451
  H 2.103411 1.532390 -0.811659
  H 3.342799 1.777313 0.394031
  H 3.125110 -1.909006 -0.736654
  H 5.124202 0.369963 -0.797195
  H 4.432920 -2.689772 -3.610719
  H 5.371079 -1.235643 -3.885986
  H 3.302163 0.134143 -3.234285
  H 2.387255 -1.375538 -3.258202
  H 3.936320 -0.213669 -5.620854
  H 2.187556 -0.219243 -5.428125
  H 3.050290 -1.737893 -5.639560
  H 6.363245 -2.197610 -0.722475
 26
 42.611743
  C 1.861760 -1.088361 1.417841
  C 2.568949 -0.213749 0.450415
  C 2.188814 1.214077 0.282547
  H 1.412361 1.498001 0.986134
  C 3.523482 -0.757252 -0.412066
  C 4.607173 -0.319525 -1.119221
  C 4.845852 -1.531932 -1.894332
  C 4.449234 -1.608836 -3.323854
  C 3.253019 -0.741319 -3.716283
  C 3.113989 -0.668241 -5.232587
  O 5.684304 -2.440397 -1.516501
  H 1.075858 -0.548960 1.937749
  H 2.564828 -1.473055 2.158014
  H 1.423312 -1.957289 0.925204
  H 1.832086 1.393869 -0.731247
  H 3.051219 1.865694 0.427441
  H 3.336912 -1.788044 -0.828366
  H 5.237873 0.534669 -0.997789
  H 4.275306 -2.652863 -3.597212
  H 5.334962 -1.280354 -3.880942
  H 3.378144 0.265426 -3.316773
  H 2.339498 -1.164126 -3.296569
  H 3.997665 -0.222787 -5.683067
  H 2.254455 -0.062272 -5.505538
  H 2.976455 -1.659680 -5.657566
  H 6.202376 -2.250394 -0.704569
 26
 54.613791
  C 1.991334 -1.170457 1.366318
  C 2.606086 -0.227708 0.403729
  C 2.053833 1.136561 0.199998
  H 1.223940 1.321873 0.873844
  C 3.636520 -0.632469 -0.422168
  C 4.746978 -0.282333 -1.106511
  C 4.799036 -1.553154 -1.848176
  C 4.367314 -1.605533 -3.281453
  C 3.233602 -0.646563 -3.642484
  C 3.063727 -0.557360 -5.154957
  O 5.624021 -2.511831 -1.504613
  H 1.128564 -0.728486 1.853695
  H 2.716300 -1.450121 2.132707
  H 1.684265 -2.096274 0.878123
  H 1.714247 1.264204 -0.827929
  H 2.824347 1.890318 0.366701
  H 3.517420 -1.738224 -0.964540
  H 5.466000 0.501643 -0.999233
  H 4.097614 -2.632897 -3.534987
  H 5.258769 -1.353157 -3.865913
  H 3.447198 0.346878 -3.246027
  H 2.299311 -0.998359 -3.202090
  H 3.968522 -0.180562 -5.625573
  H 2.247319 0.114352 -5.406209
  H 2.840497 -1.534104 -5.577563
  H 6.186793 -2.324526 -0.728458
 26
 59.743284
  C 2.080872 -1.194443 1.341414
  C 2.637327 -0.209147 0.386799
  C 1.975131 1.103732 0.164627
  H 1.118216 1.216074 0.820471
  C 3.699464 -0.513931 -0.407793
  C 4.803633 -0.262531 -1.097188
  C 4.748212 -1.575198 -1.813218
  C 4.317008 -1.606282 -3.265034
  C 3.209949 -0.614229 -3.611573
  C 3.037521 -0.504998 -5.122177
  O 5.592853 -2.560203 -1.475694
  H 1.173457 -0.822514 1.805275
  H 2.807548 -1.410617 2.126439
  H 1.864549 -2.143282 0.850758
  H 1.649809 1.203087 -0.871076
  H 2.676059 1.917944 0.347818
  H 3.648203 -1.769470 -1.102642
  H 5.578089 0.473108 -1.021270
  H 4.016849 -2.623519 -3.518883
  H 5.211337 -1.375021 -3.852142
  H 3.452385 0.369533 -3.206142
  H 2.267396 -0.945026 -3.171462
  H 3.951111 -0.149095 -5.591912
  H 2.239224 0.191563 -5.363728
  H 2.786341 -1.471109 -5.553141
  H 6.162716 -2.360611 -0.715217
 26
 52.305463
  C 2.166761 -1.103359 1.478936
  C 2.617100 -0.149581 0.441761
  C 1.836194 1.085129 0.156278
  H 0.986737 1.166153 0.827009
  C 3.673991 -0.409278 -0.338992
  C 4.751212 -0.348505 -1.076553
  C 4.652954 -1.667784 -1.809584
  C 4.302994 -1.615304 -3.298638
  C 3.201767 -0.617877 -3.641991
  C 3.092277 -0.437697 -5.150415
  O 5.545692 -2.658841 -1.486760
  H 1.240917 -0.774972 1.939948
  H 2.928712 -1.200398 2.254344
  H 2.025642 -2.099921 1.061676
  H 1.486167 1.086950 -0.875344
  H 2.467083 1.967152 0.268123
  H 3.641782 -1.937800 -1.277027
  H 5.589601 0.323542 -1.038857
  H 4.027327 -2.620383 -3.615461
  H 5.221192 -1.343774 -3.827132
  H 3.416003 0.347172 -3.180971
  H 2.246430 -0.977701 -3.259357
  H 4.020081 -0.050962 -5.562177
  H 2.297203 0.260801 -5.391831
  H 2.871877 -1.383665 -5.636758
  H 6.105371 -2.446713 -0.717439
 26
 43.394210
  C 2.195856 -1.002437 1.555066
  C 2.594312 -0.092893 0.460767
  C 1.780813 1.105136 0.140391
  H 0.943799 1.199900 0.824382
  C 3.651129 -0.363908 -0.310290
  C 4.697471 -0.476913 -1.065458
  C 4.602387 -1.792401 -1.817314
  C 4.337189 -1.609735 -3.324379
  C 3.178447 -0.674580 -3.645582
  C 3.130964 -0.377373 -5.141343
  O 5.621260 -2.700024 -1.584674
  H 1.266376 -0.683957 2.015057
  H 2.979266 -1.024335 2.316123
  H 2.093796 -2.027630 1.200696
  H 1.416224 1.044949 -0.885781
  H 2.388291 2.009259 0.191365
  H 3.653349 -2.192226 -1.375947
  H 5.578433 0.143369 -1.070656
  H 4.152140 -2.603748 -3.732008
  H 5.258674 -1.229173 -3.772422
  H 3.289441 0.262931 -3.099611
  H 2.236972 -1.139103 -3.347337
  H 4.045165 0.112351 -5.467327
  H 2.293578 0.276181 -5.371232
  H 3.013031 -1.294466 -5.713605
  H 6.153739 -2.479946 -0.807320
 26
 37.474118
  C 2.228537 -0.863441 1.658084
  C 2.535331 -0.045786 0.471654
  C 1.687732 1.103502 0.100744
  H 0.876693 1.241240 0.808157
  C 3.589944 -0.357232 -0.303267
  C 4.602430 -0.620916 -1.036917
  C 4.577186 -1.918814 -1.860209
  C 4.415735 -1.570876 -3.345528
  C 3.179227 -0.741608 -3.674343
  C 3.182067 -0.326699 -5.142395
  O 5.716481 -2.702875 -1.689714
  H 1.302440 -0.551299 2.129149
  H 3.045928 -0.776511 2.378731
  H 2.176700 -1.923235 1.406643
  H 1.286311 0.957294 -0.903902
  H 2.277105 2.020527 0.046849
  H 3.684731 -2.460595 -1.512131
  H 5.513324 -0.041786 -1.077108
  H 4.367210 -2.531204 -3.864705
  H 5.318231 -1.058521 -3.683721
  H 3.152832 0.155438 -3.055528
  H 2.281138 -1.327926 -3.472040
  H 4.052231 0.284732 -5.368529
  H 2.290252 0.248538 -5.377278
  H 3.202686 -1.199938 -5.790216
  H 6.124202 -2.574480 -0.823133
 26
 35.342739
  C 2.100422 -0.827889 1.515930
  C 2.521593 -0.007743 0.365674
  C 1.765580 1.196366 -0.024835
  H 0.916107 1.362625 0.629202
  C 3.618895 -0.363031 -0.330755
  C 4.678995 -0.739109 -0.938159
  C 4.726991 -1.957860 -1.878506
  C 4.480897 -1.480953 -3.313179
  C 3.113797 -0.850267 -3.546476
  C 2.989454 -0.328223 -4.974293
  O 5.952895 -2.613587 -1.835847
  H 1.176337 -0.461835 1.950565
  H 2.886469 -0.825707 2.274851
  H 1.982854 -1.873697 1.228890
  H 1.425356 1.105753 -1.058181
  H 2.409139 2.077974 -0.010347
  H 3.918850 -2.632963 -1.564448
  H 5.625570 -0.222054 -0.846380
  H 4.578752 -2.376182 -3.933863
  H 5.278756 -0.797209 -3.606813
  H 2.964289 -0.020421 -2.855337
  H 2.332978 -1.591358 -3.366480
  H 3.738030 0.435058 -5.172186
  H 2.006604 0.106173 -5.137345
  H 3.126980 -1.132986 -5.692605
  H 6.304413 -2.664584 -0.935762
 26
 35.318718
  C 1.790528 -0.810841 1.167628
  C 2.501384 0.058145 0.209358
  C 1.989546 1.405363 -0.112755
  H 1.074718 1.621093 0.428340
  C 3.634611 -0.385158 -0.362718
  C 4.744897 -0.828062 -0.826677
  C 4.893104 -1.966233 -1.840790
  C 4.541314 -1.416942 -3.231618
  C 3.074911 -1.049079 -3.398088
  C 2.805694 -0.427448 -4.764825
  O 6.185977 -2.490623 -1.882353
  H 0.896256 -0.332415 1.551658
  H 2.455411 -1.070652 1.993768
  H 1.522457 -1.761321 0.704590
  H 1.815478 1.500080 -1.185646
  H 2.734494 2.165894 0.126345
  H 4.177899 -2.757046 -1.571990
  H 5.689029 -0.386504 -0.526847
  H 4.794850 -2.220439 -3.929439
  H 5.191372 -0.571899 -3.464491
  H 2.785709 -0.335113 -2.625016
  H 2.457548 -1.940945 -3.276486
  H 3.389288 0.479853 -4.898978
  H 1.753255 -0.177467 -4.869228
  H 3.068988 -1.120518 -5.560001
  H 6.610301 -2.478302 -1.013316
