 23
 0.000000
  C 0.996384 0.132972 0.381868
  C 2.475139 0.140018 0.399085
  C 3.241227 0.613797 1.578372
  C 2.445071 1.099206 2.786946
  H 3.098730 1.415018 3.573007
  C 3.096863 -0.322475 -0.752613
  C 4.472906 -0.413204 -0.978851
  C 5.132414 -0.867699 -2.111643
  C 4.618673 -1.388937 -3.410716
  H 3.569972 -1.467842 -3.607948
  O 6.457488 -0.870547 -2.119086
  H 0.547238 0.500715 1.297563
  H 0.632250 -0.881396 0.212641
  H 0.631990 0.748397 -0.441931
  H 3.897288 1.429656 1.253616
  H 3.897458 -0.199872 1.908184
  H 1.806291 0.298662 3.165430
  H 1.806160 1.939037 2.506526
  H 2.436796 -0.639606 -1.542199
  H 5.100515 -0.083792 -0.158214
  H 5.068655 -2.379864 -3.541239
  H 5.069011 -0.763340 -4.190016
  H 6.834017 -0.535875 -1.285013
 23
 0.000000
  C 1.046227 0.117061 0.342229
  C 2.524840 0.127494 0.367886
  C 3.283098 0.603019 1.551523
  C 2.478947 1.086596 2.755531
  H 3.127385 1.403899 3.545308
  C 3.127896 -0.328818 -0.768414
  C 4.434482 -0.413104 -0.978606
  C 5.068917 -0.849136 -2.065400
  C 4.584951 -1.374317 -3.374290
  H 3.540982 -1.461490 -3.592100
  O 6.325768 -0.832486 -2.024270
  H 0.591021 0.483769 1.255344
  H 0.685389 -0.898137 0.170934
  H 0.685132 0.731655 -0.483641
  H 3.939132 1.420380 1.230512
  H 3.939298 -0.209147 1.885081
  H 1.839853 0.284588 3.130368
  H 1.839725 1.924963 2.471463
  H 2.466518 -0.645569 -1.557055
  H 5.059955 -0.083125 -0.156567
  H 5.045230 -2.361648 -3.495867
  H 5.045570 -0.745120 -4.144634
  H 6.652218 -0.478298 -1.141564
 23
 0.000000
  C 1.096477 0.101796 0.304199
  C 2.574878 0.115845 0.338868
  C 3.324741 0.593215 1.527103
  C 2.512085 1.074815 2.726183
  H 3.154918 1.393698 3.519897
  C 3.161506 -0.336020 -0.786356
  C 4.397395 -0.414344 -0.981698
  C 5.007689 -0.831993 -2.022692
  C 4.555301 -1.361069 -3.341284
  H 3.516819 -1.456905 -3.580650
  O 6.194212 -0.797241 -1.936470
  H 0.634817 0.467383 1.214519
  H 0.739174 -0.914280 0.130714
  H 0.738921 0.715511 -0.523862
  H 3.980719 1.412181 1.210090
  H 3.980881 -0.217345 1.864661
  H 1.872680 0.271244 3.097124
  H 1.872557 1.911618 2.438218
  H 2.498395 -0.652267 -1.573743
  H 5.020772 -0.083811 -0.158291
  H 5.026198 -2.344528 -3.453227
  H 5.026520 -0.727996 -4.101985
  H 6.464282 -0.421465 -0.999969
 23
 0.000000
  C 1.146645 0.087347 0.268198
  C 2.624754 0.105181 0.312303
  C 3.365794 0.584461 1.505296
  C 2.544271 1.063969 2.699162
  H 3.181207 1.384491 3.496960
  C 3.197398 -0.344070 -0.806409
  C 4.362317 -0.416816 -0.987861
  C 4.949506 -0.816321 -1.983652
  C 4.530087 -1.349159 -3.311607
  H 3.497837 -1.453923 -3.573191
  O 6.064498 -0.765243 -1.856759
  H 0.678250 0.451743 1.175551
  H 0.793059 -0.929640 0.092445
  H 0.792811 0.700150 -0.562133
  H 4.021683 1.405107 1.192469
  H 4.021840 -0.224420 1.847041
  H 1.904571 0.258760 3.066021
  H 1.904452 1.899133 2.407114
  H 2.532279 -0.659731 -1.592336
  H 4.983546 -0.085717 -0.163058
  H 5.011744 -2.328511 -3.413336
  H 5.012045 -0.711975 -4.062084
  H 6.270905 -0.366413 -0.862808
 23
 0.000000
  C 1.196037 0.074021 0.234998
  C 2.673775 0.095741 0.288786
  C 3.405720 0.576958 1.486606
  C 2.575133 1.054294 2.675060
  H 3.205984 1.376483 3.477012
  C 3.235292 -0.353072 -0.828833
  C 4.329903 -0.420593 -0.997274
  C 4.895249 -0.802382 -1.948925
  C 4.509870 -1.338780 -3.285747
  H 3.484581 -1.452644 -3.569967
  O 5.938634 -0.736960 -1.786304
  H 0.720750 0.437178 1.139260
  H 0.846285 -0.943890 0.056940
  H 0.846041 0.685899 -0.597640
  H 4.061484 1.399328 1.178076
  H 4.061638 -0.230198 1.832649
  H 1.935163 0.247403 3.037727
  H 1.935048 1.887776 2.378819
  H 2.567966 -0.668085 -1.613149
  H 4.948864 -0.088900 -0.171006
  H 5.002293 -2.313827 -3.376765
  H 5.002571 -0.697288 -4.025504
  H 6.073508 -0.313883 -0.731927
 23
 0.000000
  C 1.244343 0.062138 0.205388
  C 2.721625 0.087818 0.269049
  C 3.444259 0.570985 1.471728
  C 2.604473 1.046082 2.654603
  H 3.229085 1.369954 3.460750
  C 3.275490 -0.363436 -0.854651
  C 4.300454 -0.426012 -1.010778
  C 4.845247 -0.790470 -1.919249
  C 4.495213 -1.330227 -3.264431
  H 3.477710 -1.453412 -3.571840
  O 5.817218 -0.712609 -1.725642
  H 0.762052 0.424011 1.106451
  H 0.898518 -0.956707 0.025006
  H 0.898279 0.673083 -0.629576
  H 4.099863 1.395114 1.167580
  H 4.100012 -0.234412 1.822153
  H 1.964259 0.237474 3.012993
  H 1.964148 1.877847 2.354085
  H 2.605775 -0.677744 -1.637211
  H 4.916915 -0.093667 -0.182904
  H 4.998456 -2.300732 -3.344155
  H 4.998709 -0.684190 -3.992886
  H 5.871009 -0.263640 -0.606746
 23
 0.000000
  C 1.290779 0.052185 0.180586
  C 2.767528 0.081838 0.254149
  C 3.480780 0.566936 1.461643
  C 2.631807 1.039761 2.638858
  H 3.250128 1.365305 3.449171
  C 3.318092 -0.375614 -0.884985
  C 4.274632 -0.433470 -1.029361
  C 4.800334 -0.781041 -1.895759
  C 4.486974 -1.323924 -3.248721
  H 3.478139 -1.456646 -3.579852
  O 5.701916 -0.692637 -1.675890
  H 0.801487 0.412752 1.078393
  H 0.948913 -0.967584 -0.002101
  H 0.948678 0.662204 -0.656684
  H 4.136189 1.392829 1.161889
  H 4.136335 -0.236697 1.816463
  H 1.991383 0.229431 2.992955
  H 1.991276 1.869804 2.334047
  H 2.645882 -0.689182 -1.665701
  H 4.888211 -0.100379 -0.199647
  H 5.001061 -2.289644 -3.316542
  H 5.001285 -0.673098 -3.965266
  H 5.663584 -0.215773 -0.487482
 23
 0.000000
  C 1.334305 0.044758 0.162077
  C 2.810454 0.078311 0.245360
  C 3.514459 0.565281 1.457518
  C 2.656509 1.035850 2.629116
  H 3.268621 1.363019 3.443479
  C 3.363127 -0.390124 -0.921129
  C 4.253275 -0.443433 -1.054182
  C 4.761561 -0.774633 -1.879794
  C 4.486146 -1.320372 -3.239860
  H 3.486903 -1.462819 -3.595180
  O 5.594851 -0.677532 -1.638262
  H 0.838162 0.404024 1.056641
  H 0.996343 -0.975908 -0.022848
  H 0.996113 0.653880 -0.677432
  H 4.169643 1.392904 1.162079
  H 4.169785 -0.236621 1.816653
  H 2.015911 0.223827 2.978996
  H 2.015808 1.864201 2.320088
  H 2.688454 -0.702957 -1.700013
  H 4.863382 -0.109451 -0.222268
  H 5.011051 -2.281060 -3.295171
  H 5.011244 -0.664512 -3.943888
  H 5.451856 -0.170356 -0.374325
 23
 0.000000
  C 1.373949 0.040509 0.151481
  C 2.849453 0.077801 0.244083
  C 3.544554 0.566542 1.460660
  C 2.678033 1.034925 2.626813
  H 3.284159 1.363637 3.445023
  C 3.410821 -0.407613 -0.964692
  C 4.237124 -0.456476 -1.086675
  C 4.729743 -0.771774 -1.872669
  C 4.493674 -1.320070 -3.239098
  H 3.505036 -1.472452 -3.619121
  O 5.497635 -0.667661 -1.613672
  H 0.871259 0.398509 1.042891
  H 1.039749 -0.981009 -0.035567
  H 1.039524 0.648779 -0.690152
  H 4.199490 1.395826 1.169357
  H 4.199629 -0.233699 1.823930
  H 2.037298 0.221278 2.972647
  H 2.037198 1.861652 2.313740
  H 2.733890 -0.719768 -1.741886
  H 4.842893 -0.121391 -0.252038
  H 5.029366 -2.275460 -3.281232
  H 5.029526 -0.658910 -3.929944
  H 5.235197 -0.127081 -0.266500
 23
 0.000000
  C 1.408105 0.039889 0.149926
  C 2.882962 0.080585 0.251014
  C 3.569922 0.570921 1.471565
  C 2.695629 1.037293 2.632712
  H 3.296279 1.367398 3.454393
  C 3.459927 -0.427925 -1.015285
  C 4.227012 -0.472486 -1.126559
  C 4.706028 -0.772662 -1.874877
  C 4.509672 -1.323132 -3.246713
  H 3.532409 -1.485389 -3.651288
  O 5.413791 -0.663136 -1.602400
  H 0.899470 0.396722 1.038427
  H 1.077344 -0.982396 -0.039035
  H 1.077123 0.647391 -0.693621
  H 4.224607 1.401717 1.184030
  H 4.224743 -0.227809 1.838602
  H 2.054796 0.222166 2.974860
  H 2.054699 1.862540 2.315953
  H 2.781237 -0.739550 -1.791157
  H 4.827412 -0.136054 -0.288590
  H 5.055821 -2.273089 -3.275339
  H 5.055944 -0.656537 -3.924047
  H 5.019024 -0.086735 -0.165978
 23
 0.000000
  C 1.436190 0.043084 0.157872
  C 2.910426 0.086791 0.266465
  C 3.590163 0.578521 1.490494
  C 2.709021 1.043099 2.647174
  H 3.304805 1.374425 3.471900
  C 3.510063 -0.451053 -1.072893
  C 4.222934 -0.491426 -1.173738
  C 4.690244 -0.777174 -1.886112
  C 4.533785 -1.329419 -3.262359
  H 3.568618 -1.501442 -3.691217
  O 5.343780 -0.663503 -1.603315
  H 0.922312 0.398872 1.043770
  H 1.108483 -0.979874 -0.032765
  H 1.108266 0.649913 -0.687352
  H 4.244604 1.410656 1.206291
  H 4.244737 -0.218871 1.860862
  H 2.068122 0.226662 2.986060
  H 2.068026 1.867037 2.327155
  H 2.830339 -0.762367 -1.847985
  H 4.816728 -0.153362 -0.331729
  H 5.090002 -2.273833 -3.277206
  H 5.090088 -0.657280 -3.925911
  H 4.803863 -0.048878 -0.071656
 23
 0.000000
  C 1.458239 0.049812 0.174621
  C 2.931906 0.096111 0.289674
  C 3.605406 0.589031 1.516668
  C 2.718388 1.052051 2.669475
  H 3.309968 1.384421 3.496802
  C 3.560398 -0.476302 -1.135786
  C 4.224230 -0.512599 -1.226480
  C 4.681396 -0.784537 -1.904448
  C 4.564624 -1.338143 -3.284077
  H 3.612156 -1.519729 -3.736710
  O 5.286974 -0.667683 -1.613725
  H 0.939859 0.404692 1.058257
  H 1.133170 -0.973719 -0.017447
  H 1.132956 0.656068 -0.672033
  H 4.259620 1.422317 1.235333
  H 4.259753 -0.207210 1.889904
  H 2.077448 0.234486 3.005550
  H 2.077352 1.874861 2.346647
  H 2.880557 -0.787583 -1.910788
  H 4.810094 -0.172611 -0.379703
  H 5.130427 -2.276961 -3.285009
  H 5.130475 -0.660407 -3.933713
  H 4.591054 -0.013309 0.016962
 23
 0.000000
  C 1.467145 0.052071 0.180243
  C 2.940552 0.099509 0.298136
  C 3.611305 0.592949 1.526426
  C 2.721709 1.055282 2.677520
  H 3.311436 1.388108 3.505986
  C 3.578851 -0.482190 -1.150452
  C 4.231141 -0.517200 -1.237943
  C 4.686802 -0.785524 -1.906903
  C 4.581846 -1.339459 -3.287351
  H 3.633283 -1.523863 -3.746992
  O 5.280758 -0.667706 -1.613780
  H 0.946789 0.406549 1.062879
  H 1.143239 -0.971712 -0.012449
  H 1.143026 0.658075 -0.667036
  H 4.265415 1.426741 1.246351
  H 4.265547 -0.202786 1.900922
  H 2.080755 0.237221 3.012361
  H 2.080660 1.877596 2.353457
  H 2.900019 -0.793777 -1.926214
  H 4.813731 -0.176430 -0.389223
  H 5.150422 -2.276595 -3.284102
  H 5.150460 -0.660042 -3.932806
  H 4.541476 -0.003386 0.041684
 23
 0.000000
  C 1.491549 0.069488 0.223614
  C 2.964143 0.120308 0.349933
  C 3.626723 0.615278 1.582036
  C 2.729498 1.075555 2.728020
  H 3.313711 1.409730 3.559843
  C 3.660226 -0.527912 -1.264340
  C 4.232983 -0.555756 -1.333981
  C 4.670761 -0.799382 -1.941409
  C 4.637441 -1.354543 -3.324903
  H 3.713812 -1.555746 -3.826309
  O 5.191048 -0.678009 -1.639432
  H 0.965340 0.422765 1.103255
  H 1.171101 -0.955033 0.029078
  H 1.170891 0.674753 -0.625510
  H 4.280506 1.450573 1.305703
  H 4.280639 -0.178955 1.960272
  H 2.088522 0.256021 3.059193
  H 2.088426 1.896397 2.400291
  H 2.983824 -0.840236 -2.041928
  H 4.797561 -0.210790 -0.474851
  H 5.222011 -2.281325 -3.295912
  H 5.221982 -0.664772 -3.944616
  H 4.147496 0.053146 0.182531
