 26
 0.000000
  H 1.438914 0.160598 0.456099
  C 2.518010 0.146353 0.418043
  C 3.267310 0.618993 1.589826
  C 2.399661 1.085532 2.751065
  H 3.018117 1.418835 3.577200
  C 3.086979 -0.323442 -0.750613
  C 4.463626 -0.415564 -0.981670
  C 5.133263 -0.871064 -2.118020
  C 4.615548 -1.389136 -3.411063
  C 3.121951 -1.499907 -3.689500
  C 2.894643 -2.061383 -5.090979
  O 6.448471 -0.870623 -2.117066
  H 3.926973 1.439833 1.284352
  H 3.928853 -0.183120 1.937855
  H 1.761174 0.278348 3.103678
  H 1.759353 1.910625 2.446531
  H 2.408515 -0.635528 -1.525636
  H 5.100987 -0.088683 -0.168063
  H 5.070226 -2.378031 -3.543576
  H 5.071183 -0.766034 -4.189776
  H 2.650529 -0.518186 -3.633464
  H 2.649603 -2.170834 -2.971242
  H 3.333410 -1.414544 -5.846973
  H 1.829997 -2.142372 -5.294588
  H 3.332566 -3.051674 -5.190956
  H 6.854139 -0.540809 -1.292034
 26
 13.563369
  H 1.403328 0.196255 0.544482
  C 2.479863 0.176975 0.493944
  C 3.245384 0.639434 1.640690
  C 2.393965 1.109914 2.812083
  H 3.025580 1.440140 3.630848
  C 3.077153 -0.337835 -0.786833
  C 4.442535 -0.429265 -1.016087
  C 5.099076 -0.882552 -2.146755
  C 4.607774 -1.398530 -3.434386
  C 3.118238 -1.515273 -3.727868
  C 2.909708 -2.077810 -5.131749
  O 6.552629 -0.878092 -2.135851
  H 3.908260 1.455015 1.324217
  H 3.910160 -0.166590 1.976924
  H 1.756374 0.306693 3.173882
  H 1.754541 1.938613 2.517120
  H 2.385185 -0.644181 -1.547672
  H 5.083987 -0.103049 -0.204007
  H 5.071099 -2.384961 -3.562261
  H 5.072202 -0.774201 -4.208104
  H 2.642253 -0.535221 -3.677201
  H 2.641251 -2.188584 -3.014609
  H 3.354304 -1.429121 -5.882605
  H 1.847989 -2.163777 -5.347845
  H 3.353414 -3.065949 -5.226596
  H 6.935587 -0.547301 -1.308610
 26
 41.520953
  H 1.350521 0.216427 0.593446
  C 2.426602 0.198264 0.544991
  C 3.237265 0.649502 1.665464
  C 2.432055 1.129948 2.864289
  H 3.097004 1.451323 3.661874
  C 3.032695 -0.352366 -0.826518
  C 4.390503 -0.432910 -1.028444
  C 5.018278 -0.883256 -2.150273
  C 4.603203 -1.404397 -3.449033
  C 3.118676 -1.532846 -3.771974
  C 2.935326 -2.097264 -5.178656
  O 6.637947 -0.863057 -2.097892
  H 3.911940 1.447521 1.329210
  H 3.914203 -0.157665 1.974058
  H 1.797478 0.336128 3.249210
  H 1.795244 1.967912 2.593693
  H 2.310377 -0.648545 -1.562066
  H 5.026393 -0.108185 -0.220011
  H 5.087800 -2.382474 -3.565072
  H 5.089343 -0.779022 -4.208922
  H 2.627287 -0.560573 -3.733194
  H 2.625861 -2.207790 -3.072058
  H 3.388126 -1.446552 -5.922915
  H 1.877618 -2.189783 -5.411609
  H 3.386600 -3.082576 -5.266198
  H 6.939361 -0.522232 -1.244831
 26
 73.193062
  H 1.313135 0.232597 0.638583
  C 2.389360 0.215197 0.592216
  C 3.226470 0.652694 1.673306
  C 2.449763 1.145390 2.897504
  H 3.134916 1.460514 3.676010
  C 2.986892 -0.359479 -0.834864
  C 4.351905 -0.440572 -1.039820
  C 4.941111 -0.893285 -2.171268
  C 4.592358 -1.405429 -3.450974
  C 3.108175 -1.543675 -3.798575
  C 2.955088 -2.107096 -5.207508
  O 6.767389 -0.862923 -2.099379
  H 3.902427 1.448008 1.310568
  H 3.905199 -0.169639 1.963145
  H 1.817330 0.358043 3.300885
  H 1.814852 1.990600 2.642291
  H 2.234016 -0.643731 -1.540045
  H 5.000588 -0.118271 -0.237095
  H 5.093850 -2.380062 -3.556476
  H 5.094595 -0.772729 -4.199395
  H 2.616391 -0.570825 -3.763464
  H 2.615447 -2.223532 -3.102441
  H 3.415377 -1.452441 -5.942744
  H 1.902190 -2.206983 -5.458308
  H 3.414924 -3.088673 -5.288449
  H 7.008805 -0.514658 -1.227911
 26
 96.426795
  H 1.320566 0.198921 0.608523
  C 2.398233 0.178963 0.558226
  C 3.234959 0.637534 1.637717
  C 2.473218 1.147937 2.851420
  H 3.165813 1.473714 3.623159
  C 2.907741 -0.350680 -0.720204
  C 4.278532 -0.444672 -0.973338
  C 4.779644 -0.896813 -2.138743
  C 4.541872 -1.397204 -3.430246
  C 3.062351 -1.552679 -3.822068
  C 2.959788 -2.101833 -5.238611
  O 7.041375 -0.839149 -2.052702
  H 3.915425 1.419388 1.264147
  H 3.922308 -0.169686 1.935472
  H 1.841015 0.367816 3.271855
  H 1.839053 1.992370 2.587459
  H 2.139909 -0.629990 -1.410308
  H 4.966474 -0.129483 -0.198980
  H 5.064383 -2.359686 -3.525781
  H 5.064074 -0.752667 -4.150918
  H 2.560223 -0.585481 -3.782465
  H 2.566037 -2.245272 -3.141401
  H 3.425828 -1.430831 -5.956133
  H 1.915004 -2.216292 -5.513131
  H 3.438718 -3.074565 -5.319964
  H 7.227417 -0.485055 -1.175325
 26
 104.646801
  H 1.316304 0.271102 0.814471
  C 2.370883 0.191071 0.623856
  C 3.268097 0.660499 1.688942
  C 2.544307 1.184540 2.909958
  H 3.257794 1.517147 3.663028
  C 2.741870 -0.326306 -0.595636
  C 4.122649 -0.477523 -1.004754
  C 4.507560 -0.911765 -2.154894
  C 4.517561 -1.405356 -3.454811
  C 3.034897 -1.597057 -3.945197
  C 3.055238 -2.142447 -5.357406
  O 7.124618 -0.802920 -2.008097
  H 3.926910 1.440530 1.292220
  H 3.937941 -0.153615 1.983820
  H 1.917118 0.411902 3.351842
  H 1.903552 2.026287 2.651357
  H 1.999211 -0.620349 -1.300937
  H 4.865662 -0.178980 -0.266847
  H 5.061889 -2.365935 -3.506808
  H 5.047047 -0.709118 -4.128989
  H 2.520094 -0.631327 -3.923816
  H 2.521637 -2.298349 -3.280139
  H 3.550465 -1.458252 -6.042720
  H 2.028740 -2.275320 -5.693017
  H 3.555670 -3.107330 -5.405920
  H 7.347877 -0.478544 -1.132793
 26
 106.277836
  H 1.270856 0.328619 0.956325
  C 2.302076 0.230080 0.676040
  C 3.286714 0.667928 1.690341
  C 2.651590 1.186543 2.967844
  H 3.410630 1.490595 3.670800
  C 2.570077 -0.267623 -0.535093
  C 3.918966 -0.455719 -1.032796
  C 4.297601 -0.903654 -2.172890
  C 4.469994 -1.402368 -3.442663
  C 3.030232 -1.629479 -4.035621
  C 3.168875 -2.189077 -5.441004
  O 7.208963 -0.783614 -1.942716
  H 3.933858 1.448089 1.267333
  H 3.961890 -0.165597 1.936159
  H 2.046626 0.426231 3.433088
  H 2.019652 2.035534 2.766383
  H 1.770934 -0.563219 -1.216575
  H 4.698594 -0.170365 -0.318785
  H 5.016699 -2.353973 -3.442866
  H 5.019574 -0.703649 -4.087404
  H 2.500972 -0.683439 -4.057811
  H 2.494372 -2.331001 -3.405449
  H 3.696908 -1.500726 -6.096029
  H 2.171168 -2.348006 -5.847287
  H 3.691774 -3.141055 -5.442384
  H 7.504681 -0.450753 -1.091586
 26
 106.444733
  H 1.228091 0.268339 1.074563
  C 2.253763 0.177597 0.755239
  C 3.278491 0.682014 1.690226
  C 2.697560 1.260223 2.976027
  H 3.491146 1.610765 3.629741
  C 2.482047 -0.380037 -0.456927
  C 3.809284 -0.542607 -1.012288
  C 4.190853 -0.986647 -2.148933
  C 4.441112 -1.413519 -3.435948
  C 3.024861 -1.669709 -4.080866
  C 3.230660 -2.143203 -5.506209
  O 7.348654 -0.744272 -1.946078
  H 3.885452 1.449214 1.194449
  H 3.977394 -0.125799 1.943993
  H 2.120927 0.509927 3.514662
  H 2.037646 2.100215 2.762344
  H 1.666730 -0.697070 -1.084711
  H 4.618540 -0.222578 -0.346959
  H 5.023019 -2.340330 -3.467642
  H 4.971875 -0.661151 -4.027164
  H 2.453950 -0.744038 -4.070964
  H 2.500768 -2.428040 -3.505241
  H 3.738068 -1.394484 -6.105669
  H 2.255129 -2.330372 -5.948329
  H 3.802916 -3.064850 -5.542203
  H 7.740029 -0.410651 -1.135107
 26
 106.709180
  H 1.188969 0.298265 1.075962
  C 2.221386 0.213694 0.758554
  C 3.261085 0.685375 1.703255
  C 2.700983 1.229579 2.999164
  H 3.502345 1.555431 3.654920
  C 2.435700 -0.310393 -0.452285
  C 3.764306 -0.495810 -1.023949
  C 4.155068 -0.954343 -2.177288
  C 4.434116 -1.415496 -3.447633
  C 3.020374 -1.668015 -4.099308
  C 3.235822 -2.180198 -5.513770
  O 7.591595 -0.727176 -1.959292
  H 3.865544 1.459097 1.223563
  H 3.947378 -0.134882 1.928599
  H 2.123556 0.470173 3.520962
  H 2.048873 2.079555 2.812862
  H 1.599368 -0.618273 -1.057900
  H 4.593980 -0.191751 -0.380928
  H 4.999783 -2.350691 -3.445425
  H 4.975678 -0.682615 -4.051946
  H 2.461130 -0.734019 -4.116819
  H 2.480086 -2.405870 -3.508535
  H 3.761558 -1.452473 -6.126514
  H 2.261683 -2.364496 -5.963100
  H 3.795532 -3.111884 -5.520888
  H 8.038250 -0.395647 -1.177099
 26
 105.541013
  H 1.189878 0.337616 1.086967
  C 2.214622 0.237020 0.756047
  C 3.258563 0.671531 1.704704
  C 2.702892 1.199288 3.018068
  H 3.509841 1.501361 3.679609
  C 2.421861 -0.268802 -0.474994
  C 3.733204 -0.459627 -1.046950
  C 4.128531 -0.904285 -2.175814
  C 4.448856 -1.397710 -3.424198
  C 3.037141 -1.658655 -4.090736
  C 3.271463 -2.206794 -5.487686
  O 7.441086 -0.726692 -2.016327
  H 3.876680 1.448310 1.238455
  H 3.936053 -0.165765 1.912122
  H 2.115207 0.437537 3.525438
  H 2.061261 2.061396 2.850011
  H 1.589802 -0.558013 -1.097351
  H 4.570459 -0.172225 -0.401390
  H 5.003572 -2.339155 -3.380782
  H 4.999318 -0.676587 -4.035279
  H 2.482986 -0.723307 -4.141773
  H 2.483498 -2.379758 -3.492347
  H 3.812763 -1.498366 -6.108280
  H 2.304152 -2.395032 -5.948625
  H 3.823948 -3.141724 -5.461830
  H 8.046516 -0.424424 -1.331899
