 19
 0.000000
  C 0.912617 0.044927 0.339485
  C 2.362348 0.065896 -0.032123
  H 3.024370 0.017495 0.825702
  C 2.968073 0.133422 -1.228815
  C 2.350137 0.211006 -2.603784
  C 0.832215 0.218025 -2.728143
  H 0.568421 0.277567 -3.783343
  C 4.431967 0.132896 -1.219437
  C 5.242732 0.192050 -2.267866
  H 6.311789 0.184702 -2.137625
  H 0.818339 -0.016114 1.421221
  H 0.400692 -0.812283 -0.092722
  H 0.400694 0.945318 0.006457
  H 2.737367 -0.636159 -3.179577
  H 2.737370 1.117569 -3.080619
  H 0.395628 1.075310 -2.225723
  H 0.395623 -0.690335 -2.325353
  H 4.874350 0.077185 -0.232085
  H 4.894341 0.249382 -3.283935
 19
 13.682801
  C 0.770558 0.041026 0.408619
  C 2.389986 0.063739 0.006106
  H 3.042074 0.015378 0.863201
  C 3.021922 0.136084 -1.275982
  C 2.379060 0.212739 -2.634490
  C 0.859663 0.217599 -2.720572
  H 0.565245 0.276680 -3.767616
  C 4.479103 0.135105 -1.258603
  C 5.294050 0.194477 -2.310875
  H 6.363210 0.187149 -2.180971
  H 0.692963 -0.019903 1.488360
  H 0.279410 -0.818508 -0.031488
  H 0.279411 0.944615 0.068003
  H 2.754458 -0.634731 -3.218354
  H 2.754460 1.120511 -3.119312
  H 0.437944 1.074118 -2.205056
  H 0.437940 -0.691475 -2.304680
  H 4.921383 0.079373 -0.270860
  H 4.945689 0.251836 -3.327441
 19
 40.209334
  C 0.593059 0.038982 0.444826
  C 2.449352 0.064352 -0.004718
  H 3.040075 0.015044 0.869112
  C 3.066363 0.138295 -1.315121
  C 2.399208 0.213481 -2.647486
  C 0.880571 0.215519 -2.683499
  H 0.545864 0.273765 -3.715655
  C 4.526287 0.136595 -1.285022
  C 5.336834 0.196070 -2.339101
  H 6.406616 0.189155 -2.216562
  H 0.609876 -0.021337 1.513708
  H 0.184255 -0.834391 -0.020612
  H 0.184247 0.959185 0.080596
  H 2.761850 -0.631503 -3.239287
  H 2.761860 1.119675 -3.140477
  H 0.482258 1.069648 -2.149451
  H 0.482204 -0.693354 -2.248876
  H 4.971789 0.080940 -0.298712
  H 4.980649 0.253277 -3.352909
 19
 69.684352
  C 0.384299 0.036330 0.491464
  C 2.536130 0.067631 -0.062896
  H 3.106131 0.015935 0.853758
  C 3.116977 0.139285 -1.332982
  C 2.425689 0.214137 -2.659766
  C 0.912020 0.213255 -2.643991
  H 0.537917 0.270743 -3.661057
  C 4.589213 0.138163 -1.312793
  C 5.387595 0.198043 -2.374030
  H 6.460332 0.191743 -2.261979
  H 0.481065 -0.023942 1.560098
  H 0.021134 -0.854455 0.003997
  H 0.021110 0.976269 0.107251
  H 2.770402 -0.628544 -3.254270
  H 2.770377 1.118308 -3.155703
  H 0.534130 1.069103 -2.085867
  H 0.534080 -0.699796 -2.185622
  H 5.040710 0.083192 -0.338188
  H 5.018681 0.255014 -3.383861
 19
 92.842748
  C 0.186085 0.032927 0.552052
  C 2.612843 0.068943 -0.085994
  H 3.126539 0.016711 0.839693
  C 3.184622 0.139182 -1.330763
  C 2.484791 0.214472 -2.664965
  C 0.948721 0.211470 -2.611396
  H 0.543532 0.268541 -3.623350
  C 4.639203 0.139852 -1.342739
  C 5.405624 0.200923 -2.425127
  H 6.476785 0.196349 -2.343945
  H 0.334463 -0.026725 1.609268
  H -0.137845 -0.848017 0.060221
  H -0.137857 0.963614 0.162436
  H 2.826959 -0.644038 -3.270403
  H 2.826958 1.135576 -3.169953
  H 0.584397 1.060795 -2.046976
  H 0.584367 -0.696045 -2.146077
  H 5.114697 0.084633 -0.364075
  H 5.008703 0.257423 -3.426259
 19
 108.794105
  C -0.036671 0.030866 0.588558
  C 2.674961 0.071845 -0.137172
  H 3.140030 0.017092 0.832878
  C 3.232406 0.140137 -1.347284
  C 2.513117 0.213916 -2.654650
  C 0.994402 0.207648 -2.543070
  H 0.548563 0.263936 -3.540594
  C 4.715682 0.142409 -1.387979
  C 5.464274 0.204050 -2.480546
  H 6.541569 0.200398 -2.415645
  H 0.184780 -0.027578 1.624034
  H -0.316407 -0.863209 0.077377
  H -0.316431 0.976812 0.181217
  H 2.835645 -0.638194 -3.265439
  H 2.835631 1.129139 -3.165596
  H 0.649089 1.071705 -1.951266
  H 0.648929 -0.717801 -2.052036
  H 5.195974 0.088544 -0.433475
  H 5.049405 0.260584 -3.481867
 19
 118.470406
  C -0.230217 0.025798 0.677927
  C 2.731767 0.073014 -0.157761
  H 3.140612 0.018150 0.814424
  C 3.291337 0.140609 -1.355599
  C 2.557542 0.214674 -2.668414
  C 1.032401 0.207171 -2.535078
  H 0.575164 0.262116 -3.509136
  C 4.763163 0.144250 -1.420460
  C 5.491179 0.206691 -2.527537
  H 6.565743 0.204131 -2.482236
  H 0.059490 -0.032648 1.713638
  H -0.487821 -0.875557 0.151546
  H -0.487862 0.980672 0.256297
  H 2.872708 -0.632966 -3.279786
  H 2.872696 1.125571 -3.180520
  H 0.700080 1.053646 -1.947648
  H 0.700019 -0.700071 -2.046488
  H 5.260064 0.089625 -0.452533
  H 5.062619 0.262115 -3.509755
 19
 124.007868
  C -0.431312 0.021603 0.752457
  C 2.773906 0.074713 -0.188239
  H 3.123140 0.017738 0.821413
  C 3.344280 0.141855 -1.378221
  C 2.592363 0.214897 -2.672736
  C 1.078929 0.205107 -2.498439
  H 0.590942 0.259462 -3.462407
  C 4.817833 0.146388 -1.458874
  C 5.531370 0.209429 -2.576067
  H 6.606469 0.207681 -2.544367
  H -0.080524 -0.035029 1.756028
  H -0.657728 -0.873626 0.217737
  H -0.657743 0.971328 0.321846
  H 2.895173 -0.636077 -3.293566
  H 2.895182 1.130173 -3.193875
  H 0.762422 1.049993 -1.899592
  H 0.762367 -0.701826 -1.998351
  H 5.323171 0.092381 -0.501498
  H 5.089602 0.264699 -3.554637
 19
 127.128231
  C -0.626948 0.016285 0.846514
  C 2.821465 0.076471 -0.219125
  H 3.112172 0.018720 0.804624
  C 3.397124 0.142915 -1.396985
  C 2.626009 0.215779 -2.688645
  C 1.115993 0.204209 -2.482659
  H 0.605897 0.257995 -3.436855
  C 4.871287 0.148220 -1.491139
  C 5.573747 0.211542 -2.613606
  H 6.651556 0.210339 -2.592010
  H -0.216934 -0.039350 1.832822
  H -0.836717 -0.874993 0.304332
  H -0.836727 0.962822 0.408053
  H 2.917918 -0.635009 -3.312707
  H 2.917935 1.131250 -3.213048
  H 0.809809 1.051638 -1.873886
  H 0.809830 -0.706145 -1.973093
  H 5.382247 0.094597 -0.540432
  H 5.123165 0.266410 -3.586001
 19
 128.529225
  C -0.816762 0.009346 0.969011
  C 2.861250 0.078169 -0.249433
  H 3.104550 0.020010 0.781777
  C 3.443578 0.144101 -1.418425
  C 2.664445 0.216959 -2.709926
  C 1.152811 0.204552 -2.488624
  H 0.633648 0.257917 -3.435270
  C 4.915310 0.149758 -1.518841
  C 5.612034 0.213340 -2.645502
  H 6.692517 0.212547 -2.630068
  H -0.355409 -0.044657 1.926408
  H -1.028712 -0.887855 0.425833
  H -1.028746 0.961973 0.530135
  H 2.950521 -0.633049 -3.335445
  H 2.950537 1.131709 -3.235849
  H 0.852295 1.050403 -1.878011
  H 0.852309 -0.704332 -1.977049
  H 5.428235 0.096272 -0.570049
  H 5.155127 0.268068 -3.614462
 19
 129.287082
  C -1.009908 0.000729 1.123170
  C 2.887661 0.080694 -0.296325
  H 3.087489 0.021526 0.752331
  C 3.475210 0.145630 -1.447910
  C 2.700660 0.218578 -2.739877
  C 1.191277 0.206261 -2.519171
  H 0.669845 0.260006 -3.471524
  C 4.958352 0.151018 -1.545142
  C 5.659014 0.214299 -2.664452
  H 6.725308 0.213635 -2.642498
  H -0.481880 -0.051802 2.053531
  H -1.234657 -0.893850 0.589776
  H -1.234622 0.949910 0.693631
  H 2.985878 -0.628786 -3.363484
  H 2.986286 1.131178 -3.264617
  H 0.891549 1.050060 -1.911038
  H 0.891091 -0.701204 -2.009289
  H 5.468394 0.096961 -0.584331
  H 5.199810 0.270501 -3.650652
 19
 129.393248
  C -1.187830 -0.009104 1.307476
  C 2.900323 0.083240 -0.335912
  H 3.076883 0.024157 0.712551
  C 3.501165 0.147808 -1.482995
  C 2.734816 0.221131 -2.784251
  C 1.227104 0.209525 -2.572580
  H 0.710389 0.263495 -3.530304
  C 4.980587 0.152347 -1.566483
  C 5.690942 0.215172 -2.681218
  H 6.769786 0.214085 -2.651688
  H -0.614579 -0.059368 2.200348
  H -1.442197 -0.907107 0.785734
  H -1.441152 0.938768 0.891304
  H 3.027212 -0.635333 -3.411549
  H 3.026815 1.140538 -3.310183
  H 0.920578 1.065370 -1.957716
  H 0.920715 -0.708827 -2.058307
  H 5.488006 0.097954 -0.597784
  H 5.255858 0.269598 -3.638065
 19
 129.377166
  C -1.362045 -0.021049 1.506295
  C 2.903047 0.084899 -0.369614
  H 3.083529 0.025881 0.676878
  C 3.520112 0.149532 -1.515822
  C 2.771720 0.223336 -2.825624
  C 1.261255 0.212725 -2.634467
  H 0.757903 0.266962 -3.597384
  C 4.996613 0.153053 -1.578597
  C 5.721158 0.215496 -2.685947
  H 6.799177 0.213514 -2.642558
  H -0.748753 -0.070160 2.377560
  H -1.646309 -0.917531 1.002728
  H -1.646510 0.926881 1.106467
  H 3.070006 -0.627838 -3.445463
  H 3.069782 1.138429 -3.345465
  H 0.949451 1.062387 -2.028170
  H 0.949653 -0.698866 -2.128108
  H 5.488619 0.098762 -0.612388
  H 5.289594 0.271177 -3.668124
 19
 129.695609
  C -1.536019 -0.026153 1.713834
  C 2.910632 0.090094 -0.422733
  H 3.091746 0.031125 0.628784
  C 3.532099 0.152712 -1.551026
  C 2.795366 0.226663 -2.866287
  C 1.281532 0.217916 -2.683670
  H 0.785162 0.272643 -3.646799
  C 5.014906 0.154170 -1.598908
  C 5.748671 0.215161 -2.696193
  H 6.831923 0.212835 -2.641230
  H -0.878068 -0.072610 2.551705
  H -1.852101 -0.937829 1.219884
  H -1.840200 0.904611 1.338014
  H 3.099063 -0.630553 -3.487363
  H 3.097954 1.140386 -3.383515
  H 0.968057 1.067538 -2.080364
  H 0.963453 -0.700326 -2.174533
  H 5.507866 0.099030 -0.609585
  H 5.329342 0.271621 -3.679730
