 20
 0.000000
  C 1.007186 -0.070872 0.048926
  C 2.503371 -0.082274 0.026544
  C 3.218155 -0.595383 -0.980778
  C 4.655999 -0.606876 -1.003339
  C 5.375033 -1.122569 -2.015727
  C 6.814266 -1.131275 -2.032817
  C 7.535883 -1.642046 -3.035552
  C 9.026504 -1.661017 -3.072787
  H 0.645705 0.395508 0.964503
  H 0.611303 -1.085630 0.010487
  H 0.611304 0.494671 -0.794500
  H 3.004499 0.353016 0.881094
  H 2.705995 -1.028630 -1.831303
  H 5.161706 -0.172243 -0.150084
  H 4.870713 -1.557450 -2.869474
  H 7.318710 -0.696213 -1.178717
  H 7.038991 -2.078803 -3.892963
  H 9.464638 -1.208324 -2.184083
  H 9.384720 -1.115484 -3.947223
  H 9.384719 -2.689085 -3.145658
 20
 0.363730
  C 1.006902 -0.047543 0.046948
  C 2.500406 -0.122290 0.049888
  C 3.221689 -0.623414 -0.956035
  C 4.655243 -0.689711 -0.961255
  C 5.381335 -1.192130 -1.976124
  C 6.815936 -1.216897 -2.000003
  C 7.536604 -1.635857 -3.044179
  C 9.025821 -1.624490 -3.101341
  H 0.633701 0.348565 0.987737
  H 0.574602 -1.032786 -0.110386
  H 0.659415 0.595674 -0.758728
  H 3.003162 0.260724 0.927305
  H 2.717039 -1.007304 -1.834498
  H 5.160347 -0.308253 -0.082080
  H 4.877492 -1.578600 -2.851631
  H 7.318493 -0.843406 -1.118091
  H 7.031598 -2.009663 -3.922677
  H 9.436005 -0.873563 -2.427921
  H 9.368795 -1.415303 -4.114802
  H 9.425564 -2.598458 -2.809914
 20
 1.098803
  C 1.020336 -0.003868 0.043393
  C 2.510194 -0.120655 0.050831
  C 3.223094 -0.622646 -0.961396
  C 4.654964 -0.722920 -0.962738
  C 5.372050 -1.228605 -1.981995
  C 6.806151 -1.272628 -2.002490
  C 7.526285 -1.613936 -3.074692
  C 9.019227 -1.565399 -3.118457
  H 0.644343 0.280106 1.022537
  H 0.560288 -0.947421 -0.247993
  H 0.701555 0.751013 -0.676716
  H 3.022225 0.235603 0.934811
  H 2.712982 -0.980367 -1.847611
  H 5.165577 -0.370615 -0.075003
  H 4.861658 -1.586567 -2.867501
  H 7.312175 -0.963209 -1.096006
  H 7.020069 -1.920345 -3.980342
  H 9.367291 -0.603783 -2.743177
  H 9.386955 -1.701859 -4.131581
  H 9.451617 -2.343377 -2.488299
 20
 2.990502
  C 1.078101 0.105609 0.009518
  C 2.557905 -0.099540 0.033121
  C 3.244764 -0.688906 -0.949395
  C 4.668731 -0.873583 -0.935512
  C 5.356771 -1.480166 -1.919176
  C 6.790125 -1.539306 -1.946998
  C 7.499342 -1.677581 -3.069574
  C 8.959135 -1.373696 -3.148377
  H 0.703409 0.368781 0.995147
  H 0.567446 -0.793423 -0.332647
  H 0.818277 0.911993 -0.678320
  H 3.084193 0.262275 0.906483
  H 2.718732 -1.052937 -1.823667
  H 5.192359 -0.525045 -0.054082
  H 4.831298 -1.830571 -2.798835
  H 7.302247 -1.314173 -1.019196
  H 6.990561 -1.891248 -4.000034
  H 9.059862 -0.294939 -3.021015
  H 9.382452 -1.658295 -4.106803
  H 9.516794 -1.858877 -2.349298
 20
 10.270198
  C 1.192016 0.225250 -0.066829
  C 2.650591 -0.089880 -0.000955
  C 3.320331 -0.720686 -0.968235
  C 4.726711 -1.017126 -0.912421
  C 5.361277 -1.789540 -1.808728
  C 6.795984 -1.867147 -1.866746
  C 7.460127 -1.796654 -3.027774
  C 8.783978 -1.123485 -3.159586
  H 0.809977 0.507284 0.907223
  H 0.623057 -0.634490 -0.434825
  H 1.014232 1.055390 -0.752858
  H 3.174750 0.230544 0.887436
  H 2.796455 -1.021697 -1.871072
  H 5.250372 -0.685922 -0.028022
  H 4.807350 -2.153831 -2.668389
  H 7.329546 -1.670674 -0.943023
  H 6.928129 -1.992068 -3.946265
  H 8.539106 -0.064642 -3.062287
  H 9.247140 -1.297732 -4.123525
  H 9.475118 -1.391704 -2.355930
 20
 23.878659
  C 1.321077 0.271574 -0.097097
  C 2.769205 -0.092613 -0.037951
  C 3.430418 -0.673821 -1.041053
  C 4.820748 -1.044902 -0.981399
  C 5.372751 -1.965806 -1.795228
  C 6.797860 -2.124146 -1.819106
  C 7.460564 -1.961060 -2.979833
  C 8.544158 -0.950547 -3.104946
  H 0.969139 0.625959 0.866156
  H 0.717169 -0.583995 -0.396908
  H 1.155653 1.064815 -0.833341
  H 3.294188 0.150168 0.879493
  H 2.903712 -0.908897 -1.957974
  H 5.333834 -0.767221 -0.068276
  H 4.810320 -2.296880 -2.659907
  H 7.311690 -1.822641 -0.913127
  H 6.953787 -2.226714 -3.900063
  H 7.954404 -0.025945 -3.000854
  H 9.042816 -0.960007 -4.069058
  H 9.263743 -0.975364 -2.290043
 20
 39.373736
  C 1.526948 0.412444 -0.249088
  C 2.948798 -0.033916 -0.143958
  C 3.536834 -0.851419 -1.016387
  C 4.920417 -1.244573 -0.949639
  C 5.419782 -2.236505 -1.712237
  C 6.851218 -2.357726 -1.823620
  C 7.386944 -1.931855 -2.992593
  C 8.177716 -0.666703 -2.999409
  H 1.185905 0.849948 0.689599
  H 0.880307 -0.425355 -0.502102
  H 1.415806 1.161983 -1.036375
  H 3.518938 0.354617 0.691787
  H 2.981752 -1.210078 -1.876291
  H 5.440195 -0.952236 -0.046714
  H 4.827949 -2.598498 -2.546686
  H 7.421275 -2.212519 -0.918140
  H 6.857655 -2.169751 -3.916894
  H 7.366899 0.015746 -2.643176
  H 8.531389 -0.354206 -3.977729
  H 8.967381 -0.628587 -2.250320
 20
 61.784692
  C 1.692198 0.457635 -0.327691
  C 3.098463 -0.033709 -0.210252
  C 3.712517 -0.760787 -1.146808
  C 5.082671 -1.222406 -1.049808
  C 5.503656 -2.337465 -1.710352
  C 6.936264 -2.486938 -1.724978
  C 7.402588 -2.013837 -2.932389
  C 7.767728 -0.583304 -2.899602
  H 1.342196 0.861496 0.617533
  H 1.021122 -0.347046 -0.633402
  H 1.626672 1.243284 -1.077996
  H 3.628517 0.225193 0.694651
  H 3.165581 -1.062368 -2.029133
  H 5.561710 -0.975766 -0.113325
  H 4.944294 -2.667079 -2.574839
  H 7.446177 -2.103094 -0.846407
  H 6.959158 -2.384188 -3.846923
  H 6.761581 -0.193196 -2.434630
  H 7.932314 -0.111347 -3.856201
  H 8.487253 -0.275737 -2.143906
 20
 83.026144
  C 1.841582 0.516308 -0.453761
  C 3.251722 0.032016 -0.323383
  C 3.827329 -0.810310 -1.175332
  C 5.218013 -1.254182 -1.083676
  C 5.606454 -2.472066 -1.709644
  C 7.001348 -2.519668 -1.792092
  C 7.350437 -1.875485 -2.996465
  C 7.482649 -0.506220 -2.755723
  H 1.515786 1.014903 0.455053
  H 1.165368 -0.311695 -0.660646
  H 1.757076 1.224646 -1.278911
  H 3.819232 0.414810 0.514401
  H 3.261285 -1.192010 -2.015969
  H 5.702686 -1.000407 -0.144936
  H 5.013812 -2.824738 -2.544237
  H 7.542063 -2.189991 -0.907953
  H 6.915655 -2.210226 -3.928448
  H 6.080222 -0.405989 -1.980619
  H 7.505713 0.161621 -3.603090
  H 8.069556 -0.168087 -1.913497
 20
 74.923431
  C 1.719932 0.484596 -0.404804
  C 3.171686 0.080804 -0.300312
  C 3.812141 -0.680173 -1.174487
  C 5.217532 -1.089567 -1.075328
  C 5.617699 -2.359941 -1.724633
  C 7.006312 -2.465490 -1.797397
  C 7.415816 -1.901968 -3.041497
  C 7.662722 -0.580549 -2.883060
  H 1.356015 0.887354 0.521755
  H 1.118628 -0.372517 -0.695162
  H 1.570388 1.256882 -1.195595
  H 3.685665 0.420359 0.578461
  H 3.284109 -1.074119 -2.044402
  H 5.676185 -0.882151 -0.085914
  H 5.023000 -2.687772 -2.542056
  H 7.565296 -2.133537 -0.934929
  H 6.956015 -2.262822 -3.984965
  H 5.886045 -0.411810 -1.815681
  H 7.736301 0.080631 -3.742768
  H 8.233754 -0.238431 -2.002927
 20
 59.737322
  C 1.596179 0.416580 -0.316958
  C 3.056753 0.092294 -0.243457
  C 3.714011 -0.591363 -1.166179
  C 5.154151 -0.923214 -1.106097
  C 5.585829 -2.178421 -1.768450
  C 6.938327 -2.357860 -1.802235
  C 7.499350 -1.932236 -3.068950
  C 7.950108 -0.675690 -3.009538
  H 1.217580 0.762330 0.647547
  H 1.025762 -0.452303 -0.627599
  H 1.416594 1.198522 -1.052176
  H 3.569249 0.416603 0.650299
  H 3.190323 -0.953290 -2.046050
  H 5.585834 -0.753568 -0.111834
  H 4.999422 -2.506279 -2.612038
  H 7.495873 -2.058104 -0.919297
  H 7.094705 -2.331113 -3.988895
  H 5.747750 -0.222961 -1.791247
  H 8.185112 -0.125507 -3.908769
  H 8.408178 -0.287968 -2.116299
 20
 46.597428
  C 1.450667 0.349732 -0.245965
  C 2.930265 0.106683 -0.177895
  C 3.622872 -0.488407 -1.129465
  C 5.092864 -0.758267 -1.077182
  C 5.582199 -1.968776 -1.810484
  C 6.913302 -2.197167 -1.799657
  C 7.583295 -1.988669 -3.083660
  C 8.205356 -0.812533 -3.171469
  H 1.047250 0.574542 0.739648
  H 0.938618 -0.514464 -0.654104
  H 1.231331 1.196263 -0.897260
  H 3.424808 0.395739 0.739795
  H 3.117572 -0.841934 -2.028591
  H 5.495361 -0.667989 -0.081739
  H 5.009251 -2.269545 -2.689672
  H 7.462999 -1.883226 -0.924635
  H 7.166451 -2.468632 -3.965179
  H 5.649315 -0.010550 -1.682000
  H 8.516743 -0.395494 -4.121065
  H 8.643914 -0.354597 -2.303157
 20
 32.798503
  C 1.309064 0.233137 -0.195251
  C 2.796360 0.063158 -0.109948
  C 3.552414 -0.361781 -1.108486
  C 5.035245 -0.523744 -1.040689
  C 5.586240 -1.663533 -1.835151
  C 6.893156 -1.941934 -1.822490
  C 7.610903 -2.026651 -3.084212
  C 8.451409 -1.038620 -3.336219
  H 0.869549 0.309380 0.794649
  H 0.853528 -0.599445 -0.723426
  H 1.063687 1.143774 -0.743384
  H 3.244621 0.234494 0.861905
  H 3.096835 -0.614079 -2.066008
  H 5.392157 -0.521238 -0.009054
  H 5.005537 -1.962040 -2.697573
  H 7.478710 -1.644921 -0.955471
  H 7.180523 -2.616411 -3.878143
  H 5.512148 0.316052 -1.576182
  H 8.861855 -0.855263 -4.313340
  H 8.886124 -0.465501 -2.532728
 20
 24.815360
  C 1.228482 0.165674 -0.130485
  C 2.726488 0.045287 -0.070561
  C 3.489447 -0.303726 -1.097431
  C 4.979764 -0.416431 -1.049937
  C 5.553116 -1.472846 -1.935863
  C 6.843702 -1.795141 -1.895601
  C 7.591647 -1.984800 -3.119955
  C 8.614760 -1.165870 -3.333886
  H 0.803801 0.228197 0.868408
  H 0.789365 -0.686027 -0.642848
  H 0.940856 1.065665 -0.679400
  H 3.182374 0.233279 0.891698
  H 3.033973 -0.521982 -2.060124
  H 5.336822 -0.496382 -0.022638
  H 4.979710 -1.719167 -2.820996
  H 7.423587 -1.520590 -1.025497
  H 7.120985 -2.531619 -3.926822
  H 5.435828 0.483997 -1.472243
  H 9.112598 -1.072071 -4.282431
  H 9.063675 -0.624255 -2.514153
 20
 20.976252
  C 1.192608 0.056534 -0.073365
  C 2.690202 0.008410 -0.029639
  C 3.454790 -0.216172 -1.087370
  C 4.948055 -0.256731 -1.060854
  C 5.566526 -1.203990 -2.031331
  C 6.775740 -1.727325 -1.882672
  C 7.563123 -2.087028 -3.062926
  C 8.617550 -1.334776 -3.335312
  H 0.781467 0.247983 0.913763
  H 0.790835 -0.887111 -0.440597
  H 0.848694 0.842706 -0.745008
  H 3.148995 0.188401 0.933807
  H 2.998312 -0.406499 -2.050687
  H 5.321548 -0.413711 -0.047661
  H 5.076628 -1.266974 -2.995709
  H 7.300922 -1.637285 -0.940780
  H 7.146383 -2.780159 -3.779811
  H 5.360086 0.703147 -1.422547
  H 9.174963 -1.409916 -4.253705
  H 8.983126 -0.624548 -2.611402
