 13
 0.000000
  H 3.397749 -0.344449 -0.806963
  C 4.452396 -0.411652 -0.974602
  C 5.123831 -0.863395 -2.100714
  C 4.621920 -1.386396 -3.404454
  C 3.129954 -1.502980 -3.695876
  H 2.969462 -1.896832 -4.677723
  O 6.448567 -0.861790 -2.097024
  H 5.073532 -0.080521 -0.149771
  H 5.075895 -2.376004 -3.531813
  H 5.076265 -0.759449 -4.180462
  H 2.655656 -0.522022 -3.641480
  H 2.655252 -2.174151 -2.978669
  H 6.820588 -0.526463 -1.260938
 13
 0.000000
  H 3.530717 -0.343484 -0.804545
  C 4.524763 -0.433943 -1.030181
  C 5.110465 -0.863845 -2.101851
  C 4.613949 -1.387561 -3.407369
  C 3.123198 -1.506280 -3.704101
  H 2.966768 -1.900359 -4.686512
  O 6.346496 -0.842225 -2.048252
  H 5.192206 -0.115548 -0.237100
  H 5.069790 -2.376518 -3.533107
  H 5.070156 -0.759963 -4.181756
  H 2.647306 -0.526002 -3.651397
  H 2.646907 -2.178132 -2.988587
  H 6.658346 -0.472243 -1.125730
 13
 0.000000
  H 3.656469 -0.344168 -0.806250
  C 4.595698 -0.455100 -1.082931
  C 5.103171 -0.864336 -2.103086
  C 4.609509 -1.388427 -3.409535
  C 3.119410 -1.508276 -3.709072
  H 2.965127 -1.902472 -4.691776
  O 6.251752 -0.826647 -2.009418
  H 5.306802 -0.150092 -0.323222
  H 5.066337 -2.377037 -3.534416
  H 5.066697 -0.760482 -4.183063
  H 2.642676 -0.528359 -3.657264
  H 2.642283 -2.180489 -2.994455
  H 6.488569 -0.420141 -0.995802
 13
 0.000000
  H 3.772975 -0.345702 -0.810077
  C 4.665653 -0.474434 -1.131136
  C 5.103022 -0.865081 -2.104956
  C 4.609091 -1.389138 -3.411318
  C 3.118930 -1.508886 -3.710588
  H 2.964445 -1.903071 -4.693264
  O 6.164428 -0.815376 -1.981320
  H 5.416757 -0.183022 -0.405324
  H 5.065829 -2.377780 -3.536280
  H 5.066183 -0.761224 -4.184927
  H 2.642272 -0.528937 -3.658694
  H 2.641885 -2.181067 -2.995886
  H 6.308552 -0.371724 -0.875058
 13
 0.000000
  H 3.877890 -0.346871 -0.812994
  C 4.734945 -0.490900 -1.172190
  C 5.111083 -0.866414 -2.108292
  C 4.613091 -1.389939 -3.413324
  C 3.122006 -1.508090 -3.708599
  H 2.964465 -1.902109 -4.690857
  O 6.084332 -0.808925 -1.965236
  H 5.521383 -0.212712 -0.479349
  H 5.068434 -2.379069 -3.539510
  H 5.068780 -0.762513 -4.188156
  H 2.646539 -0.527631 -3.655428
  H 2.646159 -2.179761 -2.992620
  H 6.116454 -0.328885 -0.768214
 13
 0.000000
  H 3.968266 -0.346069 -0.810997
  C 4.803687 -0.502909 -1.202140
  C 5.128422 -0.868881 -2.114456
  C 4.621731 -1.391250 -3.416600
  C 3.128704 -1.505966 -3.703295
  H 2.964611 -1.899614 -4.684629
  O 6.011251 -0.808101 -1.963180
  H 5.619688 -0.236789 -0.539387
  H 5.074061 -2.381425 -3.545395
  H 5.074400 -0.764870 -4.194044
  H 2.655808 -0.524415 -3.647399
  H 2.655436 -2.176545 -2.984588
  H 5.912135 -0.293618 -0.680246
 13
 0.000000
  H 4.029926 -0.341926 -0.800669
  C 4.862136 -0.507391 -1.213321
  C 5.152309 -0.872696 -2.123978
  C 4.633375 -1.393398 -3.421962
  C 3.137707 -1.503257 -3.696535
  H 2.964379 -1.896357 -4.676500
  O 5.955638 -0.813028 -1.975456
  H 5.697467 -0.249720 -0.571639
  H 5.081426 -2.385037 -3.554409
  H 5.081757 -0.768483 -4.203061
  H 2.668473 -0.520175 -3.636817
  H 2.668107 -2.172303 -2.974003
  H 5.731265 -0.270549 -0.622695
 13
 0.000000
  H 4.067079 -0.334390 -0.781881
  C 4.910901 -0.504731 -1.206699
  C 5.180025 -0.878021 -2.137262
  C 4.646222 -1.396639 -3.430044
  C 3.147485 -1.500564 -3.689813
  H 2.962920 -1.892955 -4.668010
  O 5.914945 -0.822290 -1.998539
  H 5.757076 -0.252013 -0.577368
  H 5.089008 -2.390043 -3.566895
  H 5.089332 -0.773491 -4.215551
  H 2.682764 -0.515631 -3.625477
  H 2.682404 -2.167757 -2.962659
  H 5.577730 -0.255924 -0.586204
 13
 0.000000
  H 4.083752 -0.323194 -0.753970
  C 4.951988 -0.494906 -1.182215
  C 5.210779 -0.885387 -2.155633
  C 4.659279 -1.401435 -3.442002
  C 3.157097 -1.498249 -3.684034
  H 2.959123 -1.889735 -4.659973
  O 5.886622 -0.835482 -2.031418
  H 5.802149 -0.244050 -0.557528
  H 5.095703 -2.396924 -3.584051
  H 5.096022 -0.780373 -4.232712
  H 2.697841 -0.511125 -3.614237
  H 2.697486 -2.163249 -2.951413
  H 5.447646 -0.245526 -0.560260
 13
 0.000000
  H 4.079631 -0.307193 -0.714080
  C 4.985622 -0.476575 -1.136523
  C 5.244639 -0.895852 -2.181727
  C 4.671663 -1.408651 -3.459990
  C 3.165606 -1.496764 -3.680326
  H 2.951314 -1.887061 -4.653294
  O 5.872003 -0.853215 -2.075616
  H 5.833401 -0.224602 -0.509053
  H 5.100230 -2.406642 -3.608278
  H 5.100543 -0.790094 -4.256945
  H 2.713120 -0.507003 -3.603952
  H 2.712769 -2.159124 -2.941121
  H 5.341089 -0.235219 -0.534558
 13
 0.000000
  H 4.052299 -0.284846 -0.658371
  C 5.008626 -0.448133 -1.065626
  C 5.280207 -0.910316 -2.217786
  C 4.681710 -1.419061 -3.485938
  C 3.171496 -1.496731 -3.680235
  H 2.937740 -1.885478 -4.649336
  O 5.876772 -0.875828 -2.131984
  H 5.847994 -0.192283 -0.428491
  H 5.100732 -2.419988 -3.641543
  H 5.101040 -0.803443 -4.290217
  H 2.727260 -0.503865 -3.596120
  H 2.726913 -2.155983 -2.933281
  H 5.265910 -0.220165 -0.497033
 13
 0.000000
  H 4.010660 -0.258398 -0.592445
  C 5.016276 -0.413512 -0.979321
  C 5.310367 -0.925817 -2.256426
  C 4.686979 -1.430404 -3.514208
  C 3.173188 -1.497778 -3.682837
  H 2.920374 -1.884871 -4.647810
  O 5.900209 -0.898827 -2.189313
  H 5.844410 -0.152633 -0.329647
  H 5.096476 -2.434152 -3.676845
  H 5.096780 -0.817610 -4.325526
  H 2.737214 -0.501915 -3.591252
  H 2.736869 -2.154029 -2.928405
  H 5.224990 -0.198287 -0.442508
 13
 0.000000
  H 3.968089 -0.230426 -0.522722
  C 5.012501 -0.376208 -0.886326
  C 5.333185 -0.939569 -2.290703
  C 4.687577 -1.440271 -3.538795
  C 3.171001 -1.498361 -3.684281
  H 2.901110 -1.883854 -4.645263
  O 5.930586 -0.919250 -2.240224
  H 5.829195 -0.110372 -0.224296
  H 5.088385 -2.446502 -3.707620
  H 5.088686 -0.829963 -4.356309
  H 2.742585 -0.499848 -3.586095
  H 2.742241 -2.151960 -2.923240
  H 5.192810 -0.171762 -0.376410
 13
 0.000000
  H 3.925399 -0.200915 -0.449169
  C 4.998952 -0.336492 -0.787316
  C 5.348884 -0.950640 -2.318295
  C 4.683450 -1.447733 -3.557386
  C 3.164719 -1.497462 -3.682032
  H 2.879539 -1.881428 -4.639203
  O 5.962583 -0.936611 -2.283499
  H 5.804171 -0.065843 -0.113288
  H 5.076353 -2.456151 -3.731660
  H 5.076652 -0.839615 -4.380355
  H 2.743199 -0.496608 -3.578011
  H 2.742856 -2.148716 -2.915149
  H 5.157218 -0.141448 -0.300874
