 18
 0.000000
  C 0.876132 0.044606 0.347835
  C 2.355363 0.062027 0.074408
  C 3.255803 -0.007711 1.285864
  H 2.688387 -0.059826 2.209788
  C 2.924315 0.128677 -1.124390
  C 2.380131 0.206441 -2.516207
  C 0.874321 0.219208 -2.733047
  H 0.670303 0.278447 -3.799512
  H 4.009547 0.129616 -1.141778
  H 0.683734 -0.009798 1.416842
  H 0.402871 -0.817684 -0.114897
  H 0.395201 0.946839 -0.024938
  H 3.903273 0.867873 1.330761
  H 3.901699 -0.883845 1.230972
  H 2.799746 -0.639829 -3.071763
  H 2.800470 1.108681 -2.974655
  H 0.413531 1.078393 -2.254418
  H 0.412599 -0.687019 -2.352227
 18
 5.680695
  C 0.885485 0.066748 0.381569
  C 2.323597 0.057641 0.103311
  C 3.254873 0.002706 1.297578
  H 2.698410 -0.076361 2.227129
  C 2.901677 0.107838 -1.105785
  C 2.363453 0.187766 -2.521348
  C 0.853530 0.250624 -2.756795
  H 0.663138 0.308072 -3.827677
  H 3.990753 0.072411 -1.110614
  H 0.650891 -0.025575 1.439871
  H 0.677938 -0.835211 -0.141236
  H 0.346828 0.909436 -0.040351
  H 3.870064 0.899546 1.346882
  H 3.925355 -0.851971 1.228455
  H 2.763567 -0.681373 -3.067033
  H 2.819437 1.076103 -2.985623
  H 0.420256 1.128919 -2.294869
  H 0.352485 -0.632741 -2.378265
 18
 18.167869
  C 0.877600 0.074438 0.378151
  C 2.307038 0.056527 0.102846
  C 3.242702 0.013020 1.294563
  H 2.686565 -0.107834 2.224317
  C 2.896487 0.091083 -1.110594
  C 2.357129 0.164619 -2.513562
  C 0.853105 0.283609 -2.734946
  H 0.655584 0.331320 -3.805551
  H 3.980738 0.036463 -1.113729
  H 0.611128 -0.038754 1.420794
  H 0.918796 -0.846474 -0.170927
  H 0.298303 0.855820 -0.091116
  H 3.817083 0.938715 1.361771
  H 3.952337 -0.810971 1.209308
  H 2.718556 -0.724577 -3.046595
  H 2.839192 1.024536 -2.994593
  H 0.461402 1.191278 -2.283887
  H 0.316110 -0.572122 -2.335359
 18
 32.070502
  C 0.864062 0.080702 0.388119
  C 2.298225 0.054415 0.094695
  C 3.224736 0.010302 1.294912
  H 2.665498 -0.142676 2.217641
  C 2.903873 0.083305 -1.127393
  C 2.355086 0.154703 -2.530084
  C 0.859714 0.307691 -2.723706
  H 0.643037 0.346976 -3.786109
  H 3.988962 0.017144 -1.125613
  H 0.597250 -0.013591 1.433865
  H 1.104874 -0.845518 -0.125084
  H 0.242549 0.790317 -0.138986
  H 3.768063 0.952216 1.383179
  H 3.959677 -0.788133 1.202465
  H 2.684207 -0.749966 -3.059444
  H 2.849045 0.995724 -3.029314
  H 0.505207 1.222913 -2.281864
  H 0.314391 -0.521749 -2.304202
 18
 43.946391
  C 0.854933 0.095074 0.399776
  C 2.289359 0.047300 0.082998
  C 3.212571 -0.003524 1.284316
  H 2.657445 -0.182504 2.202210
  C 2.902880 0.079368 -1.130329
  C 2.361761 0.152356 -2.532325
  C 0.860474 0.323481 -2.725703
  H 0.638238 0.357281 -3.796419
  H 3.983680 0.011427 -1.119936
  H 0.601663 0.060668 1.449285
  H 1.250055 -0.842363 -0.039696
  H 0.202343 0.704136 -0.188659
  H 3.731999 0.949840 1.385724
  H 3.965204 -0.784229 1.179355
  H 2.677610 -0.756643 -3.056342
  H 2.865118 0.982824 -3.035526
  H 0.517359 1.255263 -2.286489
  H 0.302454 -0.502826 -2.293581
 18
 52.655665
  C 0.844938 0.108606 0.432665
  C 2.279988 0.036508 0.082699
  C 3.209556 -0.015177 1.283007
  H 2.663319 -0.219738 2.198310
  C 2.896435 0.075621 -1.140736
  C 2.363609 0.153127 -2.541753
  C 0.865314 0.339827 -2.747353
  H 0.649318 0.372309 -3.823039
  H 3.975178 -0.000669 -1.126503
  H 0.610859 0.143829 1.483790
  H 1.358954 -0.844712 0.063509
  H 0.152112 0.604970 -0.208357
  H 3.705701 0.945224 1.396571
  H 3.976296 -0.775863 1.163581
  H 2.671521 -0.760608 -3.064966
  H 2.880130 0.978583 -3.044222
  H 0.529837 1.276971 -2.313347
  H 0.297173 -0.480908 -2.316122
 18
 59.277798
  C 0.842515 0.121906 0.441243
  C 2.277794 0.022983 0.081245
  C 3.205256 -0.021259 1.282737
  H 2.662265 -0.252784 2.193430
  C 2.900239 0.068059 -1.144697
  C 2.367483 0.150328 -2.550647
  C 0.865639 0.354280 -2.751741
  H 0.648412 0.392688 -3.815429
  H 3.980389 -0.021835 -1.127149
  H 0.610647 0.215986 1.488545
  H 1.449947 -0.841196 0.132958
  H 0.120196 0.513571 -0.245902
  H 3.678768 0.952601 1.411269
  H 3.994333 -0.764215 1.152200
  H 2.665466 -0.769717 -3.080146
  H 2.894254 0.974050 -3.054108
  H 0.539043 1.296085 -2.309675
  H 0.292217 -0.464420 -2.324997
 18
 64.858444
  C 0.838941 0.145206 0.445756
  C 2.274782 0.010488 0.081706
  C 3.206120 -0.025804 1.283253
  H 2.668908 -0.283735 2.192444
  C 2.902800 0.062942 -1.150712
  C 2.370171 0.146697 -2.553396
  C 0.872548 0.360075 -2.750043
  H 0.652780 0.407145 -3.814355
  H 3.983342 -0.035747 -1.131399
  H 0.603477 0.256052 1.485402
  H 1.511646 -0.837008 0.159892
  H 0.103307 0.468548 -0.260995
  H 3.656885 0.955918 1.424746
  H 4.009927 -0.746009 1.140853
  H 2.660101 -0.772316 -3.085160
  H 2.900126 0.965209 -3.056299
  H 0.553914 1.298240 -2.301152
  H 0.295581 -0.459941 -2.327162
 18
 69.544972
  C 0.838286 0.174427 0.449483
  C 2.273586 -0.001617 0.084635
  C 3.210320 -0.029584 1.285528
  H 2.679831 -0.308844 2.193156
  C 2.905875 0.060622 -1.155824
  C 2.373796 0.142324 -2.554579
  C 0.879647 0.362340 -2.749283
  H 0.660416 0.415481 -3.811195
  H 3.978638 -0.043760 -1.135385
  H 0.594616 0.272678 1.484749
  H 1.556769 -0.836369 0.163628
  H 0.093847 0.447656 -0.265440
  H 3.641105 0.959477 1.437713
  H 4.024918 -0.729176 1.133411
  H 2.659149 -0.780703 -3.088067
  H 2.905451 0.956321 -3.058396
  H 0.564430 1.300278 -2.294051
  H 0.300190 -0.458804 -2.331583
 18
 73.175047
  C 0.841288 0.212212 0.447950
  C 2.272385 -0.014232 0.087751
  C 3.212438 -0.032474 1.287923
  H 2.688685 -0.330605 2.193037
  C 2.912895 0.059485 -1.160107
  C 2.378414 0.138183 -2.555791
  C 0.884996 0.363187 -2.743942
  H 0.661609 0.421972 -3.806289
  H 3.987024 -0.048280 -1.136534
  H 0.582156 0.279323 1.483998
  H 1.595214 -0.850126 0.153535
  H 0.092061 0.442295 -0.272596
  H 3.622684 0.962551 1.448705
  H 4.040181 -0.714383 1.127868
  H 2.658653 -0.788706 -3.089815
  H 2.909766 0.947369 -3.061756
  H 0.575243 1.296882 -2.284224
  H 0.303726 -0.459598 -2.326659
 18
 76.386968
  C 0.844396 0.233714 0.462047
  C 2.270579 -0.023633 0.093947
  C 3.217674 -0.032507 1.287510
  H 2.701296 -0.342094 2.196149
  C 2.905526 0.054979 -1.155423
  C 2.378466 0.130999 -2.551339
  C 0.890095 0.360901 -2.755073
  H 0.677149 0.418075 -3.821606
  H 3.978071 -0.057326 -1.131261
  H 0.587301 0.276348 1.490292
  H 1.634514 -0.859776 0.151145
  H 0.081273 0.436616 -0.260502
  H 3.613008 0.960826 1.448957
  H 4.059262 -0.707658 1.117843
  H 2.655109 -0.786247 -3.073676
  H 2.923054 0.944067 -3.061625
  H 0.577513 1.305446 -2.295337
  H 0.305749 -0.454681 -2.345342
 18
 78.382719
  C 0.850592 0.260674 0.448594
  C 2.272592 -0.036800 0.095249
  C 3.218250 -0.036708 1.294354
  H 2.704488 -0.357366 2.196906
  C 2.918495 0.049670 -1.164632
  C 2.384869 0.126899 -2.555151
  C 0.893129 0.364332 -2.742903
  H 0.670547 0.424148 -3.800789
  H 3.991118 -0.068170 -1.141018
  H 0.572666 0.277145 1.482437
  H 1.674272 -0.886028 0.131533
  H 0.096485 0.434227 -0.279502
  H 3.605436 0.975485 1.463378
  H 4.056319 -0.691057 1.126349
  H 2.652444 -0.793580 -3.081320
  H 2.933501 0.942026 -3.073359
  H 0.592942 1.298302 -2.282986
  H 0.303123 -0.455491 -2.324628
 18
 79.280477
  C 0.860259 0.299528 0.457449
  C 2.267034 -0.050661 0.103181
  C 3.219800 -0.034681 1.296001
  H 2.716887 -0.370636 2.200695
  C 2.920206 0.048983 -1.163916
  C 2.387901 0.121557 -2.554585
  C 0.899558 0.366969 -2.747061
  H 0.679462 0.426557 -3.809831
  H 3.990457 -0.077041 -1.136522
  H 0.573640 0.271384 1.484558
  H 1.716312 -0.925654 0.117002
  H 0.091740 0.431449 -0.272085
  H 3.582274 0.976941 1.465321
  H 4.078419 -0.676594 1.117927
  H 2.652113 -0.804207 -3.079481
  H 2.937325 0.924709 -3.070384
  H 0.601127 1.307067 -2.285960
  H 0.307521 -0.446385 -2.331192
 18
 79.088324
  C 0.873000 0.338086 0.459414
  C 2.262526 -0.066318 0.110256
  C 3.219678 -0.037218 1.299522
  H 2.726011 -0.390202 2.203063
  C 2.925811 0.046876 -1.166163
  C 2.391816 0.115256 -2.556432
  C 0.903126 0.369120 -2.747488
  H 0.680739 0.427032 -3.811679
  H 3.994689 -0.088123 -1.135406
  H 0.573597 0.268994 1.484909
  H 1.765990 -0.973277 0.093771
  H 0.100140 0.432605 -0.272876
  H 3.559794 0.979611 1.473316
  H 4.092441 -0.661063 1.113801
  H 2.650827 -0.818095 -3.080752
  H 2.944062 0.908303 -3.074037
  H 0.611150 1.310149 -2.288082
  H 0.307942 -0.439450 -2.327980
