 16
 0.000000
  C 1.007771 0.133545 0.384825
  C 2.473539 0.134526 0.387118
  C 3.210625 0.607121 1.561775
  H 2.545646 0.927668 2.359751
  C 3.131212 -0.326464 -0.759929
  C 4.524220 -0.393593 -0.928662
  C 5.079524 -0.855556 -2.080943
  H 4.469214 -1.187837 -2.909238
  H 6.148428 -0.907165 -2.210151
  H 0.583960 0.506348 1.312185
  H 0.631610 -0.875129 0.191376
  H 0.631599 0.727808 -0.452833
  H 3.872291 1.433737 1.292275
  H 3.873170 -0.175312 1.939307
  H 2.521034 -0.659950 -1.589558
  H 5.171083 -0.071340 -0.125552
 16
 5.608746
  C 0.981999 0.088603 0.365799
  C 2.519479 0.150839 0.390907
  C 3.185933 0.657733 1.577785
  H 2.491203 0.970724 2.338115
  C 3.110021 -0.305263 -0.779817
  C 4.512163 -0.450651 -0.930895
  C 5.064791 -0.884945 -2.100080
  H 4.453772 -1.154277 -2.938350
  H 6.128573 -0.942553 -2.226866
  H 0.639353 0.420653 1.333750
  H 0.754239 -0.946045 0.156513
  H 0.712472 0.766921 -0.431581
  H 3.845706 1.485648 1.326734
  H 3.836283 -0.109286 1.996915
  H 2.460212 -0.558449 -1.603170
  H 5.154154 -0.173520 -0.109901
 16
 16.426049
  C 0.974300 0.081597 0.358134
  C 2.606505 0.172248 0.406311
  C 3.163342 0.684873 1.640955
  H 2.403466 0.957171 2.361226
  C 3.136899 -0.272372 -0.789128
  C 4.530372 -0.445402 -0.987708
  C 5.038172 -0.911804 -2.154846
  H 4.404837 -1.183729 -2.981679
  H 6.097351 -1.023996 -2.300067
  H 0.638380 0.380244 1.340743
  H 0.812565 -0.958625 0.113500
  H 0.761314 0.782658 -0.437045
  H 3.769132 1.573180 1.453361
  H 3.808637 -0.062975 2.105512
  H 2.485851 -0.547991 -1.603738
  H 5.184325 -0.209336 -0.160858
 16
 34.060493
  C 0.897230 0.084105 0.338195
  C 2.681393 0.181743 0.423609
  C 3.159455 0.683102 1.706257
  H 2.370457 1.012707 2.379125
  C 3.168315 -0.273293 -0.775788
  C 4.561360 -0.421868 -1.018772
  C 5.025197 -0.927851 -2.194046
  H 4.363505 -1.237493 -2.985685
  H 6.084167 -1.042029 -2.372229
  H 0.583795 0.368143 1.325098
  H 0.791610 -0.953073 0.063229
  H 0.744076 0.790451 -0.454622
  H 3.829600 1.528300 1.534359
  H 3.784171 -0.062805 2.193801
  H 2.486805 -0.579752 -1.567636
  H 5.241942 -0.134187 -0.229065
 16
 53.131868
  C 0.843350 0.072004 0.322614
  C 2.763228 0.213791 0.437717
  C 3.154548 0.713946 1.750895
  H 2.329648 1.017387 2.379070
  C 3.181584 -0.251093 -0.759428
  C 4.600250 -0.432366 -1.062073
  C 5.008636 -0.949325 -2.231198
  H 4.313178 -1.269448 -2.990784
  H 6.059005 -1.082682 -2.447933
  H 0.568895 0.348931 1.325119
  H 0.825813 -0.973108 0.020135
  H 0.762026 0.794146 -0.471977
  H 3.829125 1.572199 1.629293
  H 3.709693 -0.060492 2.276007
  H 2.461639 -0.556950 -1.513970
  H 5.309612 -0.139732 -0.294176
 16
 64.502394
  C 0.827427 0.028947 0.343869
  C 2.882148 0.278167 0.414937
  C 3.132213 0.767580 1.756736
  H 2.227653 1.024559 2.303237
  C 3.223946 -0.160619 -0.768725
  C 4.625294 -0.478667 -1.107002
  C 4.975628 -1.026869 -2.264869
  H 4.257451 -1.254753 -3.042885
  H 6.018014 -1.198987 -2.506875
  H 0.638756 0.264329 1.371686
  H 0.891619 -1.014039 0.060979
  H 0.755031 0.823234 -0.379889
  H 3.731547 1.672924 1.722833
  H 3.602625 -0.021211 2.339812
  H 2.505102 -0.415140 -1.538995
  H 5.351809 -0.272604 -0.332542
 16
 72.762246
  C 0.715860 0.072786 0.316353
  C 2.989855 0.221686 0.474232
  C 3.165828 0.736737 1.787042
  H 2.231868 1.052481 2.251260
  C 3.287292 -0.250028 -0.684936
  C 4.672862 -0.465748 -1.126069
  C 4.959467 -0.987574 -2.307408
  H 4.208927 -1.285447 -3.018807
  H 5.983860 -1.126692 -2.609449
  H 0.459288 0.338228 1.323509
  H 0.736718 -0.967668 0.046418
  H 0.681470 0.826798 -0.443494
  H 3.796208 1.622750 1.760776
  H 3.572384 -0.039844 2.441172
  H 2.564951 -0.564009 -1.416084
  H 5.443661 -0.169333 -0.424114
 16
 78.843643
  C 0.561694 0.069153 0.303854
  C 3.047323 0.216922 0.503234
  C 3.208448 0.732873 1.799950
  H 2.260345 1.036116 2.248683
  C 3.342820 -0.260484 -0.660876
  C 4.719705 -0.478749 -1.119564
  C 4.980707 -0.987210 -2.318536
  H 4.207099 -1.263901 -3.022853
  H 5.998161 -1.121095 -2.646650
  H 0.310294 0.358664 1.300153
  H 0.593996 -0.969255 0.059473
  H 0.556887 0.807832 -0.473210
  H 3.818749 1.643756 1.769822
  H 3.624601 -0.027005 2.463463
  H 2.590631 -0.575245 -1.382444
  H 5.499895 -0.180442 -0.443395
 16
 83.262536
  C 0.422806 0.052822 0.285969
  C 3.152310 0.204466 0.543596
  C 3.237309 0.746910 1.831570
  H 2.257290 1.049744 2.206609
  C 3.406415 -0.275163 -0.619936
  C 4.768107 -0.488704 -1.142623
  C 4.981078 -0.976927 -2.357735
  H 4.185296 -1.240550 -3.032432
  H 5.983930 -1.135117 -2.715429
  H 0.180269 0.365558 1.279128
  H 0.461850 -0.992247 0.063927
  H 0.447725 0.775105 -0.501921
  H 3.827213 1.667730 1.816236
  H 3.620310 0.012165 2.543206
  H 2.632630 -0.528645 -1.332853
  H 5.578554 -0.238553 -0.477558
 16
 85.474084
  C 0.290323 0.044445 0.271976
  C 3.217398 0.210983 0.563580
  C 3.264882 0.754229 1.848775
  H 2.267708 1.041095 2.193276
  C 3.453279 -0.267474 -0.600559
  C 4.801754 -0.495162 -1.152074
  C 4.984889 -0.981753 -2.372599
  H 4.172755 -1.233044 -3.032971
  H 5.978522 -1.148026 -2.751341
  H 0.058158 0.360622 1.267602
  H 0.331410 -1.001412 0.051467
  H 0.322971 0.765719 -0.517259
  H 3.839145 1.685594 1.848085
  H 3.639804 0.027231 2.573342
  H 2.660688 -0.509282 -1.297915
  H 5.628549 -0.255811 -0.502765
 16
 86.394526
  C 0.169473 0.046939 0.258948
  C 3.246425 0.225237 0.564901
  C 3.286664 0.753196 1.853375
  H 2.282473 1.011371 2.202866
  C 3.474358 -0.246675 -0.601302
  C 4.815372 -0.499058 -1.152380
  C 4.987864 -0.991667 -2.369349
  H 4.170041 -1.234316 -3.026064
  H 5.977964 -1.168603 -2.752425
  H -0.056155 0.360285 1.256382
  H 0.210501 -0.998004 0.034975
  H 0.197793 0.770141 -0.528563
  H 3.841215 1.696459 1.864418
  H 3.679161 0.025485 2.568045
  H 2.673063 -0.495195 -1.285638
  H 5.647362 -0.262505 -0.509816
 16
 87.695698
  C -0.051042 0.041353 0.251933
  C 3.443861 0.234231 0.615456
  C 3.344946 0.761668 1.893314
  H 2.298835 1.033428 2.086495
  C 3.642734 -0.237290 -0.552231
  C 4.934006 -0.505305 -1.197079
  C 5.020369 -1.005644 -2.420254
  H 4.159191 -1.247915 -3.019229
  H 5.981141 -1.192021 -2.867667
  H -0.211664 0.350185 1.262397
  H -0.057888 -1.000298 0.013173
  H -0.023798 0.770822 -0.528827
  H 3.891298 1.707129 1.970044
  H 3.632251 0.041595 2.662097
  H 2.789945 -0.489270 -1.177290
  H 5.809389 -0.269578 -0.613961
