 17
 0.000000
  H 1.482129 0.164177 0.458639
  C 2.563617 0.155975 0.437771
  C 3.257347 0.635849 1.632271
  C 2.332077 1.084862 2.751747
  H 2.908325 1.427785 3.606468
  C 3.166586 -0.306430 -0.713042
  C 4.548410 -0.389053 -0.918797
  C 5.106347 -0.860337 -2.091107
  H 4.513039 -1.198722 -2.932542
  O 6.379445 -0.942430 -2.295235
  H 3.928381 1.460032 1.357804
  H 3.928667 -0.149103 2.003771
  H 1.692176 0.268468 3.078659
  H 1.691817 1.900566 2.423904
  H 2.526424 -0.631448 -1.521622
  H 5.239007 -0.078705 -0.146735
  H 6.920275 -0.637023 -1.536660
 17
 2.100155
  H 1.495596 0.087031 0.491101
  C 2.575017 0.118407 0.461314
  C 3.250140 0.652554 1.643996
  C 2.307185 1.114380 2.741904
  H 2.867336 1.497495 3.588697
  C 3.192890 -0.343155 -0.682595
  C 4.575722 -0.374032 -0.889348
  C 5.120948 -0.772756 -2.098770
  H 4.481465 -0.951212 -2.958165
  O 6.384535 -0.839036 -2.371556
  H 3.906318 1.480129 1.347837
  H 3.936689 -0.105972 2.043315
  H 1.684614 0.294035 3.090820
  H 1.652386 1.903624 2.384617
  H 2.565502 -0.714401 -1.481527
  H 5.241483 -0.014399 -0.114883
  H 6.968159 -0.998130 -1.601005
 17
 8.725745
  H 1.485054 0.041802 0.507008
  C 2.565716 0.089193 0.477511
  C 3.232269 0.656465 1.647846
  C 2.287119 1.124235 2.741238
  H 2.844377 1.548701 3.571326
  C 3.190739 -0.380480 -0.658490
  C 4.578277 -0.389146 -0.865471
  C 5.138524 -0.719272 -2.080178
  H 4.513127 -0.824464 -2.964344
  O 6.422594 -0.708394 -2.327020
  H 3.878325 1.487597 1.334435
  H 3.936172 -0.081047 2.056698
  H 1.690999 0.297364 3.120498
  H 1.604678 1.883891 2.367259
  H 2.571064 -0.768725 -1.455117
  H 5.248924 -0.057586 -0.085877
  H 6.981164 -1.290693 -1.779692
 17
 13.652461
  H 1.474569 0.062192 0.507541
  C 2.555567 0.119315 0.488432
  C 3.207287 0.676151 1.666356
  C 2.259326 1.123321 2.762089
  H 2.811231 1.548773 3.594646
  C 3.193714 -0.330970 -0.648204
  C 4.586554 -0.331371 -0.844605
  C 5.157325 -0.719517 -2.034263
  H 4.536144 -0.965859 -2.894902
  O 6.457663 -0.652364 -2.248049
  H 3.854523 1.512308 1.366221
  H 3.920869 -0.058368 2.066829
  H 1.673054 0.286833 3.135304
  H 1.565364 1.875444 2.394173
  H 2.583893 -0.713570 -1.455302
  H 5.258062 0.007871 -0.068997
  H 7.002018 -1.425691 -2.034700
 17
 8.487458
  H 1.484281 0.090092 0.497921
  C 2.564435 0.143105 0.493534
  C 3.201946 0.674784 1.693127
  C 2.234122 1.115394 2.779081
  H 2.772274 1.541363 3.620507
  C 3.215831 -0.290052 -0.641765
  C 4.605461 -0.282122 -0.821139
  C 5.196480 -0.765181 -1.964793
  H 4.590077 -1.173396 -2.777174
  O 6.488344 -0.647337 -2.146074
  H 3.864096 1.508134 1.420505
  H 3.895659 -0.075412 2.094522
  H 1.647441 0.274645 3.142124
  H 1.542705 1.865515 2.403826
  H 2.613820 -0.661001 -1.460916
  H 5.266068 0.097374 -0.052814
  H 6.976253 -1.455291 -2.390894
 17
 8.008889
  H 1.462858 0.008829 0.526968
  C 2.544068 0.046460 0.513838
  C 3.200029 0.680034 1.656068
  C 2.245338 1.213590 2.709750
  H 2.795267 1.689965 3.516132
  C 3.188538 -0.466267 -0.587043
  C 4.582175 -0.491778 -0.755687
  C 5.209093 -0.640014 -1.973925
  H 4.665310 -0.621503 -2.914584
  O 6.515313 -0.666526 -1.988039
  H 3.858256 1.485989 1.308224
  H 3.894044 -0.042626 2.107623
  H 1.646207 0.411292 3.134112
  H 1.566262 1.948307 2.283378
  H 2.587468 -0.885930 -1.382610
  H 5.269130 -0.504395 0.081745
  H 6.942892 -1.258614 -2.634932
 17
 16.888027
  H 1.422280 -0.045468 0.575190
  C 2.502575 -0.019628 0.523382
  C 3.209132 0.661110 1.609385
  C 2.299002 1.269193 2.661733
  H 2.883351 1.772879 3.426328
  C 3.106536 -0.585761 -0.567305
  C 4.501841 -0.611042 -0.777423
  C 5.205650 -0.479016 -1.947030
  H 4.821056 -0.079860 -2.878954
  O 6.502231 -0.683855 -1.823852
  H 3.869128 1.435359 1.199409
  H 3.901169 -0.055379 2.073921
  H 1.695937 0.503159 3.144084
  H 1.622735 1.997011 2.218911
  H 2.487062 -1.070592 -1.310664
  H 5.230403 -0.905182 -0.024630
  H 6.934903 -1.205001 -2.523697
 17
 31.313988
  H 1.383262 -0.109992 0.650568
  C 2.457844 -0.060805 0.537467
  C 3.211127 0.655719 1.568416
  C 2.344505 1.281554 2.647072
  H 2.958246 1.818661 3.364677
  C 3.012110 -0.629495 -0.576694
  C 4.389281 -0.604618 -0.872593
  C 5.198312 -0.346920 -1.936968
  H 5.020295 0.231484 -2.832924
  O 6.455323 -0.719265 -1.653832
  H 3.829778 1.429313 1.096956
  H 3.933356 -0.035958 2.022535
  H 1.783055 0.520782 3.184751
  H 1.632972 1.983660 2.218071
  H 2.374634 -1.185654 -1.252868
  H 5.208797 -1.034679 -0.249295
  H 6.896066 -1.309659 -2.289431
 17
 51.010416
  H 1.383829 -0.188237 0.721914
  C 2.444465 -0.084951 0.540289
  C 3.225006 0.680187 1.517014
  C 2.388258 1.276642 2.638155
  H 3.013590 1.853910 3.313480
  C 2.960585 -0.646178 -0.598899
  C 4.296747 -0.558299 -0.985664
  C 5.193113 -0.264086 -1.933227
  H 5.180279 0.388642 -2.789825
  O 6.397935 -0.779534 -1.514859
  H 3.770054 1.476290 0.995552
  H 4.002287 0.034754 1.944089
  H 1.899504 0.495744 3.215971
  H 1.619592 1.936264 2.242028
  H 2.316805 -1.265465 -1.213056
  H 5.292656 -1.082607 -0.424295
  H 6.851903 -1.389874 -2.126552
 17
 62.526861
  H 1.381706 -0.225566 0.747764
  C 2.431501 -0.093558 0.531940
  C 3.227467 0.691027 1.492953
  C 2.403393 1.256061 2.642171
  H 3.029239 1.851513 3.301631
  C 2.926748 -0.630649 -0.628731
  C 4.226082 -0.511584 -1.061246
  C 5.157830 -0.239143 -1.939895
  H 5.210515 0.392881 -2.806763
  O 6.370011 -0.782568 -1.423450
  H 3.729233 1.506378 0.958316
  H 4.032695 0.067984 1.897507
  H 1.958587 0.456843 3.230541
  H 1.602512 1.891692 2.270747
  H 2.279421 -1.265833 -1.223806
  H 5.508716 -1.070808 -0.495399
  H 6.822834 -1.432301 -2.003673
 17
 53.081574
  H 1.349658 -0.187661 0.733174
  C 2.398091 -0.069801 0.501649
  C 3.230565 0.688928 1.465200
  C 2.441281 1.195193 2.665232
  H 3.084244 1.766908 3.330245
  C 2.869370 -0.598037 -0.679424
  C 4.130431 -0.476057 -1.144740
  C 5.112431 -0.240569 -1.952460
  H 5.217957 0.352696 -2.835028
  O 6.358718 -0.745739 -1.331889
  H 3.697046 1.534684 0.946385
  H 4.055806 0.058471 1.816340
  H 2.020381 0.366267 3.230285
  H 1.624547 1.840238 2.347840
  H 2.199354 -1.212071 -1.274787
  H 5.754111 -1.004984 -0.537696
  H 6.831599 -1.433700 -1.857496
 17
 44.334814
  H 1.364261 -0.299331 0.790834
  C 2.395786 -0.116341 0.531974
  C 3.203254 0.707916 1.466330
  C 2.396871 1.242026 2.639377
  H 3.018328 1.868640 3.274036
  C 2.878834 -0.637633 -0.653272
  C 4.132114 -0.473875 -1.135451
  C 5.135820 -0.214276 -1.883950
  H 5.258090 0.484270 -2.696379
  O 6.410105 -0.799573 -1.415228
  H 3.651116 1.543485 0.914775
  H 4.044403 0.118342 1.848118
  H 2.008212 0.426226 3.246079
  H 1.557533 1.838835 2.292234
  H 2.226807 -1.285160 -1.234484
  H 5.990828 -1.168743 -0.581028
  H 6.799258 -1.432858 -2.061961
 17
 38.567687
  H 1.367207 -0.355764 0.822383
  C 2.388328 -0.135496 0.555332
  C 3.170236 0.724662 1.475409
  C 2.341164 1.249116 2.641334
  H 2.940784 1.898485 3.274273
  C 2.882537 -0.640215 -0.630135
  C 4.123524 -0.447010 -1.115848
  C 5.179577 -0.157101 -1.789506
  H 5.335196 0.639085 -2.499172
  O 6.440648 -0.859096 -1.510372
  H 3.593104 1.565697 0.915030
  H 4.023385 0.161347 1.868597
  H 1.969811 0.429026 3.251971
  H 1.487930 1.820405 2.282044
  H 2.242302 -1.286838 -1.218308
  H 6.244547 -1.394350 -0.708297
  H 6.741337 -1.410003 -2.272733
 17
 38.696902
  H 1.301601 -0.230533 0.746421
  C 2.350421 -0.102378 0.531073
  C 3.157776 0.686328 1.493775
  C 2.327204 1.243613 2.643191
  H 2.953317 1.813028 3.325546
  C 2.854877 -0.644958 -0.629925
  C 4.137344 -0.567395 -1.045750
  C 5.160085 -0.225809 -1.751019
  H 5.211124 0.584768 -2.466126
  O 6.489454 -0.790644 -1.570128
  H 3.651372 1.508503 0.964304
  H 3.956484 0.057420 1.900520
  H 1.856837 0.439725 3.205277
  H 1.545515 1.902213 2.270910
  H 2.195838 -1.251916 -1.239666
  H 6.560597 -1.259638 -0.707456
  H 6.761774 -1.360378 -2.328944
 17
 37.314902
  H 1.367416 -0.407849 0.848122
  C 2.378950 -0.161437 0.567317
  C 3.157884 0.705898 1.484961
  C 2.315143 1.263428 2.625385
  H 2.919863 1.889621 3.275853
  C 2.867851 -0.650295 -0.626932
  C 4.102099 -0.436925 -1.117960
  C 5.199113 -0.130666 -1.713066
  H 5.373124 0.697502 -2.383079
  O 6.452382 -0.864695 -1.517975
  H 3.605808 1.528476 0.917241
  H 3.992941 0.135065 1.906199
  H 1.893825 0.458830 3.224366
  H 1.496298 1.866547 2.240281
  H 2.220672 -1.277783 -1.227420
  H 6.374131 -1.534841 -0.800105
  H 6.754120 -1.278927 -2.361184
