20

C 1.003935 0.138705 0.361449
C 2.483603 0.155402 0.397685
C 3.243866 0.620217 1.583181
H 2.6806118948749176 0.9517171526554411 2.4303837277158413
C 3.114431 -0.295082 -0.7501
C 4.487382 -0.396916 -0.991201
C 5.139314 -0.863467 -2.122018
C 4.618318 -1.394183 -3.413497
H 3.5680722463570023 -1.469981824796597 -3.6035980129228835
O 6.465118 -0.870796 -2.132503
H 0.542702 0.495282 1.275972
H 0.641729 -0.876695 0.177128
H 0.645441 0.760851 -0.459674
H 3.90007 1.439601 1.267525
H 3.901003 -0.194862 1.907772
H 2.451184 -0.608121 -1.54023
H 5.123331 -0.063592 -0.177711
H 5.063336 -2.388232 -3.537269
H 5.067152 -0.777558 -4.200809
H 6.852481 -0.531003 -1.304147
