 23
 0.000000
  C 0.970939 0.177295 0.494191
  C 2.429282 0.124197 0.360792
  H 3.053691 0.453002 1.177711
  C 3.002967 -0.343088 -0.801937
  C 4.385111 -0.418868 -0.991705
  C 5.098642 -0.865288 -2.104876
  C 4.627195 -1.389719 -3.412863
  C 3.143332 -1.517670 -3.733237
  C 2.960064 -2.081700 -5.140102
  O 6.413414 -0.847956 -2.061718
  H 0.646402 0.563829 1.455513
  H 0.546334 -0.819036 0.355534
  H 0.545609 0.799843 -0.295584
  H 2.338767 -0.659440 -1.588371
  H 4.986245 -0.081895 -0.153118
  H 5.096941 -2.373275 -3.531545
  H 5.097555 -0.761069 -4.178175
  H 2.659987 -0.541169 -3.690666
  H 2.659408 -2.193989 -3.027970
  H 3.411867 -1.430261 -5.884410
  H 1.902212 -2.174380 -5.372228
  H 3.411332 -3.067153 -5.228088
  H 6.785367 -0.512810 -1.223544
 23
 10.205516
  C 0.933260 0.215311 0.588842
  C 2.377501 0.159941 0.449888
  H 3.012628 0.484564 1.256057
  C 3.011764 -0.362452 -0.849660
  C 4.380023 -0.430958 -1.021614
  C 5.106324 -0.875357 -2.129905
  C 4.644910 -1.401044 -3.441032
  C 3.163088 -1.532311 -3.769610
  C 2.990856 -2.096714 -5.177691
  O 6.419716 -0.853505 -2.075814
  H 0.619774 0.603188 1.553128
  H 0.503721 -0.779921 0.449737
  H 0.503046 0.836586 -0.200665
  H 2.343705 -0.675904 -1.628530
  H 4.973254 -0.091761 -0.177838
  H 5.118834 -2.382929 -3.557016
  H 5.119353 -0.771663 -4.203207
  H 2.677461 -0.556710 -3.730226
  H 2.676917 -2.210292 -3.067354
  H 3.446288 -1.443983 -5.918641
  H 1.935071 -2.192518 -5.417641
  H 3.445759 -3.080753 -5.262517
  H 6.786931 -0.517724 -1.235857
 23
 31.222950
  C 0.890903 0.252152 0.680442
  C 2.328473 0.196760 0.541865
  H 2.982138 0.515101 1.332562
  C 3.017205 -0.381635 -0.897058
  C 4.378565 -0.442666 -1.050529
  C 5.118283 -0.885818 -2.155967
  C 4.665357 -1.412605 -3.469828
  C 3.184877 -1.546029 -3.803544
  C 3.019503 -2.110620 -5.212400
  O 6.431084 -0.859720 -2.091754
  H 0.584406 0.641193 1.647567
  H 0.456773 -0.742449 0.538776
  H 0.456401 0.871363 -0.110469
  H 2.335123 -0.689857 -1.662980
  H 4.965204 -0.101702 -0.202487
  H 5.142461 -2.393283 -3.583770
  H 5.142792 -0.782559 -4.229663
  H 2.698007 -0.570893 -3.766167
  H 2.697574 -2.225241 -3.103136
  H 3.477342 -1.456955 -5.951129
  H 1.965020 -2.208510 -5.457483
  H 3.476887 -3.093740 -5.295167
  H 6.793273 -0.523217 -1.249976
 23
 53.622322
  C 0.870894 0.283388 0.757997
  C 2.293135 0.230470 0.625938
  H 2.995194 0.531330 1.372724
  C 3.010709 -0.408356 -0.962319
  C 4.355978 -0.454820 -1.080207
  C 5.119174 -0.892650 -2.172919
  C 4.682407 -1.421368 -3.491627
  C 3.204386 -1.557945 -3.833226
  C 3.048362 -2.122893 -5.243255
  O 6.430800 -0.857200 -2.086042
  H 0.579213 0.674285 1.728989
  H 0.428975 -0.708544 0.619484
  H 0.428775 0.902498 -0.029242
  H 2.287112 -0.699621 -1.685343
  H 4.929356 -0.111490 -0.226327
  H 5.164983 -2.399678 -3.603517
  H 5.165168 -0.791479 -4.248304
  H 2.715981 -0.583808 -3.799825
  H 2.715424 -2.239185 -3.136407
  H 3.511383 -1.468507 -5.978184
  H 1.996238 -2.224110 -5.496647
  H 3.510785 -3.103900 -5.322828
  H 6.780095 -0.518624 -1.239550
 23
 75.915389
  C 0.829767 0.319163 0.846668
  C 2.249887 0.267816 0.719260
  H 2.980198 0.559968 1.444828
  C 3.010060 -0.428857 -1.012592
  C 4.350491 -0.467469 -1.111040
  C 5.132891 -0.904089 -2.201346
  C 4.707216 -1.432780 -3.520169
  C 3.230589 -1.570322 -3.863730
  C 3.076233 -2.135256 -5.274091
  O 6.439424 -0.863355 -2.102061
  H 0.538848 0.711507 1.821118
  H 0.385615 -0.672101 0.704531
  H 0.385869 0.935524 0.057273
  H 2.260223 -0.712193 -1.716100
  H 4.915655 -0.121810 -0.251182
  H 5.192356 -2.410208 -3.630100
  H 5.192263 -0.801878 -4.274776
  H 2.742240 -0.595846 -3.829959
  H 2.741936 -2.251779 -3.166559
  H 3.539515 -1.480368 -6.008507
  H 2.024698 -2.237012 -5.528581
  H 3.539182 -3.116227 -5.353231
  H 6.780486 -0.523601 -1.253014
 23
 96.008353
  C 0.792011 0.354802 0.934919
  C 2.207705 0.305275 0.812737
  H 2.961200 0.587478 1.513815
  C 3.008401 -0.449654 -1.063225
  C 4.345322 -0.480964 -1.143776
  C 5.144382 -0.913529 -2.224728
  C 4.729606 -1.443828 -3.547809
  C 3.253895 -1.583297 -3.895668
  C 3.102615 -2.148168 -5.306393
  O 6.452572 -0.865872 -2.109088
  H 0.501641 0.747303 1.909373
  H 0.346661 -0.635618 0.790190
  H 0.347279 0.968849 0.144063
  H 2.238067 -0.723073 -1.742208
  H 4.901068 -0.133649 -0.279725
  H 5.217590 -2.420270 -3.655428
  H 5.217164 -0.811705 -4.299964
  H 2.765288 -0.609196 -3.861951
  H 2.765235 -2.264867 -3.198915
  H 3.566490 -1.492625 -6.039733
  H 2.051513 -2.250888 -5.563015
  H 3.566388 -3.128666 -5.384651
  H 6.783714 -0.524241 -1.255719
 23
 113.388346
  C 0.751579 0.391043 1.024483
  C 2.164619 0.343390 0.908077
  H 2.938240 0.618222 1.591520
  C 3.008517 -0.469251 -1.110892
  C 4.341325 -0.494656 -1.176889
  C 5.157467 -0.924491 -2.251979
  C 4.754086 -1.454881 -3.575538
  C 3.279918 -1.595674 -3.926016
  C 3.130349 -2.160363 -5.336820
  O 6.459503 -0.871304 -2.123634
  H 0.458111 0.784192 2.000415
  H 0.306210 -0.599720 0.877433
  H 0.307403 1.004098 0.231695
  H 2.218563 -0.735490 -1.772495
  H 4.889031 -0.145278 -0.307271
  H 5.244328 -2.430298 -3.680972
  H 5.243520 -0.821577 -4.325341
  H 2.791162 -0.621501 -3.891807
  H 2.791475 -2.277325 -3.229004
  H 3.594418 -1.504282 -6.069551
  H 2.079640 -2.263638 -5.594437
  H 3.594664 -3.140687 -5.414641
  H 6.780536 -0.528754 -1.268491
 23
 127.861157
  C 0.709424 0.428062 1.116153
  C 2.120313 0.382279 1.005797
  H 2.908164 0.650063 1.672987
  C 3.009092 -0.487309 -1.155675
  C 4.338415 -0.507823 -1.209199
  C 5.171046 -0.934427 -2.276952
  C 4.777253 -1.466400 -3.604487
  C 3.303739 -1.608925 -3.958672
  C 3.156316 -2.173724 -5.369828
  O 6.476529 -0.875197 -2.134361
  H 0.411590 0.820884 2.091689
  H 0.264973 -0.562894 0.967267
  H 0.266878 1.040790 0.322104
  H 2.205671 -0.746222 -1.799965
  H 4.877604 -0.157011 -0.335102
  H 5.269695 -2.441189 -3.707751
  H 5.268595 -0.831858 -4.352290
  H 2.814657 -0.634998 -3.924311
  H 2.815247 -2.290498 -3.261707
  H 3.620803 -1.517201 -6.101832
  H 2.105940 -2.277713 -5.628868
  H 3.621290 -3.153734 -5.446927
  H 6.789016 -0.530469 -1.274415
 23
 139.494141
  C 0.666555 0.465495 1.208448
  C 2.075386 0.421366 1.102789
  H 2.874652 0.685208 1.759740
  C 3.011655 -0.506011 -1.199716
  C 4.339393 -0.522553 -1.244057
  C 5.184811 -0.945430 -2.303948
  C 4.801476 -1.477030 -3.631112
  C 3.329587 -1.620931 -3.988071
  C 3.184221 -2.185333 -5.399316
  O 6.480723 -0.881404 -2.150902
  H 0.361935 0.858670 2.183744
  H 0.224265 -0.526384 1.058294
  H 0.226365 1.077542 0.412399
  H 2.195883 -0.760291 -1.832344
  H 4.871863 -0.170062 -0.365420
  H 5.295832 -2.450830 -3.732331
  H 5.294283 -0.841188 -4.376554
  H 2.840120 -0.647167 -3.953196
  H 2.841099 -2.302581 -3.291127
  H 3.649056 -1.528165 -6.130502
  H 2.134295 -2.289906 -5.659509
  H 3.649885 -3.165036 -5.476014
  H 6.783042 -0.536288 -1.290643
 23
 147.521792
  C 0.614030 0.512093 1.323271
  C 2.019426 0.464420 1.209789
  H 2.814063 0.734022 1.880754
  C 3.016784 -0.518925 -1.228922
  C 4.344999 -0.536111 -1.275620
  C 5.201517 -0.958407 -2.335916
  C 4.825243 -1.490368 -3.664637
  C 3.354640 -1.637790 -4.029381
  C 3.217227 -2.202168 -5.441861
  O 6.491980 -0.891189 -2.176713
  H 0.288425 0.905461 2.297917
  H 0.181016 -0.479530 1.166012
  H 0.183485 1.118713 0.521876
  H 2.202733 -0.774343 -1.864575
  H 4.874582 -0.182653 -0.394034
  H 5.322242 -2.463039 -3.763461
  H 5.320101 -0.852932 -4.407338
  H 2.862932 -0.665246 -3.995670
  H 2.864518 -2.320102 -3.334459
  H 3.683852 -1.543711 -6.170759
  H 2.168739 -2.308837 -5.706761
  H 3.685200 -3.180923 -5.516796
  H 6.790651 -0.543329 -1.310194
 23
 150.904074
  C 0.554510 0.559650 1.440329
  C 1.957747 0.504409 1.309682
  H 2.726961 0.787697 2.015085
  C 3.036807 -0.531496 -1.258034
  C 4.369464 -0.552127 -1.313546
  C 5.223993 -0.972000 -2.369611
  C 4.848732 -1.502156 -3.694409
  C 3.379025 -1.651116 -4.061723
  C 3.245334 -2.215071 -5.474334
  O 6.500885 -0.904326 -2.211167
  H 0.199448 0.950878 2.409075
  H 0.134345 -0.434130 1.269906
  H 0.137584 1.158990 0.627870
  H 2.236002 -0.794176 -1.912626
  H 4.899558 -0.198822 -0.431394
  H 5.346625 -2.474174 -3.792476
  H 5.343821 -0.863929 -4.435915
  H 2.885983 -0.679302 -4.027697
  H 2.888272 -2.333490 -3.367350
  H 3.712305 -1.555898 -6.202306
  H 2.197466 -2.322642 -5.740798
  H 3.714251 -3.193377 -5.548855
  H 6.797514 -0.556925 -1.346328
 23
 151.537366
  C 0.488890 0.610153 1.565059
  C 1.894591 0.547484 1.416885
  H 2.636443 0.842113 2.150616
  C 3.054213 -0.541025 -1.280051
  C 4.383481 -0.563833 -1.341189
  C 5.245979 -0.984410 -2.400514
  C 4.870086 -1.516172 -3.729661
  C 3.401191 -1.667664 -4.102453
  C 3.273492 -2.231647 -5.515875
  O 6.535236 -0.914332 -2.237685
  H 0.116728 0.998392 2.526120
  H 0.076441 -0.386652 1.384310
  H 0.079994 1.204732 0.743021
  H 2.266881 -0.809052 -1.948465
  H 4.911645 -0.210181 -0.457365
  H 5.369505 -2.487820 -3.826929
  H 5.366271 -0.877213 -4.470233
  H 2.906148 -0.696692 -4.069435
  H 2.908898 -2.350615 -3.409556
  H 3.741652 -1.571599 -6.242233
  H 2.226577 -2.340754 -5.785796
  H 3.743932 -3.209262 -5.589076
  H 6.834359 -0.565138 -1.368645
 23
 152.085443
  C 0.430496 0.653392 1.671672
  C 1.835579 0.584742 1.509651
  H 2.555587 0.888148 2.265798
  C 3.073106 -0.556528 -1.317406
  C 4.405676 -0.579441 -1.378974
  C 5.266484 -0.996175 -2.430054
  C 4.894089 -1.524645 -3.751179
  C 3.426539 -1.676458 -4.123888
  C 3.299860 -2.240101 -5.536978
  O 6.528929 -0.925481 -2.266876
  H 0.050476 1.039805 2.628322
  H 0.022371 -0.344298 1.483844
  H 0.026364 1.244186 0.844113
  H 2.293264 -0.828237 -1.995602
  H 4.931759 -0.225600 -0.493793
  H 5.394527 -2.495685 -3.847988
  H 5.390842 -0.885446 -4.490946
  H 2.930994 -0.705709 -4.090378
  H 2.934169 -2.359320 -3.430872
  H 3.767814 -1.579742 -6.263141
  H 2.253140 -2.349421 -5.807032
  H 3.770407 -3.217615 -5.610174
  H 6.823735 -0.578111 -1.402640
 23
 152.090840
  C 0.369021 0.710859 1.812781
  C 1.774589 0.623057 1.604610
  H 2.453642 0.942408 2.399399
  C 3.074847 -0.574845 -1.357577
  C 4.398369 -0.593405 -1.409891
  C 5.285383 -1.006753 -2.456563
  C 4.918862 -1.537900 -3.785278
  C 3.453318 -1.694038 -4.166959
  C 3.335503 -2.257578 -5.581285
  O 6.561720 -0.926411 -2.272571
  H -0.002203 1.097677 2.768919
  H -0.042354 -0.285630 1.616666
  H -0.037692 1.294713 0.979451
  H 2.294368 -0.845379 -2.032998
  H 4.912522 -0.237309 -0.517742
  H 5.423842 -2.507380 -3.881029
  H 5.419194 -0.898080 -4.523036
  H 2.954769 -0.724698 -4.135359
  H 2.958889 -2.378209 -3.476579
  H 3.805027 -1.595569 -6.304818
  H 2.290351 -2.369456 -5.856863
  H 3.808364 -3.234035 -5.652379
  H 6.854697 -0.576866 -1.402609
