14

H 1.3614225625588159 0.14130525175679748 0.40407042118797387
C 2.43139 0.138375 0.396254
C 3.225667 0.605236 1.557061
H 2.689887806963434 0.9506319053069997 2.4164458526162447
C 3.040241 -0.328066 -0.764349
C 4.417027 -0.409834 -0.969005
C 5.108629 -0.859137 -2.089578
H 4.755830076531489 -1.2350472231662657 -3.027194352096394
O 6.427962 -0.850409 -2.068213
H 3.883428 1.413815 1.219579
H 3.883726 -0.211689 1.873108
H 2.370371 -0.642604 -1.546367
H 5.042108 -0.079879 -0.148002
H 6.8192 -0.519344 -1.240689
