 26
 0.000000
  C 0.932678 0.149084 0.421813
  C 2.437503 0.128001 0.368987
  C 3.253248 0.602921 1.551306
  C 2.478501 1.092204 2.769740
  H 3.182317 1.401887 3.540684
  C 3.021041 -0.323223 -0.754756
  C 4.437330 -0.419253 -0.994284
  C 5.091772 -0.853645 -2.076854
  C 4.647963 -1.389211 -3.411348
  C 3.164862 -1.512978 -3.720401
  H 3.051919 -1.916311 -4.725630
  O 6.470932 -0.857477 -2.086696
  H 0.553651 0.527162 1.363321
  H 0.537188 -0.856542 0.276431
  H 0.537055 0.774771 -0.378705
  H 3.905805 1.415408 1.213194
  H 3.905962 -0.217634 1.869065
  H 1.853918 0.303633 3.183939
  H 1.853804 1.948114 2.523478
  H 2.368844 -0.642644 -1.549997
  H 5.064960 -0.089272 -0.172190
  H 5.118578 -2.373110 -3.513845
  H 5.118842 -0.749342 -4.165511
  H 2.673060 -0.544190 -3.689797
  H 2.672840 -2.191775 -3.028770
  H 6.814850 -0.522249 -1.251257
 26
 0.199187
  C 0.924847 0.213929 0.418421
  C 2.423366 0.091970 0.374603
  C 3.258170 0.557072 1.547491
  C 2.505128 1.086963 2.761450
  H 3.220918 1.363746 3.533535
  C 2.989951 -0.401924 -0.737473
  C 4.406539 -0.502144 -0.969947
  C 5.083307 -0.847033 -2.075236
  C 4.663365 -1.344189 -3.431696
  C 3.185221 -1.551140 -3.724511
  H 3.077307 -1.933102 -4.738728
  O 6.458548 -0.779984 -2.068369
  H 0.574055 0.727991 1.305182
  H 0.464122 -0.774754 0.396617
  H 0.567698 0.758832 -0.455763
  H 3.936695 1.342709 1.199461
  H 3.879756 -0.281870 1.877136
  H 1.842169 0.330295 3.175056
  H 1.925240 1.973509 2.513025
  H 2.332061 -0.717841 -1.529473
  H 5.024527 -0.205059 -0.129013
  H 5.193987 -2.290342 -3.581442
  H 5.080302 -0.642190 -4.161333
  H 2.636934 -0.614645 -3.658772
  H 2.748503 -2.276713 -3.042538
  H 6.764188 -0.399670 -1.235416
 26
 1.258934
  C 0.909463 0.261819 0.429018
  C 2.396119 0.042845 0.375903
  C 3.254542 0.497001 1.535432
  C 2.530982 1.075712 2.744506
  H 3.262187 1.330138 3.508883
  C 2.943107 -0.503250 -0.720739
  C 4.361312 -0.628322 -0.935726
  C 5.060430 -0.869077 -2.053945
  C 4.670933 -1.309075 -3.437569
  C 3.204656 -1.587937 -3.731312
  H 3.107941 -1.928097 -4.760984
  O 6.432645 -0.738132 -2.020945
  H 0.611521 0.889499 1.260306
  H 0.387651 -0.692318 0.522575
  H 0.567129 0.728878 -0.493004
  H 3.961808 1.249248 1.171069
  H 3.842086 -0.360738 1.879031
  H 1.837597 0.355096 3.170130
  H 1.990321 1.984829 2.489044
  H 2.281517 -0.815339 -1.511690
  H 4.968306 -0.413650 -0.061202
  H 5.255839 -2.213803 -3.635228
  H 5.041623 -0.546381 -4.131179
  H 2.604563 -0.688914 -3.617565
  H 2.817468 -2.366353 -3.079159
  H 6.694721 -0.292693 -1.204470
 26
 3.419511
  C 0.944592 0.491057 0.352120
  C 2.424584 0.241948 0.315865
  C 3.242712 0.376098 1.580151
  C 2.500756 0.847562 2.826090
  H 3.181652 0.830780 3.678373
  C 2.973168 -0.188866 -0.832143
  C 4.376379 -0.401689 -1.030785
  C 5.049672 -0.708601 -2.154170
  C 4.647269 -1.328906 -3.455838
  C 3.234494 -1.878029 -3.573701
  H 3.130365 -2.394852 -4.523520
  O 6.417352 -0.522992 -2.143403
  H 0.645747 1.090714 1.205032
  H 0.403128 -0.458658 0.399110
  H 0.627237 1.004718 -0.555587
  H 4.062563 1.077555 1.384712
  H 3.697118 -0.592411 1.804035
  H 1.659105 0.193867 3.055231
  H 2.138291 1.868112 2.709040
  H 2.331385 -0.281532 -1.696606
  H 4.986123 -0.319589 -0.136439
  H 5.364339 -2.140957 -3.604242
  H 4.829255 -0.610846 -4.257391
  H 2.498368 -1.082403 -3.546209
  H 3.025023 -2.579810 -2.773913
  H 6.607233 -0.005759 -1.348919
 26
 11.330912
  C 0.966615 0.587612 0.335079
  C 2.439350 0.268479 0.305472
  C 3.265649 0.415625 1.560529
  C 2.513105 0.814556 2.823403
  H 3.204538 0.835270 3.659874
  C 2.968347 -0.185642 -0.843459
  C 4.361127 -0.412616 -1.032497
  C 5.044064 -0.676399 -2.169945
  C 4.660274 -1.276171 -3.484665
  C 3.291622 -1.945707 -3.561788
  H 3.198633 -2.468023 -4.504580
  O 6.384900 -0.345007 -2.134485
  H 0.691704 1.221632 1.168895
  H 0.383705 -0.332559 0.391870
  H 0.675332 1.090831 -0.585341
  H 4.074305 1.126510 1.379853
  H 3.716615 -0.557546 1.763217
  H 1.739001 0.094913 3.055241
  H 2.067659 1.801655 2.729820
  H 2.325052 -0.272057 -1.704217
  H 4.925491 -0.541627 -0.119548
  H 5.437671 -2.037337 -3.656916
  H 4.775844 -0.547740 -4.289350
  H 2.492258 -1.218078 -3.502395
  H 3.168551 -2.661524 -2.754585
  H 6.433105 0.102059 -1.275327
 26
 27.436214
  C 0.940044 0.523502 0.365529
  C 2.417810 0.235050 0.298421
  C 3.269492 0.330130 1.552464
  C 2.582918 0.827989 2.821746
  H 3.279834 0.771957 3.663468
  C 2.933129 -0.075302 -0.896308
  C 4.312720 -0.356947 -1.069439
  C 5.024091 -0.637687 -2.200779
  C 4.711411 -1.333285 -3.485547
  C 3.307140 -1.927107 -3.580343
  H 3.220577 -2.524478 -4.487991
  O 6.349124 -0.259880 -2.042181
  H 0.644936 0.996751 1.296758
  H 0.375074 -0.405480 0.299370
  H 0.633768 1.176573 -0.445356
  H 4.086252 1.033893 1.340882
  H 3.748913 -0.629732 1.769814
  H 1.709111 0.230594 3.069783
  H 2.280861 1.856606 2.723462
  H 2.299828 -0.023433 -1.771110
  H 4.812367 -0.708115 -0.174290
  H 5.468193 -2.116205 -3.588828
  H 4.865017 -0.638516 -4.313072
  H 2.560934 -1.151945 -3.629379
  H 3.095330 -2.555523 -2.724788
  H 6.131466 0.193894 -1.183940
 26
 54.851576
  C 1.012367 0.671549 0.300030
  C 2.480433 0.345320 0.283079
  C 3.284152 0.320818 1.563729
  C 2.540314 0.685530 2.842748
  H 3.217903 0.601102 3.690894
  C 3.057321 0.031556 -0.886381
  C 4.454920 -0.289115 -1.082652
  C 5.102753 -0.621786 -2.295524
  C 4.668705 -1.348965 -3.520076
  C 3.295896 -2.003580 -3.461129
  H 3.148249 -2.621787 -4.343082
  O 6.321595 -0.192367 -2.232454
  H 0.699812 1.123039 1.234574
  H 0.423146 -0.235014 0.149807
  H 0.767960 1.359121 -0.507797
  H 4.134052 1.003398 1.449007
  H 3.701588 -0.684909 1.691705
  H 1.701657 0.014245 3.014302
  H 2.175283 1.710011 2.808368
  H 2.456495 0.094746 -1.781549
  H 4.934398 -0.751632 -0.219692
  H 5.437350 -2.112988 -3.687414
  H 4.730628 -0.667789 -4.374732
  H 2.505508 -1.260487 -3.436757
  H 3.207221 -2.631315 -2.578176
  H 5.810677 0.338977 -1.075105
 26
 26.465459
  C 1.093745 0.683415 0.228661
  C 2.568619 0.404081 0.257942
  C 3.272651 0.342293 1.587968
  C 2.386731 0.607628 2.838791
  H 2.985676 0.467852 3.752152
  C 3.227033 0.139756 -0.884604
  C 4.686107 -0.207896 -1.074682
  C 5.249387 -0.593539 -2.425347
  C 4.592934 -1.368366 -3.559223
  C 3.233080 -2.011856 -3.293450
  H 2.996315 -2.684434 -4.112767
  O 6.382849 -0.228439 -2.542992
  H 0.747708 1.166629 1.157969
  H 0.545694 -0.236036 0.117619
  H 0.844277 1.330616 -0.604671
  H 4.127942 1.018013 1.594546
  H 3.686943 -0.681419 1.696494
  H 1.589175 -0.088525 2.884427
  H 1.990735 1.634095 2.850069
  H 2.666035 0.182289 -1.811427
  H 5.156150 -0.739933 -0.236794
  H 5.316168 -2.149276 -3.822095
  H 4.535301 -0.707708 -4.417693
  H 2.422486 -1.263416 -3.239225
  H 3.240719 -2.576767 -2.374927
  H 5.586767 0.532362 -0.987265
 26
 5.428942
  C 1.149527 0.630540 0.147059
  C 2.614195 0.314056 0.279275
  C 3.299090 0.311977 1.612915
  C 2.436003 0.674714 2.820722
  H 3.028517 0.596923 3.726830
  C 3.295557 0.071088 -0.846634
  C 4.735220 -0.338561 -1.011438
  C 5.280524 -0.630044 -2.392390
  C 4.544129 -1.311280 -3.527768
  C 3.188622 -1.944033 -3.284095
  H 2.880311 -2.486899 -4.176341
  O 6.428496 -0.283021 -2.532269
  H 0.723795 1.026154 1.067868
  H 0.602279 -0.265503 -0.128638
  H 0.995068 1.358439 -0.646683
  H 4.120232 1.034016 1.541482
  H 3.748304 -0.675342 1.765845
  H 1.583094 0.007810 2.906077
  H 2.069686 1.694610 2.747426
  H 2.768258 0.245248 -1.794289
  H 5.074235 -1.094167 -0.280891
  H 5.227021 -2.101969 -3.852945
  H 4.488773 -0.593980 -4.345393
  H 2.412379 -1.209605 -3.057566
  H 3.235346 -2.644741 -2.461469
  H 5.441384 0.479770 -0.749840
 26
 10.152906
  C 1.067184 0.501859 0.268532
  C 2.554309 0.287399 0.314255
  C 3.327080 0.442086 1.592460
  C 2.543666 0.865954 2.830272
  H 3.198302 0.889761 3.697366
  C 3.182846 -0.083177 -0.807704
  C 4.612858 -0.480820 -0.963934
  C 5.266254 -0.769313 -2.284266
  C 4.678800 -1.342699 -3.553541
  C 3.220466 -1.776656 -3.557827
  H 2.993726 -2.221157 -4.525735
  O 6.432566 -0.448502 -2.275474
  H 0.674218 0.934183 1.181899
  H 0.565067 -0.450854 0.097004
  H 0.803416 1.162686 -0.559742
  H 4.122492 1.175509 1.420823
  H 3.811507 -0.513902 1.823543
  H 1.717952 0.185626 3.022164
  H 2.140202 1.870345 2.703217
  H 2.597664 -0.089951 -1.711879
  H 4.898864 -1.248695 -0.224682
  H 5.301632 -2.210434 -3.780627
  H 4.869971 -0.622059 -4.346788
  H 2.551992 -0.941315 -3.399242
  H 3.025086 -2.522646 -2.790096
  H 5.386320 0.259248 -0.679596
 26
 -6.514184
  C 1.282682 1.188756 -0.021425
  C 2.659903 0.587252 0.054740
  C 3.207934 0.075459 1.365408
  C 2.296965 0.190007 2.581664
  H 2.793426 -0.248601 3.445238
  C 3.386213 0.488260 -1.055879
  C 4.773129 -0.087819 -1.123380
  C 5.198976 -0.366361 -2.545877
  C 4.370674 -1.362966 -3.333299
  C 3.535999 -2.344774 -2.524571
  H 3.005715 -3.013603 -3.198784
  O 6.141597 0.192304 -3.051699
  H 0.871711 1.401127 0.958662
  H 0.603313 0.506434 -0.533020
  H 1.308274 2.116125 -0.590586
  H 4.140777 0.608836 1.574044
  H 3.475224 -0.979300 1.235389
  H 1.362111 -0.343559 2.424466
  H 2.078950 1.229611 2.816134
  H 2.990803 0.877080 -1.984062
  H 4.824283 -1.019233 -0.554202
  H 5.055159 -1.902739 -3.992071
  H 3.718099 -0.772495 -3.984217
  H 2.803810 -1.827440 -1.909679
  H 4.168908 -2.950737 -1.880102
  H 5.489807 0.610847 -0.682494
