 22
 0.000000
  C 0.979813 0.190847 0.537818
  C 2.428833 0.122721 0.363603
  H 3.081357 0.447405 1.161866
  C 2.976245 -0.347911 -0.809784
  C 4.363564 -0.423976 -1.001954
  C 5.054727 -0.866474 -2.107409
  C 4.617114 -1.385779 -3.404483
  C 3.144729 -1.526632 -3.757397
  C 2.982083 -2.090643 -5.167191
  H 6.134903 -0.834622 -2.028367
  H 0.689555 0.579668 1.509491
  H 0.537523 -0.799230 0.402313
  H 0.534451 0.813103 -0.243584
  H 2.304328 -0.662117 -1.590754
  H 4.968034 -0.089238 -0.167489
  H 5.107578 -2.363286 -3.524256
  H 5.107960 -0.761243 -4.165658
  H 2.654002 -0.552728 -3.718317
  H 2.653494 -2.204531 -3.057365
  H 3.439449 -1.436881 -5.906229
  H 1.928246 -2.189330 -5.414816
  H 3.438915 -3.074001 -5.251264
 22
 3.246691
  C 0.993384 0.171318 0.576562
  C 2.404685 0.116849 0.352843
  H 3.075888 0.444292 1.139471
  C 2.951485 -0.348306 -0.820099
  C 4.337010 -0.416591 -1.003786
  C 5.035752 -0.856059 -2.102207
  C 4.610321 -1.379331 -3.400097
  C 3.141197 -1.528660 -3.762362
  C 2.990983 -2.096192 -5.171738
  H 6.114838 -0.815064 -2.009739
  H 0.693185 0.585095 1.533579
  H 0.493764 -0.786948 0.415003
  H 0.736678 0.799203 -0.246294
  H 2.284008 -0.664869 -1.603884
  H 4.934829 -0.078666 -0.166205
  H 5.110051 -2.352549 -3.518387
  H 5.105918 -0.757369 -4.160547
  H 2.645834 -0.557037 -3.727700
  H 2.649512 -2.207271 -3.063366
  H 3.450302 -1.441432 -5.908775
  H 1.939626 -2.201209 -5.427028
  H 3.453868 -3.077199 -5.250556
 22
 8.012585
  C 0.972902 0.145567 0.625592
  C 2.392044 0.106850 0.376250
  H 3.082762 0.426364 1.150137
  C 2.931368 -0.337285 -0.807812
  C 4.325808 -0.395491 -0.999637
  C 5.035076 -0.839856 -2.112986
  C 4.612489 -1.375784 -3.413188
  C 3.143285 -1.537967 -3.775743
  C 2.999231 -2.118378 -5.180140
  H 6.115169 -0.787124 -2.020106
  H 0.667968 0.525298 1.601431
  H 0.391017 -0.737037 0.317027
  H 0.932999 0.874182 -0.183420
  H 2.265008 -0.652847 -1.590338
  H 4.925697 -0.053246 -0.162655
  H 5.120036 -2.344642 -3.528139
  H 5.105015 -0.758998 -4.178837
  H 2.642610 -0.568834 -3.750420
  H 2.656299 -2.214231 -3.071286
  H 3.456318 -1.466679 -5.921466
  H 1.949221 -2.232929 -5.437115
  H 3.469544 -3.096705 -5.249270
 22
 13.720049
  C 0.970014 0.119985 0.639050
  C 2.385035 0.104806 0.372889
  H 3.075359 0.422373 1.150936
  C 2.935435 -0.336734 -0.824194
  C 4.316870 -0.387109 -1.009228
  C 5.024144 -0.823584 -2.104995
  C 4.609037 -1.368740 -3.409048
  C 3.138919 -1.539745 -3.772459
  C 2.999449 -2.129106 -5.174875
  H 6.104427 -0.763085 -2.008385
  H 0.655225 0.453486 1.611277
  H 0.356265 -0.685783 0.236372
  H 1.097456 0.910638 -0.127994
  H 2.275447 -0.654551 -1.610284
  H 4.910891 -0.041515 -0.173339
  H 5.120120 -2.337368 -3.517042
  H 5.098111 -0.749986 -4.176267
  H 2.634249 -0.572595 -3.753465
  H 2.654917 -2.214755 -3.064776
  H 3.455122 -1.479291 -5.918856
  H 1.950347 -2.250316 -5.433272
  H 3.475049 -3.105482 -5.237471
 22
 19.116373
  C 0.962466 0.096217 0.655187
  C 2.373666 0.107033 0.364619
  H 3.061893 0.421759 1.138202
  C 2.925577 -0.332413 -0.834029
  C 4.316238 -0.380608 -1.019561
  C 5.024111 -0.817574 -2.111459
  C 4.612867 -1.365948 -3.409362
  C 3.143938 -1.538399 -3.768555
  C 3.003917 -2.133621 -5.167305
  H 6.101497 -0.755108 -2.016350
  H 0.633930 0.408330 1.633771
  H 0.327040 -0.647913 0.199990
  H 1.222943 0.927505 -0.094014
  H 2.263602 -0.654092 -1.621397
  H 4.910986 -0.031801 -0.183141
  H 5.122264 -2.334530 -3.512573
  H 5.098597 -0.748481 -4.177942
  H 2.639505 -0.571280 -3.753753
  H 2.661666 -2.210858 -3.057280
  H 3.459235 -1.486765 -5.914058
  H 1.954874 -2.256648 -5.424633
  H 3.480523 -3.109743 -5.225524
 22
 22.208041
  C 0.964095 0.082722 0.685714
  C 2.357739 0.114779 0.365013
  H 3.050543 0.429896 1.136959
  C 2.914703 -0.327517 -0.838637
  C 4.306848 -0.371716 -1.021678
  C 5.019134 -0.806032 -2.102887
  C 4.616165 -1.366377 -3.415527
  C 3.145117 -1.546727 -3.783702
  C 3.014255 -2.147682 -5.181114
  H 6.097791 -0.737780 -2.001153
  H 0.648629 0.364983 1.660394
  H 0.294458 -0.596132 0.161472
  H 1.323597 0.960814 -0.000942
  H 2.252617 -0.652330 -1.623277
  H 4.899996 -0.018813 -0.184107
  H 5.127720 -2.335023 -3.511117
  H 5.101575 -0.746907 -4.183409
  H 2.637346 -0.581287 -3.775702
  H 2.662135 -2.218815 -3.072845
  H 3.471699 -1.501744 -5.927421
  H 1.966859 -2.275825 -5.444099
  H 3.495294 -3.121914 -5.232863
 22
 24.130632
  C 0.965245 0.068462 0.697417
  C 2.350618 0.120825 0.364191
  H 3.033298 0.432933 1.135530
  C 2.912115 -0.323870 -0.845542
  C 4.297479 -0.365069 -1.025556
  C 5.015233 -0.799258 -2.104836
  C 4.618256 -1.365551 -3.419945
  C 3.150319 -1.551364 -3.790164
  C 3.024580 -2.157295 -5.185667
  H 6.092511 -0.727196 -1.999899
  H 0.647638 0.324924 1.690281
  H 0.283134 -0.542280 0.122960
  H 1.409171 0.984257 0.075994
  H 2.248622 -0.649485 -1.628793
  H 4.887065 -0.010619 -0.188722
  H 5.131182 -2.332497 -3.510372
  H 5.101909 -0.746153 -4.187117
  H 2.640152 -0.587540 -3.786360
  H 2.668356 -2.222715 -3.078062
  H 3.482163 -1.512417 -5.933134
  H 1.977878 -2.289636 -5.450828
  H 3.509157 -3.130420 -5.232892
 22
 25.567513
  C 0.958410 0.039102 0.671931
  C 2.349031 0.124987 0.347552
  H 3.043545 0.436393 1.147200
  C 2.916402 -0.323040 -0.860257
  C 4.302518 -0.360746 -1.036047
  C 5.025924 -0.798563 -2.120602
  C 4.629623 -1.360179 -3.411925
  C 3.156892 -1.543329 -3.764961
  C 3.014490 -2.155423 -5.161285
  H 6.103226 -0.726191 -2.020946
  H 0.625014 0.259265 1.662895
  H 0.272922 -0.509757 0.039545
  H 1.476069 0.998554 0.112216
  H 2.258307 -0.649528 -1.640490
  H 4.889516 -0.002951 -0.199612
  H 5.142797 -2.334365 -3.501173
  H 5.109616 -0.738069 -4.187636
  H 2.648743 -0.576556 -3.758139
  H 2.681097 -2.211377 -3.044210
  H 3.465633 -1.514733 -5.915425
  H 1.966000 -2.286033 -5.415019
  H 3.495997 -3.129297 -5.210664
 22
 26.815980
  C 0.958725 0.032948 0.697193
  C 2.349364 0.139603 0.363321
  H 3.033896 0.428104 1.140764
  C 2.914650 -0.310868 -0.852249
  C 4.298585 -0.351627 -1.032726
  C 5.019724 -0.789326 -2.109900
  C 4.628187 -1.361289 -3.416983
  C 3.158398 -1.551417 -3.783424
  C 3.030399 -2.168667 -5.182170
  H 6.100103 -0.714959 -2.005827
  H 0.618619 0.240705 1.703994
  H 0.271931 -0.465065 0.039587
  H 1.533943 1.018355 0.168357
  H 2.250802 -0.635553 -1.629342
  H 4.885406 0.004485 -0.201010
  H 5.144005 -2.334690 -3.499373
  H 5.110961 -0.738679 -4.190451
  H 2.647313 -0.587365 -3.783814
  H 2.679425 -2.219603 -3.065591
  H 3.486388 -1.527674 -5.934172
  H 1.983092 -2.304230 -5.445655
  H 3.516767 -3.141766 -5.224672
 22
 28.399000
  C 0.960959 0.013173 0.685157
  C 2.349950 0.145615 0.357203
  H 3.052686 0.426395 1.161190
  C 2.920187 -0.304961 -0.858513
  C 4.301228 -0.344695 -1.032202
  C 5.024206 -0.785114 -2.109152
  C 4.629852 -1.362446 -3.421273
  C 3.161674 -1.551661 -3.782836
  C 3.032291 -2.164491 -5.162391
  H 6.093698 -0.711158 -2.005112
  H 0.610470 0.211422 1.688651
  H 0.277648 -0.452145 -0.000479
  H 1.584194 1.022902 0.177449
  H 2.250388 -0.633816 -1.648922
  H 4.892281 0.015438 -0.190944
  H 5.139638 -2.327925 -3.503008
  H 5.107525 -0.748023 -4.191900
  H 2.652826 -0.591166 -3.785624
  H 2.685094 -2.215783 -3.065926
  H 3.485964 -1.527625 -5.912637
  H 1.989635 -2.298847 -5.421354
  H 3.515854 -3.132953 -5.201853
 22
 29.678667
  C 0.958156 -0.004831 0.680127
  C 2.351288 0.153840 0.355182
  H 3.042806 0.412556 1.152222
  C 2.929025 -0.300510 -0.860794
  C 4.311455 -0.340230 -1.031152
  C 5.036353 -0.781022 -2.106795
  C 4.641377 -1.357879 -3.413372
  C 3.162325 -1.548047 -3.772655
  C 3.026416 -2.166687 -5.160240
  H 6.117870 -0.706172 -2.001457
  H 0.597709 0.192014 1.681693
  H 0.279425 -0.442750 -0.026544
  H 1.627358 1.033469 0.181051
  H 2.266869 -0.625056 -1.647237
  H 4.897599 0.017819 -0.195163
  H 5.149946 -2.322377 -3.494754
  H 5.116877 -0.744884 -4.184828
  H 2.651682 -0.583470 -3.775448
  H 2.685423 -2.213969 -3.050591
  H 3.477293 -1.532292 -5.912496
  H 1.984524 -2.300565 -5.415547
  H 3.508859 -3.135567 -5.200805
 22
 31.068284
  C 0.963711 -0.013011 0.693347
  C 2.353569 0.167087 0.366656
  H 3.052259 0.411391 1.172239
  C 2.926038 -0.294267 -0.853443
  C 4.305932 -0.337590 -1.029853
  C 5.028952 -0.779414 -2.106813
  C 4.639018 -1.357288 -3.413000
  C 3.167283 -1.550960 -3.780058
  C 3.041941 -2.171788 -5.169352
  H 6.101398 -0.706091 -2.001693
  H 0.599927 0.186778 1.691140
  H 0.283015 -0.430126 -0.026157
  H 1.673873 1.048771 0.192310
  H 2.258358 -0.614803 -1.636230
  H 4.897874 0.021654 -0.193120
  H 5.149165 -2.319727 -3.490011
  H 5.116129 -0.743694 -4.180751
  H 2.653890 -0.586719 -3.786448
  H 2.687559 -2.217751 -3.059367
  H 3.500333 -1.530787 -5.926399
  H 1.991905 -2.309937 -5.433741
  H 3.531416 -3.147731 -5.206297
 22
 31.792758
  C 0.957757 -0.037856 0.685910
  C 2.358460 0.174915 0.360294
  H 3.046883 0.392177 1.172874
  C 2.938094 -0.290807 -0.860020
  C 4.316957 -0.332519 -1.032573
  C 5.040474 -0.777075 -2.110576
  C 4.646347 -1.355375 -3.410457
  C 3.174405 -1.543798 -3.767293
  C 3.038062 -2.168451 -5.154434
  H 6.117033 -0.706556 -2.006952
  H 0.584096 0.165846 1.675862
  H 0.276741 -0.434017 -0.048239
  H 1.718033 1.071216 0.181809
  H 2.272750 -0.610515 -1.644860
  H 4.906904 0.027557 -0.196365
  H 5.154961 -2.324219 -3.487765
  H 5.123357 -0.741949 -4.185010
  H 2.667214 -0.580681 -3.772718
  H 2.698749 -2.203661 -3.043642
  H 3.492049 -1.535030 -5.912509
  H 1.991021 -2.302535 -5.411126
  H 3.521137 -3.142424 -5.191619
 22
 32.691577
  C 0.961500 -0.055064 0.692270
  C 2.359933 0.188338 0.364145
  H 3.050024 0.385279 1.185363
  C 2.939094 -0.283560 -0.858650
  C 4.317411 -0.327940 -1.033619
  C 5.040142 -0.775700 -2.111385
  C 4.649077 -1.354346 -3.407103
  C 3.177085 -1.543203 -3.770677
  C 3.047178 -2.170163 -5.155217
  H 6.117208 -0.707422 -2.006400
  H 0.584242 0.152745 1.678220
  H 0.279928 -0.436620 -0.049294
  H 1.768112 1.096888 0.178360
  H 2.272745 -0.600182 -1.638282
  H 4.907482 0.030353 -0.200872
  H 5.156944 -2.321964 -3.480751
  H 5.128938 -0.743564 -4.179504
  H 2.668692 -0.577933 -3.781177
  H 2.696386 -2.202842 -3.046639
  H 3.505997 -1.537138 -5.913944
  H 1.999443 -2.304507 -5.416724
  H 3.530964 -3.146156 -5.187668
