 17
 0.000000
  H 1.426681 0.188031 0.519236
  C 2.491345 0.133409 0.383342
  H 3.128162 0.457341 1.189206
  C 3.008188 -0.337360 -0.788637
  C 4.395220 -0.415437 -0.983399
  C 5.113878 -0.864225 -2.102818
  C 4.627006 -1.384727 -3.400834
  C 3.143251 -1.504796 -3.700374
  H 3.025281 -1.906623 -4.702318
  O 6.420705 -0.844444 -2.053741
  H 2.330583 -0.648821 -1.564320
  H 4.992851 -0.077532 -0.141272
  H 5.099467 -2.367143 -3.525710
  H 5.099674 -0.761045 -4.170036
  H 2.650696 -0.536656 -3.672490
  H 2.650662 -2.185367 -3.011298
  H 6.793478 -0.508577 -1.214083
 17
 1.378498
  H 1.418099 0.273565 0.493407
  C 2.472314 0.094046 0.381518
  H 3.079421 0.159814 1.269655
  C 3.011209 -0.213265 -0.834906
  C 4.388324 -0.438150 -0.974799
  C 5.116371 -0.849742 -2.101698
  C 4.627813 -1.393822 -3.383487
  C 3.144008 -1.557552 -3.650943
  H 3.020441 -2.033728 -4.618953
  O 6.418818 -0.885488 -2.026167
  H 2.362949 -0.261895 -1.692335
  H 4.971739 -0.328462 -0.068734
  H 5.132674 -2.360274 -3.509392
  H 5.073298 -0.767788 -4.167862
  H 2.635465 -0.599094 -3.695610
  H 2.670085 -2.193020 -2.908142
  H 6.822732 -0.295309 -1.359247
 17
 6.789450
  H 1.392271 0.256052 0.519560
  C 2.449959 0.097463 0.400447
  H 3.068573 0.229550 1.273491
  C 2.979401 -0.254184 -0.803673
  C 4.362908 -0.450099 -0.947626
  C 5.099755 -0.881320 -2.056663
  C 4.632197 -1.413247 -3.351168
  C 3.155336 -1.530521 -3.673646
  H 3.051724 -1.955123 -4.669008
  O 6.411089 -0.988516 -1.914953
  H 2.321449 -0.371174 -1.647358
  H 4.957262 -0.305255 -0.052116
  H 5.115914 -2.393433 -3.468113
  H 5.126035 -0.802402 -4.119254
  H 2.669176 -0.559285 -3.680913
  H 2.643983 -2.193358 -2.980520
  H 6.913389 -0.200274 -1.645986
 17
 11.563106
  H 1.357286 0.232338 0.530428
  C 2.419991 0.117659 0.403504
  H 3.046254 0.358967 1.247262
  C 2.947652 -0.314361 -0.775230
  C 4.337159 -0.459573 -0.925718
  C 5.090130 -0.900509 -2.018839
  C 4.651369 -1.399424 -3.331677
  C 3.181153 -1.476370 -3.694116
  H 3.091651 -1.865336 -4.705335
  O 6.401420 -1.000265 -1.799956
  H 2.283859 -0.542496 -1.591560
  H 4.949861 -0.208928 -0.066709
  H 5.109857 -2.393650 -3.441522
  H 5.177510 -0.801238 -4.088129
  H 2.715056 -0.494933 -3.677605
  H 2.640612 -2.150740 -3.035270
  H 7.008842 -0.264694 -1.967919
 17
 8.575001
  H 1.325599 0.199739 0.548253
  C 2.390253 0.113672 0.415852
  H 3.015690 0.377286 1.253301
  C 2.922624 -0.327941 -0.757209
  C 4.311400 -0.455100 -0.907150
  C 5.084695 -0.904501 -1.987265
  C 4.680648 -1.395494 -3.317882
  C 3.211268 -1.453278 -3.696482
  H 3.125332 -1.848016 -4.705699
  O 6.374918 -0.938924 -1.701487
  H 2.263132 -0.578592 -1.570903
  H 4.949936 -0.117868 -0.096267
  H 5.116679 -2.401266 -3.401477
  H 5.217456 -0.809182 -4.074528
  H 2.760982 -0.464273 -3.693943
  H 2.654985 -2.111790 -3.035636
  H 7.038407 -0.451558 -2.217978
 17
 3.772819
  H 1.299174 0.146893 0.539279
  C 2.364670 0.061074 0.422107
  H 2.972311 0.197639 1.300602
  C 2.918300 -0.249767 -0.780930
  C 4.303924 -0.396818 -0.911087
  C 5.095108 -0.833095 -1.985969
  C 4.707176 -1.392709 -3.300319
  C 3.237844 -1.466905 -3.675783
  H 3.151991 -1.931948 -4.653771
  O 6.373231 -0.788950 -1.683510
  H 2.277475 -0.382639 -1.636697
  H 4.948849 -0.102756 -0.088007
  H 5.128062 -2.408897 -3.308909
  H 5.236821 -0.852530 -4.089723
  H 2.797407 -0.476692 -3.744919
  H 2.675735 -2.068749 -2.968726
  H 7.017194 -0.628354 -2.400170
 17
 13.465397
  H 1.310701 0.181913 0.578628
  C 2.365784 0.025691 0.445470
  H 2.976489 0.024373 1.332280
  C 2.903213 -0.158638 -0.789484
  C 4.266479 -0.389715 -0.967493
  C 5.056889 -0.834580 -2.033321
  C 4.723646 -1.446364 -3.323215
  C 3.248008 -1.511657 -3.671856
  H 3.131722 -1.962425 -4.655484
  O 6.319038 -0.778540 -1.647012
  H 2.278411 -0.078377 -1.666331
  H 5.065757 -0.224284 -0.237585
  H 5.164571 -2.451523 -3.336180
  H 5.245167 -0.893076 -4.112984
  H 2.810383 -0.518150 -3.710858
  H 2.703715 -2.121807 -2.956374
  H 7.017483 -0.450805 -2.246611
 17
 42.193420
  H 1.332043 0.264814 0.705580
  C 2.374068 0.068209 0.521540
  H 3.009061 -0.044302 1.384888
  C 2.851390 -0.042983 -0.742253
  C 4.173493 -0.355248 -1.048693
  C 4.974253 -0.828012 -2.073562
  C 4.745279 -1.493980 -3.362641
  C 3.269452 -1.616392 -3.726244
  H 3.162812 -2.113354 -4.685739
  O 6.235159 -0.713608 -1.589001
  H 2.190299 0.162565 -1.578345
  H 5.274452 -0.221823 -0.465201
  H 5.200915 -2.488962 -3.320628
  H 5.272899 -0.938062 -4.145595
  H 2.805225 -0.637099 -3.794186
  H 2.736999 -2.199744 -2.979861
  H 6.903123 -0.230931 -2.118472
 17
 60.756156
  H 1.349830 0.328264 0.745719
  C 2.378572 0.103425 0.527021
  H 3.033519 -0.035650 1.371321
  C 2.812476 0.012986 -0.743486
  C 4.106106 -0.314018 -1.137896
  C 4.899626 -0.787389 -2.081555
  C 4.734137 -1.554065 -3.336108
  C 3.269345 -1.765119 -3.703713
  H 3.200141 -2.314911 -4.637162
  O 6.222477 -0.576703 -1.569866
  H 2.126980 0.276403 -1.547132
  H 5.541655 -0.155403 -0.607501
  H 5.238863 -2.518936 -3.233166
  H 5.234766 -1.005406 -4.140380
  H 2.763102 -0.814915 -3.834895
  H 2.754604 -2.335531 -2.933379
  H 6.858599 -0.080920 -2.135813
 17
 55.744954
  H 1.360854 0.286455 0.813012
  C 2.369159 -0.003247 0.569637
  H 3.007108 -0.265205 1.393386
  C 2.796704 -0.012446 -0.703999
  C 4.068404 -0.372762 -1.128544
  C 4.871692 -0.816705 -2.058569
  C 4.736457 -1.504167 -3.363834
  C 3.283062 -1.629498 -3.803962
  H 3.233524 -2.113347 -4.775486
  O 6.223828 -0.703809 -1.485382
  H 2.125968 0.359699 -1.479392
  H 5.715850 -0.338554 -0.620382
  H 5.190512 -2.496841 -3.291981
  H 5.295838 -0.934129 -4.110359
  H 2.819485 -0.649556 -3.889463
  H 2.714173 -2.228307 -3.098353
  H 6.879557 -0.184133 -2.010841
 17
 48.897636
  H 1.309871 0.252032 0.774900
  C 2.322695 -0.025190 0.548858
  H 2.929951 -0.367381 1.366093
  C 2.789406 0.028029 -0.711067
  C 4.053081 -0.360791 -1.129388
  C 4.868148 -0.783428 -2.052970
  C 4.736470 -1.466185 -3.365188
  C 3.283735 -1.644492 -3.780389
  H 3.230538 -2.183770 -4.723130
  O 6.262317 -0.728122 -1.506481
  H 2.165949 0.494535 -1.473729
  H 5.921948 -0.368366 -0.637985
  H 5.225894 -2.444339 -3.292240
  H 5.264917 -0.887695 -4.123381
  H 2.791091 -0.683861 -3.908279
  H 2.730837 -2.223686 -3.045067
  H 6.925949 -0.238721 -2.046978
 17
 44.683955
  H 1.308412 0.275018 0.772102
  C 2.309757 -0.026419 0.528321
  H 2.926601 -0.358357 1.338995
  C 2.758579 0.022267 -0.732837
  C 4.030333 -0.349248 -1.150651
  C 4.877810 -0.793486 -2.030755
  C 4.753138 -1.495600 -3.335395
  C 3.292639 -1.637855 -3.774566
  H 3.238922 -2.130959 -4.741817
  O 6.289105 -0.734489 -1.548578
  H 2.112023 0.454666 -1.496392
  H 6.089410 -0.389303 -0.644628
  H 5.218168 -2.483757 -3.257214
  H 5.307826 -0.919416 -4.083737
  H 2.815953 -0.662686 -3.865789
  H 2.726642 -2.232467 -3.059157
  H 6.904544 -0.204848 -2.106341
 17
 40.984290
  H 1.304051 0.286884 0.802945
  C 2.289840 -0.046991 0.527908
  H 2.887913 -0.489255 1.304067
  C 2.741256 0.074888 -0.746065
  C 3.983405 -0.314468 -1.187634
  C 4.877391 -0.768197 -2.018864
  C 4.752327 -1.505272 -3.315059
  C 3.297986 -1.646352 -3.768574
  H 3.257981 -2.160729 -4.723424
  O 6.283358 -0.722311 -1.572546
  H 2.108444 0.567356 -1.479782
  H 6.232360 -0.404692 -0.641326
  H 5.204424 -2.494472 -3.199528
  H 5.314674 -0.958781 -4.080235
  H 2.831908 -0.669970 -3.889390
  H 2.719749 -2.218974 -3.047882
  H 6.872797 -0.195605 -2.153050
 17
 41.862847
  H 1.245880 0.224090 0.727633
  C 2.261163 -0.042631 0.497124
  H 2.875598 -0.366326 1.319131
  C 2.728271 0.014725 -0.763447
  C 4.015963 -0.310153 -1.147506
  C 4.891427 -0.756200 -1.989262
  C 4.740389 -1.472603 -3.301150
  C 3.287606 -1.610420 -3.733689
  H 3.234015 -2.142144 -4.679793
  O 6.310241 -0.740232 -1.591105
  H 2.076981 0.397759 -1.547632
  H 6.382504 -0.470127 -0.645801
  H 5.193848 -2.462383 -3.207327
  H 5.286852 -0.913282 -4.063778
  H 2.828977 -0.634673 -3.868771
  H 2.713340 -2.166282 -2.997264
  H 6.886808 -0.216060 -2.195804
