 17
 0.000000
  H 1.433585 -0.075865 0.039123
  C 2.505878 -0.083029 0.025062
  C 3.219891 -0.594189 -0.978435
  C 4.657065 -0.605975 -1.001570
  C 5.377626 -1.121303 -2.013243
  C 6.815403 -1.131503 -2.033264
  C 7.535097 -1.642378 -3.036203
  C 9.024330 -1.661490 -3.073715
  H 3.004167 0.352075 0.879247
  H 2.709376 -1.027646 -1.829373
  H 5.162042 -0.171388 -0.148405
  H 4.871338 -1.555822 -2.866276
  H 7.320680 -0.696888 -1.180043
  H 7.036666 -2.078549 -3.892463
  H 9.455655 -1.208108 -2.183662
  H 9.384289 -1.116262 -3.947183
  H 9.384289 -2.688598 -3.146264
 17
 0.226986
  H 1.423715 -0.102482 0.020608
  C 2.500109 -0.108898 0.038345
  C 3.221746 -0.590539 -0.971872
  C 4.659607 -0.616796 -0.988496
  C 5.386995 -1.082267 -2.018249
  C 6.821644 -1.125635 -2.036222
  C 7.539056 -1.571608 -3.070584
  C 9.024979 -1.675872 -3.077977
  H 2.967902 0.297563 0.920128
  H 2.725669 -0.993557 -1.846473
  H 5.161206 -0.227503 -0.111212
  H 4.883294 -1.478206 -2.891407
  H 7.327244 -0.779934 -1.142642
  H 7.033738 -1.908233 -3.966293
  H 9.466278 -1.044771 -2.308958
  H 9.428151 -1.390046 -4.048039
  H 9.325692 -2.708293 -2.887641
 17
 0.681296
  H 1.417362 -0.139448 0.024427
  C 2.495399 -0.116892 0.035283
  C 3.222777 -0.601147 -0.968571
  C 4.663412 -0.588391 -0.995498
  C 5.396373 -1.050236 -2.023075
  C 6.829536 -1.073557 -2.044650
  C 7.545334 -1.510193 -3.084582
  C 9.020748 -1.705183 -3.070951
  H 2.958015 0.320928 0.906151
  H 2.730671 -1.035498 -1.833994
  H 5.160116 -0.170015 -0.129838
  H 4.900194 -1.490521 -2.878569
  H 7.334614 -0.737474 -1.148366
  H 7.035108 -1.812487 -3.989255
  H 9.495153 -1.079333 -2.316371
  H 9.452881 -1.482520 -4.042598
  H 9.248003 -2.746980 -2.838966
 17
 3.253713
  H 1.403488 -0.209486 0.001757
  C 2.478691 -0.174789 0.032426
  C 3.229641 -0.611491 -0.976918
  C 4.666766 -0.565912 -0.985095
  C 5.418852 -0.954599 -2.028413
  C 6.854259 -0.978365 -2.042235
  C 7.528425 -1.509805 -3.067041
  C 8.994633 -1.788420 -3.070086
  H 2.920124 0.241884 0.922922
  H 2.760098 -1.026246 -1.860276
  H 5.146086 -0.178757 -0.094306
  H 4.975405 -1.479204 -2.865775
  H 7.379257 -0.573627 -1.187273
  H 7.020933 -1.686816 -4.006503
  H 9.525661 -1.129217 -2.385202
  H 9.417053 -1.683757 -4.067274
  H 9.165280 -2.815187 -2.742409
 17
 10.931935
  H 1.404238 -0.325485 0.005596
  C 2.479396 -0.296901 0.050401
  C 3.239867 -0.615670 -0.996825
  C 4.671663 -0.554516 -0.994778
  C 5.432013 -0.862368 -2.062754
  C 6.866766 -0.843228 -2.070576
  C 7.516006 -1.451108 -3.076665
  C 8.955847 -1.845872 -3.044345
  H 2.912446 0.015050 0.987159
  H 2.778531 -0.924709 -1.926310
  H 5.145060 -0.245852 -0.075465
  H 5.061114 -1.476168 -2.872235
  H 7.394176 -0.318808 -1.282569
  H 7.044381 -1.511241 -4.048822
  H 9.533512 -1.210085 -2.379747
  H 9.400084 -1.825494 -4.034974
  H 9.028844 -2.866839 -2.666400
 17
 23.645191
  H 1.390435 -0.468202 -0.059186
  C 2.462773 -0.405436 0.022158
  C 3.266067 -0.610956 -1.024277
  C 4.693728 -0.479370 -0.978202
  C 5.495915 -0.783141 -2.020296
  C 6.921184 -0.672651 -2.078176
  C 7.489610 -1.390117 -3.078143
  C 8.874404 -1.954130 -3.035082
  H 2.858072 -0.163105 0.996273
  H 2.842219 -0.841252 -1.990050
  H 5.126923 -0.183581 -0.030516
  H 5.218271 -1.489453 -2.798237
  H 7.483646 -0.045822 -1.399105
  H 7.055205 -1.358561 -4.068244
  H 9.498479 -1.432169 -2.311405
  H 9.358353 -1.931291 -4.007387
  H 8.809386 -2.996905 -2.717737
 17
 38.433566
  H 1.413502 -0.716677 -0.123829
  C 2.473164 -0.595447 0.001575
  C 3.315221 -0.651552 -1.025998
  C 4.734444 -0.456537 -0.914417
  C 5.572486 -0.600272 -1.965561
  C 6.997265 -0.485203 -2.054380
  C 7.447654 -1.255299 -3.090588
  C 8.740118 -2.013021 -3.093994
  H 2.815860 -0.352036 0.993583
  H 2.938266 -0.865364 -2.021420
  H 5.132369 -0.314856 0.080502
  H 5.369323 -1.316174 -2.754390
  H 7.632422 0.092563 -1.393000
  H 7.046643 -1.074349 -4.079698
  H 9.454327 -1.579263 -2.385615
  H 9.207102 -2.037778 -4.077899
  H 8.542498 -3.038247 -2.773897
 17
 58.919596
  H 1.408690 -0.705010 -0.272233
  C 2.459424 -0.588947 -0.084435
  C 3.368141 -0.646098 -1.070609
  C 4.774584 -0.436843 -0.880674
  C 5.679773 -0.579746 -1.885967
  C 7.036477 -0.354756 -2.094235
  C 7.383549 -1.284039 -3.089618
  C 8.644468 -2.085382 -3.027525
  H 2.753835 -0.471335 0.944768
  H 3.041635 -0.798816 -2.090556
  H 5.118960 -0.294785 0.140101
  H 5.599608 -1.447187 -2.619982
  H 7.668286 0.402581 -1.670682
  H 6.993930 -1.132098 -4.081977
  H 9.382705 -1.605680 -2.380595
  H 9.090060 -2.221413 -4.012379
  H 8.427639 -3.067056 -2.610649
 17
 72.670838
  H 1.462214 -0.857068 -0.440289
  C 2.496327 -0.719652 -0.177679
  C 3.455204 -0.637659 -1.101121
  C 4.841153 -0.416950 -0.804471
  C 5.812992 -0.419434 -1.730748
  C 7.088971 -0.184093 -2.083122
  C 7.269038 -1.235636 -3.068055
  C 8.478951 -2.130333 -3.024492
  H 2.720114 -0.644410 0.873818
  H 3.196838 -0.714499 -2.151440
  H 5.120533 -0.394978 0.245231
  H 5.862823 -1.442426 -2.615092
  H 7.795879 0.554569 -1.751232
  H 6.885382 -1.040994 -4.061629
  H 9.252773 -1.678633 -2.404294
  H 8.877083 -2.315926 -4.020289
  H 8.229848 -3.095135 -2.581795
 17
 57.599580
  H 1.494451 -0.888766 -0.511524
  C 2.514820 -0.747231 -0.207779
  C 3.506887 -0.678631 -1.087547
  C 4.872698 -0.391216 -0.740639
  C 5.874990 -0.337927 -1.590892
  C 7.056405 -0.101998 -2.119684
  C 7.196005 -1.237168 -3.077874
  C 8.413288 -2.147718 -3.013740
  H 2.687131 -0.605973 0.845345
  H 3.297593 -0.795051 -2.144696
  H 5.110840 -0.363766 0.323409
  H 6.136533 -1.606763 -2.691891
  H 7.761761 0.682836 -1.925048
  H 6.793282 -1.070792 -4.087062
  H 9.201658 -1.674126 -2.423861
  H 8.797026 -2.362600 -4.009260
  H 8.172026 -3.097651 -2.535012
 17
 40.875896
  H 1.465233 -0.832913 -0.501023
  C 2.487291 -0.690790 -0.196942
  C 3.464875 -0.505158 -1.080230
  C 4.860868 -0.383265 -0.724659
  C 5.857202 -0.331750 -1.581202
  C 7.013608 -0.185932 -2.163439
  C 7.170615 -1.362602 -3.108789
  C 8.466791 -2.141145 -2.997187
  H 2.681478 -0.714753 0.863005
  H 3.237292 -0.460520 -2.137199
  H 5.104128 -0.500797 0.328082
  H 6.179657 -1.782303 -2.758065
  H 7.744822 0.584512 -1.996727
  H 6.844281 -1.149952 -4.131508
  H 9.176146 -1.591750 -2.383368
  H 8.908620 -2.308922 -3.976237
  H 8.307403 -3.113908 -2.533574
 17
 25.015576
  H 1.440918 -0.501643 -0.557437
  C 2.456193 -0.550937 -0.203757
  C 3.493866 -0.429080 -1.026728
  C 4.872310 -0.523709 -0.595910
  C 5.901494 -0.470178 -1.397986
  C 6.932243 -0.282614 -2.165467
  C 7.164454 -1.426218 -3.126298
  C 8.528151 -2.099797 -3.065482
  H 2.589239 -0.705599 0.854850
  H 3.336298 -0.278499 -2.087130
  H 5.036832 -0.778768 0.446216
  H 6.298251 -2.035228 -2.814497
  H 7.597605 0.563223 -2.108178
  H 6.836121 -1.184008 -4.142700
  H 9.191417 -1.545420 -2.405214
  H 8.985620 -2.152897 -4.050239
  H 8.448323 -3.112438 -2.677133
 17
 16.619312
  H 1.538169 -0.573777 0.003641
  C 2.589008 -0.381652 0.133989
  C 3.453531 -0.489804 -0.869619
  C 4.876064 -0.249768 -0.729318
  C 5.743683 -0.413109 -1.695620
  C 6.569128 -0.533758 -2.687339
  C 7.145123 -1.890780 -2.991530
  C 8.670985 -1.910628 -3.099029
  H 2.905438 -0.096075 1.124315
  H 3.114954 -0.772008 -1.858044
  H 5.226561 0.019217 0.261237
  H 6.763053 -2.511873 -2.177201
  H 6.868107 0.308049 -3.295041
  H 6.674506 -2.307456 -3.887546
  H 9.078492 -0.919436 -2.912338
  H 8.991654 -2.227191 -4.088349
  H 9.104699 -2.588912 -2.368962
 17
 14.826746
  H 1.401132 -0.129346 -0.377331
  C 2.410267 -0.367464 -0.088802
  C 3.418077 -0.315301 -0.950735
  C 4.788239 -0.628456 -0.597589
  C 5.781176 -0.599966 -1.447298
  C 6.783798 -0.558106 -2.267842
  C 7.211294 -1.723438 -3.118643
  C 8.732363 -1.921656 -3.107140
  H 2.560665 -0.650583 0.940445
  H 3.248220 -0.026700 -1.979730
  H 4.969566 -0.919894 0.430816
  H 6.699593 -2.612452 -2.750659
  H 7.355170 0.354841 -2.387012
  H 6.863296 -1.550938 -4.141338
  H 9.185956 -1.367906 -2.287828
  H 9.181656 -1.577897 -4.035651
  H 8.985029 -2.970811 -2.977910
 17
 14.776721
  H 1.374986 0.020069 -0.398492
  C 2.372489 -0.264315 -0.111214
  C 3.378207 -0.278264 -0.978365
  C 4.732912 -0.653364 -0.627013
  C 5.721612 -0.707112 -1.480457
  C 6.783490 -0.700914 -2.222201
  C 7.262213 -1.844402 -3.079109
  C 8.789136 -1.862926 -3.200260
  H 2.513248 -0.536496 0.922458
  H 3.218553 0.002255 -2.011399
  H 4.901644 -0.948199 0.403034
  H 6.903281 -2.790529 -2.672285
  H 7.353741 0.216243 -2.323586
  H 6.814628 -1.730627 -4.071893
  H 9.248788 -1.381681 -2.339417
  H 9.119298 -1.340504 -4.095101
  H 9.159650 -2.883802 -3.247505
