17

H 1.3839752214144667 0.13774593390455322 0.39405409051817164
C 2.453972 0.138831 0.396445
C 3.235887 0.609601 1.567949
C 2.454651 1.098519 2.78505
H 3.1179584020688824 1.4115772083112994 3.5640993235794185
C 3.07476 -0.323868 -0.755623
C 4.452396 -0.411652 -0.974602
C 5.123831 -0.863395 -2.100714
H 4.763810147796258 -1.2385437130654826 -3.0358869407247644
O 6.448567 -0.86179 -2.097024
H 3.892013 1.422462 1.236076
H 3.892206 -0.206765 1.89066
H 1.816409 0.300727 3.170305
H 1.816264 1.941012 2.511316
H 2.419633 -0.642347 -1.548686
H 5.073532 -0.080521 -0.149771
H 6.820588 -0.526463 -1.260938
