 17
 0.000000
  H 1.493322 0.174794 0.485884
  C 2.573432 0.146907 0.416179
  C 3.301793 0.636700 1.635337
  C 2.340276 1.077173 2.732070
  H 2.888796 1.428080 3.605593
  C 3.137744 -0.303770 -0.705970
  C 4.556094 -0.393805 -0.930478
  C 5.096239 -0.847710 -2.061391
  H 4.503105 -1.184988 -2.901599
  O 6.423570 -0.947019 -2.309010
  H 3.949757 1.476910 1.364663
  H 3.949899 -0.157186 2.021081
  H 1.705208 0.248842 3.036624
  H 1.705107 1.885948 2.379025
  H 2.503081 -0.630844 -1.520132
  H 5.207135 -0.071006 -0.126421
  H 6.905893 -0.633895 -1.528745
 17
 1.848446
  H 1.515684 0.060438 0.516783
  C 2.589841 0.155554 0.415722
  C 3.300589 0.716300 1.611921
  C 2.341708 1.034843 2.754678
  H 2.885136 1.425847 3.611267
  C 3.152959 -0.179345 -0.745954
  C 4.572018 -0.219177 -0.994781
  C 5.100812 -0.815249 -2.063713
  H 4.508804 -1.132545 -2.911226
  O 6.418325 -1.070224 -2.247476
  H 3.832604 1.627142 1.322009
  H 4.052073 0.003681 1.964886
  H 1.808770 0.140088 3.066950
  H 1.610681 1.776076 2.445985
  H 2.524074 -0.544811 -1.548463
  H 5.227673 0.122466 -0.202886
  H 6.866133 -1.030799 -1.395578
 17
 6.149500
  H 1.520642 0.169573 0.451675
  C 2.593482 0.271772 0.355404
  C 3.276977 0.900128 1.531875
  C 2.404690 0.869270 2.781476
  H 2.927496 1.316971 3.624791
  C 3.153816 -0.022247 -0.820234
  C 4.574763 -0.112006 -1.056546
  C 5.096344 -0.891477 -2.006658
  H 4.525133 -1.249210 -2.852397
  O 6.398270 -1.289584 -2.048941
  H 3.519014 1.937631 1.285850
  H 4.220549 0.389884 1.741276
  H 2.148956 -0.154600 3.040871
  H 1.482763 1.422701 2.617738
  H 2.518954 -0.398500 -1.613729
  H 5.229053 0.279543 -0.288218
  H 6.701532 -1.413873 -1.141515
 17
 14.112858
  H 1.557672 0.044988 0.483797
  C 2.611784 0.235646 0.334381
  C 3.306879 0.874613 1.500459
  C 2.455438 0.830892 2.764771
  H 2.987718 1.279873 3.599423
  C 3.114446 0.039227 -0.886870
  C 4.526254 0.037173 -1.182953
  C 5.092365 -0.871807 -1.985486
  H 4.615260 -1.273365 -2.869685
  O 6.374975 -1.312269 -1.799915
  H 3.529122 1.916086 1.247006
  H 4.263559 0.380683 1.698033
  H 2.213379 -0.197002 3.024519
  H 1.525626 1.376234 2.618980
  H 2.462389 -0.367111 -1.650747
  H 5.160117 0.467624 -0.416907
  H 6.419507 -1.549728 -0.869544
 17
 23.381635
  H 1.585208 0.123495 0.394551
  C 2.646030 0.297699 0.277765
  C 3.296761 0.975746 1.458245
  C 2.536400 0.704327 2.753995
  H 2.992481 1.234161 3.587698
  C 3.139835 0.172915 -0.956411
  C 4.548823 0.099584 -1.229684
  C 5.110726 -0.874551 -1.952738
  H 4.700024 -1.264280 -2.879377
  O 6.238840 -1.526002 -1.515838
  H 3.325992 2.052757 1.275422
  H 4.337522 0.641377 1.571975
  H 2.534672 -0.357387 2.982848
  H 1.503521 1.037481 2.660740
  H 2.470824 -0.170744 -1.741911
  H 5.174082 0.521630 -0.456464
  H 6.039069 -1.748682 -0.602144
 17
 38.393161
  H 1.666976 0.005303 0.387496
  C 2.709183 0.265716 0.245267
  C 3.351587 0.930975 1.444390
  C 2.585859 0.648788 2.699444
  H 3.062981 1.116941 3.543568
  C 3.155690 0.265580 -1.016292
  C 4.577678 0.250449 -1.349302
  C 5.093845 -0.855032 -1.919725
  H 4.763354 -1.287773 -2.841719
  O 6.028973 -1.558436 -1.205089
  H 3.396143 2.018753 1.249690
  H 4.364649 0.600394 1.559155
  H 2.538024 -0.418889 2.869736
  H 1.560701 1.027708 2.624757
  H 2.503602 -0.096137 -1.812321
  H 5.178521 0.622355 -0.476404
  H 5.591159 -1.609675 -0.354986
 17
 57.061656
  H 1.744898 0.012629 0.286743
  C 2.793347 0.259626 0.161795
  C 3.392409 0.942138 1.381832
  C 2.669026 0.545897 2.633353
  H 3.111917 1.027413 3.491851
  C 3.209404 0.348110 -1.108149
  C 4.632452 0.371159 -1.381140
  C 5.114230 -0.842623 -1.806415
  H 4.855725 -1.320388 -2.746471
  O 5.664158 -1.652931 -0.826337
  H 3.323631 2.026853 1.234938
  H 4.435824 0.705305 1.508910
  H 2.723098 -0.530481 2.771277
  H 1.624212 0.834864 2.576017
  H 2.559339 -0.028710 -1.879191
  H 5.214509 0.780835 -0.519599
  H 4.988975 -1.544311 -0.114722
 17
 67.866466
  H 1.843594 -0.111348 0.259252
  C 2.872897 0.218424 0.133543
  C 3.420721 0.916219 1.349745
  C 2.638062 0.536479 2.605122
  H 3.113157 0.961824 3.491733
  C 3.248443 0.401304 -1.142509
  C 4.675618 0.405551 -1.425079
  C 5.095092 -0.870130 -1.736158
  H 4.916471 -1.405440 -2.650559
  O 5.509911 -1.586375 -0.654783
  H 3.352282 1.991022 1.193112
  H 4.482318 0.687963 1.513203
  H 2.602929 -0.541284 2.718707
  H 1.620486 0.906224 2.553831
  H 2.603117 0.018681 -1.924639
  H 5.258072 0.840771 -0.605884
  H 4.757395 -1.434451 -0.027946
 17
 82.701181
  H 1.934322 -0.137513 0.157978
  C 2.963456 0.192612 0.048286
  C 3.457372 0.935051 1.276445
  C 2.754470 0.430919 2.531524
  H 3.150319 0.927163 3.413710
  C 3.369901 0.419182 -1.261487
  C 4.786851 0.446312 -1.393607
  C 5.060431 -0.936491 -1.554700
  H 4.906639 -1.518398 -2.455788
  O 5.065685 -1.512138 -0.388212
  H 3.254101 2.003777 1.156326
  H 4.535115 0.827541 1.417385
  H 2.904424 -0.640157 2.646392
  H 1.685974 0.625820 2.479865
  H 2.776131 0.017276 -2.073577
  H 5.290953 0.858566 -0.517641
  H 4.092347 -1.028285 0.128907
 17
 60.607715
  H 1.972561 -0.206809 0.149292
  C 3.014762 0.092978 0.084422
  C 3.439169 0.939276 1.287755
  C 2.768648 0.423916 2.556905
  H 3.103952 0.992196 3.421398
  C 3.487983 0.398745 -1.279636
  C 4.872452 0.391434 -1.370740
  C 5.067203 -1.023120 -1.613865
  H 4.866050 -1.514262 -2.565783
  O 5.132817 -1.634506 -0.551189
  H 3.167723 1.985949 1.128656
  H 4.519626 0.895708 1.430562
  H 3.021056 -0.618334 2.719119
  H 1.686727 0.506345 2.483007
  H 2.923588 0.033911 -2.129534
  H 5.393240 0.750688 -0.488543
  H 3.744569 -0.831691 0.220178
 17
 47.729991
  H 1.961833 -0.272510 0.231060
  C 3.003046 0.029396 0.164634
  C 3.441401 0.908405 1.340889
  C 2.670205 0.541277 2.607706
  H 3.026091 1.134749 3.448030
  C 3.483410 0.324321 -1.216000
  C 4.846996 0.397927 -1.369190
  C 5.166289 -0.948247 -1.774518
  H 4.913065 -1.323701 -2.780481
  O 5.368552 -1.680054 -0.817166
  H 3.254750 1.955543 1.096769
  H 4.504118 0.805493 1.532136
  H 2.803747 -0.509778 2.846937
  H 1.604256 0.724724 2.484507
  H 2.895965 -0.049824 -2.034833
  H 5.414207 0.753194 -0.499373
  H 3.639803 -0.918374 0.274237
 17
 35.690110
  H 1.902221 -0.160922 0.210357
  C 2.976833 0.011133 0.206372
  C 3.407344 0.920599 1.355880
  C 2.649224 0.580026 2.633224
  H 2.962684 1.228050 3.445079
  C 3.531375 0.275701 -1.150331
  C 4.880714 0.315526 -1.307228
  C 5.234064 -0.966027 -1.896548
  H 4.950735 -1.200912 -2.932178
  O 5.561199 -1.803430 -1.088526
  H 3.212381 1.958826 1.085485
  H 4.481229 0.820088 1.539168
  H 2.835828 -0.453985 2.923164
  H 1.577761 0.703508 2.490159
  H 2.924658 -0.030481 -1.995699
  H 5.475707 0.611828 -0.453109
  H 3.477198 -0.977125 0.356405
 17
 24.711063
  H 1.892883 -0.175152 0.250426
  C 2.980378 -0.060137 0.277900
  C 3.388595 0.917855 1.380525
  C 2.590345 0.675694 2.659589
  H 2.946540 1.322326 3.459188
  C 3.558756 0.159247 -1.075935
  C 4.892829 0.193423 -1.258066
  C 5.317581 -0.923457 -2.084024
  H 4.976780 -0.990035 -3.130679
  O 5.807048 -1.853525 -1.493323
  H 3.218533 1.937765 1.036996
  H 4.452172 0.811140 1.602729
  H 2.692884 -0.359447 2.983526
  H 1.534206 0.882200 2.500709
  H 2.936642 -0.119722 -1.919502
  H 5.525659 0.420838 -0.414072
  H 3.410943 -1.050507 0.498685
 17
 16.337640
  H 1.849452 -0.079048 0.200937
  C 2.935618 -0.054671 0.290255
  C 3.349998 0.960061 1.356645
  C 2.615058 0.711800 2.668529
  H 2.951227 1.410604 3.430023
  C 3.591095 0.083229 -1.041690
  C 4.924612 0.050593 -1.192557
  C 5.376873 -0.942792 -2.155704
  H 4.978779 -0.898148 -3.184744
  O 5.957833 -1.907741 -1.726903
  H 3.127971 1.967270 0.997639
  H 4.424454 0.897013 1.533008
  H 2.800811 -0.299591 3.024289
  H 1.541872 0.838885 2.538953
  H 2.976675 -0.143919 -1.906789
  H 5.563202 0.198021 -0.333996
  H 3.277397 -1.058728 0.584200
 17
 12.980867
  H 1.858235 -0.224773 0.375099
  C 2.947951 -0.251557 0.410039
  C 3.462535 0.769446 1.430581
  C 2.511687 0.923055 2.609874
  H 2.831902 1.736715 3.254633
  C 3.524027 -0.111118 -0.959899
  C 4.832286 0.065481 -1.185020
  C 5.364003 -0.718030 -2.297376
  H 4.931333 -0.535135 -3.300232
  O 6.065636 -1.666367 -2.046261
  H 3.588917 1.732258 0.932419
  H 4.436228 0.456551 1.809646
  H 2.487099 0.010330 3.199743
  H 1.502012 1.136661 2.265988
  H 2.879323 -0.398871 -1.781626
  H 5.504551 0.231628 -0.355182
  H 3.261434 -1.270038 0.703719
