13

C 1.048287 -0.11005 -0.038665
C 2.544163 -0.136687 -0.0395
C 3.258538 -1.267217 -0.045294
C 4.696242 -1.29008 -0.045002
C 5.417869 -2.424761 -0.0526
H 6.487759715383167 -2.4400513697543227 -0.05235154543916595
H 0.688617 0.917958 -0.034402
H 0.652 -0.606862 0.846663
H 0.650696 -0.600949 -0.926675
H 3.046017 0.821802 -0.034978
H 2.746665 -2.221654 -0.050956
H 5.199979 -0.331637 -0.038234
H 4.914593 -3.383396 -0.059374
