 13
 0.000000
  C 1.048713 -0.108586 -0.038713
  C 2.544954 -0.140456 -0.039400
  C 3.256925 -1.268797 -0.045048
  C 4.698425 -1.295105 -0.044737
  C 5.412781 -2.419763 -0.052846
  H 6.486502 -2.432263 -0.052537
  H 0.690268 0.918931 -0.035287
  H 0.651276 -0.605524 0.845501
  H 0.650331 -0.601192 -0.924740
  H 3.049744 0.816017 -0.035120
  H 2.744861 -2.222462 -0.050867
  H 5.202364 -0.336948 -0.037430
  H 4.914283 -3.377435 -0.060145
 13
 -0.323821
  C 1.046544 -0.106171 -0.042191
  C 2.540967 -0.130203 -0.077588
  C 3.260177 -1.250336 -0.024978
  C 4.702369 -1.298975 -0.061988
  C 5.405474 -2.426099 -0.016800
  H 6.480955 -2.430687 -0.046690
  H 0.675829 0.884588 0.207762
  H 0.669296 -0.819651 0.689353
  H 0.641401 -0.383325 -1.015771
  H 3.041948 0.826042 -0.150635
  H 2.753306 -2.205261 0.046993
  H 5.210187 -0.344111 -0.130456
  H 4.923469 -3.388808 0.051573
 13
 -0.779499
  C 1.046484 -0.120166 -0.051578
  C 2.537595 -0.127631 -0.110348
  C 3.266521 -1.238082 -0.021326
  C 4.707758 -1.297073 -0.079628
  C 5.405266 -2.423141 0.029212
  H 6.480953 -2.436300 -0.015863
  H 0.680258 0.776872 0.444781
  H 0.681684 -0.997776 0.480810
  H 0.631541 -0.135155 -1.060674
  H 3.020944 0.828995 -0.252904
  H 2.765359 -2.187496 0.120450
  H 5.219589 -0.352452 -0.220013
  H 4.919703 -3.375591 0.168063
 13
 -0.195153
  C 1.052772 -0.135111 -0.067012
  C 2.536378 -0.127709 -0.216990
  C 3.264138 -1.226720 -0.029007
  C 4.707301 -1.287959 -0.041000
  C 5.399237 -2.417382 0.070736
  H 6.475576 -2.431539 0.071232
  H 0.744758 0.641972 0.632225
  H 0.760776 -1.098707 0.347242
  H 0.545398 0.043713 -1.013721
  H 3.005999 0.814446 -0.464393
  H 2.757596 -2.175370 0.103374
  H 5.225170 -0.340145 -0.126110
  H 4.907250 -3.372001 0.165360
 13
 2.967560
  C 1.062538 -0.150359 -0.053934
  C 2.530868 -0.133719 -0.311244
  C 3.265189 -1.232739 -0.138741
  C 4.708449 -1.291250 -0.092517
  C 5.389940 -2.396194 0.192036
  H 6.464129 -2.401518 0.262625
  H 0.873078 0.420580 0.863469
  H 0.765554 -1.178265 0.172267
  H 0.470398 0.289663 -0.843602
  H 2.987884 0.814577 -0.575916
  H 2.769155 -2.199433 -0.169397
  H 5.228261 -0.343149 -0.187299
  H 4.897153 -3.346802 0.314885
 13
 13.905086
  C 1.076510 -0.150352 -0.054674
  C 2.538199 -0.093595 -0.345141
  C 3.251970 -1.200936 -0.088953
  C 4.690157 -1.269609 0.063606
  C 5.367087 -2.413408 0.143610
  H 6.438665 -2.430931 0.283403
  H 0.883219 0.392155 0.875295
  H 0.926282 -1.185655 0.268074
  H 0.430000 0.227602 -0.838077
  H 2.968316 0.790984 -0.790373
  H 2.801830 -2.171805 -0.277289
  H 5.217090 -0.320619 0.083596
  H 4.867440 -3.366668 0.114430
 13
 33.404831
  C 1.143290 -0.172377 0.005992
  C 2.536930 -0.064227 -0.484461
  C 3.231316 -1.214149 -0.297592
  C 4.654125 -1.271468 -0.042395
  C 5.299480 -2.398306 0.268188
  H 6.325226 -2.406509 0.608237
  H 1.072371 0.217922 1.026027
  H 1.186677 -1.217346 0.329902
  H 0.366197 0.264910 -0.599457
  H 2.923088 0.827425 -0.939967
  H 2.819274 -2.133265 -0.711925
  H 5.146876 -0.316053 0.095161
  H 4.811386 -3.359790 0.186891
 13
 62.114669
  C 1.184208 -0.160359 0.004936
  C 2.527490 -0.000647 -0.559991
  C 3.216189 -1.134782 -0.230028
  C 4.618714 -1.245629 0.085225
  C 5.250271 -2.411426 0.251120
  H 6.285018 -2.466530 0.528456
  H 1.045962 0.081664 1.058666
  H 1.496750 -1.221050 0.398348
  H 0.373012 0.210963 -0.591912
  H 2.854453 0.786344 -1.232209
  H 2.853837 -2.069343 -0.648338
  H 5.148109 -0.318953 0.252426
  H 4.737221 -3.347762 0.138673
 13
 80.250398
  C 1.212730 -0.066777 -0.000992
  C 2.466670 -0.000365 -0.618909
  C 3.134580 -1.211240 -0.285240
  C 4.540638 -1.261249 0.086250
  C 5.214761 -2.382868 0.321048
  H 6.242318 -2.378250 0.642303
  H 1.149640 0.012425 1.076440
  H 1.813168 -1.382315 0.386600
  H 0.337142 0.384791 -0.468713
  H 2.843937 0.791418 -1.248758
  H 2.797294 -2.115782 -0.781021
  H 5.024125 -0.300393 0.224197
  H 4.751811 -3.350462 0.215037
 13
 62.620735
  C 1.193555 -0.007201 -0.054323
  C 2.409845 -0.013981 -0.642197
  C 3.097593 -1.250586 -0.243059
  C 4.516050 -1.275554 0.144773
  C 5.226489 -2.383656 0.295752
  H 6.255612 -2.361746 0.587131
  H 1.129999 0.014965 1.018248
  H 2.149125 -1.492882 0.442349
  H 0.335189 0.512601 -0.476087
  H 2.812524 0.725998 -1.319220
  H 2.792284 -2.157093 -0.768945
  H 4.982951 -0.309481 0.285081
  H 4.780798 -3.356051 0.203438
 13
 39.693209
  C 1.236570 0.126418 -0.005250
  C 2.352992 -0.098530 -0.701711
  C 3.054449 -1.347390 -0.272707
  C 4.480041 -1.289956 0.130884
  C 5.237759 -2.350757 0.337289
  H 6.236437 -2.270105 0.715754
  H 1.221514 0.024168 1.066769
  H 2.255491 -1.622451 0.476025
  H 0.393951 0.729143 -0.367537
  H 2.746290 0.548326 -1.451292
  H 2.826706 -2.208459 -0.917860
  H 4.838595 -0.313575 0.418438
  H 4.910900 -3.339671 0.069737
 13
 26.898402
  C 1.191418 0.152511 -0.057118
  C 2.361779 -0.083491 -0.642919
  C 3.042850 -1.337929 -0.188778
  C 4.496756 -1.295547 0.135656
  C 5.256954 -2.362920 0.305032
  H 6.293586 -2.289646 0.591054
  H 1.012850 -0.102354 0.976176
  H 2.318161 -1.621504 0.607337
  H 0.397216 0.780245 -0.449123
  H 2.836374 0.585211 -1.351574
  H 2.796934 -2.177747 -0.858980
  H 4.913650 -0.301832 0.274830
  H 4.873168 -3.357836 0.156948
 13
 22.731702
  C 1.228817 0.221241 -0.028443
  C 2.310563 -0.194149 -0.658724
  C 2.977217 -1.451526 -0.141075
  C 4.415285 -1.318404 0.249097
  C 5.277403 -2.307485 0.254694
  H 6.311595 -2.163630 0.522301
  H 1.116423 0.187409 1.039063
  H 2.268215 -1.769664 0.637141
  H 0.526816 0.901886 -0.501863
  H 2.777639 0.338801 -1.472916
  H 2.871370 -2.231684 -0.916958
  H 4.714938 -0.323437 0.570832
  H 4.995413 -3.302200 -0.054610
 13
 7.465437
  C 1.312509 0.409808 0.070201
  C 2.100906 -0.479277 -0.502594
  C 2.975578 -1.442210 0.237754
  C 4.427665 -1.273184 -0.109825
  C 5.321038 -2.243366 -0.070012
  H 6.358002 -2.075109 -0.305876
  H 1.271537 0.535147 1.140705
  H 2.843497 -1.302106 1.316280
  H 0.616392 1.014449 -0.506908
  H 2.127759 -0.572304 -1.581068
  H 2.664024 -2.463397 -0.001433
  H 4.720089 -0.270366 -0.393516
  H 5.052699 -3.250925 0.204833
