 23
 0.000000
  H 1.552443 0.159622 0.450802
  C 2.633441 0.140113 0.402885
  C 3.353497 0.617798 1.590511
  C 2.442328 1.075573 2.726836
  C 3.250986 1.558335 3.927985
  C 3.207309 -0.327349 -0.760338
  C 4.582890 -0.414935 -0.979803
  C 5.191313 -0.881901 -2.146968
  C 4.477322 -1.361819 -3.347014
  H 3.394846 -1.322949 -3.251222
  O 6.494444 -0.922095 -2.247790
  H 4.020137 1.442368 1.308739
  H 4.019548 -0.172546 1.958599
  H 1.797847 0.250594 3.038147
  H 1.798931 1.887092 2.379659
  H 3.882982 0.762497 4.317068
  H 2.587454 1.880657 4.727716
  H 3.884143 2.401046 3.657688
  H 2.537900 -0.643118 -1.547174
  H 5.242224 -0.096253 -0.183594
  H 4.795451 -2.383085 -3.565548
  H 4.796180 -0.773525 -4.209582
  H 6.982211 -0.606198 -1.460483
 23
 14.729270
  H 1.509111 0.175236 0.494174
  C 2.591272 0.145679 0.419855
  C 3.344130 0.622337 1.602548
  C 2.461874 1.087566 2.757426
  C 3.298314 1.564428 3.940225
  C 3.148053 -0.333389 -0.772787
  C 4.591431 -0.443931 -1.049516
  C 5.105519 -0.905225 -2.205129
  C 4.534178 -1.405232 -3.459435
  H 3.457783 -1.397961 -3.444134
  O 6.396499 -0.838619 -2.037580
  H 4.011195 1.442234 1.308005
  H 4.011760 -0.172259 1.958497
  H 1.817370 0.268387 3.081243
  H 1.817237 1.902328 2.422802
  H 3.931577 0.764656 4.316442
  H 2.654729 1.891792 4.752327
  H 3.931399 2.401733 3.656448
  H 2.473980 -0.647057 -1.554737
  H 5.228597 -0.122460 -0.242825
  H 4.898885 -2.411142 -3.642195
  H 4.900724 -0.802258 -4.284354
  H 6.737217 -0.502757 -1.196064
 23
 53.308629
  H 1.514083 0.177668 0.501120
  C 2.591627 0.140356 0.406313
  C 3.354548 0.604989 1.559227
  C 2.486637 1.074946 2.726042
  C 3.340030 1.548947 3.901494
  C 3.103558 -0.324519 -0.751546
  C 4.618186 -0.445730 -1.055393
  C 5.037538 -0.899661 -2.192506
  C 4.555214 -1.405405 -3.459854
  H 3.458793 -1.418341 -3.493498
  O 6.288066 -0.771959 -1.873947
  H 4.020210 1.424823 1.254587
  H 4.020531 -0.196873 1.907650
  H 1.840431 0.257788 3.057869
  H 1.840137 1.893760 2.398560
  H 3.975051 0.744953 4.271554
  H 2.705673 1.879799 4.722465
  H 3.974526 2.384901 3.610391
  H 2.432371 -0.637012 -1.531031
  H 5.177472 -0.112018 -0.215903
  H 4.949632 -2.401649 -3.619084
  H 4.950490 -0.793361 -4.261321
  H 6.574330 -0.434088 -1.023396
 23
 101.976751
  H 1.486181 0.140676 0.571438
  C 2.561172 0.160451 0.413924
  C 3.353157 0.667435 1.555568
  C 2.500412 1.066839 2.755063
  C 3.361044 1.556277 3.910735
  C 3.013673 -0.282400 -0.752370
  C 4.664425 -0.468909 -1.083301
  C 4.970031 -0.940941 -2.238843
  C 4.596203 -1.432073 -3.536759
  H 3.511723 -1.452954 -3.641036
  O 6.239968 -0.771704 -1.785672
  H 3.965930 1.528432 1.250934
  H 4.051078 -0.126096 1.867730
  H 1.906563 0.215633 3.085259
  H 1.810525 1.857993 2.465060
  H 4.043962 0.777904 4.242995
  H 2.737487 1.838538 4.755548
  H 3.944194 2.426070 3.618217
  H 2.372520 -0.565056 -1.571035
  H 5.087033 -0.161765 -0.144168
  H 5.002684 -2.435274 -3.664427
  H 5.046250 -0.810686 -4.310011
  H 6.557322 -0.495433 -0.924392
 23
 130.215393
  H 1.433892 0.184669 0.582798
  C 2.512077 0.173332 0.403885
  C 3.346393 0.667747 1.560562
  C 2.499196 1.075995 2.766436
  C 3.379783 1.544447 3.930754
  C 2.896811 -0.271846 -0.750756
  C 4.763779 -0.453372 -1.115338
  C 4.954431 -0.951523 -2.272875
  C 4.608705 -1.475450 -3.557312
  H 3.522480 -1.492972 -3.668162
  O 6.281226 -0.711680 -1.759970
  H 3.953344 1.508396 1.244542
  H 3.998208 -0.141293 1.878381
  H 1.889170 0.221884 3.094351
  H 1.819959 1.892660 2.479496
  H 4.051930 0.748638 4.254487
  H 2.765533 1.833840 4.782602
  H 3.981936 2.406548 3.640296
  H 2.312926 -0.585779 -1.591675
  H 5.090339 -0.106409 -0.159341
  H 5.034569 -2.474998 -3.678813
  H 5.047292 -0.845682 -4.334960
  H 6.634408 -0.459043 -0.889980
 23
 144.957633
  H 1.336681 0.235492 0.663038
  C 2.401899 0.188393 0.440710
  C 3.270334 0.671964 1.566185
  C 2.479302 1.097706 2.793029
  C 3.394321 1.530338 3.926498
  C 2.748396 -0.268036 -0.717482
  C 4.922465 -0.449711 -1.145821
  C 4.974942 -0.955820 -2.304070
  C 4.644279 -1.490457 -3.573047
  H 3.558596 -1.520776 -3.669597
  O 6.389883 -0.691935 -1.811228
  H 3.920797 1.483392 1.244178
  H 3.922418 -0.155754 1.870938
  H 1.846863 0.269969 3.131924
  H 1.809138 1.925510 2.536373
  H 4.047443 0.717016 4.226299
  H 2.812234 1.830516 4.790634
  H 4.009305 2.372532 3.625402
  H 2.203475 -0.602574 -1.561977
  H 5.101375 -0.062361 -0.183822
  H 5.067419 -2.490274 -3.681554
  H 5.071286 -0.864306 -4.361883
  H 6.840497 -0.499665 -0.962136
 23
 151.011333
  H 1.236352 0.297122 0.714850
  C 2.301279 0.210674 0.469862
  C 3.207550 0.642772 1.590756
  C 2.438149 1.103236 2.829002
  C 3.379279 1.510605 3.954943
  C 2.635867 -0.237820 -0.695515
  C 5.068300 -0.470515 -1.173601
  C 5.036424 -0.961648 -2.356269
  C 4.701411 -1.469253 -3.639417
  H 3.610637 -1.474472 -3.733765
  O 6.497699 -0.719698 -1.822488
  H 3.869032 1.450486 1.254266
  H 3.839193 -0.206574 1.883988
  H 1.784674 0.297757 3.177557
  H 1.795470 1.949553 2.573133
  H 4.007921 0.675755 4.252171
  H 2.814962 1.834099 4.825479
  H 4.020060 2.331952 3.643839
  H 2.088779 -0.560549 -1.550807
  H 5.212534 -0.063656 -0.164814
  H 5.096957 -2.478338 -3.768546
  H 5.140821 -0.837343 -4.420629
  H 6.979972 -0.579738 -0.988099
 23
 146.332341
  H 1.236111 0.266975 0.729427
  C 2.298081 0.182058 0.475395
  C 3.188199 0.642479 1.593982
  C 2.424290 1.102943 2.828809
  C 3.351761 1.538749 3.946677
  C 2.634056 -0.249246 -0.692453
  C 5.249371 -0.486099 -1.196132
  C 5.075416 -0.972106 -2.353484
  C 4.682518 -1.472470 -3.607752
  H 3.603296 -1.433852 -3.645140
  O 6.642568 -0.713989 -1.809408
  H 3.818908 1.460157 1.244473
  H 3.845331 -0.181920 1.900664
  H 1.799568 0.286160 3.188474
  H 1.761841 1.932100 2.553488
  H 3.999690 0.719388 4.256216
  H 2.793319 1.861152 4.818528
  H 3.944340 2.383284 3.626505
  H 2.112050 -0.573966 -1.559531
  H 5.051608 -0.069984 -0.261445
  H 5.005854 -2.499428 -3.786273
  H 5.054086 -0.820924 -4.399575
  H 7.162473 -0.678618 -0.976225
