 17
 0.000000
  H 1.390837 0.180523 0.499668
  C 2.459196 0.133412 0.382660
  H 3.086926 0.459741 1.194817
  C 2.991639 -0.335534 -0.784823
  C 4.378765 -0.411351 -0.974482
  C 5.101594 -0.859467 -2.091967
  C 4.622056 -1.381281 -3.392464
  C 3.139524 -1.504289 -3.698640
  H 3.025025 -1.906325 -4.700588
  O 6.407817 -0.838170 -2.039516
  H 2.319144 -0.648750 -1.564540
  H 4.981999 -0.074903 -0.137044
  H 5.097428 -2.362587 -3.515234
  H 5.097415 -0.757111 -4.159597
  H 2.646801 -0.536101 -3.671188
  H 2.647023 -2.185115 -3.009572
  H 6.785072 -0.502980 -1.201948
 17
 1.700732
  H 1.400135 0.108200 0.568288
  C 2.463905 0.141337 0.379443
  H 3.084719 0.606394 1.135347
  C 2.995474 -0.396849 -0.758710
  C 4.366503 -0.338966 -1.011017
  C 5.094170 -0.879058 -2.084854
  C 4.631631 -1.389347 -3.399517
  C 3.142971 -1.471623 -3.709626
  H 3.031240 -1.820038 -4.735343
  O 6.389003 -0.934182 -1.981018
  H 2.351037 -0.873666 -1.459858
  H 4.917848 0.159995 -0.230034
  H 5.102353 -2.367786 -3.546610
  H 5.098329 -0.763075 -4.166910
  H 2.664703 -0.495221 -3.643695
  H 2.633110 -2.183413 -3.066996
  H 6.818672 -0.632279 -1.151507
 17
 14.738475
  H 1.401082 0.078853 0.533002
  C 2.462423 0.159752 0.366400
  H 3.022297 0.727175 1.082314
  C 3.022313 -0.435513 -0.716702
  C 4.406245 -0.277115 -1.038696
  C 5.063172 -0.897830 -2.098443
  C 4.659785 -1.406776 -3.427388
  C 3.153771 -1.458937 -3.718154
  H 2.998193 -1.762549 -4.747006
  O 6.355879 -1.025354 -1.903256
  H 2.423436 -1.020045 -1.353787
  H 4.814340 0.381079 -0.278704
  H 5.084907 -2.407668 -3.575108
  H 5.067977 -0.691090 -4.161508
  H 2.690123 -0.484590 -3.582350
  H 2.654342 -2.190005 -3.087405
  H 6.925333 -0.820378 -1.158867
 17
 18.850081
  H 1.496698 0.051145 0.786479
  C 2.497759 0.226736 0.413278
  H 3.067249 1.008518 0.909376
  C 3.002198 -0.497125 -0.614268
  C 4.315273 -0.307825 -1.100909
  C 5.003173 -1.007918 -2.101796
  C 4.676447 -1.391919 -3.494355
  C 3.180555 -1.445442 -3.798196
  H 3.020065 -1.684167 -4.842657
  O 6.262894 -1.143963 -1.797940
  H 2.399213 -1.268773 -1.087674
  H 4.735553 0.511042 -0.522120
  H 5.158770 -2.357052 -3.675541
  H 5.191730 -0.668763 -4.122122
  H 2.719424 -0.481219 -3.613526
  H 2.682136 -2.178903 -3.181939
  H 6.829923 -0.901088 -1.035112
 17
 27.889438
  H 1.655252 0.064461 1.019299
  C 2.524694 0.320271 0.448304
  H 3.010178 1.245093 0.722193
  C 3.041904 -0.561571 -0.455855
  C 4.235969 -0.330774 -1.153027
  C 4.938262 -1.081724 -2.096778
  C 4.701840 -1.425549 -3.503923
  C 3.223159 -1.409905 -3.898620
  H 3.114636 -1.598796 -4.973645
  O 6.148933 -1.284906 -1.659419
  H 2.552513 -1.501366 -0.665183
  H 4.571843 0.653558 -0.869431
  H 5.166678 -2.398970 -3.720405
  H 5.234868 -0.676155 -4.089795
  H 2.778068 -0.444113 -3.679093
  H 2.666995 -2.181160 -3.364840
  H 6.717390 -0.934266 -0.957583
 17
 49.014935
  H 1.825876 0.091221 1.328249
  C 2.636109 0.335779 0.641536
  H 3.050253 1.341931 0.726688
  C 3.102140 -0.580047 -0.253522
  C 4.154806 -0.302604 -1.126676
  C 4.740932 -1.149408 -2.126229
  C 4.692561 -1.458839 -3.536866
  C 3.281115 -1.408428 -4.122210
  H 3.312237 -1.640662 -5.181528
  O 5.904329 -1.369164 -1.492502
  H 2.662527 -1.550131 -0.325038
  H 4.453578 0.739938 -1.081766
  H 5.131016 -2.432004 -3.710272
  H 5.342896 -0.753398 -4.068519
  H 2.843374 -0.408339 -4.005798
  H 2.633184 -2.121462 -3.626051
  H 6.564463 -0.903056 -0.962820
 17
 66.708941
  H 2.034557 0.010121 1.430195
  C 2.774599 0.276218 0.700712
  H 3.162861 1.280307 0.758698
  C 3.213083 -0.604202 -0.186690
  C 4.270438 -0.258849 -1.149458
  C 4.618149 -1.058550 -2.265524
  C 4.660983 -1.541285 -3.625785
  C 3.284905 -1.393522 -4.276207
  H 3.329367 -1.752871 -5.297980
  O 5.566171 -1.180509 -1.186136
  H 2.818501 -1.606936 -0.237406
  H 4.595512 0.779794 -1.110033
  H 4.980511 -2.584586 -3.632291
  H 5.403199 -0.982847 -4.221710
  H 2.967112 -0.356556 -4.284437
  H 2.541510 -1.981550 -3.744419
  H 6.172737 -0.639112 -0.631498
 17
 66.430651
  H 2.086242 0.116947 1.473793
  C 2.835318 0.328040 0.733306
  H 3.227991 1.331221 0.724765
  C 3.236105 -0.596490 -0.125915
  C 4.242518 -0.302024 -1.159702
  C 4.556057 -1.166482 -2.246382
  C 4.678174 -1.510833 -3.641985
  C 3.313809 -1.411545 -4.326431
  H 3.416035 -1.672176 -5.373932
  O 5.500329 -1.188340 -1.163301
  H 2.834519 -1.597938 -0.115715
  H 4.498027 0.752653 -1.255412
  H 5.079996 -2.525615 -3.731762
  H 5.391512 -0.847839 -4.161317
  H 2.918548 -0.403426 -4.258152
  H 2.602413 -2.092368 -3.871978
  H 6.185465 -0.765147 -0.593069
