 22
 0.000000
  C 0.988054 0.132185 0.382267
  C 2.454760 0.139774 0.399998
  C 3.225190 0.607832 1.563738
  C 2.451296 1.096937 2.781204
  C 3.405522 1.540930 3.885740
  C 3.099422 -0.322380 -0.750310
  C 4.494829 -0.396736 -0.937686
  C 5.088203 -0.849730 -2.066987
  H 4.549772 -1.198028 -2.933932
  H 6.162113 -0.882768 -2.150807
  H 0.542738 0.502310 1.297623
  H 0.623689 -0.880100 0.193752
  H 0.625135 0.734126 -0.453763
  H 3.892346 1.413148 1.230602
  H 3.892776 -0.203712 1.880447
  H 1.813616 0.300550 3.169872
  H 1.813319 1.940639 2.510831
  H 4.041789 0.719759 4.207659
  H 2.846008 1.888263 4.750472
  H 4.041498 2.356686 3.549868
  H 2.460206 -0.648247 -1.560147
  H 5.123190 -0.068242 -0.120988
 22
 3.963265
  C 1.023445 0.132125 0.380734
  C 2.473459 0.152559 0.430908
  C 3.221998 0.620776 1.595565
  C 2.427548 1.105357 2.801816
  C 3.360007 1.555330 3.921671
  C 3.155243 -0.296453 -0.686802
  C 4.521491 -0.402678 -0.952130
  C 5.012252 -0.878840 -2.139116
  H 4.360998 -1.198278 -2.935116
  H 6.069433 -0.950515 -2.318069
  H 0.554448 0.495992 1.285635
  H 0.676905 -0.882420 0.170902
  H 0.676696 0.719606 -0.472845
  H 3.897091 1.422746 1.269607
  H 3.897341 -0.183584 1.915047
  H 1.788527 0.304634 3.178688
  H 1.788508 1.944231 2.520076
  H 3.996392 0.738280 4.254105
  H 2.784525 1.898984 4.777280
  H 3.996290 2.375436 3.596312
  H 2.710319 -0.658070 -1.586880
  H 5.231579 -0.095718 -0.187684
 22
 13.566826
  C 0.994399 0.123940 0.360049
  C 2.475181 0.154846 0.437190
  C 3.224139 0.632835 1.626658
  C 2.423625 1.116580 2.829856
  C 3.350088 1.568396 3.953575
  C 3.184839 -0.288833 -0.667404
  C 4.534927 -0.415624 -0.983616
  C 4.966646 -0.891368 -2.171075
  H 4.287982 -1.204402 -2.953202
  H 6.022310 -0.976556 -2.383637
  H 0.504974 0.484415 1.256547
  H 0.656506 -0.895345 0.140351
  H 0.656692 0.707319 -0.503723
  H 3.904837 1.434550 1.304762
  H 3.904673 -0.168677 1.948983
  H 1.784251 0.315295 3.204049
  H 1.784317 1.954133 2.545235
  H 3.986329 0.752779 4.288849
  H 2.770235 1.911405 4.806722
  H 3.986130 2.389086 3.630886
  H 2.907403 -0.666523 -1.608089
  H 5.305051 -0.128567 -0.267725
 22
 27.070149
  C 1.008661 0.130063 0.374996
  C 2.473048 0.163099 0.456765
  C 3.211406 0.637114 1.636714
  C 2.410434 1.117153 2.831502
  C 3.330719 1.569874 3.957509
  C 3.188424 -0.276205 -0.637093
  C 4.536491 -0.422759 -1.002155
  C 4.937761 -0.904609 -2.203138
  H 4.248420 -1.214997 -2.977502
  H 5.989330 -0.997762 -2.434794
  H 0.518145 0.489251 1.269189
  H 0.675851 -0.887001 0.154574
  H 0.675524 0.711509 -0.487408
  H 3.892637 1.435116 1.314413
  H 3.892607 -0.162074 1.955737
  H 1.771116 0.315095 3.202534
  H 1.770910 1.952983 2.544361
  H 3.967171 0.755293 4.294893
  H 2.747122 1.911576 4.808132
  H 3.966574 2.391597 3.637241
  H 3.055761 -0.666377 -1.608877
  H 5.344939 -0.150805 -0.323827
 22
 42.052094
  C 0.999720 0.133790 0.384125
  C 2.465626 0.166232 0.464340
  C 3.204201 0.639053 1.641327
  C 2.405526 1.119058 2.836346
  C 3.324582 1.570698 3.959551
  C 3.179464 -0.271745 -0.626194
  C 4.535102 -0.430908 -1.022689
  C 4.929888 -0.912458 -2.222381
  H 4.246938 -1.224954 -3.001434
  H 5.983941 -1.005601 -2.454003
  H 0.510861 0.493464 1.279587
  H 0.665462 -0.885424 0.163280
  H 0.665330 0.716659 -0.479863
  H 3.885826 1.434228 1.314872
  H 3.885923 -0.161067 1.955470
  H 1.767356 0.318136 3.207025
  H 1.767020 1.953585 2.549921
  H 3.960682 0.756429 4.295991
  H 2.741948 1.912098 4.809826
  H 3.959800 2.391691 3.638817
  H 3.174500 -0.663814 -1.602566
  H 5.361125 -0.167778 -0.366617
 22
 55.246029
  C 0.988355 0.131917 0.380368
  C 2.446259 0.162969 0.455904
  C 3.194380 0.639718 1.642199
  C 2.402336 1.123144 2.846652
  C 3.334648 1.575933 3.971989
  C 3.152915 -0.277313 -0.641513
  C 4.520655 -0.440567 -1.044317
  C 4.937719 -0.920497 -2.242631
  H 4.273156 -1.236367 -3.034280
  H 5.988549 -1.006684 -2.454572
  H 0.504858 0.488724 1.269748
  H 0.656562 -0.878159 0.161453
  H 0.655857 0.709853 -0.475770
  H 3.876510 1.435625 1.314433
  H 3.876943 -0.161542 1.955392
  H 1.761964 0.320336 3.222690
  H 1.760950 1.962527 2.563059
  H 3.973878 0.757470 4.306209
  H 2.755710 1.919842 4.829270
  H 3.972385 2.398995 3.646715
  H 3.262504 -0.668659 -1.618401
  H 5.342610 -0.172788 -0.371601
 22
 65.099762
  C 0.961948 0.138527 0.414340
  C 2.456306 0.155760 0.427909
  C 3.222201 0.644562 1.630769
  C 2.403314 1.114535 2.824063
  C 3.330372 1.569273 3.946202
  C 3.124273 -0.259919 -0.627765
  C 4.495088 -0.470166 -1.077304
  C 4.975505 -0.922185 -2.250317
  H 4.370382 -1.226841 -3.092711
  H 6.036357 -1.003805 -2.401342
  H 0.534364 0.506532 1.341590
  H 0.600620 -0.876612 0.229626
  H 0.595665 0.745667 -0.417029
  H 3.884248 1.455049 1.304848
  H 3.893970 -0.162885 1.944522
  H 1.771948 0.308390 3.197534
  H 1.760423 1.949120 2.544445
  H 3.971674 0.756960 4.275887
  H 2.746726 1.904529 4.798264
  H 3.959342 2.394078 3.623410
  H 3.293231 -0.651812 -1.642265
  H 5.286821 -0.218483 -0.346695
 22
 68.123841
  C 0.937193 0.140450 0.432256
  C 2.443076 0.152153 0.414563
  C 3.224042 0.650622 1.629513
  C 2.401126 1.115715 2.827451
  C 3.340250 1.568544 3.935326
  C 3.107796 -0.252069 -0.628417
  C 4.468584 -0.503847 -1.135707
  C 5.025455 -0.928447 -2.273454
  H 4.494025 -1.221222 -3.154203
  H 6.092517 -1.001191 -2.352899
  H 0.544586 0.509844 1.372044
  H 0.570810 -0.877836 0.274465
  H 0.558408 0.769809 -0.379410
  H 3.861699 1.472801 1.300069
  H 3.880109 -0.164444 1.942692
  H 1.782168 0.312200 3.210282
  H 1.762085 1.949214 2.560704
  H 3.983998 0.756331 4.254094
  H 2.765873 1.901194 4.791794
  H 3.962297 2.392618 3.604080
  H 3.307199 -0.639075 -1.660169
  H 5.201682 -0.262474 -0.335506
 22
 72.440959
  C 0.946934 0.142426 0.440740
  C 2.446811 0.157676 0.429535
  C 3.224463 0.655665 1.638301
  C 2.398812 1.116363 2.829466
  C 3.333989 1.576852 3.946984
  C 3.107074 -0.248472 -0.623828
  C 4.474819 -0.525455 -1.167770
  C 5.040395 -0.935788 -2.301979
  H 4.493101 -1.217393 -3.221917
  H 6.110654 -1.016890 -2.365210
  H 0.549077 0.510612 1.382357
  H 0.588714 -0.866748 0.280572
  H 0.569970 0.762095 -0.363645
  H 3.853727 1.478709 1.311352
  H 3.877791 -0.154192 1.956882
  H 1.778197 0.300627 3.210953
  H 1.752568 1.953417 2.553255
  H 3.984341 0.764007 4.271681
  H 2.751935 1.909613 4.806584
  H 3.957755 2.408889 3.617191
  H 3.346048 -0.628923 -1.646469
  H 5.177920 -0.305032 -0.352004
 22
 76.427291
  C 0.938783 0.141007 0.442772
  C 2.435786 0.156368 0.431276
  C 3.220905 0.657983 1.641924
  C 2.400568 1.121863 2.842623
  C 3.340014 1.583047 3.952953
  C 3.086262 -0.249961 -0.627161
  C 4.476752 -0.541213 -1.184674
  C 5.056200 -0.936346 -2.321931
  H 4.528508 -1.188199 -3.226922
  H 6.120309 -1.026366 -2.371524
  H 0.543705 0.504876 1.375588
  H 0.579598 -0.872817 0.279448
  H 0.559242 0.761345 -0.365474
  H 3.851237 1.486192 1.309828
  H 3.879291 -0.153812 1.961457
  H 1.786839 0.310274 3.224318
  H 1.756260 1.953238 2.568508
  H 3.989811 0.774538 4.273611
  H 2.765778 1.915382 4.812750
  H 3.958692 2.410867 3.620262
  H 3.381018 -0.630605 -1.651474
  H 5.157281 -0.341551 -0.348106
 22
 80.006018
  C 0.917032 0.140901 0.451703
  C 2.416971 0.154202 0.426715
  C 3.211588 0.656564 1.631045
  C 2.407906 1.119365 2.833095
  C 3.363476 1.581026 3.937049
  C 3.052728 -0.251769 -0.633093
  C 4.472192 -0.551492 -1.178844
  C 5.079991 -0.921748 -2.306739
  H 4.576532 -1.146205 -3.234009
  H 6.159148 -1.019384 -2.326969
  H 0.525221 0.509759 1.401093
  H 0.554714 -0.875447 0.290265
  H 0.530006 0.764436 -0.356678
  H 3.838764 1.483337 1.293231
  H 3.871935 -0.154509 1.944683
  H 1.794840 0.305458 3.222500
  H 1.760278 1.953917 2.564419
  H 4.018111 0.768429 4.252387
  H 2.797424 1.915282 4.804991
  H 3.982512 2.411196 3.596207
  H 3.414713 -0.632309 -1.651345
  H 5.127461 -0.374720 -0.308693
 22
 80.645152
  C 0.902267 0.144090 0.462332
  C 2.402985 0.149449 0.422791
  C 3.211658 0.650114 1.616962
  C 2.420334 1.118452 2.830580
  C 3.381669 1.573282 3.915040
  C 3.026008 -0.260183 -0.647279
  C 4.465741 -0.544625 -1.161485
  C 5.099872 -0.901756 -2.277565
  H 4.619082 -1.133395 -3.219438
  H 6.179974 -0.977977 -2.272098
  H 0.526972 0.507038 1.397392
  H 0.535865 -0.863015 0.304031
  H 0.512962 0.764123 -0.334975
  H 3.839840 1.476826 1.269068
  H 3.872850 -0.164883 1.924346
  H 1.810009 0.309910 3.227453
  H 1.773291 1.955898 2.569270
  H 4.030312 0.765283 4.221099
  H 2.830808 1.907637 4.781155
  H 3.994040 2.392617 3.569844
  H 3.425486 -0.675982 -1.643238
  H 5.096585 -0.353900 -0.279838
 22
 79.141624
  C 0.889941 0.112225 0.486617
  C 2.393578 0.145761 0.434157
  C 3.203238 0.665519 1.612805
  C 2.420312 1.123226 2.836917
  C 3.389693 1.598315 3.905513
  C 3.019151 -0.252246 -0.635803
  C 4.492765 -0.563678 -1.156009
  C 5.139913 -0.889446 -2.282369
  H 4.666223 -1.063039 -3.247231
  H 6.212878 -0.999827 -2.272992
  H 0.509759 0.470520 1.424969
  H 0.542750 -0.900118 0.331926
  H 0.484479 0.720233 -0.307356
  H 3.811523 1.505216 1.255122
  H 3.881792 -0.133614 1.913842
  H 1.820985 0.290591 3.252808
  H 1.743914 1.962711 2.579340
  H 4.057314 0.803462 4.203585
  H 2.845690 1.925082 4.779072
  H 3.983499 2.430098 3.548136
  H 3.430278 -0.667163 -1.697465
  H 5.127224 -0.442544 -0.263469
 22
 80.613513
  C 0.924003 0.110919 0.467487
  C 2.429755 0.141091 0.430115
  C 3.224554 0.664097 1.616683
  C 2.421363 1.121787 2.829153
  C 3.378838 1.607121 3.920975
  C 3.070605 -0.256844 -0.631932
  C 4.471150 -0.573432 -1.143860
  C 5.100850 -0.877161 -2.287073
  H 4.612143 -1.020484 -3.234546
  H 6.167294 -0.995712 -2.294291
  H 0.535193 0.475472 1.411155
  H 0.571876 -0.903592 0.309677
  H 0.525728 0.724600 -0.333093
  H 3.833734 1.496412 1.262431
  H 3.905855 -0.136953 1.930614
  H 1.826075 0.295056 3.230186
  H 1.757573 1.943984 2.562903
  H 4.049751 0.810929 4.234111
  H 2.816217 1.935264 4.790767
  H 3.978018 2.444990 3.570491
  H 3.449007 -0.695356 -1.661227
  H 5.126570 -0.475960 -0.274457
