 16
 0.000000
  C 0.984007 0.053121 0.194299
  C 2.485099 0.055445 0.153091
  C 3.218150 -0.018596 1.465289
  H 2.524287 -0.065625 2.298681
  C 3.117351 0.121929 -1.025143
  H 2.524558 0.172973 -1.929771
  C 4.546891 0.133040 -1.222049
  C 5.118293 0.200671 -2.420645
  H 6.187958 0.207713 -2.545371
  H 0.610795 -0.004376 1.213240
  H 0.588290 -0.795132 -0.363760
  H 0.588293 0.958770 -0.264788
  H 3.856175 0.856605 1.601051
  H 3.856172 -0.903506 1.501733
  H 5.168350 0.083152 -0.337862
  H 4.531868 0.251649 -3.324131
 16
 4.361822
  C 0.971836 0.054778 0.164931
  C 2.450196 0.056083 0.141771
  C 3.191594 -0.017569 1.447047
  H 2.513008 -0.065435 2.295244
  C 3.106167 0.122051 -1.027308
  H 2.523803 0.173553 -1.940051
  C 4.538382 0.132472 -1.212003
  C 5.120005 0.199773 -2.404728
  H 6.190179 0.206270 -2.519828
  H 0.836476 -0.004676 1.218514
  H 0.538065 -0.799388 -0.348392
  H 0.538068 0.961270 -0.249038
  H 3.828348 0.856149 1.574753
  H 3.828329 -0.900081 1.475652
  H 5.152559 0.082338 -0.323471
  H 4.540858 0.250979 -3.312212
 16
 14.169195
  C 0.936017 0.056071 0.142004
  C 2.424405 0.056944 0.126508
  C 3.178153 -0.016662 1.430999
  H 2.520485 -0.065553 2.297369
  C 3.105792 0.122466 -1.034669
  H 2.535814 0.174449 -1.955912
  C 4.534353 0.132128 -1.205897
  C 5.114118 0.198151 -2.375972
  H 6.184175 0.204214 -2.483428
  H 1.015815 -0.003082 1.190269
  H 0.486840 -0.804371 -0.327669
  H 0.486840 0.963893 -0.227890
  H 3.818732 0.860691 1.549991
  H 3.818723 -0.901814 1.450539
  H 5.143065 0.081932 -0.316298
  H 4.540448 0.249529 -3.286484
 16
 27.388210
  C 0.907137 0.056898 0.127370
  C 2.406372 0.056660 0.131577
  C 3.166230 -0.016599 1.429904
  H 2.521842 -0.066100 2.307120
  C 3.098227 0.121837 -1.023510
  H 2.532906 0.173971 -1.947430
  C 4.532023 0.131405 -1.193076
  C 5.120182 0.198297 -2.378572
  H 6.189710 0.204357 -2.485962
  H 1.151113 -0.000907 1.151758
  H 0.454803 -0.815070 -0.321216
  H 0.454804 0.973795 -0.220272
  H 3.803603 0.856290 1.541254
  H 3.803603 -0.896465 1.442354
  H 5.141739 0.081178 -0.302923
  H 4.547965 0.249636 -3.288388
 16
 42.456267
  C 0.874087 0.061903 0.108748
  C 2.391971 0.066660 0.135063
  C 3.159422 -0.042907 1.436484
  H 2.529270 -0.072489 2.324972
  C 3.092392 0.128744 -1.011880
  H 2.531512 0.175545 -1.937869
  C 4.528178 0.137328 -1.179181
  C 5.123042 0.195852 -2.378394
  H 6.194837 0.203911 -2.481290
  H 1.254571 0.022845 1.101537
  H 0.438101 -0.837387 -0.297062
  H 0.408790 0.966213 -0.247020
  H 3.783143 0.854738 1.550075
  H 3.834838 -0.889887 1.420041
  H 5.136937 0.097223 -0.286168
  H 4.550073 0.241208 -3.293688
 16
 54.863103
  C 0.839223 0.058713 0.099077
  C 2.387418 0.068061 0.137398
  C 3.169654 -0.025708 1.439247
  H 2.533534 -0.094464 2.339276
  C 3.089413 0.127153 -1.011909
  H 2.529364 0.175800 -1.936906
  C 4.530867 0.140275 -1.179058
  C 5.119334 0.196322 -2.368427
  H 6.186344 0.204151 -2.477353
  H 1.329502 0.033944 1.052866
  H 0.419740 -0.828192 -0.293433
  H 0.400154 0.952856 -0.255560
  H 3.798950 0.858538 1.556228
  H 3.820161 -0.896054 1.421806
  H 5.143855 0.102313 -0.287110
  H 4.544370 0.236312 -3.281147
 16
 66.008846
  C 0.826469 0.058817 0.088112
  C 2.382106 0.067544 0.142993
  C 3.179045 -0.026972 1.457211
  H 2.542325 -0.100058 2.366616
  C 3.083964 0.126520 -1.006168
  H 2.524075 0.175916 -1.931111
  C 4.524969 0.140536 -1.176490
  C 5.108786 0.196192 -2.368410
  H 6.182559 0.204242 -2.484003
  H 1.387379 0.038751 1.003440
  H 0.413564 -0.852541 -0.313273
  H 0.402436 0.979301 -0.276194
  H 3.804528 0.854986 1.566560
  H 3.826934 -0.895230 1.438785
  H 5.137764 0.102890 -0.290093
  H 4.533677 0.235991 -3.274281
 16
 75.276055
  C 0.807722 0.058001 0.089433
  C 2.383599 0.065895 0.152510
  C 3.180945 -0.027815 1.456067
  H 2.562407 -0.101383 2.330876
  C 3.083848 0.125319 -1.000396
  H 2.524473 0.176119 -1.927759
  C 4.518788 0.140525 -1.165830
  C 5.106288 0.195972 -2.361321
  H 6.177026 0.203376 -2.470144
  H 1.430651 0.042757 0.967231
  H 0.409894 -0.849033 -0.308606
  H 0.403905 0.974823 -0.283181
  H 3.815520 0.861142 1.569677
  H 3.827307 -0.900186 1.433945
  H 5.132503 0.102609 -0.271553
  H 4.523350 0.235871 -3.284548
 16
 82.765054
  C 0.789642 0.060552 0.082153
  C 2.388276 0.066942 0.157399
  C 3.195778 -0.030655 1.471611
  H 2.565179 -0.106123 2.364672
  C 3.079156 0.125922 -0.996450
  H 2.510246 0.175658 -1.929992
  C 4.521622 0.142592 -1.169334
  C 5.101978 0.195653 -2.364572
  H 6.171802 0.204736 -2.478039
  H 1.465762 0.050873 0.935077
  H 0.407914 -0.854296 -0.326546
  H 0.408203 0.979673 -0.316902
  H 3.826915 0.851180 1.584183
  H 3.839291 -0.901962 1.447838
  H 5.135062 0.107356 -0.284631
  H 4.518289 0.233975 -3.277991
 16
 89.313041
  C 0.771249 0.061518 0.084700
  C 2.397117 0.066604 0.164452
  C 3.202754 -0.034011 1.474857
  H 2.569579 -0.109778 2.366052
  C 3.082665 0.126346 -0.994297
  H 2.525168 0.178408 -1.906680
  C 4.513865 0.143588 -1.168685
  C 5.091050 0.196008 -2.367796
  H 6.173365 0.204406 -2.487426
  H 1.494714 0.059717 0.902918
  H 0.411441 -0.855734 -0.334196
  H 0.417440 0.975412 -0.348567
  H 3.837802 0.851779 1.588781
  H 3.843451 -0.907414 1.448681
  H 5.134568 0.107448 -0.276809
  H 4.501463 0.234693 -3.281807
 16
 94.891027
  C 0.742830 0.063728 0.088048
  C 2.412022 0.066945 0.179280
  C 3.213709 -0.036191 1.479152
  H 2.579992 -0.109525 2.362476
  C 3.081421 0.127204 -0.983918
  H 2.506330 0.184249 -1.908551
  C 4.523700 0.145615 -1.169482
  C 5.090864 0.196618 -2.369854
  H 6.153417 0.202992 -2.495796
  H 1.519102 0.071741 0.887414
  H 0.415514 -0.858714 -0.346863
  H 0.428446 0.969741 -0.393571
  H 3.845388 0.844348 1.592052
  H 3.857545 -0.917394 1.452953
  H 5.147757 0.108952 -0.285559
  H 4.504276 0.235520 -3.266936
 16
 99.874971
  C 0.714747 0.068594 0.090885
  C 2.433256 0.067450 0.194667
  C 3.227771 -0.041634 1.490242
  H 2.586250 -0.114738 2.369296
  C 3.086199 0.130488 -0.976989
  H 2.505608 0.190025 -1.897597
  C 4.519197 0.151436 -1.170969
  C 5.078135 0.199826 -2.375659
  H 6.160112 0.198379 -2.511026
  H 1.536531 0.086010 0.854053
  H 0.429705 -0.858420 -0.365810
  H 0.454252 0.953618 -0.446187
  H 3.860807 0.835300 1.608550
  H 3.866222 -0.922647 1.465020
  H 5.141682 0.113257 -0.298862
  H 4.482731 0.233560 -3.271920
 16
 103.930365
  C 0.665835 0.072191 0.087040
  C 2.456909 0.065698 0.205291
  C 3.251790 -0.047489 1.501965
  H 2.607511 -0.120116 2.377870
  C 3.088932 0.131494 -0.972286
  H 2.501307 0.191758 -1.886675
  C 4.524036 0.153010 -1.176763
  C 5.072078 0.200747 -2.386526
  H 6.140212 0.199508 -2.528900
  H 1.544426 0.098355 0.814494
  H 0.430716 -0.859743 -0.391381
  H 0.463079 0.945683 -0.512309
  H 3.889718 0.830440 1.626014
  H 3.887439 -0.931468 1.478117
  H 5.164954 0.113883 -0.292086
  H 4.470202 0.233600 -3.277524
 16
 106.617195
  C 0.601648 0.080622 0.075340
  C 2.491892 0.065103 0.221349
  C 3.282154 -0.052332 1.514003
  H 2.631546 -0.123933 2.385781
  C 3.099841 0.130379 -0.964663
  H 2.501886 0.182643 -1.874190
  C 4.532310 0.148240 -1.183829
  C 5.067806 0.194380 -2.398857
  H 6.137734 0.212858 -2.551809
  H 1.549831 0.111246 0.771071
  H 0.422157 -0.858825 -0.424527
  H 0.464610 0.936289 -0.570443
  H 3.923359 0.822556 1.643692
  H 3.912023 -0.939797 1.492807
  H 5.179757 0.116757 -0.306122
  H 4.456671 0.235302 -3.283762
