 15
 0.000000
  C 0.932540 0.139731 0.404262
  C 2.400489 0.144288 0.407500
  C 3.206145 0.603786 1.549202
  C 2.475395 1.096382 2.776861
  H 3.185776 1.402290 3.537057
  C 3.036954 -0.312327 -0.726460
  H 4.106172 -0.355774 -0.832890
  H 0.490585 0.503141 1.324423
  H 0.572058 -0.872828 0.205281
  H 0.562173 0.738991 -0.430701
  H 3.884323 1.392230 1.189565
  H 3.885923 -0.213048 1.834700
  H 1.839381 0.316265 3.194581
  H 1.837935 1.947701 2.539190
  H 2.419641 -0.647109 -1.543315
 15
 1.937168
  C 0.948290 0.137821 0.386503
  C 2.410568 0.160042 0.422669
  C 3.219888 0.611478 1.570826
  C 2.479799 1.118272 2.789614
  H 3.182996 1.422453 3.559925
  C 3.001204 -0.322292 -0.714594
  H 4.063350 -0.374877 -0.882210
  H 0.454095 0.389782 1.317132
  H 0.684318 -0.866272 0.028712
  H 0.578134 0.798431 -0.404030
  H 3.922085 1.381889 1.206087
  H 3.906890 -0.204166 1.854189
  H 1.832612 0.347487 3.208117
  H 1.848525 1.970946 2.542130
  H 2.313353 -0.689233 -1.459381
 15
 6.004391
  C 0.970253 0.135147 0.387880
  C 2.432092 0.175172 0.445378
  C 3.228826 0.616977 1.581006
  C 2.475898 1.130871 2.778509
  H 3.163308 1.435551 3.553230
  C 2.986781 -0.333810 -0.704551
  H 4.029926 -0.405996 -0.926442
  H 0.440911 0.276477 1.325047
  H 0.789263 -0.829143 -0.122384
  H 0.602335 0.872047 -0.329635
  H 3.935888 1.379763 1.219103
  H 3.909951 -0.196211 1.873756
  H 1.824337 0.363764 3.191312
  H 1.850366 1.979171 2.514213
  H 2.215042 -0.725574 -1.371580
 15
 12.152592
  C 0.985611 0.121128 0.377057
  C 2.445402 0.173566 0.452547
  C 3.241076 0.620891 1.591872
  C 2.473419 1.149371 2.778364
  H 3.154559 1.461780 3.561598
  C 2.973334 -0.352848 -0.703421
  H 4.003488 -0.439517 -0.968802
  H 0.437436 0.151378 1.312655
  H 0.871455 -0.780946 -0.262885
  H 0.611745 0.933095 -0.255735
  H 3.954267 1.379278 1.229544
  H 3.915452 -0.194147 1.897810
  H 1.814117 0.383662 3.193063
  H 1.848714 1.998245 2.495844
  H 2.128547 -0.742184 -1.302183
 15
 20.068203
  C 0.997476 0.106884 0.372982
  C 2.454433 0.166699 0.458541
  C 3.248554 0.624140 1.597365
  C 2.470026 1.166579 2.770625
  H 3.141091 1.490334 3.553490
  C 2.963359 -0.370537 -0.702101
  H 3.993438 -0.492821 -0.989837
  H 0.442376 0.022667 1.300438
  H 0.942717 -0.718081 -0.386463
  H 0.610481 0.982687 -0.159751
  H 3.967530 1.378285 1.232495
  H 3.917743 -0.193641 1.918639
  H 1.805939 0.402775 3.190007
  H 1.844449 2.012214 2.470163
  H 2.057777 -0.725234 -1.249530
 15
 30.085456
  C 1.006712 0.097628 0.370106
  C 2.462520 0.159678 0.463711
  C 3.253616 0.624433 1.599738
  C 2.466800 1.180902 2.767947
  H 3.134986 1.517547 3.550888
  C 2.958729 -0.383415 -0.703102
  H 3.980594 -0.542504 -0.996321
  H 0.449806 -0.075164 1.286881
  H 1.008943 -0.671662 -0.485539
  H 0.604201 1.003657 -0.089986
  H 3.970215 1.369490 1.234896
  H 3.908413 -0.183992 1.929365
  H 1.806540 0.425412 3.191285
  H 1.844061 2.018774 2.456316
  H 1.996724 -0.694409 -1.221044
 15
 39.750537
  C 1.014170 0.085734 0.378170
  C 2.473917 0.155168 0.465822
  C 3.265416 0.631861 1.604354
  C 2.462218 1.195161 2.760361
  H 3.120752 1.553864 3.538954
  C 2.955284 -0.387302 -0.700500
  H 3.961055 -0.642006 -0.976211
  H 0.468711 -0.197292 1.267810
  H 1.050949 -0.601819 -0.585935
  H 0.588594 1.012577 -0.011014
  H 3.982304 1.382819 1.237249
  H 3.917116 -0.179334 1.950310
  H 1.810581 0.438405 3.191386
  H 1.835121 2.022011 2.432589
  H 1.938369 -0.627141 -1.222079
 15
 49.109399
  C 1.024809 0.086039 0.389811
  C 2.490695 0.151125 0.468608
  C 3.280244 0.638336 1.609659
  C 2.455407 1.204758 2.753403
  H 3.104889 1.585793 3.531415
  C 2.952054 -0.383192 -0.694894
  H 3.932011 -0.722138 -0.974499
  H 0.490853 -0.283153 1.257387
  H 1.082116 -0.561175 -0.662781
  H 0.578717 1.016774 0.038972
  H 3.984906 1.391266 1.246549
  H 3.926556 -0.174839 1.972462
  H 1.814881 0.443679 3.191921
  H 1.822627 2.021455 2.410147
  H 1.888850 -0.576377 -1.235412
 15
 57.171148
  C 1.035266 0.090836 0.405377
  C 2.504863 0.146023 0.470332
  C 3.292668 0.643226 1.616784
  C 2.447323 1.211387 2.747317
  H 3.087329 1.612656 3.524103
  C 2.953642 -0.381538 -0.686375
  H 3.899308 -0.793167 -0.983451
  H 0.514388 -0.355030 1.243479
  H 1.098039 -0.528966 -0.731061
  H 0.573660 1.021714 0.085590
  H 3.991544 1.404825 1.254661
  H 3.928048 -0.166027 1.992615
  H 1.818546 0.445999 3.193432
  H 1.808197 2.017382 2.389425
  H 1.850909 -0.540590 -1.256205
 15
 64.260593
  C 1.038655 0.108499 0.421260
  C 2.509171 0.141699 0.469163
  C 3.297879 0.642906 1.620836
  C 2.440142 1.213692 2.744080
  H 3.076530 1.623650 3.523279
  C 2.959100 -0.378654 -0.678227
  H 3.889317 -0.787601 -1.017742
  H 0.521967 -0.359587 1.247651
  H 1.104212 -0.547576 -0.775537
  H 0.573223 1.030673 0.087045
  H 3.992015 1.405436 1.260081
  H 3.926117 -0.167101 2.004742
  H 1.808779 0.441441 3.196267
  H 1.807430 2.009335 2.381951
  H 1.820141 -0.563104 -1.268690
 15
 71.605983
  C 1.035838 0.125871 0.445440
  C 2.505191 0.133164 0.469436
  C 3.299078 0.636869 1.626421
  C 2.436921 1.211552 2.743732
  H 3.072665 1.623953 3.521390
  C 2.973037 -0.377647 -0.664920
  H 3.895972 -0.770741 -1.039315
  H 0.517947 -0.364952 1.258277
  H 1.098152 -0.574892 -0.843017
  H 0.567228 1.036180 0.095038
  H 3.992586 1.402519 1.263130
  H 3.920307 -0.174570 2.014308
  H 1.818708 0.452287 3.192478
  H 1.793375 2.019338 2.372302
  H 1.789126 -0.589355 -1.304211
 15
 78.627287
  C 1.029574 0.151245 0.474787
  C 2.491560 0.126964 0.465538
  C 3.295642 0.633556 1.625945
  C 2.436027 1.216366 2.742868
  H 3.078537 1.630903 3.515764
  C 2.986788 -0.374940 -0.650917
  H 3.907619 -0.737873 -1.054343
  H 0.510541 -0.350944 1.277051
  H 1.091267 -0.624230 -0.929049
  H 0.554223 1.043528 0.090952
  H 3.985001 1.394634 1.256694
  H 3.909937 -0.180398 2.015990
  H 1.809818 0.451583 3.205811
  H 1.803735 2.014375 2.375396
  H 1.767292 -0.633890 -1.358206
 15
 84.457032
  C 1.013147 0.178672 0.515389
  C 2.456891 0.120716 0.459351
  C 3.282801 0.626673 1.622045
  C 2.442366 1.219727 2.747091
  H 3.102324 1.628640 3.507319
  C 2.991214 -0.370838 -0.633036
  H 3.917179 -0.705305 -1.047800
  H 0.496354 -0.331760 1.309956
  H 1.097414 -0.696412 -1.062304
  H 0.526031 1.044275 0.095553
  H 3.970588 1.381979 1.239749
  H 3.891057 -0.194661 2.006801
  H 1.820250 0.466472 3.220384
  H 1.809057 2.027595 2.385869
  H 1.776992 -0.682977 -1.449586
 15
 89.025872
  C 0.992889 0.199334 0.548918
  C 2.420325 0.115101 0.448796
  C 3.270239 0.625635 1.609134
  C 2.451811 1.223888 2.745771
  H 3.129276 1.625729 3.491843
  C 2.992013 -0.370501 -0.622477
  H 3.927303 -0.690915 -1.025936
  H 0.485740 -0.303595 1.348790
  H 1.109977 -0.782992 -1.219178
  H 0.498550 1.050570 0.113613
  H 3.957135 1.370243 1.214957
  H 3.872211 -0.203914 1.987920
  H 1.832164 0.476202 3.230294
  H 1.818521 2.036889 2.396411
  H 1.796618 -0.736600 -1.566797
