 17
 0.000000
  C 0.921229 0.051832 0.205587
  C 2.405813 0.061479 0.012511
  H 2.997784 0.011880 0.917036
  C 3.044155 0.129065 -1.165331
  C 2.322040 0.203386 -2.478895
  H 1.246888 0.194645 -2.333468
  C 4.496269 0.131093 -1.194769
  C 5.253718 0.193798 -2.290349
  O 6.610177 0.194880 -2.302686
  H 0.677176 -0.012402 1.262806
  H 0.464941 -0.798866 -0.301116
  H 0.470112 0.960476 -0.193992
  H 2.596029 -0.643009 -3.106670
  H 2.595153 1.115945 -3.006372
  H 4.987210 0.076141 -0.228814
  H 4.861839 0.250899 -3.293266
  H 6.943281 0.143279 -1.397156
 17
 6.049489
  C 0.936511 0.029331 0.215898
  C 2.378963 0.036961 0.017114
  H 2.997789 -0.029283 0.904173
  C 3.018614 0.109919 -1.160872
  C 2.289453 0.182611 -2.483495
  H 1.209251 0.158884 -2.347409
  C 4.486521 0.136414 -1.187478
  C 5.243254 0.206514 -2.276444
  O 6.598445 0.226787 -2.283623
  H 0.643257 0.005093 1.272309
  H 0.398280 -0.758038 -0.346544
  H 0.777519 0.988457 -0.212982
  H 2.574542 -0.659803 -3.115744
  H 2.552882 1.102258 -3.008414
  H 4.979348 0.090563 -0.218044
  H 4.855448 0.254094 -3.276760
  H 6.926994 0.183228 -1.376306
 17
 18.845544
  C 0.925532 0.017669 0.223749
  C 2.362259 0.013925 0.023991
  H 3.005017 -0.078664 0.909608
  C 3.010427 0.091966 -1.166656
  C 2.285778 0.163079 -2.480461
  H 1.213805 0.127816 -2.349480
  C 4.458154 0.140799 -1.187345
  C 5.223089 0.214612 -2.277015
  O 6.580504 0.258976 -2.274265
  H 0.606757 0.013599 1.252544
  H 0.349214 -0.679528 -0.372483
  H 1.029222 0.987712 -0.206549
  H 2.578235 -0.670639 -3.112364
  H 2.539279 1.082198 -3.000367
  H 4.944420 0.109389 -0.220914
  H 4.839724 0.246227 -3.287510
  H 6.903662 0.227789 -1.357345
 17
 33.017023
  C 0.900336 -0.004892 0.243089
  C 2.345660 0.025743 0.025464
  H 2.983799 -0.056418 0.898908
  C 3.008880 0.097359 -1.175664
  C 2.291361 0.156571 -2.491975
  H 1.214914 0.123427 -2.363870
  C 4.447571 0.149577 -1.187695
  C 5.215914 0.214527 -2.277100
  O 6.575185 0.264685 -2.271130
  H 0.581366 -0.024243 1.262642
  H 0.310659 -0.632072 -0.389350
  H 1.188780 0.961905 -0.151950
  H 2.586547 -0.685663 -3.119798
  H 2.549638 1.076292 -3.021424
  H 4.929820 0.129299 -0.218048
  H 4.836005 0.232901 -3.285938
  H 6.892386 0.243369 -1.360712
 17
 44.490616
  C 0.883911 -0.015359 0.251695
  C 2.335131 0.036719 0.009974
  H 2.967981 -0.037413 0.891275
  C 3.005874 0.098228 -1.188407
  C 2.290356 0.138113 -2.502030
  H 1.212817 0.105403 -2.368992
  C 4.442066 0.161967 -1.192362
  C 5.216886 0.217259 -2.278864
  O 6.578899 0.272475 -2.265510
  H 0.571218 -0.099572 1.280137
  H 0.254387 -0.536167 -0.447030
  H 1.331935 0.955701 -0.055359
  H 2.584211 -0.709900 -3.119607
  H 2.544594 1.049757 -3.043703
  H 4.920094 0.156993 -0.218564
  H 4.843435 0.222500 -3.286281
  H 6.888996 0.260750 -1.353384
 17
 52.554744
  C 0.871887 -0.032489 0.263455
  C 2.326181 0.051636 0.003025
  H 2.950036 -0.007059 0.886163
  C 3.002133 0.099885 -1.198606
  C 2.283038 0.122879 -2.517972
  H 1.206269 0.094540 -2.383721
  C 4.443652 0.170557 -1.196209
  C 5.224904 0.218400 -2.278062
  O 6.586816 0.279499 -2.254123
  H 0.567075 -0.177913 1.284576
  H 0.215962 -0.438346 -0.478656
  H 1.439706 0.943419 0.037201
  H 2.573933 -0.734543 -3.126116
  H 2.537568 1.028100 -3.074839
  H 4.919310 0.175266 -0.219086
  H 4.856092 0.212284 -3.293989
  H 6.888516 0.275307 -1.337770
 17
 59.217846
  C 0.868307 -0.053911 0.262431
  C 2.321263 0.066715 0.002773
  H 2.938943 0.012937 0.893097
  C 3.002053 0.104261 -1.200426
  C 2.286562 0.118998 -2.517249
  H 1.200372 0.094757 -2.383119
  C 4.436817 0.174126 -1.197607
  C 5.223734 0.216798 -2.278684
  O 6.585104 0.281485 -2.247827
  H 0.560822 -0.212834 1.278689
  H 0.204194 -0.408781 -0.499803
  H 1.526581 0.939986 0.060781
  H 2.572249 -0.737514 -3.112592
  H 2.543631 1.015971 -3.081153
  H 4.906451 0.184018 -0.234332
  H 4.859285 0.206431 -3.296692
  H 6.880890 0.281603 -1.328857
 17
 63.703122
  C 0.863507 -0.090460 0.267621
  C 2.315070 0.090543 0.009148
  H 2.939886 0.021491 0.895400
  C 3.003099 0.108834 -1.208968
  C 2.282571 0.111783 -2.526147
  H 1.207536 0.094803 -2.390438
  C 4.435301 0.182872 -1.200681
  C 5.227065 0.220489 -2.280518
  O 6.590669 0.281157 -2.244191
  H 0.544550 -0.259052 1.279928
  H 0.187136 -0.353315 -0.516167
  H 1.586652 0.951490 0.106404
  H 2.564520 -0.760547 -3.116567
  H 2.541787 1.002486 -3.104979
  H 4.908153 0.198090 -0.225019
  H 4.866891 0.205079 -3.297797
  H 6.882527 0.283513 -1.323939
 17
 67.080917
  C 0.865764 -0.137114 0.262869
  C 2.312304 0.111838 0.018404
  H 2.940439 0.027219 0.905111
  C 3.006487 0.112105 -1.211110
  C 2.284479 0.110146 -2.522792
  H 1.206418 0.101303 -2.384786
  C 4.431271 0.190185 -1.201972
  C 5.226060 0.223196 -2.282664
  O 6.590109 0.277898 -2.242974
  H 0.529316 -0.283367 1.269049
  H 0.182637 -0.336264 -0.536138
  H 1.643357 0.979967 0.116266
  H 2.558861 -0.767886 -3.105442
  H 2.549017 0.992840 -3.110741
  H 4.907042 0.208083 -0.222661
  H 4.867934 0.201073 -3.299386
  H 6.879226 0.283476 -1.322522
 17
 68.400857
  C 0.876646 -0.196911 0.259093
  C 2.306838 0.133392 0.027406
  H 2.936196 0.031166 0.910092
  C 3.008109 0.115263 -1.212457
  C 2.283375 0.113418 -2.522722
  H 1.205555 0.118953 -2.382736
  C 4.425940 0.191840 -1.200859
  C 5.226294 0.221207 -2.282225
  O 6.590418 0.277016 -2.236875
  H 0.520378 -0.297257 1.264806
  H 0.187350 -0.342777 -0.546617
  H 1.700905 1.031614 0.112441
  H 2.545440 -0.773279 -3.100535
  H 2.556886 0.986484 -3.117217
  H 4.901104 0.212563 -0.223333
  H 4.871595 0.195728 -3.298675
  H 6.875753 0.287306 -1.316086
 17
 68.107068
  C 0.899057 -0.259171 0.243736
  C 2.302883 0.157357 0.031300
  H 2.932302 0.047298 0.914508
  C 3.009757 0.129797 -1.212601
  C 2.280253 0.123126 -2.512869
  H 1.199708 0.137413 -2.364796
  C 4.415752 0.208721 -1.198580
  C 5.221361 0.227840 -2.280464
  O 6.583935 0.260081 -2.228187
  H 0.522410 -0.316036 1.247424
  H 0.211886 -0.374150 -0.570223
  H 1.765473 1.093253 0.090042
  H 2.534319 -0.777075 -3.090571
  H 2.554724 0.983451 -3.110774
  H 4.893400 0.224724 -0.217015
  H 4.869410 0.189277 -3.298593
  H 6.865052 0.272958 -1.307546
 17
 66.160274
  C 0.912902 -0.319374 0.245247
  C 2.287704 0.174706 0.041070
  H 2.920581 0.055439 0.920932
  C 3.009424 0.138018 -1.215876
  C 2.276038 0.127980 -2.518347
  H 1.201128 0.152547 -2.367445
  C 4.410873 0.218828 -1.197001
  C 5.223767 0.232795 -2.279180
  O 6.586309 0.252315 -2.220809
  H 0.523831 -0.325900 1.245519
  H 0.222820 -0.412166 -0.571491
  H 1.835164 1.163003 0.071749
  H 2.517199 -0.771874 -3.083573
  H 2.559278 0.986231 -3.130353
  H 4.886716 0.233783 -0.216687
  H 4.875536 0.186967 -3.293810
  H 6.865049 0.267711 -1.299035
 17
 64.526898
  C 0.926012 -0.361648 0.245120
  C 2.274847 0.192644 0.043035
  H 2.912961 0.057128 0.918093
  C 3.010964 0.147404 -1.219891
  C 2.278688 0.132825 -2.519534
  H 1.203252 0.171533 -2.365501
  C 4.406266 0.234097 -1.196002
  C 5.223924 0.245118 -2.278126
  O 6.584288 0.246325 -2.214971
  H 0.519832 -0.332594 1.239118
  H 0.230633 -0.447468 -0.568780
  H 1.910028 1.215115 0.054882
  H 2.508428 -0.778548 -3.075585
  H 2.571256 0.979388 -3.140980
  H 4.880284 0.256763 -0.215449
  H 4.877243 0.195018 -3.294129
  H 6.861354 0.258743 -1.292433
