 17
 0.000000
  H 1.433019 -0.076850 0.037190
  C 2.506133 -0.083343 0.024445
  C 3.220474 -0.593717 -0.977505
  C 4.657472 -0.605094 -0.999840
  C 5.379041 -1.120102 -2.010884
  C 6.816268 -1.130829 -2.031941
  C 7.534478 -1.641884 -3.035235
  C 9.023399 -1.662211 -3.075131
  H 3.002808 0.351865 0.878833
  H 2.711024 -1.027372 -1.828834
  H 5.161643 -0.170388 -0.146442
  H 4.874931 -1.554855 -2.864376
  H 7.322456 -0.696516 -1.179312
  H 7.035351 -2.077814 -3.891022
  H 9.456067 -1.209183 -2.185766
  H 9.382493 -1.117460 -3.949104
  H 9.382492 -2.689446 -3.148364
 17
 12.100315
  H 1.374459 -0.065922 0.058638
  C 2.449103 -0.063880 0.062652
  C 3.180218 -0.571595 -0.934076
  C 4.602705 -0.574031 -0.938853
  C 5.418618 -1.147498 -2.064660
  C 6.840436 -1.149835 -2.069249
  C 7.575142 -1.658427 -3.067710
  C 9.063132 -1.671359 -3.093094
  H 2.928002 0.374867 0.923986
  H 2.684640 -1.008736 -1.792250
  H 5.104839 -0.140911 -0.088570
  H 4.915957 -1.580572 -2.914859
  H 7.334898 -0.712571 -1.210827
  H 7.086869 -2.096900 -3.928492
  H 9.482109 -1.215790 -2.198739
  H 9.428955 -1.125894 -3.963819
  H 9.428957 -2.696389 -3.163842
 17
 36.466830
  H 1.329790 -0.066233 0.058010
  C 2.410989 -0.048880 0.092083
  C 3.167412 -0.552661 -0.896914
  C 4.566254 -0.541348 -0.874681
  C 5.454102 -1.179785 -2.128017
  C 6.847361 -1.169487 -2.107809
  C 7.601822 -1.671965 -3.094278
  C 9.086801 -1.673347 -3.096980
  H 2.859560 0.394744 0.963004
  H 2.688519 -0.993054 -1.761469
  H 5.106367 -0.124226 -0.055802
  H 4.912663 -1.596705 -2.946488
  H 7.329877 -0.730499 -1.246025
  H 7.127042 -2.113176 -3.960455
  H 9.485116 -1.214523 -2.196202
  H 9.463013 -1.130556 -3.964417
  H 9.462969 -2.694060 -3.167952
 17
 63.037677
  H 1.272973 -0.059347 0.071536
  C 2.339874 -0.026601 0.135836
  C 3.136250 -0.531077 -0.854525
  C 4.528869 -0.508157 -0.809524
  C 5.477772 -1.214502 -2.196205
  C 6.861117 -1.193369 -2.154723
  C 7.645961 -1.692975 -3.135546
  C 9.129809 -1.678002 -3.106171
  H 2.761990 0.424617 1.021644
  H 2.671489 -0.975621 -1.727245
  H 5.136439 -0.105812 -0.019650
  H 4.869897 -1.616906 -2.986178
  H 7.333281 -0.750665 -1.285627
  H 7.188568 -2.137574 -4.008366
  H 9.501280 -1.213838 -2.194958
  H 9.521931 -1.130444 -3.966178
  H 9.521992 -2.695697 -3.168932
 17
 89.480621
  H 1.234784 -0.053081 0.083907
  C 2.293143 -0.010516 0.167440
  C 3.105926 -0.507959 -0.809143
  C 4.474352 -0.475044 -0.744549
  C 5.498115 -1.245361 -2.256838
  C 6.877988 -1.214482 -2.196230
  C 7.686548 -1.711424 -3.171805
  C 9.165757 -1.683152 -3.116315
  H 2.698954 0.444891 1.061472
  H 2.652757 -0.954707 -1.686175
  H 5.103189 -0.085822 0.019550
  H 4.868344 -1.635755 -3.023224
  H 7.341347 -0.768470 -1.320638
  H 7.245537 -2.158459 -4.049395
  H 9.516710 -1.215508 -2.198309
  H 9.569102 -1.131951 -3.970144
  H 9.569261 -2.698198 -3.172506
 17
 113.493534
  H 1.153971 -0.041367 0.106845
  C 2.232230 0.008655 0.205051
  C 3.055880 -0.482000 -0.758187
  C 4.427075 -0.441535 -0.678736
  C 5.542075 -1.271331 -2.307771
  C 6.901714 -1.233969 -2.234401
  C 7.728725 -1.729902 -3.207988
  C 9.212960 -1.693245 -3.136023
  H 2.622784 0.462160 1.095363
  H 2.612670 -0.930043 -1.637780
  H 5.064429 -0.050466 0.089009
  H 4.907514 -1.662600 -3.075899
  H 7.352233 -0.788015 -1.358911
  H 7.297179 -2.180886 -4.093343
  H 9.551139 -1.224379 -2.215560
  H 9.622510 -1.141256 -3.983523
  H 9.622439 -2.703189 -3.187805
 17
 133.914806
  H 1.105673 -0.026203 0.136632
  C 2.168037 0.030492 0.247929
  C 3.012166 -0.459243 -0.713507
  C 4.366511 -0.411817 -0.620402
  C 5.570904 -1.301571 -2.367155
  C 6.936075 -1.256906 -2.279463
  C 7.776750 -1.747597 -3.242759
  C 9.254441 -1.701116 -3.151519
  H 2.546150 0.488726 1.147519
  H 2.579499 -0.909886 -1.598200
  H 5.007508 -0.025381 0.138236
  H 4.930579 -1.689781 -3.129266
  H 7.379580 -0.807693 -1.397580
  H 7.359220 -2.199431 -4.129784
  H 9.577222 -1.229682 -2.226039
  H 9.671799 -1.145924 -3.994551
  H 9.671825 -2.709508 -3.198105
 17
 150.729259
  H 1.035903 -0.015173 0.158280
  C 2.104080 0.049740 0.285714
  C 2.962261 -0.433565 -0.663095
  C 4.318087 -0.378503 -0.554997
  C 5.613213 -1.327831 -2.418704
  C 6.961273 -1.277410 -2.319710
  C 7.820631 -1.766373 -3.279608
  C 9.300071 -1.710744 -3.170406
  H 2.466873 0.508614 1.186560
  H 2.539422 -0.886022 -1.551352
  H 4.967948 0.006546 0.200919
  H 4.968029 -1.714334 -3.177467
  H 7.394483 -0.827039 -1.435550
  H 7.413952 -2.221491 -4.173083
  H 9.609130 -1.237486 -2.241340
  H 9.724534 -1.153316 -4.008288
  H 9.724526 -2.716230 -3.212149
 17
 164.121935
  H 0.978356 -0.000404 0.187271
  C 2.039056 0.071656 0.328738
  C 2.917471 -0.409432 -0.615718
  C 4.258517 -0.348189 -0.495484
  C 5.644693 -1.356987 -2.475944
  C 6.996940 -1.300493 -2.365023
  C 7.869877 -1.784287 -3.314776
  C 9.343777 -1.719160 -3.186930
  H 2.388325 0.533772 1.235946
  H 2.505237 -0.864131 -1.508374
  H 4.913122 0.033690 0.254209
  H 4.994095 -1.741951 -3.231683
  H 7.422889 -0.847865 -1.476436
  H 7.476441 -2.240509 -4.210420
  H 9.637909 -1.243995 -2.254119
  H 9.775286 -1.159092 -4.019500
  H 9.775283 -2.721906 -3.223417
 17
 174.442063
  H 0.910851 0.011167 0.209994
  C 1.971322 0.091308 0.367320
  C 2.864437 -0.383154 -0.564130
  C 4.207629 -0.314886 -0.430107
  C 5.687698 -1.382329 -2.525700
  C 7.026864 -1.321491 -2.406255
  C 7.916300 -1.802994 -3.351507
  C 9.390776 -1.729549 -3.207328
  H 2.305407 0.554675 1.276983
  H 2.462329 -0.839864 -1.460731
  H 4.867433 0.065490 0.316633
  H 5.036224 -1.766223 -3.279334
  H 7.444076 -0.867421 -1.514834
  H 7.533165 -2.261957 -4.252530
  H 9.672590 -1.252713 -2.271239
  H 9.828579 -1.167095 -4.035464
  H 9.828586 -2.730131 -3.239280
 17
 182.188187
  H 0.847862 0.025793 0.238704
  C 1.904137 0.113109 0.410115
  C 2.816406 -0.358049 -0.514847
  C 4.147285 -0.284246 -0.369951
  C 5.722306 -1.410008 -2.580033
  C 7.066124 -1.344344 -2.451110
  C 7.967291 -1.820767 -3.386392
  C 9.436716 -1.739037 -3.225953
  H 2.224618 0.579161 1.325051
  H 2.425303 -0.816903 -1.415657
  H 4.809912 0.094541 0.373668
  H 5.068900 -1.794007 -3.333877
  H 7.476349 -0.888476 -1.556167
  H 7.595975 -2.280760 -4.289444
  H 9.705436 -1.260811 -2.287127
  H 9.880358 -1.174322 -4.049094
  H 9.880357 -2.736892 -3.253142
 17
 187.814314
  H 0.778169 0.038734 0.264114
  C 1.832046 0.133188 0.449530
  C 2.757705 -0.331230 -0.462200
  C 4.092276 -0.251184 -0.305047
  C 5.768507 -1.433419 -2.625994
  C 7.103449 -1.364925 -2.491515
  C 8.017136 -1.839038 -3.422267
  C 9.486527 -1.751188 -3.249815
  H 2.138545 0.600439 1.366827
  H 2.377018 -0.792150 -1.367061
  H 4.753700 0.127918 0.439187
  H 5.121016 -1.818830 -3.382609
  H 7.506306 -0.907667 -1.593847
  H 7.653978 -2.301247 -4.329666
  H 9.746375 -1.271762 -2.308632
  H 9.934487 -1.184618 -4.069802
  H 9.934501 -2.747606 -3.273650
 17
 191.665464
  H 0.705842 0.056085 0.298179
  C 1.758170 0.155710 0.493742
  C 2.698909 -0.305424 -0.411545
  C 4.025444 -0.221329 -0.246436
  C 5.810472 -1.457731 -2.673720
  C 7.153247 -1.386414 -2.533695
  C 8.073126 -1.856318 -3.456186
  C 9.538081 -1.763966 -3.274899
  H 2.054496 0.625075 1.415194
  H 2.328445 -0.768253 -1.320154
  H 4.678987 0.160896 0.503925
  H 5.173236 -1.847953 -3.439778
  H 7.550624 -0.927811 -1.633385
  H 7.717666 -2.319132 -4.364775
  H 9.790915 -1.283949 -2.332549
  H 9.988592 -1.196292 -4.092147
  H 9.988596 -2.758803 -3.296232
 17
 194.122164
  H 0.628261 0.072765 0.330934
  C 1.678279 0.176812 0.535165
  C 2.628130 -0.278632 -0.358960
  C 3.960624 -0.189795 -0.184533
  C 5.864326 -1.477260 -2.712055
  C 7.203963 -1.405275 -2.570708
  C 8.128943 -1.873866 -3.490628
  C 9.594894 -1.779948 -3.306278
  H 1.964893 0.646845 1.457942
  H 2.266944 -0.743232 -1.271049
  H 4.599556 0.197438 0.575655
  H 5.247134 -1.874165 -3.491228
  H 7.596527 -0.945795 -1.668678
  H 7.776543 -2.338072 -4.401956
  H 9.846274 -1.299580 -2.363236
  H 10.045907 -1.211856 -4.123292
  H 10.045917 -2.774840 -3.327139
