 17
 0.000000
  C 1.009731 0.132956 0.380445
  C 2.480678 0.131479 0.378367
  C 3.207908 0.608171 1.565254
  H 2.523207 0.921956 2.345857
  C 3.143919 -0.325556 -0.758403
  C 4.532195 -0.380288 -0.894962
  C 5.141801 -0.840358 -2.041980
  H 4.570182 -1.183839 -2.895847
  O 6.423306 -0.916150 -2.234435
  H 0.597523 0.507268 1.312230
  H 0.630681 -0.874055 0.199625
  H 0.631683 0.736029 -0.446494
  H 3.859844 1.444262 1.309938
  H 3.859354 -0.172398 1.959493
  H 2.545583 -0.661248 -1.594662
  H 5.161123 -0.052637 -0.078591
  H 6.974028 -0.612058 -1.483426
 17
 16.233356
  C 1.068001 0.112455 0.328913
  C 2.574307 0.099783 0.299296
  C 3.248369 0.584030 1.505343
  H 2.528775 0.886651 2.258783
  C 3.175948 -0.340922 -0.796054
  C 4.539988 -0.318588 -0.741597
  C 5.002431 -0.780067 -1.892868
  H 4.365372 -1.104034 -2.697205
  O 6.272679 -0.918877 -2.241909
  H 0.660269 0.487386 1.263073
  H 0.688773 -0.898319 0.148737
  H 0.689675 0.719095 -0.499748
  H 3.885099 1.441015 1.281194
  H 3.884774 -0.190138 1.936109
  H 2.642012 -0.678516 -1.635965
  H 5.130439 0.005461 0.064182
  H 6.927569 -0.640196 -1.551715
 17
 71.929189
  C 1.123970 0.087522 0.269452
  C 2.683764 0.068228 0.219721
  C 3.293630 0.573550 1.479160
  H 2.526916 0.859524 2.194357
  C 3.210702 -0.361017 -0.848513
  C 4.557793 -0.259387 -0.605641
  C 4.867793 -0.725708 -1.763043
  H 4.230761 -1.050110 -2.575752
  O 6.111783 -0.917437 -2.234515
  H 0.717311 0.462045 1.205100
  H 0.752636 -0.926378 0.091488
  H 0.751031 0.697358 -0.559024
  H 3.917108 1.452642 1.297793
  H 3.918902 -0.186336 1.954513
  H 2.656706 -0.700162 -1.689338
  H 5.138198 0.072522 0.214176
  H 6.832619 -0.681600 -1.624014
 17
 146.467875
  C 1.144362 0.099094 0.206428
  C 2.844172 -0.014710 0.155665
  C 3.350862 0.577707 1.442015
  H 2.530497 0.892661 2.080194
  C 3.140321 -0.628009 -0.881923
  C 4.595909 -0.316558 -0.457088
  C 4.754104 -0.591374 -1.688439
  H 4.180998 -0.802078 -2.581286
  O 6.032726 -0.767168 -2.235741
  H 0.828299 0.518862 1.133020
  H 0.763565 -0.899802 0.091275
  H 0.826296 0.730684 -0.620309
  H 3.960368 1.462329 1.250899
  H 3.927253 -0.151300 2.004033
  H 2.491324 -0.977235 -1.660550
  H 5.182129 -0.041238 0.380976
  H 6.759319 -0.631806 -1.604593
 17
 124.443321
  C 0.662438 0.162921 0.281461
  C 3.262870 -0.171013 0.117120
  C 3.560291 0.705584 1.252587
  H 2.666443 1.074568 1.750034
  C 3.087084 -1.044908 -0.783385
  C 4.534569 -0.841250 -0.460672
  C 4.935470 -0.323543 -1.629053
  H 4.261654 0.002657 -2.429048
  O 6.154432 -0.294007 -2.113908
  H 0.427361 0.710890 1.174360
  H 0.430096 -0.905466 0.270365
  H 0.601174 0.683387 -0.640357
  H 4.129255 1.538676 0.875007
  H 4.173850 0.189411 1.991001
  H 2.434065 -1.396505 -1.548334
  H 5.150880 -1.119817 0.363657
  H 6.865375 -0.508777 -1.472172
 17
 137.479653
  C 0.664868 0.157193 0.222941
  C 3.326710 -0.182444 0.084302
  C 3.623595 0.697941 1.225482
  H 2.737003 1.046227 1.728770
  C 3.083878 -1.052551 -0.742388
  C 4.495231 -0.852511 -0.455448
  C 4.877600 -0.294973 -1.594617
  H 4.186386 0.061956 -2.380849
  O 6.096265 -0.245707 -2.060400
  H 0.421579 0.715347 1.103889
  H 0.455660 -0.910115 0.243550
  H 0.591318 0.672723 -0.705152
  H 4.187277 1.520477 0.849235
  H 4.255500 0.170550 1.967910
  H 2.404141 -1.387040 -1.481542
  H 5.106227 -1.157433 0.368869
  H 6.785099 -0.494977 -1.421999
