 29
 0.000000
  C 0.966735 0.139821 0.399685
  C 2.442677 0.138078 0.394954
  C 3.231364 0.606486 1.560246
  C 2.459337 1.097314 2.781731
  C 3.416227 1.540382 3.884196
  C 3.058078 -0.326743 -0.762058
  C 4.436094 -0.409947 -0.969873
  C 5.118734 -0.860797 -2.094182
  C 4.625695 -1.383520 -3.397493
  C 3.136951 -1.501621 -3.692355
  H 2.987801 -1.900537 -4.687064
  O 6.441168 -0.855599 -2.081781
  H 0.534869 0.510416 1.321833
  H 0.594886 -0.871725 0.231737
  H 0.594613 0.753687 -0.421539
  H 3.888056 1.417155 1.224960
  H 3.888212 -0.210636 1.879153
  H 1.822227 0.301397 3.171746
  H 1.822162 1.941759 2.512573
  H 4.051979 0.717495 4.203700
  H 2.857232 1.888051 4.749493
  H 4.051902 2.355582 3.545412
  H 2.400784 -0.644455 -1.552849
  H 5.049556 -0.076375 -0.138830
  H 5.084428 -2.370920 -3.521923
  H 5.084652 -0.755937 -4.169774
  H 2.658813 -0.525579 -3.644863
  H 2.658631 -2.174276 -2.983647
  H 6.804278 -0.518741 -1.241015
 29
 0.734495
  C 0.954418 0.481941 0.261016
  C 2.423799 0.371073 0.277740
  C 3.212530 0.595947 1.509350
  C 2.452712 0.989384 2.772501
  C 3.423805 1.228762 3.925393
  C 3.039405 0.032214 -0.914157
  C 4.417778 -0.068807 -1.104312
  C 5.113943 -0.633810 -2.169171
  C 4.630889 -1.506636 -3.276583
  C 3.152772 -1.838201 -3.404805
  H 3.028857 -2.552957 -4.215041
  O 6.430202 -0.510276 -2.209334
  H 0.527044 0.663883 1.238997
  H 0.514047 -0.423093 -0.158773
  H 0.658208 1.291494 -0.408354
  H 3.956232 1.373936 1.303213
  H 3.787878 -0.311849 1.722390
  H 1.759708 0.197143 3.059926
  H 1.881627 1.903087 2.600219
  H 3.998378 0.330995 4.143408
  H 2.881517 1.506489 4.825664
  H 4.117748 2.033186 3.690295
  H 2.391271 -0.134215 -1.754783
  H 5.053442 0.329795 -0.326140
  H 5.203111 -2.437415 -3.185204
  H 4.985211 -1.051150 -4.208246
  H 2.567134 -0.959611 -3.655839
  H 2.768230 -2.292740 -2.496767
  H 6.798909 0.173723 -1.627597
 29
 5.258958
  C 0.934007 0.679722 0.168563
  C 2.399087 0.505037 0.174102
  C 3.194216 0.556617 1.423148
  C 2.448277 0.847641 2.722404
  C 3.427423 0.942576 3.889053
  C 3.020918 0.294749 -1.047098
  C 4.403135 0.182730 -1.235993
  C 5.116964 -0.516210 -2.194127
  C 4.659113 -1.623347 -3.073038
  C 3.186218 -1.997334 -3.058339
  H 3.037045 -2.871565 -3.685989
  O 6.431958 -0.342769 -2.247134
  H 0.506628 0.735660 1.161916
  H 0.458207 -0.134356 -0.378540
  H 0.679702 1.591679 -0.375015
  H 3.970794 1.319721 1.294222
  H 3.734471 -0.389430 1.536577
  H 1.731104 0.052810 2.933449
  H 1.908381 1.792384 2.641978
  H 3.969486 0.008392 4.019193
  H 2.895799 1.152918 4.813744
  H 4.150188 1.739175 3.727550
  H 2.387985 0.257453 -1.920273
  H 5.078825 0.692886 -0.559581
  H 5.267211 -2.494613 -2.805010
  H 4.962634 -1.364033 -4.092882
  H 2.570920 -1.197104 -3.455605
  H 2.853018 -2.242692 -2.053422
  H 6.745349 0.566860 -2.103718
 29
 12.920627
  C 0.910224 0.768367 0.110263
  C 2.373904 0.584905 0.085882
  C 3.183326 0.508957 1.324564
  C 2.455301 0.677854 2.654453
  C 3.447930 0.654910 3.813100
  C 2.995951 0.490908 -1.144812
  C 4.386505 0.375834 -1.335431
  C 5.115334 -0.433318 -2.176138
  C 4.689469 -1.709662 -2.803598
  C 3.212851 -2.054295 -2.710812
  H 3.050041 -3.049804 -3.114375
  O 6.434821 -0.195168 -2.248501
  H 0.490031 0.700232 1.105995
  H 0.423443 0.037632 -0.535350
  H 0.662568 1.745782 -0.308909
  H 3.967586 1.272474 1.253722
  H 3.721483 -0.444918 1.340649
  H 1.736453 -0.130784 2.797163
  H 1.918258 1.627449 2.670663
  H 3.974421 -0.296048 3.855823
  H 2.929979 0.794098 4.758791
  H 4.183443 1.449755 3.711954
  H 2.376784 0.543216 -2.029399
  H 5.093380 1.000192 -0.798491
  H 5.296986 -2.500836 -2.350840
  H 4.997160 -1.669023 -3.853732
  H 2.611120 -1.357425 -3.284582
  H 2.872158 -2.048719 -1.678323
  H 6.660970 0.676551 -2.610182
 29
 23.370572
  C 0.861688 0.834999 0.131082
  C 2.322142 0.640483 0.068007
  C 3.162039 0.516777 1.281167
  C 2.464228 0.595153 2.635027
  C 3.485211 0.534914 3.767289
  C 2.919169 0.583689 -1.178203
  C 4.310198 0.448396 -1.394361
  C 5.077644 -0.374830 -2.181746
  C 4.755552 -1.722202 -2.707457
  C 3.289832 -2.110950 -2.594679
  H 3.158576 -3.140442 -2.914320
  O 6.386423 0.000707 -2.223346
  H 0.461156 0.722104 1.131273
  H 0.354756 0.140195 -0.538533
  H 0.615015 1.834221 -0.234624
  H 3.929167 1.299423 1.232944
  H 3.721345 -0.423900 1.230885
  H 1.768519 -0.238051 2.748886
  H 1.904725 1.528233 2.716412
  H 4.031752 -0.405300 3.749148
  H 2.988012 0.615435 4.730731
  H 4.201885 1.349168 3.689355
  H 2.298424 0.731254 -2.052731
  H 5.105948 1.085239 -0.993794
  H 5.388749 -2.441654 -2.178344
  H 5.071567 -1.759901 -3.754902
  H 2.671785 -1.479214 -3.224400
  H 2.941872 -2.029560 -1.567819
  H 6.565829 0.673878 -2.898785
 29
 41.026910
  C 0.791810 0.976667 0.173906
  C 2.240049 0.715285 0.035153
  C 3.122487 0.450794 1.202376
  C 2.483271 0.504652 2.587580
  C 3.541133 0.304635 3.670686
  C 2.797571 0.764816 -1.240447
  C 4.168867 0.567482 -1.525099
  C 4.992354 -0.274573 -2.213912
  C 4.858414 -1.702470 -2.592555
  C 3.454180 -2.244899 -2.361244
  H 3.421116 -3.304110 -2.596423
  O 6.257683 0.286547 -2.296968
  H 0.422208 0.798102 1.177773
  H 0.223710 0.367561 -0.530273
  H 0.586489 2.016081 -0.093749
  H 3.945413 1.176437 1.168423
  H 3.589773 -0.530537 1.071365
  H 1.726538 -0.276951 2.687955
  H 2.007250 1.474532 2.742599
  H 4.014142 -0.670234 3.578701
  H 3.089547 0.367434 4.658579
  H 4.312652 1.067662 3.604848
  H 2.160033 1.047774 -2.071001
  H 5.088930 1.221168 -1.325939
  H 5.593712 -2.271889 -2.015674
  H 5.127033 -1.804368 -3.649036
  H 2.734621 -1.731986 -2.993907
  H 3.155061 -2.115916 -1.325232
  H 6.394194 0.809257 -3.100179
 29
 63.456985
  C 0.750987 1.038892 0.263357
  C 2.184110 0.725817 0.079599
  C 3.101591 0.470825 1.220659
  C 2.506937 0.521908 2.625856
  C 3.596731 0.310450 3.672296
  C 2.683503 0.694580 -1.209824
  C 4.001719 0.455127 -1.535442
  C 4.874530 -0.282613 -2.194073
  C 4.911170 -1.695545 -2.646258
  C 3.545687 -2.363779 -2.550468
  H 3.631546 -3.419975 -2.790364
  O 6.131530 0.430559 -2.170532
  H 0.417793 0.912720 1.286558
  H 0.138250 0.418736 -0.391318
  H 0.565439 2.072612 -0.035206
  H 3.923460 1.193528 1.169773
  H 3.569395 -0.509244 1.073162
  H 1.754183 -0.259009 2.744926
  H 2.035121 1.491004 2.798317
  H 4.059083 -0.668104 3.558259
  H 3.177944 0.369357 4.673533
  H 4.371900 1.067757 3.584880
  H 2.023263 0.980489 -2.020362
  H 5.298191 1.172878 -1.383057
  H 5.638644 -2.227173 -2.025864
  H 5.272859 -1.732791 -3.677138
  H 2.843441 -1.908690 -3.243059
  H 3.143534 -2.275903 -1.544357
  H 6.266652 0.979421 -2.968858
 29
 54.913008
  C 0.690542 1.076665 0.291759
  C 2.120910 0.732294 0.080444
  C 3.057807 0.424306 1.212275
  C 2.490379 0.526881 2.630050
  C 3.590544 0.295117 3.661235
  C 2.602151 0.709931 -1.222427
  C 3.888018 0.432155 -1.582005
  C 4.789074 -0.257187 -2.188706
  C 4.929439 -1.669100 -2.620063
  C 3.612537 -2.430620 -2.509560
  H 3.763295 -3.475106 -2.776660
  O 6.058338 0.542059 -2.190742
  H 0.364549 0.914874 1.312327
  H 0.056445 0.495627 -0.379745
  H 0.522347 2.125704 0.039732
  H 3.898191 1.130873 1.146617
  H 3.482146 -0.575150 1.063166
  H 1.702421 -0.212507 2.778969
  H 2.074309 1.527846 2.794913
  H 4.011599 -0.702773 3.563302
  H 3.195531 0.394024 4.663858
  H 4.389038 1.018165 3.542104
  H 1.937041 1.027920 -2.015759
  H 5.531387 1.183531 -1.561056
  H 5.697560 -2.152091 -2.014567
  H 5.283517 -1.683035 -3.656646
  H 2.871431 -2.008717 -3.184513
  H 3.219739 -2.389117 -1.496088
  H 6.178307 1.051525 -3.030317
 29
 45.664819
  C 0.623278 1.167667 0.382104
  C 2.023126 0.756028 0.111060
  C 3.001223 0.446531 1.195570
  C 2.504358 0.555036 2.634664
  C 3.638525 0.269979 3.615432
  C 2.433458 0.672938 -1.209736
  C 3.672812 0.330236 -1.626070
  C 4.652197 -0.271624 -2.190162
  C 5.002517 -1.644690 -2.620111
  C 3.784800 -2.562140 -2.559613
  H 4.075937 -3.579555 -2.804973
  O 5.965593 0.628418 -2.211540
  H 0.358848 1.084597 1.429342
  H -0.070845 0.565927 -0.205633
  H 0.473621 2.203549 0.071299
  H 3.863844 1.112117 1.084123
  H 3.385467 -0.567116 1.033030
  H 1.701240 -0.163111 2.810975
  H 2.119174 1.558551 2.824893
  H 4.021364 -0.739186 3.481746
  H 3.287117 0.364029 4.640243
  H 4.458420 0.971173 3.474354
  H 1.732983 0.971389 -1.980897
  H 5.618635 1.290026 -1.573227
  H 5.794691 -2.023904 -1.970499
  H 5.391908 -1.616856 -3.639821
  H 3.024789 -2.241043 -3.267213
  H 3.349319 -2.560356 -1.564342
  H 6.116999 1.087774 -3.068008
 29
 45.654672
  C 0.511277 1.031733 0.555331
  C 1.896559 0.660315 0.207331
  C 2.968347 0.513714 1.224013
  C 2.586034 0.724982 2.686040
  C 3.808441 0.566092 3.585490
  C 2.191886 0.443287 -1.127025
  C 3.395950 0.023882 -1.610093
  C 4.386104 -0.500343 -2.148844
  C 5.054008 -1.640516 -2.743011
  C 4.040773 -2.762171 -2.990687
  H 4.552499 -3.620380 -3.416431
  O 5.890271 0.726718 -1.910673
  H 0.351846 1.114391 1.623361
  H -0.187011 0.301875 0.144262
  H 0.255934 1.985446 0.089923
  H 3.774547 1.212516 0.978814
  H 3.405545 -0.484984 1.110205
  H 1.832538 -0.004900 2.987637
  H 2.174274 1.725392 2.829655
  H 4.235432 -0.429415 3.488568
  H 3.534406 0.715681 4.626941
  H 4.574641 1.295713 3.332914
  H 1.413778 0.603138 -1.863640
  H 5.451610 1.271520 -1.244757
  H 5.856214 -1.981837 -2.086359
  H 5.502538 -1.340099 -3.691746
  H 3.269781 -2.439334 -3.685030
  H 3.565931 -3.066173 -2.062068
  H 6.271704 1.286958 -2.604525
 29
 45.356422
  C 0.489836 0.960785 0.768611
  C 1.847308 0.588082 0.342525
  C 2.983000 0.483376 1.284149
  C 2.701981 0.721634 2.763714
  C 3.984847 0.594907 3.580294
  C 2.052232 0.327529 -1.004844
  C 3.220992 -0.110233 -1.570436
  C 4.168392 -0.602363 -2.182691
  C 4.922448 -1.534834 -2.964144
  C 3.988188 -2.524776 -3.668227
  H 4.579944 -3.221044 -4.254246
  O 5.927681 0.531719 -1.449172
  H 0.405060 1.106538 1.838489
  H -0.223911 0.199677 0.449734
  H 0.182151 1.878696 0.263711
  H 3.756198 1.189741 0.963165
  H 3.433572 -0.508482 1.157661
  H 1.980395 -0.010196 3.131129
  H 2.288136 1.719482 2.917862
  H 4.421285 -0.394904 3.470470
  H 3.779553 0.760099 4.634922
  H 4.720315 1.332190 3.266033
  H 1.221785 0.454944 -1.689466
  H 5.430805 0.958266 -0.748159
  H 5.650269 -2.048360 -2.333554
  H 5.486529 -0.978366 -3.717132
  H 3.304999 -2.006421 -4.335104
  H 3.406475 -3.084011 -2.941356
  H 6.620519 1.113541 -1.782346
 29
 43.180628
  C 0.434755 0.835652 0.918600
  C 1.772820 0.494639 0.415502
  C 2.974702 0.497345 1.273420
  C 2.788387 0.794283 2.757245
  C 4.127942 0.770610 3.486951
  C 1.883594 0.155835 -0.927210
  C 3.017158 -0.274244 -1.571666
  C 3.940868 -0.739489 -2.231377
  C 4.844108 -1.482425 -3.037258
  C 4.115469 -2.406247 -4.016176
  H 4.843344 -2.939974 -4.619226
  O 5.891229 0.411870 -1.181116
  H 0.420274 1.060044 1.977800
  H -0.260265 0.019661 0.711875
  H 0.041187 1.692529 0.367319
  H 3.679722 1.226047 0.856316
  H 3.478600 -0.470169 1.157783
  H 2.132043 0.047052 3.206986
  H 2.334797 1.777408 2.894514
  H 4.608729 -0.200054 3.390599
  H 3.985532 0.975341 4.545083
  H 4.799944 1.528437 3.090945
  H 0.993401 0.196421 -1.544492
  H 5.343499 0.802332 -0.495411
  H 5.542591 -2.029401 -2.400418
  H 5.453104 -0.768289 -3.602260
  H 3.468226 -1.840115 -4.679833
  H 3.509155 -3.129387 -3.477899
  H 6.746977 0.852707 -1.179136
 29
 43.304603
  C 0.408061 0.632291 0.971781
  C 1.762410 0.399546 0.443503
  C 2.977280 0.527426 1.276008
  C 2.793027 0.844032 2.759853
  C 4.143514 0.948688 3.463299
  C 1.879713 0.045840 -0.897684
  C 3.034519 -0.290616 -1.562089
  C 3.966859 -0.723695 -2.243923
  C 4.867565 -1.456618 -3.083194
  C 4.130175 -2.333421 -4.099378
  H 4.856798 -2.854898 -4.728330
  O 5.904351 0.422044 -1.180726
  H 0.394793 0.885414 2.027168
  H -0.210093 -0.253714 0.805057
  H -0.077775 1.432882 0.405290
  H 3.602924 1.309860 0.825211
  H 3.557851 -0.400339 1.170570
  H 2.209143 0.053912 3.240227
  H 2.261725 1.792096 2.884582
  H 4.699742 0.014772 3.381808
  H 4.002381 1.165231 4.521901
  H 4.744054 1.751024 3.035463
  H 0.978987 -0.003952 -1.499677
  H 5.356130 0.811809 -0.488897
  H 5.557541 -2.042732 -2.459099
  H 5.495543 -0.724613 -3.618701
  H 3.483218 -1.730968 -4.741588
  H 3.515056 -3.074875 -3.582918
  H 6.827787 0.665361 -1.038598
 29
 45.574810
  C 0.438080 0.637131 0.920760
  C 1.803459 0.369514 0.446332
  C 2.993900 0.508119 1.311442
  C 2.769398 0.894866 2.769945
  C 4.100307 0.994880 3.510280
  C 1.962799 -0.023109 -0.876603
  C 3.137237 -0.376366 -1.493127
  C 4.088523 -0.745695 -2.179024
  C 4.893675 -1.438300 -3.128972
  C 4.037443 -2.227510 -4.121455
  H 4.683985 -2.718299 -4.844453
  O 5.893822 0.324210 -1.183956
  H 0.398736 0.927330 1.963840
  H -0.186935 -0.244671 0.768001
  H -0.016419 1.425979 0.317525
  H 3.656374 1.251985 0.853794
  H 3.546142 -0.439137 1.269871
  H 2.150483 0.144597 3.265214
  H 2.264859 1.860636 2.831954
  H 4.629446 0.044621 3.490077
  H 3.934269 1.264671 4.550351
  H 4.738219 1.755173 3.064952
  H 1.085304 -0.070720 -1.511261
  H 5.378690 0.709674 -0.474747
  H 5.615004 -2.082586 -2.620439
  H 5.478792 -0.685605 -3.670959
  H 3.352008 -1.574261 -4.655094
  H 3.460390 -2.988927 -3.602282
  H 6.835290 0.313585 -0.985047
 29
 46.864216
  C 0.463924 0.775750 0.870756
  C 1.820384 0.386895 0.446986
  C 2.994266 0.469291 1.345037
  C 2.755799 0.928241 2.781136
  C 4.068267 0.952975 3.560525
  C 1.991478 -0.061992 -0.861298
  C 3.154904 -0.516888 -1.429171
  C 4.121568 -0.840895 -2.133875
  C 4.922805 -1.438610 -3.159371
  C 4.060773 -2.262341 -4.123225
  H 4.692119 -2.674334 -4.911982
  O 5.844801 0.367917 -1.255815
  H 0.414878 1.109740 1.902054
  H -0.219985 -0.063643 0.732095
  H 0.088183 1.572619 0.222780
  H 3.728956 1.141097 0.886092
  H 3.468952 -0.520660 1.360697
  H 2.063994 0.248050 3.283366
  H 2.327023 1.933538 2.791178
  H 4.520074 -0.038215 3.593560
  H 3.892177 1.276066 4.585018
  H 4.777818 1.643806 3.107587
  H 1.133205 -0.069203 -1.523580
  H 5.329923 0.766054 -0.552703
  H 5.721918 -2.049888 -2.729812
  H 5.400162 -0.616124 -3.709033
  H 3.289116 -1.643756 -4.579113
  H 3.584454 -3.088789 -3.594779
  H 6.711342 0.125086 -0.918194
