 19
 0.000000
  H 1.542884 0.055032 0.160404
  C 2.623465 0.058524 0.098506
  C 3.329269 -0.015906 1.417624
  C 2.344918 -0.081575 2.581381
  H 2.875268 -0.135007 3.528401
  C 3.188358 0.126900 -1.113251
  C 2.330360 0.196245 -2.342191
  H 1.277797 0.181201 -2.075667
  C 4.630464 0.137268 -1.296929
  C 5.260764 0.203151 -2.464592
  H 6.335194 0.206296 -2.520335
  H 3.977298 0.858342 1.544056
  H 3.977311 -0.898831 1.444907
  H 1.709462 -0.959725 2.494063
  H 1.709460 0.800814 2.593398
  H 2.542547 -0.645966 -3.001081
  H 2.542557 1.107246 -2.902171
  H 5.219789 0.086106 -0.390200
  H 4.745955 0.256403 -3.408317
 19
 13.084241
  H 1.506165 0.050687 0.237408
  C 2.583105 0.054211 0.174951
  C 3.297697 -0.019550 1.482183
  C 2.323229 -0.085608 2.652845
  H 2.861841 -0.138814 3.595832
  C 3.211133 0.130833 -1.182937
  C 2.347910 0.199622 -2.402008
  H 1.296433 0.184236 -2.129409
  C 4.642220 0.140757 -1.358769
  C 5.279752 0.206698 -2.527447
  H 6.355155 0.209554 -2.578069
  H 3.946480 0.854953 1.602737
  H 3.946489 -0.902063 1.503595
  H 1.687314 -0.964583 2.570729
  H 1.687310 0.797019 2.670126
  H 2.555892 -0.642877 -3.061317
  H 2.555899 1.110943 -2.962362
  H 5.227092 0.089427 -0.449068
  H 4.769038 0.260073 -3.473358
