 19
 0.000000
  C 0.977509 0.053412 0.189147
  C 2.480590 0.054477 0.170248
  C 3.259119 -0.018466 1.463028
  C 2.452987 -0.091386 2.755256
  H 3.133146 -0.139203 3.602744
  C 3.105712 0.121248 -1.013064
  H 2.531760 0.172959 -1.929502
  C 4.535489 0.132875 -1.219078
  C 5.104705 0.200654 -2.420360
  H 6.173291 0.208395 -2.557526
  H 0.568727 -0.003157 1.191626
  H 0.594704 -0.798778 -0.371572
  H 0.594705 0.963271 -0.272142
  H 3.909393 0.860135 1.520469
  H 3.909406 -0.897960 1.421266
  H 1.823569 -0.978687 2.777224
  H 1.823563 0.787802 2.876901
  H 5.171666 0.083622 -0.346166
  H 4.533915 0.252226 -3.334337
 19
 11.999601
  C 0.980667 0.053377 0.189750
  C 2.478785 0.054038 0.178023
  C 3.272966 -0.017521 1.446258
  C 2.379701 -0.098626 2.883564
  H 3.076664 -0.145418 3.712903
  C 3.142477 0.125455 -1.087617
  H 2.548111 0.176278 -1.988315
  C 4.564278 0.136800 -1.288649
  C 5.132399 0.204626 -2.490753
  H 6.200862 0.212193 -2.624831
  H 0.574749 -0.003245 1.193166
  H 0.598780 -0.796782 -0.375339
  H 0.598780 0.961712 -0.276109
  H 3.916902 0.860353 1.517906
  H 3.916913 -0.897885 1.418694
  H 1.759970 -0.987992 2.891969
  H 1.759968 0.784138 2.991962
  H 5.197902 0.087439 -0.413833
  H 4.554188 0.255903 -3.399501
