 19
 0.000000
  C 1.018895 0.118917 0.347862
  C 2.489863 0.119029 0.347858
  C 3.223699 0.594146 1.529058
  H 2.564637 0.915398 2.328452
  C 3.140324 -0.338900 -0.791534
  C 4.528228 -0.405853 -0.959102
  C 5.164108 -0.859735 -2.091093
  C 4.555870 -1.353542 -3.323216
  H 3.472292 -1.359887 -3.340135
  H 6.246923 -0.861687 -2.095901
  H 0.601424 0.492762 1.277614
  H 0.642624 -0.890602 0.170710
  H 0.642540 0.724869 -0.478739
  H 3.879446 1.423000 1.256132
  H 3.879920 -0.192581 1.905808
  H 2.514126 -0.667239 -1.608551
  H 5.147755 -0.075941 -0.137409
  H 4.931178 -2.361999 -3.517318
  H 4.931834 -0.758788 -4.160139
 19
 5.035606
  C 1.018955 0.131635 0.379441
  C 2.496845 0.118753 0.347260
  C 3.256128 0.592655 1.525312
  H 2.594843 0.914145 2.325316
  C 3.111605 -0.344703 -0.805665
  C 4.480652 -0.428862 -1.016416
  C 5.182399 -0.863942 -2.101657
  C 4.608564 -1.367549 -3.358282
  H 3.522833 -1.373384 -3.373875
  H 6.265517 -0.839056 -2.039614
  H 0.624749 0.509261 1.318556
  H 0.628697 -0.874567 0.203712
  H 0.628547 0.736171 -0.443884
  H 3.911175 1.425355 1.256058
  H 3.911733 -0.194286 1.907377
  H 2.441873 -0.662557 -1.595981
  H 4.882871 -0.065355 -0.111087
  H 4.989195 -2.375730 -3.551605
  H 4.989821 -0.772436 -4.194470
 19
 15.611491
  C 1.026165 0.144752 0.411248
  C 2.498420 0.122329 0.355916
  C 3.267691 0.594410 1.530943
  H 2.607537 0.915576 2.331047
  C 3.094738 -0.353672 -0.828896
  C 4.452415 -0.449711 -1.069793
  C 5.193265 -0.870774 -2.120133
  C 4.652271 -1.376865 -3.380250
  H 3.570380 -1.388885 -3.408770
  H 6.272461 -0.832044 -2.025324
  H 0.648012 0.523788 1.354512
  H 0.628260 -0.856416 0.240262
  H 0.628407 0.749510 -0.404840
  H 3.916930 1.429358 1.267077
  H 3.917568 -0.190802 1.917798
  H 2.385818 -0.658328 -1.586155
  H 4.670700 -0.067199 -0.117227
  H 5.041581 -2.379678 -3.565385
  H 5.040803 -0.780082 -4.207593
 19
 29.612905
  C 1.031371 0.152740 0.430851
  C 2.501882 0.125091 0.362636
  C 3.277070 0.591491 1.524289
  H 2.620824 0.913728 2.327920
  C 3.078598 -0.346979 -0.812822
  C 4.432009 -0.454377 -1.081943
  C 5.205855 -0.874962 -2.131209
  C 4.685299 -1.382494 -3.393595
  H 3.597442 -1.398807 -3.431569
  H 6.278083 -0.829755 -2.021422
  H 0.662942 0.533823 1.379501
  H 0.626733 -0.850002 0.263098
  H 0.627054 0.761128 -0.383837
  H 3.928283 1.430640 1.257665
  H 3.928829 -0.198675 1.911320
  H 2.330853 -0.650258 -1.567266
  H 4.496835 -0.063919 -0.109292
  H 5.082199 -2.386004 -3.574247
  H 5.080625 -0.782217 -4.218355
 19
 44.866884
  C 1.022092 0.158159 0.444203
  C 2.499528 0.126339 0.365439
  C 3.285404 0.590676 1.522675
  H 2.632674 0.914670 2.331389
  C 3.069996 -0.345780 -0.810877
  C 4.443755 -0.463292 -1.104837
  C 5.220450 -0.875969 -2.134350
  C 4.704061 -1.383699 -3.395712
  H 3.615405 -1.399708 -3.431898
  H 6.289688 -0.828443 -2.019763
  H 0.660200 0.542002 1.400367
  H 0.611212 -0.847370 0.278621
  H 0.611554 0.770449 -0.370609
  H 3.936571 1.428077 1.254956
  H 3.937322 -0.199395 1.907258
  H 2.311481 -0.636488 -1.534612
  H 4.372550 -0.074137 -0.135232
  H 5.101329 -2.386123 -3.575729
  H 5.099257 -0.783864 -4.219647
 19
 57.962432
  C 1.023016 0.167353 0.445887
  C 2.493350 0.141653 0.377648
  C 3.275001 0.584629 1.556327
  H 2.623029 0.883985 2.368037
  C 3.077260 -0.303921 -0.805751
  C 4.461702 -0.448634 -1.117712
  C 5.228774 -0.859798 -2.157768
  C 4.707738 -1.422824 -3.403853
  H 3.630953 -1.477676 -3.420890
  H 6.307973 -0.776259 -2.070432
  H 0.658339 0.525407 1.403070
  H 0.617791 -0.826864 0.258225
  H 0.619763 0.795497 -0.346608
  H 3.921948 1.428330 1.316640
  H 3.924048 -0.213334 1.920287
  H 2.311776 -0.577588 -1.561334
  H 4.286096 -0.059059 -0.135028
  H 5.131172 -2.412029 -3.571070
  H 5.066464 -0.824893 -4.238897
 19
 65.412376
  C 1.002592 0.184844 0.458463
  C 2.483695 0.156866 0.383229
  C 3.265120 0.560581 1.582323
  H 2.611798 0.826797 2.407215
  C 3.078922 -0.237220 -0.785489
  C 4.472494 -0.434192 -1.170083
  C 5.220737 -0.825159 -2.175469
  C 4.731699 -1.488856 -3.418845
  H 3.649824 -1.611998 -3.414016
  H 6.292776 -0.678038 -2.121916
  H 0.651831 0.509466 1.434541
  H 0.588589 -0.800011 0.246918
  H 0.596276 0.854278 -0.297547
  H 3.903353 1.414056 1.382181
  H 3.902584 -0.254480 1.911676
  H 2.345082 -0.467469 -1.577481
  H 4.249749 -0.036052 -0.160179
  H 5.209569 -2.463147 -3.550651
  H 5.041813 -0.878294 -4.271134
 19
 70.201782
  C 0.993694 0.191835 0.453402
  C 2.475968 0.169436 0.399655
  C 3.250002 0.544069 1.628851
  H 2.584411 0.785280 2.458373
  C 3.084590 -0.185952 -0.763310
  C 4.478232 -0.416608 -1.205044
  C 5.217553 -0.809534 -2.208894
  C 4.739858 -1.530580 -3.425684
  H 3.664920 -1.692368 -3.392098
  H 6.285243 -0.630296 -2.189606
  H 0.637953 0.483671 1.429751
  H 0.585356 -0.785775 0.215552
  H 0.595324 0.889820 -0.279035
  H 3.889516 1.420415 1.450418
  H 3.896715 -0.285833 1.947325
  H 2.382461 -0.389785 -1.582998
  H 4.220040 -0.009327 -0.201440
  H 5.246449 -2.486758 -3.515714
  H 4.999299 -0.935136 -4.299644
 19
 73.969644
  C 0.993712 0.205035 0.454522
  C 2.472999 0.185194 0.415543
  C 3.234672 0.511093 1.666629
  H 2.563456 0.712953 2.496047
  C 3.089593 -0.122759 -0.755686
  C 4.486347 -0.381399 -1.240274
  C 5.213614 -0.782193 -2.241530
  C 4.741316 -1.582958 -3.413693
  H 3.672534 -1.798052 -3.348387
  H 6.276425 -0.557737 -2.259019
  H 0.624631 0.457208 1.449093
  H 0.590441 -0.763072 0.171177
  H 0.600159 0.936270 -0.255926
  H 3.861628 1.387866 1.530006
  H 3.879497 -0.316763 1.953029
  H 2.405481 -0.294108 -1.599752
  H 4.194433 0.047336 -0.245914
  H 5.299040 -2.519657 -3.468174
  H 4.953765 -1.016067 -4.327406
 19
 77.143218
  C 0.979511 0.222050 0.461317
  C 2.469358 0.192914 0.429073
  C 3.224828 0.462856 1.680495
  H 2.545726 0.635014 2.526473
  C 3.092626 -0.068054 -0.755153
  C 4.495643 -0.333399 -1.271928
  C 5.213839 -0.749435 -2.272450
  C 4.746258 -1.633166 -3.389296
  H 3.698061 -1.889040 -3.285877
  H 6.264207 -0.484049 -2.326920
  H 0.609845 0.433412 1.453841
  H 0.569574 -0.731605 0.135293
  H 0.596977 0.976701 -0.213176
  H 3.856516 1.346984 1.575144
  H 3.872713 -0.378488 1.932607
  H 2.422820 -0.202870 -1.613159
  H 4.165763 0.124527 -0.283255
  H 5.341752 -2.543494 -3.410076
  H 4.907808 -1.114687 -4.327359
 19
 78.693313
  C 0.982203 0.232837 0.450101
  C 2.466382 0.200938 0.427686
  C 3.221043 0.398964 1.701650
  H 2.548154 0.519873 2.543119
  C 3.094438 -0.000591 -0.769282
  C 4.493166 -0.266538 -1.308550
  C 5.203654 -0.713791 -2.298067
  C 4.743536 -1.692588 -3.334454
  H 3.711250 -1.994933 -3.172044
  H 6.232108 -0.393821 -2.412186
  H 0.603429 0.390665 1.456690
  H 0.572114 -0.699108 0.067704
  H 0.603639 1.031177 -0.190029
  H 3.850889 1.282097 1.652881
  H 3.869355 -0.454486 1.905660
  H 2.432446 -0.088218 -1.636911
  H 4.129254 0.245309 -0.331214
  H 5.387186 -2.572549 -3.319021
  H 4.842687 -1.229072 -4.312863
 19
 78.748646
  C 0.970038 0.252790 0.472539
  C 2.452861 0.197643 0.432046
  C 3.227477 0.321876 1.696090
  H 2.569844 0.416958 2.551439
  C 3.067464 0.060574 -0.792244
  C 4.440404 -0.209181 -1.366755
  C 5.178793 -0.675128 -2.324178
  C 4.772513 -1.751713 -3.287919
  H 3.754843 -2.085641 -3.112495
  H 6.197438 -0.322858 -2.449671
  H 0.604367 0.364958 1.487427
  H 0.538825 -0.650756 0.043102
  H 0.599228 1.090158 -0.120062
  H 3.876874 1.198944 1.678714
  H 3.864960 -0.551065 1.850391
  H 2.400122 0.015433 -1.656324
  H 4.064075 0.368150 -0.389782
  H 5.452520 -2.595888 -3.200003
  H 4.861147 -1.358765 -4.298467
 19
 77.317682
  C 0.955634 0.288268 0.513200
  C 2.433405 0.196086 0.432565
  C 3.244421 0.235130 1.672266
  H 2.612461 0.293432 2.551570
  C 3.019778 0.119474 -0.827325
  C 4.342965 -0.186006 -1.432677
  C 5.140868 -0.647670 -2.339752
  C 4.829873 -1.814217 -3.236119
  H 3.831524 -2.200299 -3.060335
  H 6.142200 -0.240163 -2.463051
  H 0.614841 0.352431 1.546528
  H 0.493483 -0.574503 0.047285
  H 0.589406 1.164925 -0.026618
  H 3.918568 1.101610 1.686588
  H 3.867351 -0.659487 1.758043
  H 2.337156 0.119498 -1.678459
  H 3.978886 0.475060 -0.453425
  H 5.559978 -2.602694 -3.074349
  H 4.920763 -1.486476 -4.269032
 19
 73.866558
  C 0.948081 0.308992 0.557687
  C 2.417314 0.208937 0.433332
  C 3.270953 0.158724 1.646930
  H 2.668517 0.155228 2.548586
  C 2.969859 0.199074 -0.856451
  C 4.256754 -0.178807 -1.491192
  C 5.112867 -0.646861 -2.337680
  C 4.886124 -1.871326 -3.178297
  H 3.899718 -2.296935 -3.009709
  H 6.095236 -0.197391 -2.456117
  H 0.634707 0.312831 1.598313
  H 0.463579 -0.522243 0.048912
  H 0.576561 1.216729 0.079555
  H 3.946062 1.019819 1.702532
  H 3.892989 -0.738256 1.649203
  H 2.272910 0.217804 -1.693675
  H 3.910075 0.603677 -0.510090
  H 5.645666 -2.611795 -2.952717
  H 4.992609 -1.592288 -4.229277
