 25
 0.000000
  C 0.990485 0.149759 0.378417
  C 2.464342 0.161714 0.398779
  C 3.239509 0.615629 1.571827
  C 2.451974 1.084538 2.788269
  H 3.132576 1.389294 3.575535
  C 3.089497 -0.287277 -0.759907
  C 4.467816 -0.389640 -0.996405
  C 5.110337 -0.858378 -2.116721
  C 4.621744 -1.392384 -3.397798
  C 3.134936 -1.511566 -3.694466
  H 2.995522 -1.926792 -4.687485
  H 6.192416 -0.850900 -2.090439
  H 0.543366 0.502298 1.300658
  H 0.625550 -0.861936 0.181720
  H 0.626664 0.770866 -0.441359
  H 3.900042 1.428543 1.248883
  H 3.901663 -0.202029 1.878830
  H 1.820290 0.287061 3.173975
  H 1.818501 1.933085 2.538287
  H 2.422819 -0.597452 -1.548988
  H 5.112870 -0.056794 -0.191826
  H 5.085287 -2.381490 -3.511325
  H 5.090478 -0.780889 -4.180405
  H 2.654258 -0.536323 -3.669231
  H 2.648872 -2.175089 -2.982900
 25
 -0.029656
  C 0.978511 0.083769 0.439729
  C 2.443799 0.179292 0.379166
  C 3.237157 0.661129 1.530299
  C 2.466120 1.121630 2.759509
  H 3.167763 1.468924 3.515410
  C 3.056790 -0.275262 -0.789004
  C 4.435357 -0.456350 -0.964188
  C 5.088527 -0.932216 -2.074390
  C 4.626735 -1.395370 -3.387190
  C 3.150729 -1.405235 -3.749696
  H 3.038563 -1.787596 -4.762064
  H 6.166953 -0.987012 -1.982239
  H 0.541112 0.611705 1.277263
  H 0.740890 -0.984130 0.544205
  H 0.518669 0.396521 -0.496391
  H 3.877597 1.481350 1.183210
  H 3.927646 -0.136961 1.829651
  H 1.886100 0.311212 3.191372
  H 1.799000 1.948660 2.525856
  H 2.402470 -0.514080 -1.612295
  H 5.071137 -0.209571 -0.125243
  H 5.038533 -2.405821 -3.518676
  H 5.178074 -0.801817 -4.130629
  H 2.732542 -0.403691 -3.729693
  H 2.584087 -2.057879 -3.087892
 25
 3.543041
  C 0.976654 0.061780 0.482620
  C 2.431600 0.123267 0.400703
  C 3.238329 0.649669 1.523171
  C 2.464232 1.194674 2.719670
  H 3.162188 1.632451 3.430967
  C 3.031444 -0.363134 -0.766961
  C 4.409679 -0.558902 -0.934845
  C 5.069524 -1.018789 -2.047264
  C 4.629123 -1.378677 -3.399172
  C 3.165274 -1.282687 -3.806498
  H 3.072528 -1.553893 -4.857855
  H 6.132204 -1.168177 -1.918466
  H 0.501291 0.676293 1.229764
  H 0.963885 -0.994354 0.853603
  H 0.469926 0.030201 -0.471116
  H 3.883726 1.445435 1.122035
  H 3.911259 -0.136115 1.872717
  H 1.918429 0.405460 3.231375
  H 1.766652 1.973917 2.426217
  H 2.378480 -0.617261 -1.587750
  H 5.047146 -0.268478 -0.113504
  H 4.987451 -2.401675 -3.577633
  H 5.231598 -0.774740 -4.083792
  H 2.790393 -0.272190 -3.695700
  H 2.549784 -1.973593 -3.234606
 25
 16.650041
  C 0.975830 0.164198 0.451151
  C 2.415062 0.136184 0.394810
  C 3.237901 0.634433 1.525385
  C 2.458247 1.146933 2.736055
  H 3.157668 1.471260 3.503981
  C 3.026021 -0.284990 -0.799360
  C 4.401038 -0.488312 -0.956836
  C 5.065107 -0.949075 -2.067454
  C 4.613466 -1.400932 -3.394067
  C 3.148169 -1.328084 -3.781525
  H 3.039265 -1.662955 -4.804287
  H 6.146540 -1.003991 -1.966885
  H 0.467197 0.670427 1.255491
  H 1.248207 -0.951888 0.758885
  H 0.431874 0.052659 -0.479063
  H 3.859361 1.461095 1.138171
  H 3.928314 -0.156351 1.845440
  H 1.835237 0.369365 3.161013
  H 1.836902 2.005574 2.482086
  H 2.380927 -0.522390 -1.635860
  H 5.027064 -0.314076 -0.091455
  H 4.972045 -2.429631 -3.514661
  H 5.197157 -0.825431 -4.121496
  H 2.773521 -0.306445 -3.729819
  H 2.541928 -1.980937 -3.153493
 25
 34.524592
  C 0.944184 0.310851 0.432784
  C 2.346558 0.098805 0.410597
  C 3.219617 0.591588 1.538738
  C 2.478033 1.141903 2.752636
  H 3.200932 1.491393 3.480188
  C 2.982183 -0.320607 -0.807045
  C 4.355000 -0.539105 -0.944967
  C 5.046814 -0.952558 -2.056390
  C 4.627600 -1.350432 -3.418340
  C 3.155410 -1.401795 -3.795356
  H 3.067874 -1.718138 -4.829952
  H 6.121112 -0.975375 -1.947119
  H 0.448112 0.756760 1.275485
  H 1.565975 -0.891084 0.712890
  H 0.355697 0.153660 -0.456246
  H 3.862035 1.374733 1.131546
  H 3.872938 -0.218131 1.868719
  H 1.870048 0.378053 3.235473
  H 1.848846 1.988284 2.487222
  H 2.341344 -0.501659 -1.648165
  H 4.966908 -0.368199 -0.072337
  H 5.079591 -2.331718 -3.608773
  H 5.148372 -0.674605 -4.112703
  H 2.697239 -0.419821 -3.716389
  H 2.614267 -2.117665 -3.180449
 25
 40.547230
  C 0.939460 0.337655 0.408282
  C 2.338818 0.039251 0.446756
  C 3.216395 0.603442 1.562447
  C 2.453247 1.159811 2.758285
  H 3.163651 1.529492 3.494540
  C 2.990527 -0.374843 -0.798073
  C 4.353115 -0.557961 -0.946934
  C 5.032116 -0.979693 -2.067887
  C 4.597432 -1.357412 -3.421898
  C 3.126323 -1.329997 -3.802626
  H 3.026957 -1.647434 -4.837312
  H 6.106751 -1.049371 -1.955518
  H 0.435357 0.831146 1.217968
  H 2.013316 -1.031747 0.683751
  H 0.349695 0.030348 -0.437760
  H 3.826048 1.402761 1.136445
  H 3.891601 -0.173895 1.915762
  H 1.846853 0.395527 3.237314
  H 1.815175 1.994197 2.470529
  H 2.333588 -0.564006 -1.630276
  H 4.977197 -0.317864 -0.097625
  H 4.994551 -2.366355 -3.601797
  H 5.158998 -0.722888 -4.115065
  H 2.718276 -0.324975 -3.728216
  H 2.547770 -2.020995 -3.194866
 25
 42.287476
  C 0.944360 0.331421 0.436478
  C 2.318299 0.048353 0.463824
  C 3.203888 0.581311 1.584243
  C 2.450402 1.200012 2.755360
  H 3.165984 1.554739 3.492370
  C 2.967980 -0.404511 -0.787453
  C 4.344643 -0.575240 -0.941496
  C 5.019827 -0.951004 -2.071158
  C 4.581568 -1.331819 -3.426616
  C 3.103882 -1.349451 -3.791790
  H 3.002714 -1.662751 -4.828013
  H 6.098140 -0.986394 -1.971993
  H 0.450916 0.838276 1.241707
  H 2.329571 -1.125771 0.424918
  H 0.340042 0.035390 -0.402641
  H 3.864514 1.339094 1.159528
  H 3.830531 -0.222807 1.969442
  H 1.804233 0.472720 3.241453
  H 1.855987 2.052783 2.440536
  H 2.310118 -0.566938 -1.624633
  H 4.963670 -0.361540 -0.081110
  H 5.010292 -2.324361 -3.619315
  H 5.114658 -0.670299 -4.122019
  H 2.665201 -0.359723 -3.707456
  H 2.553776 -2.059875 -3.181944
 25
 38.315169
  C 0.940194 0.305668 0.464187
  C 2.295105 0.071726 0.480259
  C 3.189721 0.597770 1.580196
  C 2.457595 1.245160 2.752901
  H 3.185924 1.599944 3.475475
  C 2.935504 -0.474750 -0.746401
  C 4.333441 -0.628982 -0.912471
  C 5.007456 -0.973483 -2.042443
  C 4.572759 -1.315942 -3.413194
  C 3.093742 -1.323305 -3.784811
  H 2.996185 -1.606529 -4.832462
  H 6.083726 -1.001323 -1.945825
  H 0.445454 0.801458 1.278621
  H 2.486796 -1.214100 0.171446
  H 0.322226 -0.006835 -0.358186
  H 3.861762 1.336082 1.138572
  H 3.806678 -0.212390 1.971987
  H 1.807361 0.533344 3.256835
  H 1.869124 2.103244 2.431690
  H 2.282963 -0.602680 -1.596521
  H 4.945986 -0.445587 -0.041000
  H 5.002587 -2.303567 -3.633912
  H 5.108699 -0.633597 -4.088009
  H 2.654000 -0.336046 -3.673260
  H 2.539873 -2.053366 -3.197574
 25
 28.228615
  C 0.953093 0.291298 0.470729
  C 2.289758 0.094217 0.488130
  C 3.198098 0.608963 1.558822
  C 2.493137 1.310212 2.715962
  H 3.233426 1.641214 3.439886
  C 2.893168 -0.608290 -0.695472
  C 4.316394 -0.712889 -0.880190
  C 4.999545 -0.970834 -2.030296
  C 4.568430 -1.252850 -3.410050
  C 3.093200 -1.286800 -3.775104
  H 2.998447 -1.520241 -4.833472
  H 6.078542 -0.996814 -1.932804
  H 0.443014 0.818425 1.256349
  H 2.555991 -1.435782 0.025202
  H 0.333526 -0.074212 -0.330960
  H 3.899248 1.307744 1.095032
  H 3.785315 -0.216168 1.968716
  H 1.804626 0.640521 3.224989
  H 1.949861 2.187373 2.373845
  H 2.247153 -0.669910 -1.559293
  H 4.922586 -0.538280 -0.002615
  H 5.026890 -2.212752 -3.684757
  H 5.082246 -0.524348 -4.050041
  H 2.623749 -0.319408 -3.612812
  H 2.564806 -2.059506 -3.222575
 25
 19.588109
  C 0.957192 0.261832 0.490047
  C 2.293308 0.080422 0.497792
  C 3.206886 0.588898 1.556427
  C 2.530321 1.361903 2.682493
  H 3.281914 1.710056 3.384308
  C 2.861631 -0.685129 -0.660295
  C 4.301310 -0.749919 -0.852619
  C 4.987955 -0.970565 -2.005766
  C 4.558782 -1.207944 -3.392247
  C 3.085907 -1.257893 -3.759548
  H 2.994012 -1.469935 -4.822157
  H 6.068211 -0.962002 -1.913266
  H 0.438385 0.805934 1.260714
  H 2.555657 -1.649790 -0.188589
  H 0.343080 -0.116006 -0.312235
  H 3.950270 1.231163 1.075348
  H 3.750070 -0.252782 1.996082
  H 1.830275 0.735222 3.227996
  H 2.002814 2.232012 2.299975
  H 2.259007 -0.610055 -1.557314
  H 4.901596 -0.604895 0.033990
  H 5.034079 -2.151482 -3.699797
  H 5.065325 -0.456216 -4.011226
  H 2.600887 -0.301338 -3.578579
  H 2.566597 -2.046361 -3.220191
 25
 17.098961
  C 0.941678 0.160504 0.571969
  C 2.286629 0.092944 0.496120
  C 3.207914 0.624475 1.536001
  C 2.544661 1.384462 2.678198
  H 3.307766 1.767597 3.351007
  C 2.842225 -0.623036 -0.692836
  C 4.292796 -0.742710 -0.845178
  C 4.989618 -1.007898 -1.980785
  C 4.568069 -1.241865 -3.372543
  C 3.099829 -1.242332 -3.756207
  H 3.011956 -1.454626 -4.819384
  H 6.066233 -1.059462 -1.868728
  H 0.430904 0.620580 1.397820
  H 2.427770 -1.629549 -0.496026
  H 0.311649 -0.233288 -0.207311
  H 3.931460 1.279223 1.039307
  H 3.777507 -0.208821 1.959570
  H 1.887498 0.738963 3.255255
  H 1.971128 2.229667 2.306157
  H 2.335459 -0.321084 -1.610602
  H 4.880932 -0.617635 0.052485
  H 5.010184 -2.206222 -3.662284
  H 5.111595 -0.520742 -3.997611
  H 2.643868 -0.268687 -3.586136
  H 2.546144 -2.005332 -3.216916
 25
 15.780539
  C 0.944744 0.145835 0.585388
  C 2.289992 0.114594 0.489702
  C 3.204283 0.628985 1.544890
  C 2.531796 1.336998 2.714510
  H 3.289937 1.735613 3.383709
  C 2.855419 -0.501252 -0.746121
  C 4.310177 -0.656325 -0.867792
  C 5.001028 -1.005112 -1.983612
  C 4.562622 -1.307051 -3.357298
  C 3.089870 -1.310254 -3.721005
  H 2.983827 -1.584019 -4.767923
  H 6.076533 -1.075958 -1.871122
  H 0.429647 0.518349 1.451187
  H 2.381011 -1.493812 -0.819646
  H 0.317580 -0.216260 -0.211607
  H 3.915326 1.314512 1.072727
  H 3.790046 -0.209911 1.935058
  H 1.910257 0.653015 3.287163
  H 1.918165 2.165848 2.371320
  H 2.449766 0.018252 -1.623621
  H 4.897920 -0.490352 0.022888
  H 4.993217 -2.288173 -3.604485
  H 5.105403 -0.625080 -4.026279
  H 2.644366 -0.324508 -3.599626
  H 2.532538 -2.028806 -3.127065
