 20
 0.000000
  C 1.007251 -0.072624 0.045339
  C 2.503403 -0.081969 0.026906
  C 3.220497 -0.594585 -0.978690
  C 4.658409 -0.604976 -0.999182
  C 5.378149 -1.120388 -2.011024
  C 6.816732 -1.130455 -2.030840
  C 7.533564 -1.642275 -3.036355
  C 9.023510 -1.662284 -3.075550
  H 0.643157 0.393808 0.960152
  H 0.612671 -1.088076 0.006737
  H 0.612614 0.492507 -0.799181
  H 3.001431 0.354586 0.882916
  H 2.709896 -1.028549 -1.830065
  H 5.163134 -0.169888 -0.145307
  H 4.873384 -1.555279 -2.864936
  H 7.324544 -0.696263 -1.178058
  H 7.033693 -2.078086 -3.892702
  H 9.458941 -1.209765 -2.185969
  H 9.382400 -1.116005 -3.949348
  H 9.382020 -2.690414 -3.148292
 20
 1.323805
  C 1.066758 0.033490 0.114648
  C 2.547864 -0.092265 -0.033449
  C 3.167300 -0.678200 -1.057354
  C 4.592788 -0.750447 -1.102994
  C 5.317263 -1.275659 -2.078727
  C 6.747619 -1.245477 -2.039974
  C 7.548982 -1.671393 -3.026589
  C 9.031919 -1.549422 -2.995986
  H 0.808858 0.549286 1.035696
  H 0.598430 -0.950266 0.129379
  H 0.643173 0.590491 -0.720638
  H 3.170052 0.318557 0.749593
  H 2.607058 -1.106382 -1.879834
  H 5.109298 -0.312923 -0.256203
  H 4.843886 -1.710016 -2.949348
  H 7.190170 -0.806415 -1.152326
  H 7.125589 -2.095911 -3.930658
  H 9.383598 -1.121821 -2.057522
  H 9.333372 -0.902211 -3.811506
  H 9.504316 -2.524892 -3.141527
 20
 2.211366
  C 1.123630 0.171519 0.113557
  C 2.578199 -0.072176 -0.067728
  C 3.132462 -0.796110 -1.051297
  C 4.553513 -0.934775 -1.110074
  C 5.283393 -1.482429 -2.097130
  C 6.719165 -1.420341 -2.045512
  C 7.550954 -1.673265 -3.051026
  C 9.013629 -1.407497 -2.956614
  H 0.935918 0.794875 0.984676
  H 0.590844 -0.774077 0.240747
  H 0.704628 0.667339 -0.765830
  H 3.272475 0.371150 0.642222
  H 2.534672 -1.257420 -1.822798
  H 5.087508 -0.499219 -0.271823
  H 4.816331 -1.907601 -2.976736
  H 7.135322 -1.056111 -1.109775
  H 7.178486 -2.006479 -4.010268
  H 9.298225 -1.155583 -1.939809
  H 9.246945 -0.559982 -3.598059
  H 9.598486 -2.258109 -3.290483
 20
 3.870000
  C 1.194850 0.300271 0.020297
  C 2.639396 -0.054937 -0.102630
  C 3.147223 -0.918459 -0.981050
  C 4.565366 -1.140747 -1.024733
  C 5.271101 -1.671173 -2.028883
  C 6.704715 -1.588932 -2.002000
  C 7.507625 -1.616649 -3.059949
  C 8.943814 -1.254957 -2.962172
  H 1.037054 1.037427 0.804388
  H 0.602663 -0.587422 0.253830
  H 0.815626 0.708046 -0.921034
  H 3.349604 0.434932 0.563547
  H 2.521311 -1.411502 -1.712412
  H 5.114422 -0.740141 -0.180379
  H 4.788458 -2.044196 -2.921762
  H 7.136342 -1.351433 -1.035062
  H 7.119371 -1.810118 -4.049791
  H 9.259601 -1.210873 -1.921819
  H 9.085139 -0.269398 -3.395750
  H 9.578884 -1.957246 -3.496389
 20
 6.270651
  C 1.301556 0.410012 -0.130364
  C 2.722606 -0.044074 -0.142422
  C 3.197913 -1.027410 -0.902052
  C 4.589562 -1.347617 -0.886044
  C 5.275317 -1.838538 -1.918608
  C 6.703473 -1.748704 -1.926683
  C 7.415264 -1.540350 -3.021078
  C 8.825732 -1.097504 -2.983705
  H 1.161454 1.240407 0.556513
  H 0.646106 -0.406200 0.174572
  H 0.986984 0.727573 -1.125915
  H 3.426762 0.478776 0.503068
  H 2.564212 -1.534399 -1.616520
  H 5.138059 -1.004512 -0.020857
  H 4.772219 -2.119997 -2.832398
  H 7.182311 -1.651197 -0.959819
  H 6.947852 -1.578299 -3.993989
  H 9.239527 -1.208120 -1.982995
  H 8.864156 -0.034864 -3.245073
  H 9.447922 -1.650302 -3.688480
 20
 8.113186
  C 1.373837 0.493006 -0.223265
  C 2.776113 -0.020472 -0.194929
  C 3.201531 -1.106488 -0.843285
  C 4.597489 -1.461215 -0.820841
  C 5.275104 -1.948124 -1.864395
  C 6.712235 -1.857195 -1.895794
  C 7.373269 -1.493106 -2.992581
  C 8.762536 -0.977911 -2.982577
  H 1.280373 1.403778 0.358569
  H 0.684061 -0.247026 0.182413
  H 1.063414 0.702114 -1.246576
  H 3.496966 0.543459 0.375261
  H 2.536840 -1.670849 -1.485102
  H 5.152202 -1.132614 0.050531
  H 4.765628 -2.214170 -2.781960
  H 7.223377 -1.865622 -0.939909
  H 6.850877 -1.426729 -3.940172
  H 9.264560 -1.208124 -2.045619
  H 8.688481 0.116312 -3.072761
  H 9.347864 -1.366050 -3.810710
 20
 10.014222
  C 1.431716 0.544284 -0.214142
  C 2.820074 -0.005689 -0.263974
  C 3.179507 -1.145057 -0.852431
  C 4.579667 -1.490952 -0.879181
  C 5.249797 -2.027855 -1.904983
  C 6.685797 -1.875780 -1.924741
  C 7.363882 -1.494046 -3.002555
  C 8.721205 -0.893241 -2.917953
  H 1.409586 1.505926 0.293749
  H 0.766582 -0.143526 0.315807
  H 1.032025 0.675179 -1.221144
  H 3.623318 0.576427 0.183310
  H 2.472436 -1.758598 -1.392718
  H 5.158823 -1.104988 -0.048140
  H 4.746216 -2.362891 -2.799167
  H 7.175120 -1.850552 -0.958380
  H 6.880498 -1.457448 -3.968343
  H 9.206237 -1.144803 -1.978231
  H 8.574630 0.190829 -2.947985
  H 9.360581 -1.188630 -3.744835
 20
 12.920834
  C 1.514605 0.596962 -0.219025
  C 2.880496 0.004084 -0.325867
  C 3.175243 -1.174901 -0.859997
  C 4.574494 -1.535971 -0.927241
  C 5.230527 -2.111103 -1.933820
  C 6.659529 -1.914776 -1.943290
  C 7.341141 -1.489046 -3.003544
  C 8.646230 -0.798101 -2.850204
  H 1.552131 1.588889 0.221824
  H 0.874314 -0.034239 0.401001
  H 1.047658 0.672055 -1.199820
  H 3.732616 0.586178 0.014797
  H 2.429311 -1.808508 -1.321065
  H 5.176932 -1.109058 -0.131930
  H 4.727438 -2.488407 -2.817663
  H 7.130816 -1.861335 -0.969137
  H 6.889893 -1.469508 -3.977970
  H 9.120818 -1.058045 -1.904074
  H 8.419151 0.270263 -2.835061
  H 9.335429 -1.001603 -3.668860
 20
 15.680779
  C 1.608813 0.657024 -0.267099
  C 2.953387 0.012138 -0.378292
  C 3.193046 -1.204408 -0.854211
  C 4.576269 -1.609784 -0.923133
  C 5.220658 -2.200134 -1.929787
  C 6.645261 -1.961730 -1.943784
  C 7.289192 -1.445798 -2.984679
  C 8.552852 -0.691807 -2.799053
  H 1.690934 1.672382 0.109044
  H 0.979383 0.093282 0.403901
  H 1.108381 0.686483 -1.237506
  H 3.840721 0.590196 -0.106400
  H 2.413896 -1.835757 -1.259406
  H 5.189720 -1.201707 -0.126644
  H 4.721062 -2.590026 -2.795543
  H 7.126809 -1.943900 -0.973397
  H 6.817811 -1.389394 -3.964838
  H 9.066024 -1.002866 -1.893538
  H 8.257161 0.361806 -2.679779
  H 9.232996 -0.776089 -3.648049
 20
 18.693244
  C 1.720955 0.714469 -0.339653
  C 3.036658 0.015643 -0.434457
  C 3.217955 -1.243651 -0.824060
  C 4.585989 -1.685751 -0.906127
  C 5.209165 -2.271967 -1.924028
  C 6.631490 -2.017805 -1.949563
  C 7.215104 -1.385166 -2.955075
  C 8.442862 -0.578702 -2.742380
  H 1.849802 1.754557 -0.044395
  H 1.081025 0.220369 0.398909
  H 1.199492 0.687541 -1.293042
  H 3.946348 0.583380 -0.229376
  H 2.408883 -1.874084 -1.160405
  H 5.218542 -1.269088 -0.128029
  H 4.691900 -2.645315 -2.798647
  H 7.138132 -2.059683 -0.994848
  H 6.719254 -1.280754 -3.905164
  H 9.007873 -0.938265 -1.883352
  H 8.091720 0.443853 -2.518252
  H 9.094809 -0.545913 -3.616685
 20
 21.494768
  C 1.833966 0.774445 -0.422345
  C 3.123628 0.022913 -0.502176
  C 3.244933 -1.262920 -0.807077
  C 4.598845 -1.771525 -0.867081
  C 5.205072 -2.351893 -1.902914
  C 6.629557 -2.066674 -1.945516
  C 7.133001 -1.310535 -2.912851
  C 8.327301 -0.458097 -2.695228
  H 2.005825 1.824019 -0.204446
  H 1.205695 0.358730 0.359642
  H 1.279450 0.701557 -1.363462
  H 4.050808 0.569906 -0.357400
  H 2.401412 -1.879731 -1.086733
  H 5.244086 -1.395244 -0.069575
  H 4.681738 -2.697042 -2.767161
  H 7.176632 -2.186130 -1.023711
  H 6.573128 -1.136489 -3.819357
  H 8.971148 -0.865672 -1.914324
  H 7.928090 0.509212 -2.342658
  H 8.913401 -0.293794 -3.601802
 20
 25.092702
  C 1.951970 0.821586 -0.516156
  C 3.211913 0.017162 -0.550880
  C 3.278470 -1.294008 -0.744495
  C 4.619198 -1.830862 -0.832529
  C 5.193834 -2.380770 -1.897188
  C 6.617189 -2.096138 -1.963417
  C 7.052154 -1.245466 -2.878755
  C 8.201910 -0.341373 -2.635833
  H 2.167197 1.879268 -0.404236
  H 1.325805 0.507153 0.317321
  H 1.374625 0.680014 -1.432007
  H 4.169521 0.550045 -0.479078
  H 2.409716 -1.901782 -0.947879
  H 5.279985 -1.488355 -0.042404
  H 4.641419 -2.694531 -2.769611
  H 7.201731 -2.281790 -1.074660
  H 6.446233 -1.028223 -3.748696
  H 8.895985 -0.761830 -1.907670
  H 7.754099 0.576274 -2.199912
  H 8.743037 -0.076542 -3.543433
 20
 28.387623
  C 2.077924 0.872471 -0.614476
  C 3.301322 0.010009 -0.645616
  C 3.299926 -1.314995 -0.713139
  C 4.624687 -1.918178 -0.783649
  C 5.191740 -2.417126 -1.879145
  C 6.614902 -2.108806 -1.965516
  C 6.973114 -1.172571 -2.834361
  C 8.077812 -0.211371 -2.586452
  H 2.343172 1.925551 -0.616305
  H 1.491063 0.667106 0.278646
  H 1.442003 0.673665 -1.478126
  H 4.279459 0.506959 -0.658419
  H 2.394633 -1.899721 -0.800745
  H 5.285419 -1.633007 0.028729
  H 4.629733 -2.677880 -2.760508
  H 7.243193 -2.352705 -1.120297
  H 6.293136 -0.905860 -3.635329
  H 8.838703 -0.626718 -1.927647
  H 7.584502 0.631340 -2.065894
  H 8.544083 0.155373 -3.497976
 20
 31.917888
  C 2.207888 0.907460 -0.716243
  C 3.394987 -0.005789 -0.736082
  C 3.333078 -1.329140 -0.655294
  C 4.632076 -1.995794 -0.724656
  C 5.183126 -2.406797 -1.864562
  C 6.603629 -2.096162 -1.968331
  C 6.902714 -1.112469 -2.808020
  C 7.937755 -0.083558 -2.539927
  H 2.509770 1.943036 -0.856256
  H 1.681746 0.828045 0.233795
  H 1.504442 0.642452 -1.503936
  H 4.387905 0.457228 -0.847423
  H 2.400473 -1.872655 -0.609073
  H 5.294779 -1.790710 0.112127
  H 4.600354 -2.563411 -2.758467
  H 7.258850 -2.362348 -1.150591
  H 6.188643 -0.851493 -3.578858
  H 8.730410 -0.457152 -1.898209
  H 7.380196 0.702722 -1.991690
  H 8.367171 0.344244 -3.443833
