 14
 0.000000
  H 1.406912 0.128589 0.367917
  C 2.489230 0.133588 0.382399
  C 3.142028 0.620664 1.595982
  H 2.415465 0.922400 2.345998
  C 3.138379 -0.321639 -0.749869
  C 4.527998 -0.379982 -0.895465
  C 5.122317 -0.844910 -2.054166
  H 4.512648 -1.180456 -2.888879
  O 6.390919 -0.929432 -2.266508
  H 3.800498 1.463361 1.371990
  H 3.799286 -0.143752 2.017325
  H 2.537310 -0.656404 -1.584561
  H 5.168080 -0.055503 -0.086139
  H 6.957928 -0.628766 -1.522491
 14
 14.616006
  H 1.432778 0.141688 0.407320
  C 2.512833 0.129996 0.375468
  C 3.223090 0.604359 1.553322
  H 2.541328 0.917654 2.335698
  C 3.106317 -0.333142 -0.778865
  C 4.526318 -0.418037 -0.990123
  C 5.049380 -0.867418 -2.113257
  H 4.585062 -1.231399 -3.024688
  O 6.309311 -0.832802 -2.025221
  H 3.881900 1.438424 1.296465
  H 3.884858 -0.173500 1.944152
  H 2.474871 -0.661806 -1.597900
  H 5.154753 -0.087453 -0.162526
  H 6.703948 -0.491724 -1.168987
 14
 52.475691
  H 1.435841 0.154184 0.442383
  C 2.517069 0.128872 0.374821
  C 3.270764 0.599450 1.538664
  H 2.614370 0.919101 2.336435
  C 3.060478 -0.338976 -0.790738
  C 4.571264 -0.446250 -1.058246
  C 5.023578 -0.892830 -2.180105
  H 4.687689 -1.265644 -3.119230
  O 6.260259 -0.770870 -1.872296
  H 3.924698 1.426633 1.266307
  H 3.929325 -0.182738 1.914420
  H 2.414682 -0.658953 -1.589478
  H 5.123225 -0.109870 -0.208130
  H 6.546331 -0.425465 -0.999445
 14
 100.286824
  H 1.451910 0.029269 0.526009
  C 2.526158 0.116830 0.369441
  C 3.302728 0.642758 1.518991
  H 2.662395 0.866384 2.359867
  C 2.983847 -0.293374 -0.805282
  C 4.640602 -0.461140 -1.096068
  C 4.989086 -0.925582 -2.232291
  H 4.740115 -1.274440 -3.208097
  O 6.238375 -0.738146 -1.789996
  H 3.857197 1.539025 1.256123
  H 4.019732 -0.113651 1.841250
  H 2.377029 -0.581189 -1.647821
  H 5.047571 -0.165366 -0.143220
  H 6.541057 -0.505476 -0.895263
 14
 130.043928
  H 1.405401 0.116042 0.547229
  C 2.488769 0.124320 0.378466
  C 3.298814 0.607597 1.536928
  H 2.666274 0.904251 2.368648
  C 2.877187 -0.301728 -0.788573
  C 4.752590 -0.449817 -1.130739
  C 4.983439 -0.952389 -2.269473
  H 4.742713 -1.332287 -3.230978
  O 6.283169 -0.669373 -1.783608
  H 3.895124 1.467391 1.240867
  H 3.976141 -0.170689 1.876222
  H 2.322201 -0.618057 -1.641079
  H 5.055538 -0.093549 -0.161942
  H 6.633211 -0.507867 -0.887496
 14
 146.992835
  H 1.330621 0.112671 0.621439
  C 2.407002 0.124321 0.409511
  C 3.259024 0.609108 1.548646
  H 2.654124 0.918287 2.387547
  C 2.774456 -0.289180 -0.759279
  C 4.904328 -0.444407 -1.148131
  C 5.014740 -0.960719 -2.297289
  H 4.748455 -1.333444 -3.252889
  O 6.361338 -0.637526 -1.817268
  H 3.833376 1.477457 1.225484
  H 3.963525 -0.156355 1.867156
  H 2.239116 -0.606283 -1.621850
  H 5.102477 -0.066276 -0.168226
  H 6.787735 -0.643803 -0.936245
 14
 146.560149
  H 1.249115 0.061129 0.728316
  C 2.307212 0.136225 0.453050
  C 3.190830 0.633583 1.573569
  H 2.603215 0.872548 2.446001
  C 2.661463 -0.219722 -0.737552
  C 5.081166 -0.432845 -1.160063
  C 5.093560 -1.017427 -2.290422
  H 4.781368 -1.413399 -3.225627
  O 6.455078 -0.595256 -1.911627
  H 3.715650 1.543126 1.262083
  H 3.917883 -0.113408 1.851205
  H 2.153931 -0.503809 -1.629704
  H 5.157060 -0.057516 -0.169041
  H 7.000561 -0.821021 -1.123623
 14
 141.319212
  H 1.202768 0.031960 0.755856
  C 2.254182 0.153071 0.467864
  C 3.144741 0.633605 1.585231
  H 2.558608 0.848391 2.476720
  C 2.625066 -0.168579 -0.732046
  C 5.224640 -0.423198 -1.158709
  C 5.126741 -1.075417 -2.242599
  H 4.763451 -1.487246 -3.152070
  O 6.490138 -0.515405 -1.958924
  H 3.650193 1.556188 1.295705
  H 3.888328 -0.111496 1.850596
  H 2.125733 -0.442086 -1.632566
  H 5.160307 -0.056750 -0.160882
  H 7.119002 -0.929469 -1.310075
 14
 133.250453
  H 1.186117 0.115695 0.721899
  C 2.250374 0.182034 0.463676
  C 3.122528 0.587298 1.620836
  H 2.514535 0.880617 2.471888
  C 2.621390 -0.106443 -0.740660
  C 5.181102 -0.403861 -1.122369
  C 5.187538 -1.160563 -2.150907
  H 4.872830 -1.736751 -2.988274
  O 6.412977 -0.365882 -1.994676
  H 3.752966 1.433065 1.350564
  H 3.748613 -0.248516 1.932496
  H 2.180128 -0.379367 -1.667595
  H 5.070264 0.020602 -0.152379
  H 7.174433 -0.898507 -1.644864
