 25
 0.000000
  C 0.961451 0.054020 0.178328
  C 2.465887 0.058881 0.092158
  C 3.274420 -0.013410 1.373362
  C 2.507608 -0.087942 2.694148
  C 3.477911 -0.154290 3.870045
  C 3.080906 0.126409 -1.104545
  C 2.316721 0.199622 -2.402017
  H 1.248038 0.191097 -2.250881
  C 4.533083 0.133621 -1.232351
  C 5.218105 0.197907 -2.371705
  H 6.299645 0.197926 -2.372028
  H 0.613268 -0.003714 1.201436
  H 0.550544 -0.799437 -0.360634
  H 0.550546 0.962691 -0.261198
  H 3.925364 0.866880 1.420651
  H 3.925364 -0.893425 1.321319
  H 1.873611 -0.977227 2.712830
  H 1.873619 0.793575 2.812750
  H 4.114188 -1.033578 3.793094
  H 2.934195 -0.207379 4.810862
  H 4.114207 0.728107 3.892497
  H 2.581533 -0.643854 -3.034902
  H 2.581539 1.108959 -2.936011
  H 5.095994 0.081781 -0.313618
  H 4.755163 0.252589 -3.340782
 25
 7.319781
  C 0.841833 0.053467 0.188144
  C 2.505282 0.058908 0.091702
  C 3.303036 -0.013327 1.371913
  C 2.525554 -0.087417 2.684862
  C 3.484848 -0.154254 3.869417
  C 3.110724 0.126296 -1.102529
  C 2.340111 0.199186 -2.394285
  H 1.270169 0.190233 -2.235570
  C 4.561061 0.133922 -1.237658
  C 5.238231 0.198370 -2.379893
  H 6.316822 0.198746 -2.386540
  H 0.500217 -0.004327 1.212316
  H 0.436343 -0.799215 -0.350094
  H 0.436344 0.961287 -0.250750
  H 3.953142 0.866369 1.423469
  H 3.953146 -0.893235 1.324177
  H 1.891082 -0.975948 2.697186
  H 1.891081 0.794077 2.797064
  H 4.121416 -1.033877 3.798293
  H 2.932591 -0.207053 4.805094
  H 4.121421 0.727802 3.897697
  H 2.601619 -0.645732 -3.029332
  H 2.601621 1.110186 -2.930257
  H 5.129707 0.082221 -0.321387
  H 4.769096 0.252901 -3.346309
 25
 22.485728
  C 0.758145 0.052354 0.207878
  C 2.580347 0.058620 0.096838
  C 3.344684 -0.013657 1.377795
  C 2.530756 -0.086412 2.667087
  C 3.452937 -0.154907 3.881010
  C 3.151895 0.126182 -1.100489
  C 2.350926 0.197896 -2.371436
  H 1.284413 0.187122 -2.180445
  C 4.600640 0.135535 -1.266217
  C 5.250870 0.200869 -2.424153
  H 6.326658 0.202624 -2.455254
  H 0.442202 -0.005716 1.236951
  H 0.372615 -0.801102 -0.329864
  H 0.372615 0.960889 -0.230437
  H 3.993167 0.866079 1.443531
  H 3.993169 -0.895197 1.344144
  H 1.894622 -0.972767 2.657848
  H 1.894611 0.795355 2.757621
  H 4.090092 -1.035701 3.829678
  H 2.872119 -0.206711 4.799084
  H 4.090073 0.726060 3.929088
  H 2.596168 -0.648502 -3.013467
  H 2.596166 1.111141 -2.914173
  H 5.190184 0.084493 -0.361593
  H 4.758741 0.254774 -3.379526
 25
 39.063507
  C 0.652655 0.051438 0.224117
  C 2.633820 0.058325 0.102054
  C 3.378818 -0.014629 1.394974
  C 2.540745 -0.086624 2.670796
  C 3.437559 -0.156176 3.903484
  C 3.185068 0.127079 -1.116383
  C 2.364272 0.198171 -2.376285
  H 1.303691 0.186182 -2.163768
  C 4.633793 0.137385 -1.299020
  C 5.268449 0.203080 -2.463347
  H 6.345494 0.205576 -2.507576
  H 0.359370 -0.006979 1.259320
  H 0.286982 -0.809296 -0.318298
  H 0.286984 0.967728 -0.218019
  H 4.027192 0.866284 1.470724
  H 4.027200 -0.898471 1.371143
  H 1.903582 -0.972031 2.646741
  H 1.903576 0.795861 2.746502
  H 4.074661 -1.037585 3.865364
  H 2.837989 -0.207301 4.809500
  H 4.074664 0.723943 3.964760
  H 2.598075 -0.647719 -3.021619
  H 2.598076 1.111291 -2.922366
  H 5.232770 0.086682 -0.400415
  H 4.763897 0.256596 -3.411845
 25
 55.634903
  C 0.553289 0.051294 0.226664
  C 2.693524 0.058707 0.095283
  C 3.416149 -0.014114 1.385858
  C 2.556373 -0.085173 2.645101
  C 3.428425 -0.155670 3.894540
  C 3.207998 0.126160 -1.100113
  C 2.368622 0.196262 -2.342471
  H 1.311007 0.182874 -2.105177
  C 4.653195 0.137161 -1.295060
  C 5.278281 0.203377 -2.468607
  H 6.353774 0.206432 -2.522730
  H 0.282082 -0.007348 1.265862
  H 0.209911 -0.812016 -0.318279
  H 0.209911 0.970431 -0.217696
  H 4.063149 0.866646 1.469719
  H 4.063152 -0.898709 1.370104
  H 1.918659 -0.969332 2.606335
  H 1.918654 0.797728 2.706046
  H 4.065322 -1.037874 3.869052
  H 2.811119 -0.206110 4.788429
  H 4.065311 0.723801 3.968455
  H 2.590716 -0.650361 -2.991752
  H 2.590717 1.110554 -2.892393
  H 5.258201 0.086634 -0.399560
  H 4.764147 0.256621 -3.412273
 25
 68.996141
  C 0.454190 0.050832 0.234874
  C 2.754194 0.058099 0.106070
  C 3.443067 -0.015779 1.415384
  C 2.558832 -0.085861 2.657321
  C 3.402566 -0.157305 3.923509
  C 3.213354 0.127303 -1.120373
  C 2.359304 0.196871 -2.353293
  H 1.309788 0.181994 -2.089637
  C 4.668737 0.138965 -1.327056
  C 5.288737 0.206027 -2.515582
  H 6.364029 0.209693 -2.580496
  H 0.261396 -0.008456 1.285536
  H 0.206469 -0.828718 -0.325100
  H 0.206471 0.987794 -0.222596
  H 4.086353 0.866323 1.509910
  H 4.086354 -0.902906 1.410080
  H 1.922553 -0.969891 2.597004
  H 1.922546 0.799333 2.696839
  H 4.038928 -1.040248 3.912111
  H 2.765600 -0.206971 4.803617
  H 4.038923 0.721314 4.011518
  H 2.571839 -0.650629 -3.004179
  H 2.571843 1.112216 -2.904718
  H 5.267674 0.088192 -0.427165
  H 4.761671 0.258895 -3.452537
