 14
 0.000000
  C 0.982300 0.144696 0.401303
  C 2.435973 0.104597 0.310655
  H 3.024991 0.437526 1.154312
  C 3.079193 -0.343265 -0.822695
  C 4.471422 -0.380687 -0.925760
  C 5.156828 -0.833419 -2.037614
  H 4.686074 -1.210167 -2.938762
  O 6.447844 -0.871833 -2.120429
  H 0.619110 0.519510 1.351783
  H 0.569791 -0.850984 0.218205
  H 0.589237 0.761054 -0.410093
  H 2.485437 -0.679094 -1.662096
  H 5.049701 -0.035409 -0.076913
  H 6.927371 -0.541445 -1.331912
 14
 0.031639
  C 0.979965 0.187499 0.340414
  C 2.429902 0.045386 0.344293
  H 2.987030 0.455416 1.176373
  C 3.118162 -0.517473 -0.706485
  C 4.511606 -0.466813 -0.818254
  C 5.144386 -0.844919 -1.988396
  H 4.567435 -1.263679 -2.807909
  O 6.399239 -0.727111 -2.259974
  H 0.585327 0.488967 1.304951
  H 0.486740 -0.714576 -0.022224
  H 0.719674 0.960151 -0.393153
  H 2.557019 -0.961650 -1.517623
  H 5.086871 -0.045534 -0.004503
  H 6.954913 -0.372356 -1.534403
 14
 3.519673
  C 1.037029 0.257018 0.251675
  C 2.446275 -0.071580 0.427414
  H 2.983447 0.354699 1.265048
  C 3.143964 -0.744915 -0.550639
  C 4.523032 -0.591006 -0.726227
  C 5.074838 -0.806512 -1.973750
  H 4.477939 -1.261282 -2.758819
  O 6.264910 -0.491148 -2.361486
  H 0.597600 0.730423 1.121387
  H 0.450444 -0.604840 -0.068868
  H 1.002515 0.953947 -0.593707
  H 2.588067 -1.266517 -1.319732
  H 5.105225 -0.125200 0.057585
  H 6.843500 -0.108451 -1.669684
 14
 9.510892
  C 1.129233 0.305962 0.144565
  C 2.473668 -0.138987 0.492941
  H 2.992487 0.335842 1.315418
  C 3.173055 -0.934235 -0.390353
  C 4.532977 -0.700537 -0.639891
  C 4.965576 -0.769368 -1.947327
  H 4.358345 -1.268988 -2.695853
  O 6.075838 -0.307905 -2.426786
  H 0.666199 0.923629 0.905821
  H 0.479294 -0.512147 -0.161226
  H 1.296626 0.903862 -0.762536
  H 2.622934 -1.535835 -1.101400
  H 5.120281 -0.184016 0.107717
  H 6.674230 0.103958 -1.769833
 14
 17.308841
  C 1.240470 0.336388 0.049168
  C 2.518681 -0.181415 0.526998
  H 3.053875 0.369532 1.287908
  C 3.186731 -1.088878 -0.262762
  C 4.518578 -0.779007 -0.573776
  C 4.840240 -0.729245 -1.904714
  H 4.238530 -1.274103 -2.625243
  O 5.875185 -0.171609 -2.439128
  H 0.803891 1.097658 0.684496
  H 0.535095 -0.444573 -0.231044
  H 1.571212 0.800486 -0.915674
  H 2.636183 -1.762333 -0.926927
  H 5.104055 -0.232326 0.151408
  H 6.477964 0.273470 -1.794581
 14
 27.194695
  C 1.390304 0.377429 -0.088500
  C 2.547318 -0.220670 0.567558
  H 3.063366 0.325925 1.342035
  C 3.207358 -1.217560 -0.113493
  C 4.506996 -0.844150 -0.498408
  C 4.675026 -0.699086 -1.856688
  H 4.095795 -1.286386 -2.556181
  O 5.650243 -0.059715 -2.461706
  H 0.946198 1.192490 0.453327
  H 0.663262 -0.353593 -0.416910
  H 1.897480 0.756375 -1.007371
  H 2.645275 -1.899080 -0.746679
  H 5.131406 -0.297458 0.194194
  H 6.244251 0.444878 -1.851588
 14
 39.335252
  C 1.551472 0.395593 -0.192371
  C 2.592931 -0.243766 0.578387
  H 3.128143 0.307760 1.340270
  C 3.192080 -1.347604 -0.036462
  C 4.466293 -0.912699 -0.456161
  C 4.516209 -0.643501 -1.824960
  H 3.991473 -1.243048 -2.533067
  O 5.467575 0.066374 -2.416625
  H 1.169307 1.310837 0.246205
  H 0.770591 -0.278326 -0.536218
  H 2.175988 0.635279 -1.081859
  H 2.612958 -2.014117 -0.651876
  H 5.109047 -0.389656 0.235069
  H 6.029747 0.593795 -1.807327
 14
 53.815969
  C 1.732414 0.420309 -0.291097
  C 2.647470 -0.303149 0.595872
  H 3.158095 0.234117 1.380782
  C 3.179743 -1.458400 0.039285
  C 4.426583 -0.947284 -0.435291
  C 4.343957 -0.564593 -1.766035
  H 3.836771 -1.191664 -2.480814
  O 5.269740 0.160991 -2.364996
  H 1.398557 1.379839 0.067566
  H 0.954634 -0.173900 -0.758162
  H 2.481996 0.548654 -1.137805
  H 2.585926 -2.121464 -0.574951
  H 5.121933 -0.469102 0.235645
  H 5.799668 0.729699 -1.770143
 14
 75.118929
  C 1.845570 0.406569 -0.343618
  C 2.723651 -0.327928 0.591911
  H 3.294482 0.215209 1.334692
  C 3.174191 -1.516968 0.043390
  C 4.367008 -0.967650 -0.415381
  C 4.193793 -0.487712 -1.738595
  H 3.764331 -1.136495 -2.461980
  O 5.118601 0.261476 -2.294101
  H 1.595006 1.408149 -0.070174
  H 1.087241 -0.144088 -0.834779
  H 2.733508 0.423930 -1.228729
  H 2.533380 -2.144598 -0.577417
  H 5.068612 -0.528509 0.226640
  H 5.670992 0.787719 -1.651430
 14
 88.339199
  C 1.929934 0.387893 -0.308589
  C 2.709587 -0.346938 0.631534
  H 3.222184 0.155544 1.437336
  C 3.153824 -1.555597 0.056730
  C 4.335933 -0.977249 -0.401050
  C 4.135051 -0.406071 -1.763820
  H 3.675615 -1.067105 -2.501738
  O 5.114273 0.297009 -2.340553
  H 1.670073 1.405348 -0.060914
  H 1.206770 -0.126021 -0.926394
  H 3.073134 0.353426 -1.376866
  H 2.515243 -2.145612 -0.584799
  H 5.086229 -0.541903 0.243052
  H 5.653803 0.817182 -1.717385
 14
 70.467453
  C 1.715711 0.368937 -0.063900
  C 2.586442 -0.313480 0.705037
  H 3.114259 0.147026 1.528922
  C 3.150293 -1.425873 -0.016267
  C 4.358391 -0.948715 -0.526639
  C 4.285567 -0.400573 -1.894631
  H 3.863618 -1.087247 -2.636546
  O 5.383836 0.208233 -2.434990
  H 1.396722 1.350494 0.243344
  H 1.089566 -0.108580 -0.796326
  H 3.418508 0.321774 -1.679534
  H 2.496695 -2.044189 -0.620010
  H 5.102392 -0.526200 0.145969
  H 5.905568 0.702003 -1.788590
 14
 59.566203
  C 1.621575 0.361586 0.047161
  C 2.555144 -0.335994 0.721801
  H 3.047995 0.045763 1.602909
  C 3.165739 -1.344021 -0.094858
  C 4.390257 -0.883321 -0.567024
  C 4.405586 -0.423456 -1.960849
  H 3.983256 -1.138527 -2.676773
  O 5.554735 0.090512 -2.499769
  H 1.312727 1.327087 0.416505
  H 1.008657 -0.066554 -0.726972
  H 3.584872 0.352247 -1.834434
  H 2.525411 -1.930511 -0.744006
  H 5.126558 -0.481232 0.120753
  H 6.043252 0.655824 -1.881707
 14
 47.415544
  C 1.422373 0.312334 0.245943
  C 2.507955 -0.317139 0.735276
  H 3.056658 0.059039 1.587666
  C 3.152205 -1.170473 -0.207140
  C 4.415217 -0.799893 -0.642844
  C 4.592368 -0.457215 -2.056675
  H 4.149969 -1.179468 -2.752795
  O 5.836150 -0.115010 -2.533612
  H 1.017131 1.184729 0.731020
  H 0.865441 -0.084781 -0.584591
  H 3.884869 0.419034 -2.076014
  H 2.514871 -1.743199 -0.874532
  H 5.153279 -0.457559 0.076484
  H 6.277980 0.554183 -1.990598
 14
 38.959925
  C 1.318068 0.236437 0.398931
  C 2.523684 -0.291271 0.691254
  H 3.134929 0.107667 1.488640
  C 3.142791 -1.025161 -0.352178
  C 4.434619 -0.722502 -0.731937
  C 4.724722 -0.466174 -2.138535
  H 4.344295 -1.232087 -2.826852
  O 6.002152 -0.157364 -2.530296
  H 0.882533 1.020427 0.995697
  H 0.743779 -0.108411 -0.445212
  H 4.031214 0.413652 -2.286684
  H 2.502351 -1.567610 -1.038052
  H 5.150197 -0.406930 0.018945
  H 6.481472 0.372928 -1.875046
 14
 35.881015
  C 1.319399 0.270899 0.474446
  C 2.492827 -0.341595 0.730269
  H 3.072582 -0.115601 1.611561
  C 3.120466 -0.953189 -0.404557
  C 4.416495 -0.632578 -0.755693
  C 4.770432 -0.538768 -2.176647
  H 4.537308 -1.438137 -2.766684
  O 6.009690 -0.102074 -2.550318
  H 0.895984 0.986007 1.161638
  H 0.786139 0.104230 -0.444284
  H 3.987419 0.178773 -2.529400
  H 2.489588 -1.482241 -1.109359
  H 5.047059 -0.141462 -0.026263
  H 6.471416 0.379337 -1.846036
