 23
 0.000000
  H 1.383975 0.137746 0.394054
  C 2.453972 0.138831 0.396445
  C 3.235887 0.609601 1.567949
  C 2.454651 1.098519 2.785050
  C 3.400218 1.544794 3.895611
  C 3.074760 -0.323868 -0.755623
  C 4.452396 -0.411652 -0.974602
  C 5.123831 -0.863395 -2.100714
  C 4.621920 -1.386396 -3.404454
  H 3.574840 -1.468216 -3.608977
  O 6.448567 -0.861790 -2.097024
  H 3.892013 1.422462 1.236076
  H 3.892206 -0.206765 1.890660
  H 1.816409 0.300727 3.170305
  H 1.816264 1.941012 2.511316
  H 4.036296 0.723883 4.220901
  H 2.831617 1.890430 4.756103
  H 4.036115 2.362679 3.562473
  H 2.419633 -0.642347 -1.548686
  H 5.073532 -0.080521 -0.149771
  H 5.075895 -2.376004 -3.531813
  H 5.076265 -0.759449 -4.180462
  H 6.820588 -0.526463 -1.260938
 23
 0.000000
  H 1.418762 0.132116 0.380036
  C 2.488696 0.136673 0.391062
  C 3.259601 0.609960 1.568833
  C 2.466986 1.096323 2.779585
  C 3.402107 1.545647 3.897737
  C 3.135349 -0.335004 -0.783370
  C 4.446410 -0.427244 -1.013476
  C 5.085942 -0.861116 -2.095045
  C 4.612823 -1.387832 -3.408029
  H 3.570458 -1.477605 -3.632355
  O 6.349309 -0.838677 -2.039426
  H 3.915744 1.424950 1.242257
  H 3.915940 -0.204277 1.896839
  H 1.828246 0.296459 3.159686
  H 1.828098 1.936745 2.500699
  H 4.038200 0.726799 4.228159
  H 2.825462 1.889424 4.753609
  H 4.038016 2.365596 3.569732
  H 2.487680 -0.655596 -1.581690
  H 5.076747 -0.098527 -0.194680
  H 5.076650 -2.373948 -3.526689
  H 5.077011 -0.757392 -4.175334
  H 6.667616 -0.479655 -1.144259
 23
 0.000000
  H 1.453509 0.127204 0.367799
  C 2.523292 0.135373 0.387812
  C 3.282674 0.611241 1.572014
  C 2.478277 1.094906 2.776060
  C 3.402451 1.547367 3.902023
  C 3.198209 -0.346112 -0.811053
  C 4.444777 -0.442693 -1.051990
  C 5.052159 -0.859960 -2.092167
  C 4.605381 -1.389862 -3.413077
  H 3.567677 -1.486830 -3.655319
  O 6.253034 -0.819554 -1.991774
  H 3.938782 1.428448 1.250951
  H 3.938980 -0.200781 1.905532
  H 1.839071 0.292883 3.150791
  H 1.838920 1.933170 2.491806
  H 4.038507 0.730666 4.237787
  H 2.817478 1.889181 4.753017
  H 4.038321 2.369463 3.579362
  H 2.558354 -0.668879 -1.614782
  H 5.085512 -0.116770 -0.240175
  H 5.077995 -2.372739 -3.523671
  H 5.078345 -0.756181 -4.172313
  H 6.510837 -0.436284 -1.036146
 23
 0.000000
  H 1.487943 0.123210 0.357846
  C 2.557475 0.135144 0.387228
  C 3.304777 0.613661 1.578030
  C 2.488168 1.094471 2.774980
  C 3.400847 1.550162 3.908990
  C 3.263525 -0.357173 -0.838623
  C 4.448052 -0.457922 -1.089954
  C 5.023135 -0.860104 -2.092529
  C 4.599430 -1.392634 -3.419971
  H 3.566080 -1.495846 -3.677754
  O 6.160774 -0.804751 -1.954882
  H 3.960792 1.433178 1.262716
  H 3.960992 -0.196052 1.917294
  H 1.848530 0.290197 3.144109
  H 1.848378 1.930484 2.485127
  H 4.036809 0.735698 4.250322
  H 2.807243 1.889900 4.754824
  H 4.036622 2.374497 3.591900
  H 2.631874 -0.682178 -1.647922
  H 5.100468 -0.135222 -0.286192
  H 5.079568 -2.372640 -3.523415
  H 5.079907 -0.756082 -4.172055
  H 6.350656 -0.396979 -0.938163
 23
 0.000000
  H 1.521205 0.120572 0.351264
  C 2.590379 0.136394 0.390322
  C 3.325132 0.617602 1.587832
  C 2.495981 1.095416 2.777339
  C 3.396701 1.554401 3.919555
  C 3.331020 -0.368150 -0.865987
  C 4.456947 -0.472868 -1.127211
  C 5.000037 -0.862010 -2.097277
  C 4.594997 -1.396557 -3.429727
  H 3.565350 -1.504780 -3.699978
  O 6.074597 -0.794964 -1.930487
  H 3.980990 1.439504 1.278456
  H 3.981190 -0.189727 1.933031
  H 1.855958 0.288815 3.140675
  H 1.855805 1.929104 2.481697
  H 4.032506 0.742248 4.266639
  H 2.794236 1.891962 4.759981
  H 4.032318 2.381048 3.608221
  H 2.707903 -0.695436 -1.680964
  H 5.122362 -0.153862 -0.332678
  H 5.081104 -2.374218 -3.527329
  H 5.081432 -0.757660 -4.175971
  H 6.189289 -0.362668 -0.852623
 23
 0.000000
  H 1.552880 0.119820 0.349372
  C 2.621570 0.139701 0.398538
  C 3.343136 0.623671 1.602936
  C 2.500966 1.098308 2.784544
  C 3.389098 1.560686 3.935221
  C 3.401995 -0.379320 -0.893835
  C 4.472328 -0.487797 -1.164423
  C 4.983730 -0.866366 -2.108125
  C 4.592039 -1.402298 -3.444006
  H 3.565139 -1.514083 -3.723115
  O 5.995014 -0.790886 -1.920316
  H 3.998764 1.448065 1.299762
  H 3.998963 -0.181168 1.954333
  H 1.860603 0.289274 3.141825
  H 1.860451 1.929565 2.482851
  H 4.024674 0.750946 4.288311
  H 2.777436 1.895939 4.769908
  H 4.024487 2.389748 3.629897
  H 2.787857 -0.708955 -1.714662
  H 5.152268 -0.173060 -0.380550
  H 5.082352 -2.378268 -3.537397
  H 5.082669 -0.761712 -4.186043
  H 6.026112 -0.333779 -0.780589
 23
 0.000000
  H 1.581755 0.121594 0.353767
  C 2.649828 0.145671 0.413382
  C 3.357674 0.632444 1.624774
  C 2.502129 1.103743 2.798083
  C 3.377141 1.569579 3.957386
  C 3.476473 -0.390760 -0.922356
  C 4.494576 -0.502599 -1.201315
  C 4.975443 -0.873855 -2.126778
  C 4.590524 -1.410476 -3.464350
  H 3.565049 -1.524065 -3.747935
  O 5.924466 -0.793379 -1.926511
  H 4.012994 1.459414 1.328015
  H 4.013190 -0.169820 1.982582
  H 1.861484 0.292192 3.149096
  H 1.861335 1.932485 2.490128
  H 4.012410 0.762334 4.316689
  H 2.756032 1.902409 4.786047
  H 4.012226 2.401138 3.658279
  H 2.871692 -0.722788 -1.749145
  H 5.190353 -0.192691 -0.429500
  H 5.082953 -2.385584 -3.555593
  H 5.083262 -0.769031 -4.204246
  H 5.864510 -0.311537 -0.725116
 23
 0.000000
  H 1.605890 0.127097 0.367441
  C 2.673213 0.155445 0.437696
  C 3.367001 0.645017 1.656075
  C 2.497928 1.112862 2.820795
  C 3.359476 1.582167 3.988752
  C 3.555039 -0.402840 -0.952473
  C 4.524578 -0.517540 -1.238549
  C 4.976964 -0.885982 -2.156982
  C 4.590622 -1.422472 -3.494200
  H 3.564844 -1.535689 -3.776844
  O 5.866206 -0.804071 -1.953129
  H 4.021933 1.474608 1.365847
  H 4.022123 -0.154628 2.020409
  H 1.857068 0.298746 3.165419
  H 1.856924 1.939041 2.506456
  H 3.994357 0.777460 4.354380
  H 2.728814 1.912490 4.811179
  H 3.994179 2.416266 3.695975
  H 2.959859 -0.737268 -1.785242
  H 5.237383 -0.213040 -0.480228
  H 5.082613 -2.397760 -3.585889
  H 5.082915 -0.781211 -4.234552
  H 5.709063 -0.297043 -0.688947
 23
 0.000000
  H 1.623039 0.137474 0.393247
  C 2.689499 0.170036 0.474005
  C 3.369319 0.662316 1.699149
  C 2.486979 1.126697 2.855250
  C 3.335127 1.599374 4.031627
  C 3.637580 -0.415894 -0.985013
  C 4.562463 -0.532730 -1.276395
  C 4.989571 -0.904166 -2.202272
  C 4.592348 -1.439565 -3.536742
  H 3.564294 -1.549896 -3.812181
  O 5.824183 -0.824263 -2.003413
  H 4.023795 1.494495 1.415371
  H 4.023977 -0.134744 2.069927
  H 1.845978 0.310047 3.193560
  H 1.845841 1.950345 2.534603
  H 3.969551 0.797173 4.403499
  H 2.695097 1.927183 4.847800
  H 3.969382 2.435981 3.745100
  H 3.051953 -0.752653 -1.823595
  H 5.292956 -0.234097 -0.532710
  H 5.080940 -2.416233 -3.631867
  H 5.081238 -0.799689 -4.280542
  H 5.567273 -0.291200 -0.674330
 23
 0.000000
  H 1.632262 0.153191 0.432345
  C 2.697753 0.189903 0.523453
  C 3.363724 0.684798 1.755133
  C 2.468401 1.145713 2.902606
  C 3.303240 1.621662 4.087155
  C 3.724951 -0.430169 -1.020586
  C 4.607882 -0.548176 -1.314868
  C 5.012962 -0.929002 -2.264129
  C 4.595432 -1.462266 -3.593253
  H 3.563278 -1.567172 -3.855165
  O 5.799528 -0.853970 -2.077396
  H 4.017680 1.519525 1.477710
  H 4.017850 -0.109715 2.132261
  H 1.827329 0.326566 3.234689
  H 1.827204 1.966866 2.575738
  H 3.937143 0.821928 4.465182
  H 2.654045 1.946958 4.897072
  H 3.936985 2.460738 3.806788
  H 3.148809 -0.769188 -1.864809
  H 5.356214 -0.255732 -0.586616
  H 5.077583 -2.441493 -3.694746
  H 5.077880 -0.824955 -4.343437
  H 5.442840 -0.293637 -0.680345
 23
 0.000000
  H 1.632509 0.174342 0.484972
  C 2.696962 0.215021 0.585977
  C 3.349612 0.712366 1.823785
  C 2.441954 1.169918 2.962884
  C 3.263972 1.648948 4.155133
  C 3.815746 -0.445459 -1.058683
  C 4.659320 -0.563537 -1.353116
  C 5.045544 -0.960286 -2.342047
  C 4.599155 -1.490311 -3.663074
  H 3.561503 -1.587429 -3.905576
  O 5.792865 -0.892268 -2.172778
  H 4.003004 1.549529 1.552441
  H 4.003160 -0.079713 2.206986
  H 1.800880 0.348383 3.289006
  H 1.800768 1.988685 2.630061
  H 3.897309 0.851573 4.539044
  H 2.606071 1.971806 4.958978
  H 3.897165 2.490385 3.880656
  H 3.248740 -0.786606 -1.908218
  H 5.424859 -0.277337 -0.640432
  H 5.071936 -2.473134 -3.773520
  H 5.072234 -0.856602 -4.422227
  H 5.341604 -0.303269 -0.704286
 23
 0.000000
  H 1.626248 0.186417 0.515022
  C 2.690217 0.228819 0.620331
  C 3.337050 0.727214 1.860766
  C 2.424053 1.183290 2.996185
  C 3.240467 1.663645 4.191747
  C 3.851123 -0.449963 -1.069900
  C 4.679759 -0.567593 -1.363207
  C 5.059889 -0.972790 -2.373184
  C 4.600156 -1.501235 -3.690267
  H 3.560095 -1.594720 -3.923718
  O 5.794500 -0.907984 -2.211913
  H 3.990177 1.565436 1.592065
  H 3.990325 -0.063807 2.246608
  H 1.782997 0.360716 3.319714
  H 1.782893 2.001019 2.660771
  H 3.873538 0.867295 4.578217
  H 2.578799 1.985433 4.992925
  H 3.873401 2.506108 3.919832
  H 3.288109 -0.792025 -1.921720
  H 5.451545 -0.283732 -0.656348
  H 5.068519 -2.485704 -3.804811
  H 5.068819 -0.869174 -4.453524
  H 5.307025 -0.306576 -0.712498
 23
 0.000000
  H 1.607130 0.239345 0.646726
  C 2.668847 0.288960 0.770046
  C 3.291169 0.791652 2.021236
  C 2.355992 1.241446 3.140995
  C 3.148749 1.727251 4.350194
  C 4.043910 -0.483509 -1.153454
  C 4.797553 -0.597646 -1.438007
  C 5.142231 -1.052298 -2.571211
  C 4.605125 -1.570527 -3.862806
  H 3.552816 -1.642555 -4.042799
  O 5.825267 -1.005112 -2.453822
  H 3.943050 1.634304 1.763599
  H 3.943165 0.005057 2.418132
  H 1.715145 0.414519 3.453656
  H 1.715074 2.054826 2.794724
  H 3.780568 0.935190 4.747375
  H 2.471433 2.044488 5.140026
  H 3.780466 2.574008 4.089000
  H 3.497748 -0.829331 -2.014672
  H 5.600246 -0.325952 -0.761460
  H 5.046748 -2.564327 -4.000583
  H 5.047057 -0.947811 -4.649328
  H 5.175794 -0.345306 -0.808900
