 13
 0.000000
  C 1.048125 -0.110212 -0.038219
  C 2.544454 -0.138865 -0.039051
  C 3.257784 -1.265824 -0.045873
  C 4.700070 -1.293732 -0.045516
  C 5.412633 -2.419177 -0.052813
  H 6.486898 -2.431827 -0.052439
  H 0.687294 0.916445 -0.034066
  H 0.651774 -0.608848 0.845611
  H 0.651090 -0.602952 -0.924728
  H 3.047456 0.818550 -0.034153
  H 2.746978 -2.220023 -0.052964
  H 5.205047 -0.336025 -0.038845
  H 4.913975 -3.376423 -0.059464
 13
 0.955526
  C 1.070397 -0.132676 -0.044653
  C 2.562553 -0.065536 -0.066182
  C 3.267166 -1.194074 -0.047810
  C 4.709202 -1.290164 -0.057220
  C 5.375458 -2.440118 -0.032078
  H 6.451033 -2.478725 -0.039422
  H 0.607741 0.844724 0.077988
  H 0.777790 -0.790534 0.775452
  H 0.697182 -0.580116 -0.968928
  H 3.040058 0.905977 -0.067875
  H 2.687970 -2.110945 -0.011657
  H 5.246418 -0.349480 -0.087157
  H 4.861184 -3.386758 -0.002996
 13
 4.060289
  C 1.098329 -0.165109 -0.054113
  C 2.580110 -0.003783 -0.089991
  C 3.279018 -1.135207 -0.046294
  C 4.707882 -1.280427 -0.071087
  C 5.333638 -2.450189 -0.009146
  H 6.409925 -2.528962 -0.029301
  H 0.560195 0.737569 0.191450
  H 0.921957 -0.962323 0.684488
  H 0.738723 -0.527160 -1.011132
  H 3.022939 0.977516 -0.093156
  H 2.639105 -2.010031 0.041810
  H 5.274166 -0.362389 -0.145476
  H 4.785476 -3.373236 0.063361
 13
 8.639803
  C 1.118146 -0.192889 -0.056042
  C 2.589780 0.038453 -0.123485
  C 3.289257 -1.092741 -0.050245
  C 4.709992 -1.274128 -0.075388
  C 5.305544 -2.458803 0.020719
  H 6.371988 -2.567025 -0.010064
  H 0.534195 0.638347 0.325900
  H 1.062372 -1.099442 0.574741
  H 0.736414 -0.456985 -1.041346
  H 3.005925 1.027621 -0.140266
  H 2.590692 -1.939436 0.078296
  H 5.300047 -0.372365 -0.186405
  H 4.731960 -3.364784 0.122863
 13
 15.191907
  C 1.134324 -0.218669 -0.058954
  C 2.590497 0.064283 -0.141727
  C 3.292067 -1.063444 -0.046943
  C 4.710513 -1.273290 -0.080827
  C 5.281221 -2.465880 0.040941
  H 6.346941 -2.597437 0.011569
  H 0.528404 0.536705 0.440331
  H 1.191119 -1.195501 0.466973
  H 0.719532 -0.388407 -1.056704
  H 2.985511 1.059749 -0.190748
  H 2.550996 -1.871726 0.108431
  H 5.320357 -0.384161 -0.215343
  H 4.686926 -3.358453 0.173087
 13
 23.823100
  C 1.145032 -0.239236 -0.063132
  C 2.589305 0.078156 -0.163372
  C 3.296822 -1.043322 -0.041792
  C 4.710223 -1.272339 -0.073601
  C 5.262339 -2.471517 0.066547
  H 6.325733 -2.622567 0.024937
  H 0.542713 0.440297 0.537085
  H 1.294726 -1.272655 0.366066
  H 0.693489 -0.321058 -1.046788
  H 2.970893 1.084319 -0.252056
  H 2.508779 -1.822942 0.128676
  H 5.335177 -0.393794 -0.229364
  H 4.655478 -3.349121 0.209070
 13
 34.318540
  C 1.147805 -0.252276 -0.064683
  C 2.587486 0.086013 -0.184130
  C 3.303144 -1.028916 -0.042289
  C 4.716341 -1.271683 -0.069987
  C 5.255976 -2.475900 0.084682
  H 6.314824 -2.637149 0.047702
  H 0.565409 0.360655 0.622035
  H 1.376251 -1.329298 0.279282
  H 0.652196 -0.258844 -1.029641
  H 2.955410 1.090743 -0.308662
  H 2.464222 -1.784745 0.134483
  H 5.346574 -0.409832 -0.233404
  H 4.637779 -3.349936 0.237506
 13
 46.352572
  C 1.147686 -0.259015 -0.066133
  C 2.585445 0.087716 -0.185479
  C 3.308936 -1.023123 -0.037095
  C 4.718324 -1.274616 -0.074541
  C 5.250150 -2.482219 0.087241
  H 6.309440 -2.648906 0.063592
  H 0.574898 0.311859 0.664414
  H 1.437942 -1.370723 0.232067
  H 0.631640 -0.225673 -1.021125
  H 2.946284 1.089537 -0.339015
  H 2.417294 -1.763965 0.145400
  H 5.357473 -0.415635 -0.239966
  H 4.628317 -3.348045 0.255355
 13
 58.230067
  C 1.146578 -0.258452 -0.068015
  C 2.582512 0.079789 -0.187965
  C 3.312651 -1.025314 -0.037396
  C 4.721257 -1.278421 -0.080172
  C 5.251292 -2.486069 0.085028
  H 6.310356 -2.650801 0.082133
  H 0.588099 0.289473 0.691095
  H 1.475933 -1.409026 0.209773
  H 0.613099 -0.198978 -1.009675
  H 2.940099 1.081162 -0.359211
  H 2.370052 -1.762060 0.148017
  H 5.363563 -0.420313 -0.241152
  H 4.627838 -3.349432 0.265161
 13
 68.382384
  C 1.138305 -0.249553 -0.072055
  C 2.580674 0.070782 -0.193798
  C 3.317618 -1.028817 -0.030705
  C 4.727124 -1.280182 -0.063258
  C 5.259243 -2.486596 0.102039
  H 6.320010 -2.654711 0.066047
  H 0.598476 0.286642 0.704940
  H 1.486152 -1.451590 0.201102
  H 0.593739 -0.173726 -1.006281
  H 2.939208 1.067868 -0.381535
  H 2.323153 -1.779656 0.161867
  H 5.367724 -0.424126 -0.235494
  H 4.639066 -3.352821 0.262901
 13
 78.046950
  C 1.130958 -0.239542 -0.075190
  C 2.576813 0.057159 -0.196354
  C 3.322827 -1.034198 -0.030375
  C 4.731495 -1.283744 -0.061651
  C 5.266332 -2.489323 0.106621
  H 6.327683 -2.654718 0.066923
  H 0.606337 0.286915 0.717559
  H 1.492929 -1.490836 0.196403
  H 0.578158 -0.152149 -1.004204
  H 2.936842 1.052663 -0.393197
  H 2.281848 -1.799026 0.170638
  H 5.371927 -0.426718 -0.237739
  H 4.648744 -3.358106 0.266170
 13
 88.407848
  C 1.119975 -0.214812 -0.080357
  C 2.571855 0.038212 -0.196950
  C 3.331425 -1.039979 -0.025094
  C 4.739515 -1.285332 -0.057342
  C 5.280008 -2.488681 0.113348
  H 6.342994 -2.648226 0.073751
  H 0.612048 0.310732 0.721839
  H 1.478392 -1.553295 0.206566
  H 0.564859 -0.119534 -1.007178
  H 2.937899 1.029043 -0.409907
  H 2.227463 -1.848650 0.193980
  H 5.377505 -0.427829 -0.242274
  H 4.666219 -3.364129 0.246297
 13
 98.482818
  C 1.109617 -0.181430 -0.083070
  C 2.562435 0.008189 -0.203909
  C 3.342965 -1.052144 -0.044686
  C 4.747983 -1.290775 -0.083362
  C 5.296366 -2.490953 0.092959
  H 6.359555 -2.635736 0.097611
  H 0.629612 0.341043 0.741583
  H 1.448833 -1.633223 0.204752
  H 0.544483 -0.065494 -1.000055
  H 2.935087 1.001492 -0.408556
  H 2.163174 -1.922000 0.191212
  H 5.385751 -0.425787 -0.250045
  H 4.689434 -3.362348 0.290013
 13
 107.104392
  C 1.101601 -0.131943 -0.093469
  C 2.550906 -0.027078 -0.195856
  C 3.355914 -1.056837 -0.027992
  C 4.760798 -1.285609 -0.060017
  C 5.317770 -2.482202 0.112647
  H 6.381657 -2.629832 0.048134
  H 0.635931 0.403063 0.727029
  H 1.382376 -1.740866 0.241483
  H 0.549627 -0.016767 -1.017940
  H 2.933246 0.960044 -0.416894
  H 2.076609 -2.031772 0.243108
  H 5.394402 -0.421557 -0.244772
  H 4.718603 -3.358961 0.291817
