15

C -3.497111 0.98336 -0.136515
C -2.05651 0.58778 -0.023084
C -1.649742 -0.476595 0.647607
C -0.236516 -0.947677 0.808165
C 0.80598 -0.080576 0.112594
H 1.2297298701067816 -0.24063501099112328 0.18048518783302933
H -4.09437 0.161039 -0.530073
H -3.615569 1.846784 -0.785953
H -3.898943 1.236192 0.84536
H -1.347252 1.229346 -0.522911
H -2.387598 -1.101214 1.137999
H -0.003094 -0.999498 1.877677
H -0.172885 -1.969173 0.41845
H 0.597366 -0.058211 -0.960712
H 0.744337 0.940701 0.496917
