 20
 0.000000
  C 1.007934 -0.071009 0.048660
  C 2.504024 -0.082789 0.025532
  C 3.217711 -0.596175 -0.982334
  C 4.655868 -0.607126 -1.003832
  C 5.377406 -1.121995 -2.014607
  C 6.816399 -1.130733 -2.031755
  C 7.534820 -1.642427 -3.036303
  C 9.024952 -1.661178 -3.073104
  H 0.647467 0.395629 0.964743
  H 0.611605 -1.085757 0.010890
  H 0.611606 0.495070 -0.794366
  H 3.005741 0.352441 0.879966
  H 2.703402 -1.029111 -1.832246
  H 5.160099 -0.172043 -0.149695
  H 4.874508 -1.557342 -2.869261
  H 7.322460 -0.696020 -1.178342
  H 7.035941 -2.078761 -3.892884
  H 9.458424 -1.207807 -2.183068
  H 9.384516 -1.114843 -3.946644
  H 9.384517 -2.689004 -3.144801
 20
 0.124753
  C 0.996779 -0.126340 0.059278
  C 2.491066 -0.090334 0.032938
  C 3.229557 -0.575848 -0.968846
  C 4.664945 -0.550644 -0.995505
  C 5.399411 -1.002869 -2.026666
  C 6.834756 -1.050997 -2.041663
  C 7.540755 -1.550627 -3.058666
  C 9.017824 -1.737104 -3.073405
  H 0.610220 0.294532 0.983456
  H 0.635837 -1.150465 -0.032941
  H 0.585209 0.440275 -0.776335
  H 2.983292 0.364017 0.882471
  H 2.740292 -1.036695 -1.819079
  H 5.160428 -0.149082 -0.120480
  H 4.896931 -1.393078 -2.903483
  H 7.343923 -0.686084 -1.158278
  H 7.019102 -1.913598 -3.936390
  H 9.484654 -1.247368 -2.221868
  H 9.447401 -1.337872 -3.991953
  H 9.256262 -2.801132 -3.036691
 20
 1.462295
  C 0.955339 -0.126098 -0.080644
  C 2.448622 -0.086835 -0.029356
  C 3.240741 -0.678123 -0.925501
  C 4.680719 -0.638274 -0.887711
  C 5.447526 -0.917629 -1.953697
  C 6.882044 -1.014825 -1.944914
  C 7.562630 -1.446430 -3.008254
  C 9.017245 -1.752747 -3.079082
  H 0.522235 0.228266 0.850954
  H 0.601814 -1.138768 -0.269934
  H 0.585962 0.506444 -0.889189
  H 2.892435 0.476435 0.780834
  H 2.803098 -1.252839 -1.735279
  H 5.141184 -0.377299 0.056866
  H 4.965781 -1.149197 -2.896335
  H 7.390394 -0.795362 -1.014894
  H 7.014116 -1.651642 -3.920955
  H 9.537923 -1.410614 -2.187057
  H 9.466547 -1.284446 -3.954306
  H 9.160833 -2.830028 -3.173409
 20
 6.004303
  C 0.970824 -0.138113 -0.154126
  C 2.460362 -0.026345 -0.087299
  C 3.295163 -0.763591 -0.811463
  C 4.747858 -0.677001 -0.769215
  C 5.496266 -0.718406 -1.875895
  C 6.923443 -0.920878 -1.914056
  C 7.506101 -1.407101 -3.008163
  C 8.918095 -1.852774 -3.160289
  H 0.506077 0.323305 0.713267
  H 0.662703 -1.181087 -0.205719
  H 0.593220 0.362524 -1.046980
  H 2.860010 0.724853 0.580379
  H 2.915154 -1.524642 -1.486225
  H 5.218168 -0.645066 0.206243
  H 4.996680 -0.725981 -2.838037
  H 7.469303 -0.821522 -0.985073
  H 6.909431 -1.488875 -3.909975
  H 9.488435 -1.677698 -2.250501
  H 9.397309 -1.326727 -3.985298
  H 8.945822 -2.918503 -3.389590
 20
 12.550590
  C 1.006820 -0.257654 -0.286596
  C 2.479681 -0.059568 -0.120774
  C 3.401901 -0.789947 -0.727242
  C 4.858740 -0.666158 -0.608706
  C 5.619030 -0.408153 -1.673617
  C 7.004201 -0.804669 -1.817729
  C 7.407686 -1.290726 -2.988856
  C 8.706568 -1.954205 -3.288643
  H 0.465676 0.122817 0.576775
  H 0.769150 -1.311923 -0.419421
  H 0.651701 0.278405 -1.167553
  H 2.784460 0.756286 0.519028
  H 3.140937 -1.608309 -1.392121
  H 5.311024 -0.979992 0.324922
  H 5.129773 -0.087266 -2.586753
  H 7.587241 -0.944858 -0.917824
  H 6.775183 -1.129768 -3.855540
  H 9.313168 -2.056160 -2.392165
  H 9.264771 -1.379268 -4.027871
  H 8.530072 -2.945128 -3.708011
 20
 20.010398
  C 1.072421 -0.409957 -0.485175
  C 2.500770 -0.126064 -0.150929
  C 3.530019 -0.782458 -0.662464
  C 4.966938 -0.558734 -0.467477
  C 5.737080 -0.172774 -1.489929
  C 7.070018 -0.701299 -1.736980
  C 7.290186 -1.218767 -2.941708
  C 8.465684 -2.030843 -3.358562
  H 0.420197 -0.121226 0.332496
  H 0.925984 -1.467725 -0.703044
  H 0.774004 0.157686 -1.368713
  H 2.677790 0.667010 0.565770
  H 3.419403 -1.597324 -1.364351
  H 5.412415 -0.931529 0.454017
  H 5.240690 0.236740 -2.361168
  H 7.685909 -0.959320 -0.886210
  H 6.625214 -0.930898 -3.757193
  H 9.090619 -2.280127 -2.506122
  H 9.064955 -1.485839 -4.087522
  H 8.132484 -2.958251 -3.834390
 20
 31.997838
  C 1.197093 -0.690909 -0.645347
  C 2.541844 -0.164534 -0.246147
  C 3.686072 -0.612965 -0.730411
  C 5.078868 -0.318160 -0.359534
  C 5.924871 0.114231 -1.308222
  C 7.140295 -0.603243 -1.651177
  C 7.133111 -1.137063 -2.872529
  C 8.105264 -2.148433 -3.381418
  H 0.433622 -0.389001 0.068946
  H 1.213835 -1.775867 -0.715796
  H 0.913253 -0.300591 -1.622840
  H 2.551162 0.618241 0.497940
  H 3.764423 -1.399824 -1.477789
  H 5.466886 -0.866212 0.496691
  H 5.493070 0.697629 -2.115692
  H 7.727007 -1.030956 -0.847124
  H 6.544177 -0.652038 -3.638424
  H 8.718418 -2.543904 -2.575527
  H 8.758423 -1.705013 -4.138147
  H 7.570552 -2.974361 -3.851051
 20
 44.463502
  C 1.365009 -0.879873 -0.833059
  C 2.622533 -0.226418 -0.356215
  C 3.832954 -0.618775 -0.680486
  C 5.184738 -0.221215 -0.222942
  C 6.011504 0.277919 -1.172612
  C 7.130304 -0.513777 -1.640788
  C 6.935131 -1.072696 -2.838242
  C 7.768914 -2.197123 -3.363650
  H 0.559028 -0.728289 -0.123935
  H 1.518239 -1.946265 -0.971443
  H 1.053734 -0.454951 -1.791372
  H 2.501658 0.598150 0.341527
  H 4.065577 -1.346887 -1.467437
  H 5.590428 -0.781266 0.602822
  H 5.535267 0.893109 -1.942172
  H 7.794499 -0.951535 -0.904272
  H 6.378113 -0.524710 -3.580417
  H 8.313605 -2.691455 -2.561078
  H 8.489791 -1.832819 -4.097846
  H 7.132684 -2.930354 -3.856023
 20
 59.222201
  C 1.651402 -1.108582 -1.067247
  C 2.757449 -0.360774 -0.395650
  C 4.036722 -0.533913 -0.673095
  C 5.281880 0.004626 -0.136237
  C 6.101211 0.493025 -1.112096
  C 7.103998 -0.429528 -1.606935
  C 6.680489 -1.027932 -2.738896
  C 7.343984 -2.241531 -3.311266
  H 0.750182 -1.100506 -0.458545
  H 1.944942 -2.139526 -1.260533
  H 1.411268 -0.643348 -2.023705
  H 2.461100 0.367208 0.355862
  H 4.410001 -1.211716 -1.479703
  H 5.716058 -0.529615 0.705703
  H 5.591592 1.055744 -1.898408
  H 7.658553 -1.000456 -0.875191
  H 6.143443 -0.433407 -3.464452
  H 7.984188 -2.721447 -2.576279
  H 7.944330 -1.981746 -4.182237
  H 6.587582 -2.954937 -3.631470
 20
 78.320816
  C 2.022337 -1.402132 -1.173633
  C 2.938359 -0.429507 -0.504753
  C 4.235301 -0.426864 -0.666810
  C 5.358320 0.237460 -0.148270
  C 6.115162 0.717263 -1.213270
  C 7.000195 -0.305604 -1.695305
  C 6.350444 -1.029160 -2.682230
  C 6.861294 -2.360894 -3.114035
  H 1.070113 -1.470670 -0.650657
  H 2.474317 -2.386234 -1.221619
  H 1.818490 -1.073389 -2.190499
  H 2.459498 0.318184 0.143836
  H 4.745363 -1.108137 -1.543435
  H 5.843622 -0.191781 0.699058
  H 5.540121 1.234339 -1.991008
  H 7.624987 -0.807026 -0.997231
  H 5.855750 -0.464549 -3.472639
  H 7.455487 -2.812370 -2.344789
  H 7.466741 -2.270780 -4.022807
  H 6.027036 -3.018294 -3.332205
 20
 88.026077
  C 2.205603 -1.544525 -1.152722
  C 2.986775 -0.435074 -0.519766
  C 4.288389 -0.292738 -0.636362
  C 5.396413 0.414912 -0.215693
  C 6.090262 0.809338 -1.388368
  C 6.896286 -0.252891 -1.806679
  C 6.142700 -1.089538 -2.663504
  C 6.648104 -2.473170 -2.981146
  H 1.258915 -1.691950 -0.639929
  H 2.771341 -2.473353 -1.133391
  H 1.993324 -1.305673 -2.196968
  H 2.408824 0.292551 0.041459
  H 4.962892 -1.154030 -1.723782
  H 5.947355 0.065883 0.650075
  H 5.462817 1.251776 -2.160129
  H 7.563742 -0.719042 -1.090900
  H 5.634811 -0.610831 -3.495649
  H 7.284537 -2.845711 -2.180939
  H 7.225154 -2.467210 -3.906039
  H 5.815971 -3.163814 -3.108924
 20
 73.168119
  C 2.233922 -1.583491 -0.974305
  C 2.901470 -0.342777 -0.465272
  C 4.188393 -0.116565 -0.529180
  C 5.314440 0.542101 -0.268053
  C 5.992475 0.786963 -1.536455
  C 6.781272 -0.288620 -1.874606
  C 6.074968 -1.255518 -2.738419
  C 6.722091 -2.602489 -2.991657
  H 1.259510 -1.721583 -0.500864
  H 2.844042 -2.461468 -0.789714
  H 2.081422 -1.504586 -2.043106
  H 2.236977 0.417206 -0.049897
  H 5.137487 -1.380300 -2.017588
  H 5.907533 0.298391 0.619238
  H 5.350810 1.168423 -2.317803
  H 7.443827 -0.702782 -1.133981
  H 5.610523 -0.834843 -3.634854
  H 7.348307 -2.891221 -2.148696
  H 7.340314 -2.575141 -3.886678
  H 5.963969 -3.364566 -3.128104
 20
 54.103213
  C 2.083980 -1.518774 -0.663622
  C 2.707896 -0.188979 -0.356591
  C 3.989785 0.052230 -0.420412
  C 5.185704 0.607425 -0.336178
  C 5.821663 0.611594 -1.670476
  C 6.657119 -0.437207 -1.930275
  C 6.158175 -1.483992 -2.881771
  C 7.042753 -2.705434 -3.091586
  H 1.095234 -1.595267 -0.218414
  H 2.695256 -2.332471 -0.309780
  H 1.971835 -1.626980 -1.750147
  H 2.017142 0.614480 -0.124854
  H 5.247282 -1.754865 -2.306131
  H 5.815449 0.507570 0.550468
  H 5.183863 0.934331 -2.482552
  H 7.299594 -0.793543 -1.145713
  H 5.781958 -1.083463 -3.826591
  H 7.607554 -2.926910 -2.186469
  H 7.745563 -2.545542 -3.903873
  H 6.424895 -3.582994 -3.337305
 20
 36.715088
  C 1.904396 -1.398132 -0.341493
  C 2.534575 -0.034195 -0.292915
  C 3.811570 0.180392 -0.376518
  C 5.056670 0.564139 -0.462864
  C 5.633885 0.318422 -1.785963
  C 6.519964 -0.669556 -1.959823
  C 6.283565 -1.715735 -3.005613
  C 7.385145 -2.752665 -3.169265
  H 0.914134 -1.379195 0.105699
  H 2.516116 -2.130139 0.180348
  H 1.802605 -1.722290 -1.378445
  H 1.849967 0.804140 -0.224915
  H 5.374145 -2.175297 -2.577023
  H 5.708475 0.608200 0.399210
  H 4.998113 0.583909 -2.623881
  H 7.156144 -0.961111 -1.132608
  H 5.999424 -1.283686 -3.966900
  H 7.862174 -2.958233 -2.212612
  H 8.147017 -2.404053 -3.862437
  H 6.976215 -3.684422 -3.552819
 20
 33.632293
  C 2.007259 -1.446137 -0.208590
  C 2.551341 -0.050591 -0.316577
  C 3.783056 0.228603 -0.291318
  C 5.041661 0.559706 -0.384422
  C 5.580320 0.253701 -1.720764
  C 6.466544 -0.730109 -1.932247
  C 6.349435 -1.570523 -3.184930
  C 7.250545 -2.799195 -3.203599
  H 0.922142 -1.429487 -0.161959
  H 2.387455 -1.942747 0.683740
  H 2.309362 -2.038027 -1.071176
  H 1.823925 0.743851 -0.413952
  H 5.290937 -1.851847 -3.123937
  H 5.690113 0.707835 0.466720
  H 4.958857 0.578599 -2.549713
  H 7.071378 -1.115366 -1.120483
  H 6.506729 -0.974455 -4.084677
  H 7.570232 -3.062244 -2.197737
  H 8.142759 -2.616444 -3.798228
  H 6.730252 -3.654627 -3.626990
