 20
 0.000000
  C 1.003203 0.117779 0.343811
  C 2.478259 0.117731 0.345383
  C 3.205641 0.597358 1.537774
  H 2.526423 0.913579 2.323083
  C 3.137382 -0.339997 -0.792370
  C 4.524131 -0.399762 -0.942291
  C 5.187632 -0.855207 -2.079814
  C 4.549889 -1.351081 -3.316734
  H 3.468044 -1.337949 -3.283450
  O 6.495950 -0.872690 -2.126227
  H 0.588881 0.492245 1.273943
  H 0.626028 -0.890708 0.167106
  H 0.626909 0.723439 -0.482113
  H 3.855818 1.433826 1.277665
  H 3.855523 -0.186265 1.929709
  H 2.519488 -0.670261 -1.614255
  H 5.147666 -0.070502 -0.121813
  H 4.902625 -2.364451 -3.512843
  H 4.902309 -0.753433 -4.158441
  H 6.941622 -0.549592 -1.320781
 20
 4.876823
  C 0.964413 0.140348 0.400937
  C 2.441484 0.122345 0.356721
  C 3.217638 0.592284 1.524034
  H 2.570507 0.917655 2.332696
  C 3.067114 -0.347125 -0.810294
  C 4.443521 -0.419624 -0.992317
  C 5.185068 -0.851215 -2.070138
  C 4.616165 -1.360266 -3.340686
  H 3.535590 -1.358584 -3.337657
  O 6.495524 -0.844284 -2.053837
  H 0.582232 0.519731 1.343611
  H 0.569214 -0.863516 0.233580
  H 0.569498 0.748826 -0.415005
  H 3.869499 1.419154 1.240839
  H 3.869907 -0.199901 1.892575
  H 2.430901 -0.673525 -1.621474
  H 5.200626 -0.141162 -0.298772
  H 4.983941 -2.369631 -3.523653
  H 4.984655 -0.757036 -4.170095
  H 6.908267 -0.515447 -1.231809
 20
 15.475556
  C 0.950265 0.149870 0.425970
  C 2.427401 0.121455 0.354035
  C 3.234476 0.584721 1.503663
  H 2.610940 0.915257 2.327501
  C 3.027149 -0.349516 -0.817053
  C 4.370582 -0.427056 -1.011832
  C 5.157334 -0.841379 -2.046264
  C 4.642284 -1.361850 -3.345892
  H 3.555171 -1.372534 -3.376168
  O 6.495636 -0.818667 -1.988000
  H 0.588844 0.531870 1.375568
  H 0.544934 -0.850715 0.265685
  H 0.544354 0.760434 -0.382506
  H 3.887659 1.403751 1.203405
  H 3.889651 -0.212745 1.853494
  H 2.385340 -0.674291 -1.623108
  H 5.225413 -0.195015 -0.434488
  H 5.024245 -2.367768 -3.515477
  H 5.026567 -0.752954 -4.163423
  H 6.901545 -0.482944 -1.144064
 20
 29.294706
  C 0.930432 0.164959 0.463819
  C 2.400487 0.126392 0.366485
  C 3.231458 0.581475 1.495946
  H 2.627646 0.916804 2.332567
  C 2.974771 -0.345129 -0.806383
  C 4.333728 -0.429636 -1.019399
  C 5.164757 -0.838483 -2.039851
  C 4.698548 -1.369325 -3.364678
  H 3.619500 -1.391355 -3.424954
  O 6.472903 -0.808716 -1.963236
  H 0.588805 0.549334 1.419416
  H 0.515399 -0.834014 0.310379
  H 0.514704 0.779119 -0.338675
  H 3.885773 1.394908 1.180854
  H 3.888384 -0.221939 1.830836
  H 2.318975 -0.668082 -1.607578
  H 5.267476 -0.243980 -0.559089
  H 5.094381 -2.370939 -3.523486
  H 5.097639 -0.757421 -4.171524
  H 6.866022 -0.478291 -1.131183
 20
 45.108766
  C 0.914002 0.173941 0.486217
  C 2.384767 0.127771 0.370144
  C 3.237836 0.579671 1.491179
  H 2.647599 0.919690 2.338914
  C 2.941686 -0.346550 -0.809152
  C 4.293686 -0.434026 -1.029497
  C 5.162349 -0.833978 -2.028554
  C 4.735050 -1.371692 -3.371178
  H 3.653598 -1.402424 -3.453137
  O 6.471675 -0.801620 -1.945723
  H 0.586254 0.560196 1.446048
  H 0.491465 -0.823809 0.338200
  H 0.490829 0.790763 -0.311779
  H 3.893934 1.390310 1.165089
  H 3.896461 -0.229391 1.816499
  H 2.274897 -0.666668 -1.603183
  H 5.276206 -0.284652 -0.659355
  H 5.143251 -2.372780 -3.522886
  H 5.146390 -0.755228 -4.172423
  H 6.869359 -0.472882 -1.117640
 20
 58.630783
  C 0.906553 0.178052 0.495776
  C 2.375087 0.130224 0.377252
  C 3.226283 0.580509 1.493275
  H 2.637809 0.921317 2.340069
  C 2.931482 -0.345299 -0.802966
  C 4.285101 -0.432278 -1.022912
  C 5.171513 -0.834633 -2.030060
  C 4.748572 -1.371873 -3.372729
  H 3.669740 -1.403801 -3.457086
  O 6.487695 -0.804868 -1.954747
  H 0.580725 0.565196 1.456043
  H 0.483997 -0.817149 0.349340
  H 0.484157 0.793547 -0.299904
  H 3.881617 1.388251 1.165575
  H 3.882721 -0.227823 1.817008
  H 2.262755 -0.664149 -1.592888
  H 5.312209 -0.319672 -0.745247
  H 5.156052 -2.368710 -3.522110
  H 5.158965 -0.756145 -4.169357
  H 6.901081 -0.476364 -1.127320
 20
 70.457840
  C 0.905482 0.176008 0.490705
  C 2.373428 0.132122 0.381743
  C 3.211613 0.583155 1.499827
  H 2.617077 0.922073 2.340341
  C 2.941138 -0.342532 -0.795694
  C 4.297772 -0.424157 -1.003715
  C 5.181884 -0.832206 -2.025546
  C 4.743834 -1.368990 -3.366242
  H 3.657133 -1.396704 -3.441374
  O 6.504915 -0.812118 -1.972317
  H 0.572321 0.562502 1.449183
  H 0.487676 -0.818455 0.342106
  H 0.487855 0.789219 -0.305885
  H 3.866007 1.390065 1.176940
  H 3.865630 -0.221809 1.827140
  H 2.279884 -0.661826 -1.583995
  H 5.350168 -0.345211 -0.811730
  H 5.146470 -2.369112 -3.518122
  H 5.150435 -0.753792 -4.167907
  H 6.939482 -0.488221 -1.154914
 20
 80.458182
  C 0.906199 0.166908 0.470750
  C 2.380959 0.130936 0.379828
  C 3.199948 0.588922 1.507448
  H 2.588954 0.927810 2.343295
  C 2.970148 -0.343101 -0.789885
  C 4.329680 -0.414396 -0.974029
  C 5.188269 -0.828917 -2.013239
  C 4.712376 -1.359230 -3.350400
  H 3.654914 -1.372977 -3.396744
  O 6.517204 -0.825187 -1.994724
  H 0.555328 0.555123 1.427747
  H 0.497703 -0.824780 0.318833
  H 0.498214 0.770875 -0.326777
  H 3.852245 1.395985 1.191498
  H 3.851484 -0.208721 1.842993
  H 2.321957 -0.664582 -1.576993
  H 5.385647 -0.366763 -0.862718
  H 5.104557 -2.383115 -3.516651
  H 5.112970 -0.734770 -4.176945
  H 6.983412 -0.507561 -1.186787
 20
 85.345365
  C 0.912291 0.177651 0.443681
  C 2.382436 0.133779 0.373954
  C 3.194111 0.551060 1.532579
  H 2.578776 0.863992 2.366320
  C 2.980799 -0.304338 -0.800441
  C 4.343296 -0.379208 -0.966014
  C 5.204977 -0.812636 -2.020643
  C 4.703291 -1.404701 -3.312878
  H 3.617292 -1.451095 -3.323449
  O 6.534734 -0.769456 -2.044021
  H 0.557697 0.531617 1.394319
  H 0.497426 -0.810624 0.252971
  H 0.517460 0.817777 -0.345136
  H 3.859601 1.367831 1.252244
  H 3.841552 -0.268107 1.851124
  H 2.328766 -0.592144 -1.621142
  H 5.416626 -0.361280 -0.891108
  H 5.106696 -2.397476 -3.457944
  H 5.050633 -0.804831 -4.151745
  H 7.006892 -0.404684 -1.269358
 20
 92.235466
  C 0.899157 0.188666 0.435198
  C 2.387285 0.135245 0.369759
  C 3.194517 0.523989 1.535313
  H 2.576334 0.823728 2.375894
  C 2.987654 -0.281677 -0.805514
  C 4.353974 -0.361522 -0.963253
  C 5.201537 -0.822654 -2.011763
  C 4.702150 -1.436228 -3.292987
  H 3.618245 -1.499862 -3.298908
  O 6.536310 -0.749056 -2.068193
  H 0.533049 0.535252 1.417095
  H 0.476129 -0.799328 0.221202
  H 0.511339 0.850508 -0.345931
  H 3.862431 1.338988 1.275406
  H 3.833251 -0.299862 1.835423
  H 2.339595 -0.540911 -1.637168
  H 5.437940 -0.367707 -0.935644
  H 5.126720 -2.434318 -3.446345
  H 5.039630 -0.829485 -4.122273
  H 7.027886 -0.339262 -1.320133
 20
 94.302953
  C 0.903957 0.245622 0.421398
  C 2.376282 0.150095 0.361021
  C 3.185966 0.413803 1.564161
  H 2.569566 0.658412 2.421182
  C 2.974090 -0.184921 -0.844721
  C 4.334442 -0.303237 -1.010055
  C 5.198110 -0.779883 -2.029731
  C 4.718863 -1.564908 -3.226919
  H 3.647147 -1.717327 -3.192601
  O 6.533552 -0.622962 -2.138691
  H 0.549312 0.513530 1.407710
  H 0.452315 -0.702685 0.123582
  H 0.543568 0.983689 -0.298851
  H 3.881088 1.233665 1.381868
  H 3.800254 -0.456392 1.797924
  H 2.327613 -0.336726 -1.702116
  H 5.441358 -0.320814 -0.982515
  H 5.219277 -2.525618 -3.312257
  H 4.985741 -0.990731 -4.117631
  H 7.011394 -0.117301 -1.452649
 20
 95.079923
  C 0.901303 0.291804 0.411706
  C 2.371185 0.140122 0.343972
  C 3.188904 0.293433 1.562575
  H 2.581598 0.503361 2.435983
  C 2.958386 -0.133021 -0.879503
  C 4.309940 -0.261902 -1.074357
  C 5.220372 -0.745747 -2.036217
  C 4.735152 -1.662455 -3.137135
  H 3.677197 -1.861996 -3.041209
  O 6.547110 -0.512871 -2.201707
  H 0.554937 0.510244 1.415238
  H 0.410338 -0.613667 0.047911
  H 0.574725 1.089234 -0.258520
  H 3.916218 1.094862 1.431763
  H 3.769121 -0.610998 1.737754
  H 2.315498 -0.169142 -1.750999
  H 5.430784 -0.267288 -1.020623
  H 5.283395 -2.604825 -3.167734
  H 4.934248 -1.139434 -4.076025
  H 6.998717 0.087216 -1.577473
 20
 94.661437
  C 0.897652 0.336022 0.424759
  C 2.360999 0.137556 0.333967
  C 3.194940 0.200942 1.550987
  H 2.597078 0.393321 2.443113
  C 2.930114 -0.097196 -0.906084
  C 4.268714 -0.258435 -1.137189
  C 5.232219 -0.739234 -2.036428
  C 4.779849 -1.735670 -3.084353
  H 3.732647 -1.983635 -2.959956
  O 6.545567 -0.433346 -2.234973
  H 0.570145 0.517033 1.447703
  H 0.368553 -0.536680 0.028083
  H 0.591814 1.174562 -0.197025
  H 3.950745 0.988499 1.452345
  H 3.734797 -0.728320 1.683194
  H 2.276092 -0.095282 -1.775641
  H 5.409599 -0.288759 -1.025073
  H 5.373084 -2.643668 -3.077284
  H 4.936350 -1.244364 -4.046973
  H 6.952688 0.237849 -1.659695
 20
 90.944868
  C 0.898997 0.389079 0.448894
  C 2.351103 0.143358 0.327642
  C 3.203202 0.085227 1.536575
  H 2.623426 0.244351 2.443610
  C 2.895461 -0.041271 -0.934065
  C 4.208794 -0.248745 -1.216194
  C 5.234940 -0.734026 -2.042262
  C 4.845685 -1.831031 -3.012905
  H 3.831564 -2.165126 -2.837511
  O 6.514080 -0.326816 -2.279737
  H 0.594564 0.511214 1.481178
  H 0.332752 -0.433522 0.007085
  H 0.614188 1.285993 -0.115199
  H 3.987313 0.839432 1.482243
  H 3.702179 -0.881964 1.606195
  H 2.239881 0.046570 -1.793331
  H 5.374280 -0.340317 -1.017120
  H 5.517215 -2.687746 -2.959675
  H 4.935258 -1.390522 -4.003977
  H 6.844934 0.429916 -1.764697
