 23
 0.000000
  H 1.387704 0.148699 0.423436
  C 2.466570 0.138961 0.397801
  C 3.215451 0.609744 1.566988
  H 2.589068 0.939085 2.386664
  C 3.048703 -0.328400 -0.765190
  C 4.426786 -0.412249 -0.975619
  C 5.116405 -0.864373 -2.103209
  C 4.617972 -1.385399 -3.402093
  C 3.129200 -1.505004 -3.700912
  C 2.928713 -2.068505 -5.105828
  O 6.429674 -0.855512 -2.082139
  H 3.871477 1.433961 1.276358
  H 3.872439 -0.185396 1.927816
  H 2.379023 -0.642723 -1.546385
  H 5.055478 -0.082926 -0.156351
  H 5.082965 -2.370631 -3.528459
  H 5.083376 -0.760921 -4.174337
  H 2.651338 -0.526141 -3.652586
  H 2.651056 -2.179019 -2.989614
  H 3.376151 -1.418831 -5.854233
  H 1.868693 -2.157760 -5.328791
  H 3.375999 -3.055382 -5.197810
  H 6.819820 -0.522534 -1.250752
 23
 15.885897
  H 1.431446 0.189086 0.525570
  C 2.510928 0.154561 0.437403
  C 3.298785 0.620373 1.592496
  H 2.659526 0.947645 2.407206
  C 3.024475 -0.320157 -0.743808
  C 4.449510 -0.428967 -1.016767
  C 5.025494 -0.877903 -2.137027
  C 4.610132 -1.403878 -3.448555
  C 3.134621 -1.530287 -3.763965
  C 2.951456 -2.093304 -5.168033
  O 6.269395 -0.787403 -1.912453
  H 3.953543 1.444642 1.304925
  H 3.955371 -0.171923 1.955695
  H 2.328911 -0.629989 -1.513846
  H 5.064146 -0.099407 -0.195038
  H 5.090011 -2.376489 -3.557746
  H 5.089847 -0.776667 -4.199839
  H 2.653727 -0.553037 -3.716925
  H 2.653552 -2.204216 -3.054897
  H 3.404231 -1.441242 -5.911665
  H 1.894691 -2.186978 -5.401870
  H 3.404189 -3.078519 -5.255118
  H 6.575775 -0.444066 -1.053652
 23
 59.746327
  H 1.445843 0.209035 0.574138
  C 2.519405 0.164094 0.459463
  C 3.321635 0.621248 1.597103
  H 2.692174 0.948762 2.415352
  C 3.004598 -0.312113 -0.728353
  C 4.527504 -0.438781 -1.044204
  C 4.997525 -0.889460 -2.168098
  C 4.636367 -1.416779 -3.482512
  C 3.140263 -1.541977 -3.793432
  C 2.939584 -2.107590 -5.200809
  O 6.186260 -0.744327 -1.806665
  H 3.972244 1.448920 1.304356
  H 3.973816 -0.178268 1.956816
  H 2.319225 -0.618705 -1.493097
  H 5.062785 -0.093969 -0.183260
  H 5.128660 -2.400455 -3.580376
  H 5.129121 -0.774375 -4.233575
  H 2.662883 -0.562253 -3.736651
  H 2.663019 -2.210414 -3.075031
  H 3.386977 -1.458314 -5.948880
  H 1.879489 -2.197841 -5.425089
  H 3.387116 -3.093576 -5.292101
  H 6.470422 -0.401976 -0.945933
 23
 112.332590
  H 1.443416 0.200858 0.669246
  C 2.521708 0.173045 0.489546
  C 3.361393 0.640957 1.623011
  H 2.748372 0.947092 2.467232
  C 2.889569 -0.273627 -0.678794
  C 4.628793 -0.437192 -1.060406
  C 4.935043 -0.908331 -2.203287
  C 4.629654 -1.439657 -3.523697
  C 3.140783 -1.561614 -3.845004
  C 2.952716 -2.127600 -5.249304
  O 6.180227 -0.700464 -1.729861
  H 3.971654 1.491073 1.323255
  H 4.018753 -0.162423 1.957649
  H 2.257594 -0.584919 -1.487573
  H 5.000295 -0.085936 -0.116299
  H 5.117276 -2.411142 -3.609029
  H 5.124067 -0.799602 -4.260813
  H 2.667357 -0.578876 -3.790712
  H 2.654778 -2.227627 -3.126688
  H 3.411487 -1.476920 -5.997503
  H 1.889525 -2.215128 -5.483007
  H 3.400821 -3.120229 -5.334607
  H 6.520515 -0.394507 -0.872173
 23
 139.317625
  H 1.346709 0.254469 0.770429
  C 2.411859 0.189845 0.536700
  C 3.318855 0.642312 1.636084
  H 2.742721 0.974818 2.503509
  C 2.709110 -0.267654 -0.634944
  C 4.806591 -0.456289 -1.097701
  C 4.984253 -0.929395 -2.261211
  C 4.673824 -1.454034 -3.568867
  C 3.173505 -1.561518 -3.844788
  C 2.938884 -2.124714 -5.246446
  O 6.287800 -0.711876 -1.749573
  H 3.928019 1.487411 1.301240
  H 3.966435 -0.174097 1.955496
  H 2.118719 -0.595475 -1.462820
  H 5.053934 -0.078606 -0.136070
  H 5.146478 -2.433664 -3.650816
  H 5.152469 -0.808109 -4.305477
  H 2.708607 -0.572843 -3.777004
  H 2.707324 -2.223680 -3.107850
  H 3.379429 -1.477232 -6.004453
  H 1.871697 -2.203162 -5.448121
  H 3.374813 -3.117316 -5.348260
  H 6.689854 -0.423736 -0.909336
 23
 149.688556
  H 1.197274 0.288579 0.882914
  C 2.244950 0.206329 0.587782
  C 3.215991 0.664513 1.642021
  H 2.687782 0.978851 2.539819
  C 2.513196 -0.254488 -0.590157
  C 5.040000 -0.483436 -1.155545
  C 5.094340 -0.958523 -2.328861
  C 4.737920 -1.474991 -3.618482
  C 3.229623 -1.550211 -3.817334
  C 2.913271 -2.104502 -5.208070
  O 6.471208 -0.746205 -1.826195
  H 3.828287 1.484934 1.279738
  H 3.860066 -0.164520 1.936142
  H 1.925820 -0.580631 -1.412152
  H 5.159912 -0.093245 -0.182015
  H 5.186456 -2.470356 -3.717587
  H 5.193965 -0.827283 -4.375312
  H 2.775006 -0.561084 -3.734017
  H 2.780874 -2.204251 -3.066713
  H 3.322231 -1.466901 -5.985257
  H 1.840177 -2.163943 -5.349552
  H 3.317992 -3.103328 -5.332574
  H 6.964653 -0.484672 -1.020228
 23
 148.371164
  H 1.068933 0.087169 1.170219
  C 2.079488 0.087041 0.741947
  C 3.132943 0.621612 1.679401
  H 2.692871 0.909895 2.629683
  C 2.264087 -0.347245 -0.461888
  C 5.205801 -0.277615 -1.325293
  C 5.204910 -0.792583 -2.483508
  C 4.806938 -1.380815 -3.722763
  C 3.292823 -1.620908 -3.761487
  C 2.889530 -2.251393 -5.090138
  O 6.607863 -0.381812 -2.132900
  H 3.630559 1.485501 1.240909
  H 3.874657 -0.150249 1.884763
  H 1.654063 -0.723568 -1.249034
  H 5.284610 0.063616 -0.313068
  H 5.343686 -2.325163 -3.848221
  H 5.112046 -0.720639 -4.540374
  H 2.760649 -0.677461 -3.636389
  H 2.997593 -2.278473 -2.941684
  H 3.147411 -1.605630 -5.926255
  H 1.815552 -2.425226 -5.109958
  H 3.379035 -3.211442 -5.230024
  H 7.220212 -0.151035 -1.404602
 23
 116.356472
  H 1.286014 -0.023574 0.900992
  C 2.327988 0.029035 0.570461
  C 3.231058 0.617965 1.604573
  H 2.680971 0.840002 2.514348
  C 2.570232 -0.350459 -0.639384
  C 4.831539 -0.244441 -1.161728
  C 5.149634 -0.742352 -2.316348
  C 4.724618 -1.330905 -3.581033
  C 3.231018 -1.626520 -3.680164
  C 2.897497 -2.236217 -5.036101
  O 6.505464 -0.339913 -2.262956
  H 3.667134 1.539640 1.231477
  H 4.018465 -0.082805 1.857997
  H 2.070691 -0.680650 -1.515376
  H 4.779056 0.004715 -0.130961
  H 5.305316 -2.248215 -3.721897
  H 5.029765 -0.647609 -4.377749
  H 2.670661 -0.700703 -3.556960
  H 2.946866 -2.322671 -2.892081
  H 3.161036 -1.552755 -5.841584
  H 1.835190 -2.439366 -5.113304
  H 3.439400 -3.164583 -5.194378
  H 7.106644 -0.364040 -1.488508
