 17
 0.000000
  H 1.413321 0.178145 0.494132
  C 2.482194 0.132653 0.380989
  H 3.102836 0.460863 1.197697
  C 3.022557 -0.334135 -0.781168
  C 4.409098 -0.410402 -0.971502
  C 5.112723 -0.862335 -2.098488
  C 4.619822 -1.382816 -3.396039
  C 3.135677 -1.503658 -3.697294
  H 3.017630 -1.905525 -4.699030
  O 6.421589 -0.848845 -2.065170
  H 2.368344 -0.651988 -1.572830
  H 5.015816 -0.075176 -0.136582
  H 5.089801 -2.366316 -3.520823
  H 5.089908 -0.758392 -4.166013
  H 2.643031 -0.535276 -3.669757
  H 2.642999 -2.184525 -3.008113
  H 6.820347 -0.517186 -1.236286
 17
 0.005108
  H 1.425209 0.266018 0.483362
  C 2.481193 0.098489 0.372639
  H 3.089378 0.195424 1.257836
  C 3.019722 -0.240448 -0.831565
  C 4.403430 -0.421878 -0.979871
  C 5.120304 -0.824335 -2.115600
  C 4.621944 -1.383604 -3.391591
  C 3.135859 -1.521181 -3.672210
  H 3.014746 -2.016009 -4.633063
  O 6.424809 -0.752419 -2.102007
  H 2.372503 -0.338821 -1.687225
  H 5.000206 -0.192619 -0.102113
  H 5.093226 -2.372234 -3.476698
  H 5.096487 -0.803074 -4.192505
  H 2.649146 -0.552668 -3.746078
  H 2.638667 -2.131906 -2.923719
  H 6.830400 -0.415716 -1.275897
 17
 2.009914
  H 1.389473 0.268658 0.349437
  C 2.431532 0.001291 0.333442
  H 2.920186 -0.127225 1.285905
  C 3.085029 -0.216491 -0.838347
  C 4.478149 -0.363526 -0.937696
  C 5.149667 -0.781654 -2.089389
  C 4.586580 -1.408979 -3.318337
  C 3.101506 -1.491778 -3.624553
  H 2.989431 -2.016447 -4.571645
  O 6.447084 -0.694926 -2.209257
  H 2.533890 -0.228964 -1.769169
  H 5.075590 -0.069384 -0.082703
  H 4.986936 -2.432535 -3.304616
  H 5.103929 -0.937456 -4.161572
  H 2.656583 -0.509557 -3.762477
  H 2.556815 -2.060908 -2.877112
  H 6.929679 -0.388319 -1.415800
 17
 3.494974
  H 1.366975 0.054578 0.376934
  C 2.425922 -0.133492 0.347521
  H 2.921547 -0.295394 1.291057
  C 3.091988 -0.218953 -0.828425
  C 4.491699 -0.262257 -0.961628
  C 5.141494 -0.733970 -2.103411
  C 4.552777 -1.501851 -3.239685
  C 3.097275 -1.397390 -3.671739
  H 2.999328 -1.927011 -4.618000
  O 6.424854 -0.600869 -2.296873
  H 2.540177 -0.236750 -1.761336
  H 5.092126 0.161404 -0.165749
  H 4.754327 -2.553486 -2.989636
  H 5.198086 -1.292459 -4.098589
  H 2.805260 -0.367653 -3.861202
  H 2.416614 -1.879663 -2.977148
  H 6.938192 -0.247580 -1.542614
 17
 8.348348
  H 1.361111 -0.047846 0.313339
  C 2.416428 -0.259265 0.317453
  H 2.845398 -0.569245 1.255084
  C 3.155077 -0.174152 -0.803010
  C 4.564274 -0.184432 -0.945234
  C 5.176599 -0.738163 -2.064687
  C 4.513610 -1.568521 -3.126286
  C 3.100704 -1.301771 -3.639848
  H 3.006585 -1.845802 -4.584830
  O 6.446805 -0.665561 -2.353537
  H 2.641824 -0.227059 -1.775559
  H 5.158494 0.388399 -0.248207
  H 4.546916 -2.598288 -2.741478
  H 5.201964 -1.538529 -3.970588
  H 2.949919 -0.264102 -3.898269
  H 2.318758 -1.719557 -3.010334
  H 7.014703 -0.251178 -1.670595
 17
 21.515281
  H 1.364895 -0.032612 0.106944
  C 2.377053 -0.389812 0.177735
  H 2.606373 -0.994914 1.048124
  C 3.271132 -0.161830 -0.782812
  C 4.669197 -0.077406 -0.965373
  C 5.241369 -0.708332 -2.045679
  C 4.470206 -1.572006 -3.025266
  C 3.059648 -1.186492 -3.488139
  H 2.883683 -1.844554 -4.358150
  O 6.496648 -0.710445 -2.402175
  H 2.837315 -0.138005 -1.844856
  H 5.244489 0.541167 -0.299552
  H 4.416410 -2.566690 -2.569385
  H 5.123825 -1.645819 -3.902395
  H 3.012021 -0.227407 -3.991465
  H 2.245935 -1.552955 -2.869755
  H 7.105786 -0.303858 -1.751043
 17
 48.151344
  H 1.366662 -0.087070 -0.108337
  C 2.356467 -0.465131 0.093841
  H 2.433730 -1.086619 0.979086
  C 3.378826 -0.221800 -0.681083
  C 4.724871 -0.112909 -0.967922
  C 5.276964 -0.758974 -2.039837
  C 4.454963 -1.623753 -2.960249
  C 3.060857 -1.049395 -3.309804
  H 2.773147 -1.632274 -4.220645
  O 6.554704 -0.684045 -2.422187
  H 2.915158 -0.292815 -2.156254
  H 5.314211 0.580588 -0.380947
  H 4.341585 -2.612450 -2.516027
  H 5.066216 -1.743352 -3.859350
  H 3.096945 -0.103305 -3.863364
  H 2.209144 -1.502529 -2.775261
  H 7.109611 -0.189203 -1.798802
 17
 53.572198
  H 1.443650 0.131307 -0.052986
  C 2.353831 -0.411413 0.158747
  H 2.275402 -1.120061 0.976329
  C 3.449402 -0.241531 -0.508362
  C 4.738426 -0.179556 -0.915966
  C 5.263019 -0.798822 -2.034830
  C 4.459069 -1.640863 -2.982962
  C 3.068191 -1.034195 -3.316018
  H 2.712650 -1.561378 -4.234799
  O 6.565941 -0.682252 -2.402112
  H 2.873969 -0.319766 -2.427806
  H 5.386357 0.476602 -0.340422
  H 4.339643 -2.640520 -2.562465
  H 5.075644 -1.744423 -3.878693
  H 3.141389 -0.107478 -3.926488
  H 2.216933 -1.559663 -2.808618
  H 7.079231 -0.166021 -1.765756
 17
 54.192644
  H 1.504258 0.197638 0.007019
  C 2.350963 -0.453789 0.189390
  H 2.167249 -1.239729 0.914406
  C 3.496255 -0.298990 -0.386097
  C 4.753516 -0.213092 -0.858312
  C 5.242315 -0.789277 -2.019843
  C 4.434159 -1.645036 -2.950214
  C 3.085934 -1.003394 -3.371125
  H 2.659695 -1.607444 -4.208411
  O 6.542094 -0.648435 -2.417008
  H 2.926813 -0.106294 -2.706569
  H 5.434114 0.395077 -0.271134
  H 4.257716 -2.613172 -2.474650
  H 5.071001 -1.825784 -3.813407
  H 3.235593 -0.214013 -4.153065
  H 2.232064 -1.400873 -2.766238
  H 7.062590 -0.147057 -1.776349
 17
 54.390633
  H 1.507256 0.125460 0.041724
  C 2.342267 -0.552125 0.199475
  H 2.130596 -1.382938 0.860878
  C 3.506276 -0.367053 -0.325421
  C 4.750690 -0.228583 -0.812870
  C 5.215299 -0.764645 -2.007380
  C 4.393713 -1.665963 -2.880697
  C 3.119151 -0.972608 -3.425883
  H 2.624750 -1.648107 -4.159716
  O 6.496500 -0.593172 -2.448229
  H 3.143933 0.091917 -3.053072
  H 5.434768 0.365250 -0.215996
  H 4.118569 -2.551627 -2.305372
  H 5.043677 -1.988752 -3.694906
  H 3.343692 -0.339410 -4.337155
  H 2.270797 -1.069559 -2.714180
  H 7.029101 -0.089063 -1.819789
 17
 58.743739
  H 1.486704 0.107346 0.096019
  C 2.316831 -0.576217 0.217417
  H 2.111899 -1.434070 0.846835
  C 3.470557 -0.376881 -0.322888
  C 4.704828 -0.217529 -0.824813
  C 5.159132 -0.732730 -2.034674
  C 4.368284 -1.719661 -2.849509
  C 3.123086 -1.010652 -3.448953
  H 2.661108 -1.694002 -4.179412
  O 6.444977 -0.567516 -2.469653
  H 3.550386 0.042687 -3.191362
  H 5.394334 0.372501 -0.228176
  H 4.071965 -2.564325 -2.226662
  H 5.022567 -2.086739 -3.642433
  H 3.287936 -0.263780 -4.313292
  H 2.319531 -0.882531 -2.709614
  H 6.975631 -0.050359 -1.851120
 17
 63.802104
  H 1.449359 0.129436 0.051597
  C 2.258591 -0.574398 0.187844
  H 2.023100 -1.429899 0.804754
  C 3.424881 -0.399848 -0.329771
  C 4.647547 -0.215009 -0.828018
  C 5.108490 -0.700595 -2.070062
  C 4.351444 -1.737046 -2.883049
  C 3.089542 -1.023313 -3.446427
  H 2.639576 -1.709651 -4.178248
  O 6.393505 -0.516902 -2.485213
  H 3.865487 -0.054522 -3.059254
  H 5.336245 0.364368 -0.223630
  H 4.082699 -2.602465 -2.277295
  H 5.005589 -2.063943 -3.689962
  H 3.210912 -0.170070 -4.172176
  H 2.325445 -0.870969 -2.680658
  H 6.918040 0.001503 -1.860133
 17
 41.972396
  H 1.566237 0.285520 0.148741
  C 2.274244 -0.528772 0.162647
  H 1.941722 -1.404383 0.700719
  C 3.476293 -0.396867 -0.248250
  C 4.693700 -0.226689 -0.748260
  C 5.110963 -0.589656 -2.088605
  C 4.338791 -1.672271 -2.945246
  C 2.997902 -1.201075 -3.496152
  H 2.637397 -1.980592 -4.181252
  O 6.376019 -0.404001 -2.505494
  H 4.358449 0.141329 -2.684987
  H 5.447664 0.184964 -0.086534
  H 4.210783 -2.581681 -2.357243
  H 5.008598 -1.880384 -3.777134
  H 3.063838 -0.339660 -4.159245
  H 2.242740 -1.095463 -2.724535
  H 6.952707 -0.009103 -1.833351
 17
 29.711121
  H 1.639637 0.467590 0.318256
  C 2.233922 -0.422400 0.160492
  H 1.740492 -1.342355 0.445234
  C 3.414973 -0.382065 -0.321198
  C 4.655703 -0.296071 -0.786779
  C 5.024145 -0.495068 -2.197303
  C 4.298366 -1.627400 -2.993019
  C 2.930620 -1.254361 -3.542996
  H 2.560612 -2.084707 -4.139206
  O 6.342141 -0.450188 -2.536873
  H 4.486522 0.379956 -2.675668
  H 5.443153 -0.037568 -0.087302
  H 4.201660 -2.485069 -2.325378
  H 4.970484 -1.896949 -3.809134
  H 2.979205 -0.397255 -4.207722
  H 2.213005 -1.071379 -2.751106
  H 6.924977 -0.148550 -1.821891
 17
 29.141978
  H 1.780467 0.736044 0.338224
  C 2.200385 -0.224986 0.074589
  H 1.534444 -1.061594 0.231875
  C 3.381952 -0.349313 -0.393516
  C 4.644554 -0.425430 -0.797255
  C 5.067343 -0.474890 -2.203505
  C 4.407858 -1.556036 -3.134629
  C 2.920662 -1.415330 -3.372095
  H 2.601803 -2.220428 -4.030351
  O 6.402264 -0.429163 -2.474623
  H 4.542062 0.416592 -2.634155
  H 5.416062 -0.405234 -0.035574
  H 4.617427 -2.521103 -2.665531
  H 4.962121 -1.517924 -4.072401
  H 2.670116 -0.479169 -3.863027
  H 2.359866 -1.495299 -2.446754
  H 6.957302 -0.264580 -1.694477
