 19
 0.000000
  C 1.001325 0.127088 0.367656
  C 2.467905 0.139163 0.397355
  C 3.227298 0.610023 1.568653
  C 2.431678 1.092892 2.771160
  H 3.113249 1.408299 3.556112
  C 3.125429 -0.319409 -0.744003
  C 4.520211 -0.390193 -0.920951
  C 5.081055 -0.849109 -2.064788
  H 4.504706 -1.188664 -2.911034
  H 6.151093 -0.895389 -2.180242
  H 0.548382 0.493632 1.280436
  H 0.642362 -0.886873 0.175071
  H 0.641917 0.725389 -0.473116
  H 3.895620 1.416519 1.239779
  H 3.896025 -0.199440 1.889098
  H 1.799585 0.303780 3.171332
  H 1.799220 1.939361 2.514456
  H 2.503850 -0.649675 -1.565896
  H 5.156718 -0.065032 -0.111254
 19
 5.391129
  C 1.014368 0.129141 0.372799
  C 2.477458 0.137215 0.392402
  C 3.238074 0.606882 1.560483
  C 2.445503 1.090661 2.765925
  H 3.132085 1.404626 3.547298
  C 3.114596 -0.320450 -0.746563
  C 4.486863 -0.406975 -0.962723
  C 5.125851 -0.855443 -2.080444
  H 4.568865 -1.199580 -2.937935
  H 6.200518 -0.879431 -2.140346
  H 0.566992 0.496730 1.287271
  H 0.652384 -0.883071 0.172894
  H 0.652147 0.721181 -0.472080
  H 3.909276 1.413076 1.233893
  H 3.910069 -0.200563 1.882294
  H 1.817170 0.301746 3.172781
  H 1.816554 1.941502 2.514465
  H 2.462378 -0.644534 -1.552730
  H 4.903176 -0.044130 -0.059176
 19
 16.111414
  C 1.018411 0.134669 0.385671
  C 2.485253 0.136821 0.390427
  C 3.248690 0.606990 1.559530
  C 2.454470 1.089895 2.765353
  H 3.142218 1.403129 3.545556
  C 3.109968 -0.330984 -0.773047
  C 4.475484 -0.425984 -1.010307
  C 5.164591 -0.857310 -2.084190
  H 4.647978 -1.210605 -2.963950
  H 6.239266 -0.861110 -2.093240
  H 0.580082 0.503670 1.302359
  H 0.650376 -0.876631 0.187458
  H 0.649920 0.726330 -0.457931
  H 3.918158 1.418510 1.239893
  H 3.920132 -0.198791 1.889148
  H 1.828854 0.301549 3.173159
  H 1.827675 1.940889 2.516098
  H 2.415396 -0.647974 -1.560299
  H 4.696864 -0.043640 -0.058993
 19
 30.359291
  C 1.023869 0.133301 0.382133
  C 2.483183 0.134363 0.384362
  C 3.256178 0.609945 1.566929
  C 2.461907 1.095212 2.778605
  H 3.155761 1.409280 3.560874
  C 3.095426 -0.335088 -0.783109
  C 4.473519 -0.439187 -1.043118
  C 5.197111 -0.863069 -2.098648
  H 4.712306 -1.219521 -2.987215
  H 6.275303 -0.854707 -2.076697
  H 0.586214 0.503239 1.300601
  H 0.657382 -0.871181 0.185719
  H 0.656910 0.720828 -0.455643
  H 3.926517 1.424296 1.250983
  H 3.928888 -0.195259 1.901347
  H 1.831089 0.299954 3.191986
  H 1.829872 1.955045 2.528632
  H 2.366430 -0.644504 -1.551581
  H 4.525059 -0.048127 -0.069699
 19
 46.150730
  C 1.017658 0.138163 0.394989
  C 2.485606 0.133984 0.386400
  C 3.259420 0.605928 1.559753
  C 2.463210 1.094003 2.773270
  H 3.155987 1.407939 3.554919
  C 3.095512 -0.334131 -0.776144
  C 4.480903 -0.447530 -1.064197
  C 5.220178 -0.859934 -2.094379
  H 4.757732 -1.218601 -3.001954
  H 6.294587 -0.846041 -2.050035
  H 0.593143 0.508740 1.313041
  H 0.642197 -0.871261 0.203812
  H 0.642390 0.732359 -0.443401
  H 3.930476 1.421958 1.242629
  H 3.931195 -0.201064 1.896380
  H 1.836573 0.305885 3.184435
  H 1.836803 1.947699 2.524736
  H 2.357343 -0.637108 -1.525609
  H 4.402876 -0.057036 -0.089117
 19
 56.061321
  C 0.975519 0.138417 0.398473
  C 2.472934 0.117482 0.374252
  C 3.266940 0.594969 1.564989
  C 2.481304 1.099830 2.762077
  H 3.173462 1.414064 3.537368
  C 3.086461 -0.335829 -0.735118
  C 4.477617 -0.466816 -1.119833
  C 5.240640 -0.842863 -2.089531
  H 4.842400 -1.160378 -3.043878
  H 6.321037 -0.856390 -2.007720
  H 0.577033 0.519746 1.329634
  H 0.586918 -0.863023 0.238472
  H 0.591492 0.743622 -0.418258
  H 3.921215 1.411357 1.233452
  H 3.912561 -0.216177 1.918146
  H 1.853663 0.318576 3.181805
  H 1.864957 1.955928 2.503426
  H 2.375548 -0.662193 -1.506937
  H 4.333920 -0.075589 -0.105071
 19
 61.590543
  C 0.972776 0.140452 0.411469
  C 2.462248 0.121574 0.397020
  C 3.260335 0.601814 1.586795
  C 2.465045 1.115161 2.780018
  H 3.158499 1.431277 3.559981
  C 3.082789 -0.337962 -0.711239
  C 4.468738 -0.491071 -1.174499
  C 5.262025 -0.846487 -2.127809
  H 4.911439 -1.128074 -3.117494
  H 6.340459 -0.880770 -2.013834
  H 0.578435 0.525403 1.333459
  H 0.584300 -0.861951 0.262304
  H 0.596390 0.747563 -0.404692
  H 3.913552 1.417124 1.252225
  H 3.894964 -0.216710 1.942964
  H 1.832603 0.338285 3.201856
  H 1.854583 1.973132 2.515024
  H 2.387895 -0.680176 -1.495277
  H 4.281096 -0.116706 -0.148904
 19
 66.947417
  C 0.976133 0.140376 0.423935
  C 2.467656 0.121281 0.416055
  C 3.257396 0.605283 1.599753
  C 2.447453 1.131091 2.785514
  H 3.130055 1.450344 3.566646
  C 3.087586 -0.349214 -0.690752
  C 4.475405 -0.511936 -1.203834
  C 5.276485 -0.839348 -2.163326
  H 4.945119 -1.040066 -3.169006
  H 6.346092 -0.925423 -2.026676
  H 0.569100 0.544472 1.366169
  H 0.584280 -0.869350 0.284357
  H 0.600122 0.748308 -0.405366
  H 3.920804 1.411727 1.263672
  H 3.888845 -0.213488 1.962896
  H 1.806683 0.360243 3.206882
  H 1.839981 1.990125 2.507052
  H 2.403269 -0.699847 -1.472020
  H 4.240671 -0.183621 -0.167528
 19
 71.101147
  C 0.975774 0.135634 0.423355
  C 2.464013 0.117475 0.429259
  C 3.250177 0.610749 1.615669
  C 2.439982 1.151080 2.795353
  H 3.121295 1.474638 3.574449
  C 3.090641 -0.364777 -0.673654
  C 4.489123 -0.528282 -1.206562
  C 5.278207 -0.824677 -2.182907
  H 4.941039 -0.932944 -3.203761
  H 6.347955 -0.972592 -2.043434
  H 0.567901 0.538836 1.336157
  H 0.588665 -0.867023 0.291089
  H 0.608843 0.730610 -0.408935
  H 3.920212 1.409235 1.274963
  H 3.877113 -0.204725 1.987989
  H 1.799947 0.392895 3.218988
  H 1.842285 2.002331 2.509992
  H 2.409820 -0.720747 -1.460248
  H 4.196751 -0.254147 -0.156291
 19
 74.240033
  C 0.979783 0.136011 0.427209
  C 2.467203 0.110274 0.443885
  C 3.245335 0.611585 1.627086
  C 2.430944 1.167046 2.787070
  H 3.113468 1.499658 3.575065
  C 3.099617 -0.389276 -0.654498
  C 4.509680 -0.549690 -1.198578
  C 5.279030 -0.813448 -2.199804
  H 4.933421 -0.805579 -3.234763
  H 6.335800 -1.004724 -2.077544
  H 0.563652 0.556915 1.342677
  H 0.585420 -0.873154 0.302140
  H 0.621312 0.723253 -0.416130
  H 3.923453 1.401080 1.283480
  H 3.867656 -0.203756 2.015894
  H 1.775530 0.407151 3.217907
  H 1.833283 2.027236 2.481701
  H 2.423889 -0.753469 -1.438114
  H 4.161826 -0.328250 -0.132227
 19
 76.622067
  C 0.981397 0.132744 0.426616
  C 2.464184 0.099575 0.454146
  C 3.240612 0.612512 1.636748
  C 2.420459 1.189465 2.788084
  H 3.097595 1.528904 3.574668
  C 3.102530 -0.417747 -0.639589
  C 4.518122 -0.571626 -1.193870
  C 5.273054 -0.790376 -2.215722
  H 4.931581 -0.663555 -3.242398
  H 6.323778 -1.041267 -2.114062
  H 0.562137 0.564567 1.329362
  H 0.584884 -0.868787 0.310677
  H 0.633314 0.708203 -0.424278
  H 3.927773 1.394069 1.284847
  H 3.858033 -0.201417 2.040725
  H 1.764609 0.447654 3.220701
  H 1.835027 2.038603 2.471428
  H 2.432730 -0.792517 -1.422256
  H 4.122528 -0.412517 -0.109791
 19
 76.691337
  C 0.974197 0.126971 0.432224
  C 2.460100 0.093860 0.463889
  C 3.238261 0.620014 1.634468
  C 2.422489 1.209513 2.780041
  H 3.099459 1.559722 3.557061
  C 3.102437 -0.435846 -0.628180
  C 4.505139 -0.595012 -1.196458
  C 5.276337 -0.747472 -2.217356
  H 4.966591 -0.504385 -3.228183
  H 6.294291 -1.096234 -2.129462
  H 0.553152 0.568108 1.329470
  H 0.574638 -0.880520 0.325684
  H 0.627819 0.694482 -0.427776
  H 3.924170 1.395472 1.270607
  H 3.858749 -0.186238 2.047481
  H 1.767574 0.469173 3.225807
  H 1.830647 2.057391 2.452496
  H 2.443486 -0.804125 -1.417522
  H 4.071579 -0.536932 -0.081354
 19
 75.426228
  C 0.961670 0.127869 0.441593
  C 2.448202 0.081497 0.471835
  C 3.239496 0.620820 1.622636
  C 2.434131 1.222028 2.767412
  H 3.118352 1.582197 3.534746
  C 3.084578 -0.466434 -0.627591
  C 4.455485 -0.596504 -1.227353
  C 5.286009 -0.691256 -2.202948
  H 5.034902 -0.365877 -3.204032
  H 6.280196 -1.107631 -2.090674
  H 0.546847 0.591313 1.326995
  H 0.550088 -0.878671 0.360912
  H 0.621000 0.678883 -0.432080
  H 3.921354 1.390221 1.240229
  H 3.868248 -0.177463 2.041180
  H 1.782716 0.484433 3.228262
  H 1.836893 2.067973 2.434740
  H 2.428670 -0.853638 -1.409205
  H 4.004007 -0.649561 -0.070067
