16

C 0.981032 0.134942 0.388268
C 2.458709 0.139076 0.397619
H 3.0215189809830725 0.4785769835671614 1.2419435865558834
C 3.07285 -0.324759 -0.756985
C 4.450298 -0.413051 -0.977376
C 5.123279 -0.864414 -2.102741
C 4.62314 -1.3867 -3.405263
H 3.575577233460923 -1.4675522140101014 -3.607686243849762
H 6.193255689128199 -0.8617806036963327 -2.0961873791559866
H 0.536687 0.502943 1.30414
H 0.614694 -0.878814 0.219609
H 0.614144 0.749801 -0.434967
H 2.402903 -0.638834 -1.538514
H 5.070703 -0.081812 -0.152336
H 5.076607 -2.376425 -3.532835
H 5.077108 -0.759701 -4.181316
