 13
 0.000000
  H 3.589282 -0.601738 -0.993252
  C 4.663017 -0.608963 -1.007434
  C 5.374828 -1.120057 -2.010795
  C 6.817333 -1.130000 -2.030313
  C 7.534082 -1.640413 -3.032348
  C 9.023256 -1.661285 -3.073315
  H 5.163780 -0.174814 -0.155134
  H 4.870220 -1.554663 -2.863999
  H 7.325884 -0.695562 -1.177439
  H 7.034425 -2.076269 -3.887994
  H 9.456460 -1.208398 -2.184223
  H 9.381935 -1.116776 -3.947509
  H 9.381933 -2.688556 -3.146874
 13
 4.272359
  H 3.637003 -0.574920 -0.940613
  C 4.712805 -0.594187 -0.978429
  C 5.376155 -1.119879 -2.010444
  C 6.795614 -1.170165 -2.109161
  C 7.554012 -1.661737 -3.074199
  C 9.041039 -1.656374 -3.063677
  H 5.228808 -0.164690 -0.135254
  H 4.811386 -1.541945 -2.839034
  H 7.104947 -0.709846 -1.205474
  H 7.086505 -2.105030 -3.944456
  H 9.422729 -1.194051 -2.156068
  H 9.422373 -1.109112 -3.926314
  H 9.422379 -2.675921 -3.128217
 13
 16.210653
  H 3.691254 -0.535499 -0.890109
  C 4.761285 -0.579603 -0.961716
  C 5.371547 -1.119471 -2.013223
  C 6.779338 -1.209543 -2.172758
  C 7.573030 -1.689810 -3.116715
  C 9.056153 -1.659601 -3.066894
  H 5.304386 -0.161052 -0.127046
  H 4.743335 -1.519345 -2.809423
  H 6.909722 -0.735889 -1.240033
  H 7.135452 -2.136468 -4.003199
  H 9.375485 -1.211245 -2.129945
  H 9.449889 -1.036142 -3.867669
  H 9.454142 -2.678304 -3.101060
 13
 29.391134
  H 3.705804 -0.521340 -0.858965
  C 4.778041 -0.571377 -0.943568
  C 5.362919 -1.117233 -2.008033
  C 6.775278 -1.223571 -2.203081
  C 7.583930 -1.696821 -3.131423
  C 9.075619 -1.652821 -3.047407
  H 5.334138 -0.153786 -0.115140
  H 4.681882 -1.504806 -2.778335
  H 6.753443 -0.747347 -1.267324
  H 7.165296 -2.148720 -4.026240
  H 9.394088 -1.205343 -2.105900
  H 9.487347 -1.060444 -3.873970
  H 9.485857 -2.653116 -3.112722
 13
 44.433852
  H 3.708795 -0.520221 -0.849966
  C 4.778024 -0.565345 -0.929655
  C 5.365041 -1.110274 -1.995435
  C 6.790455 -1.225351 -2.211977
  C 7.599814 -1.697144 -3.137374
  C 9.089432 -1.652666 -3.048705
  H 5.323819 -0.143355 -0.095791
  H 4.666342 -1.490222 -2.747961
  H 6.633066 -0.749477 -1.277790
  H 7.189224 -2.151866 -4.035092
  H 9.409360 -1.204262 -2.112232
  H 9.499477 -1.071550 -3.879909
  H 9.501951 -2.658055 -3.120294
 13
 58.626403
  H 3.692374 -0.522691 -0.850985
  C 4.767218 -0.559212 -0.916463
  C 5.370048 -1.100850 -1.976597
  C 6.814639 -1.217638 -2.199530
  C 7.610119 -1.693572 -3.133011
  C 9.106873 -1.657699 -3.059974
  H 5.295568 -0.131235 -0.072965
  H 4.662099 -1.486229 -2.737398
  H 6.542250 -0.750618 -1.283513
  H 7.195148 -2.146843 -4.026422
  H 9.440413 -1.209003 -2.128083
  H 9.508882 -1.084134 -3.893123
  H 9.509245 -2.663993 -3.133968
 13
 71.002610
  H 3.672219 -0.534623 -0.872489
  C 4.747908 -0.556462 -0.910491
  C 5.384658 -1.090799 -1.956235
  C 6.853339 -1.199722 -2.165803
  C 7.622788 -1.684744 -3.116983
  C 9.106458 -1.664755 -3.072730
  H 5.249223 -0.120796 -0.053577
  H 4.695295 -1.483725 -2.730082
  H 6.477681 -0.747489 -1.279217
  H 7.190229 -2.137047 -4.008180
  H 9.462718 -1.217483 -2.147091
  H 9.499629 -1.093605 -3.920692
  H 9.499894 -2.679676 -3.153769
 13
 78.879097
  H 3.638171 -0.558666 -0.920646
  C 4.715468 -0.556942 -0.914287
  C 5.405402 -1.077021 -1.935835
  C 6.898095 -1.172741 -2.105872
  C 7.622081 -1.673759 -3.084962
  C 9.115050 -1.676782 -3.098243
  H 5.174905 -0.112237 -0.029606
  H 4.756106 -1.482865 -2.741935
  H 6.436786 -0.732073 -1.247428
  H 7.147901 -2.119918 -3.967341
  H 9.517121 -1.228252 -2.180712
  H 9.480505 -1.117193 -3.957707
  H 9.486077 -2.696118 -3.190634
 13
 87.405630
  H 3.623182 -0.562183 -0.928119
  C 4.696234 -0.564235 -0.906253
  C 5.404702 -1.063633 -1.923658
  C 6.915285 -1.159570 -2.097774
  C 7.622809 -1.658215 -3.086540
  C 9.115673 -1.676716 -3.113036
  H 5.141083 -0.129986 -0.012185
  H 4.766384 -1.459695 -2.743605
  H 6.394087 -0.740954 -1.255053
  H 7.141352 -2.126515 -3.949071
  H 9.522892 -1.217700 -2.213933
  H 9.487022 -1.142097 -3.983998
  H 9.476940 -2.706368 -3.170422
 13
 93.728188
  H 3.607211 -0.576871 -0.929040
  C 4.679018 -0.559082 -0.902595
  C 5.400523 -1.064544 -1.908534
  C 6.926643 -1.155346 -2.095988
  C 7.617593 -1.669041 -3.082419
  C 9.116991 -1.685814 -3.111888
  H 5.112196 -0.111055 -0.016229
  H 4.777966 -1.478740 -2.728285
  H 6.359732 -0.725086 -1.266475
  H 7.135337 -2.104259 -3.958088
  H 9.531597 -1.238417 -2.220542
  H 9.476099 -1.140993 -3.981733
  H 9.471213 -2.712760 -3.194827
 13
 99.077952
  H 3.572480 -0.661085 -1.060113
  C 4.636918 -0.574342 -0.944414
  C 5.472607 -1.057838 -1.873462
  C 7.029597 -1.087083 -1.949569
  C 7.610507 -1.623689 -3.000693
  C 9.090250 -1.712294 -3.155921
  H 4.963311 -0.083787 -0.034436
  H 4.951619 -1.526574 -2.727968
  H 6.347365 -0.677097 -1.205000
  H 7.042173 -2.007687 -3.844847
  H 9.592841 -1.301227 -2.290239
  H 9.409775 -1.164971 -4.053946
  H 9.389170 -2.756369 -3.279822
 13
 103.110907
  H 3.534208 -0.678558 -1.128767
  C 4.590511 -0.589183 -0.960186
  C 5.480100 -1.048605 -1.852863
  C 7.089432 -1.064131 -1.896957
  C 7.607915 -1.599772 -2.980188
  C 9.080311 -1.723582 -3.193725
  H 4.868171 -0.093828 -0.035187
  H 5.008410 -1.515852 -2.731200
  H 6.333138 -0.676284 -1.182760
  H 6.998961 -2.000710 -3.797479
  H 9.621265 -1.316445 -2.346363
  H 9.380917 -1.199254 -4.100699
  H 9.353422 -2.774819 -3.316172
 13
 106.320877
  H 3.495438 -0.716953 -1.181590
  C 4.545431 -0.595815 -0.979657
  C 5.472236 -1.040959 -1.832442
  C 7.149623 -1.048007 -1.855946
  C 7.597422 -1.590753 -2.967584
  C 9.061678 -1.740594 -3.222982
  H 4.776808 -0.083541 -0.052277
  H 5.070302 -1.533086 -2.722967
  H 6.326490 -0.671197 -1.188320
  H 6.961981 -1.968711 -3.775272
  H 9.635691 -1.351974 -2.389124
  H 9.345449 -1.214829 -4.136454
  H 9.309278 -2.796808 -3.361741
 13
 107.953268
  H 3.438922 -0.734232 -1.201478
  C 4.489731 -0.605530 -0.980301
  C 5.430933 -1.033424 -1.824294
  C 7.200599 -1.035985 -1.857543
  C 7.596299 -1.584514 -2.984312
  C 9.055712 -1.758475 -3.253656
  H 4.702641 -0.092142 -0.055873
  H 5.071080 -1.524864 -2.722914
  H 6.313618 -0.685605 -1.222110
  H 6.941967 -1.962616 -3.780118
  H 9.644806 -1.369855 -2.426923
  H 9.335806 -1.247226 -4.174336
  H 9.288534 -2.816800 -3.382733
