19
 0
 C -1.26002266 1.69413636 -0.22800681
 C -1.07964398 0.19037020 -0.06004117
 C -1.72865267 -0.27421466 1.24268527
 C -1.58575854 -0.67880209 -1.21251777
 C -2.35040068 -0.08083196 -2.36566473
 O -1.38734345 -1.89908556 -1.19530780
 H -0.80661497 2.23361623 0.61078666
 H -2.31906880 1.97146328 -0.26618276
 H -0.77803856 2.04923283 -1.14488617
 H 0.00000000 0.00000000 0.00000000
 H -2.81510585 -0.13653921 1.21429577
 H -1.33382298 0.28458247 2.09787878
 H -1.53583642 -1.33737484 1.42314448
 H -2.41777559 1.00476072 -2.32557304
 H -3.36547842 -0.48688118 -2.36647074
 H -1.84421432 -0.34981698 -3.29736352
 O 2.30000000 0.00000000 0.00000000
 H 2.98474093 0.23913281 0.64258244
 H 2.78881206 -0.44606170 -0.70784698
