 22
 0.000000
  H 1.572634 0.108570 0.217689
  C 2.648984 0.112409 0.108608
  C 3.426515 0.026862 1.389706
  C 2.517471 -0.085811 2.612109
  C 3.319754 -0.179711 3.904301
  C 3.172823 0.165243 -1.119724
  C 2.294686 0.180692 -2.338171
  H 1.246274 0.240133 -2.058309
  C 4.610991 0.166190 -1.337260
  C 5.218360 0.189390 -2.518294
  H 6.292179 0.187677 -2.593009
  H 4.063250 0.910551 1.500423
  H 4.085930 -0.846590 1.347809
  H 1.886645 -0.972424 2.512418
  H 1.862070 0.787399 2.655217
  H 3.967054 -1.054360 3.889185
  H 2.656728 -0.259165 4.762764
  H 3.942155 0.703715 4.032732
  H 2.447627 -0.727782 -2.919567
  H 2.533309 1.033562 -2.971521
  H 5.222536 0.147348 -0.446433
  H 4.686373 0.208184 -3.453353
 22
 0.378671
  H 1.579266 0.434067 0.235588
  C 2.652289 0.344284 0.127444
  C 3.424370 0.251544 1.410268
  C 2.530546 -0.151589 2.582212
  C 3.322285 -0.271480 3.878357
  C 3.171460 0.239099 -1.099813
  C 2.294716 0.196413 -2.319230
  H 1.247259 0.300915 -2.047379
  C 4.609082 0.175168 -1.327666
  C 5.203524 -0.001071 -2.502511
  H 6.277138 -0.019549 -2.586683
  H 3.900542 1.210805 1.638638
  H 4.210918 -0.497244 1.283042
  H 2.054469 -1.108796 2.357469
  H 1.740590 0.592773 2.707860
  H 4.103404 -1.022540 3.780440
  H 2.671055 -0.559711 4.700333
  H 3.790803 0.678127 4.128947
  H 2.423055 -0.754132 -2.834860
  H 2.556124 0.996743 -3.009758
  H 5.232080 0.306558 -0.453908
  H 4.660941 -0.135153 -3.422120
 22
 1.707534
  H 1.584009 0.770782 0.233117
  C 2.643589 0.570613 0.141105
  C 3.408039 0.467877 1.426621
  C 2.559625 -0.199458 2.511723
  C 3.346941 -0.387348 3.802414
  C 3.158153 0.303596 -1.062654
  C 2.292456 0.173687 -2.284508
  H 1.245307 0.325364 -2.032450
  C 4.595753 0.200646 -1.292454
  C 5.178054 -0.184028 -2.423483
  H 6.250641 -0.189393 -2.522470
  H 3.730707 1.451338 1.779057
  H 4.277716 -0.160374 1.224137
  H 2.215968 -1.170654 2.148771
  H 1.676852 0.412900 2.711275
  H 4.218085 -1.015918 3.630010
  H 2.728854 -0.858967 4.563029
  H 3.688400 0.572590 4.184511
  H 2.401493 -0.823591 -2.706898
  H 2.578049 0.899533 -3.044249
  H 5.230689 0.510439 -0.473835
  H 4.626593 -0.506735 -3.289269
 22
 5.231775
  H 1.620421 1.162174 0.201530
  C 2.638500 0.799364 0.150653
  C 3.388032 0.674055 1.441917
  C 2.586734 -0.210540 2.407883
  C 3.379572 -0.512637 3.673173
  C 3.134674 0.331233 -1.000637
  C 2.278885 0.079104 -2.211278
  H 1.227487 0.234698 -1.978424
  C 4.573272 0.230736 -1.238872
  C 5.153957 -0.313438 -2.303891
  H 6.222343 -0.272837 -2.435090
  H 3.587645 1.634635 1.917107
  H 4.297817 0.126118 1.186523
  H 2.327680 -1.144126 1.904199
  H 1.654036 0.291808 2.676418
  H 4.302473 -1.034901 3.430094
  H 2.798894 -1.137525 4.348061
  H 3.634963 0.408629 4.192728
  H 2.407528 -0.951908 -2.534313
  H 2.556149 0.732694 -3.037023
  H 5.208830 0.701983 -0.501239
  H 4.604863 -0.807725 -3.086153
 22
 15.745613
  H 1.681149 1.497378 0.100906
  C 2.609548 0.945643 0.144098
  C 3.344859 0.803927 1.442090
  C 2.569511 -0.173612 2.347851
  C 3.412882 -0.597938 3.542928
  C 3.123245 0.307737 -0.929221
  C 2.274594 -0.107320 -2.103356
  H 1.217843 0.002744 -1.868882
  C 4.558382 0.317812 -1.196515
  C 5.171110 -0.280078 -2.215743
  H 6.226365 -0.144394 -2.382873
  H 3.533080 1.727677 1.979266
  H 4.208180 0.211636 1.116665
  H 2.277681 -1.049866 1.766305
  H 1.653020 0.302533 2.707948
  H 4.311814 -1.114079 3.213921
  H 2.848665 -1.267110 4.188754
  H 3.711807 0.270470 4.126542
  H 2.469651 -1.154443 -2.324534
  H 2.497486 0.475892 -2.996405
  H 5.156503 0.919258 -0.524705
  H 4.659176 -0.902557 -2.928369
 22
 35.846879
  H 1.743934 1.744448 -0.025233
  C 2.585796 1.089684 0.108686
  C 3.277607 0.867181 1.423432
  C 2.537392 -0.150840 2.321510
  C 3.453103 -0.651352 3.428645
  C 3.114757 0.311818 -0.867125
  C 2.301053 -0.272808 -1.991655
  H 1.240919 -0.224146 -1.757361
  C 4.540340 0.412812 -1.155388
  C 5.187466 -0.196401 -2.146408
  H 6.226774 0.012323 -2.334532
  H 3.536295 1.750002 1.986069
  H 3.977529 0.120059 0.972725
  H 2.176181 -0.985580 1.719956
  H 1.659958 0.324312 2.777147
  H 4.323371 -1.154963 3.011509
  H 2.923641 -1.352370 4.069505
  H 3.800458 0.177850 4.040448
  H 2.580437 -1.314125 -2.121710
  H 2.470097 0.242806 -2.933688
  H 5.095310 1.086627 -0.517287
  H 4.715138 -0.888380 -2.823360
 22
 65.416436
  H 1.814467 1.985236 -0.184001
  C 2.535801 1.226884 0.080591
  C 3.111705 0.965240 1.410553
  C 2.512688 -0.167313 2.273121
  C 3.536590 -0.708993 3.255518
  C 3.119543 0.312173 -0.774605
  C 2.326181 -0.374450 -1.864715
  H 1.261519 -0.299283 -1.658018
  C 4.531119 0.479444 -1.087009
  C 5.211873 -0.181460 -2.029894
  H 6.240813 0.057439 -2.234941
  H 3.351431 1.820727 2.037151
  H 3.767469 0.119015 0.823056
  H 2.129868 -0.971618 1.643058
  H 1.663239 0.236140 2.837992
  H 4.372594 -1.165567 2.729273
  H 3.083330 -1.459310 3.899035
  H 3.925113 0.091356 3.881495
  H 2.595198 -1.426440 -1.901283
  H 2.524296 0.059874 -2.846622
  H 5.043801 1.234089 -0.503840
  H 4.773305 -0.948234 -2.643707
 22
 82.250454
  H 1.845948 2.041617 -0.195878
  C 2.551441 1.283022 0.108899
  C 3.012080 1.008692 1.409916
  C 2.496933 -0.166987 2.239867
  C 3.544845 -0.700919 3.210714
  C 3.156143 0.293686 -0.726637
  C 2.330926 -0.414333 -1.781798
  H 1.272337 -0.342900 -1.540290
  C 4.581762 0.479897 -1.074500
  C 5.237783 -0.158203 -2.036078
  H 6.268185 0.070767 -2.247035
  H 3.218713 1.855575 2.077081
  H 3.698223 -0.025735 0.582399
  H 2.142980 -0.977058 1.597473
  H 1.637214 0.196040 2.815950
  H 4.401050 -1.103698 2.670729
  H 3.124549 -1.491703 3.828175
  H 3.897552 0.094177 3.864542
  H 2.599331 -1.467822 -1.832432
  H 2.499746 0.025436 -2.763927
  H 5.102389 1.224912 -0.483804
  H 4.787239 -0.918467 -2.649221
 22
 65.494421
  H 1.992977 2.101376 -0.179193
  C 2.659909 1.330711 0.166709
  C 2.987321 1.046698 1.453233
  C 2.477294 -0.154645 2.209025
  C 3.467278 -0.711250 3.228892
  C 3.250445 0.249536 -0.679441
  C 2.355391 -0.485190 -1.645550
  H 1.323210 -0.440337 -1.307893
  C 4.652230 0.498652 -1.150317
  C 5.234249 -0.082534 -2.180867
  H 6.259557 0.131538 -2.431605
  H 3.090789 1.879461 2.166492
  H 3.716283 -0.176308 0.329966
  H 2.180748 -0.950633 1.524273
  H 1.582706 0.185940 2.734009
  H 4.369786 -1.065127 2.733220
  H 3.027870 -1.542685 3.775674
  H 3.749629 0.058745 3.943067
  H 2.640854 -1.530490 -1.725758
  H 2.423385 -0.035871 -2.630758
  H 5.201583 1.220749 -0.561367
  H 4.745594 -0.828874 -2.784808
 22
 43.873852
  H 2.096378 2.088245 -0.247127
  C 2.653872 1.265726 0.173363
  C 2.863643 1.061357 1.482630
  C 2.476384 -0.165449 2.271032
  C 3.546629 -0.644880 3.254285
  C 3.210731 0.143327 -0.664941
  C 2.328452 -0.448908 -1.746227
  H 1.278834 -0.341575 -1.476698
  C 4.639241 0.420163 -1.081023
  C 5.250478 -0.083776 -2.142271
  H 6.278431 0.158822 -2.362468
  H 3.018418 1.890721 2.178338
  H 3.532223 -0.441643 0.243479
  H 2.193604 -0.991768 1.613158
  H 1.586764 0.131989 2.834386
  H 4.434122 -0.981510 2.720660
  H 3.173224 -1.471668 3.855562
  H 3.836392 0.162988 3.923980
  H 2.536128 -1.507434 -1.890270
  H 2.503067 0.066160 -2.688280
  H 5.175825 1.083257 -0.413695
  H 4.772297 -0.771671 -2.818836
 22
 26.850204
  H 2.368452 2.102073 -0.259291
  C 2.813774 1.235086 0.201123
  C 2.851647 1.042138 1.522013
  C 2.474575 -0.207259 2.268308
  C 3.469197 -0.600047 3.360804
  C 3.301779 0.093957 -0.660520
  C 2.331166 -0.441718 -1.700320
  H 1.306595 -0.329148 -1.349701
  C 4.692788 0.392033 -1.172450
  C 5.216041 -0.045139 -2.303975
  H 6.231092 0.188916 -2.578985
  H 2.830270 1.890149 2.208228
  H 3.583312 -0.609802 0.153045
  H 2.326715 -1.052783 1.593839
  H 1.512115 0.021117 2.729567
  H 4.433099 -0.850813 2.925252
  H 3.108294 -1.462609 3.917229
  H 3.613346 0.223731 4.058267
  H 2.510145 -1.496105 -1.897556
  H 2.440498 0.107841 -2.631711
  H 5.281337 1.015610 -0.510361
  H 4.672919 -0.668240 -2.993510
 22
 14.854638
  H 2.536351 2.048522 -0.289819
  C 2.804233 1.124659 0.202410
  C 2.728925 0.991737 1.518307
  C 2.493897 -0.265862 2.307353
  C 3.542782 -0.492221 3.396065
  C 3.257981 -0.017036 -0.671298
  C 2.301762 -0.361082 -1.805864
  H 1.272725 -0.224472 -1.479526
  C 4.671810 0.272009 -1.116291
  C 5.209801 -0.061384 -2.274559
  H 6.240614 0.157725 -2.497935
  H 2.668929 1.852412 2.178753
  H 3.403441 -0.847739 0.038871
  H 2.438434 -1.147843 1.668737
  H 1.514408 -0.139759 2.778796
  H 4.523509 -0.646335 2.950803
  H 3.293816 -1.366651 3.993253
  H 3.598869 0.370839 4.056279
  H 2.425663 -1.394123 -2.121381
  H 2.480597 0.288310 -2.659673
  H 5.270418 0.780400 -0.370430
  H 4.661169 -0.576570 -3.044160
 22
 8.690687
  H 2.706247 1.978066 -0.283870
  C 2.833164 1.024034 0.210615
  C 2.636172 0.923177 1.514938
  C 2.503115 -0.325540 2.336358
  C 3.566114 -0.402287 3.432225
  C 3.248634 -0.113736 -0.684061
  C 2.286577 -0.310148 -1.851725
  H 1.259514 -0.225349 -1.502228
  C 4.676039 0.138119 -1.100134
  C 5.189060 -0.035090 -2.303432
  H 6.230330 0.157415 -2.501683
  H 2.521201 1.809871 2.128895
  H 3.291334 -1.013664 -0.056023
  H 2.549865 -1.224667 1.722366
  H 1.513604 -0.297209 2.803346
  H 4.560076 -0.443563 2.991713
  H 3.422308 -1.290133 4.043936
  H 3.513633 0.472684 4.076763
  H 2.416605 -1.291789 -2.300773
  H 2.453146 0.449071 -2.612287
  H 5.308711 0.483879 -0.291507
  H 4.608075 -0.380396 -3.141100
 22
 6.472556
  H 2.834128 1.917963 -0.280603
  C 2.848589 0.954547 0.213750
  C 2.570179 0.888797 1.505757
  C 2.496416 -0.333028 2.370104
  C 3.593794 -0.317165 3.434748
  C 3.237257 -0.187201 -0.687471
  C 2.281596 -0.282335 -1.874698
  H 1.252997 -0.270246 -1.519802
  C 4.678464 0.016381 -1.075971
  C 5.180526 0.002729 -2.296078
  H 6.232907 0.153549 -2.470459
  H 2.404494 1.805365 2.060097
  H 3.201781 -1.119997 -0.113170
  H 2.577617 -1.246089 1.780591
  H 1.521120 -0.343188 2.866069
  H 4.574983 -0.313994 2.964876
  H 3.518861 -1.194258 4.073624
  H 3.509559 0.571402 4.056835
  H 2.444664 -1.203728 -2.428767
  H 2.421753 0.562138 -2.545394
  H 5.333075 0.182937 -0.228699
  H 4.578763 -0.161836 -3.173006
 22
 6.082213
  H 2.786079 1.878188 -0.286231
  C 2.808464 0.915558 0.209415
  C 2.529295 0.856368 1.501594
  C 2.530434 -0.349832 2.390578
  C 3.655130 -0.257674 3.423315
  C 3.189809 -0.219291 -0.702987
  C 2.275816 -0.226940 -1.926325
  H 1.236102 -0.213494 -1.606719
  C 4.652028 -0.074946 -1.031065
  C 5.194065 -0.008786 -2.231915
  H 6.258952 0.096061 -2.360817
  H 2.283237 1.776945 2.017672
  H 3.073446 -1.170254 -0.168685
  H 2.645909 -1.267369 1.814047
  H 1.571433 -0.400870 2.914079
  H 4.620876 -0.206255 2.925314
  H 3.647310 -1.129039 4.075037
  H 3.538502 0.633772 4.036403
  H 2.441533 -1.119064 -2.524960
  H 2.454896 0.650646 -2.543823
  H 5.285461 -0.020467 -0.153375
  H 4.614749 -0.060513 -3.138219
