17

C      1.436681   -0.516100    0.926842
C      4.017493    0.945168    0.966117
H      4.442387    1.024225   -0.452905
C      0.520277    0.385936    0.197237
C     -0.963879   -0.082247    0.225531
H     -1.800803    0.987014   -0.487055
C     -1.039325   -1.490594   -0.374922
H     -2.427704   -2.109755   -0.503546
H      1.247110   -0.640142    1.981909
H      1.733787   -1.425303    0.431230
H      3.761494    1.888598    1.420338
H      4.623676    0.318786    1.605101
H      0.838578    0.481578   -0.842923
H      0.562406    1.377433    0.656416
H     -1.285749   -0.129405    1.270156
H     -0.457774   -2.147940    0.274061
H     -0.576166   -1.491081   -1.364117
