 16
 0.000000
  H 1.422411 0.148615 0.477896
  C 2.494057 0.128225 0.383756
  H 3.102549 0.473723 1.202406
  C 3.032520 -0.337740 -0.776752
  C 4.428041 -0.408540 -0.983642
  C 5.091672 -0.862769 -2.106652
  C 4.610025 -1.377039 -3.379249
  C 3.135888 -1.495999 -3.699436
  H 3.018595 -1.904798 -4.699802
  H 6.174293 -0.842028 -2.047012
  H 2.361803 -0.661546 -1.553953
  H 5.044809 -0.071418 -0.158999
  H 5.079477 -2.364859 -3.509223
  H 5.102590 -0.777218 -4.161671
  H 2.643396 -0.525821 -3.676693
  H 2.630233 -2.164823 -3.005998
 16
 1.989219
  H 1.398669 0.093585 0.454018
  C 2.476248 0.092091 0.336860
  H 3.054801 0.510781 1.144426
  C 3.088821 -0.395977 -0.780926
  C 4.493884 -0.382886 -0.953700
  C 5.111533 -0.845930 -2.084256
  C 4.563657 -1.358973 -3.331737
  C 3.094958 -1.449920 -3.689724
  H 3.011434 -1.876377 -4.686383
  H 6.193467 -0.843650 -2.068379
  H 2.539155 -0.827676 -1.605480
  H 5.107803 -0.003030 -0.149083
  H 4.997297 -2.368836 -3.415669
  H 5.087388 -0.814018 -4.134366
  H 2.619535 -0.471073 -3.711237
  H 2.543937 -2.101820 -3.015777
 16
 4.761401
  H 1.407566 -0.083253 0.449087
  C 2.472315 0.026853 0.324854
  H 2.989543 0.606901 1.072953
  C 3.145293 -0.487989 -0.735200
  C 4.529420 -0.316860 -0.946623
  C 5.123969 -0.819347 -2.082014
  C 4.529064 -1.374108 -3.292511
  C 3.070673 -1.360768 -3.714642
  H 3.010268 -1.815040 -4.702272
  H 6.208282 -0.824263 -2.105485
  H 2.702968 -1.088487 -1.520029
  H 5.136343 0.171011 -0.193586
  H 4.851535 -2.423410 -3.250351
  H 5.118103 -0.973267 -4.135484
  H 2.682909 -0.344031 -3.791156
  H 2.408774 -1.939207 -3.074349
 16
 6.848962
  H 1.425790 -0.286884 0.470152
  C 2.469376 -0.067038 0.300361
  H 2.908407 0.661856 0.955122
  C 3.201766 -0.603417 -0.708927
  C 4.546324 -0.245333 -0.983162
  C 5.145835 -0.783929 -2.096015
  C 4.500779 -1.412118 -3.241197
  C 3.061017 -1.240172 -3.723565
  H 2.976353 -1.739003 -4.696211
  H 6.231747 -0.773338 -2.149166
  H 2.867414 -1.358499 -1.415043
  H 5.106264 0.376502 -0.297538
  H 4.692168 -2.483933 -3.062256
  H 5.139637 -1.213795 -4.112708
  H 2.818807 -0.194594 -3.857865
  H 2.293194 -1.684769 -3.093970
 16
 8.899989
  H 1.462371 -0.463569 0.481142
  C 2.473682 -0.166555 0.275889
  H 2.843210 0.654908 0.875137
  C 3.257662 -0.696092 -0.695631
  C 4.543794 -0.191871 -1.019840
  C 5.156217 -0.741791 -2.117436
  C 4.459996 -1.440205 -3.202120
  C 3.069556 -1.136845 -3.743628
  H 2.923879 -1.734479 -4.628672
  H 6.235033 -0.712802 -2.193484
  H 3.032224 -1.544523 -1.346232
  H 5.038509 0.522484 -0.382440
  H 4.537647 -2.486795 -2.870571
  H 5.121460 -1.439727 -4.078326
  H 2.980001 -0.084458 -3.993477
  H 2.237631 -1.386023 -3.087361
 16
 8.000895
  H 1.502919 -0.632259 0.528652
  C 2.484902 -0.266726 0.283558
  H 2.804006 0.594896 0.844504
  C 3.286371 -0.778359 -0.682846
  C 4.513982 -0.170940 -1.074007
  C 5.151594 -0.687673 -2.166653
  C 4.445284 -1.478661 -3.187187
  C 3.096608 -1.046487 -3.760373
  H 2.830327 -1.728688 -4.565732
  H 6.220017 -0.583430 -2.268887
  H 3.128006 -1.682546 -1.278964
  H 4.940717 0.625370 -0.485347
  H 4.341124 -2.438464 -2.640278
  H 5.132121 -1.682585 -4.012437
  H 3.199564 -0.061927 -4.212750
  H 2.275473 -1.025573 -3.054667
 16
 7.935760
  H 1.524936 -0.744263 0.542962
  C 2.495209 -0.348021 0.294498
  H 2.793193 0.510214 0.875400
  C 3.305127 -0.823216 -0.677773
  C 4.494991 -0.163295 -1.105383
  C 5.142113 -0.640428 -2.205174
  C 4.432202 -1.508583 -3.149906
  C 3.144499 -0.988762 -3.794972
  H 2.743163 -1.743820 -4.459168
  H 6.194109 -0.437391 -2.362937
  H 3.171752 -1.749539 -1.265664
  H 4.872094 0.674982 -0.540913
  H 4.160044 -2.355833 -2.475881
  H 5.105429 -1.871837 -3.928073
  H 3.376421 -0.116941 -4.395401
  H 2.372459 -0.720792 -3.073748
 16
 10.792266
  H 1.538261 -0.810424 0.545866
  C 2.504625 -0.395867 0.304052
  H 2.802421 0.427249 0.930201
  C 3.317927 -0.826150 -0.682057
  C 4.488745 -0.145370 -1.113279
  C 5.129247 -0.605474 -2.215665
  C 4.412020 -1.516238 -3.113123
  C 3.170395 -0.967119 -3.824501
  H 2.679093 -1.760869 -4.378544
  H 6.164513 -0.360141 -2.409535
  H 3.209110 -1.753408 -1.302161
  H 4.846683 0.701031 -0.550701
  H 4.027590 -2.269125 -2.372689
  H 5.071171 -1.981735 -3.845429
  H 3.474952 -0.206880 -4.538528
  H 2.455025 -0.528652 -3.131560
 16
 14.682923
  H 1.548119 -0.857805 0.567936
  C 2.511633 -0.431278 0.333260
  H 2.809551 0.370313 0.988509
  C 3.320463 -0.819239 -0.665652
  C 4.483273 -0.128145 -1.115543
  C 5.109838 -0.585669 -2.223892
  C 4.390405 -1.518433 -3.092055
  C 3.193405 -0.957238 -3.862973
  H 2.640759 -1.762028 -4.338284
  H 6.133413 -0.316469 -2.448158
  H 3.229724 -1.746781 -1.330361
  H 4.841825 0.722110 -0.559126
  H 3.922131 -2.183784 -2.291960
  H 5.044838 -2.065462 -3.767883
  H 3.550341 -0.294987 -4.646993
  H 2.520125 -0.397388 -3.215968
 16
 19.828642
  H 1.551707 -0.870380 0.600618
  C 2.512459 -0.443530 0.351747
  H 2.821744 0.342597 1.023207
  C 3.314176 -0.806128 -0.656034
  C 4.480042 -0.118293 -1.114633
  C 5.095740 -0.574859 -2.226098
  C 4.372702 -1.519406 -3.078335
  C 3.208443 -0.956481 -3.890357
  H 2.623042 -1.761443 -4.324423
  H 6.111004 -0.295727 -2.469710
  H 3.242410 -1.742941 -1.363026
  H 4.843730 0.729268 -0.558110
  H 3.850821 -2.123529 -2.236127
  H 5.022461 -2.121287 -3.710159
  H 3.598185 -0.356058 -4.708659
  H 2.558695 -0.329074 -3.282684
 16
 25.767346
  H 1.551186 -0.845135 0.621824
  C 2.519074 -0.449587 0.364571
  H 2.828082 0.352198 1.017260
  C 3.312759 -0.804697 -0.643007
  C 4.473350 -0.115884 -1.118630
  C 5.085902 -0.576615 -2.219888
  C 4.360635 -1.520068 -3.065365
  C 3.216147 -0.956307 -3.900719
  H 2.615118 -1.759141 -4.317736
  H 6.099650 -0.296899 -2.471220
  H 3.254576 -1.756843 -1.396145
  H 4.838376 0.730828 -0.564350
  H 3.807535 -2.097979 -2.204439
  H 5.007081 -2.147907 -3.673690
  H 3.622991 -0.386018 -4.730664
  H 2.575816 -0.296466 -3.315390
 16
 30.501219
  H 1.541536 -0.822151 0.656830
  C 2.507969 -0.431080 0.373375
  H 2.841624 0.351720 1.040083
  C 3.297744 -0.784388 -0.637154
  C 4.473353 -0.115565 -1.111780
  C 5.076853 -0.573212 -2.220224
  C 4.351604 -1.524193 -3.061511
  C 3.225327 -0.962184 -3.917950
  H 2.605795 -1.762465 -4.312526
  H 6.085163 -0.285423 -2.483914
  H 3.256184 -1.762171 -1.422412
  H 4.847770 0.725776 -0.555292
  H 3.773016 -2.081016 -2.183184
  H 4.996680 -2.177552 -3.644177
  H 3.648358 -0.428678 -4.765123
  H 2.600667 -0.267935 -3.356532
 16
 34.599886
  H 1.536730 -0.788679 0.681555
  C 2.512330 -0.425932 0.393426
  H 2.857917 0.358295 1.053932
  C 3.293244 -0.777545 -0.618783
  C 4.462678 -0.110283 -1.113858
  C 5.064559 -0.576258 -2.216934
  C 4.340501 -1.530919 -3.056617
  C 3.237162 -0.967375 -3.935835
  H 2.598623 -1.761717 -4.313174
  H 6.071925 -0.287502 -2.484850
  H 3.253556 -1.765657 -1.436465
  H 4.842804 0.733493 -0.563282
  H 3.737625 -2.069106 -2.167486
  H 4.983557 -2.207470 -3.614941
  H 3.680153 -0.468899 -4.794443
  H 2.628642 -0.241173 -3.398579
 16
 37.915891
  H 1.530154 -0.753264 0.708248
  C 2.504410 -0.398138 0.399500
  H 2.869916 0.375489 1.062979
  C 3.279776 -0.757795 -0.613651
  C 4.463008 -0.113088 -1.108865
  C 5.057774 -0.580103 -2.216662
  C 4.334427 -1.539834 -3.054119
  C 3.246340 -0.976662 -3.949941
  H 2.595498 -1.766922 -4.314352
  H 6.061854 -0.287086 -2.491768
  H 3.246726 -1.768822 -1.449853
  H 4.853411 0.726335 -0.559027
  H 3.712797 -2.065863 -2.158101
  H 4.975970 -2.232776 -3.593166
  H 3.702096 -0.504265 -4.816436
  H 2.648796 -0.228097 -3.430937
