 20
 0.000000
  H 1.449165 0.199793 0.548151
  C 2.513742 0.140545 0.400412
  H 3.123604 0.471451 1.224374
  C 3.021708 -0.317584 -0.740630
  C 4.436715 -0.421407 -0.999485
  C 5.078456 -0.858545 -2.088948
  C 4.610375 -1.391323 -3.416662
  C 3.121075 -1.510693 -3.714898
  C 2.909361 -2.073446 -5.117617
  O 6.452246 -0.871825 -2.122232
  H 2.348714 -0.630379 -1.519527
  H 5.059888 -0.089196 -0.171750
  H 5.075013 -2.377949 -3.526088
  H 5.075352 -0.754247 -4.177691
  H 2.649147 -0.528919 -3.653165
  H 2.648809 -2.177408 -2.991771
  H 3.360395 -1.422045 -5.862997
  H 1.847828 -2.161212 -5.336916
  H 3.360050 -3.059534 -5.205995
  H 6.820327 -0.540586 -1.296610
 20
 0.164367
  H 1.498374 0.104618 0.692950
  C 2.539586 0.123964 0.419692
  H 3.216531 0.462276 1.189845
  C 2.990954 -0.301250 -0.757572
  C 4.400920 -0.357743 -1.048750
  C 5.067393 -0.846205 -2.104350
  C 4.620180 -1.418848 -3.420246
  C 3.133418 -1.500638 -3.733663
  C 2.916702 -2.071835 -5.131466
  O 6.439166 -0.859599 -2.084777
  H 2.292212 -0.636549 -1.502924
  H 5.018319 0.019078 -0.235190
  H 5.056691 -2.421072 -3.488574
  H 5.113907 -0.819523 -4.192890
  H 2.689915 -0.505882 -3.683477
  H 2.637049 -2.145190 -3.008228
  H 3.390861 -1.441187 -5.881452
  H 1.853812 -2.132830 -5.357528
  H 3.340936 -3.071206 -5.207041
  H 6.761927 -0.552368 -1.228069
 20
 1.464767
  H 1.539508 0.030609 0.821300
  C 2.549655 0.054551 0.452525
  H 3.279685 0.358323 1.188276
  C 2.941806 -0.277532 -0.773983
  C 4.349181 -0.285681 -1.093759
  C 5.041650 -0.828919 -2.103852
  C 4.626531 -1.443737 -3.410975
  C 3.143708 -1.481304 -3.762505
  C 2.938706 -2.066735 -5.160471
  O 6.412549 -0.849929 -2.024446
  H 2.228467 -0.580658 -1.508183
  H 4.953279 0.177744 -0.316795
  H 5.030741 -2.462001 -3.433308
  H 5.163250 -0.884976 -4.186134
  H 2.732626 -0.469020 -3.733552
  H 2.608088 -2.098188 -3.037539
  H 3.447598 -1.459696 -5.910160
  H 1.877675 -2.100361 -5.408968
  H 3.335609 -3.080208 -5.213833
  H 6.680756 -0.591344 -1.135793
 20
 3.434201
  H 1.552263 -0.039230 0.812580
  C 2.542517 0.111458 0.418469
  H 3.187315 0.734189 1.017436
  C 2.973857 -0.431787 -0.717097
  C 4.351706 -0.320024 -1.096820
  C 5.046082 -0.916017 -2.080400
  C 4.628971 -1.555979 -3.372442
  C 3.155526 -1.492745 -3.747460
  C 2.946231 -1.946199 -5.190447
  O 6.420685 -0.881571 -1.993585
  H 2.326246 -1.072597 -1.291323
  H 4.911920 0.376998 -0.477829
  H 4.965235 -2.596362 -3.373355
  H 5.215824 -1.041772 -4.140314
  H 2.789413 -0.472583 -3.626007
  H 2.576562 -2.143964 -3.090159
  H 3.479799 -1.296125 -5.879492
  H 1.891483 -1.922607 -5.447015
  H 3.309696 -2.962076 -5.327857
  H 6.622869 -0.533309 -1.116095
 20
 6.884491
  H 1.532923 -0.172647 0.801602
  C 2.540568 -0.001168 0.465729
  H 3.173427 0.565643 1.130528
  C 2.968701 -0.418613 -0.719128
  C 4.341149 -0.272026 -1.106076
  C 5.044608 -0.856092 -2.096953
  C 4.635550 -1.534113 -3.364948
  C 3.180803 -1.392635 -3.808340
  C 2.990471 -1.962157 -5.203833
  O 6.411254 -0.898016 -1.938739
  H 2.310627 -0.991176 -1.357963
  H 4.884539 0.454945 -0.508484
  H 4.906839 -2.594976 -3.309947
  H 5.282769 -1.095587 -4.129213
  H 2.899243 -0.333173 -3.805517
  H 2.525048 -1.927098 -3.117052
  H 3.571346 -1.401186 -5.927775
  H 1.943393 -1.911622 -5.495124
  H 3.308308 -3.004202 -5.239459
  H 6.545034 -0.623853 -1.027399
 20
 13.990928
  H 1.653190 0.029514 0.838236
  C 2.638316 0.171214 0.428712
  H 3.299386 0.814803 0.985186
  C 3.009675 -0.416547 -0.698060
  C 4.382000 -0.347557 -1.109717
  C 5.057148 -0.973064 -2.103509
  C 4.635226 -1.583377 -3.399414
  C 3.162049 -1.455715 -3.768070
  C 2.926291 -1.899796 -5.205629
  O 6.409466 -1.046543 -1.890143
  H 2.335329 -1.072979 -1.223974
  H 4.916266 0.473716 -0.635605
  H 4.920073 -2.642361 -3.406306
  H 5.255835 -1.109496 -4.166750
  H 2.814172 -0.435521 -3.613608
  H 2.589353 -2.122674 -3.119072
  H 3.437083 -1.240320 -5.910243
  H 1.870230 -1.884755 -5.434769
  H 3.287509 -2.916718 -5.350799
  H 6.428908 -0.697068 -0.982252
 20
 32.460650
  H 1.706560 -0.099277 0.886169
  C 2.674611 0.130606 0.451620
  H 3.256276 0.874449 0.927126
  C 3.077687 -0.560511 -0.600421
  C 4.338182 -0.323796 -1.155659
  C 5.048307 -0.992347 -2.108905
  C 4.664191 -1.615984 -3.388348
  C 3.196536 -1.465431 -3.782180
  C 2.966086 -1.902838 -5.228765
  O 6.401752 -0.865424 -1.813519
  H 2.445877 -1.366565 -1.008346
  H 4.728460 0.642877 -0.904707
  H 4.950337 -2.689992 -3.383249
  H 5.283021 -1.134284 -4.159663
  H 2.934404 -0.414744 -3.682492
  H 2.523867 -2.019824 -3.121351
  H 3.607399 -1.349664 -5.902173
  H 1.937403 -1.747770 -5.516671
  H 3.207376 -2.969273 -5.346463
  H 6.134963 -0.479223 -0.932268
 20
 55.235951
  H 1.648839 -0.208107 0.836598
  C 2.605451 0.071570 0.434395
  H 3.103057 0.901048 0.909189
  C 3.151311 -0.578041 -0.592106
  C 4.466328 -0.295085 -1.119712
  C 5.153386 -0.953774 -2.165924
  C 4.697870 -1.594800 -3.428812
  C 3.220667 -1.442281 -3.774420
  C 2.947378 -1.904074 -5.202435
  O 6.414381 -0.946676 -1.889350
  H 2.630914 -1.422108 -1.019138
  H 4.784681 0.738659 -0.979851
  H 4.974998 -2.653607 -3.403808
  H 5.308003 -1.143793 -4.221672
  H 2.926697 -0.396744 -3.663682
  H 2.616111 -2.036442 -3.090070
  H 3.485077 -1.284140 -5.917047
  H 1.885706 -1.840456 -5.426069
  H 3.264973 -2.936074 -5.337894
  H 5.895026 -0.426240 -0.725359
 20
 30.919887
  H 1.496412 -0.188276 0.681754
  C 2.485803 0.089327 0.389499
  H 2.993804 0.817046 0.989565
  C 3.138921 -0.497257 -0.609988
  C 4.549822 -0.247633 -1.040149
  C 5.208839 -0.925053 -2.196072
  C 4.667445 -1.530220 -3.454856
  C 3.184976 -1.389664 -3.727769
  C 2.832994 -1.941341 -5.109178
  O 6.400302 -1.008444 -1.957485
  H 2.659306 -1.315270 -1.125363
  H 4.842091 0.814284 -0.916727
  H 4.941788 -2.585633 -3.464504
  H 5.236927 -1.039295 -4.260933
  H 2.890220 -0.336256 -3.717844
  H 2.569435 -1.913323 -2.994575
  H 3.373413 -1.367664 -5.872510
  H 1.764995 -1.883882 -5.298775
  H 3.149474 -2.983001 -5.213308
  H 5.538086 -0.497159 -0.470800
 20
 10.841330
  H 1.642211 -0.395480 0.565055
  C 2.597309 0.014393 0.277368
  H 2.915584 0.903009 0.783387
  C 3.331326 -0.585618 -0.655204
  C 4.694416 -0.216075 -1.133787
  C 5.375196 -0.997503 -2.211259
  C 4.734969 -1.612817 -3.441880
  C 3.240692 -1.429127 -3.700940
  C 2.907264 -1.838717 -5.119965
  O 6.574549 -1.082415 -2.069619
  H 2.957612 -1.513245 -1.052813
  H 4.900325 0.858499 -1.177943
  H 4.957528 -2.672491 -3.383082
  H 5.295296 -1.229324 -4.288130
  H 2.961467 -0.393213 -3.527883
  H 2.679624 -2.074146 -3.036686
  H 3.388242 -1.178791 -5.833115
  H 1.830516 -1.807669 -5.287567
  H 3.255344 -2.856222 -5.310502
  H 5.503807 -0.365379 -0.381321
 20
 1.135449
  H 1.654708 -0.572125 0.502723
  C 2.584801 -0.112390 0.198015
  H 2.798257 0.862576 0.600835
  C 3.394900 -0.726981 -0.646504
  C 4.706953 -0.202208 -1.153539
  C 5.437169 -0.977373 -2.226755
  C 4.744849 -1.634755 -3.394703
  C 3.280741 -1.296237 -3.680265
  C 2.875370 -1.804463 -5.056079
  O 6.634341 -1.087016 -2.100777
  H 3.138001 -1.724472 -0.977338
  H 4.688019 0.875600 -1.398911
  H 4.887564 -2.716574 -3.290928
  H 5.337722 -1.339592 -4.270625
  H 3.136665 -0.215341 -3.628521
  H 2.624940 -1.749529 -2.939486
  H 3.430564 -1.291388 -5.836622
  H 1.816090 -1.631884 -5.224944
  H 3.066662 -2.872216 -5.141258
  H 5.458310 -0.223471 -0.349856
 20
 -2.371228
  H 1.724377 -0.671368 0.646773
  C 2.601095 -0.209474 0.229092
  H 2.788787 0.810406 0.523151
  C 3.403501 -0.839883 -0.607612
  C 4.638613 -0.196909 -1.164273
  C 5.436312 -0.959518 -2.196793
  C 4.743966 -1.599897 -3.382209
  C 3.292979 -1.225888 -3.677574
  C 2.858678 -1.794944 -5.025432
  O 6.639146 -1.014311 -2.097138
  H 3.215926 -1.870769 -0.875131
  H 4.394112 0.772543 -1.612023
  H 4.842789 -2.684033 -3.262512
  H 5.355615 -1.338292 -4.253506
  H 3.190788 -0.138573 -3.697853
  H 2.626358 -1.610294 -2.906596
  H 3.478381 -1.401253 -5.828148
  H 1.823512 -1.533374 -5.232683
  H 2.944882 -2.879662 -5.028062
  H 5.326535 0.009515 -0.339378
 20
 1.005393
  H 1.742337 -0.361273 0.792476
  C 2.712000 -0.072520 0.426421
  H 3.206479 0.718116 0.968049
  C 3.271638 -0.637107 -0.628257
  C 4.620901 -0.209191 -1.119187
  C 5.377513 -0.949530 -2.201479
  C 4.736904 -1.558153 -3.433408
  C 3.245659 -1.415206 -3.716271
  C 2.926897 -1.918989 -5.121306
  O 6.584655 -0.981097 -2.112760
  H 2.763690 -1.434777 -1.142322
  H 4.559655 0.824453 -1.485258
  H 5.017892 -2.615501 -3.440744
  H 5.284996 -1.102315 -4.266591
  H 2.949065 -0.367570 -3.634915
  H 2.658563 -1.997702 -3.007346
  H 3.473500 -1.348460 -5.869308
  H 1.863512 -1.822110 -5.327274
  H 3.201504 -2.966728 -5.222828
  H 5.307030 -0.178247 -0.265798
 20
 -4.789500
  H 1.872685 -1.104955 0.668391
  C 2.590451 -0.469139 0.174715
  H 2.455601 0.595601 0.298219
  C 3.578083 -0.963758 -0.546209
  C 4.615758 -0.111945 -1.227532
  C 5.458354 -0.887324 -2.213948
  C 4.723056 -1.610284 -3.323944
  C 3.416407 -0.975216 -3.795961
  C 2.808549 -1.773389 -4.942744
  O 6.658892 -0.949985 -2.110445
  H 3.698405 -2.035151 -0.642700
  H 4.132132 0.713556 -1.751440
  H 4.520915 -2.623139 -2.956295
  H 5.416554 -1.715924 -4.165160
  H 3.609392 0.045514 -4.133437
  H 2.701852 -0.932199 -2.972806
  H 3.492045 -1.812920 -5.787356
  H 1.879528 -1.315263 -5.274873
  H 2.594482 -2.791806 -4.628158
  H 5.281247 0.323815 -0.476426
