 23
 0.000000
  C 0.995837 0.164900 0.461683
  C 2.457621 0.127139 0.367003
  H 3.049210 0.464155 1.205443
  C 3.049724 -0.336547 -0.787465
  C 4.428341 -0.418150 -0.991638
  C 5.116540 -0.870769 -2.119508
  C 4.616472 -1.391793 -3.417947
  C 3.128013 -1.511977 -3.718709
  C 2.928712 -2.075876 -5.123750
  O 6.430631 -0.863199 -2.100902
  H 0.647436 0.548353 1.416319
  H 0.583327 -0.834685 0.310081
  H 0.582896 0.781644 -0.339220
  H 2.386170 -0.653135 -1.574859
  H 5.048979 -0.086189 -0.165423
  H 5.080450 -2.377410 -3.543949
  H 5.081225 -0.767279 -4.190371
  H 2.649956 -0.533207 -3.672064
  H 2.649383 -2.186648 -3.008462
  H 3.376100 -1.426578 -5.872514
  H 1.868595 -2.164888 -5.346422
  H 3.375620 -3.062885 -5.215708
  H 6.829249 -0.531927 -1.273496
 23
 -0.167222
  C 1.010788 0.274587 0.538729
  C 2.449122 0.094818 0.343157
  H 3.114746 0.451111 1.115134
  C 2.978283 -0.461610 -0.797868
  C 4.360359 -0.552367 -0.980334
  C 5.094990 -0.896160 -2.117403
  C 4.630637 -1.368081 -3.447264
  C 3.150330 -1.560150 -3.743839
  C 2.970118 -2.066233 -5.172642
  O 6.403980 -0.807885 -2.079099
  H 0.779145 0.790285 1.466371
  H 0.506190 -0.692430 0.524815
  H 0.578660 0.820269 -0.300099
  H 2.297887 -0.806397 -1.559907
  H 4.954993 -0.236568 -0.128644
  H 5.155666 -2.311583 -3.632534
  H 5.055516 -0.677682 -4.184373
  H 2.621046 -0.615084 -3.646999
  H 2.720231 -2.293993 -3.062562
  H 3.370353 -1.356742 -5.890667
  H 1.918070 -2.208857 -5.392469
  H 3.474849 -3.017460 -5.316050
  H 6.780190 -0.505666 -1.229610
 23
 1.677226
  C 1.036144 0.371391 0.503691
  C 2.458944 0.062265 0.349021
  H 3.126654 0.443986 1.110528
  C 2.961738 -0.626711 -0.731247
  C 4.342428 -0.659687 -0.948087
  C 5.084222 -0.928239 -2.100388
  C 4.631542 -1.342909 -3.454590
  C 3.156237 -1.598101 -3.744033
  C 2.976495 -2.025728 -5.198997
  O 6.387984 -0.776949 -2.062223
  H 0.849426 1.020731 1.350341
  H 0.465799 -0.557904 0.626486
  H 0.640057 0.829004 -0.408345
  H 2.270313 -1.040995 -1.446712
  H 4.949851 -0.380788 -0.086072
  H 5.204607 -2.236102 -3.707487
  H 4.997496 -0.574403 -4.143281
  H 2.576026 -0.690002 -3.568662
  H 2.788371 -2.397895 -3.102200
  H 3.331039 -1.253377 -5.877342
  H 1.926012 -2.206745 -5.415637
  H 3.528124 -2.933961 -5.408889
  H 6.754355 -0.490142 -1.203699
 23
 4.190928
  C 1.067779 0.448186 0.353593
  C 2.463380 0.009732 0.306257
  H 3.132962 0.418878 1.056673
  C 2.986790 -0.802918 -0.663544
  C 4.374493 -0.762759 -0.889782
  C 5.098111 -0.982678 -2.057312
  C 4.615343 -1.288011 -3.429684
  C 3.155997 -1.639625 -3.679167
  C 2.940463 -1.939174 -5.156474
  O 6.403132 -0.822957 -2.038271
  H 0.899008 1.191946 1.125126
  H 0.407296 -0.408835 0.521508
  H 0.758742 0.850102 -0.613894
  H 2.323292 -1.318825 -1.331796
  H 4.971795 -0.479105 -0.023645
  H 5.249001 -2.100045 -3.806317
  H 4.885045 -0.420935 -4.046242
  H 2.511386 -0.805678 -3.396051
  H 2.876824 -2.521366 -3.106266
  H 3.198596 -1.081752 -5.768145
  H 1.902610 -2.182017 -5.343652
  H 3.546196 -2.776942 -5.474975
  H 6.781869 -0.566866 -1.176794
 23
 11.368386
  C 1.135777 0.472214 0.064289
  C 2.492099 -0.058322 0.189609
  H 3.141206 0.480554 0.876748
  C 3.030779 -1.102628 -0.508347
  C 4.404705 -0.884094 -0.798056
  C 5.113146 -1.012637 -1.985946
  C 4.595500 -1.206322 -3.363863
  C 3.159245 -1.642063 -3.574400
  C 2.857031 -1.797580 -5.066562
  O 6.416818 -0.845522 -1.981745
  H 0.999109 1.384740 0.634682
  H 0.399315 -0.275589 0.377687
  H 0.901538 0.679106 -0.980723
  H 2.416687 -1.755916 -1.102435
  H 4.992727 -0.484666 0.012102
  H 5.255304 -1.924662 -3.858895
  H 4.766833 -0.260093 -3.885158
  H 2.477743 -0.896937 -3.159356
  H 2.973486 -2.596200 -3.075513
  H 3.046488 -0.864775 -5.594959
  H 1.810559 -2.047431 -5.221781
  H 3.472626 -2.583777 -5.504256
  H 6.833224 -0.746417 -1.099588
 23
 21.352419
  C 1.284009 0.579130 -0.088606
  C 2.540076 -0.144755 0.168596
  H 3.081612 0.193505 1.045564
  C 2.990638 -1.231923 -0.515067
  C 4.375877 -0.984720 -0.743653
  C 5.069186 -0.985976 -1.944703
  C 4.560697 -1.197073 -3.317842
  C 3.135410 -1.677934 -3.536560
  C 2.845537 -1.795135 -5.029914
  O 6.348676 -0.639891 -1.954479
  H 1.152243 1.398418 0.603225
  H 0.434241 -0.101289 -0.028267
  H 1.283554 0.976157 -1.104052
  H 2.364926 -1.859448 -1.127423
  H 4.995164 -0.868794 0.143528
  H 5.257912 -1.893245 -3.804182
  H 4.698768 -0.241222 -3.845794
  H 2.423449 -0.979772 -3.096679
  H 3.001785 -2.664253 -3.085548
  H 3.042395 -0.850805 -5.538577
  H 1.801145 -2.057523 -5.197719
  H 3.463471 -2.567941 -5.488134
  H 6.703209 -0.356234 -1.091096
 23
 34.115939
  C 1.457831 0.580620 -0.444646
  C 2.593369 -0.200333 0.070818
  H 3.030272 0.190091 0.981202
  C 2.982514 -1.435998 -0.381334
  C 4.334490 -1.013768 -0.634258
  C 5.017405 -0.961442 -1.827447
  C 4.500483 -1.093017 -3.217642
  C 3.110418 -1.680714 -3.453329
  C 2.774619 -1.649009 -4.939529
  O 6.329619 -0.729263 -1.829358
  H 1.229981 1.426319 0.201433
  H 0.571046 -0.047180 -0.555880
  H 1.696603 0.953876 -1.437861
  H 2.389364 -2.108020 -0.981354
  H 4.949150 -0.878488 0.250675
  H 5.240333 -1.685178 -3.771988
  H 4.544635 -0.096126 -3.665074
  H 2.358120 -1.108797 -2.921240
  H 3.085051 -2.711821 -3.113124
  H 2.756077 -0.626742 -5.311796
  H 1.799521 -2.094165 -5.116385
  H 3.507615 -2.207798 -5.515691
  H 6.755583 -0.705979 -0.954084
 23
 37.496457
  C 1.833754 0.580807 -0.755267
  C 2.768733 -0.326098 -0.003296
  H 3.049182 0.043210 0.975247
  C 2.914971 -1.691636 -0.329991
  C 4.206051 -1.027527 -0.532062
  C 4.889305 -0.844694 -1.758437
  C 4.366324 -0.977310 -3.139426
  C 3.034915 -1.678677 -3.386212
  C 2.699146 -1.654955 -4.875350
  O 6.155648 -0.519205 -1.740398
  H 1.604443 1.467440 -0.170736
  H 0.909154 0.058317 -0.988218
  H 2.281738 0.901119 -1.692641
  H 2.339703 -2.364400 -0.922541
  H 4.850886 -0.974069 0.340203
  H 5.148712 -1.482514 -3.719839
  H 4.327077 0.035929 -3.557806
  H 2.227476 -1.186357 -2.846585
  H 3.101854 -2.717598 -3.067318
  H 2.618217 -0.634754 -5.241936
  H 1.750881 -2.154375 -5.056258
  H 3.464908 -2.165079 -5.455089
  H 6.554103 -0.384618 -0.858423
 23
 37.112484
  C 1.946209 0.609015 -0.839321
  C 2.800131 -0.350451 -0.042536
  H 2.917465 -0.039091 0.987676
  C 2.919534 -1.738308 -0.343904
  C 4.184876 -1.000040 -0.516032
  C 4.860061 -0.781140 -1.759059
  C 4.317457 -0.911184 -3.127820
  C 3.027020 -1.686636 -3.368953
  C 2.693180 -1.687670 -4.860480
  O 6.114346 -0.439503 -1.752312
  H 1.833654 1.548411 -0.304283
  H 0.960861 0.182556 -0.999645
  H 2.389147 0.819917 -1.806830
  H 2.378467 -2.479772 -0.874985
  H 4.868979 -1.043230 0.327626
  H 5.111734 -1.355053 -3.738047
  H 4.215403 0.110946 -3.517853
  H 2.192173 -1.246260 -2.829681
  H 3.156874 -2.716947 -3.043267
  H 2.553563 -0.674645 -5.229769
  H 1.774412 -2.241747 -5.042010
  H 3.487547 -2.155554 -5.437569
  H 6.522466 -0.280442 -0.880147
