17

H 1.3762069281836877 0.13948823900419904 0.39876306817841417
C 2.446202 0.13845 0.395686
C 3.234342 0.607737 1.563173
C 2.459622 1.098069 2.783777
H 3.127141036908648 1.4099478864246844 3.559695742889389
C 3.059757 -0.325663 -0.759787
C 4.43888 -0.411649 -0.974373
C 5.11699 -0.862273 -2.097854
H 4.763954304943615 -1.2382877024926866 -3.035339328698744
O 6.442688 -0.856823 -2.084272
H 3.890239 1.419519 1.228374
H 3.89055 -0.209765 1.883078
H 1.821772 0.301459 3.172017
H 1.821512 1.94166 2.512985
H 2.401023 -0.643254 -1.550384
H 5.05689 -0.079321 -0.146191
H 6.81268 -0.521131 -1.246385
