 17
 0.000000
  H 1.471524 0.164200 0.457223
  C 2.552856 0.156231 0.439263
  C 3.253547 0.634499 1.630824
  C 2.338272 1.087682 2.757463
  H 2.922195 1.428284 3.607463
  C 3.155248 -0.306881 -0.712146
  C 4.536185 -0.391230 -0.921656
  C 5.098438 -0.860344 -2.090771
  H 4.549923 -1.209003 -2.958128
  O 6.377739 -0.936364 -2.284222
  H 3.923175 1.458061 1.351196
  H 3.921788 -0.154618 1.998973
  H 1.697541 0.273698 3.088444
  H 1.699116 1.905653 2.433330
  H 2.511271 -0.630426 -1.518404
  H 5.221236 -0.078206 -0.142375
  H 6.930396 -0.633073 -1.533512
 17
 -0.383214
  H 1.485858 0.148478 0.467149
  C 2.567349 0.148796 0.443922
  C 3.253011 0.642962 1.638403
  C 2.316834 1.092457 2.751104
  H 2.883235 1.444796 3.605479
  C 3.178038 -0.311948 -0.702054
  C 4.564103 -0.392229 -0.896359
  C 5.103938 -0.844179 -2.086300
  H 4.480354 -1.150266 -2.919965
  O 6.365358 -0.946084 -2.339975
  H 3.918402 1.468494 1.362110
  H 3.929816 -0.139309 2.019784
  H 1.681322 0.272680 3.080353
  H 1.673180 1.901043 2.415142
  H 2.545523 -0.635325 -1.519311
  H 5.237100 -0.107064 -0.096953
  H 6.964742 -0.680635 -1.608662
 17
 -0.405647
  H 1.486112 0.121796 0.477395
  C 2.568654 0.129202 0.451759
  C 3.252376 0.639827 1.640897
  C 2.315536 1.105043 2.745008
  H 2.880879 1.475897 3.593254
  C 3.181151 -0.332125 -0.693585
  C 4.566792 -0.406863 -0.888111
  C 5.107061 -0.820420 -2.090676
  H 4.468677 -1.074936 -2.930127
  O 6.365181 -0.920899 -2.358926
  H 3.924206 1.458569 1.354752
  H 3.923965 -0.138917 2.029764
  H 1.684033 0.290244 3.088064
  H 1.667460 1.905988 2.393446
  H 2.550867 -0.650469 -1.511524
  H 5.231385 -0.159606 -0.071432
  H 6.972035 -0.709790 -1.616719
 17
 -0.281471
  H 1.485926 0.109961 0.481023
  C 2.566952 0.116107 0.455952
  C 3.252111 0.637352 1.640217
  C 2.318408 1.114470 2.739309
  H 2.885933 1.503111 3.580535
  C 3.179366 -0.351186 -0.687364
  C 4.564643 -0.421653 -0.883510
  C 5.108252 -0.805276 -2.095137
  H 4.472485 -1.008710 -2.950485
  O 6.367214 -0.897681 -2.363030
  H 3.924660 1.450883 1.345806
  H 3.922916 -0.139629 2.032951
  H 1.691568 0.301094 3.097138
  H 1.665459 1.904902 2.377641
  H 2.547836 -0.671630 -1.504509
  H 5.232989 -0.196166 -0.063514
  H 6.971871 -0.740691 -1.607701
 17
 -0.376751
  H 1.485404 0.139561 0.469355
  C 2.568387 0.138447 0.446654
  C 3.253638 0.646213 1.635041
  C 2.319576 1.094590 2.745302
  H 2.887953 1.465879 3.596365
  C 3.180539 -0.324784 -0.698862
  C 4.565721 -0.404158 -0.891130
  C 5.107989 -0.831390 -2.087619
  H 4.472976 -1.094967 -2.928808
  O 6.367537 -0.935213 -2.351751
  H 3.913999 1.476018 1.348410
  H 3.933712 -0.127529 2.012482
  H 1.698626 0.271802 3.085177
  H 1.662076 1.889763 2.402695
  H 2.549360 -0.640301 -1.517601
  H 5.240138 -0.145498 -0.085791
  H 6.972694 -0.723980 -1.611308
 17
 -0.417777
  H 1.489930 0.154235 0.460953
  C 2.571599 0.151074 0.438236
  C 3.257114 0.646004 1.631975
  C 2.321358 1.088622 2.746419
  H 2.888266 1.443028 3.601969
  C 3.182824 -0.313836 -0.707034
  C 4.567603 -0.401946 -0.896340
  C 5.109727 -0.842772 -2.088126
  H 4.473936 -1.146807 -2.912771
  O 6.368552 -0.946238 -2.353423
  H 3.919607 1.477846 1.354692
  H 3.934207 -0.132896 2.007178
  H 1.691307 0.265470 3.074933
  H 1.672401 1.893456 2.412195
  H 2.550804 -0.627875 -1.526282
  H 5.235650 -0.149281 -0.084593
  H 6.975084 -0.679388 -1.630488
 17
 -0.365042
  H 1.491907 0.175233 0.449449
  C 2.573583 0.159834 0.431383
  C 3.259735 0.640273 1.631246
  C 2.324112 1.082802 2.745177
  H 2.891778 1.423270 3.607210
  C 3.184164 -0.304928 -0.714197
  C 4.568941 -0.403445 -0.899328
  C 5.111301 -0.857585 -2.085600
  H 4.476931 -1.204592 -2.895031
  O 6.370082 -0.938277 -2.359350
  H 3.928153 1.469267 1.360772
  H 3.929319 -0.145498 2.003181
  H 1.683023 0.263262 3.063568
  H 1.686232 1.897633 2.415876
  H 2.551780 -0.605634 -1.538480
  H 5.235260 -0.157091 -0.083500
  H 6.976112 -0.634951 -1.650527
 17
 -0.195052
  H 1.494698 0.183551 0.442080
  C 2.576291 0.160059 0.428247
  C 3.261641 0.630733 1.632019
  C 2.324483 1.086619 2.740189
  H 2.891152 1.422486 3.604771
  C 3.187794 -0.304150 -0.716965
  C 4.572385 -0.413071 -0.897858
  C 5.110804 -0.865009 -2.086157
  H 4.477386 -1.235285 -2.887202
  O 6.368202 -0.917138 -2.373667
  H 3.941483 1.451190 1.365527
  H 3.917011 -0.164321 2.007912
  H 1.673005 0.276032 3.056616
  H 1.696680 1.910030 2.404823
  H 2.557358 -0.590479 -1.547246
  H 5.244933 -0.190107 -0.079773
  H 6.974950 -0.604777 -1.669455
 17
 -0.431776
  H 1.496358 0.117403 0.463137
  C 2.577674 0.123793 0.437841
  C 3.261923 0.607510 1.637938
  C 2.325615 1.105380 2.728098
  H 2.892722 1.472748 3.578694
  C 3.189710 -0.315513 -0.716608
  C 4.575081 -0.400392 -0.906119
  C 5.114620 -0.826797 -2.105330
  H 4.472745 -1.122955 -2.930765
  O 6.371569 -0.924337 -2.378788
  H 3.970346 1.400274 1.364790
  H 3.890475 -0.197961 2.038536
  H 1.673177 0.308266 3.075660
  H 1.699340 1.915755 2.362030
  H 2.558353 -0.621406 -1.538927
  H 5.240767 -0.153130 -0.091392
  H 6.982255 -0.672538 -1.653870
 17
 -0.068354
  H 1.502479 0.243378 0.411271
  C 2.581582 0.177969 0.413373
  C 3.264169 0.604840 1.636256
  C 2.323158 1.061035 2.740826
  H 2.883075 1.360308 3.620977
  C 3.191767 -0.296002 -0.727451
  C 4.576166 -0.416756 -0.904605
  C 5.117752 -0.844471 -2.103349
  H 4.481587 -1.199682 -2.907308
  O 6.374825 -0.896425 -2.393764
  H 3.959930 1.420078 1.390450
  H 3.902399 -0.208879 2.003650
  H 1.647461 0.260141 3.028106
  H 1.721449 1.902598 2.416266
  H 2.561286 -0.573714 -1.559017
  H 5.239921 -0.207759 -0.076954
  H 6.984258 -0.597626 -1.684986
 17
 -0.420099
  H 1.500931 0.208668 0.417875
  C 2.581426 0.178482 0.407897
  C 3.262049 0.624333 1.623411
  C 2.323603 1.035429 2.747222
  H 2.887824 1.338342 3.623401
  C 3.194605 -0.271085 -0.742744
  C 4.579799 -0.387595 -0.920754
  C 5.119484 -0.859377 -2.102919
  H 4.477679 -1.185834 -2.914349
  O 6.377470 -0.971315 -2.372365
  H 3.934978 1.457537 1.379283
  H 3.932653 -0.172470 1.976489
  H 1.672563 0.213637 3.030155
  H 1.697259 1.872156 2.444866
  H 2.563811 -0.552079 -1.574016
  H 5.238482 -0.118792 -0.108524
  H 6.988795 -0.671827 -1.664688
 17
 -0.386628
  H 1.500527 0.084725 0.446568
  C 2.581716 0.109144 0.422297
  C 3.253376 0.626755 1.614603
  C 2.307808 1.086703 2.712486
  H 2.868028 1.456669 3.566965
  C 3.202267 -0.335553 -0.725416
  C 4.589330 -0.406665 -0.909432
  C 5.136896 -0.821956 -2.108551
  H 4.498367 -1.122453 -2.932579
  O 6.395051 -0.925988 -2.374813
  H 3.933928 1.442593 1.342666
  H 3.918357 -0.154669 2.009146
  H 1.675862 0.269192 3.050215
  H 1.660941 1.885673 2.358579
  H 2.575436 -0.641533 -1.550969
  H 5.245774 -0.183188 -0.079984
  H 7.002065 -0.677200 -1.645838
 17
 -0.090517
  H 1.498089 0.126978 0.421226
  C 2.579866 0.133958 0.406983
  C 3.249475 0.635344 1.606071
  C 2.302830 1.076718 2.708551
  H 2.860573 1.425063 3.571162
  C 3.204413 -0.317640 -0.736829
  C 4.591076 -0.405679 -0.910661
  C 5.140853 -0.882565 -2.085564
  H 4.509168 -1.295186 -2.862055
  O 6.398448 -0.940073 -2.368904
  H 3.926545 1.457404 1.341811
  H 3.916149 -0.146986 1.992344
  H 1.663511 0.259327 3.023080
  H 1.667075 1.892085 2.370760
  H 2.578991 -0.616491 -1.570625
  H 5.242017 -0.166810 -0.080482
  H 7.001361 -0.563156 -1.693192
 17
 -0.491979
  H 1.498027 0.094429 0.436735
  C 2.579112 0.118706 0.414443
  C 3.252260 0.637012 1.606666
  C 2.304636 1.083699 2.708062
  H 2.861722 1.453018 3.563818
  C 3.201872 -0.336109 -0.729028
  C 4.588684 -0.407527 -0.914208
  C 5.136999 -0.856990 -2.100348
  H 4.511847 -1.173180 -2.928627
  O 6.398973 -0.951654 -2.356621
  H 3.911879 1.467188 1.323471
  H 3.930022 -0.134431 1.995877
  H 1.679522 0.258033 3.040954
  H 1.650196 1.879394 2.358763
  H 2.577771 -0.662246 -1.548837
  H 5.249417 -0.121789 -0.107615
  H 6.997500 -0.675261 -1.629829
