 29
 0.000000
  C 0.970623 0.140123 0.400938
  C 2.446619 0.138268 0.395546
  C 3.234482 0.606887 1.561015
  C 2.459402 1.096613 2.779880
  H 3.135356 1.410743 3.561150
  C 3.061055 -0.326558 -0.761494
  C 4.438776 -0.411171 -0.972728
  C 5.118191 -0.862460 -2.097988
  C 4.622359 -1.385043 -3.401170
  C 3.132094 -1.503357 -3.697182
  C 2.911635 -2.065446 -5.098912
  O 6.441106 -0.858555 -2.088456
  H 0.538446 0.510736 1.323155
  H 0.598559 -0.871587 0.234555
  H 0.598117 0.755064 -0.419286
  H 3.890541 1.417988 1.225903
  H 3.890912 -0.210240 1.880351
  H 1.823611 0.302549 3.170084
  H 1.823308 1.939654 2.512137
  H 2.402899 -0.644128 -1.551861
  H 5.053078 -0.077820 -0.142091
  H 5.078991 -2.373396 -3.526801
  H 5.079458 -0.757693 -4.174900
  H 2.656360 -0.523261 -3.644741
  H 2.655895 -2.175400 -2.982160
  H 3.351427 -1.417819 -5.853890
  H 1.847290 -2.147641 -5.304633
  H 3.350984 -3.055479 -5.197128
  H 6.803739 -0.521645 -1.247576
 29
 2.985545
  C 0.908662 0.183857 0.510510
  C 2.383375 0.153755 0.433092
  C 3.239875 0.606682 1.559275
  C 2.532775 1.109024 2.811460
  H 3.274560 1.405646 3.549305
  C 2.948318 -0.325315 -0.760116
  C 4.303962 -0.425387 -1.009847
  C 5.034468 -0.869932 -2.117186
  C 4.641708 -1.401106 -3.441179
  C 3.167849 -1.536792 -3.781011
  C 3.005113 -2.101253 -5.187916
  O 6.336931 -0.808262 -1.961973
  H 0.538555 0.563188 1.455085
  H 0.508695 -0.818496 0.349673
  H 0.507386 0.795601 -0.298981
  H 3.897576 1.399905 1.188429
  H 3.898627 -0.221921 1.839858
  H 1.911117 0.335787 3.255735
  H 1.910127 1.974198 2.598045
  H 2.259143 -0.636567 -1.534074
  H 5.055655 -0.133305 -0.282747
  H 5.127713 -2.374621 -3.544978
  H 5.128485 -0.770066 -4.189070
  H 2.682577 -0.561150 -3.741336
  H 2.681875 -2.213991 -3.078098
  H 3.465223 -1.446951 -5.925064
  H 1.952193 -2.200748 -5.437124
  H 3.464539 -3.083954 -5.268218
  H 6.651241 -0.467835 -1.109723
 29
 6.219021
  C 0.925550 0.417832 0.351966
  C 2.397472 0.318109 0.330576
  C 3.210688 0.510872 1.554008
  C 2.456654 0.712439 2.861379
  H 3.168988 0.790788 3.678238
  C 2.996028 0.031694 -0.893135
  C 4.357681 -0.176180 -1.077566
  C 5.079262 -0.713461 -2.143723
  C 4.644846 -1.407224 -3.385636
  C 3.152059 -1.556557 -3.650684
  C 2.922699 -2.329982 -4.944595
  O 6.387658 -0.721417 -2.012509
  H 0.534067 0.705976 1.318762
  H 0.488950 -0.539376 0.062588
  H 0.589374 1.135011 -0.397006
  H 3.861718 1.377779 1.386234
  H 3.877271 -0.347426 1.663714
  H 1.797032 -0.124345 3.071966
  H 1.869940 1.628883 2.848077
  H 2.349039 -0.012618 -1.755646
  H 5.102738 0.052739 -0.329164
  H 5.113712 -2.392568 -3.383931
  H 5.100685 -0.860846 -4.217927
  H 2.685327 -0.576809 -3.744421
  H 2.681136 -2.096844 -2.829626
  H 3.377515 -1.817890 -5.788424
  H 1.859741 -2.430527 -5.142405
  H 3.348233 -3.328359 -4.879826
  H 6.969279 -0.151572 -1.482987
 29
 19.352978
  C 0.915114 0.495884 0.329700
  C 2.381630 0.361013 0.307665
  C 3.202160 0.457926 1.538921
  C 2.455273 0.627338 2.855132
  H 3.167372 0.627391 3.681122
  C 2.981291 0.099806 -0.913143
  C 4.337970 -0.109260 -1.104026
  C 5.068726 -0.630536 -2.171593
  C 4.665083 -1.385780 -3.387439
  C 3.171869 -1.562861 -3.632590
  C 2.931921 -2.401763 -4.886138
  O 6.367013 -0.618868 -1.987877
  H 0.513093 0.652525 1.324263
  H 0.457795 -0.402173 -0.082484
  H 0.609333 1.319614 -0.319769
  H 3.891660 1.298672 1.408555
  H 3.830393 -0.439525 1.595653
  H 1.760312 -0.198236 3.026745
  H 1.895382 1.554710 2.877210
  H 2.346592 0.085004 -1.789146
  H 5.156440 0.108758 -0.422528
  H 5.120073 -2.375373 -3.304661
  H 5.121875 -0.890820 -4.246556
  H 2.713146 -0.586568 -3.785585
  H 2.707989 -2.041690 -2.766554
  H 3.362656 -1.921704 -5.763916
  H 1.860961 -2.538257 -5.054859
  H 3.380466 -3.387627 -4.783825
  H 7.102535 -0.072597 -1.672389
 29
 47.023030
  C 0.875367 0.439672 0.453217
  C 2.334186 0.378305 0.360742
  C 3.208821 0.565534 1.549407
  C 2.508343 0.689491 2.893664
  H 3.261556 0.806566 3.669311
  C 2.880167 0.106265 -0.886791
  C 4.207879 -0.149298 -1.092503
  C 4.983903 -0.720110 -2.140412
  C 4.684141 -1.463200 -3.390800
  C 3.197485 -1.574478 -3.716202
  C 3.000944 -2.366685 -5.015218
  O 6.237231 -0.613821 -1.854107
  H 0.497506 0.633048 1.438736
  H 0.437485 -0.509133 0.116576
  H 0.497196 1.206645 -0.248489
  H 3.800129 1.467212 1.383784
  H 3.918437 -0.251480 1.613196
  H 1.963460 -0.224193 3.143879
  H 1.814949 1.526655 2.937648
  H 2.260911 0.079787 -1.755186
  H 5.190954 0.026401 -0.543437
  H 5.171070 -2.443067 -3.379157
  H 5.215458 -0.944615 -4.209316
  H 2.800977 -0.557395 -3.842019
  H 2.624782 -2.082579 -2.937494
  H 3.568773 -1.934987 -5.828999
  H 1.954994 -2.387748 -5.283480
  H 3.343956 -3.392492 -4.915061
  H 7.120532 -0.195598 -1.676955
 29
 86.561128
  C 0.803333 0.648786 0.529107
  C 2.263074 0.447856 0.346894
  C 3.213327 0.429468 1.499317
  C 2.600876 0.503195 2.893878
  H 3.393633 0.450540 3.640009
  C 2.735474 0.261117 -0.927799
  C 4.046523 -0.029317 -1.253170
  C 4.811712 -0.574721 -2.186854
  C 4.687474 -1.426684 -3.394845
  C 3.229392 -1.666931 -3.773677
  C 3.136940 -2.558059 -5.006977
  O 6.160946 -0.379686 -1.758448
  H 0.524690 0.783473 1.567874
  H 0.254408 -0.198122 0.127868
  H 0.476660 1.520909 -0.035498
  H 3.911777 1.268585 1.381538
  H 3.808261 -0.485751 1.418240
  H 1.919244 -0.327301 3.070855
  H 2.068271 1.436479 3.050428
  H 2.032890 0.391693 -1.756426
  H 5.431196 0.081653 -0.772630
  H 5.189310 -2.378663 -3.227961
  H 5.209489 -0.925123 -4.211330
  H 2.742303 -0.714868 -3.979215
  H 2.709691 -2.138367 -2.942402
  H 3.628443 -2.095652 -5.855754
  H 2.096681 -2.732284 -5.270122
  H 3.605375 -3.524232 -4.825062
  H 6.992334 0.031138 -1.541813
 29
 89.269361
  C 0.754326 0.632616 0.614895
  C 2.205570 0.436989 0.371311
  C 3.213443 0.451513 1.475967
  C 2.683058 0.561213 2.899698
  H 3.514446 0.534281 3.597180
  C 2.624660 0.220170 -0.914634
  C 3.937712 -0.063786 -1.290211
  C 4.694584 -0.583180 -2.187727
  C 4.656600 -1.408313 -3.393215
  C 3.224135 -1.699627 -3.844802
  C 3.212992 -2.554798 -5.105810
  O 6.205237 -0.337412 -1.691763
  H 0.527387 0.816856 1.654748
  H 0.197650 -0.246772 0.281623
  H 0.385643 1.469416 0.022262
  H 3.897055 1.288539 1.303888
  H 3.805614 -0.465352 1.381868
  H 2.019663 -0.262328 3.144652
  H 2.154649 1.503450 3.051630
  H 1.884609 0.301513 -1.710495
  H 5.576464 0.037427 -0.830569
  H 5.191213 -2.349637 -3.215826
  H 5.183203 -0.865202 -4.181817
  H 2.710361 -0.764744 -4.049149
  H 2.692242 -2.220072 -3.046261
  H 3.725914 -2.045233 -5.921290
  H 2.192458 -2.755816 -5.419495
  H 3.703281 -3.510267 -4.938315
  H 7.057939 -0.042347 -1.300797
 29
 75.839888
  C 0.701630 0.701346 0.753616
  C 2.120812 0.452250 0.418981
  C 3.196580 0.443620 1.454390
  C 2.757077 0.581051 2.905357
  H 3.627607 0.526127 3.550369
  C 2.455973 0.215792 -0.889946
  C 3.724137 -0.100648 -1.356943
  C 4.471701 -0.598459 -2.213105
  C 4.584567 -1.397036 -3.413014
  C 3.199004 -1.757153 -3.972401
  C 3.337820 -2.585584 -5.242248
  O 6.199263 -0.292239 -1.599042
  H 0.550280 0.916122 1.805155
  H 0.101015 -0.164791 0.477935
  H 0.320108 1.538104 0.167495
  H 3.896229 1.255439 1.230651
  H 3.754148 -0.490795 1.332149
  H 2.077787 -0.218173 3.192566
  H 2.273960 1.539748 3.087107
  H 1.678591 0.303133 -1.645391
  H 5.577301 -0.002256 -0.834149
  H 5.155558 -2.310104 -3.207956
  H 5.138799 -0.814896 -4.154438
  H 2.646774 -0.846898 -4.198058
  H 2.640542 -2.323660 -3.223104
  H 3.889317 -2.036452 -6.003991
  H 2.357587 -2.830306 -5.641817
  H 3.863367 -3.517676 -5.044116
  H 7.105858 0.062449 -1.071101
 29
 59.360301
  C 0.685735 0.835468 0.992540
  C 2.030504 0.498191 0.530514
  C 3.204567 0.435049 1.448710
  C 2.915757 0.621459 2.931407
  H 3.841362 0.519461 3.493764
  C 2.216346 0.224361 -0.815630
  C 3.404219 -0.167389 -1.425498
  C 4.154280 -0.652648 -2.264642
  C 4.507612 -1.413751 -3.422562
  C 3.251813 -1.863505 -4.189792
  C 3.634647 -2.650366 -5.434996
  O 6.098088 -0.294405 -1.467164
  H 0.644007 1.073529 2.047813
  H 0.010849 0.004149 0.778580
  H 0.303040 1.687844 0.429118
  H 3.928629 1.192585 1.136316
  H 3.694167 -0.532041 1.287280
  H 2.218089 -0.126867 3.299059
  H 2.512833 1.609545 3.138521
  H 1.376572 0.337252 -1.483259
  H 5.484198 -0.039329 -0.764178
  H 5.119144 -2.275045 -3.146653
  H 5.106714 -0.773624 -4.073779
  H 2.667811 -0.990061 -4.481965
  H 2.637726 -2.489825 -3.538550
  H 4.241404 -2.044055 -6.104989
  H 2.741599 -2.960246 -5.972105
  H 4.197277 -3.543648 -5.176869
  H 6.958265 0.016050 -1.079660
 29
 46.129276
  C 0.700404 1.046576 1.200771
  C 1.949247 0.574585 0.585336
  C 3.195550 0.362525 1.358561
  C 3.117841 0.544295 2.867478
  H 4.089954 0.337630 3.305975
  C 1.944160 0.318510 -0.776497
  C 2.987107 -0.189325 -1.510993
  C 3.741126 -0.709849 -2.330962
  C 4.350621 -1.437601 -3.388800
  C 3.298949 -2.004354 -4.360607
  C 3.976388 -2.745434 -5.503979
  O 5.951740 -0.273772 -1.358160
  H 0.801368 1.258759 2.258594
  H -0.086386 0.304071 1.055650
  H 0.348073 1.943348 0.688307
  H 3.947311 1.056313 0.963533
  H 3.566299 -0.642115 1.127495
  H 2.399773 -0.140824 3.311400
  H 2.846517 1.563573 3.134801
  H 1.043226 0.526342 -1.344382
  H 5.298443 -0.052837 -0.690573
  H 4.990850 -2.226749 -2.985181
  H 4.999012 -0.737154 -3.931195
  H 2.694086 -1.194159 -4.765204
  H 2.637872 -2.687304 -3.822590
  H 4.632256 -2.084836 -6.065499
  H 3.228964 -3.140525 -6.190098
  H 4.569364 -3.577057 -5.130979
  H 6.781700 0.060429 -1.001936
 29
 43.668673
  C 0.831938 1.377986 1.096604
  C 2.013289 0.738701 0.501579
  C 3.105244 0.164632 1.318855
  C 2.909561 0.149375 2.828433
  H 3.767586 -0.325741 3.299050
  C 2.090160 0.678039 -0.888849
  C 3.067797 0.042810 -1.609607
  C 3.828917 -0.568817 -2.354320
  C 4.393751 -1.428539 -3.341258
  C 3.291916 -2.112979 -4.171731
  C 3.912138 -2.999537 -5.244738
  O 6.045380 -0.026393 -1.557527
  H 0.860253 1.400509 2.180216
  H -0.072031 0.857323 0.770693
  H 0.726936 2.396930 0.715184
  H 4.024163 0.719093 1.093968
  H 3.288787 -0.854700 0.954579
  H 2.022514 -0.415764 3.105134
  H 2.827608 1.157090 3.232312
  H 1.302574 1.136615 -1.474600
  H 5.568877 0.101354 -0.731725
  H 5.049337 -2.168398 -2.877974
  H 5.008291 -0.819392 -4.011176
  H 2.658208 -1.356231 -4.638035
  H 2.670417 -2.717360 -3.508834
  H 4.527782 -2.416569 -5.927424
  H 3.129948 -3.483533 -5.824845
  H 4.532480 -3.774856 -4.798283
  H 6.795250 0.580930 -1.515537
