 17
 0.000000
  H 1.433019 -0.076850 0.037190
  C 2.506133 -0.083343 0.024445
  C 3.220474 -0.593717 -0.977505
  C 4.657472 -0.605094 -0.999840
  C 5.379041 -1.120102 -2.010884
  C 6.816268 -1.130829 -2.031941
  C 7.534478 -1.641884 -3.035235
  C 9.023399 -1.662211 -3.075131
  H 3.002808 0.351865 0.878833
  H 2.711024 -1.027372 -1.828834
  H 5.161643 -0.170388 -0.146442
  H 4.874931 -1.554855 -2.864376
  H 7.322456 -0.696516 -1.179312
  H 7.035351 -2.077814 -3.891022
  H 9.456067 -1.209183 -2.185766
  H 9.382493 -1.117460 -3.949104
  H 9.382492 -2.689446 -3.148364
 17
 10.647960
  H 1.329710 -0.055695 0.078723
  C 2.405164 -0.068084 0.054401
  C 3.092826 -0.580076 -0.950725
  C 4.660071 -0.600788 -0.991387
  C 5.348606 -1.114152 -1.999204
  C 6.915029 -1.134701 -2.039541
  C 7.606150 -1.647265 -3.045796
  C 9.094303 -1.680238 -3.110524
  H 2.912313 0.364235 0.903115
  H 2.580990 -1.011432 -1.797541
  H 5.168863 -0.168873 -0.143467
  H 4.839276 -1.546031 -2.847055
  H 7.425723 -0.703219 -1.192470
  H 7.089539 -2.079212 -3.893769
  H 9.543029 -1.230493 -2.227602
  H 9.443725 -1.139556 -3.990403
  H 9.443723 -2.709860 -3.190521
 17
 33.858632
  H 1.242688 -0.035637 0.118184
  C 2.320253 -0.053745 0.082582
  C 2.971128 -0.569914 -0.930801
  C 4.670180 -0.591754 -0.973745
  C 5.319852 -1.112237 -1.995561
  C 7.014736 -1.134733 -2.039527
  C 7.667408 -1.650270 -3.051598
  C 9.153256 -1.699437 -3.148194
  H 2.833537 0.375143 0.924558
  H 2.487166 -1.006465 -1.787802
  H 5.152518 -0.155585 -0.117451
  H 4.835904 -1.548202 -2.851389
  H 7.501426 -0.699020 -1.184169
  H 7.131530 -2.075973 -3.887349
  H 9.620084 -1.254058 -2.273896
  H 9.489484 -1.163130 -4.035356
  H 9.489533 -2.732351 -3.236031
 17
 61.347619
  H 1.166202 -0.012857 0.162846
  C 2.246925 -0.040148 0.109252
  C 2.861345 -0.567267 -0.925605
  C 4.694297 -0.584813 -0.960067
  C 5.288574 -1.107547 -1.986282
  C 7.110436 -1.126349 -2.023090
  C 7.722445 -1.650900 -3.052864
  C 9.199391 -1.720258 -3.189097
  H 2.767557 0.382773 0.939541
  H 2.429173 -1.015384 -1.805334
  H 5.121324 -0.139092 -0.085018
  H 4.858071 -1.552825 -2.860444
  H 7.549834 -0.680512 -1.147839
  H 7.165529 -2.067869 -3.871429
  H 9.689304 -1.281866 -2.328501
  H 9.516389 -1.189781 -4.084884
  H 9.516445 -2.756738 -3.286707
 17
 90.429954
  H 1.053935 0.013873 0.215278
  C 2.134309 -0.024931 0.139109
  C 2.722795 -0.552211 -0.896015
  C 4.691553 -0.576749 -0.944159
  C 5.259748 -1.102410 -1.976118
  C 7.205432 -1.128624 -2.027628
  C 7.797109 -1.659223 -3.069294
  C 9.283711 -1.742846 -3.233429
  H 2.677734 0.396603 0.966635
  H 2.304369 -0.999573 -1.774264
  H 5.095631 -0.127793 -0.062796
  H 4.850405 -1.550493 -2.855777
  H 7.632575 -0.682994 -1.152797
  H 7.219809 -2.074488 -3.884537
  H 9.797319 -1.307300 -2.378345
  H 9.589235 -1.213139 -4.137933
  H 9.589213 -2.785927 -3.336793
 17
 117.346485
  H 0.955510 0.039603 0.265832
  C 2.037261 -0.010127 0.168187
  C 2.599306 -0.542886 -0.877717
  C 4.704716 -0.571848 -0.934581
  C 5.234021 -1.097792 -1.967097
  C 7.302895 -1.129019 -2.028396
  C 7.864715 -1.663651 -3.077966
  C 9.346557 -1.763021 -3.273014
  H 2.595139 0.406486 0.986066
  H 2.200653 -0.992113 -1.759624
  H 5.077409 -0.119611 -0.046765
  H 4.854509 -1.548980 -2.852843
  H 7.712303 -0.682265 -1.151354
  H 7.269515 -2.073711 -3.882982
  H 9.882133 -1.331830 -2.426505
  H 9.637605 -1.234595 -4.185807
  H 9.637590 -2.812023 -3.382279
 17
 140.662628
  H 0.854136 0.065441 0.316230
  C 1.932661 0.004256 0.196240
  C 2.472298 -0.531722 -0.855880
  C 4.719986 -0.566641 -0.924063
  C 5.210858 -1.092611 -1.956604
  C 7.396987 -1.130764 -2.031685
  C 7.934206 -1.669119 -3.088642
  C 9.414610 -1.784345 -3.315035
  H 2.506107 0.416847 1.006324
  H 2.087904 -0.981795 -1.739501
  H 5.058241 -0.111319 -0.030212
  H 4.863672 -1.546805 -2.848301
  H 7.794824 -0.683451 -1.153601
  H 7.323035 -2.074076 -3.883605
  H 9.971052 -1.359667 -2.481349
  H 9.689868 -1.260028 -4.230662
  H 9.689951 -2.833209 -3.429320
 17
 158.909895
  H 0.749880 0.090580 0.364875
  C 1.825110 0.017916 0.222687
  C 2.346284 -0.520317 -0.833544
  C 4.742551 -0.561282 -0.913047
  C 5.190306 -1.086999 -1.945018
  C 7.487180 -1.133343 -2.036412
  C 8.002366 -1.674592 -3.099323
  C 9.482919 -1.806185 -3.358230
  H 2.415098 0.428334 1.028540
  H 1.973839 -0.972039 -1.720394
  H 5.039151 -0.101823 -0.011101
  H 4.881696 -1.545333 -2.844869
  H 7.877592 -0.684345 -1.154980
  H 7.375439 -2.074927 -3.885227
  H 10.058495 -1.389979 -2.541170
  H 9.741634 -1.287427 -4.273587
  H 9.741926 -2.851561 -3.477053
 17
 171.891659
  H 0.639325 0.114798 0.411755
  C 1.717105 0.031178 0.248327
  C 2.223714 -0.508367 -0.810242
  C 4.774235 -0.555017 -0.900199
  C 5.173226 -1.081366 -1.933362
  C 7.574942 -1.137310 -2.043931
  C 8.069816 -1.680567 -3.110990
  C 9.546078 -1.827639 -3.400638
  H 2.321936 0.439735 1.050643
  H 1.860275 -0.964064 -1.704909
  H 5.023662 -0.088327 0.015901
  H 4.907832 -1.546599 -2.846786
  H 7.962735 -0.684539 -1.155107
  H 7.426838 -2.077578 -3.890351
  H 10.141864 -1.417196 -2.594919
  H 9.790420 -1.309516 -4.323037
  H 9.790879 -2.878251 -3.524251
 17
 180.864312
  H 0.525316 0.140491 0.461905
  C 1.598537 0.049483 0.284084
  C 2.091886 -0.492534 -0.779284
  C 4.781868 -0.549690 -0.889507
  C 5.151202 -1.077085 -1.924733
  C 7.671633 -1.145236 -2.059429
  C 8.150670 -1.691181 -3.131843
  C 9.623700 -1.849667 -3.444029
  H 2.210563 0.452861 1.076291
  H 1.730937 -0.946640 -1.670858
  H 5.012205 -0.083551 0.025515
  H 4.903703 -1.541559 -2.836688
  H 8.058373 -0.695501 -1.176558
  H 7.497797 -2.083064 -3.901122
  H 10.234845 -1.443039 -2.645819
  H 9.857710 -1.332752 -4.370539
  H 9.858240 -2.902908 -3.571094
 17
 186.460401
  H 0.409255 0.165656 0.510757
  C 1.480957 0.067214 0.318559
  C 1.961714 -0.476600 -0.748195
  C 4.790543 -0.545414 -0.880646
  C 5.129473 -1.073444 -1.917102
  C 7.768758 -1.154389 -2.077239
  C 8.232874 -1.702286 -3.153625
  C 9.699811 -1.871190 -3.486534
  H 2.104491 0.468209 1.106197
  H 1.600801 -0.930563 -1.639533
  H 5.002776 -0.077410 0.038027
  H 4.899366 -1.539976 -2.833128
  H 8.157525 -0.704580 -1.194238
  H 7.568001 -2.091150 -3.916933
  H 10.324461 -1.468836 -2.696755
  H 9.923584 -1.355601 -4.416123
  H 9.924235 -2.926065 -3.616561
 17
 189.593609
  H 0.294000 0.191335 0.560580
  C 1.363062 0.085577 0.354248
  C 1.831372 -0.460073 -0.715988
  C 4.797647 -0.541347 -0.872157
  C 5.106466 -1.070176 -1.910182
  C 7.865596 -1.164144 -2.096262
  C 8.315362 -1.713807 -3.176254
  C 9.778748 -1.893435 -3.530505
  H 1.996357 0.482993 1.134980
  H 1.470276 -0.914169 -1.607643
  H 4.991704 -0.072438 0.048290
  H 4.894787 -1.537515 -2.827820
  H 8.255261 -0.714742 -1.214073
  H 7.639883 -2.098620 -3.931557
  H 10.416883 -1.495464 -2.749385
  H 9.992583 -1.379008 -4.463310
  H 9.993391 -2.950237 -3.663457
 17
 191.017426
  H 0.179508 0.216640 0.609692
  C 1.246012 0.103847 0.389754
  C 1.701932 -0.443587 -0.683895
  C 4.804616 -0.537745 -0.864618
  C 5.083929 -1.067641 -1.904752
  C 7.963613 -1.174688 -2.116862
  C 8.399410 -1.726057 -3.200327
  C 9.857028 -1.915696 -3.574472
  H 1.889619 0.498177 1.164555
  H 1.341390 -0.897389 -1.575034
  H 4.980799 -0.067476 0.058512
  H 4.890686 -1.536659 -2.825710
  H 8.353440 -0.725430 -1.234956
  H 7.713086 -2.107329 -3.948626
  H 10.507932 -1.521875 -2.801550
  H 10.061102 -1.402329 -4.510177
  H 10.062004 -2.974129 -3.710050
 17
 191.429342
  H 0.066043 0.241869 0.658758
  C 1.129606 0.122311 0.425692
  C 1.572927 -0.426928 -0.651477
  C 4.811134 -0.534330 -0.857564
  C 5.061560 -1.065671 -1.900578
  C 8.062347 -1.185988 -2.139041
  C 8.484174 -1.739051 -3.225934
  C 9.936483 -1.938587 -3.619672
  H 1.782942 0.513300 1.194057
  H 1.213119 -0.880975 -1.543169
  H 4.969432 -0.063217 0.067263
  H 4.887175 -1.535524 -2.823210
  H 8.451613 -0.736743 -1.257133
  H 7.787350 -2.116511 -3.966704
  H 10.599822 -1.548944 -2.854983
  H 10.131077 -1.426167 -4.558255
  H 10.132093 -2.998849 -3.757784
