 17
 0.000000
  H 1.433019 -0.076850 0.037190
  C 2.506133 -0.083343 0.024445
  C 3.220474 -0.593717 -0.977505
  C 4.657472 -0.605094 -0.999840
  C 5.379041 -1.120102 -2.010884
  C 6.816268 -1.130829 -2.031941
  C 7.534478 -1.641884 -3.035235
  C 9.023399 -1.662211 -3.075131
  H 3.002808 0.351865 0.878833
  H 2.711024 -1.027372 -1.828834
  H 5.161643 -0.170388 -0.146442
  H 4.874931 -1.554855 -2.864376
  H 7.322456 -0.696516 -1.179312
  H 7.035351 -2.077814 -3.891022
  H 9.456067 -1.209183 -2.185766
  H 9.382493 -1.117460 -3.949104
  H 9.382492 -2.689446 -3.148364
 17
 7.876763
  H 1.384282 -0.061571 0.067180
  C 2.459549 -0.071131 0.048417
  C 3.161232 -0.584298 -0.959012
  C 4.601700 -0.603406 -0.996520
  C 5.302650 -1.117777 -2.006314
  C 6.899000 -1.134264 -2.038683
  C 7.595902 -1.644984 -3.041319
  C 9.084535 -1.674093 -3.098462
  H 2.960922 0.362358 0.899428
  H 2.643530 -1.016090 -1.806689
  H 5.116450 -0.171078 -0.147790
  H 4.800436 -1.550973 -2.856751
  H 7.402568 -0.701382 -1.188864
  H 7.084682 -2.078266 -3.891911
  H 9.527688 -1.223193 -2.213273
  H 9.436956 -1.132470 -3.976554
  H 9.436956 -2.702824 -3.176648
 17
 24.768805
  H 1.335265 -0.044953 0.099806
  C 2.409831 -0.057663 0.074857
  C 3.098269 -0.573531 -0.937875
  C 4.542314 -0.599969 -0.989775
  C 5.225910 -1.117520 -2.005811
  C 6.981541 -1.136144 -2.042374
  C 7.660203 -1.650209 -3.051577
  C 9.150813 -1.687678 -3.125135
  H 2.916753 0.374602 0.923466
  H 2.572771 -1.003373 -1.781723
  H 5.066380 -0.169665 -0.145019
  H 4.735042 -1.552239 -2.859235
  H 7.472879 -0.701612 -1.189320
  H 7.137971 -2.081103 -3.897485
  H 9.604361 -1.238789 -2.243891
  H 9.496434 -1.148601 -4.007353
  H 9.496438 -2.718261 -3.207808
 17
 43.545457
  H 1.307897 -0.029982 0.129172
  C 2.383700 -0.047337 0.095117
  C 3.048016 -0.564993 -0.921103
  C 4.494464 -0.602124 -0.993985
  C 5.148376 -1.123274 -2.017076
  C 7.063735 -1.132249 -2.034719
  C 7.708818 -1.648678 -3.048576
  C 9.199941 -1.698136 -3.145659
  H 2.897748 0.382383 0.938712
  H 2.512160 -0.991826 -1.759046
  H 5.029095 -0.175097 -0.155674
  H 4.703697 -1.565352 -2.884965
  H 7.506717 -0.690070 -1.166651
  H 7.173304 -2.075399 -3.886311
  H 9.667723 -1.252645 -2.271106
  H 9.533805 -1.162809 -4.034123
  H 9.533829 -2.731572 -3.235071
 17
 62.461519
  H 1.248184 -0.005180 0.177852
  C 2.324006 -0.027361 0.134327
  C 2.986522 -0.558003 -0.907384
  C 4.437130 -0.603210 -0.996111
  C 5.071862 -1.124650 -2.019766
  C 7.146584 -1.133124 -2.036436
  C 7.777332 -1.654657 -3.060312
  C 9.271794 -1.712754 -3.174358
  H 2.846900 0.401071 0.975398
  H 2.441287 -0.982973 -1.741668
  H 4.981147 -0.178579 -0.162503
  H 4.642032 -1.570261 -2.894595
  H 7.573559 -0.687016 -1.160653
  H 7.231415 -2.079066 -3.893507
  H 9.750773 -1.269550 -2.304287
  H 9.598311 -1.178948 -4.066802
  H 9.598322 -2.748496 -3.267334
 17
 79.208064
  H 1.226690 0.022863 0.232926
  C 2.301446 -0.011423 0.165627
  C 2.928725 -0.548976 -0.889664
  C 4.381623 -0.612064 -1.013510
  C 4.999880 -1.144649 -2.059050
  C 7.233712 -1.127080 -2.024593
  C 7.828571 -1.646716 -3.044727
  C 9.322183 -1.723109 -3.194689
  H 2.845927 0.410760 0.994439
  H 2.362652 -0.967666 -1.711625
  H 4.939238 -0.191003 -0.186901
  H 4.659288 -1.603338 -2.959539
  H 7.566592 -0.668159 -1.123650
  H 7.267717 -2.066030 -3.867908
  H 9.823611 -1.285537 -2.335669
  H 9.630115 -1.191913 -4.094308
  H 9.630122 -2.763131 -3.293976
 17
 94.442760
  H 1.188666 0.038543 0.263728
  C 2.261888 -0.002275 0.183592
  C 2.868345 -0.539867 -0.871786
  C 4.317003 -0.610852 -1.011146
  C 4.917688 -1.140433 -2.050787
  C 7.310972 -1.125367 -2.021228
  C 7.897363 -1.651174 -3.053477
  C 9.390473 -1.736913 -3.221790
  H 2.818332 0.415568 1.003883
  H 2.291424 -0.954515 -1.685802
  H 4.883165 -0.192794 -0.190433
  H 4.586934 -1.597683 -2.948444
  H 7.631901 -0.667430 -1.122226
  H 7.327168 -2.067967 -3.871711
  H 9.904406 -1.302773 -2.369498
  H 9.689395 -1.207355 -4.124654
  H 9.689409 -2.778607 -3.324311
 17
 107.181782
  H 1.137718 0.055301 0.296623
  C 2.209776 0.009674 0.207049
  C 2.802493 -0.529147 -0.850739
  C 4.252288 -0.606696 -1.002982
  C 4.840438 -1.136675 -2.043405
  C 7.393252 -1.129991 -2.030304
  C 7.968835 -1.658074 -3.067022
  C 9.465526 -1.751250 -3.249940
  H 2.776483 0.425580 1.023531
  H 2.215774 -0.941479 -1.660211
  H 4.827780 -0.190471 -0.185867
  H 4.500927 -1.595955 -2.945050
  H 7.722581 -0.669645 -1.126571
  H 7.389157 -2.072782 -3.881163
  H 9.990081 -1.319341 -2.402029
  H 9.758700 -1.222848 -4.155960
  H 9.758716 -2.794824 -3.355254
 17
 117.401698
  H 1.088970 0.074127 0.333577
  C 2.159982 0.022992 0.233194
  C 2.738809 -0.519081 -0.830980
  C 4.188620 -0.604225 -0.998128
  C 4.766335 -1.136085 -2.042244
  C 7.478532 -1.134154 -2.038473
  C 8.042585 -1.663868 -3.078394
  C 9.536962 -1.764933 -3.276796
  H 2.737222 0.436146 1.044276
  H 2.142099 -0.928591 -1.634911
  H 4.772151 -0.190394 -0.185714
  H 4.429174 -1.595008 -2.943187
  H 7.804551 -0.674218 -1.135544
  H 7.454519 -2.076270 -3.888006
  H 10.071967 -1.335675 -2.434085
  H 9.822722 -1.237706 -4.185882
  H 9.822728 -2.810269 -3.384857
 17
 125.418356
  H 1.041084 0.092752 0.370137
  C 2.110801 0.036103 0.258931
  C 2.675531 -0.508961 -0.811111
  C 4.124294 -0.601643 -0.993055
  C 4.691976 -1.134979 -2.040068
  C 7.563510 -1.138535 -2.047075
  C 8.116693 -1.669778 -3.090000
  C 9.610893 -1.779140 -3.304691
  H 2.698047 0.446090 1.063797
  H 2.069360 -0.915341 -1.608900
  H 4.715987 -0.189950 -0.184841
  H 4.355632 -1.594181 -2.941563
  H 7.887848 -0.678164 -1.143292
  H 7.520082 -2.079789 -3.894918
  H 10.156688 -1.352776 -2.467660
  H 9.889169 -1.253219 -4.216706
  H 9.889176 -2.826088 -3.415534
 17
 131.499791
  H 0.993718 0.111176 0.406305
  C 2.062075 0.049087 0.284419
  C 2.612774 -0.498834 -0.791232
  C 4.060500 -0.598991 -0.987850
  C 4.618961 -1.133768 -2.037689
  C 7.649776 -1.143277 -2.056387
  C 8.192895 -1.676052 -3.102317
  C 9.685164 -1.793513 -3.332908
  H 2.659631 0.456222 1.083689
  H 1.996926 -0.902334 -1.583367
  H 4.660051 -0.189522 -0.184000
  H 4.283103 -1.592912 -2.939068
  H 7.972682 -0.682916 -1.152624
  H 7.588058 -2.083722 -3.902642
  H 10.241507 -1.369974 -2.501422
  H 9.955904 -1.268786 -4.247800
  H 9.955912 -2.842089 -3.446408
 17
 135.991499
  H 0.947054 0.129293 0.441873
  C 2.013877 0.061922 0.309614
  C 2.551000 -0.488704 -0.771346
  C 3.997021 -0.596084 -0.982142
  C 4.546839 -1.132222 -2.034653
  C 7.736867 -1.148566 -2.066767
  C 8.270514 -1.682796 -3.115555
  C 9.760893 -1.808226 -3.361791
  H 2.621029 0.465993 1.102870
  H 1.926103 -0.889201 -1.557586
  H 4.604298 -0.188776 -0.182535
  H 4.210311 -1.591299 -2.935901
  H 8.059578 -0.688141 -1.162882
  H 7.657512 -2.088141 -3.911317
  H 10.327519 -1.387562 -2.535946
  H 10.024296 -1.284657 -4.279430
  H 10.024301 -2.858335 -3.477841
 17
 139.220808
  H 0.901077 0.147003 0.476638
  C 1.966349 0.074547 0.334400
  C 2.490354 -0.478592 -0.751494
  C 3.934511 -0.592920 -0.975931
  C 4.476166 -1.130402 -2.031078
  C 7.825319 -1.154497 -2.078410
  C 8.350000 -1.690175 -3.130040
  C 9.837906 -1.823275 -3.391341
  H 2.582933 0.475780 1.122083
  H 1.856573 -0.876273 -1.532204
  H 4.549327 -0.187785 -0.180588
  H 4.138068 -1.589207 -2.931791
  H 8.148739 -0.694260 -1.174896
  H 7.729042 -2.093181 -3.921218
  H 10.414506 -1.405404 -2.570975
  H 10.094169 -1.300838 -4.311519
  H 10.094176 -2.874785 -3.509803
 17
 141.457400
  H 0.856100 0.164148 0.510294
  C 1.919751 0.086923 0.358696
  C 2.431476 -0.468521 -0.731723
  C 3.873484 -0.589352 -0.968924
  C 4.407233 -1.128189 -2.026730
  C 7.915392 -1.161343 -2.091849
  C 8.431445 -1.698459 -3.146303
  C 9.916743 -1.838765 -3.421746
  H 2.544977 0.485348 1.140861
  H 1.789493 -0.863432 -1.506996
  H 4.495614 -0.186375 -0.177818
  H 4.066262 -1.586574 -2.926620
  H 8.240959 -0.701414 -1.188936
  H 7.802750 -2.099152 -3.932939
  H 10.502684 -1.423616 -2.606721
  H 10.166362 -1.317357 -4.344314
  H 10.166364 -2.891588 -3.542443
