 29
 0.000000
  C 0.905010 0.048732 0.272087
  C 2.397119 0.059132 0.087713
  C 3.239386 -0.012339 1.354442
  C 2.525486 -0.088357 2.701541
  C 3.528099 -0.153060 3.848286
  C 2.993457 0.127312 -1.120556
  C 2.355164 0.204812 -2.494030
  C 0.844763 0.217254 -2.714439
  H 0.622485 0.276994 -3.773184
  C 4.452435 0.132137 -1.205992
  C 5.194383 0.194637 -2.313741
  O 6.554207 0.195407 -2.327314
  H 0.603708 -0.009985 1.312632
  H 0.461655 -0.817161 -0.212643
  H 0.461655 0.963659 -0.112156
  H 3.885380 0.871450 1.384513
  H 3.885382 -0.893901 1.284900
  H 1.892847 -0.977844 2.744588
  H 1.892838 0.790639 2.844379
  H 4.163174 -1.032384 3.760772
  H 3.004870 -0.206803 4.800630
  H 4.163168 0.730525 3.860245
  H 2.745123 -0.643731 -3.066940
  H 2.745121 1.112421 -2.967842
  H 0.388658 1.076511 -2.230345
  H 0.388658 -0.691011 -2.330082
  H 4.996635 0.079539 -0.273824
  H 4.818912 0.251529 -3.321943
  H 6.882645 0.144223 -1.420191
 29
 11.784783
  C 0.865152 0.046015 0.320077
  C 2.351876 0.055556 0.151131
  C 3.211861 -0.014541 1.393569
  C 2.515555 -0.091091 2.749971
  C 3.538650 -0.154788 3.878984
  C 3.020067 0.131754 -1.199142
  C 2.370299 0.208594 -2.560934
  C 0.855787 0.219023 -2.745770
  H 0.617696 0.278745 -3.804174
  C 4.465716 0.135124 -1.258827
  C 5.228156 0.196983 -2.355224
  O 6.588346 0.196247 -2.342617
  H 0.564584 -0.012736 1.361167
  H 0.423375 -0.817030 -0.172978
  H 0.423362 0.959043 -0.072757
  H 3.859489 0.869446 1.413301
  H 3.859500 -0.895120 1.313731
  H 1.884825 -0.981373 2.802387
  H 1.884806 0.787627 2.902209
  H 4.172987 -1.033253 3.778626
  H 3.033725 -0.209089 4.841141
  H 4.172967 0.729401 3.878086
  H 2.754089 -0.640069 -3.138996
  H 2.754083 1.116907 -3.039853
  H 0.406807 1.077017 -2.254950
  H 0.406816 -0.688738 -2.354592
  H 4.993779 0.081923 -0.316135
  H 4.869816 0.254223 -3.369493
  H 6.900636 0.144740 -1.429993
 29
 35.376003
  C 0.828738 0.045685 0.326169
  C 2.303771 0.052699 0.201660
  C 3.205023 -0.014750 1.396990
  C 2.519368 -0.091676 2.760276
  C 3.554378 -0.154786 3.878813
  C 3.050866 0.136703 -1.287110
  C 2.381453 0.211172 -2.606750
  C 0.865383 0.217569 -2.719976
  H 0.590015 0.277432 -3.780843
  C 4.465380 0.136423 -1.282210
  C 5.245690 0.196655 -2.349583
  O 6.602555 0.194029 -2.302433
  H 0.531396 -0.012949 1.365276
  H 0.388915 -0.810881 -0.184810
  H 0.388927 0.954302 -0.085202
  H 3.854972 0.866895 1.409375
  H 3.854962 -0.892198 1.310123
  H 1.889324 -0.981940 2.813903
  H 1.889351 0.786890 2.913698
  H 4.188003 -1.032584 3.768078
  H 3.063225 -0.209466 4.847956
  H 4.188041 0.729930 3.867517
  H 2.757317 -0.634060 -3.192585
  H 2.757316 1.116926 -3.093774
  H 0.433331 1.075711 -2.213041
  H 0.433317 -0.692160 -2.312797
  H 4.965866 0.082446 -0.325621
  H 4.902904 0.254129 -3.367950
  H 6.892296 0.142072 -1.381507
 29
 60.998497
  C 0.768808 0.044226 0.352206
  C 2.236754 0.049566 0.257279
  C 3.179331 -0.015292 1.406580
  C 2.529674 -0.093226 2.787828
  C 3.592833 -0.154847 3.879785
  C 3.062699 0.141384 -1.369966
  C 2.372798 0.214921 -2.673229
  C 0.855828 0.218490 -2.736555
  H 0.547949 0.277743 -3.786565
  C 4.474743 0.137101 -1.293921
  C 5.311501 0.196456 -2.345899
  O 6.672262 0.190662 -2.242831
  H 0.464896 -0.014459 1.392201
  H 0.332127 -0.806148 -0.169684
  H 0.332144 0.947930 -0.070701
  H 3.831949 0.866578 1.396496
  H 3.831937 -0.890443 1.297353
  H 1.902797 -0.984273 2.853927
  H 1.902829 0.784719 2.953739
  H 4.224722 -1.031544 3.751204
  H 3.128247 -0.210257 4.861870
  H 4.224764 0.730767 3.850638
  H 2.731729 -0.627707 -3.268176
  H 2.731722 1.119119 -3.169597
  H 0.440779 1.077495 -2.215342
  H 0.440774 -0.693708 -2.315281
  H 4.936063 0.082155 -0.320072
  H 5.000183 0.254581 -3.376224
  H 6.923753 0.137883 -1.307245
 29
 86.846502
  C 0.742115 0.039932 0.428255
  C 2.212096 0.045429 0.330627
  C 3.158041 -0.018975 1.471897
  C 2.508013 -0.097108 2.856623
  C 3.569668 -0.158756 3.949087
  C 3.103859 0.145432 -1.441654
  C 2.403300 0.219079 -2.746905
  C 0.880365 0.221791 -2.795081
  H 0.560358 0.280618 -3.837595
  C 4.494535 0.141280 -1.367943
  C 5.332065 0.201456 -2.434479
  O 6.689817 0.196242 -2.341895
  H 0.439414 -0.018943 1.471581
  H 0.302894 -0.812866 -0.094227
  H 0.302909 0.946104 0.005037
  H 3.810387 0.862823 1.459814
  H 3.810377 -0.893823 1.360690
  H 1.880323 -0.988735 2.921873
  H 1.880342 0.781519 3.021760
  H 4.201565 -1.035402 3.821051
  H 3.104210 -0.214139 4.930670
  H 4.201591 0.726732 3.920479
  H 2.760152 -0.630083 -3.349812
  H 2.760146 1.130674 -3.250454
  H 0.471888 1.078651 -2.269952
  H 0.471892 -0.688707 -2.369677
  H 4.960300 0.086180 -0.391368
  H 5.013022 0.259365 -3.460947
  H 6.944770 0.143989 -1.415704
 29
 109.821153
  C 0.705062 0.037566 0.470170
  C 2.168626 0.042100 0.389632
  C 3.130655 -0.021078 1.509178
  C 2.494760 -0.099624 2.901180
  C 3.566418 -0.160699 3.983518
  C 3.132302 0.150114 -1.524615
  C 2.412659 0.222568 -2.808716
  C 0.892738 0.222499 -2.807590
  H 0.537203 0.280747 -3.839862
  C 4.521991 0.144623 -1.427192
  C 5.373128 0.204185 -2.482850
  O 6.736130 0.197906 -2.371438
  H 0.395481 -0.021163 1.510896
  H 0.269710 -0.812718 -0.057749
  H 0.269723 0.941854 0.041266
  H 3.783911 0.861259 1.487993
  H 3.783902 -0.895436 1.388867
  H 1.868269 -0.990875 2.970755
  H 1.868289 0.778139 3.070570
  H 4.197487 -1.037146 3.849284
  H 3.110374 -0.216334 4.969540
  H 4.197516 0.725298 3.948729
  H 2.753500 -0.622362 -3.417678
  H 2.753487 1.130627 -3.318754
  H 0.501476 1.079930 -2.266516
  H 0.501481 -0.690358 -2.366406
  H 4.974950 0.089269 -0.446142
  H 5.062733 0.262246 -3.511930
  H 6.980992 0.144926 -1.432352
 29
 129.189091
  C 0.665593 0.034446 0.525461
  C 2.130209 0.038450 0.454349
  C 3.105194 -0.023909 1.559398
  C 2.481421 -0.102881 2.958873
  C 3.561618 -0.163466 4.032553
  C 3.165810 0.154478 -1.601858
  C 2.432320 0.226394 -2.876454
  C 0.909784 0.224416 -2.841593
  H 0.527786 0.282187 -3.865418
  C 4.541563 0.148013 -1.487212
  C 5.407617 0.207449 -2.540675
  O 6.763890 0.200440 -2.416525
  H 0.348744 -0.024295 1.566363
  H 0.232005 -0.816285 -0.006910
  H 0.232015 0.939676 0.092186
  H 3.758284 0.858017 1.530805
  H 3.758282 -0.897024 1.431771
  H 1.855318 -0.994614 3.032112
  H 1.855334 0.774940 3.131962
  H 4.191912 -1.039574 3.893318
  H 3.113339 -0.219307 5.022153
  H 4.191947 0.722773 3.992762
  H 2.763923 -0.621407 -3.493050
  H 2.763911 1.138168 -3.393756
  H 0.532063 1.080252 -2.290310
  H 0.532068 -0.688011 -2.390079
  H 4.984316 0.092291 -0.499709
  H 5.104494 0.265622 -3.571628
  H 6.994799 0.147962 -1.486438
 29
 145.032400
  C 0.628736 0.031442 0.578646
  C 2.088019 0.034929 0.516751
  C 3.075375 -0.026301 1.601817
  C 2.466953 -0.105741 3.009583
  C 3.557958 -0.165667 4.071630
  C 3.193973 0.159012 -1.682204
  C 2.442526 0.230137 -2.942817
  C 0.922686 0.225725 -2.864812
  H 0.509644 0.282693 -3.874452
  C 4.563710 0.151427 -1.547722
  C 5.443981 0.210297 -2.591152
  O 6.806736 0.202229 -2.448268
  H 0.305097 -0.027234 1.618420
  H 0.198238 -0.817926 0.042477
  H 0.198246 0.935746 0.141443
  H 3.728599 0.856199 1.563853
  H 3.728596 -0.898927 1.464813
  H 1.841912 -0.997382 3.087703
  H 1.841926 0.771441 3.187512
  H 4.187265 -1.041497 3.925825
  H 3.119861 -0.221761 5.065756
  H 4.187276 0.721010 4.025279
  H 2.759878 -0.616736 -3.565810
  H 2.759863 1.141706 -3.466580
  H 0.561713 1.081099 -2.300483
  H 0.561728 -0.687692 -2.400291
  H 4.993897 0.095418 -0.555129
  H 5.149853 0.268610 -3.624513
  H 7.029033 0.148774 -1.500911
 29
 157.092968
  C 0.590393 0.027504 0.648391
  C 2.050569 0.031321 0.580662
  C 3.036883 -0.029627 1.660767
  C 2.446071 -0.109861 3.082572
  C 3.550097 -0.169089 4.132291
  C 3.226509 0.163475 -1.761226
  C 2.464589 0.234402 -3.018332
  C 0.944210 0.228128 -2.907340
  H 0.505906 0.284395 -3.904577
  C 4.587502 0.155429 -1.618643
  C 5.483555 0.214135 -2.659155
  O 6.831108 0.205384 -2.504318
  H 0.252004 -0.031289 1.690212
  H 0.165720 -0.820399 0.107534
  H 0.165726 0.930879 0.206366
  H 3.688371 0.851552 1.612600
  H 3.688373 -0.899791 1.513773
  H 1.822110 -1.002076 3.167716
  H 1.822118 0.767102 3.267544
  H 4.178329 -1.044488 3.979214
  H 3.123833 -0.225494 5.131896
  H 4.178341 0.717986 4.078666
  H 2.771556 -0.614497 -3.647515
  H 2.771548 1.148697 -3.548028
  H 0.597109 1.082172 -2.333032
  H 0.597115 -0.685115 -2.432740
  H 5.008337 0.099109 -0.620574
  H 5.199218 0.272573 -3.694690
  H 7.037855 0.152802 -1.572517
 29
 159.475529
  C 0.553701 0.021426 0.756058
  C 2.002978 0.028717 0.626669
  C 2.948535 -0.033296 1.725650
  C 2.406868 -0.115173 3.176615
  C 3.539440 -0.172591 4.194350
  C 3.246167 0.168984 -1.859516
  C 2.493831 0.240114 -3.120035
  C 0.982168 0.229886 -2.938423
  H 0.495165 0.285082 -3.916034
  C 4.628891 0.161060 -1.718449
  C 5.541296 0.218854 -2.742966
  O 6.875479 0.209644 -2.579380
  H 0.184336 -0.037304 1.796941
  H 0.149216 -0.825199 0.205964
  H 0.149230 0.924566 0.304699
  H 3.589954 0.849439 1.652931
  H 3.589943 -0.902264 1.554088
  H 1.785438 -1.006732 3.279753
  H 1.785463 0.759139 3.379386
  H 4.164782 -1.046991 4.021888
  H 3.145794 -0.229730 5.207220
  H 4.164801 0.715669 4.121326
  H 2.785192 -0.603608 -3.759581
  H 2.785187 1.150456 -3.660546
  H 0.662969 1.083802 -2.347195
  H 0.662938 -0.685108 -2.447038
  H 5.038640 0.104303 -0.712152
  H 5.262024 0.277573 -3.784155
  H 7.079745 0.156797 -1.642244
 29
 157.856830
  C 0.508147 0.015448 0.862138
  C 1.963229 0.024161 0.707544
  C 2.899756 -0.038853 1.824201
  C 2.375198 -0.120748 3.275439
  C 3.520032 -0.177332 4.278277
  C 3.270507 0.172641 -1.924498
  C 2.528022 0.244717 -3.201604
  C 1.012549 0.234066 -3.012673
  H 0.519951 0.288714 -3.980443
  C 4.661431 0.166173 -1.808811
  C 5.562543 0.224186 -2.837473
  O 6.898228 0.216062 -2.693213
  H 0.131726 -0.042925 1.896734
  H 0.108471 -0.833146 0.305696
  H 0.108484 0.921261 0.404689
  H 3.540882 0.846084 1.741838
  H 3.540857 -0.908925 1.642805
  H 1.754554 -1.013489 3.385930
  H 1.754579 0.753928 3.485653
  H 4.144037 -1.051099 4.098124
  H 3.139299 -0.234744 5.296061
  H 4.144037 0.711131 4.197541
  H 2.820840 -0.601068 -3.845327
  H 2.820833 1.157615 -3.746030
  H 0.698101 1.086105 -2.419308
  H 0.698070 -0.679329 -2.518958
  H 5.078801 0.109564 -0.804828
  H 5.271438 0.282706 -3.875673
  H 7.120956 0.163003 -1.751953
 29
 152.479821
  C 0.450747 -0.001846 1.100743
  C 1.903284 0.012839 0.877407
  C 2.799743 -0.051343 2.039383
  C 2.284481 -0.133085 3.481561
  C 3.439049 -0.187679 4.475198
  C 3.319093 0.176741 -2.037363
  C 2.636232 0.259572 -3.358728
  C 1.117464 0.247600 -3.198724
  H 0.621597 0.303627 -4.166320
  C 4.748548 0.190006 -2.047947
  C 5.579824 0.232993 -3.109226
  O 6.917894 0.222689 -3.055663
  H 0.070605 -0.059825 2.125871
  H 0.061914 -0.835139 0.512003
  H 0.058919 0.890532 0.608511
  H 3.455159 0.821770 1.924023
  H 3.457018 -0.904574 1.826759
  H 1.666888 -1.026803 3.600105
  H 1.664825 0.740304 3.699554
  H 4.063112 -1.060495 4.289808
  H 3.067102 -0.245574 5.496488
  H 4.061069 0.701809 4.389006
  H 2.940134 -0.584908 -3.989741
  H 2.937414 1.171705 -3.890215
  H 0.803460 1.091367 -2.591177
  H 0.806621 -0.662320 -2.693861
  H 5.213516 0.147436 -1.064121
  H 5.229051 0.270325 -4.133181
  H 7.220794 0.188185 -2.128277
