 20
 0.000000
  C 0.969583 0.053381 0.189688
  C 2.473054 0.053944 0.179677
  C 3.241866 -0.019409 1.479741
  C 2.427215 -0.092019 2.766447
  H 3.098877 -0.140184 3.620079
  C 3.110950 0.120299 -0.996249
  H 2.559628 0.172702 -1.924977
  C 4.542822 0.130346 -1.174243
  C 5.136990 0.197645 -2.367046
  O 6.478016 0.209482 -2.576782
  H 0.555502 -0.003073 1.190113
  H 0.587814 -0.800140 -0.369563
  H 0.587815 0.964399 -0.269993
  H 3.891554 0.859673 1.543399
  H 3.891557 -0.900071 1.444101
  H 1.796384 -0.978576 2.781527
  H 1.796378 0.787208 2.881168
  H 5.170178 0.080639 -0.293274
  H 4.603063 0.250512 -3.304000
  H 6.937706 0.161629 -1.728627
 20
 10.426691
  C 0.967239 0.057083 0.124083
  C 2.466337 0.057695 0.113205
  C 3.294957 -0.022184 1.528918
  C 2.390029 -0.100244 2.912199
  H 3.052447 -0.148675 3.770541
  C 3.110363 0.123448 -1.052062
  H 2.560820 0.175924 -1.982067
  C 4.542768 0.133118 -1.223373
  C 5.140444 0.200329 -2.414620
  O 6.481484 0.212001 -2.621432
  H 0.555453 0.000512 1.126577
  H 0.585634 -0.796135 -0.435808
  H 0.585635 0.967872 -0.336268
  H 3.939216 0.854434 1.598604
  H 3.939218 -0.901074 1.499546
  H 1.761171 -0.985579 2.914977
  H 1.761165 0.779152 3.014559
  H 5.165885 0.083248 -0.339505
  H 4.607688 0.253244 -3.352418
  H 6.939498 0.164098 -1.772395
 20
 32.228174
  C 0.957435 0.056274 0.138397
  C 2.446562 0.061330 0.048774
  C 3.361552 -0.024606 1.571806
  C 2.312534 -0.105535 3.005959
  H 2.969550 -0.154014 3.865135
  C 3.130238 0.126988 -1.114786
  H 2.574133 0.179521 -2.045807
  C 4.565173 0.135922 -1.273056
  C 5.164820 0.203015 -2.462202
  O 6.505169 0.214853 -2.671967
  H 0.609234 -0.001477 1.161816
  H 0.551444 -0.796220 -0.408047
  H 0.551446 0.964834 -0.308672
  H 3.983833 0.858173 1.651649
  H 3.983843 -0.910765 1.551834
  H 1.700924 -0.995789 2.943840
  H 1.700908 0.786060 3.044386
  H 5.175454 0.085618 -0.381504
  H 4.625800 0.255745 -3.396738
  H 6.966005 0.167034 -1.824413
