 20
 0.000000
  C 0.950753 0.053518 0.187267
  C 2.451974 0.059691 0.077820
  C 3.211558 -0.013627 1.377217
  H 2.548063 -0.061960 2.233688
  C 3.075242 0.126931 -1.113775
  C 2.337461 0.200574 -2.418869
  H 1.258853 0.194747 -2.315553
  C 4.524360 0.132677 -1.215550
  C 5.229154 0.196413 -2.345197
  O 6.585659 0.200097 -2.410428
  H 0.633711 -0.005051 1.225166
  H 0.524266 -0.804556 -0.331957
  H 0.524270 0.964558 -0.232126
  H 3.851938 0.860818 1.496890
  H 3.851930 -0.895971 1.397757
  H 2.625703 -0.643830 -3.046377
  H 2.625698 1.110191 -2.947382
  H 5.080887 0.080353 -0.288245
  H 4.806249 0.252300 -3.335599
  H 6.951964 0.149801 -1.519023
 20
 12.984895
  C 0.810891 0.051522 0.222645
  C 2.483395 0.057159 0.122701
  C 3.222541 -0.016011 1.419474
  H 2.539761 -0.063583 2.262497
  C 3.132576 0.129354 -1.156714
  C 2.360021 0.201674 -2.438380
  H 1.288154 0.192995 -2.284536
  C 4.574461 0.134772 -1.252676
  C 5.280451 0.198785 -2.387235
  O 6.637327 0.202582 -2.454478
  H 0.508235 -0.007114 1.261745
  H 0.409025 -0.806921 -0.305918
  H 0.409028 0.963978 -0.205987
  H 3.860520 0.859121 1.551496
  H 3.860523 -0.900436 1.452210
  H 2.623455 -0.643361 -3.075145
  H 2.623452 1.112969 -2.976031
  H 5.129266 0.082374 -0.324048
  H 4.853476 0.254573 -3.375928
  H 7.006093 0.152293 -1.563160
 20
 38.582540
  C 0.650867 0.050792 0.235559
  C 2.562015 0.056437 0.135502
  C 3.236217 -0.016822 1.433834
  H 2.509009 -0.062648 2.245913
  C 3.174149 0.131023 -1.186313
  C 2.358861 0.201711 -2.439098
  H 1.296595 0.189162 -2.216704
  C 4.621669 0.135949 -1.273580
  C 5.317010 0.199991 -2.408626
  O 6.683337 0.204753 -2.492951
  H 0.439704 -0.008431 1.285063
  H 0.332902 -0.813610 -0.303414
  H 0.332903 0.970345 -0.202748
  H 3.868709 0.859772 1.593703
  H 3.868713 -0.905833 1.494074
  H 2.590553 -0.640509 -3.084243
  H 2.590557 1.111177 -2.985421
  H 5.173583 0.083292 -0.340316
  H 4.872809 0.255016 -3.383838
  H 7.074311 0.153596 -1.586180
