 26
 0.000000
  H 1.438820 0.159021 0.450338
  C 2.517470 0.145657 0.415326
  C 3.266506 0.618016 1.587903
  C 2.400451 1.085044 2.750513
  H 3.019709 1.417452 3.575532
  C 3.088694 -0.323148 -0.751277
  C 4.464157 -0.415078 -0.981482
  C 5.133282 -0.870351 -2.117139
  C 4.615783 -1.388779 -3.410309
  C 3.122089 -1.499774 -3.688552
  C 2.894109 -2.061492 -5.089800
  O 6.448796 -0.869687 -2.116055
  H 3.926124 1.438975 1.282416
  H 3.927482 -0.184745 1.935731
  H 1.761629 0.278042 3.103443
  H 1.760320 1.910754 2.446611
  H 2.412232 -0.635056 -1.526933
  H 5.096596 -0.086861 -0.164621
  H 5.070350 -2.377723 -3.542598
  H 5.071039 -0.765613 -4.189152
  H 2.650633 -0.518058 -3.632469
  H 2.649984 -2.170505 -2.969957
  H 3.332499 -1.414804 -5.846165
  H 1.829314 -2.142441 -5.292772
  H 3.331916 -3.051849 -5.189823
  H 6.852945 -0.539545 -1.290666
 26
 8.162727
  H 1.488284 0.155056 0.438469
  C 2.565737 0.158226 0.445213
  C 3.236127 0.641696 1.646893
  C 2.282389 1.082810 2.746046
  H 2.838038 1.432148 3.614550
  C 3.204811 -0.293361 -0.678810
  C 4.533661 -0.413952 -0.979425
  C 5.184157 -0.893541 -2.174992
  C 4.612047 -1.399615 -3.436588
  C 3.102326 -1.490753 -3.666567
  C 2.830900 -2.050788 -5.062404
  O 6.497340 -0.909734 -2.216094
  H 3.901132 1.471660 1.375520
  H 3.902183 -0.144414 2.025001
  H 1.644856 0.259981 3.059187
  H 1.643776 1.892839 2.403010
  H 2.766859 -0.655391 -1.579932
  H 5.230160 -0.102106 -0.202295
  H 5.049290 -2.395340 -3.587170
  H 5.050656 -0.785113 -4.233795
  H 2.640958 -0.504363 -3.601691
  H 2.639246 -2.158067 -2.938186
  H 3.257078 -1.409137 -5.829981
  H 1.760722 -2.120454 -5.238372
  H 3.255640 -3.045700 -5.173057
  H 6.952284 -0.582774 -1.401100
 26
 24.361514
  H 1.523947 0.120537 0.360521
  C 2.602597 0.147167 0.416894
  C 3.217681 0.645952 1.650976
  C 2.211758 1.066982 2.711990
  H 2.723052 1.426139 3.600072
  C 3.301885 -0.282253 -0.653693
  C 4.605450 -0.400526 -0.952789
  C 5.204084 -0.893067 -2.173936
  C 4.581521 -1.397363 -3.428067
  C 3.071177 -1.475904 -3.634158
  C 2.782029 -2.034414 -5.022822
  O 6.498964 -0.924564 -2.245742
  H 3.879441 1.487220 1.406848
  H 3.887289 -0.124669 2.054747
  H 1.579637 0.230186 3.000405
  H 1.571038 1.865086 2.344049
  H 3.095959 -0.660323 -1.589809
  H 5.373307 -0.104422 -0.222917
  H 5.009365 -2.392362 -3.585621
  H 5.013810 -0.792682 -4.231275
  H 2.615409 -0.488243 -3.567091
  H 2.610157 -2.138884 -2.902514
  H 3.203714 -1.396385 -5.795940
  H 1.709630 -2.096844 -5.185796
  H 3.198770 -3.032393 -5.136883
  H 6.970013 -0.611254 -1.456938
 26
 43.730211
  H 1.520475 0.108556 0.338803
  C 2.598397 0.148721 0.421290
  C 3.182582 0.657577 1.673731
  C 2.149098 1.068455 2.720714
  H 2.640853 1.434152 3.619023
  C 3.345985 -0.277465 -0.642265
  C 4.648060 -0.402706 -0.965462
  C 5.236206 -0.906151 -2.204483
  C 4.585494 -1.406321 -3.444871
  C 3.073104 -1.466899 -3.614623
  C 2.744098 -2.023155 -4.997988
  O 6.537614 -0.949692 -2.299333
  H 3.840426 1.504990 1.442583
  H 3.855612 -0.102970 2.089245
  H 1.520152 0.222418 2.998480
  H 1.503911 1.860652 2.340331
  H 3.329335 -0.670160 -1.609358
  H 5.456310 -0.117195 -0.272761
  H 4.994204 -2.403102 -3.611368
  H 5.002661 -0.810667 -4.257119
  H 2.628199 -0.472092 -3.535241
  H 2.619430 -2.124109 -2.869338
  H 3.155554 -1.388941 -5.783015
  H 1.666088 -2.073037 -5.135357
  H 3.147143 -3.028209 -5.121851
  H 7.025477 -0.639311 -1.517166
 26
 64.171651
  H 1.524162 0.100926 0.310862
  C 2.599442 0.143629 0.404270
  C 3.160844 0.646085 1.648249
  C 2.117514 1.051585 2.682192
  H 2.600806 1.419260 3.589519
  C 3.361114 -0.276595 -0.645248
  C 4.670275 -0.405830 -0.981213
  C 5.265734 -0.902480 -2.199790
  C 4.601194 -1.405614 -3.442697
  C 3.074083 -1.450314 -3.573642
  C 2.693928 -2.009787 -4.961681
  O 6.561762 -0.943872 -2.285535
  H 3.816157 1.493403 1.425145
  H 3.829685 -0.110604 2.068609
  H 1.489854 0.205743 2.951613
  H 1.475446 1.839852 2.296927
  H 3.504601 -0.665999 -1.606564
  H 5.508942 -0.128121 -0.310440
  H 5.003529 -2.417864 -3.618130
  H 5.012512 -0.807296 -4.274025
  H 2.639406 -0.440434 -3.478433
  H 2.629824 -2.105897 -2.804601
  H 3.088575 -1.383394 -5.758265
  H 1.611950 -2.047489 -5.069155
  H 3.079869 -3.017633 -5.097181
  H 7.041279 -0.634057 -1.498919
 26
 79.975534
  H 1.488995 0.178259 0.305053
  C 2.570212 0.173428 0.395447
  C 3.155422 0.631182 1.687964
  C 2.120482 1.050617 2.714478
  H 2.602923 1.381281 3.626611
  C 3.308337 -0.249644 -0.653619
  C 4.632372 -0.392874 -1.034703
  C 5.248017 -0.902632 -2.236808
  C 4.604368 -1.414800 -3.465318
  C 3.089916 -1.458767 -3.587469
  C 2.707913 -2.024968 -4.945545
  O 6.554907 -0.938309 -2.306274
  H 3.840202 1.460855 1.479724
  H 3.794216 -0.157098 2.106337
  H 1.463663 0.224050 2.961452
  H 1.512072 1.865530 2.337656
  H 3.562393 -0.639481 -1.625928
  H 5.467670 -0.107820 -0.357391
  H 5.004907 -2.423030 -3.623586
  H 5.013618 -0.829955 -4.298042
  H 2.664344 -0.461201 -3.503138
  H 2.655651 -2.094148 -2.819937
  H 3.099381 -1.410110 -5.747159
  H 1.630291 -2.061705 -5.046462
  H 3.090877 -3.030673 -5.068920
  H 7.029511 -0.617854 -1.513201
 26
 83.557392
  H 1.534230 0.305241 0.264822
  C 2.612807 0.227277 0.372075
  C 3.145602 0.593976 1.731325
  C 2.037609 1.015067 2.686276
  H 2.464395 1.284707 3.648737
  C 3.348157 -0.179693 -0.629749
  C 4.684874 -0.366442 -1.126770
  C 5.318836 -0.898045 -2.284866
  C 4.658042 -1.439218 -3.508523
  C 3.124692 -1.451260 -3.543089
  C 2.629642 -2.034522 -4.868748
  O 6.634029 -0.945849 -2.371466
  H 3.858344 1.413975 1.596725
  H 3.698915 -0.252884 2.149583
  H 1.332592 0.204185 2.849038
  H 1.495713 1.876454 2.302556
  H 3.661347 -0.580771 -1.651232
  H 5.476408 -0.045157 -0.425092
  H 5.037360 -2.452324 -3.648483
  H 5.043932 -0.875575 -4.358482
  H 2.730470 -0.430998 -3.453113
  H 2.726212 -2.069526 -2.729951
  H 2.985745 -1.442716 -5.707743
  H 1.543115 -2.044635 -4.898250
  H 2.981145 -3.054887 -4.996251
  H 7.118320 -0.608881 -1.590795
 26
 89.542907
  H 1.558602 0.369021 0.259761
  C 2.634915 0.262756 0.384548
  C 3.134234 0.587727 1.776389
  C 1.996062 1.007004 2.708992
  H 2.396281 1.243555 3.697838
  C 3.376450 -0.132545 -0.603664
  C 4.702049 -0.355161 -1.180244
  C 5.323338 -0.897901 -2.315749
  C 4.651944 -1.453685 -3.530006
  C 3.130325 -1.456884 -3.542829
  C 2.622435 -2.048237 -4.844303
  O 6.641075 -0.951172 -2.409344
  H 3.862347 1.401439 1.688691
  H 3.651198 -0.287717 2.181036
  H 1.266616 0.203366 2.825821
  H 1.487067 1.890494 2.332739
  H 3.729175 -0.538892 -1.676400
  H 5.471802 -0.032068 -0.482801
  H 5.029944 -2.482661 -3.660578
  H 5.036836 -0.892400 -4.397388
  H 2.744847 -0.437145 -3.462035
  H 2.743017 -2.062710 -2.720801
  H 2.973376 -1.464726 -5.697461
  H 1.533962 -2.053831 -4.861041
  H 2.970413 -3.076602 -4.963622
  H 7.129005 -0.606672 -1.638565
 26
 94.727940
  H 1.574707 0.513126 0.266947
  C 2.633443 0.333430 0.401618
  C 3.121996 0.554230 1.825938
  C 1.992905 0.987844 2.748019
  H 2.373494 1.144305 3.742967
  C 3.364817 -0.054047 -0.594642
  C 4.680226 -0.302689 -1.222004
  C 5.329203 -0.880577 -2.340744
  C 4.665066 -1.468809 -3.542846
  C 3.136017 -1.470312 -3.556734
  C 2.612176 -2.106800 -4.864183
  O 6.646221 -0.932143 -2.413068
  H 3.897864 1.323080 1.802158
  H 3.571813 -0.365238 2.192077
  H 1.221625 0.231081 2.802613
  H 1.547485 1.917877 2.409814
  H 3.748001 -0.448304 -1.716820
  H 5.435594 0.030596 -0.505626
  H 5.035116 -2.487111 -3.643877
  H 5.046328 -0.937071 -4.413358
  H 2.752984 -0.451952 -3.502471
  H 2.749520 -2.049341 -2.719119
  H 2.959309 -1.551809 -5.732353
  H 1.523992 -2.110358 -4.879095
  H 2.953341 -3.133815 -4.959237
  H 7.124812 -0.575188 -1.643657
 26
 98.583331
  H 1.583536 0.723154 0.257597
  C 2.622320 0.428424 0.388042
  C 3.104142 0.476137 1.825633
  C 2.005463 0.939080 2.770577
  H 2.383405 0.974031 3.788995
  C 3.330360 0.056967 -0.628700
  C 4.644283 -0.208369 -1.275779
  C 5.322271 -0.841534 -2.363919
  C 4.667864 -1.485066 -3.544156
  C 3.140967 -1.477929 -3.559381
  C 2.620998 -2.167130 -4.816895
  O 6.638172 -0.901997 -2.402728
  H 3.951089 1.163143 1.875198
  H 3.457715 -0.514395 2.119585
  H 1.159783 0.256699 2.750428
  H 1.658351 1.932891 2.507352
  H 3.759738 -0.303119 -1.800474
  H 5.381317 0.132254 -0.541872
  H 5.033765 -2.517312 -3.594604
  H 5.055943 -0.994579 -4.444626
  H 2.759392 -0.451697 -3.557838
  H 2.747745 -2.012450 -2.690606
  H 2.973599 -1.656033 -5.713829
  H 1.531470 -2.163789 -4.831112
  H 2.957936 -3.204885 -4.859287
  H 7.104062 -0.530301 -1.632333
 26
 101.723724
  H 1.600170 0.895952 0.266352
  C 2.609252 0.509512 0.374610
  C 3.089730 0.405490 1.814439
  C 2.030633 0.883757 2.793358
  H 2.406689 0.810160 3.813189
  C 3.288938 0.154776 -0.666072
  C 4.606375 -0.124856 -1.312850
  C 5.314120 -0.811256 -2.371997
  C 4.673224 -1.496453 -3.530573
  C 3.142061 -1.485939 -3.556631
  C 2.625287 -2.228985 -4.788804
  O 6.628790 -0.875291 -2.371508
  H 3.988676 1.014627 1.912654
  H 3.359349 -0.627674 2.032657
  H 1.131314 0.276773 2.722155
  H 1.766978 1.921558 2.605359
  H 3.780650 -0.185071 -1.883920
  H 5.308027 0.239372 -0.564083
  H 5.033051 -2.530158 -3.534583
  H 5.066224 -1.049925 -4.448997
  H 2.762128 -0.460387 -3.602542
  H 2.742051 -1.981335 -2.667782
  H 2.983007 -1.760186 -5.703402
  H 1.538067 -2.223196 -4.808931
  H 2.957726 -3.265635 -4.784235
  H 7.076900 -0.476679 -1.603129
 26
 103.022366
  H 1.650338 1.116825 0.311422
  C 2.608621 0.616924 0.394476
  C 3.047306 0.323854 1.822960
  C 2.029981 0.821644 2.835843
  H 2.376889 0.612648 3.846073
  C 3.267492 0.279861 -0.673085
  C 4.583772 -0.029176 -1.346081
  C 5.321998 -0.804500 -2.409297
  C 4.681622 -1.530121 -3.531195
  C 3.155340 -1.512859 -3.556009
  C 2.633808 -2.302846 -4.751447
  O 6.636332 -0.850750 -2.402804
  H 4.007361 0.816612 1.986158
  H 3.198296 -0.743376 1.944556
  H 1.071713 0.328014 2.699486
  H 1.883677 1.894159 2.743631
  H 3.803321 -0.040776 -1.967607
  H 5.265833 0.378761 -0.598091
  H 5.035130 -2.567608 -3.493239
  H 5.075170 -1.126801 -4.469437
  H 2.780826 -0.491749 -3.647694
  H 2.754895 -1.964565 -2.648515
  H 2.991572 -1.876481 -5.684381
  H 1.549926 -2.290670 -4.769316
  H 2.957928 -3.337523 -4.703220
  H 7.077439 -0.383552 -1.672250
 26
 103.057412
  H 1.754699 1.193981 0.283797
  C 2.682196 0.640938 0.383454
  C 3.030547 0.251693 1.811057
  C 1.977329 0.734961 2.794262
  H 2.257603 0.456568 3.807368
  C 3.373194 0.326986 -0.660255
  C 4.633174 0.027586 -1.398245
  C 5.345379 -0.757912 -2.434492
  C 4.674705 -1.524718 -3.516541
  C 3.144787 -1.508921 -3.495786
  C 2.587858 -2.341111 -4.646684
  O 6.656240 -0.799423 -2.436416
  H 3.997039 0.693228 2.054725
  H 3.135567 -0.831433 1.878443
  H 1.009793 0.290803 2.577293
  H 1.877402 1.816234 2.756188
  H 3.923153 0.043312 -2.062883
  H 5.290009 0.497343 -0.674582
  H 5.028448 -2.560506 -3.451958
  H 5.040330 -1.158329 -4.482872
  H 2.763829 -0.490063 -3.612063
  H 2.773023 -1.927717 -2.557984
  H 2.919058 -1.946430 -5.608072
  H 1.498441 -2.328455 -4.632411
  H 2.915186 -3.378691 -4.570482
  H 7.102096 -0.362203 -1.685963
