15

H      1.829324   -0.255399    0.874407
C      0.742191    0.567838    0.183723
C     -0.662176   -0.050491    0.270614
C     -1.651790    0.957520   -0.396045
C     -3.034696    0.751420    0.018669
O     -4.419934    2.912614   -1.220189
H     -0.661659   -1.440158   -0.367186
H      1.000331    0.709643   -0.866305
H      0.716266    1.551803    0.658550
H     -0.935073   -0.148232    1.325152
H     -1.346359    1.952275   -0.059280
H     -1.543024    0.917666   -1.480851
H     -3.273074    0.931435    1.055841
H     -3.638072   -0.018834   -0.424224
H     -3.908575    3.676881   -0.904613
