 22
 0.000000
  C 0.994480 0.135431 0.379079
  C 2.461948 0.143265 0.401572
  C 3.225283 0.613634 1.569313
  C 2.446151 1.095106 2.786240
  C 3.395725 1.541112 3.893884
  C 3.113266 -0.318776 -0.745159
  C 4.507966 -0.394787 -0.933955
  C 5.074331 -0.854661 -2.076898
  H 4.529500 -1.201776 -2.939136
  H 6.146727 -0.895764 -2.179612
  H 0.547161 0.514052 1.290489
  H 0.623230 -0.876883 0.204594
  H 0.633504 0.728890 -0.463556
  H 3.887750 1.424302 1.240114
  H 3.896291 -0.194764 1.886316
  H 1.812147 0.294103 3.171359
  H 1.804439 1.936411 2.517277
  H 4.035719 0.722421 4.214703
  H 2.832290 1.882879 4.758282
  H 4.027868 2.361278 3.561492
  H 2.486947 -0.648782 -1.564478
  H 5.157681 -0.072013 -0.132564
 22
 3.757181
  C 1.004429 0.211286 0.372171
  C 2.442434 0.168544 0.411526
  C 3.216554 0.612578 1.563703
  C 2.434854 1.082661 2.788767
  C 3.384512 1.527145 3.896995
  C 3.116458 -0.314034 -0.740382
  C 4.512677 -0.396396 -0.919963
  C 5.050835 -0.868690 -2.069792
  H 4.433901 -1.194125 -2.887666
  H 6.114278 -0.935054 -2.205441
  H 0.512282 0.573925 1.262181
  H 0.902710 -0.864864 0.241662
  H 0.588099 0.678127 -0.525002
  H 3.864187 1.433635 1.224133
  H 3.912657 -0.179036 1.866202
  H 1.810166 0.271527 3.169131
  H 1.785245 1.920536 2.527763
  H 4.033136 0.710623 4.208173
  H 2.822216 1.857164 4.767248
  H 4.008734 2.355827 3.568752
  H 2.503534 -0.648088 -1.568373
  H 5.175011 -0.073847 -0.124835
 22
 11.575367
  C 0.987818 0.260119 0.332331
  C 2.408815 0.182306 0.385776
  C 3.205511 0.613643 1.564121
  C 2.435039 1.078066 2.802864
  C 3.402748 1.505895 3.904702
  C 3.089225 -0.312428 -0.754112
  C 4.488500 -0.390731 -0.914485
  C 5.048733 -0.872098 -2.053768
  H 4.441744 -1.203755 -2.875278
  H 6.115509 -0.935054 -2.167216
  H 0.468525 0.670751 1.190639
  H 1.106244 -0.834297 0.344294
  H 0.529403 0.552707 -0.618401
  H 3.835824 1.446253 1.211452
  H 3.909056 -0.174315 1.858318
  H 1.810463 0.263474 3.183695
  H 1.787888 1.926256 2.557688
  H 4.050676 0.682818 4.198566
  H 2.853571 1.830185 4.785624
  H 4.027484 2.333667 3.576314
  H 2.488322 -0.651486 -1.588815
  H 5.135335 -0.057537 -0.114125
 22
 18.319681
  C 0.998971 0.310540 0.351163
  C 2.420348 0.190342 0.383428
  C 3.208374 0.612311 1.565838
  C 2.421266 1.071787 2.790864
  C 3.370217 1.489768 3.905769
  C 3.101165 -0.316034 -0.766929
  C 4.491686 -0.394249 -0.939676
  C 5.043116 -0.884214 -2.079790
  H 4.425480 -1.226643 -2.898888
  H 6.114301 -0.947404 -2.204890
  H 0.492025 0.754223 1.189111
  H 1.282046 -0.768735 0.486303
  H 0.498726 0.474906 -0.593850
  H 3.832462 1.441255 1.221125
  H 3.902603 -0.175177 1.866971
  H 1.790839 0.263241 3.158579
  H 1.786210 1.920215 2.542082
  H 4.008756 0.664230 4.204864
  H 2.811066 1.811740 4.777154
  H 4.001664 2.314221 3.590585
  H 2.495669 -0.659768 -1.598295
  H 5.143096 -0.055089 -0.153116
 22
 22.771768
  C 0.987095 0.336753 0.328163
  C 2.402141 0.185524 0.374551
  C 3.203300 0.612289 1.564445
  C 2.421123 1.078232 2.790533
  C 3.378743 1.471602 3.909648
  C 3.091113 -0.321287 -0.782378
  C 4.479179 -0.392323 -0.942702
  C 5.047278 -0.877911 -2.079866
  H 4.446871 -1.222828 -2.904477
  H 6.112485 -0.934748 -2.193881
  H 0.464983 0.824481 1.136179
  H 1.400442 -0.718040 0.603801
  H 0.468830 0.340247 -0.620516
  H 3.828220 1.435763 1.223024
  H 3.884222 -0.184834 1.863996
  H 1.772927 0.278392 3.155194
  H 1.804740 1.943773 2.544687
  H 4.000913 0.631038 4.204649
  H 2.825165 1.801096 4.783922
  H 4.028321 2.285427 3.598367
  H 2.485310 -0.658438 -1.613921
  H 5.123302 -0.050076 -0.147195
 22
 26.885093
  C 0.989082 0.357680 0.333364
  C 2.401392 0.170670 0.376103
  C 3.207140 0.603577 1.562361
  C 2.417762 1.075859 2.782872
  C 3.361413 1.459173 3.895856
  C 3.087509 -0.329701 -0.778649
  C 4.475188 -0.395875 -0.944412
  C 5.039863 -0.874064 -2.082344
  H 4.436792 -1.216928 -2.901662
  H 6.109287 -0.926140 -2.203177
  H 0.474620 0.858782 1.138070
  H 1.500943 -0.676377 0.659628
  H 0.459585 0.301525 -0.598433
  H 3.844722 1.433596 1.219689
  H 3.882545 -0.199225 1.864804
  H 1.764113 0.286009 3.145182
  H 1.809352 1.947929 2.532402
  H 3.977445 0.609378 4.196718
  H 2.806791 1.792683 4.760983
  H 4.018719 2.267283 3.586164
  H 2.488391 -0.664816 -1.602387
  H 5.130895 -0.048722 -0.139603
 22
 30.402137
  C 0.987733 0.371354 0.315866
  C 2.393768 0.158950 0.376940
  C 3.208861 0.601181 1.565936
  C 2.423713 1.078803 2.787102
  C 3.370768 1.456350 3.900863
  C 3.079636 -0.334909 -0.774859
  C 4.466800 -0.395250 -0.935423
  C 5.040579 -0.866910 -2.076069
  H 4.444017 -1.209547 -2.900485
  H 6.098932 -0.911783 -2.189824
  H 0.477046 0.863515 1.102472
  H 1.573096 -0.651574 0.682875
  H 0.446942 0.260231 -0.630318
  H 3.834384 1.409810 1.231683
  H 3.875126 -0.201096 1.866651
  H 1.765520 0.295145 3.151992
  H 1.827676 1.949765 2.539861
  H 3.972793 0.612415 4.198145
  H 2.821704 1.792947 4.761530
  H 4.028858 2.253217 3.592630
  H 2.472129 -0.675691 -1.615502
  H 5.109183 -0.053397 -0.136863
 22
 33.193156
  C 0.983470 0.387476 0.303728
  C 2.388786 0.143796 0.382584
  C 3.208698 0.594670 1.563839
  C 2.414766 1.078274 2.787579
  C 3.369545 1.460179 3.919964
  C 3.083153 -0.350080 -0.789167
  C 4.467320 -0.407338 -0.947409
  C 5.046120 -0.868726 -2.091194
  H 4.454821 -1.207632 -2.919984
  H 6.112192 -0.909352 -2.202771
  H 0.453756 0.886501 1.110041
  H 1.624699 -0.651406 0.701715
  H 0.454690 0.239655 -0.616728
  H 3.850210 1.419554 1.219707
  H 3.873033 -0.211129 1.868008
  H 1.750595 0.295148 3.150537
  H 1.814426 1.960481 2.531411
  H 3.983904 0.593346 4.230043
  H 2.807691 1.805984 4.791988
  H 4.043444 2.269094 3.607997
  H 2.474425 -0.683171 -1.623469
  H 5.100236 -0.073669 -0.154214
 22
 35.840416
  C 0.983734 0.404262 0.295143
  C 2.386437 0.130993 0.390441
  C 3.214294 0.592635 1.570247
  C 2.420777 1.077048 2.790982
  C 3.368085 1.458086 3.917352
  C 3.081166 -0.357006 -0.786934
  C 4.465491 -0.413614 -0.944077
  C 5.044094 -0.865201 -2.090602
  H 4.449371 -1.201318 -2.927455
  H 6.105176 -0.904097 -2.201493
  H 0.452499 0.891792 1.099301
  H 1.675122 -0.656140 0.712933
  H 0.453184 0.231113 -0.626608
  H 3.854484 1.417617 1.222487
  H 3.875164 -0.209713 1.875690
  H 1.757637 0.297939 3.151505
  H 1.824287 1.953293 2.533414
  H 3.975751 0.600323 4.226463
  H 2.808556 1.804250 4.784904
  H 4.038301 2.259375 3.607592
  H 2.469202 -0.684364 -1.619328
  H 5.104692 -0.082074 -0.139498
 22
 38.150663
  C 0.983087 0.425792 0.286469
  C 2.382650 0.120822 0.402692
  C 3.215658 0.592461 1.579591
  C 2.423802 1.074320 2.788248
  C 3.371179 1.460476 3.918223
  C 3.080756 -0.362688 -0.789501
  C 4.461917 -0.420933 -0.947085
  C 5.039990 -0.863695 -2.098124
  H 4.452910 -1.187338 -2.921490
  H 6.121596 -0.903652 -2.213836
  H 0.447004 0.900986 1.085470
  H 1.715765 -0.669324 0.729488
  H 0.454142 0.230041 -0.627563
  H 3.842023 1.404899 1.234725
  H 3.886812 -0.217253 1.893874
  H 1.753368 0.285106 3.152186
  H 1.825155 1.952528 2.525707
  H 3.976844 0.607671 4.229805
  H 2.813026 1.806069 4.779509
  H 4.043229 2.263642 3.607660
  H 2.468578 -0.681890 -1.615847
  H 5.100266 -0.098844 -0.141366
 22
 39.832257
  C 0.986436 0.443213 0.274644
  C 2.379502 0.107660 0.409834
  C 3.218613 0.589862 1.585202
  C 2.426670 1.072443 2.794514
  C 3.371998 1.460716 3.918407
  C 3.083354 -0.370089 -0.790876
  C 4.465276 -0.426525 -0.942044
  C 5.046748 -0.861705 -2.094189
  H 4.448655 -1.188683 -2.945206
  H 6.102864 -0.894959 -2.203845
  H 0.441423 0.914171 1.078279
  H 1.757811 -0.692757 0.740153
  H 0.457233 0.233769 -0.641606
  H 3.844786 1.411928 1.233565
  H 3.898782 -0.223346 1.903412
  H 1.760875 0.285297 3.159695
  H 1.830325 1.944205 2.533306
  H 3.977463 0.611230 4.229630
  H 2.812948 1.807715 4.781377
  H 4.040271 2.262429 3.605605
  H 2.466004 -0.688766 -1.624172
  H 5.102772 -0.107846 -0.127549
 22
 40.200838
  C 0.988029 0.468516 0.266113
  C 2.370770 0.085256 0.418939
  C 3.216392 0.587821 1.583671
  C 2.426152 1.069560 2.798029
  C 3.378178 1.466070 3.925224
  C 3.084941 -0.376977 -0.796398
  C 4.465497 -0.442640 -0.940469
  C 5.049321 -0.861280 -2.099150
  H 4.458647 -1.166947 -2.948932
  H 6.114134 -0.897530 -2.207046
  H 0.442408 0.922281 1.074933
  H 1.801897 -0.748660 0.756729
  H 0.455524 0.255987 -0.646796
  H 3.830876 1.412298 1.222190
  H 3.896547 -0.208746 1.900393
  H 1.764839 0.281386 3.165098
  H 1.823345 1.938664 2.536909
  H 3.989357 0.619127 4.236493
  H 2.817361 1.815680 4.795042
  H 4.041713 2.267699 3.608985
  H 2.468645 -0.680531 -1.634025
  H 5.098453 -0.146146 -0.121991
 22
 41.684405
  C 0.992579 0.477841 0.246620
  C 2.370353 0.068306 0.415487
  C 3.217653 0.584737 1.583514
  C 2.427355 1.062760 2.796922
  C 3.386772 1.466149 3.937276
  C 3.077718 -0.380537 -0.788837
  C 4.455326 -0.451609 -0.926974
  C 5.040613 -0.862001 -2.089409
  H 4.454793 -1.149208 -2.941805
  H 6.106212 -0.891238 -2.198654
  H 0.442908 0.928723 1.057118
  H 1.849891 -0.771932 0.753691
  H 0.463102 0.262751 -0.670824
  H 3.827670 1.415296 1.218644
  H 3.901271 -0.204323 1.902307
  H 1.772404 0.279547 3.156829
  H 1.828189 1.919250 2.537929
  H 3.995740 0.625494 4.249049
  H 2.832376 1.807890 4.794114
  H 4.065596 2.288923 3.616742
  H 2.456224 -0.681465 -1.642341
  H 5.092545 -0.158779 -0.094753
 22
 41.256274
  C 1.000083 0.508866 0.248348
  C 2.365853 0.056022 0.431885
  C 3.219448 0.591921 1.587666
  C 2.428498 1.061045 2.805424
  C 3.382464 1.468760 3.932864
  C 3.086856 -0.387110 -0.796662
  C 4.466475 -0.472391 -0.932869
  C 5.047560 -0.873226 -2.099847
  H 4.454120 -1.140745 -2.961005
  H 6.114050 -0.900021 -2.213469
  H 0.453975 0.952301 1.059735
  H 1.911217 -0.828121 0.779338
  H 0.470967 0.303801 -0.667896
  H 3.809360 1.428651 1.213677
  H 3.914218 -0.182859 1.904221
  H 1.780651 0.265661 3.170987
  H 1.812795 1.923170 2.548900
  H 4.003624 0.630019 4.241562
  H 2.825307 1.808068 4.797693
  H 4.038663 2.282552 3.613972
  H 2.472599 -0.669591 -1.635289
  H 5.100532 -0.198521 -0.106554
