 19
 0.000000
  C 1.025009 0.126838 0.347579
  C 2.493793 0.121193 0.342207
  C 3.230372 0.590091 1.526551
  H 2.560957 0.906646 2.319050
  C 3.142054 -0.336092 -0.803496
  C 4.532686 -0.400080 -0.967649
  C 5.172767 -0.854808 -2.097405
  C 4.566580 -1.358582 -3.325187
  H 3.483251 -1.364707 -3.321887
  H 6.255058 -0.844327 -2.089511
  H 0.612534 0.489996 1.282749
  H 0.643141 -0.876833 0.150906
  H 0.648634 0.740770 -0.472646
  H 3.886941 1.421588 1.265005
  H 3.882898 -0.196955 1.908085
  H 2.514638 -0.661915 -1.621159
  H 5.156193 -0.068227 -0.149479
  H 4.940210 -2.367355 -3.519657
  H 4.929910 -0.768729 -4.170824
 19
 0.694969
  C 1.041200 0.211091 0.293964
  C 2.502000 0.069812 0.368739
  C 3.222804 0.524172 1.565687
  H 2.546158 0.904110 2.324643
  C 3.157771 -0.455668 -0.743147
  C 4.539628 -0.400877 -0.960761
  C 5.157264 -0.771647 -2.133068
  C 4.550741 -1.421330 -3.291485
  H 3.516788 -1.713492 -3.149430
  H 6.213665 -0.553602 -2.226348
  H 0.600410 0.536788 1.229650
  H 0.570840 -0.713841 -0.037328
  H 0.812357 0.948541 -0.481959
  H 3.940594 1.305702 1.311261
  H 3.810402 -0.292874 1.987531
  H 2.535051 -0.860082 -1.528156
  H 5.159419 0.036211 -0.191208
  H 5.147161 -2.293849 -3.566222
  H 4.627067 -0.755830 -4.155771
 19
 3.699194
  C 1.102617 0.251293 0.206683
  C 2.534877 -0.002234 0.416852
  C 3.203170 0.496449 1.624662
  H 2.523056 1.046894 2.266593
  C 3.219298 -0.627594 -0.624794
  C 4.561298 -0.400850 -0.949037
  C 5.094924 -0.663989 -2.187398
  C 4.490270 -1.423730 -3.280202
  H 3.513230 -1.835100 -3.054481
  H 6.079201 -0.266412 -2.397906
  H 0.595309 0.602992 1.098541
  H 0.589686 -0.614715 -0.208100
  H 1.047992 1.030853 -0.560659
  H 4.056313 1.128069 1.377276
  H 3.617867 -0.343792 2.185284
  H 2.619061 -1.183780 -1.331637
  H 5.169345 0.154877 -0.250083
  H 5.170135 -2.233448 -3.556289
  H 4.429348 -0.798069 -4.173194
 19
 8.640004
  C 1.197217 0.283244 0.084603
  C 2.579006 -0.052227 0.457825
  C 3.180663 0.491569 1.678275
  H 2.494773 1.133034 2.221460
  C 3.298991 -0.769381 -0.498976
  C 4.590189 -0.426699 -0.917765
  C 5.005257 -0.592039 -2.212806
  C 4.393238 -1.409981 -3.262626
  H 3.480203 -1.913547 -2.967571
  H 5.909088 -0.077853 -2.514479
  H 0.631629 0.739052 0.890232
  H 0.658962 -0.564745 -0.333345
  H 1.311083 1.009468 -0.729587
  H 4.101395 1.034913 1.465748
  H 3.482916 -0.334877 2.325408
  H 2.732397 -1.442887 -1.128154
  H 5.189238 0.196313 -0.268662
  H 5.126469 -2.155926 -3.578809
  H 4.207224 -0.802017 -4.149399
 19
 14.712767
  C 1.307315 0.292573 -0.038610
  C 2.614805 -0.086342 0.486227
  C 3.157137 0.512370 1.700029
  H 2.475114 1.214805 2.146296
  C 3.372972 -0.890342 -0.388102
  C 4.621703 -0.476648 -0.869070
  C 4.913193 -0.547711 -2.200100
  C 4.274001 -1.369805 -3.237483
  H 3.406786 -1.924377 -2.909274
  H 5.753978 0.026168 -2.549564
  H 0.703796 0.845165 0.662673
  H 0.756690 -0.557634 -0.451130
  H 1.572118 0.938932 -0.892009
  H 4.121599 0.994200 1.521809
  H 3.380461 -0.287333 2.421085
  H 2.826776 -1.619905 -0.973329
  H 5.220241 0.160221 -0.236778
  H 5.025514 -2.076738 -3.604617
  H 4.004874 -0.751126 -4.095973
 19
 20.494037
  C 1.422673 0.319228 -0.174786
  C 2.655896 -0.116316 0.500523
  C 3.116862 0.508667 1.739666
  H 2.418183 1.248568 2.114165
  C 3.447811 -0.951957 -0.300962
  C 4.658779 -0.488371 -0.849113
  C 4.850860 -0.528584 -2.198888
  C 4.153847 -1.352147 -3.198314
  H 3.358037 -1.969443 -2.801359
  H 5.658424 0.063135 -2.607062
  H 0.766840 0.911024 0.454160
  H 0.880424 -0.499771 -0.642677
  H 1.823335 0.941831 -0.986677
  H 4.103821 0.957768 1.615394
  H 3.258930 -0.265955 2.496495
  H 2.927451 -1.725396 -0.853976
  H 5.280598 0.162737 -0.247880
  H 4.898386 -1.995108 -3.672862
  H 3.756900 -0.722130 -3.995421
 19
 28.778989
  C 1.564873 0.308153 -0.304217
  C 2.701126 -0.145368 0.508811
  C 3.088693 0.519815 1.748403
  H 2.438196 1.352391 1.994423
  C 3.526733 -1.027197 -0.211689
  C 4.699149 -0.528443 -0.827388
  C 4.738103 -0.464019 -2.183439
  C 3.995348 -1.279478 -3.163375
  H 3.165027 -1.836623 -2.747438
  H 5.509398 0.150351 -2.628876
  H 0.846986 0.923542 0.228634
  H 1.072847 -0.492781 -0.850348
  H 2.109033 0.905186 -1.055287
  H 4.128854 0.847205 1.716051
  H 3.054621 -0.209636 2.561620
  H 3.053223 -1.883752 -0.676224
  H 5.328272 0.138076 -0.251075
  H 4.705131 -1.980658 -3.608721
  H 3.632903 -0.658622 -3.979535
 19
 37.551338
  C 1.715934 0.371661 -0.432040
  C 2.761431 -0.100749 0.485988
  C 3.026562 0.509400 1.778696
  H 2.315903 1.293811 2.020928
  C 3.588199 -1.064796 -0.140905
  C 4.741385 -0.571254 -0.824344
  C 4.644397 -0.432392 -2.168884
  C 3.869440 -1.257226 -3.123600
  H 3.159604 -1.928439 -2.654934
  H 5.387892 0.187169 -2.650756
  H 1.022663 1.088468 -0.007384
  H 1.204220 -0.424257 -0.970027
  H 2.364330 0.838784 -1.200282
  H 4.048181 0.892996 1.833827
  H 2.984821 -0.267259 2.548154
  H 3.103530 -1.940166 -0.558202
  H 5.409110 0.079234 -0.270151
  H 4.581588 -1.844349 -3.703702
  H 3.340534 -0.625528 -3.836195
 19
 47.363154
  C 1.810709 0.347183 -0.514502
  C 2.742530 -0.171385 0.494146
  C 3.030409 0.507239 1.747659
  H 2.435500 1.404649 1.879747
  C 3.607973 -1.137682 -0.096394
  C 4.714475 -0.553433 -0.794950
  C 4.496825 -0.344285 -2.111108
  C 3.774957 -1.197041 -3.085954
  H 3.053808 -1.869979 -2.634390
  H 5.184076 0.347858 -2.591501
  H 1.188818 1.162229 -0.177685
  H 1.267676 -0.406314 -1.083894
  H 2.571377 0.685233 -1.274507
  H 4.098156 0.727964 1.833928
  H 2.832947 -0.177046 2.577769
  H 3.167664 -2.035610 -0.510610
  H 5.415386 0.070418 -0.248314
  H 4.520937 -1.785097 -3.619513
  H 3.267056 -0.587100 -3.832767
 19
 61.614507
  C 1.949338 0.351570 -0.578792
  C 2.773676 -0.167522 0.490736
  C 3.004160 0.510078 1.760595
  H 2.335524 1.356891 1.900294
  C 3.654801 -1.180575 -0.038099
  C 4.730316 -0.587958 -0.792355
  C 4.367936 -0.278716 -2.067930
  C 3.662704 -1.140697 -3.063756
  H 2.923807 -1.804903 -2.627805
  H 5.049367 0.411629 -2.553422
  H 1.328086 1.209052 -0.363299
  H 1.435223 -0.377987 -1.207010
  H 2.809632 0.529142 -1.373291
  H 4.044957 0.825450 1.848041
  H 2.836762 -0.201563 2.576251
  H 3.171584 -2.039338 -0.493280
  H 5.423440 0.053939 -0.267299
  H 4.419818 -1.755655 -3.552328
  H 3.185505 -0.534713 -3.829940
 19
 74.881552
  C 1.953287 0.328830 -0.548134
  C 2.728560 -0.142418 0.485247
  C 2.968163 0.520763 1.773320
  H 2.323303 1.383765 1.904094
  C 3.632765 -1.168733 -0.034754
  C 4.683957 -0.578807 -0.785061
  C 4.309656 -0.215846 -2.083127
  C 3.621127 -1.118854 -3.081231
  H 2.946661 -1.832393 -2.620242
  H 4.989139 0.477395 -2.566619
  H 1.370480 1.219212 -0.373053
  H 1.522963 -0.334912 -1.286033
  H 3.149624 0.463077 -1.558913
  H 4.015691 0.810381 1.861330
  H 2.779104 -0.182910 2.584647
  H 3.173216 -2.080201 -0.401600
  H 5.426516 0.015195 -0.268720
  H 4.386005 -1.672625 -3.624637
  H 3.069065 -0.531077 -3.809935
 19
 65.908779
  C 1.855025 0.348504 -0.441076
  C 2.684128 -0.113808 0.516673
  C 2.954114 0.498896 1.834803
  H 2.308140 1.353243 2.005911
  C 3.602191 -1.089855 -0.080425
  C 4.634330 -0.497471 -0.819722
  C 4.315058 -0.166774 -2.187023
  C 3.667927 -1.159348 -3.140434
  H 2.954434 -1.813070 -2.652408
  H 5.047532 0.459742 -2.684972
  H 1.270242 1.230950 -0.230914
  H 1.448885 -0.274060 -1.221374
  H 3.370185 0.499741 -1.806457
  H 3.995580 0.796449 1.929340
  H 2.769009 -0.245158 2.611693
  H 3.157481 -2.018625 -0.427682
  H 5.368567 0.116247 -0.311152
  H 4.443055 -1.775237 -3.590462
  H 3.165913 -0.627278 -3.944512
 19
 50.392109
  C 1.623063 0.339435 -0.236549
  C 2.612599 -0.088733 0.567581
  C 2.984965 0.475044 1.887013
  H 2.318998 1.291071 2.154417
  C 3.495644 -0.977004 -0.180279
  C 4.534990 -0.385354 -0.878785
  C 4.381078 -0.132808 -2.320101
  C 3.785763 -1.213266 -3.212016
  H 2.964140 -1.741629 -2.742243
  H 5.231313 0.355514 -2.777735
  H 0.995735 1.162929 0.055911
  H 1.290934 -0.216497 -1.095099
  H 3.582482 0.631692 -2.129640
  H 4.014218 0.828715 1.904724
  H 2.904660 -0.310875 2.635812
  H 3.065689 -1.907953 -0.534147
  H 5.244652 0.244044 -0.353572
  H 4.559703 -1.933737 -3.469056
  H 3.425955 -0.766595 -4.134640
 19
 41.116762
  C 1.426291 0.298607 -0.060230
  C 2.548509 -0.075666 0.589439
  C 3.055785 0.514550 1.851132
  H 2.310842 1.170274 2.290163
  C 3.348788 -0.934180 -0.261540
  C 4.443251 -0.383587 -0.895345
  C 4.422336 -0.132461 -2.344616
  C 3.942651 -1.234819 -3.279317
  H 3.062327 -1.749615 -2.910082
  H 5.338642 0.329507 -2.702894
  H 0.795557 1.089263 0.307432
  H 1.079983 -0.221978 -0.935584
  H 3.640660 0.658194 -2.305516
  H 3.975077 1.075857 1.700764
  H 3.281534 -0.289897 2.549685
  H 2.846736 -1.783388 -0.708503
  H 5.183100 0.163482 -0.319929
  H 4.739318 -1.963991 -3.411435
  H 3.707125 -0.812899 -4.252657
 19
 38.937837
  C 1.359213 0.408727 0.086626
  C 2.516268 -0.062960 0.639453
  C 3.107866 0.433499 1.901990
  H 2.463199 1.175938 2.363760
  C 3.257020 -0.852502 -0.345874
  C 4.369071 -0.286930 -0.951505
  C 4.316549 -0.119082 -2.445256
  C 4.119017 -1.372616 -3.288303
  H 3.282511 -1.979628 -2.962498
  H 5.159611 0.462253 -2.806132
  H 0.803885 1.203972 0.549366
  H 0.982134 0.021155 -0.838889
  H 3.400462 0.508032 -2.465163
  H 4.093804 0.864236 1.750076
  H 3.233058 -0.407804 2.590528
  H 2.664882 -1.546801 -0.918942
  H 5.054718 0.334181 -0.390781
  H 5.022206 -1.981370 -3.244009
  H 3.943036 -1.085048 -4.323479
