18

H -2.4682655563372338 0.7008454934821529 -0.05550508294447162
C -2.05651 0.58778 -0.023084
C -1.649742 -0.476595 0.647607
C -0.236516 -0.947677 0.808165
C 0.80598 -0.080576 0.112594
C 2.219647 -0.614547 0.339085
C 3.27476 0.218588 -0.397109
H -1.347252 1.229346 -0.522911
H -2.387598 -1.101214 1.137999
H -0.003094 -0.999498 1.877677
H -0.172885 -1.969173 0.41845
H 0.597366 -0.058211 -0.960712
H 0.744337 0.940701 0.496917
H 2.425902 -0.599127 1.413577
H 2.265314 -1.657251 0.016198
H 3.982701 0.666678 0.297647
H 3.836486 -0.391959 -1.101592
H 2.807095 1.025358 -0.959845
