 26
 0.000000
  C 1.014318 0.117703 0.344878
  C 2.490431 0.131054 0.378392
  C 3.245763 0.606595 1.561098
  C 2.439975 1.090253 2.763567
  C 3.370364 1.541206 3.885666
  C 3.141666 -0.327028 -0.761018
  C 4.523325 -0.396763 -0.935445
  C 5.169142 -0.854324 -2.077547
  C 4.530474 -1.349865 -3.313498
  H 3.450104 -1.354921 -3.325869
  O 6.481160 -0.879159 -2.141440
  H 0.547969 0.482715 1.252598
  H 0.660351 -0.897679 0.160174
  H 0.660444 0.722691 -0.491273
  H 3.904465 1.422259 1.242163
  H 3.904267 -0.202908 1.895684
  H 1.802177 0.288329 3.139322
  H 1.802555 1.929334 2.479523
  H 4.005904 0.723342 4.217955
  H 2.792125 1.884736 4.739836
  H 4.006277 2.361213 3.559397
  H 2.511927 -0.654267 -1.575426
  H 5.147344 -0.067463 -0.115292
  H 4.898001 -2.360463 -3.500062
  H 4.897899 -0.747979 -4.146517
  H 6.927585 -0.556491 -1.336442
 26
 4.385252
  C 1.012388 0.100078 0.300161
  C 2.456407 0.122762 0.357618
  C 3.216633 0.598660 1.541610
  C 2.430630 1.087599 2.756711
  C 3.384288 1.531243 3.861725
  C 3.139470 -0.328979 -0.765685
  C 4.511458 -0.389286 -0.916970
  C 5.169119 -0.842437 -2.048269
  C 4.523132 -1.337614 -3.281554
  H 3.442871 -1.324672 -3.247505
  O 6.480040 -0.862590 -2.102406
  H 0.768443 0.481398 1.248490
  H 0.613409 -0.906092 0.142729
  H 0.613907 0.717598 -0.509913
  H 3.876518 1.410956 1.217009
  H 3.875876 -0.212664 1.869843
  H 1.794943 0.289783 3.146536
  H 1.795859 1.933863 2.485543
  H 4.019227 0.708156 4.181819
  H 2.825216 1.879240 4.726669
  H 4.020254 2.346188 3.523338
  H 2.527065 -0.659843 -1.589108
  H 5.128914 -0.058720 -0.094117
  H 4.872289 -2.351745 -3.477042
  H 4.871304 -0.739506 -4.123971
  H 6.927667 -0.539772 -1.299278
 26
 13.071484
  C 0.960352 0.095796 0.286069
  C 2.411208 0.118250 0.345148
  C 3.174285 0.596467 1.536797
  C 2.415464 1.090825 2.764641
  C 3.400839 1.523483 3.846289
  C 3.123622 -0.330802 -0.770727
  C 4.500323 -0.385939 -0.911128
  C 5.182987 -0.841684 -2.048415
  C 4.550629 -1.344609 -3.292789
  H 3.469745 -1.333428 -3.257847
  O 6.512810 -0.853091 -2.087321
  H 0.945151 0.490192 1.267889
  H 0.534018 -0.903195 0.173045
  H 0.535610 0.739934 -0.486809
  H 3.836868 1.404008 1.206877
  H 3.834931 -0.216131 1.857897
  H 1.782802 0.299477 3.175756
  H 1.785535 1.948600 2.513385
  H 4.034191 0.693048 4.150963
  H 2.866014 1.877100 4.724341
  H 4.037290 2.331903 3.492701
  H 2.520442 -0.663979 -1.599348
  H 5.112948 -0.052236 -0.083904
  H 4.901233 -2.358943 -3.483968
  H 4.897085 -0.744706 -4.134433
  H 6.954803 -0.526111 -1.279424
 26
 26.267928
  C 0.924648 0.086597 0.262296
  C 2.395236 0.113880 0.333660
  C 3.163257 0.596403 1.536377
  C 2.413795 1.091702 2.767484
  C 3.408963 1.520783 3.840430
  C 3.138000 -0.335341 -0.782766
  C 4.496338 -0.385385 -0.910843
  C 5.178636 -0.836293 -2.035348
  C 4.552001 -1.340478 -3.281106
  H 3.471749 -1.329999 -3.247309
  O 6.494854 -0.844586 -2.066820
  H 1.091264 0.477111 1.235340
  H 0.489633 -0.899729 0.179083
  H 0.491263 0.742602 -0.480062
  H 3.825087 1.402515 1.206079
  H 3.823339 -0.215380 1.855871
  H 1.781609 0.302485 3.185580
  H 1.784057 1.952721 2.523138
  H 4.042143 0.688066 4.139895
  H 2.881841 1.875927 4.722830
  H 4.045051 2.327528 3.481669
  H 2.547806 -0.670897 -1.616828
  H 5.103543 -0.050942 -0.082716
  H 4.903847 -2.355159 -3.470822
  H 4.899332 -0.739978 -4.122434
  H 6.929169 -0.518112 -1.260648
 26
 40.241475
  C 0.891821 0.090250 0.268899
  C 2.376801 0.118453 0.344662
  C 3.156035 0.596299 1.536834
  C 2.411374 1.091453 2.767146
  C 3.408510 1.518396 3.836491
  C 3.121729 -0.329152 -0.767206
  C 4.495847 -0.380084 -0.898765
  C 5.191176 -0.839111 -2.043355
  C 4.573386 -1.345754 -3.290680
  H 3.496448 -1.340014 -3.265396
  O 6.486304 -0.845514 -2.073742
  H 1.197380 0.464127 1.202425
  H 0.453249 -0.894563 0.209039
  H 0.455565 0.762487 -0.454829
  H 3.817015 1.399740 1.202874
  H 3.814623 -0.216600 1.851818
  H 1.778166 0.303341 3.185426
  H 1.781493 1.952378 2.523767
  H 4.041061 0.684658 4.134465
  H 2.883823 1.874053 4.719784
  H 4.044871 2.324348 3.476374
  H 2.532995 -0.663913 -1.598734
  H 5.106158 -0.043016 -0.066240
  H 4.930381 -2.359010 -3.477644
  H 4.923873 -0.744976 -4.130237
  H 6.913794 -0.520590 -1.274751
 26
 53.422715
  C 0.874384 0.081060 0.244419
  C 2.372581 0.115759 0.339562
  C 3.163203 0.595417 1.536119
  C 2.416286 1.092268 2.768719
  C 3.411256 1.519923 3.841065
  C 3.112892 -0.330282 -0.767165
  C 4.497325 -0.380783 -0.900786
  C 5.182600 -0.835075 -2.034430
  C 4.560200 -1.339088 -3.272557
  H 3.477851 -1.332266 -3.242009
  O 6.486136 -0.842076 -2.068725
  H 1.281393 0.444414 1.155206
  H 0.446441 -0.903869 0.192591
  H 0.448201 0.761826 -0.470633
  H 3.824659 1.398302 1.201991
  H 3.821290 -0.217803 1.850987
  H 1.781613 0.304589 3.184064
  H 1.785900 1.951594 2.522933
  H 4.044301 0.685579 4.141368
  H 2.884643 1.875163 4.722057
  H 4.049230 2.327065 3.482275
  H 2.517364 -0.668431 -1.605746
  H 5.109571 -0.044381 -0.072122
  H 4.915774 -2.352311 -3.460558
  H 4.907752 -0.739128 -4.113517
  H 6.929353 -0.509420 -1.252491
 26
 64.544066
  C 0.870573 0.083284 0.235384
  C 2.387988 0.104394 0.350798
  C 3.177318 0.584476 1.535978
  C 2.413460 1.098942 2.765146
  C 3.397517 1.527964 3.852474
  C 3.110965 -0.353140 -0.756164
  C 4.503219 -0.387091 -0.902284
  C 5.178699 -0.828334 -2.034303
  C 4.550427 -1.335940 -3.273144
  H 3.468154 -1.336744 -3.236620
  O 6.491225 -0.829643 -2.076021
  H 1.362339 0.421549 1.132029
  H 0.453834 -0.905755 0.166361
  H 0.441894 0.797187 -0.442774
  H 3.849556 1.383727 1.199748
  H 3.826860 -0.237674 1.858732
  H 1.767419 0.317622 3.175577
  H 1.791690 1.959969 2.505711
  H 4.020220 0.692717 4.166100
  H 2.860977 1.892166 4.725327
  H 4.044732 2.327795 3.498860
  H 2.514601 -0.697210 -1.588092
  H 5.116065 -0.043142 -0.078821
  H 4.912025 -2.346526 -3.464762
  H 4.889079 -0.731380 -4.114887
  H 6.928554 -0.501421 -1.274783
 26
 71.406118
  C 0.880844 0.083890 0.212886
  C 2.420269 0.089705 0.359957
  C 3.215339 0.582147 1.555944
  C 2.417581 1.115371 2.767971
  C 3.368124 1.541177 3.879204
  C 3.109818 -0.383253 -0.741497
  C 4.504377 -0.392906 -0.909859
  C 5.167206 -0.824358 -2.049003
  C 4.534900 -1.342018 -3.289379
  H 3.463097 -1.353280 -3.247637
  O 6.477765 -0.821094 -2.104442
  H 1.435214 0.389436 1.103029
  H 0.494604 -0.913021 0.090391
  H 0.421197 0.843349 -0.387490
  H 3.902491 1.376177 1.233166
  H 3.847365 -0.253062 1.887896
  H 1.756551 0.345194 3.161125
  H 1.814154 1.974292 2.489622
  H 3.972856 0.705684 4.212997
  H 2.811241 1.912611 4.731572
  H 4.029249 2.331380 3.542277
  H 2.507218 -0.743860 -1.564227
  H 5.118256 -0.036645 -0.098871
  H 4.903792 -2.349197 -3.482041
  H 4.861831 -0.733848 -4.132337
  H 6.922254 -0.484611 -1.294504
 26
 75.614001
  C 0.879941 0.079196 0.183552
  C 2.439719 0.074693 0.376613
  C 3.233995 0.577406 1.570092
  C 2.424216 1.115104 2.754686
  C 3.361860 1.553056 3.880434
  C 3.111632 -0.406408 -0.727303
  C 4.509333 -0.409156 -0.901453
  C 5.160889 -0.824486 -2.044510
  C 4.522829 -1.333157 -3.280301
  H 3.430865 -1.352517 -3.226776
  O 6.479973 -0.809982 -2.117575
  H 1.480677 0.342245 1.088467
  H 0.507944 -0.910843 0.000732
  H 0.406275 0.889128 -0.334665
  H 3.919581 1.366544 1.248092
  H 3.856144 -0.254422 1.914974
  H 1.752409 0.340325 3.146449
  H 1.819541 1.978573 2.452938
  H 3.966025 0.714887 4.232738
  H 2.788510 1.934845 4.726159
  H 4.033341 2.345853 3.544191
  H 2.512966 -0.770104 -1.546428
  H 5.130415 -0.048389 -0.083325
  H 4.897434 -2.336718 -3.485191
  H 4.837589 -0.711936 -4.119372
  H 6.922025 -0.479502 -1.318439
 26
 78.667968
  C 0.882090 0.078676 0.151578
  C 2.451009 0.061791 0.387753
  C 3.250740 0.572623 1.582443
  C 2.426635 1.121514 2.763757
  C 3.353991 1.566821 3.895431
  C 3.111109 -0.424096 -0.716795
  C 4.508317 -0.413217 -0.902379
  C 5.153680 -0.820839 -2.049210
  C 4.512762 -1.336902 -3.287853
  H 3.430710 -1.364805 -3.231660
  O 6.470602 -0.799487 -2.128727
  H 1.515915 0.289993 1.070723
  H 0.515837 -0.900221 -0.088173
  H 0.412512 0.933754 -0.287664
  H 3.941037 1.365513 1.254464
  H 3.872564 -0.266251 1.938462
  H 1.750700 0.349241 3.153847
  H 1.825697 1.982193 2.448369
  H 3.951869 0.735437 4.256841
  H 2.774138 1.954094 4.732810
  H 4.025733 2.352692 3.561627
  H 2.514018 -0.798117 -1.526024
  H 5.129902 -0.046261 -0.089845
  H 4.894917 -2.338137 -3.493628
  H 4.818067 -0.712610 -4.128694
  H 6.914979 -0.465343 -1.325953
 26
 80.714691
  C 0.877026 0.084833 0.131683
  C 2.459322 0.040612 0.403804
  C 3.259084 0.561843 1.596826
  C 2.433738 1.125255 2.754845
  C 3.351046 1.578650 3.887633
  C 3.115965 -0.456490 -0.697678
  C 4.512178 -0.435083 -0.889361
  C 5.152869 -0.823352 -2.042103
  C 4.507884 -1.327914 -3.285138
  H 3.425276 -1.367811 -3.221805
  O 6.470304 -0.776798 -2.135882
  H 1.545156 0.240058 1.065568
  H 0.501362 -0.876882 -0.158902
  H 0.414857 0.977115 -0.228987
  H 3.950999 1.344983 1.263673
  H 3.869102 -0.275152 1.965517
  H 1.750680 0.363727 3.146612
  H 1.843652 1.980611 2.422923
  H 3.941644 0.747752 4.265437
  H 2.766066 1.978745 4.713889
  H 4.031010 2.357455 3.549456
  H 2.512382 -0.834611 -1.511990
  H 5.132754 -0.060136 -0.082683
  H 4.899382 -2.321516 -3.508081
  H 4.799401 -0.687893 -4.118183
  H 6.915298 -0.442360 -1.337168
 26
 82.703088
  C 0.877284 0.096629 0.111638
  C 2.462667 0.030647 0.412523
  C 3.266521 0.555365 1.603621
  C 2.437276 1.126812 2.752848
  C 3.349875 1.582123 3.885304
  C 3.117601 -0.473358 -0.687738
  C 4.511025 -0.429905 -0.888899
  C 5.149874 -0.814635 -2.043096
  C 4.503878 -1.330045 -3.281629
  H 3.424648 -1.377104 -3.215165
  O 6.467280 -0.762589 -2.137745
  H 1.570890 0.195283 1.057641
  H 0.496550 -0.847535 -0.225763
  H 0.421493 1.017329 -0.173312
  H 3.959430 1.334719 1.268050
  H 3.869078 -0.280752 1.976582
  H 1.749623 0.371556 3.143961
  H 1.852604 1.981634 2.411866
  H 3.934786 0.751236 4.268838
  H 2.762218 1.987745 4.705593
  H 4.032921 2.355766 3.545506
  H 2.513170 -0.867094 -1.491570
  H 5.131583 -0.040845 -0.090442
  H 4.901052 -2.322559 -3.501935
  H 4.787908 -0.691841 -4.119605
  H 6.913312 -0.421438 -1.338015
 26
 83.871926
  C 0.887194 0.117506 0.098967
  C 2.474736 0.037256 0.415555
  C 3.272010 0.562112 1.610351
  C 2.436494 1.125718 2.757374
  C 3.336304 1.579510 3.891272
  C 3.126054 -0.472195 -0.685719
  C 4.517458 -0.415012 -0.899058
  C 5.150547 -0.809172 -2.049361
  C 4.499450 -1.344722 -3.281014
  H 3.418950 -1.391177 -3.209621
  O 6.470310 -0.766388 -2.149578
  H 1.604364 0.160377 1.048602
  H 0.501036 -0.811975 -0.279812
  H 0.423972 1.050279 -0.109444
  H 3.958069 1.342768 1.279727
  H 3.874429 -0.270957 1.979237
  H 1.753589 0.370215 3.142028
  H 1.851659 1.975690 2.418223
  H 3.923868 0.750715 4.274446
  H 2.743649 1.978252 4.708558
  H 4.016337 2.358096 3.557778
  H 2.518977 -0.887224 -1.482550
  H 5.140227 -0.008444 -0.109720
  H 4.896546 -2.341368 -3.487696
  H 4.780954 -0.717658 -4.130069
  H 6.917371 -0.414616 -1.361220
 26
 84.860521
  C 0.883222 0.131381 0.079486
  C 2.483940 0.020195 0.422277
  C 3.279466 0.553738 1.618108
  C 2.435707 1.130627 2.760343
  C 3.333203 1.593646 3.901208
  C 3.130640 -0.497673 -0.678187
  C 4.519421 -0.437617 -0.894898
  C 5.151682 -0.820738 -2.052924
  C 4.500249 -1.344700 -3.283763
  H 3.422764 -1.401603 -3.206633
  O 6.468528 -0.750928 -2.166712
  H 1.623305 0.108945 1.045537
  H 0.488821 -0.772237 -0.336669
  H 0.418926 1.080386 -0.064598
  H 3.970031 1.331777 1.282858
  H 3.877716 -0.278073 1.995102
  H 1.746131 0.377914 3.148459
  H 1.852707 1.982250 2.409163
  H 3.917892 0.765463 4.296053
  H 2.735663 2.001419 4.713160
  H 4.018619 2.369364 3.565433
  H 2.523192 -0.908681 -1.473592
  H 5.140213 -0.031756 -0.107954
  H 4.904644 -2.333414 -3.504786
  H 4.770868 -0.704504 -4.124320
  H 6.915846 -0.390791 -1.381999
