 20
 0.000000
  C 1.008212 -0.071253 0.048125
  C 2.504001 -0.082532 0.024541
  C 3.217997 -0.596559 -0.982714
  C 4.656094 -0.607066 -1.002463
  C 5.377030 -1.121614 -2.014146
  C 6.815732 -1.131060 -2.031764
  C 7.534509 -1.642061 -3.036482
  C 9.024649 -1.661153 -3.073047
  H 0.648913 0.397090 0.963825
  H 0.611756 -1.086087 0.013759
  H 0.610612 0.493128 -0.795384
  H 3.005636 0.353676 0.878504
  H 2.705785 -1.029859 -1.833230
  H 5.160088 -0.172793 -0.147887
  H 4.873535 -1.555979 -2.868908
  H 7.321952 -0.697208 -1.178002
  H 7.036360 -2.077729 -3.893794
  H 9.458143 -1.208635 -2.182623
  H 9.384462 -1.114289 -3.946144
  H 9.383933 -2.688998 -3.145616
 20
 -0.309596
  C 0.999988 -0.076808 0.046439
  C 2.493027 -0.055551 0.034512
  C 3.225505 -0.582723 -0.951127
  C 4.662234 -0.579909 -0.994159
  C 5.383640 -1.122677 -1.988511
  C 6.818325 -1.121924 -2.030708
  C 7.541333 -1.663576 -3.024658
  C 9.030095 -1.671252 -3.083671
  H 0.611236 0.145371 1.037028
  H 0.633198 -1.050287 -0.265809
  H 0.603415 0.665832 -0.648229
  H 2.983392 0.428538 0.867942
  H 2.722686 -1.057821 -1.785389
  H 5.171450 -0.106802 -0.162928
  H 4.874899 -1.595091 -2.819402
  H 7.323950 -0.649154 -1.197773
  H 7.036245 -2.136774 -3.858488
  H 9.459415 -1.179094 -2.214123
  H 9.375708 -1.161133 -3.983412
  H 9.401642 -2.695451 -3.127717
 20
 -0.455113
  C 0.999861 -0.091312 0.019727
  C 2.489726 0.010223 0.012002
  C 3.238881 -0.572438 -0.925668
  C 4.673244 -0.567200 -0.980990
  C 5.386391 -1.126062 -1.974331
  C 6.821455 -1.126857 -2.028873
  C 7.530849 -1.676165 -3.017724
  C 9.018106 -1.684442 -3.090207
  H 0.619502 -0.108833 1.039046
  H 0.701471 -1.010500 -0.483142
  H 0.547301 0.756084 -0.495860
  H 2.953405 0.560129 0.819577
  H 2.745365 -1.091431 -1.740128
  H 5.190317 -0.083939 -0.160737
  H 4.870011 -1.609128 -2.794712
  H 7.334987 -0.645085 -1.205755
  H 7.018014 -2.157742 -3.840952
  H 9.455179 -1.180525 -2.231515
  H 9.355549 -1.186706 -4.000010
  H 9.389159 -2.709404 -3.123821
 20
 -0.278623
  C 1.005108 -0.102946 0.019564
  C 2.485576 0.068029 -0.028369
  C 3.234766 -0.557091 -0.937981
  C 4.669672 -0.551399 -0.991716
  C 5.384884 -1.126653 -1.974850
  C 6.820013 -1.135048 -2.023084
  C 7.530204 -1.687391 -3.008052
  C 9.017554 -1.700304 -3.075855
  H 0.694693 -0.378568 1.027818
  H 0.738319 -0.917795 -0.650553
  H 0.477656 0.808856 -0.255711
  H 2.940040 0.694367 0.726958
  H 2.744338 -1.093690 -1.742367
  H 5.185871 -0.063655 -0.173653
  H 4.869880 -1.616870 -2.791896
  H 7.332447 -0.653705 -1.199083
  H 7.018449 -2.167366 -3.832785
  H 9.453242 -1.185834 -2.222693
  H 9.358910 -1.216045 -3.991337
  H 9.386251 -2.726518 -3.094137
 20
 4.539749
  C 1.028236 -0.149114 0.041420
  C 2.480034 0.165870 -0.083835
  C 3.222522 -0.507078 -0.970242
  C 4.657174 -0.529168 -1.005969
  C 5.375299 -1.103449 -1.988875
  C 6.809259 -1.157967 -2.007393
  C 7.522949 -1.681693 -3.004185
  C 9.010339 -1.735719 -3.043575
  H 0.854709 -0.614910 1.015760
  H 0.848680 -0.939562 -0.683901
  H 0.369611 0.708501 -0.046077
  H 2.903148 0.936074 0.544483
  H 2.737441 -0.966558 -1.823445
  H 5.172492 -0.086834 -0.162021
  H 4.862332 -1.555922 -2.828752
  H 7.318665 -0.734592 -1.150417
  H 7.014710 -2.099964 -3.863874
  H 9.443198 -1.255833 -2.169095
  H 9.383926 -1.240007 -3.939959
  H 9.349859 -2.771736 -3.079880
 20
 15.308289
  C 1.076440 -0.254218 0.082403
  C 2.467594 0.245507 -0.097352
  C 3.210478 -0.375886 -1.035872
  C 4.639605 -0.450546 -1.037686
  C 5.359670 -1.029927 -2.021669
  C 6.789190 -1.151185 -2.006889
  C 7.507396 -1.717461 -2.986826
  C 8.994582 -1.805726 -3.001219
  H 1.051178 -0.915540 0.952334
  H 0.977140 -0.961231 -0.747882
  H 0.304422 0.500900 0.179025
  H 2.840579 1.062530 0.502481
  H 2.743859 -0.636765 -1.977973
  H 5.150250 -0.066089 -0.162622
  H 4.848586 -1.408062 -2.898867
  H 7.299132 -0.721960 -1.152814
  H 7.001911 -2.153924 -3.839925
  H 9.423049 -1.307084 -2.134726
  H 9.394132 -1.341222 -3.903593
  H 9.313148 -2.848710 -3.001934
 20
 36.810311
  C 1.141805 -0.252168 0.036402
  C 2.504411 0.336993 -0.126812
  C 3.244911 -0.417395 -0.986422
  C 4.657575 -0.522684 -0.995238
  C 5.337589 -1.054546 -1.978234
  C 6.752603 -1.191457 -1.971032
  C 7.445380 -1.653731 -2.979537
  C 8.928929 -1.781752 -2.999399
  H 1.098785 -0.926304 0.911070
  H 1.288787 -1.084715 -0.671722
  H 0.296243 0.416729 0.062321
  H 2.802283 1.287037 0.273915
  H 2.807268 -0.606389 -1.960245
  H 5.189236 -0.192857 -0.110163
  H 4.809757 -1.416830 -2.851081
  H 7.264144 -0.882685 -1.070424
  H 6.934680 -1.960196 -3.880385
  H 9.365638 -1.430419 -2.068465
  H 9.347124 -1.205544 -3.822899
  H 9.216858 -2.823851 -3.150871
 20
 62.891501
  C 1.263595 -0.394128 0.114816
  C 2.450739 0.407980 -0.142844
  C 3.171447 -0.236500 -1.096684
  C 4.575946 -0.353876 -1.079446
  C 5.298367 -0.887433 -2.072931
  C 6.713599 -1.087609 -2.013826
  C 7.424020 -1.664272 -2.975244
  C 8.891553 -1.907404 -2.914390
  H 1.380100 -1.235460 0.816549
  H 1.730058 -1.154939 -0.711068
  H 0.330919 0.127789 0.293257
  H 2.712821 1.334813 0.326893
  H 2.732804 -0.377922 -2.071146
  H 5.071860 -0.063072 -0.162759
  H 4.798258 -1.219851 -2.974893
  H 7.209977 -0.754414 -1.111968
  H 6.930864 -1.994371 -3.880064
  H 9.312559 -1.546687 -1.980385
  H 9.392848 -1.415419 -3.748423
  H 9.098675 -2.975457 -3.004286
 20
 80.360593
  C 1.245160 -0.270098 0.189282
  C 2.380486 0.467628 -0.170723
  C 3.114443 -0.344768 -1.079923
  C 4.556666 -0.475142 -1.050111
  C 5.292015 -1.000684 -2.046058
  C 6.715665 -1.174054 -1.988170
  C 7.450325 -1.671875 -2.985852
  C 8.927918 -1.851561 -2.941877
  H 1.349774 -1.136771 0.826284
  H 1.940259 -1.205205 -0.765617
  H 0.298533 0.236709 0.380069
  H 2.648849 1.457406 0.165108
  H 2.703929 -0.438566 -2.081504
  H 5.045661 -0.180224 -0.129691
  H 4.803349 -1.310645 -2.961902
  H 7.199905 -0.873249 -1.066265
  H 6.968100 -1.972713 -3.907874
  H 9.336169 -1.508892 -1.993647
  H 9.401812 -1.294861 -3.751482
  H 9.185363 -2.902818 -3.075885
 20
 66.146469
  C 1.257247 -0.234222 0.256450
  C 2.321061 0.473907 -0.180598
  C 3.064855 -0.370536 -1.132863
  C 4.521594 -0.491500 -1.089312
  C 5.264141 -0.989063 -2.070338
  C 6.690106 -1.154899 -1.993577
  C 7.435459 -1.671706 -2.974053
  C 8.909614 -1.863435 -2.908055
  H 1.415045 -1.155920 0.799268
  H 2.225329 -1.223668 -0.910796
  H 0.321565 0.225941 0.571489
  H 2.614372 1.459945 0.138397
  H 2.669746 -0.415524 -2.153425
  H 4.992127 -0.207923 -0.160193
  H 4.787680 -1.321871 -2.987066
  H 7.160472 -0.834789 -1.078346
  H 6.962412 -1.988751 -3.896555
  H 9.309075 -1.499231 -1.965875
  H 9.393728 -1.330419 -3.723057
  H 9.162351 -2.920123 -3.011437
 20
 41.288176
  C 1.266410 -0.044687 0.360609
  C 2.331055 0.458605 -0.275243
  C 3.003038 -0.547689 -1.156526
  C 4.463522 -0.700039 -1.082215
  C 5.243128 -1.123167 -2.074535
  C 6.682582 -1.258650 -1.975620
  C 7.462537 -1.659869 -2.974476
  C 8.951432 -1.745845 -2.908303
  H 1.290992 -0.973656 0.886006
  H 2.291707 -1.378868 -0.854245
  H 0.455304 0.586264 0.687013
  H 2.726119 1.435879 -0.126155
  H 2.628399 -0.517416 -2.190662
  H 4.904913 -0.443915 -0.123591
  H 4.803357 -1.356164 -3.033495
  H 7.129420 -0.994053 -1.013318
  H 7.017167 -1.954917 -3.916090
  H 9.317678 -1.479376 -1.915928
  H 9.398613 -1.070478 -3.642371
  H 9.286734 -2.753286 -3.150203
 20
 25.930979
  C 1.271032 -0.014059 0.386229
  C 2.305329 0.444350 -0.307953
  C 2.996652 -0.574324 -1.164544
  C 4.470777 -0.695352 -1.079676
  C 5.246397 -1.145704 -2.062524
  C 6.681119 -1.257498 -1.968254
  C 7.465513 -1.659136 -2.970060
  C 8.951869 -1.738101 -2.904286
  H 1.247631 -1.010073 0.797238
  H 2.390350 -1.461609 -0.890136
  H 0.514351 0.616175 0.838560
  H 2.705831 1.441094 -0.210841
  H 2.654843 -0.496387 -2.206857
  H 4.915062 -0.405168 -0.136134
  H 4.803141 -1.430544 -3.008767
  H 7.122293 -0.981811 -1.018128
  H 7.021670 -1.958977 -3.911357
  H 9.319837 -1.394212 -1.940590
  H 9.397516 -1.127982 -3.690315
  H 9.284270 -2.765025 -3.060977
 20
 15.091538
  C 1.289212 0.101574 0.430100
  C 2.318803 0.366499 -0.359797
  C 2.969100 -0.732514 -1.136587
  C 4.454595 -0.791887 -1.063325
  C 5.244562 -1.178865 -2.063304
  C 6.682578 -1.248919 -1.972971
  C 7.474522 -1.618536 -2.978857
  C 8.960509 -1.692542 -2.905223
  H 1.077113 -0.880817 0.819406
  H 2.473226 -1.634040 -0.774933
  H 0.676080 0.899786 0.836589
  H 2.770569 1.347151 -0.402069
  H 2.634429 -0.675509 -2.179931
  H 4.888113 -0.517138 -0.109816
  H 4.808687 -1.458297 -3.014931
  H 7.117042 -0.978152 -1.018544
  H 7.039962 -1.877127 -3.936495
  H 9.319452 -1.391104 -1.924070
  H 9.408917 -1.044170 -3.658764
  H 9.299345 -2.709215 -3.106928
 20
 9.753440
  C 1.370408 0.215272 0.477415
  C 2.340015 0.330364 -0.412713
  C 2.933989 -0.847082 -1.123560
  C 4.422197 -0.916520 -1.037214
  C 5.226977 -1.204144 -2.059558
  C 6.664875 -1.274387 -1.958277
  C 7.470358 -1.550553 -2.983196
  C 8.955132 -1.633050 -2.896734
  H 1.044418 -0.740659 0.855473
  H 2.459709 -1.744928 -0.716358
  H 0.834174 1.077466 0.847102
  H 2.773471 1.293203 -0.647982
  H 2.620054 -0.803671 -2.173197
  H 4.842005 -0.715009 -0.059817
  H 4.804662 -1.404547 -3.036951
  H 7.086288 -1.087330 -0.978285
  H 7.047568 -1.731797 -3.963789
  H 9.304860 -1.363112 -1.903190
  H 9.415870 -0.967106 -3.626852
  H 9.289787 -2.646229 -3.122767
 20
 8.754158
  C 1.500247 0.315360 0.500337
  C 2.357534 0.316411 -0.501278
  C 2.897074 -0.938314 -1.123983
  C 4.383696 -1.043784 -1.020172
  C 5.203798 -1.222146 -2.054888
  C 6.639130 -1.318971 -1.938658
  C 7.460087 -1.474832 -2.976285
  C 8.943225 -1.577376 -2.875405
  H 1.190355 -0.604396 0.973112
  H 2.397240 -1.795149 -0.659105
  H 0.988055 1.195335 0.851831
  H 2.686981 1.243245 -0.951653
  H 2.606585 -0.928181 -2.180541
  H 4.786489 -0.947406 -0.019658
  H 4.795887 -1.312211 -3.054476
  H 7.044435 -1.256919 -0.936384
  H 7.052677 -1.535372 -3.977806
  H 9.284816 -1.338856 -1.870994
  H 9.421717 -0.900429 -3.582424
  H 9.266791 -2.589828 -3.122021
