 20
 0.000000
  C 1.007407 -0.071987 0.046795
  C 2.503501 -0.082421 0.026283
  C 3.219381 -0.595101 -0.980314
  C 4.657411 -0.605584 -1.000929
  C 5.377664 -1.120885 -2.012668
  C 6.816439 -1.130330 -2.031205
  C 7.534132 -1.642358 -3.036074
  C 9.024091 -1.662132 -3.074642
  H 0.644918 0.394302 0.962294
  H 0.612046 -1.087118 0.008294
  H 0.612031 0.493789 -0.796921
  H 3.003359 0.353232 0.881621
  H 2.708222 -1.028636 -1.831484
  H 5.161996 -0.170619 -0.146943
  H 4.873563 -1.555930 -2.866820
  H 7.322946 -0.695862 -1.177808
  H 7.034793 -2.078637 -3.892479
  H 9.458849 -1.208818 -2.185150
  H 9.382970 -1.115989 -3.948600
  H 9.383681 -2.689896 -3.146698
 20
 2.014124
  C 1.032330 -0.064312 0.088594
  C 2.525630 -0.097122 0.036040
  C 3.220499 -0.591655 -0.989055
  C 4.650950 -0.624637 -1.042716
  C 5.352006 -1.124057 -2.077231
  C 6.779811 -1.154397 -2.130392
  C 7.520047 -1.640267 -3.112390
  C 9.001721 -1.619754 -3.005789
  H 0.684006 0.381904 1.016466
  H 0.623067 -1.072512 0.016864
  H 0.631236 0.515079 -0.743517
  H 3.052726 0.308758 0.889100
  H 2.694117 -0.998320 -1.843617
  H 5.177743 -0.218346 -0.189493
  H 4.828258 -1.531705 -2.934393
  H 7.355016 -0.765281 -1.292075
  H 7.089362 -2.114868 -3.981085
  H 9.327684 -1.045558 -2.147276
  H 9.464210 -1.214267 -3.897672
  H 9.328090 -2.630380 -2.865192
 20
 4.869049
  C 1.047914 -0.067884 0.116522
  C 2.540827 -0.120038 0.050323
  C 3.222465 -0.587720 -1.000931
  C 4.652012 -0.639272 -1.068020
  C 5.335377 -1.109627 -2.122620
  C 6.760298 -1.157187 -2.190423
  C 7.515817 -1.627262 -3.180793
  C 8.988273 -1.594198 -2.973093
  H 0.711748 0.348563 1.062413
  H 0.624115 -1.066732 0.008867
  H 0.649468 0.545646 -0.692046
  H 3.080752 0.246981 0.914222
  H 2.683120 -0.955215 -1.865502
  H 5.193195 -0.272034 -0.205306
  H 4.800572 -1.477749 -2.989566
  H 7.373571 -0.824377 -1.361435
  H 7.121470 -2.132320 -4.049731
  H 9.254122 -0.848889 -2.225676
  H 9.557266 -1.407295 -3.878593
  H 9.233536 -2.555010 -2.530072
 20
 8.025392
  C 1.059543 -0.074719 0.133095
  C 2.557891 -0.145790 0.060423
  C 3.230278 -0.584062 -1.007852
  C 4.658813 -0.653450 -1.080907
  C 5.335855 -1.097071 -2.157594
  C 6.758173 -1.163683 -2.231032
  C 7.510833 -1.614319 -3.228299
  C 8.972464 -1.583991 -2.949743
  H 0.731135 0.311934 1.094865
  H 0.621776 -1.060396 -0.008962
  H 0.668275 0.571825 -0.649246
  H 3.103686 0.181069 0.933395
  H 2.685318 -0.911185 -1.880947
  H 5.205759 -0.326147 -0.209029
  H 4.795229 -1.424177 -3.033131
  H 7.388027 -0.872745 -1.382836
  H 7.127446 -2.127368 -4.089648
  H 9.221205 -0.690995 -2.382367
  H 9.616999 -1.635561 -3.818482
  H 9.108216 -2.402740 -2.247040
 20
 11.273747
  C 1.074890 -0.079793 0.146646
  C 2.570415 -0.170954 0.070536
  C 3.235392 -0.582338 -1.012296
  C 4.664309 -0.668816 -1.089897
  C 5.334757 -1.086051 -2.182424
  C 6.751546 -1.175939 -2.257603
  C 7.507146 -1.608108 -3.262635
  C 8.959547 -1.573158 -2.920944
  H 0.753032 0.278490 1.120168
  H 0.623186 -1.052112 -0.027968
  H 0.693665 0.597872 -0.611718
  H 3.121174 0.118128 0.953706
  H 2.684045 -0.872024 -1.896458
  H 5.217084 -0.379406 -0.207338
  H 4.788988 -1.374090 -3.068166
  H 7.394069 -0.930848 -1.396243
  H 7.134745 -2.116415 -4.123332
  H 9.221482 -0.576098 -2.571080
  H 9.653745 -1.854282 -3.705763
  H 8.981916 -2.197359 -2.027532
 20
 15.285442
  C 1.088843 -0.081340 0.160701
  C 2.580520 -0.186316 0.079357
  C 3.237014 -0.584929 -1.012848
  C 4.666872 -0.694598 -1.093186
  C 5.327040 -1.095641 -2.193821
  C 6.746717 -1.180171 -2.280773
  C 7.509108 -1.577284 -3.294311
  C 8.947640 -1.561708 -2.884644
  H 0.774044 0.261143 1.141872
  H 0.624375 -1.051360 -0.033058
  H 0.711624 0.619000 -0.587850
  H 3.135935 0.078663 0.967392
  H 2.681621 -0.848465 -1.896677
  H 5.228471 -0.426389 -0.204788
  H 4.773826 -1.359617 -3.088799
  H 7.409931 -0.955605 -1.429535
  H 7.157433 -2.079147 -4.177232
  H 9.262374 -0.538055 -2.721644
  H 9.659877 -2.033975 -3.553836
  H 8.848072 -2.002027 -1.888220
 20
 20.973918
  C 1.099947 -0.067019 0.168426
  C 2.587630 -0.199814 0.088232
  C 3.238175 -0.587209 -1.011186
  C 4.666328 -0.716087 -1.093313
  C 5.321375 -1.104461 -2.203326
  C 6.737273 -1.225075 -2.282542
  C 7.510904 -1.617249 -3.295444
  C 8.941802 -1.526549 -2.870214
  H 0.789691 0.260892 1.155834
  H 0.617361 -1.023135 -0.046932
  H 0.738951 0.656503 -0.565837
  H 3.145446 0.037251 0.982855
  H 2.677315 -0.822657 -1.903825
  H 5.230932 -0.480120 -0.197012
  H 4.764158 -1.341498 -3.104268
  H 7.433703 -1.050828 -1.426076
  H 7.180212 -2.094377 -4.197820
  H 9.241790 -0.481790 -2.836599
  H 9.678874 -2.076350 -3.446639
  H 8.775004 -1.828897 -1.819174
 20
 28.192213
  C 1.106127 -0.060170 0.180055
  C 2.593347 -0.205943 0.095021
  C 3.237847 -0.591652 -1.008745
  C 4.663442 -0.738352 -1.092934
  C 5.313307 -1.120765 -2.208149
  C 6.730382 -1.228290 -2.298191
  C 7.516394 -1.594879 -3.313886
  C 8.934172 -1.514236 -2.846408
  H 0.801062 0.262158 1.171050
  H 0.615713 -1.007557 -0.042381
  H 0.750676 0.671096 -0.545482
  H 3.157654 0.019458 0.992597
  H 2.672207 -0.815296 -1.903914
  H 5.232580 -0.514037 -0.196418
  H 4.752073 -1.349005 -3.107349
  H 7.460545 -1.068576 -1.454465
  H 7.214766 -2.072565 -4.224777
  H 9.286424 -0.486978 -2.923302
  H 9.666291 -2.162554 -3.315727
  H 8.677972 -1.681717 -1.771097
 20
 36.490267
  C 1.110496 -0.055908 0.188019
  C 2.597553 -0.200310 0.098213
  C 3.238075 -0.590217 -1.006608
  C 4.661072 -0.760625 -1.088060
  C 5.307247 -1.140958 -2.205803
  C 6.724261 -1.240001 -2.301807
  C 7.524047 -1.585505 -3.317984
  C 8.932460 -1.502652 -2.829308
  H 0.807692 0.265557 1.180953
  H 0.620533 -1.002569 -0.033042
  H 0.752326 0.674185 -0.535057
  H 3.164294 0.022368 0.995643
  H 2.670186 -0.809054 -1.899497
  H 5.233113 -0.535285 -0.193660
  H 4.745679 -1.350288 -3.109283
  H 7.490925 -1.091208 -1.463954
  H 7.229398 -2.036090 -4.243958
  H 9.332777 -0.506081 -2.998994
  H 9.644527 -2.227803 -3.211335
  H 8.605192 -1.553144 -1.740995
 20
 46.575020
  C 1.115445 -0.074876 0.199839
  C 2.598891 -0.203685 0.104070
  C 3.237393 -0.587607 -1.004973
  C 4.663791 -0.708115 -1.102798
  C 5.307390 -1.091258 -2.222155
  C 6.722743 -1.223600 -2.307147
  C 7.530308 -1.586609 -3.310288
  C 8.927079 -1.527920 -2.804716
  H 0.812270 0.252807 1.200363
  H 0.630623 -1.036426 -0.016019
  H 0.750939 0.641040 -0.519471
  H 3.165670 0.034390 0.995002
  H 2.666782 -0.822532 -1.889695
  H 5.236002 -0.475354 -0.214265
  H 4.744258 -1.323124 -3.115525
  H 7.530313 -1.072072 -1.486325
  H 7.237749 -2.004899 -4.253380
  H 9.384599 -0.570035 -3.033776
  H 9.611006 -2.315440 -3.112669
  H 8.528448 -1.485656 -1.721903
 20
 56.685884
  C 1.113271 -0.079102 0.207330
  C 2.599247 -0.203136 0.109286
  C 3.237072 -0.588764 -1.000166
  C 4.662958 -0.688610 -1.104149
  C 5.304847 -1.076750 -2.223153
  C 6.719298 -1.225979 -2.302964
  C 7.533631 -1.592508 -3.298425
  C 8.930169 -1.536760 -2.799311
  H 0.812785 0.251804 1.199702
  H 0.630178 -1.041467 -0.001385
  H 0.746045 0.631499 -0.516070
  H 3.167499 0.044113 0.997290
  H 2.665190 -0.834253 -1.882543
  H 5.237807 -0.448463 -0.214659
  H 4.738613 -1.321022 -3.111835
  H 7.571744 -1.069946 -1.482903
  H 7.244447 -1.983397 -4.256510
  H 9.412559 -0.601905 -3.068412
  H 9.595346 -2.355107 -3.063609
  H 8.487520 -1.435130 -1.694147
 20
 65.700273
  C 1.110252 -0.067530 0.208801
  C 2.595281 -0.201349 0.114558
  C 3.233040 -0.592094 -0.993036
  C 4.660586 -0.698358 -1.094573
  C 5.302354 -1.090956 -2.212218
  C 6.717435 -1.237842 -2.290833
  C 7.537953 -1.606590 -3.283556
  C 8.936071 -1.522182 -2.802662
  H 0.809172 0.268722 1.201659
  H 0.623384 -1.023185 0.000003
  H 0.747970 0.648318 -0.518915
  H 3.163555 0.043121 1.004597
  H 2.661087 -0.837928 -1.875721
  H 5.233143 -0.457681 -0.208144
  H 4.733810 -1.340252 -3.099977
  H 7.610718 -1.085337 -1.473537
  H 7.258203 -1.985522 -4.248809
  H 9.417762 -0.599219 -3.103694
  H 9.598215 -2.353589 -3.040505
  H 8.471188 -1.390005 -1.678000
 20
 73.207011
  C 1.104951 -0.057272 0.207103
  C 2.595352 -0.182018 0.112119
  C 3.234312 -0.586710 -0.989736
  C 4.656964 -0.721364 -1.079577
  C 5.299834 -1.122301 -2.194364
  C 6.715013 -1.247839 -2.276601
  C 7.537675 -1.596618 -3.271124
  C 8.938561 -1.518235 -2.810300
  H 0.804150 0.284349 1.191312
  H 0.629791 -1.018743 0.010401
  H 0.732114 0.645699 -0.526161
  H 3.162805 0.072021 1.000482
  H 2.666833 -0.834444 -1.867307
  H 5.232264 -0.469022 -0.189065
  H 4.731881 -1.366485 -3.084011
  H 7.649370 -1.081394 -1.457340
  H 7.262435 -1.957940 -4.242782
  H 9.436445 -0.610445 -3.136376
  H 9.579495 -2.366406 -3.027206
  H 8.467937 -1.350832 -1.658673
 20
 81.241910
  C 1.099874 -0.060515 0.213295
  C 2.590917 -0.173173 0.114331
  C 3.229695 -0.585371 -0.984312
  C 4.655604 -0.701284 -1.080562
  C 5.298594 -1.111570 -2.191446
  C 6.712589 -1.245429 -2.272787
  C 7.545102 -1.588292 -3.258581
  C 8.951355 -1.534018 -2.816931
  H 0.799263 0.291245 1.194643
  H 0.630301 -1.026247 0.032136
  H 0.719849 0.630799 -0.530221
  H 3.160025 0.098758 0.997104
  H 2.659372 -0.851493 -1.859422
  H 5.228505 -0.435796 -0.199953
  H 4.727876 -1.369148 -3.078585
  H 7.687134 -1.059793 -1.431524
  H 7.265245 -1.919571 -4.241237
  H 9.478090 -0.656092 -3.171941
  H 9.560608 -2.414812 -3.001997
  H 8.466789 -1.308474 -1.621889
