 20
 0.000000
  C 0.972048 0.137553 0.391994
  C 2.443661 0.145177 0.412385
  C 3.209513 0.616971 1.587061
  C 2.409705 1.100128 2.789317
  H 3.089897 1.415766 3.576125
  C 3.093021 -0.314473 -0.731199
  C 4.473365 -0.388195 -0.916767
  C 5.094422 -0.845583 -2.056472
  H 4.571756 -1.199951 -2.937451
  O 6.388370 -0.897258 -2.187585
  H 0.527875 0.505973 1.308073
  H 0.609856 -0.874667 0.203667
  H 0.610481 0.738144 -0.444542
  H 3.870040 1.428208 1.261086
  H 3.869408 -0.194701 1.913111
  H 1.777373 0.309755 3.186438
  H 1.778161 1.946149 2.529359
  H 2.465885 -0.643598 -1.549706
  H 5.129038 -0.066394 -0.117008
  H 6.877091 -0.580538 -1.400080
 20
 0.952595
  C 0.980238 0.176151 0.365511
  C 2.452486 0.123602 0.423326
  C 3.207031 0.592633 1.608643
  C 2.388991 1.105380 2.790483
  H 3.062761 1.415923 3.587669
  C 3.114799 -0.376737 -0.694436
  C 4.497570 -0.531268 -0.834594
  C 5.092557 -0.880310 -2.028068
  H 4.529494 -1.283413 -2.860437
  O 6.346705 -0.693473 -2.304771
  H 0.530834 0.551729 1.273298
  H 0.581281 -0.819728 0.156896
  H 0.664839 0.798597 -0.471275
  H 3.886204 1.390572 1.278946
  H 3.843131 -0.229386 1.954402
  H 1.734627 0.334221 3.188513
  H 1.786027 1.967334 2.512394
  H 2.503604 -0.664146 -1.540242
  H 5.136194 -0.274506 -0.000493
  H 6.917713 -0.363394 -1.584816
 20
 12.288138
  C 0.988548 0.192619 0.390377
  C 2.458507 0.128219 0.427865
  C 3.224641 0.589217 1.611202
  C 2.386496 1.081029 2.789296
  H 3.031829 1.415135 3.591718
  C 3.075002 -0.369238 -0.702330
  C 4.477118 -0.594162 -0.867038
  C 5.098948 -0.905128 -2.043909
  H 4.655821 -1.385532 -2.902044
  O 6.341550 -0.542080 -2.285110
  H 0.583486 0.590006 1.313549
  H 0.571168 -0.793777 0.222099
  H 0.677126 0.822521 -0.431339
  H 3.875573 1.395536 1.269173
  H 3.831033 -0.255233 1.956972
  H 1.695324 0.312146 3.148958
  H 1.785533 1.934894 2.494222
  H 2.458323 -0.601154 -1.560434
  H 5.009157 -0.391300 0.049883
  H 7.037501 -0.286578 -1.658595
 20
 13.169437
  C 0.981204 0.247632 0.357804
  C 2.447415 0.107986 0.422362
  C 3.219819 0.556675 1.603784
  C 2.408104 1.063893 2.796115
  H 3.080504 1.340086 3.595752
  C 3.074812 -0.435941 -0.694175
  C 4.442005 -0.633012 -0.832878
  C 5.143310 -0.937932 -1.988340
  H 4.724883 -1.552479 -2.776140
  O 6.240656 -0.342694 -2.338265
  H 0.540338 0.599656 1.277805
  H 0.524611 -0.699305 0.076289
  H 0.718349 0.936038 -0.444925
  H 3.909294 1.345762 1.289778
  H 3.809664 -0.305122 1.948244
  H 1.736298 0.299749 3.169766
  H 1.825834 1.945672 2.538833
  H 2.446672 -0.694822 -1.538954
  H 5.062514 -0.448623 0.045534
  H 6.941174 -0.063101 -1.711037
 20
 25.561853
  C 0.971055 0.246546 0.374039
  C 2.434263 0.126337 0.430222
  C 3.207293 0.529505 1.620265
  C 2.406792 1.036281 2.816481
  H 3.090795 1.333908 3.608710
  C 3.065641 -0.395199 -0.692910
  C 4.431475 -0.581438 -0.833890
  C 5.166734 -0.973308 -1.940103
  H 4.838943 -1.696972 -2.688994
  O 6.147853 -0.192057 -2.359104
  H 0.519024 0.519504 1.304066
  H 0.527587 -0.668325 -0.019882
  H 0.724783 1.001592 -0.388676
  H 3.894588 1.322392 1.303562
  H 3.811236 -0.331681 1.948289
  H 1.743902 0.270755 3.200638
  H 1.803442 1.910595 2.551648
  H 2.459580 -0.608763 -1.573520
  H 5.040618 -0.396842 0.048831
  H 7.016120 -0.130741 -1.931168
 20
 37.578057
  C 0.973517 0.307216 0.359749
  C 2.431240 0.111202 0.431063
  C 3.207666 0.485435 1.631005
  C 2.425934 0.997508 2.822012
  H 3.118260 1.233815 3.626490
  C 3.056459 -0.418362 -0.698403
  C 4.398770 -0.667383 -0.819402
  C 5.190577 -0.993863 -1.952288
  H 5.111746 -1.825045 -2.640121
  O 5.941434 0.026263 -2.291291
  H 0.528932 0.609037 1.306445
  H 0.494318 -0.604881 0.014624
  H 0.743900 1.045286 -0.389157
  H 3.905934 1.256264 1.332796
  H 3.808138 -0.386968 1.953712
  H 1.747463 0.259465 3.192221
  H 1.874502 1.906763 2.583992
  H 2.429761 -0.598206 -1.569644
  H 5.027981 -0.587823 0.055667
  H 6.915311 0.152347 -2.192224
 20
 60.873888
  C 1.022120 0.332233 0.339185
  C 2.484121 0.126951 0.406571
  C 3.251462 0.453841 1.622530
  C 2.460051 0.963633 2.824599
  H 3.148410 1.180253 3.635567
  C 3.089177 -0.410781 -0.712243
  C 4.434400 -0.692656 -0.822154
  C 5.159877 -1.149025 -1.933950
  H 5.227210 -1.931480 -2.660453
  O 5.607624 0.131355 -2.204547
  H 0.588866 0.597525 1.310961
  H 0.525834 -0.549710 -0.054506
  H 0.811076 1.129709 -0.358330
  H 3.998540 1.212003 1.358079
  H 3.811157 -0.449806 1.941694
  H 1.758936 0.225383 3.188427
  H 1.926129 1.889337 2.586758
  H 2.492096 -0.607075 -1.584080
  H 5.053368 -0.677582 0.073753
  H 6.524837 0.512739 -2.224730
 20
 78.270773
  C 1.059413 0.358551 0.311005
  C 2.531413 0.139488 0.360553
  C 3.310718 0.454154 1.605145
  C 2.505676 0.946404 2.802289
  H 3.184223 1.142772 3.628811
  C 3.125863 -0.355125 -0.745491
  C 4.520556 -0.691692 -0.861111
  C 5.192294 -1.301004 -1.976120
  H 5.321349 -2.026082 -2.739097
  O 5.346408 0.073928 -1.995994
  H 0.649582 0.670629 1.262320
  H 0.558765 -0.554987 0.000236
  H 0.822900 1.121021 -0.431473
  H 4.047121 1.225073 1.361450
  H 3.851458 -0.446067 1.915442
  H 1.790634 0.197769 3.137381
  H 1.979520 1.872435 2.580737
  H 2.520889 -0.560985 -1.621730
  H 5.094966 -0.742888 0.066898
  H 6.084987 0.726915 -1.999222
