 12
 0.000000
  C 0.932751 0.050069 0.259651
  C 2.427387 0.059919 0.096218
  C 3.264788 -0.012328 1.344291
  H 2.650639 -0.067213 2.239291
  C 2.994832 0.128324 -1.098079
  H 2.425135 0.182640 -2.010613
  H 4.066147 0.133400 -1.215341
  H 0.651379 0.003354 1.309146
  H 0.493217 -0.811306 -0.241238
  H 0.492101 0.950698 -0.165204
  H 3.908980 0.862983 1.420056
  H 3.913679 -0.886950 1.315964
 12
 5.487393
  C 0.930875 0.104908 0.281208
  C 2.388538 0.061498 0.116220
  C 3.259819 -0.022090 1.347314
  H 2.660995 -0.102150 2.250892
  C 2.958261 0.116119 -1.092014
  H 2.364775 0.188659 -2.002485
  H 4.038496 0.075078 -1.216554
  H 0.594425 0.020624 1.309311
  H 0.748485 -0.787473 -0.269010
  H 0.459543 0.960248 -0.197859
  H 3.886324 0.863861 1.429938
  H 3.919703 -0.885458 1.294041
 12
 17.987093
  C 0.921963 0.150033 0.300301
  C 2.361788 0.064715 0.116899
  C 3.248368 -0.035554 1.340048
  H 2.658314 -0.148739 2.244410
  C 2.938970 0.104210 -1.095842
  H 2.359437 0.199342 -1.994154
  H 3.997170 0.033147 -1.213228
  H 0.566572 0.060103 1.315607
  H 0.955511 -0.772900 -0.247348
  H 0.424608 0.952987 -0.228722
  H 3.853704 0.862184 1.439469
  H 3.927036 -0.881268 1.261957
 12
 31.544456
  C 0.909446 0.183711 0.321616
  C 2.345640 0.067022 0.106827
  C 3.230866 -0.056583 1.329227
  H 2.643632 -0.199597 2.226844
  C 2.933845 0.108598 -1.109538
  H 2.363598 0.233595 -2.013542
  H 4.002197 0.004252 -1.221856
  H 0.567297 0.136499 1.334206
  H 1.118004 -0.765949 -0.152480
  H 0.371880 0.905028 -0.277520
  H 3.817664 0.850697 1.449158
  H 3.924783 -0.889068 1.232578
 12
 42.574162
  C 0.903090 0.216988 0.333473
  C 2.342612 0.071908 0.096491
  C 3.219024 -0.082306 1.317996
  H 2.624996 -0.265966 2.213438
  C 2.932984 0.120957 -1.121813
  H 2.363210 0.277937 -2.022612
  H 3.995316 -0.014923 -1.235089
  H 0.570610 0.252173 1.352622
  H 1.261907 -0.762871 -0.034482
  H 0.326788 0.815144 -0.354748
  H 3.786644 0.832126 1.470551
  H 3.928153 -0.897467 1.197511
 12
 50.990455
  C 0.897327 0.242807 0.342352
  C 2.339105 0.071154 0.090910
  C 3.209526 -0.101271 1.313597
  H 2.616295 -0.317752 2.195420
  C 2.934841 0.129050 -1.134234
  H 2.369772 0.310240 -2.029879
  H 3.988125 -0.035505 -1.249886
  H 0.574276 0.340430 1.354841
  H 1.369850 -0.751969 0.050056
  H 0.295679 0.738699 -0.397905
  H 3.758881 0.819610 1.494009
  H 3.934750 -0.902642 1.175710
 12
 57.815949
  C 0.894843 0.268386 0.344396
  C 2.334987 0.061823 0.087267
  C 3.207140 -0.116637 1.312673
  H 2.613815 -0.361364 2.190894
  C 2.936524 0.130766 -1.143267
  H 2.370795 0.329181 -2.037394
  H 3.990267 -0.048961 -1.259317
  H 0.568675 0.403779 1.360288
  H 1.447027 -0.741110 0.100111
  H 0.277536 0.682029 -0.429200
  H 3.741798 0.810458 1.512360
  H 3.944689 -0.901319 1.160362
 12
 63.675230
  C 0.894659 0.292049 0.348350
  C 2.331257 0.050976 0.088873
  C 3.206742 -0.126409 1.311936
  H 2.616733 -0.384694 2.187082
  C 2.938694 0.128517 -1.145001
  H 2.373214 0.319487 -2.038629
  H 3.990070 -0.049644 -1.257565
  H 0.563252 0.425056 1.357171
  H 1.504647 -0.735486 0.113600
  H 0.269695 0.665144 -0.440322
  H 3.731386 0.804816 1.519589
  H 3.952783 -0.901533 1.150784
 12
 68.483875
  C 0.895539 0.314698 0.350642
  C 2.328596 0.035480 0.092287
  C 3.209308 -0.132149 1.314030
  H 2.622962 -0.398679 2.189829
  C 2.941723 0.121620 -1.148929
  H 2.375966 0.324457 -2.039156
  H 3.993211 -0.061067 -1.260825
  H 0.553300 0.433215 1.358016
  H 1.548176 -0.741174 0.112213
  H 0.267898 0.655975 -0.447987
  H 3.724083 0.803634 1.522225
  H 3.962451 -0.899532 1.148985
 12
 72.483818
  C 0.899923 0.342457 0.354311
  C 2.326322 0.025895 0.096610
  C 3.211680 -0.136957 1.315263
  H 2.628804 -0.412155 2.191169
  C 2.946342 0.119035 -1.151967
  H 2.377595 0.308528 -2.042624
  H 3.997224 -0.064567 -1.259060
  H 0.544235 0.430619 1.359701
  H 1.587909 -0.753649 0.101188
  H 0.268203 0.658324 -0.450339
  H 3.718930 0.802801 1.526056
  H 3.970461 -0.897379 1.144675
 12
 75.315298
  C 0.907136 0.370578 0.357915
  C 2.323877 0.007521 0.098056
  C 3.213541 -0.141258 1.316977
  H 2.633927 -0.418006 2.194788
  C 2.951504 0.110602 -1.155996
  H 2.385205 0.313618 -2.044375
  H 4.001793 -0.074461 -1.263494
  H 0.539143 0.427447 1.361283
  H 1.622495 -0.782112 0.090985
  H 0.266673 0.659775 -0.449732
  H 3.712271 0.803773 1.521637
  H 3.978019 -0.896662 1.147335
 12
 77.264765
  C 0.920251 0.406845 0.362529
  C 2.320373 -0.005310 0.100939
  C 3.214738 -0.144933 1.317909
  H 2.639369 -0.431565 2.195376
  C 2.955495 0.107667 -1.158090
  H 2.387535 0.298815 -2.047437
  H 4.003881 -0.085209 -1.263198
  H 0.535376 0.416441 1.361625
  H 1.659403 -0.815820 0.071979
  H 0.271208 0.671489 -0.446723
  H 3.702023 0.805872 1.524349
  H 3.987433 -0.890816 1.143721
 12
 78.263187
  C 0.933372 0.441499 0.368642
  C 2.313527 -0.026193 0.102119
  C 3.214894 -0.150179 1.317996
  H 2.644857 -0.437717 2.198333
  C 2.957986 0.094003 -1.163054
  H 2.393827 0.299970 -2.051150
  H 4.008159 -0.095598 -1.263392
  H 0.535358 0.407526 1.362043
  H 1.697714 -0.865894 0.053211
  H 0.275773 0.683765 -0.441760
  H 3.692975 0.806044 1.516587
  H 3.993496 -0.890272 1.144850
 12
 78.529485
  C 0.948981 0.475949 0.375942
  C 2.307789 -0.042176 0.104880
  C 3.215359 -0.155860 1.318706
  H 2.651273 -0.456330 2.198432
  C 2.961635 0.088736 -1.167464
  H 2.398973 0.294165 -2.056172
  H 4.006315 -0.126551 -1.269768
  H 0.534829 0.397342 1.361238
  H 1.744937 -0.916218 0.027616
  H 0.284258 0.703176 -0.434077
  H 3.677434 0.807605 1.519479
  H 4.004968 -0.882771 1.140308
