19
 0
 C -3.67348740 -0.60160437 0.08178041
 C -2.20361135 -0.93420771 -0.14383205
 C -2.00550193 -1.51642689 -1.54237451
 C -1.21581001 0.21437992 0.06785098
 C -1.69464769 1.61874190 0.33332362
 O 0.00000000 0.00000000 0.00000000
 H -4.29319561 -1.49877687 -0.02421402
 H -4.03517421 0.13776691 -0.64103293
 H -3.83833022 -0.20671101 1.08972684
 H -1.92901927 -1.69846176 0.59508055
 H -2.23373625 -0.77461364 -2.31552597
 H -2.65198590 -2.38640538 -1.69952598
 H -0.96998503 -1.84083778 -1.69242630
 H -2.77504984 1.69619158 0.44005186
 H -1.38574631 2.26121081 -0.49557509
 H -1.24096168 1.97244483 1.26375548
 O 2.70000000 0.00000000 0.00000000
 H 3.26165789 -0.45890637 -0.64258244
 H 3.31189510 0.25197749 0.70784698
