 19
 0.000000
  C -3.685337 -0.583931 0.103241
  C -2.246170 -0.927768 -0.136068
  C -1.975718 -1.450758 -1.530488
  C -1.175975 0.219585 0.066800
  C -1.733606 1.576336 0.306712
  O -0.022498 -0.041174 -0.010463
  H -4.270550 -1.500227 0.006022
  H -4.080030 0.107829 -0.636767
  H -3.858883 -0.210871 1.108352
  H -1.913799 -1.651572 0.619659
  H -2.224233 -0.722422 -2.300756
  H -2.614950 -2.316489 -1.703954
  H -0.934810 -1.738698 -1.647285
  H -2.809615 1.611353 0.397243
  H -1.400401 2.198395 -0.526270
  H -1.257974 1.956976 1.211707
  O 2.736439 -0.030926 -0.003312
  H 3.272265 -0.495999 -0.650783
  H 3.323154 0.236121 0.708737
 19
 1.427381
  C -3.638426 -0.586179 0.125715
  C -2.192770 -0.939731 -0.140378
  C -1.932020 -1.437676 -1.544273
  C -1.112928 0.234411 0.066208
  C -1.678988 1.573407 0.291881
  O 0.039277 -0.037080 -0.005156
  H -4.220976 -1.508396 0.050644
  H -4.049075 0.094280 -0.617913
  H -3.795299 -0.206522 1.133050
  H -1.831165 -1.651797 0.613683
  H -2.208227 -0.702123 -2.300281
  H -2.563667 -2.310936 -1.721740
  H -0.889580 -1.716125 -1.683010
  H -2.756882 1.604763 0.375139
  H -1.343291 2.194940 -0.542569
  H -1.208689 1.968476 1.195356
  O 2.462356 -0.050235 0.010967
  H 2.997738 -0.507437 -0.641754
  H 3.050604 0.226268 0.717522
 19
 6.446333
  C -3.580023 -0.584525 0.153180
  C -2.148942 -0.959527 -0.144396
  C -1.917492 -1.428476 -1.565332
  C -1.048902 0.232689 0.060322
  C -1.615345 1.563593 0.266235
  O 0.092412 -0.089118 -0.003936
  H -4.169837 -1.507606 0.096633
  H -3.998825 0.098668 -0.582522
  H -3.710213 -0.200405 1.162287
  H -1.775441 -1.680982 0.591228
  H -2.207867 -0.677290 -2.296412
  H -2.550624 -2.294934 -1.744008
  H -0.884175 -1.712945 -1.733254
  H -2.692927 1.600243 0.337169
  H -1.273499 2.179114 -0.567505
  H -1.158260 1.968012 1.172628
  O 2.208368 -0.060737 0.060349
  H 2.779011 -0.466358 -0.623117
  H 2.785204 0.270780 0.742050
 19
 18.437224
  C -3.532959 -0.573508 0.163640
  C -2.119040 -1.009876 -0.165673
  C -1.940962 -1.461513 -1.590540
  C -0.987164 0.196154 0.047958
  C -1.503603 1.549512 0.265928
  O 0.128247 -0.226775 -0.034841
  H -4.145933 -1.470691 0.109977
  H -3.926110 0.136301 -0.566443
  H -3.619376 -0.182760 1.179254
  H -1.765321 -1.750176 0.562823
  H -2.221911 -0.682730 -2.299375
  H -2.604499 -2.316330 -1.766897
  H -0.919734 -1.781336 -1.785980
  H -2.584463 1.623545 0.336254
  H -1.146483 2.167057 -0.564096
  H -1.045749 1.941525 1.170724
  O 1.978443 0.019950 0.099616
  H 2.578139 -0.328961 -0.576944
  H 2.520536 0.425511 0.788487
 19
 36.778854
  C -3.516646 -0.545725 0.168674
  C -2.091704 -1.040623 -0.188424
  C -1.964777 -1.507554 -1.612789
  C -0.937130 0.130595 0.035946
  C -1.358365 1.504427 0.275105
  O 0.170536 -0.346131 -0.078317
  H -4.167217 -1.420652 0.119791
  H -3.875807 0.180739 -0.553158
  H -3.560753 -0.156321 1.177187
  H -1.760978 -1.802930 0.524166
  H -2.227460 -0.709866 -2.312636
  H -2.659755 -2.334286 -1.775682
  H -0.955599 -1.863257 -1.824178
  H -2.434012 1.622805 0.359778
  H -0.985706 2.115243 -0.550615
  H -0.873644 1.885822 1.174037
  O 1.744046 0.173156 0.119812
  H 2.376895 -0.151086 -0.545084
  H 2.236485 0.600485 0.858241
 19
 67.895205
  C -3.535598 -0.526749 0.171152
  C -2.080587 -1.072935 -0.184512
  C -1.960524 -1.535509 -1.619108
  C -0.893484 0.100611 0.029443
  C -1.278900 1.486797 0.283808
  O 0.243998 -0.368751 -0.112916
  H -4.207544 -1.376023 0.110417
  H -3.851316 0.220214 -0.557817
  H -3.568615 -0.137376 1.189296
  H -1.790674 -1.847985 0.524421
  H -2.192051 -0.732720 -2.308476
  H -2.669608 -2.339005 -1.790890
  H -0.968630 -1.910160 -1.825621
  H -2.339661 1.611087 0.389890
  H -0.915196 2.109137 -0.539090
  H -0.774616 1.854721 1.178007
  O 1.603996 0.243987 0.123018
  H 2.253882 -0.046283 -0.567301
  H 2.109614 0.686884 0.889566
 19
 67.047867
  C -3.422330 -0.535199 0.175228
  C -1.995429 -1.017506 -0.171811
  C -1.957667 -1.570722 -1.607935
  C -0.974289 0.077784 0.002792
  C -1.144959 1.516882 0.277457
  O 0.323493 -0.450288 -0.260313
  H -4.108645 -1.375489 0.108894
  H -3.748409 0.236306 -0.520435
  H -3.461181 -0.144883 1.188242
  H -1.741282 -1.840461 0.508019
  H -2.194571 -0.779143 -2.317359
  H -2.695198 -2.356996 -1.723805
  H -0.974913 -1.970849 -1.841833
  H -2.197688 1.731107 0.427939
  H -0.792711 2.128363 -0.560632
  H -0.604182 1.850004 1.165979
  O 1.311910 0.394723 0.058731
  H 2.081173 0.160799 -0.546928
  H 1.503786 0.462218 1.041554
 19
 76.338469
  C -3.444099 -0.531169 0.205328
  C -1.987547 -1.026234 -0.165308
  C -1.948420 -1.553200 -1.609888
  C -0.948436 0.089157 0.024264
  C -1.156769 1.533943 0.256636
  O 0.364752 -0.388615 -0.222746
  H -4.120939 -1.371769 0.123728
  H -3.761561 0.243711 -0.482960
  H -3.470862 -0.160044 1.223092
  H -1.731266 -1.847972 0.507907
  H -2.187995 -0.760696 -2.310786
  H -2.682931 -2.348344 -1.732649
  H -0.967623 -1.947481 -1.846920
  H -2.216087 1.735171 0.372492
  H -0.788630 2.132275 -0.584688
  H -0.652533 1.894302 1.154941
  O 1.297759 0.402734 0.062239
  H 2.082163 0.147586 -0.527841
  H 1.560253 0.353499 1.044755
 19
 91.672535
  C -3.462145 -0.533985 0.210586
  C -1.984719 -1.048493 -0.172361
  C -1.957559 -1.543516 -1.595858
  C -0.926866 0.094808 0.040287
  C -1.145673 1.537435 0.254515
  O 0.397600 -0.384022 -0.175054
  H -4.155287 -1.391201 0.117421
  H -3.766438 0.261301 -0.478575
  H -3.466841 -0.172195 1.227882
  H -1.728698 -1.869812 0.500138
  H -2.199662 -0.743998 -2.281097
  H -2.690046 -2.331761 -1.723356
  H -0.967450 -1.939156 -1.843843
  H -2.201057 1.736660 0.342351
  H -0.759855 2.128877 -0.585730
  H -0.657338 1.912244 1.162611
  O 1.272031 0.399871 0.051043
  H 2.089375 0.177704 -0.515256
  H 1.573842 0.360308 1.029760
 19
 108.662907
  C -3.503104 -0.527797 0.238950
  C -1.979952 -1.072558 -0.172091
  C -1.950570 -1.552422 -1.619774
  C -0.900452 0.105567 0.057001
  C -1.128815 1.546322 0.246311
  O 0.421611 -0.371623 -0.144996
  H -4.168161 -1.354788 0.147750
  H -3.794893 0.253932 -0.443370
  H -3.491433 -0.172480 1.257569
  H -1.725135 -1.890614 0.508345
  H -2.194617 -0.734319 -2.307719
  H -2.678458 -2.340131 -1.760813
  H -0.972382 -1.942572 -1.869705
  H -2.194979 1.738813 0.316998
  H -0.734520 2.131379 -0.590521
  H -0.660891 1.930206 1.158848
  O 1.261783 0.398222 0.069050
  H 2.077275 0.190584 -0.505303
  H 1.602529 0.376995 1.039659
 19
 128.306757
  C -3.546033 -0.527690 0.252645
  C -1.975893 -1.095931 -0.182438
  C -1.952175 -1.548462 -1.623802
  C -0.874808 0.123332 0.069122
  C -1.117696 1.564112 0.240290
  O 0.454567 -0.350884 -0.120581
  H -4.216829 -1.374790 0.157074
  H -3.825681 0.252106 -0.429844
  H -3.512996 -0.174451 1.279069
  H -1.723857 -1.901934 0.495762
  H -2.196044 -0.728631 -2.293538
  H -2.687620 -2.344674 -1.775078
  H -0.974400 -1.933613 -1.881043
  H -2.182253 1.748089 0.294189
  H -0.716114 2.145419 -0.596504
  H -0.666889 1.959348 1.157502
  O 1.279140 0.393491 0.079362
  H 2.095637 0.200791 -0.501175
  H 1.638362 0.374612 1.047828
 19
 152.160210
  C -3.605465 -0.520887 0.276881
  C -1.973511 -1.135492 -0.194283
  C -1.956065 -1.554847 -1.637526
  C -0.840879 0.130344 0.088493
  C -1.095592 1.568570 0.236053
  O 0.490702 -0.346005 -0.082676
  H -4.270502 -1.365644 0.176123
  H -3.865694 0.271267 -0.412316
  H -3.540962 -0.182127 1.294126
  H -1.729259 -1.937436 0.488862
  H -2.196574 -0.723483 -2.291522
  H -2.690131 -2.339183 -1.800955
  H -0.973261 -1.943012 -1.905803
  H -2.165001 1.744895 0.271092
  H -0.683995 2.144257 -0.602365
  H -0.663485 1.974702 1.155231
  O 1.283084 0.405327 0.088252
  H 2.098316 0.234411 -0.503281
  H 1.666460 0.417845 1.052896
 19
 179.080970
  C -3.699661 -0.512498 0.298083
  C -1.970801 -1.176315 -0.211136
  C -1.956002 -1.568437 -1.653699
  C -0.796988 0.153614 0.103470
  C -1.076556 1.588820 0.235201
  O 0.534866 -0.316349 -0.064744
  H -4.351755 -1.360702 0.188212
  H -3.936388 0.282472 -0.394292
  H -3.610262 -0.186872 1.314928
  H -1.733768 -1.969320 0.474703
  H -2.195647 -0.732193 -2.293662
  H -2.692983 -2.352084 -1.827757
  H -0.973857 -1.954006 -1.928948
  H -2.149309 1.744948 0.257557
  H -0.665651 2.170739 -0.603644
  H -0.664498 2.004971 1.154092
  O 1.325759 0.419448 0.096259
  H 2.134841 0.252088 -0.506785
  H 1.729585 0.433806 1.054769
 19
 208.130141
  C -3.826067 -0.515111 0.311359
  C -1.983663 -1.231007 -0.237548
  C -1.971077 -1.605701 -1.676477
  C -0.739853 0.187308 0.112966
  C -1.028073 1.619990 0.242322
  O 0.594511 -0.280171 -0.055822
  H -4.476501 -1.365661 0.193461
  H -4.049440 0.281230 -0.376648
  H -3.724434 -0.197601 1.331719
  H -1.748462 -2.026884 0.451409
  H -2.211702 -0.758140 -2.313076
  H -2.708535 -2.386411 -1.856340
  H -0.990283 -1.989809 -1.954790
  H -2.101717 1.770095 0.259384
  H -0.617893 2.201403 -0.592709
  H -0.620562 2.040057 1.166872
  O 1.377448 0.461314 0.101443
  H 2.186013 0.303411 -0.505184
  H 1.783712 0.475600 1.059130
