 12
 0.000000
  C 0.959155 0.152891 0.432984
  C 2.420161 0.137183 0.393300
  C 3.219964 0.592026 1.524115
  H 2.621222 0.929382 2.364193
  C 3.037149 -0.325932 -0.758956
  H 4.107720 -0.369789 -0.868935
  H 0.564759 0.530310 1.371687
  H 0.563903 -0.850908 0.247485
  H 0.563403 0.748701 -0.395612
  H 3.899088 1.390983 1.208439
  H 3.899559 -0.202807 1.848981
  H 2.416876 -0.654852 -1.576554
 12
 8.881666
  C 0.967956 0.140039 0.401023
  C 2.455219 0.124026 0.360716
  C 3.215318 0.591029 1.521619
  H 2.596630 0.924573 2.352952
  C 3.095780 -0.319620 -0.743108
  H 4.122411 -0.401826 -0.948557
  H 0.583093 0.517542 1.339716
  H 0.577379 -0.861487 0.213433
  H 0.577053 0.732857 -0.427729
  H 3.903917 1.393163 1.221753
  H 3.904802 -0.195014 1.859776
  H 2.276148 -0.567795 -1.359702
 12
 25.403371
  C 0.968547 0.131223 0.378876
  C 2.485958 0.116017 0.340813
  C 3.206494 0.590315 1.520072
  H 2.575695 0.916659 2.334374
  C 3.130764 -0.322899 -0.751125
  H 4.159079 -0.434224 -1.028738
  H 0.592788 0.508220 1.316132
  H 0.581475 -0.874219 0.202279
  H 0.581152 0.734247 -0.444770
  H 3.894677 1.384712 1.237615
  H 3.895652 -0.177603 1.864861
  H 2.189686 -0.491183 -1.169137
 12
 45.159336
  C 0.961063 0.124497 0.362137
  C 2.502091 0.105839 0.316882
  C 3.201510 0.589293 1.518703
  H 2.553075 0.911755 2.322413
  C 3.168686 -0.331073 -0.771545
  H 4.183611 -0.452959 -1.078419
  H 0.596758 0.504511 1.306658
  H 0.568116 -0.884172 0.200228
  H 0.567365 0.740734 -0.454051
  H 3.891478 1.395294 1.244324
  H 3.892788 -0.180273 1.878512
  H 2.150445 -0.434411 -1.025322
 12
 56.758963
  C 0.960362 0.126098 0.367708
  C 2.510258 0.072100 0.233579
  C 3.208477 0.590840 1.521385
  H 2.456143 0.886258 2.262851
  C 3.240195 -0.325568 -0.757998
  H 4.218267 -0.474262 -1.132510
  H 0.683611 0.515743 1.333762
  H 0.543024 -0.873750 0.261138
  H 0.541433 0.776019 -0.404463
  H 3.843992 1.430465 1.252662
  H 3.844074 -0.199188 1.908158
  H 2.152384 -0.422320 -0.992975
 12
 64.778864
  C 0.939789 0.124885 0.361388
  C 2.507020 0.071560 0.229414
  C 3.201436 0.592516 1.522813
  H 2.465702 0.887597 2.259205
  C 3.279010 -0.318722 -0.742565
  H 4.224739 -0.496925 -1.188345
  H 0.661659 0.515551 1.330009
  H 0.524808 -0.877449 0.258144
  H 0.526670 0.774147 -0.405517
  H 3.830024 1.433927 1.259847
  H 3.836749 -0.200820 1.918173
  H 2.148983 -0.384113 -0.901001
 12
 65.174528
  C 0.933380 0.136632 0.357697
  C 2.514547 0.083086 0.234450
  C 3.196287 0.586054 1.535031
  H 2.451825 0.865908 2.269106
  C 3.282322 -0.307514 -0.743680
  H 4.204530 -0.487679 -1.234556
  H 0.657786 0.549805 1.319229
  H 0.527249 -0.862590 0.282570
  H 0.516953 0.771834 -0.425778
  H 3.815454 1.441129 1.279835
  H 3.833368 -0.196464 1.936956
  H 2.151021 -0.438371 -0.858739
 12
 69.756483
  C 0.921713 0.134245 0.353010
  C 2.512657 0.069275 0.243239
  C 3.193536 0.585063 1.538996
  H 2.453950 0.864222 2.275448
  C 3.287387 -0.301151 -0.741869
  H 4.200811 -0.474094 -1.251319
  H 0.649911 0.552118 1.314937
  H 0.501352 -0.865136 0.278403
  H 0.518393 0.771381 -0.429006
  H 3.805872 1.441304 1.279290
  H 3.836065 -0.193370 1.942474
  H 2.136002 -0.427967 -0.799776
 12
 73.306043
  C 0.901938 0.153595 0.345024
  C 2.496753 0.078692 0.237574
  C 3.191486 0.567163 1.534225
  H 2.458542 0.823615 2.288313
  C 3.296528 -0.272839 -0.742589
  H 4.216282 -0.416936 -1.247139
  H 0.639993 0.604834 1.293618
  H 0.470167 -0.850937 0.303980
  H 0.501112 0.763952 -0.452351
  H 3.790640 1.436797 1.280061
  H 3.850019 -0.204530 1.921524
  H 2.133845 -0.508889 -0.704538
 12
 77.818396
  C 0.873038 0.157335 0.344379
  C 2.479909 0.070201 0.237526
  C 3.192263 0.552465 1.529273
  H 2.468744 0.813630 2.293566
  C 3.309708 -0.242332 -0.741620
  H 4.235306 -0.361121 -1.241992
  H 0.623600 0.630442 1.286241
  H 0.437875 -0.837432 0.326180
  H 0.477561 0.757552 -0.471486
  H 3.789577 1.418713 1.271133
  H 3.850954 -0.222626 1.915265
  H 2.140156 -0.554768 -0.624419
 12
 80.582778
  C 0.849228 0.161231 0.340831
  C 2.464536 0.070909 0.243684
  C 3.193310 0.539070 1.530350
  H 2.479110 0.819128 2.297790
  C 3.319751 -0.193874 -0.739675
  H 4.234172 -0.298576 -1.262908
  H 0.606401 0.656227 1.273392
  H 0.411835 -0.834330 0.347306
  H 0.464832 0.741130 -0.491571
  H 3.808000 1.390216 1.272415
  H 3.833435 -0.250566 1.920993
  H 2.148963 -0.614315 -0.531710
 12
 81.369155
  C 0.832961 0.160222 0.339302
  C 2.460889 0.076717 0.252721
  C 3.192792 0.526937 1.537536
  H 2.484106 0.840052 2.297492
  C 3.326256 -0.142075 -0.747191
  H 4.217813 -0.236240 -1.305333
  H 0.585334 0.667448 1.263844
  H 0.394615 -0.834358 0.360923
  H 0.453183 0.720971 -0.508124
  H 3.846384 1.350238 1.284589
  H 3.799525 -0.282105 1.943428
  H 2.157603 -0.675378 -0.432033
 12
 76.897715
  C 0.848582 0.156185 0.333416
  C 2.483977 0.080563 0.255893
  C 3.179801 0.507795 1.559370
  H 2.460063 0.873786 2.282332
  C 3.294245 -0.069375 -0.793723
  H 4.152421 -0.125959 -1.414067
  H 0.596666 0.701232 1.234513
  H 0.404289 -0.834114 0.392293
  H 0.472988 0.677253 -0.540753
  H 3.900664 1.282355 1.335488
  H 3.716198 -0.334689 1.997348
  H 2.175468 -0.785292 -0.256007
