 17
 0.000000
  H 1.467453 0.053255 0.226964
  C 2.544565 0.055529 0.158733
  C 3.292567 -0.013804 1.461419
  C 2.373564 -0.087955 2.674763
  H 2.955460 -0.135787 3.591028
  C 3.148620 0.120602 -1.026878
  H 2.618926 0.188303 -1.965833
  C 4.585352 0.130026 -1.194751
  C 5.179579 0.202591 -2.384845
  O 6.517040 0.214810 -2.597476
  H 3.936606 0.868384 1.550678
  H 3.945012 -0.892787 1.458501
  H 1.742194 -0.972904 2.621430
  H 1.729986 0.788614 2.721489
  H 5.206945 0.075086 -0.311058
  H 4.641024 0.260355 -3.319092
  H 6.981206 0.162595 -1.751873
 17
 -0.457705
  H 1.520739 -0.166450 0.213119
  C 2.599092 -0.100041 0.178902
  C 3.297719 -0.179813 1.503903
  C 2.338781 0.045193 2.667289
  H 2.867871 -0.012706 3.615946
  C 3.205248 0.055556 -1.000026
  H 2.618171 0.136199 -1.905546
  C 4.632197 0.131336 -1.204882
  C 5.179725 0.317831 -2.407211
  O 6.505680 0.391512 -2.671421
  H 4.088885 0.574129 1.535120
  H 3.770566 -1.161782 1.612233
  H 1.553651 -0.707904 2.666460
  H 1.874465 1.026095 2.592384
  H 5.277056 0.019726 -0.342865
  H 4.593420 0.429526 -3.307610
  H 7.006796 0.288902 -1.853195
 17
 0.048361
  H 1.526284 -0.436845 0.193726
  C 2.596920 -0.287918 0.179708
  C 3.283339 -0.347927 1.511377
  C 2.374651 0.176982 2.620064
  H 2.889237 0.153970 3.578334
  C 3.202562 -0.014809 -0.976020
  H 2.622441 0.114375 -1.881072
  C 4.626120 0.112845 -1.182730
  C 5.153611 0.442526 -2.363440
  O 6.474308 0.555759 -2.637436
  H 4.176292 0.276942 1.455255
  H 3.580172 -1.374810 1.744624
  H 1.475762 -0.431013 2.699012
  H 2.078693 1.202787 2.412067
  H 5.287884 -0.092965 -0.351404
  H 4.552129 0.652662 -3.235788
  H 6.989935 0.363087 -1.843567
 17
 1.247558
  H 1.527659 -0.699184 0.171365
  C 2.584216 -0.468980 0.179223
  C 3.257524 -0.512885 1.516958
  C 2.444110 0.291805 2.533037
  H 2.955446 0.318425 3.492966
  C 3.180038 -0.069534 -0.944261
  H 2.608970 0.130468 -1.842884
  C 4.604003 0.088758 -1.149947
  C 5.118766 0.572440 -2.292241
  O 6.437946 0.704582 -2.575270
  H 4.232294 -0.036145 1.403443
  H 3.369115 -1.537856 1.878333
  H 1.462062 -0.153450 2.679273
  H 2.309735 1.312911 2.183274
  H 5.280543 -0.228729 -0.366143
  H 4.505389 0.903946 -3.118045
  H 6.965361 0.401221 -1.824287
 17
 7.214035
  H 1.545739 -0.902207 0.098134
  C 2.559412 -0.535021 0.162958
  C 3.249996 -0.588431 1.494821
  C 2.484560 0.314392 2.473251
  H 3.050495 0.429216 3.395413
  C 3.153709 0.035968 -0.885269
  H 2.602067 0.375299 -1.755056
  C 4.578430 0.082323 -1.120973
  C 5.111817 0.663416 -2.195655
  O 6.425276 0.667395 -2.521141
  H 4.197114 -0.078388 1.309324
  H 3.336862 -1.587846 1.914913
  H 1.513211 -0.110458 2.719584
  H 2.328436 1.296647 2.034277
  H 5.234123 -0.419080 -0.420397
  H 4.521909 1.182293 -2.936578
  H 6.929814 0.195480 -1.846368
 17
 20.046868
  H 1.608523 -1.040028 -0.012934
  C 2.562730 -0.561319 0.143030
  C 3.241077 -0.593261 1.486874
  C 2.467452 0.299663 2.474114
  H 3.047919 0.420887 3.385775
  C 3.175944 0.159151 -0.805307
  H 2.620855 0.600039 -1.630589
  C 4.583997 0.082725 -1.107173
  C 5.141301 0.712319 -2.143941
  O 6.421850 0.561015 -2.560588
  H 4.084487 0.052801 1.227786
  H 3.394287 -1.579020 1.911824
  H 1.506598 -0.139985 2.741296
  H 2.281315 1.276492 2.036024
  H 5.205226 -0.542423 -0.476348
  H 4.592188 1.379579 -2.791611
  H 6.878501 -0.065796 -1.986574
 17
 40.995554
  H 1.642027 -1.175157 -0.168818
  C 2.521212 -0.610845 0.095540
  C 3.181486 -0.633183 1.446384
  C 2.507512 0.316535 2.463298
  H 3.197791 0.510136 3.280031
  C 3.182650 0.227653 -0.736587
  H 2.666791 0.779225 -1.526581
  C 4.573123 0.064058 -1.085920
  C 5.160056 0.728941 -2.082824
  O 6.423843 0.522591 -2.524234
  H 3.927851 0.117353 1.100930
  H 3.356962 -1.600740 1.899917
  H 1.603751 -0.125205 2.887663
  H 2.231470 1.256997 1.994408
  H 5.141314 -0.681323 -0.539035
  H 4.653510 1.478434 -2.671541
  H 6.843923 -0.155446 -1.990872
 17
 69.420915
  H 1.703515 -1.338691 -0.295700
  C 2.511703 -0.717726 0.058652
  C 3.090391 -0.680712 1.417657
  C 2.555403 0.353486 2.434405
  H 3.307929 0.547088 3.193258
  C 3.195154 0.234295 -0.662323
  H 2.680222 0.848747 -1.412618
  C 4.573707 0.038892 -1.061506
  C 5.164434 0.746114 -2.029464
  O 6.424889 0.541490 -2.493939
  H 3.773114 0.201889 0.936917
  H 3.263773 -1.631491 1.915478
  H 1.667408 -0.036708 2.940728
  H 2.279415 1.289540 1.955469
  H 5.129803 -0.741792 -0.554609
  H 4.672605 1.545147 -2.562588
  H 6.831650 -0.188850 -2.011040
 17
 84.968507
  H 1.741720 -1.423339 -0.303057
  C 2.508543 -0.776009 0.094665
  C 3.003755 -0.724577 1.414788
  C 2.573823 0.356211 2.403676
  H 3.350832 0.541501 3.143852
  C 3.214005 0.250155 -0.597229
  H 2.679311 0.884602 -1.312870
  C 4.600672 0.034820 -1.048015
  C 5.166227 0.733622 -2.028368
  O 6.430639 0.548462 -2.502533
  H 3.750649 0.330302 0.727202
  H 3.130080 -1.669566 1.957772
  H 1.686396 0.005888 2.936885
  H 2.325295 1.295371 1.913342
  H 5.164220 -0.746886 -0.551025
  H 4.661986 1.528959 -2.555378
  H 6.851751 -0.172781 -2.019769
 17
 67.305499
  H 1.883697 -1.487090 -0.305356
  C 2.569633 -0.795136 0.157822
  C 2.955864 -0.759588 1.458500
  C 2.522462 0.320768 2.422592
  H 3.270639 0.509772 3.196611
  C 3.275768 0.335825 -0.508527
  H 2.711495 0.966572 -1.187362
  C 4.642937 0.046300 -1.061657
  C 5.174146 0.708219 -2.077060
  O 6.418914 0.497646 -2.598435
  H 3.752992 0.534261 0.564513
  H 3.026726 -1.702246 2.019856
  H 1.618941 -0.039848 2.919019
  H 2.292958 1.261068 1.924227
  H 5.206171 -0.745316 -0.576240
  H 4.657492 1.493857 -2.605551
  H 6.854139 -0.218812 -2.112789
 17
 40.140171
  H 2.100562 -1.523904 -0.392089
  C 2.660073 -0.790707 0.162955
  C 2.851250 -0.804499 1.489400
  C 2.516628 0.287993 2.464134
  H 3.272153 0.401971 3.244129
  C 3.300000 0.413893 -0.481669
  H 2.702145 0.984950 -1.180973
  C 4.659926 0.093745 -1.052824
  C 5.159233 0.670717 -2.133422
  O 6.395991 0.438126 -2.661815
  H 3.678476 0.793964 0.498047
  H 2.884681 -1.760744 2.023674
  H 1.584267 -0.003834 2.943258
  H 2.377007 1.254175 1.984687
  H 5.241049 -0.642442 -0.512088
  H 4.615186 1.395926 -2.721165
  H 6.857194 -0.230500 -2.124181
 17
 21.041330
  H 2.347575 -1.512705 -0.454099
  C 2.788609 -0.763643 0.185097
  C 2.792624 -0.852486 1.512094
  C 2.488688 0.243040 2.493150
  H 3.198428 0.273216 3.321521
  C 3.361702 0.489888 -0.427400
  H 2.738949 0.984384 -1.165931
  C 4.697306 0.142223 -1.039424
  C 5.129433 0.620142 -2.197177
  O 6.335489 0.350005 -2.772761
  H 3.637353 1.062376 0.470704
  H 2.697273 -1.815939 2.012786
  H 1.508317 0.014103 2.908639
  H 2.446634 1.229041 2.038806
  H 5.316259 -0.537551 -0.465042
  H 4.552722 1.302824 -2.805762
  H 6.829566 -0.261967 -2.212202
 17
 9.819070
  H 2.552290 -1.545578 -0.493279
  C 2.808138 -0.740397 0.180203
  C 2.674545 -0.876015 1.489846
  C 2.520873 0.213950 2.508775
  H 3.241715 0.109105 3.320500
  C 3.353067 0.515655 -0.441900
  H 2.713145 0.927328 -1.219344
  C 4.704984 0.198476 -1.021757
  C 5.098436 0.564821 -2.230608
  O 6.318464 0.323540 -2.779217
  H 3.529861 1.212898 0.383208
  H 2.509268 -1.840210 1.959797
  H 1.525187 0.113039 2.940195
  H 2.609820 1.212935 2.093177
  H 5.373750 -0.357737 -0.376275
  H 4.466422 1.111432 -2.915117
  H 6.860764 -0.171804 -2.152795
 17
 5.076255
  H 2.675262 -1.528750 -0.501669
  C 2.811318 -0.698394 0.178600
  C 2.566981 -0.866222 1.468226
  C 2.556333 0.170793 2.546254
  H 3.279226 -0.080569 3.322747
  C 3.345557 0.555033 -0.452516
  H 2.699817 0.897857 -1.261667
  C 4.717400 0.277527 -0.995951
  C 5.076254 0.495431 -2.251292
  O 6.305651 0.262708 -2.781147
  H 3.430298 1.324106 0.317760
  H 2.335412 -1.853692 1.851088
  H 1.569869 0.183839 3.009936
  H 2.773976 1.169026 2.179661
  H 5.427993 -0.134529 -0.289626
  H 4.403580 0.899462 -2.993716
  H 6.885802 -0.102185 -2.101280
 17
 4.217064
  H 2.714462 -1.504932 -0.520168
  C 2.814083 -0.674071 0.166372
  C 2.544566 -0.860564 1.448757
  C 2.587670 0.141677 2.556884
  H 3.320758 -0.162289 3.304927
  C 3.339452 0.586905 -0.458562
  H 2.690279 0.901854 -1.277067
  C 4.724283 0.342979 -0.978198
  C 5.065272 0.436685 -2.253760
  O 6.302124 0.206324 -2.767047
  H 3.364957 1.363807 0.305446
  H 2.210002 -1.838469 1.775244
  H 1.615858 0.173096 3.049560
  H 2.836263 1.142249 2.217927
  H 5.457434 0.042696 -0.239233
  H 4.371811 0.729739 -3.028413
  H 6.901454 -0.056244 -2.057261
