17

C 1.007552 -0.07137 0.047949
C 2.503681 -0.083201 0.024723
C 3.21732 -0.596601 -0.983169
C 4.655718 -0.606511 -1.002621
C 5.378643 -1.120874 -2.012398
C 6.817756 -1.129505 -2.02934
C 7.534302 -1.641788 -3.035046
H 8.60383078871746 -1.6562021384881818 -3.063337389435822
H 0.647151 0.395265 0.964026
H 0.611198 -1.086075 0.010199
H 0.611198 0.494701 -0.795032
H 3.00544 0.351992 0.879084
H 2.704671 -1.029721 -1.833443
H 5.158519 -0.171115 -0.14787
H 4.876509 -1.556386 -2.867383
H 7.325485 -0.695241 -1.176806
H 7.034251 -2.077824 -3.89104
