 29
 0.000000
  C 0.981455 0.136496 0.391065
  C 2.457641 0.140394 0.400243
  C 3.234122 0.610739 1.570627
  C 2.449571 1.098098 2.783973
  H 3.123828 1.412936 3.567389
  C 3.077132 -0.324035 -0.755983
  C 4.452761 -0.411072 -0.973210
  C 5.122798 -0.864764 -2.104221
  C 4.613769 -1.385835 -3.403002
  C 3.122312 -1.501571 -3.692575
  C 2.903894 -2.064157 -5.094808
  O 6.445074 -0.865203 -2.105750
  H 0.542465 0.505744 1.310411
  H 0.614615 -0.875969 0.218162
  H 0.614245 0.747882 -0.434117
  H 3.892057 1.422429 1.240115
  H 3.892346 -0.203766 1.893490
  H 1.814595 0.303129 3.172343
  H 1.814388 1.940656 2.514484
  H 2.417025 -0.640999 -1.544879
  H 5.082037 -0.082284 -0.154328
  H 5.070123 -2.374172 -3.531071
  H 5.070678 -0.760500 -4.178707
  H 2.647944 -0.521055 -3.640368
  H 2.647390 -2.173777 -2.977196
  H 3.345206 -1.416569 -5.848811
  H 1.840305 -2.147542 -5.303519
  H 3.344697 -3.053570 -5.191956
  H 6.825479 -0.530801 -1.271711
 29
 0.503349
  C 0.955206 0.258273 0.391714
  C 2.425062 0.111011 0.399252
  C 3.244802 0.556220 1.556267
  C 2.499457 1.071168 2.775369
  H 3.215595 1.339466 3.544387
  C 3.017107 -0.416686 -0.745823
  C 4.391311 -0.554962 -0.934626
  C 5.089610 -0.855270 -2.095809
  C 4.615666 -1.331853 -3.417605
  C 3.132899 -1.549409 -3.692068
  C 2.939665 -2.086073 -5.110143
  O 6.404737 -0.720829 -2.095733
  H 0.568890 0.750486 1.277781
  H 0.489281 -0.724563 0.302120
  H 0.636124 0.811060 -0.494613
  H 3.923129 1.341774 1.213867
  H 3.875662 -0.279625 1.872896
  H 1.839140 0.309676 3.187060
  H 1.918885 1.961397 2.544155
  H 2.348847 -0.693990 -1.539286
  H 5.019444 -0.300601 -0.084256
  H 5.148817 -2.274008 -3.595982
  H 5.018368 -0.636538 -4.162805
  H 2.591314 -0.605377 -3.605914
  H 2.720993 -2.270891 -2.988064
  H 3.328054 -1.387314 -5.846375
  H 1.884222 -2.240774 -5.316094
  H 3.451000 -3.036876 -5.241315
  H 6.769811 -0.423984 -1.242202
 29
 2.971878
  C 0.946829 0.402104 0.434215
  C 2.394090 0.104297 0.401520
  C 3.262028 0.493420 1.540342
  C 2.561229 1.009490 2.793349
  H 3.308378 1.226129 3.553404
  C 2.926114 -0.465491 -0.749816
  C 4.299600 -0.648307 -0.936533
  C 5.044146 -0.839231 -2.097851
  C 4.631379 -1.295815 -3.451533
  C 3.172367 -1.618819 -3.726581
  C 3.002541 -2.110185 -5.164319
  O 6.341840 -0.591477 -2.042853
  H 0.651764 0.990378 1.292378
  H 0.378982 -0.529923 0.435161
  H 0.650832 0.921983 -0.476459
  H 3.960517 1.256214 1.207945
  H 3.860770 -0.383723 1.835673
  H 1.879393 0.268187 3.199044
  H 2.017850 1.929937 2.605656
  H 2.232046 -0.735359 -1.527956
  H 4.910955 -0.439931 -0.067256
  H 5.239251 -2.176741 -3.663041
  H 4.973676 -0.540309 -4.164325
  H 2.562596 -0.725257 -3.593315
  H 2.825925 -2.394515 -3.044962
  H 3.326660 -1.355084 -5.872500
  H 1.959059 -2.338603 -5.366601
  H 3.583466 -3.009046 -5.338773
  H 6.645369 -0.286981 -1.166854
 29
 7.430020
  C 0.941182 0.534485 0.489309
  C 2.335314 0.078309 0.378599
  C 3.277944 0.415125 1.492202
  C 2.670470 0.989001 2.772024
  H 3.464856 1.130340 3.497680
  C 2.785159 -0.551200 -0.770245
  C 4.155315 -0.799906 -0.946715
  C 4.984079 -0.857324 -2.070596
  C 4.661307 -1.254629 -3.456613
  C 3.225848 -1.655915 -3.763304
  C 3.094815 -2.093091 -5.216236
  O 6.247306 -0.514300 -1.910031
  H 0.778767 1.224720 1.302753
  H 0.281873 -0.328830 0.623076
  H 0.619473 0.997996 -0.447643
  H 4.012238 1.133284 1.127875
  H 3.807214 -0.498066 1.779371
  H 1.942779 0.309445 3.207245
  H 2.210009 1.958961 2.613861
  H 2.069189 -0.757988 -1.552351
  H 4.729954 -0.681561 -0.035458
  H 5.334007 -2.083979 -3.702831
  H 4.967818 -0.437560 -4.122995
  H 2.562165 -0.811517 -3.592407
  H 2.920799 -2.476843 -3.113469
  H 3.373520 -1.290338 -5.889352
  H 2.070125 -2.374687 -5.435206
  H 3.727879 -2.946843 -5.422613
  H 6.468209 -0.243321 -0.999273
 29
 15.507671
  C 0.899022 0.561736 0.651821
  C 2.259984 0.078497 0.357436
  C 3.304265 0.433020 1.378988
  C 2.841464 1.057764 2.695148
  H 3.710570 1.215739 3.327918
  C 2.591077 -0.605854 -0.793985
  C 3.944729 -0.969995 -0.976569
  C 4.899017 -0.943339 -2.010723
  C 4.711571 -1.261617 -3.439502
  C 3.303361 -1.685439 -3.837626
  C 3.242268 -2.030895 -5.320374
  O 6.112803 -0.557108 -1.668831
  H 0.849853 1.253088 1.475486
  H 0.249713 -0.293144 0.854957
  H 0.465174 1.031591 -0.234262
  H 4.005295 1.135720 0.923387
  H 3.854954 -0.470075 1.655302
  H 2.153380 0.406012 3.224815
  H 2.374695 2.026740 2.549621
  H 1.831309 -0.780259 -1.540182
  H 4.473185 -0.928747 -0.021849
  H 5.429239 -2.048731 -3.697059
  H 5.030620 -0.401529 -4.038118
  H 2.607984 -0.872817 -3.635516
  H 3.000000 -2.553986 -3.253567
  H 3.513435 -1.173225 -5.930699
  H 2.233750 -2.329519 -5.595312
  H 3.909496 -2.855313 -5.557119
  H 6.210290 -0.332040 -0.728298
 29
 16.304985
  C 0.958161 0.664893 0.540782
  C 2.271063 0.025638 0.334137
  C 3.315276 0.363845 1.369491
  C 2.856737 1.048543 2.654380
  H 3.718127 1.161859 3.309750
  C 2.624010 -0.731397 -0.771377
  C 3.959525 -1.169211 -0.886890
  C 4.877897 -1.034529 -1.933348
  C 4.679492 -1.228245 -3.377239
  C 3.291048 -1.655958 -3.812053
  C 3.250568 -1.907526 -5.315624
  O 6.095110 -0.642330 -1.594500
  H 0.998845 1.503292 1.217212
  H 0.258087 -0.072642 0.928938
  H 0.531442 0.993268 -0.415062
  H 4.064033 1.009862 0.906602
  H 3.818752 -0.556519 1.675207
  H 2.100726 0.450790 3.165885
  H 2.468731 2.048390 2.492414
  H 1.924136 -0.837641 -1.579418
  H 4.479992 -1.222498 0.075573
  H 5.415252 -1.970669 -3.700752
  H 4.977700 -0.316611 -3.901904
  H 2.569743 -0.876240 -3.561170
  H 3.000506 -2.569867 -3.289419
  H 3.514563 -1.004151 -5.860797
  H 2.255555 -2.209008 -5.622310
  H 3.943506 -2.692864 -5.600512
  H 6.225146 -0.473175 -0.658892
 29
 27.258813
  C 1.237589 0.955988 0.216617
  C 2.440911 0.088880 0.248452
  C 3.435965 0.282886 1.346021
  C 2.900776 0.925719 2.625021
  H 3.681697 0.921827 3.379189
  C 2.615296 -0.885468 -0.685378
  C 3.864110 -1.590274 -0.752261
  C 4.717715 -1.095718 -1.752313
  C 4.481827 -1.049327 -3.214171
  C 3.256978 -1.763344 -3.770350
  C 3.304899 -1.769023 -5.298095
  O 5.817155 -0.503636 -1.374338
  H 1.444816 1.941443 0.607397
  H 0.457101 0.510231 0.838793
  H 0.836025 1.046257 -0.785058
  H 4.248015 0.908893 0.951700
  H 3.873981 -0.678439 1.617054
  H 2.048606 0.367115 3.010824
  H 2.600183 1.956538 2.477362
  H 1.954995 -0.900852 -1.541735
  H 4.308846 -1.965757 0.161361
  H 5.377972 -1.536198 -3.641432
  H 4.526898 -0.018909 -3.572865
  H 2.345727 -1.264989 -3.453040
  H 3.232939 -2.789799 -3.403350
  H 3.326510 -0.758550 -5.689394
  H 2.429390 -2.269941 -5.702916
  H 4.186390 -2.288872 -5.658537
  H 6.060253 -0.642454 -0.439674
 29
 28.245846
  C 1.225632 0.921710 0.247582
  C 2.444748 0.078953 0.259091
  C 3.452758 0.296840 1.341673
  C 2.933975 0.959736 2.615032
  H 3.734849 0.990834 3.351057
  C 2.629731 -0.860085 -0.714160
  C 3.855416 -1.603743 -0.787020
  C 4.727247 -1.094185 -1.769803
  C 4.519788 -1.051441 -3.234457
  C 3.296038 -1.768278 -3.792234
  C 3.332049 -1.756840 -5.318380
  O 5.811131 -0.483458 -1.362733
  H 1.383023 1.869397 0.748447
  H 0.418040 0.398281 0.762649
  H 0.885679 1.109000 -0.768050
  H 4.259181 0.919074 0.938058
  H 3.891163 -0.663030 1.623466
  H 2.107178 0.394947 3.037250
  H 2.608082 1.982036 2.450906
  H 1.961629 -0.866064 -1.560048
  H 4.301116 -1.942879 0.141498
  H 5.417766 -1.538400 -3.642400
  H 4.559784 -0.016440 -3.584968
  H 2.378229 -1.282033 -3.469337
  H 3.279475 -2.800180 -3.438711
  H 3.327811 -0.738495 -5.697876
  H 2.463538 -2.270732 -5.721341
  H 4.221934 -2.257268 -5.692680
  H 6.021556 -0.576753 -0.415535
