 29
 0.000000
  C 0.975790 0.137332 0.393142
  C 2.453972 0.138831 0.396445
  C 3.235887 0.609601 1.567949
  C 2.454651 1.098519 2.785050
  C 3.400218 1.544794 3.895611
  C 3.074760 -0.323868 -0.755623
  C 4.452396 -0.411652 -0.974602
  C 5.123831 -0.863395 -2.100714
  C 4.621920 -1.386396 -3.404454
  C 3.129954 -1.502980 -3.695876
  H 2.969462 -1.896832 -4.677723
  O 6.448567 -0.861790 -2.097024
  H 0.536390 0.506813 1.312870
  H 0.606624 -0.875729 0.225913
  H 0.606339 0.752985 -0.428456
  H 3.892013 1.422462 1.236076
  H 3.892206 -0.206765 1.890660
  H 1.816409 0.300727 3.170305
  H 1.816264 1.941012 2.511316
  H 4.036296 0.723883 4.220901
  H 2.831617 1.890430 4.756103
  H 4.036115 2.362679 3.562473
  H 2.419633 -0.642347 -1.548686
  H 5.073532 -0.080521 -0.149771
  H 5.075895 -2.376004 -3.531813
  H 5.076265 -0.759449 -4.180462
  H 2.655656 -0.522022 -3.641480
  H 2.655252 -2.174151 -2.978669
  H 6.820588 -0.526463 -1.260938
 29
 0.000000
  C 1.007435 0.133712 0.384120
  C 2.485544 0.139552 0.398227
  C 3.257490 0.612601 1.575412
  C 2.465946 1.099207 2.786767
  C 3.402057 1.548242 3.904206
  C 3.131157 -0.332321 -0.776694
  C 4.442006 -0.424965 -1.007799
  C 5.080577 -0.859032 -2.089849
  C 4.606299 -1.385601 -3.402473
  C 3.120769 -1.513060 -3.720983
  H 2.981046 -1.908010 -4.705563
  O 6.343987 -0.836980 -2.035191
  H 0.560241 0.501889 1.300610
  H 0.642478 -0.880427 0.214206
  H 0.642193 0.748288 -0.440161
  H 3.913635 1.427390 1.248337
  H 3.913828 -0.201838 1.902918
  H 1.827251 0.299539 3.167353
  H 1.827105 1.939825 2.508367
  H 4.038148 0.729199 4.234144
  H 2.826169 1.892196 4.760517
  H 4.037967 2.367996 3.575718
  H 2.482781 -0.652714 -1.574521
  H 5.073068 -0.096443 -0.189482
  H 5.069733 -2.371859 -3.521486
  H 5.070097 -0.755302 -4.170131
  H 2.638406 -0.535595 -3.675290
  H 2.638010 -2.187726 -3.012484
  H 6.663080 -0.478059 -1.140270
 29
 0.000000
  C 1.039004 0.130491 0.376086
  C 2.516937 0.140876 0.401508
  C 3.278391 0.616280 1.584564
  C 2.476104 1.100432 2.789821
  C 3.402248 1.552328 3.914391
  C 3.189718 -0.340991 -0.798307
  C 4.435818 -0.438318 -1.041092
  C 5.041373 -0.855938 -2.082147
  C 4.592295 -1.385567 -3.402386
  C 3.113090 -1.522840 -3.745337
  H 2.992235 -1.918655 -4.732068
  O 6.242410 -0.816264 -1.983561
  H 0.583677 0.497278 1.289123
  H 0.678478 -0.884763 0.203391
  H 0.678194 0.743953 -0.450973
  H 3.934512 1.433087 1.262515
  H 3.934705 -0.196142 1.917093
  H 1.836976 0.298798 3.165514
  H 1.836831 1.939085 2.506532
  H 4.038312 0.735239 4.249195
  H 2.818766 1.894496 4.766266
  H 4.038132 2.374037 3.590773
  H 2.548457 -0.663366 -1.601071
  H 5.077961 -0.112783 -0.230234
  H 5.064147 -2.368730 -3.513689
  H 5.064504 -0.752172 -4.162329
  H 2.623579 -0.548591 -3.707656
  H 2.623192 -2.200724 -3.044855
  H 6.501880 -0.433204 -1.028451
 29
 0.000000
  C 1.070304 0.127801 0.369371
  C 2.547944 0.142972 0.406708
  C 3.298293 0.620819 1.595861
  C 2.484750 1.102351 2.794607
  C 3.400330 1.557225 3.926603
  C 3.250752 -0.349897 -0.820515
  C 4.434525 -0.451675 -1.074394
  C 5.007030 -0.854327 -2.078136
  C 4.579971 -1.386479 -3.404653
  C 3.106645 -1.532249 -3.768760
  H 3.002222 -1.928714 -4.757106
  O 6.145010 -0.799979 -1.942975
  H 0.606445 0.493097 1.278704
  H 0.714471 -0.888612 0.193784
  H 0.714189 0.740105 -0.460577
  H 3.954341 1.439752 1.279104
  H 3.954531 -0.189479 1.933678
  H 1.845212 0.298646 3.165142
  H 1.845068 1.938935 2.506165
  H 4.036317 0.742195 4.266533
  H 2.808894 1.897489 4.773744
  H 4.036138 2.380995 3.608115
  H 2.617031 -0.674337 -1.628421
  H 5.088969 -0.129550 -0.272050
  H 5.059021 -2.366907 -3.509142
  H 5.059370 -0.750347 -4.157780
  H 2.611045 -0.560835 -3.738139
  H 2.610668 -2.212969 -3.075341
  H 6.337496 -0.392497 -0.926970
 29
 0.000000
  C 1.100613 0.125998 0.364861
  C 2.577826 0.146182 0.414681
  C 3.316475 0.626551 1.610128
  C 2.491202 1.105298 2.801953
  C 3.395637 1.563256 3.941642
  C 3.314188 -0.359065 -0.843377
  C 4.439059 -0.465020 -1.107663
  C 4.978962 -0.854697 -2.079061
  C 4.569676 -1.388787 -3.410395
  C 3.101329 -1.541362 -3.791443
  H 3.010132 -1.938283 -4.780915
  O 6.054043 -0.788845 -1.915224
  H 0.627849 0.489701 1.270239
  H 0.749727 -0.891614 0.186283
  H 0.749446 0.737105 -0.468073
  H 3.972394 1.447712 1.298917
  H 3.972582 -0.181521 1.953486
  H 1.851286 0.299421 3.167080
  H 1.851145 1.939712 2.508108
  H 4.031491 0.750383 4.286942
  H 2.795912 1.901496 4.783752
  H 4.031315 2.389185 3.628529
  H 2.688420 -0.685640 -1.656604
  H 5.107016 -0.146759 -0.314966
  H 5.054428 -2.366986 -3.509331
  H 5.054769 -0.750426 -4.157968
  H 2.600921 -0.572252 -3.766559
  H 2.600553 -2.224386 -3.103761
  H 6.172267 -0.356874 -0.838157
 29
 0.000000
  C 1.129563 0.125571 0.363770
  C 2.606188 0.151085 0.426867
  C 3.332324 0.634092 1.628901
  C 2.494648 1.109833 2.813256
  C 3.387144 1.571029 3.961024
  C 3.381452 -0.368788 -0.867626
  C 4.450493 -0.478637 -1.141611
  C 4.958267 -0.857774 -2.086729
  C 4.561632 -1.393192 -3.421355
  C 3.096958 -1.550584 -3.814389
  H 3.015155 -1.947792 -4.804567
  O 5.970236 -0.783597 -1.902138
  H 0.647370 0.487547 1.264859
  H 0.783972 -0.893297 0.182057
  H 0.783695 0.735424 -0.472294
  H 3.988046 1.457621 1.323589
  H 3.988231 -0.171614 1.978152
  H 1.854388 0.301644 3.172625
  H 1.854250 1.941938 2.513659
  H 4.022799 0.760448 4.312034
  H 2.778656 1.907085 4.797706
  H 4.022626 2.399253 3.653628
  H 2.764201 -0.697605 -1.686442
  H 5.133362 -0.164791 -0.359931
  H 5.050386 -2.369792 -3.516309
  H 5.050720 -0.753233 -4.164949
  H 2.593183 -0.583123 -3.793612
  H 2.592823 -2.235257 -3.130813
  H 6.005699 -0.326768 -0.763088
 29
 0.000000
  C 1.156149 0.127050 0.367426
  C 2.632001 0.158198 0.444557
  C 3.344829 0.643946 1.653435
  C 2.494122 1.116460 2.829767
  C 3.373901 1.581032 3.985964
  C 3.452815 -0.379187 -0.893558
  C 4.469395 -0.492435 -1.176008
  C 4.946395 -0.864236 -2.102831
  C 4.556152 -1.400312 -3.439077
  C 3.093372 -1.560133 -3.838143
  H 3.016309 -1.957477 -4.828648
  O 5.896223 -0.785070 -1.905798
  H 0.664034 0.487163 1.263887
  H 0.816191 -0.893125 0.182448
  H 0.815919 0.735598 -0.471897
  H 4.000278 1.469979 1.354359
  H 4.000458 -0.159260 2.008915
  H 1.853563 0.305824 3.183044
  H 1.853429 1.946121 2.524086
  H 4.009281 0.772875 4.343012
  H 2.756208 1.914744 4.816820
  H 4.009113 2.411682 3.684613
  H 2.844634 -0.710341 -1.718201
  H 5.168298 -0.183518 -0.406626
  H 5.046912 -2.376101 -3.532010
  H 5.047239 -0.759544 -4.180654
  H 2.587912 -0.593508 -3.819450
  H 2.587560 -2.245640 -3.156645
  H 5.841278 -0.303435 -0.704900
 29
 0.000000
  C 1.178612 0.131583 0.378679
  C 2.653489 0.168624 0.470495
  C 3.352305 0.657185 1.686402
  C 2.488051 1.126267 2.854204
  C 3.354417 1.594321 4.019094
  C 3.529227 -0.390691 -0.922245
  C 4.497007 -0.506713 -1.211595
  C 4.945553 -0.875645 -2.131253
  C 4.553898 -1.411586 -3.467143
  C 3.090696 -1.570880 -3.864876
  H 3.012587 -1.968200 -4.855310
  O 5.835664 -0.794954 -1.930412
  H 0.676164 0.489704 1.270194
  H 0.844590 -0.889938 0.190342
  H 0.844324 0.738788 -0.463998
  H 4.007393 1.485837 1.393853
  H 4.007567 -0.143404 2.048402
  H 1.847250 0.313070 3.201100
  H 1.847122 1.953371 2.542149
  H 3.989435 0.788700 4.382460
  H 2.727156 1.925542 4.843758
  H 3.989273 2.427510 3.724068
  H 2.930611 -0.724254 -1.752895
  H 5.212891 -0.203231 -0.455774
  H 5.044221 -2.387553 -3.560519
  H 5.044542 -0.770999 -4.209171
  H 2.585602 -0.604072 -3.845726
  H 2.585256 -2.256200 -3.182914
  H 5.683910 -0.288044 -0.666500
 29
 0.000000
  C 1.194722 0.140407 0.400618
  C 2.668431 0.183438 0.507363
  C 3.352908 0.674803 1.730278
  C 2.474974 1.140339 2.889262
  C 3.327591 1.611879 4.062859
  C 3.610925 -0.403706 -0.954690
  C 4.534034 -0.521673 -1.248872
  C 4.957671 -0.893622 -2.176038
  C 4.555458 -1.428487 -3.509224
  C 3.089145 -1.583782 -3.896975
  H 3.003203 -1.980884 -4.886851
  O 5.793223 -0.814802 -1.979848
  H 0.681820 0.496461 1.286994
  H 0.866777 -0.882458 0.208922
  H 0.866519 0.746271 -0.445410
  H 4.007554 1.506117 1.444365
  H 4.007719 -0.123127 2.098906
  H 1.834002 0.324536 3.229663
  H 1.833882 1.964840 2.570721
  H 3.962166 0.808835 4.432648
  H 2.690671 1.940527 4.881125
  H 3.962013 2.447648 3.774264
  H 3.022111 -0.739680 -1.791353
  H 5.267311 -0.224003 -0.507548
  H 5.042467 -2.405789 -3.605926
  H 5.042784 -0.789240 -4.254589
  H 2.586835 -0.615597 -3.874397
  H 2.586493 -2.267721 -3.211573
  H 5.541714 -0.281621 -0.650445
 29
 0.000000
  C 1.203685 0.153903 0.434189
  C 2.676031 0.203004 0.556067
  C 3.345878 0.697153 1.785942
  C 2.454172 1.159036 2.935840
  C 3.292737 1.634055 4.118127
  C 3.698651 -0.418347 -0.991178
  C 4.580089 -0.537225 -1.287615
  C 4.982330 -0.918561 -2.238164
  C 4.560575 -1.451345 -3.566142
  C 3.088699 -1.599188 -3.935312
  H 2.988229 -1.995825 -4.924011
  O 5.769824 -0.844401 -2.053578
  H 0.680241 0.507816 1.315243
  H 0.881944 -0.870300 0.239150
  H 0.881696 0.758432 -0.415176
  H 3.999995 1.531165 1.506757
  H 4.000150 -0.098082 2.161291
  H 1.813104 0.340589 3.269651
  H 1.812994 1.980896 2.610716
  H 3.926784 0.833622 4.494428
  H 2.646095 1.960053 4.929801
  H 3.926641 2.472439 3.836052
  H 3.119852 -0.756724 -1.833840
  H 5.330666 -0.245596 -0.561355
  H 5.041359 -2.431104 -3.668962
  H 5.041673 -0.814559 -4.317637
  H 2.591631 -0.628468 -3.906416
  H 2.591290 -2.280587 -3.243579
  H 5.418023 -0.283731 -0.655655
 29
 0.000000
  C 1.204614 0.172135 0.479555
  C 2.675438 0.227218 0.616352
  C 3.330769 0.724055 1.852947
  C 2.425581 1.182279 2.993739
  C 3.250181 1.660672 4.184460
  C 3.791050 -0.434321 -1.030978
  C 4.633601 -0.552959 -1.326801
  C 5.017839 -0.950105 -2.316745
  C 4.568502 -1.479764 -3.636914
  C 3.089205 -1.616988 -3.979610
  H 2.968160 -2.012835 -4.966326
  O 5.765879 -0.882672 -2.148911
  H 0.670831 0.523895 1.355253
  H 0.889034 -0.853362 0.281280
  H 0.888798 0.775372 -0.373040
  H 3.984287 1.560727 1.580395
  H 3.984431 -0.068523 2.234921
  H 1.784495 0.361224 3.321047
  H 1.784395 2.001534 2.662120
  H 3.883629 0.862814 4.567182
  H 2.594024 1.984018 4.989533
  H 3.883497 2.501634 3.908813
  H 3.222204 -0.775028 -1.879459
  H 5.400646 -0.267335 -0.615511
  H 5.040303 -2.462953 -3.748277
  H 5.040614 -0.846414 -4.396966
  H 2.599731 -0.642716 -3.941866
  H 2.599391 -2.294829 -3.279016
  H 5.318254 -0.293283 -0.679409
 29
 0.000000
  C 1.199427 0.182344 0.504965
  C 2.669536 0.240016 0.648219
  C 3.318555 0.737998 1.887679
  C 2.407561 1.194621 3.024485
  C 3.226081 1.674458 4.218815
  C 3.827762 -0.439637 -1.044219
  C 4.655605 -0.557711 -1.338628
  C 5.034113 -0.963220 -2.349410
  C 4.572017 -1.491358 -3.665783
  C 3.089460 -1.623630 -3.996135
  H 2.958871 -2.019058 -4.981804
  O 5.769342 -0.898875 -2.189271
  H 0.661185 0.533158 1.378310
  H 0.886526 -0.843706 0.305307
  H 0.886295 0.785029 -0.349010
  H 3.971789 1.575821 1.617998
  H 3.971928 -0.053430 2.272521
  H 1.766490 0.372437 3.348976
  H 1.766396 2.012748 2.690052
  H 3.859246 0.877714 4.604315
  H 2.565826 1.996644 5.020998
  H 3.859120 2.516535 3.945949
  H 3.263248 -0.781342 -1.895189
  H 5.428586 -0.274316 -0.632893
  H 5.039583 -2.476119 -3.781061
  H 5.039894 -0.859582 -4.429755
  H 2.603578 -0.647726 -3.954327
  H 2.603237 -2.299837 -3.291471
  H 5.284963 -0.297133 -0.688980
 29
 0.000000
  C 1.183069 0.228396 0.619572
  C 2.649649 0.297418 0.791142
  C 3.270778 0.800296 2.042851
  C 2.334533 1.249767 3.161847
  C 3.126135 1.735815 4.371703
  C 4.026544 -0.474573 -1.131240
  C 4.780459 -0.588459 -1.415176
  C 5.126214 -1.042981 -2.548103
  C 4.590342 -1.561368 -3.840144
  C 3.091172 -1.664490 -4.097847
  H 2.905043 -2.056826 -5.075786
  O 5.809137 -0.995573 -2.430153
  H 0.625393 0.574964 1.482351
  H 0.882018 -0.800025 0.413986
  H 0.881813 0.828714 -0.240320
  H 3.922593 1.643167 1.785761
  H 3.922705 0.013910 2.440271
  H 1.693701 0.422625 3.473969
  H 1.693632 2.062942 2.815060
  H 3.757888 0.943957 4.769392
  H 2.448067 2.052819 5.160983
  H 3.757788 2.582784 4.111040
  H 3.481203 -0.820562 -1.992911
  H 5.582505 -0.316510 -0.737965
  H 5.032404 -2.555021 -3.977571
  H 5.032714 -0.938495 -4.626293
  H 2.627069 -0.679299 -4.032906
  H 2.626724 -2.331398 -3.370020
  H 5.158099 -0.336003 -0.785755
