 20
 0.000000
  C 1.006600 -0.071485 0.047722
  C 2.502916 -0.082175 0.026739
  C 3.219639 -0.594706 -0.979448
  C 4.657053 -0.605681 -1.000992
  C 5.378067 -1.120873 -2.012398
  C 6.816197 -1.130857 -2.031995
  C 7.534976 -1.642519 -3.036480
  C 9.024821 -1.662080 -3.074875
  H 0.643202 0.394424 0.962374
  H 0.611548 -1.086305 0.007997
  H 0.611551 0.493053 -0.796510
  H 3.002959 0.353247 0.881547
  H 2.709058 -1.028238 -1.830533
  H 5.161466 -0.170837 -0.147324
  H 4.874094 -1.555783 -2.866200
  H 7.322582 -0.696369 -1.179022
  H 7.036287 -2.078741 -3.892841
  H 9.458072 -1.208897 -2.185206
  H 9.384158 -1.116478 -3.948682
  H 9.384155 -2.689681 -3.147321
 20
 10.657962
  C 0.875988 -0.055827 0.078464
  C 2.506487 -0.073049 0.044655
  C 3.204840 -0.586475 -0.963290
  C 4.644316 -0.605769 -1.001169
  C 5.345794 -1.121174 -2.012995
  C 6.909571 -1.137832 -2.045691
  C 7.607671 -1.649342 -3.049879
  C 9.096485 -1.678137 -3.106398
  H 0.527793 0.410422 0.993782
  H 0.488006 -1.068391 0.038050
  H 0.488006 0.506827 -0.764347
  H 3.007331 0.360277 0.895348
  H 2.684312 -1.017488 -1.809431
  H 5.160104 -0.173634 -0.152817
  H 4.841318 -1.554029 -2.862757
  H 7.415554 -0.705235 -1.196430
  H 7.096774 -2.082608 -3.900438
  H 9.540020 -1.227331 -2.221394
  H 9.449052 -1.136014 -3.984220
  H 9.449052 -2.706949 -3.184019
 20
 34.939777
  C 0.739210 -0.039622 0.110274
  C 2.503229 -0.060264 0.069754
  C 3.184412 -0.577591 -0.945844
  C 4.629813 -0.604631 -0.998926
  C 5.312797 -1.122762 -2.016101
  C 7.003098 -1.143022 -2.055872
  C 7.684091 -1.658806 -3.068451
  C 9.174365 -1.696729 -3.142896
  H 0.409946 0.428270 1.028812
  H 0.368272 -1.055471 0.067839
  H 0.368273 0.523327 -0.736388
  H 2.995725 0.374060 0.922401
  H 2.654474 -1.006642 -1.788134
  H 5.156349 -0.174704 -0.154914
  H 4.816178 -1.556501 -2.867602
  H 7.500101 -0.709278 -1.204360
  H 7.161131 -2.089617 -3.914203
  H 9.628908 -1.247938 -2.261842
  H 9.519901 -1.157465 -4.025295
  H 9.519897 -2.727543 -3.225525
 20
 63.155622
  C 0.614934 -0.030391 0.128370
  C 2.524531 -0.048105 0.093650
  C 3.179999 -0.571050 -0.932963
  C 4.627339 -0.607559 -1.004616
  C 5.276223 -1.124281 -2.019058
  C 7.081644 -1.142188 -2.054247
  C 7.733928 -1.661650 -3.074093
  C 9.224160 -1.711448 -3.171825
  H 0.320523 0.439588 1.050992
  H 0.287730 -1.054804 0.082508
  H 0.287749 0.534831 -0.727244
  H 2.986593 0.390864 0.955419
  H 2.640760 -0.996851 -1.768905
  H 5.164716 -0.181637 -0.168476
  H 4.808185 -1.561840 -2.878099
  H 7.548463 -0.703957 -1.193871
  H 7.196838 -2.088158 -3.911255
  H 9.692461 -1.266049 -2.297480
  H 9.559167 -1.175401 -4.059619
  H 9.559161 -2.744741 -3.260188
 20
 92.023277
  C 0.471172 -0.027985 0.132809
  C 2.566075 -0.031701 0.126485
  C 3.189898 -0.555983 -0.902919
  C 4.637071 -0.603169 -0.995713
  C 5.264202 -1.129001 -2.028442
  C 7.145364 -1.138515 -2.047831
  C 7.771105 -1.665095 -3.080706
  C 9.258163 -1.728615 -3.205595
  H 0.223324 0.443107 1.057866
  H 0.221376 -1.063732 0.079102
  H 0.221735 0.537927 -0.736476
  H 2.968648 0.415595 1.004955
  H 2.643508 -0.978410 -1.732571
  H 5.184395 -0.180752 -0.166493
  H 4.843991 -1.573590 -2.901560
  H 7.561928 -0.692801 -1.172393
  H 7.219465 -2.086907 -3.908122
  H 9.742291 -1.287199 -2.339896
  H 9.579930 -1.196430 -4.099678
  H 9.579998 -2.764739 -3.300055
 20
 120.478362
  C 0.298326 -0.023978 0.145134
  C 2.608775 -0.020444 0.145882
  C 3.206435 -0.540201 -0.876670
  C 4.674307 -0.597517 -0.992222
  C 5.276634 -1.123695 -2.023882
  C 7.202461 -1.141701 -2.050955
  C 7.807680 -1.671905 -3.091276
  C 9.305620 -1.748440 -3.241289
  H 0.080401 0.457980 1.092588
  H 0.089407 -1.088422 0.088834
  H 0.087192 0.556387 -0.748326
  H 2.986460 0.437593 1.044714
  H 2.647644 -0.961232 -1.701987
  H 5.236256 -0.178896 -0.167930
  H 4.862673 -1.576550 -2.911923
  H 7.610172 -0.687583 -1.162534
  H 7.238175 -2.089187 -3.914503
  H 9.810147 -1.310779 -2.380212
  H 9.617321 -1.217109 -4.141197
  H 9.617051 -2.788794 -3.342250
 20
 122.242673
  C -0.120299 -0.112462 0.075717
  C 2.870248 0.057015 0.204219
  C 3.499610 -0.457248 -0.821225
  C 4.959422 -0.522559 -0.938347
  C 5.584236 -1.074325 -1.977041
  C 7.077748 -1.160829 -2.070459
  C 7.700030 -1.687047 -3.118561
  C 9.191427 -1.796298 -3.262954
  H -0.286257 0.363067 1.016344
  H -0.150511 -1.173089 0.033476
  H -0.209030 0.470257 -0.807583
  H 3.132200 0.532474 1.124352
  H 2.959611 -0.891532 -1.647560
  H 5.530225 -0.115474 -0.102148
  H 5.063194 -1.510779 -2.817606
  H 7.592685 -0.691862 -1.244131
  H 7.120880 -2.070342 -3.952954
  H 9.697327 -1.391631 -2.400782
  H 9.518571 -1.260602 -4.143730
  H 9.483131 -2.830689 -3.396224
 20
 128.445805
  C -0.344006 -0.117465 0.062531
  C 2.947921 0.066982 0.227924
  C 3.585045 -0.448080 -0.786055
  C 5.039447 -0.518590 -0.909998
  C 5.649260 -1.076205 -1.958675
  C 7.097388 -1.162595 -2.084486
  C 7.709519 -1.694852 -3.139192
  C 9.189647 -1.806491 -3.294569
  H -0.497053 0.363368 1.002443
  H -0.332035 -1.177039 0.025533
  H -0.383665 0.464782 -0.822651
  H 3.199799 0.549689 1.156267
  H 3.047425 -0.887004 -1.616098
  H 5.615657 -0.109788 -0.088722
  H 5.066337 -1.499883 -2.768687
  H 7.669808 -0.708094 -1.283066
  H 7.123773 -2.077873 -3.963817
  H 9.708795 -1.403790 -2.440873
  H 9.511167 -1.274103 -4.178260
  H 9.470752 -2.843059 -3.422816
 20
 132.142790
  C -0.558320 -0.105909 0.081496
  C 3.007138 0.068382 0.239414
  C 3.640804 -0.448734 -0.773471
  C 5.082172 -0.528227 -0.905318
  C 5.690043 -1.081335 -1.963806
  C 7.125826 -1.162276 -2.100425
  C 7.731892 -1.701166 -3.154591
  C 9.203882 -1.810363 -3.319611
  H -0.694776 0.376359 1.024461
  H -0.498876 -1.169122 0.039486
  H -0.544907 0.478307 -0.809566
  H 3.269145 0.547622 1.165061
  H 3.093292 -0.878861 -1.605592
  H 5.657585 -0.119335 -0.092250
  H 5.093536 -1.496552 -2.774688
  H 7.713965 -0.729438 -1.292571
  H 7.142370 -2.107410 -3.968366
  H 9.724117 -1.389234 -2.466386
  H 9.522930 -1.287401 -4.220195
  H 9.491083 -2.854301 -3.432730
 20
 133.459637
  C -0.775390 -0.099670 0.097425
  C 3.070731 0.072920 0.256933
  C 3.703734 -0.444706 -0.759765
  C 5.137160 -0.519405 -0.902338
  C 5.737419 -1.073977 -1.967968
  C 7.151544 -1.170630 -2.112768
  C 7.749729 -1.718829 -3.170187
  C 9.211829 -1.821403 -3.343189
  H -0.921058 0.382368 1.043087
  H -0.674322 -1.164374 0.047603
  H -0.717107 0.483159 -0.798693
  H 3.334676 0.548416 1.178369
  H 3.144184 -0.874197 -1.594316
  H 5.720759 -0.111576 -0.090653
  H 5.133844 -1.483226 -2.768230
  H 7.758110 -0.753408 -1.310559
  H 7.147838 -2.125428 -3.984604
  H 9.738583 -1.397741 -2.498256
  H 9.520064 -1.300011 -4.246943
  H 9.503029 -2.867126 -3.452360
 20
 134.100848
  C -0.985621 -0.095339 0.096589
  C 3.107253 0.087112 0.292001
  C 3.723618 -0.435262 -0.726507
  C 5.175874 -0.523858 -0.891555
  C 5.761710 -1.077876 -1.961368
  C 7.185649 -1.178363 -2.125230
  C 7.769928 -1.730857 -3.189749
  C 9.246346 -1.839706 -3.390913
  H -1.128960 0.384538 1.034174
  H -0.832409 -1.144979 0.058658
  H -0.869733 0.487714 -0.782674
  H 3.348522 0.566453 1.220885
  H 3.154609 -0.853844 -1.544497
  H 5.773502 -0.117968 -0.091206
  H 5.157559 -1.488457 -2.767796
  H 7.785379 -0.767329 -1.323614
  H 7.160725 -2.138222 -3.980063
  H 9.791133 -1.405303 -2.545984
  H 9.544138 -1.322048 -4.310269
  H 9.537619 -2.888440 -3.500652
 20
 134.446475
  C -1.189813 -0.095107 0.110700
  C 3.171299 0.101046 0.310822
  C 3.783791 -0.421571 -0.712980
  C 5.227851 -0.514437 -0.887265
  C 5.801314 -1.070115 -1.962804
  C 7.214293 -1.185768 -2.139727
  C 7.787686 -1.743214 -3.209695
  C 9.250404 -1.858366 -3.416744
  H -1.390599 0.378591 1.045212
  H -1.020539 -1.146860 0.068161
  H -1.061711 0.490662 -0.770668
  H 3.412035 0.570984 1.227708
  H 3.206144 -0.835166 -1.528620
  H 5.842558 -0.110401 -0.081304
  H 5.174411 -1.470238 -2.755107
  H 7.843502 -0.784988 -1.345062
  H 7.163992 -2.146482 -4.004966
  H 9.800350 -1.432115 -2.580184
  H 9.543496 -1.343194 -4.330926
  H 9.534983 -2.908009 -3.529289
 20
 134.512130
  C -1.393049 -0.087854 0.109649
  C 3.228111 0.110448 0.340159
  C 3.822093 -0.420472 -0.687414
  C 5.266199 -0.527448 -0.878618
  C 5.828274 -1.083727 -1.961886
  C 7.239566 -1.188103 -2.153185
  C 7.797605 -1.748944 -3.226498
  C 9.260921 -1.869847 -3.455304
  H -1.638521 0.385042 1.036570
  H -1.197129 -1.143097 0.083960
  H -1.233384 0.508822 -0.768279
  H 3.466240 0.593893 1.279487
  H 3.235683 -0.827032 -1.491767
  H 5.879337 -0.126811 -0.096525
  H 5.218541 -1.482117 -2.751329
  H 7.844924 -0.793201 -1.360690
  H 7.164603 -2.164319 -4.006707
  H 9.816137 -1.437330 -2.634259
  H 9.540944 -1.365785 -4.376680
  H 9.542051 -2.911634 -3.563622
 20
 134.603889
  C -1.605640 -0.077966 0.116313
  C 3.283226 0.120466 0.364663
  C 3.868306 -0.415063 -0.666802
  C 5.310020 -0.530602 -0.869132
  C 5.856819 -1.089543 -1.956870
  C 7.256994 -1.199669 -2.168442
  C 7.802250 -1.760489 -3.249421
  C 9.255731 -1.885088 -3.491699
  H -1.927585 0.383678 1.021284
  H -1.405644 -1.126745 0.095354
  H -1.439462 0.516612 -0.754363
  H 3.528674 0.597322 1.290458
  H 3.279850 -0.815307 -1.460198
  H 5.944510 -0.123965 -0.078141
  H 5.218432 -1.484924 -2.739637
  H 7.894678 -0.804471 -1.382353
  H 7.159876 -2.172012 -4.022288
  H 9.826884 -1.452974 -2.669468
  H 9.528519 -1.374749 -4.422916
  H 9.534246 -2.934383 -3.604857
