13

C 1.111111 0.034 0.05776
C 2.607737 0.044036 0.037225
C 3.323233 0.540084 -0.978533
C 4.760906 0.54997 -0.998778
C 5.480769 1.048472 -2.019545
H 6.5506646575979435 1.0550254098077434 -2.032973874597526
H 0.749595 -0.41685 0.980967
H 0.715643 -0.546441 -0.775222
H 0.715643 1.047814 0.003339
H 3.107114 -0.377035 0.899433
H 2.812024 0.958915 -1.836177
H 5.265144 0.129677 -0.138152
H 4.977072 1.468852 -2.880367
