 26
 0.000000
  C 0.991253 0.124657 0.361253
  C 2.466691 0.131027 0.377336
  C 3.237545 0.603126 1.552199
  C 2.448140 1.090286 2.764192
  C 3.394507 1.536381 3.874839
  C 3.107086 -0.329404 -0.768686
  C 4.487335 -0.401209 -0.948360
  C 5.161808 -0.854844 -2.079838
  C 4.573583 -1.358751 -3.335845
  H 3.492658 -1.372737 -3.370397
  O 6.479161 -0.861066 -2.096409
  H 0.549284 0.493411 1.278689
  H 0.627349 -0.888047 0.181857
  H 0.627397 0.731643 -0.469013
  H 3.896271 1.415851 1.226133
  H 3.896093 -0.209319 1.879225
  H 1.811046 0.291442 3.147630
  H 1.811370 1.932563 2.488188
  H 4.029982 0.715224 4.199030
  H 2.828861 1.882608 4.736283
  H 4.030302 2.353297 3.540798
  H 2.462775 -0.651990 -1.571776
  H 5.106402 -0.070292 -0.124407
  H 4.958290 -2.364174 -3.512669
  H 4.958194 -0.754269 -4.158523
  H 6.896672 -0.532923 -1.277333
 26
 -0.082077
  C 1.020541 0.185257 0.297563
  C 2.494237 0.155145 0.359251
  C 3.240456 0.585270 1.566167
  C 2.427263 1.067392 2.763218
  C 3.351289 1.469390 3.908550
  C 3.164226 -0.300411 -0.770146
  C 4.547843 -0.395718 -0.916377
  C 5.188384 -0.857365 -2.058363
  C 4.513777 -1.308359 -3.297739
  H 3.435206 -1.253714 -3.248487
  O 6.496298 -0.924901 -2.131982
  H 0.561820 0.552923 1.206619
  H 0.639603 -0.814120 0.085354
  H 0.698702 0.804454 -0.540086
  H 3.931692 1.383753 1.276568
  H 3.872780 -0.246618 1.893627
  H 1.762909 0.275426 3.112062
  H 1.819909 1.929877 2.485257
  H 3.959178 0.627686 4.232266
  H 2.770595 1.811284 4.761917
  H 4.013947 2.277954 3.608637
  H 2.559867 -0.610495 -1.615788
  H 5.177871 -0.092154 -0.096366
  H 4.819417 -2.331999 -3.515706
  H 4.873894 -0.707156 -4.132746
  H 6.968120 -0.629611 -1.337091
 26
 0.320985
  C 1.026956 0.298970 0.252346
  C 2.501020 0.207029 0.342151
  C 3.237953 0.582753 1.568409
  C 2.417965 1.034880 2.775244
  C 3.336614 1.387250 3.940351
  C 3.174542 -0.274003 -0.773732
  C 4.559700 -0.290487 -0.954779
  C 5.187473 -0.819657 -2.076227
  C 4.503768 -1.456164 -3.224806
  H 3.425684 -1.516430 -3.123782
  O 6.491465 -0.812842 -2.216290
  H 0.566655 0.691257 1.152749
  H 0.609303 -0.682301 0.047302
  H 0.745779 0.923138 -0.595996
  H 3.950718 1.377615 1.318488
  H 3.855043 -0.269348 1.869308
  H 1.743880 0.237772 3.092699
  H 1.824853 1.915585 2.523232
  H 3.935755 0.525384 4.239375
  H 2.751521 1.704400 4.801118
  H 4.009773 2.200337 3.674638
  H 2.576280 -0.639590 -1.597858
  H 5.191924 0.109604 -0.173167
  H 4.912330 -2.460622 -3.356383
  H 4.753119 -0.910869 -4.130317
  H 6.984166 -0.398462 -1.480401
 26
 1.456170
  C 1.037216 0.365361 0.224681
  C 2.501137 0.216672 0.346743
  C 3.232235 0.561685 1.584692
  C 2.410709 1.039406 2.781251
  C 3.327215 1.336559 3.961078
  C 3.184870 -0.279895 -0.760366
  C 4.565950 -0.267389 -0.959545
  C 5.169823 -0.793045 -2.100381
  C 4.497887 -1.553716 -3.176798
  H 3.431923 -1.683523 -3.038730
  O 6.462508 -0.687170 -2.286752
  H 0.567770 0.751925 1.122988
  H 0.588514 -0.598849 -0.020153
  H 0.803023 1.007477 -0.624281
  H 3.960232 1.344137 1.340311
  H 3.839042 -0.305042 1.891784
  H 1.704432 0.262047 3.074100
  H 1.870101 1.945269 2.522982
  H 3.866039 0.450339 4.272791
  H 2.748673 1.699686 4.803532
  H 4.043780 2.110034 3.708621
  H 2.615621 -0.653564 -1.590824
  H 5.206982 0.199220 -0.222868
  H 4.967884 -2.526762 -3.253339
  H 4.683796 -1.050556 -4.132027
  H 6.947307 -0.213741 -1.583552
 26
 2.923880
  C 1.041793 0.309604 0.218308
  C 2.518205 0.243401 0.323218
  C 3.245203 0.591338 1.573329
  C 2.405698 1.031566 2.770311
  C 3.306017 1.374581 3.956701
  C 3.216918 -0.202478 -0.780382
  C 4.595531 -0.286430 -0.914458
  C 5.174285 -0.834854 -2.045632
  C 4.442730 -1.510454 -3.148522
  H 3.369011 -1.558474 -3.019845
  O 6.473151 -0.780066 -2.307208
  H 0.569406 0.617976 1.132437
  H 0.647881 -0.675441 -0.045184
  H 0.779597 0.975829 -0.593214
  H 3.938015 1.391466 1.330811
  H 3.876723 -0.265342 1.867000
  H 1.739450 0.207356 3.055319
  H 1.820804 1.902470 2.518709
  H 3.892891 0.523318 4.280417
  H 2.709577 1.716574 4.800088
  H 3.992619 2.178371 3.689909
  H 2.655886 -0.480230 -1.663500
  H 5.251881 0.126528 -0.162654
  H 4.844482 -2.528252 -3.243905
  H 4.677582 -1.028008 -4.093433
  H 7.018544 -0.358983 -1.615335
 26
 3.563679
  C 1.053266 0.349913 0.201561
  C 2.526492 0.227499 0.345395
  C 3.231261 0.581547 1.585533
  C 2.395978 1.055392 2.766439
  C 3.291781 1.359925 3.962969
  C 3.240961 -0.248006 -0.752418
  C 4.622284 -0.284049 -0.902209
  C 5.187983 -0.800325 -2.057597
  C 4.439498 -1.545103 -3.107799
  H 3.376883 -1.648598 -2.936977
  O 6.447558 -0.721887 -2.408102
  H 0.562727 0.723427 1.087116
  H 0.631146 -0.616783 -0.054530
  H 0.825523 0.995963 -0.646025
  H 3.969195 1.352107 1.350271
  H 3.810879 -0.286273 1.899901
  H 1.682696 0.275311 3.041668
  H 1.842530 1.952893 2.494263
  H 3.842304 0.479779 4.275087
  H 2.700944 1.702097 4.801916
  H 4.006360 2.143111 3.720802
  H 2.670737 -0.567680 -1.623750
  H 5.284316 0.136892 -0.151532
  H 4.888168 -2.540897 -3.205381
  H 4.606706 -1.059053 -4.074797
  H 7.036700 -0.330305 -1.734060
 26
 7.220680
  C 1.081319 0.461980 0.149490
  C 2.537052 0.312403 0.315429
  C 3.237106 0.580064 1.593701
  C 2.389871 1.037903 2.775997
  C 3.262051 1.255434 4.007770
  C 3.258374 -0.177186 -0.758235
  C 4.639473 -0.092924 -0.998350
  C 5.152315 -0.771936 -2.097416
  C 4.408994 -1.688705 -3.003187
  H 3.341924 -1.799372 -2.908840
  O 6.415799 -0.714814 -2.459744
  H 0.593836 0.819147 1.051693
  H 0.637601 -0.494790 -0.132477
  H 0.871809 1.148736 -0.666166
  H 4.010492 1.330921 1.402912
  H 3.778708 -0.327345 1.883436
  H 1.634919 0.288321 3.010336
  H 1.878001 1.972613 2.539558
  H 3.782942 0.341163 4.282300
  H 2.652040 1.565453 4.854251
  H 4.003669 2.031102 3.826326
  H 2.829200 -0.660999 -1.618710
  H 5.285442 0.522989 -0.394528
  H 4.843642 -2.683132 -2.868893
  H 4.636319 -1.394481 -4.030596
  H 6.991463 -0.174906 -1.884430
 26
 11.828852
  C 1.069828 0.588817 0.100873
  C 2.534686 0.402519 0.258911
  C 3.232580 0.582616 1.558142
  C 2.397837 1.011210 2.764925
  C 3.295485 1.134077 3.993071
  C 3.239590 -0.136830 -0.801831
  C 4.593861 0.001163 -1.075040
  C 5.164215 -0.750425 -2.108542
  C 4.443282 -1.797076 -2.901786
  H 3.394225 -2.010154 -2.773663
  O 6.440280 -0.623326 -2.420928
  H 0.602917 0.939849 1.020708
  H 0.595247 -0.353942 -0.171143
  H 0.873426 1.310606 -0.680018
  H 4.016366 1.332272 1.401044
  H 3.756949 -0.335832 1.813893
  H 1.630523 0.261708 2.949815
  H 1.915467 1.985129 2.578944
  H 3.777924 0.189952 4.231922
  H 2.709556 1.435142 4.853098
  H 4.057774 1.894548 3.830908
  H 2.758952 -0.710388 -1.625095
  H 5.171496 0.758239 -0.569942
  H 4.876067 -2.750555 -2.589995
  H 4.643757 -1.643610 -3.973258
  H 6.954386 -0.039305 -1.808001
 26
 16.045357
  C 1.114520 0.536754 0.106651
  C 2.556568 0.345892 0.310822
  C 3.228176 0.566266 1.614235
  C 2.368193 1.057395 2.775488
  C 3.222596 1.207749 4.029535
  C 3.293110 -0.231289 -0.709109
  C 4.660384 -0.059180 -1.018878
  C 5.165545 -0.727979 -2.110203
  C 4.403184 -1.736444 -2.925753
  H 3.378695 -2.013588 -2.718102
  O 6.417191 -0.658476 -2.599616
  H 0.607832 0.915970 1.001282
  H 0.630837 -0.410448 -0.192586
  H 0.961814 1.247357 -0.704910
  H 4.048523 1.283222 1.447308
  H 3.689324 -0.385079 1.906407
  H 1.586286 0.332535 2.977667
  H 1.920978 2.022358 2.535199
  H 3.669418 0.248493 4.314273
  H 2.613090 1.555948 4.868963
  H 4.035038 1.927741 3.864611
  H 2.862529 -0.816518 -1.552977
  H 5.216632 0.728575 -0.560766
  H 4.942759 -2.684340 -2.798661
  H 4.492131 -1.441716 -3.982139
  H 7.072257 -0.167275 -2.018179
 26
 33.867430
  C 1.174684 0.506164 0.072532
  C 2.631701 0.308433 0.324451
  C 3.240490 0.520807 1.680749
  C 2.336090 1.066961 2.779899
  C 3.138935 1.212170 4.074802
  C 3.412637 -0.280891 -0.625122
  C 4.755641 -0.025203 -1.020011
  C 5.177872 -0.714234 -2.134554
  C 4.345049 -1.692564 -2.861503
  H 3.356684 -2.059808 -2.617185
  O 6.335310 -0.681798 -2.756835
  H 0.638684 0.889692 0.936366
  H 0.721318 -0.433934 -0.227202
  H 1.033311 1.203388 -0.741970
  H 4.059493 1.211433 1.529516
  H 3.656990 -0.423596 2.014342
  H 1.495046 0.400469 2.953696
  H 1.982404 2.055621 2.492574
  H 3.528025 0.244796 4.391349
  H 2.517426 1.609704 4.872343
  H 3.986796 1.878438 3.934265
  H 3.118336 -0.951475 -1.550525
  H 5.289912 0.817686 -0.617227
  H 4.916747 -2.614200 -2.827498
  H 4.305142 -1.334877 -3.894241
  H 7.002737 -0.147762 -2.302536
 26
 53.900405
  C 1.202671 0.395112 0.104662
  C 2.674398 0.365318 0.331685
  C 3.257027 0.575777 1.706846
  C 2.323802 1.053035 2.794420
  C 3.080808 1.208502 4.119095
  C 3.508043 -0.095323 -0.654011
  C 4.855998 0.107226 -1.079722
  C 5.189537 -0.686270 -2.127357
  C 4.231779 -1.677554 -2.832651
  H 3.190400 -2.012191 -2.740470
  O 6.359690 -0.788314 -2.789518
  H 0.647386 0.752388 0.972584
  H 0.863176 -0.596215 -0.175575
  H 0.959002 1.045780 -0.719557
  H 4.068421 1.299679 1.596286
  H 3.733417 -0.357221 2.016724
  H 1.494031 0.372456 2.960412
  H 1.893881 2.018088 2.536465
  H 3.483133 0.258492 4.456465
  H 2.409879 1.606394 4.886340
  H 3.909076 1.899626 4.015989
  H 3.212099 -0.845632 -1.715672
  H 5.511172 0.888524 -0.665220
  H 4.748720 -2.648544 -2.787307
  H 4.282403 -1.356909 -3.896206
  H 7.068963 -0.321042 -2.404122
 26
 64.251206
  C 1.143134 0.553744 0.066252
  C 2.588519 0.446471 0.237452
  C 3.255014 0.600787 1.608945
  C 2.360273 0.958418 2.773024
  C 3.215914 1.047528 4.025490
  C 3.352224 -0.067691 -0.734218
  C 4.668782 0.169021 -1.161541
  C 5.159509 -0.664250 -2.079489
  C 4.332717 -1.740640 -2.648886
  H 3.297774 -2.038695 -2.548359
  O 6.321028 -0.696405 -2.661258
  H 0.656034 0.885999 0.962450
  H 0.747448 -0.421954 -0.222778
  H 0.917974 1.253170 -0.747039
  H 4.040172 1.366260 1.502686
  H 3.784919 -0.323382 1.850077
  H 1.570736 0.200491 2.918886
  H 1.866186 1.914317 2.613934
  H 3.707660 0.106535 4.229729
  H 2.607880 1.301557 4.870531
  H 3.953704 1.806202 3.925514
  H 3.104586 -0.908869 -1.802348
  H 5.228515 0.965220 -0.791448
  H 4.826127 -2.646558 -2.301456
  H 4.490615 -1.692323 -3.736539
  H 7.017034 -0.065253 -2.234112
 26
 85.183665
  C 1.153050 0.456528 0.135831
  C 2.647775 0.364928 0.310094
  C 3.281457 0.586014 1.670925
  C 2.359605 0.965425 2.824204
  C 3.165529 1.149788 4.105137
  C 3.411187 -0.095276 -0.671483
  C 4.729997 0.086160 -1.116999
  C 5.188987 -0.681950 -2.135548
  C 4.278396 -1.723437 -2.794636
  H 3.195855 -2.111560 -2.769796
  O 6.400398 -0.620798 -2.710886
  H 0.646740 0.759810 1.045997
  H 0.745254 -0.503062 -0.167586
  H 0.909699 1.171765 -0.640924
  H 4.025521 1.373970 1.543494
  H 3.830062 -0.313906 1.952928
  H 1.619797 0.185058 2.990423
  H 1.842310 1.899265 2.598877
  H 3.689975 0.236195 4.368120
  H 2.507159 1.413224 4.931402
  H 3.891911 1.949391 3.992369
  H 3.311316 -1.113358 -2.201049
  H 5.344451 0.893043 -0.699311
  H 4.724726 -2.687288 -2.502290
  H 4.425561 -1.579052 -3.871916
  H 7.015185 -0.040574 -2.257604
