 14
 0.000000
  C 0.939353 0.136358 0.411336
  C 2.392402 0.088298 0.316552
  H 2.974346 0.430448 1.164384
  C 3.061933 -0.367406 -0.799296
  C 4.458048 -0.395617 -0.871198
  C 5.137346 -0.836274 -1.998113
  H 4.593744 -1.185411 -2.874401
  O 6.416402 -0.868979 -2.141194
  H 0.596537 0.533563 1.358654
  H 0.516560 -0.859246 0.253375
  H 0.525850 0.728049 -0.409418
  H 2.493727 -0.710991 -1.655085
  H 5.023026 -0.053234 -0.013529
  H 6.932720 -0.562323 -1.369120
 14
 0.646576
  C 0.949984 0.052141 0.410704
  C 2.396356 0.187696 0.298638
  H 2.958148 0.464254 1.181009
  C 3.081303 -0.125531 -0.853948
  C 4.474282 -0.246514 -0.895599
  C 5.109062 -0.814800 -1.984865
  H 4.536414 -1.087095 -2.866549
  O 6.364525 -1.089630 -2.089534
  H 0.562363 0.463264 1.336468
  H 0.706231 -1.016584 0.375685
  H 0.436452 0.480164 -0.451156
  H 2.519253 -0.368692 -1.745752
  H 5.046824 0.025066 -0.018608
  H 6.916037 -0.843525 -1.316698
 14
 4.395776
  C 1.011473 -0.064052 0.379962
  C 2.417162 0.311077 0.293889
  H 2.950411 0.554329 1.203223
  C 3.115342 0.163833 -0.882631
  C 4.493067 -0.084374 -0.905523
  C 5.025879 -0.815347 -1.947760
  H 4.424055 -1.023595 -2.827208
  O 6.203897 -1.340469 -2.007763
  H 0.552402 0.207949 1.323613
  H 1.003146 -1.157675 0.284796
  H 0.432162 0.301828 -0.466941
  H 2.560848 0.040313 -1.804004
  H 5.078935 0.115459 -0.018499
  H 6.793809 -1.136604 -1.252105
 14
 10.528559
  C 1.005056 -0.473506 0.023263
  C 2.226800 0.319571 0.107623
  H 2.562767 0.670197 1.074512
  C 3.082060 0.352293 -0.969656
  C 4.466739 0.220830 -0.779082
  C 5.142556 -0.631829 -1.622644
  H 4.691458 -0.950785 -2.556702
  O 6.323571 -1.128938 -1.441189
  H 0.373352 -0.391345 0.899841
  H 1.387276 -1.501274 -0.057667
  H 0.447594 -0.293616 -0.894463
  H 2.684596 0.157024 -1.957567
  H 4.902587 0.537430 0.158996
  H 6.784064 -0.827178 -0.631121
 14
 17.930474
  C 1.127415 -0.527511 -0.006485
  C 2.256959 0.390633 0.144938
  H 2.585061 0.667593 1.137285
  C 3.094054 0.564948 -0.943214
  C 4.468183 0.290083 -0.778954
  C 4.992611 -0.657938 -1.631134
  H 4.510476 -0.871864 -2.581754
  O 6.111796 -1.298297 -1.487250
  H 0.466209 -0.558750 0.848780
  H 1.663110 -1.484352 -0.099792
  H 0.584907 -0.389472 -0.940804
  H 2.678956 0.442987 -1.939476
  H 4.917469 0.468641 0.189601
  H 6.618029 -1.073698 -0.677659
 14
 28.419990
  C 1.311068 -0.597758 -0.037086
  C 2.309717 0.450990 0.147720
  H 2.653034 0.693958 1.145011
  C 3.082755 0.755469 -0.956499
  C 4.434147 0.356896 -0.805051
  C 4.799218 -0.699285 -1.602831
  H 4.319510 -0.870357 -2.558565
  O 5.852542 -1.453094 -1.445899
  H 0.728493 -0.814717 0.849715
  H 1.991963 -1.438132 -0.269725
  H 0.687709 -0.466221 -0.920287
  H 2.643922 0.688882 -1.944562
  H 4.929873 0.536255 0.141008
  H 6.359098 -1.287720 -0.625044
 14
 39.622377
  C 1.478888 -0.660096 -0.038016
  C 2.360984 0.490130 0.145855
  H 2.692996 0.767453 1.134363
  C 3.064395 0.876676 -0.984491
  C 4.397454 0.396824 -0.849398
  C 4.635032 -0.737251 -1.585948
  H 4.183042 -0.877094 -2.558980
  O 5.646698 -1.556267 -1.412387
  H 0.979880 -0.995352 0.859973
  H 2.261492 -1.386500 -0.349358
  H 0.817268 -0.586563 -0.897616
  H 2.589777 0.853087 -1.954857
  H 4.967009 0.616751 0.041944
  H 6.102988 -1.463809 -0.550481
 14
 54.104707
  C 1.631206 -0.684717 -0.059208
  C 2.440511 0.525353 0.134247
  H 2.853600 0.764686 1.107254
  C 3.039979 0.982102 -1.039162
  C 4.341368 0.423084 -0.883674
  C 4.435296 -0.802284 -1.531287
  H 4.040840 -0.938357 -2.517310
  O 5.436860 -1.653344 -1.322375
  H 1.244100 -1.137756 0.832153
  H 2.507426 -1.310192 -0.460971
  H 0.936483 -0.660633 -0.885170
  H 2.521185 0.949370 -1.986999
  H 4.946012 0.641002 -0.013669
  H 5.946673 -1.489916 -0.494713
 14
 75.353043
  C 1.797540 -0.693719 -0.079794
  C 2.519568 0.571604 0.116121
  H 2.965245 0.818520 1.092171
  C 3.027457 1.045005 -1.067140
  C 4.280136 0.432205 -0.898325
  C 4.263521 -0.852459 -1.475191
  H 3.880045 -0.954376 -2.479997
  O 5.261785 -1.698807 -1.287215
  H 1.482214 -1.224383 0.794714
  H 2.786954 -1.253781 -0.583547
  H 1.128508 -0.753965 -0.902625
  H 2.469091 0.971708 -1.993478
  H 4.931732 0.649450 -0.067183
  H 5.742154 -1.587589 -0.423507
 14
 88.720474
  C 1.853118 -0.637895 -0.042716
  C 2.526955 0.604216 0.144835
  H 2.952447 0.864441 1.101711
  C 3.026480 1.076663 -1.086482
  C 4.252749 0.438815 -0.909496
  C 4.195263 -0.943277 -1.468114
  H 3.806928 -1.037301 -2.484409
  O 5.232198 -1.770032 -1.306792
  H 1.570774 -1.195408 0.836761
  H 3.104725 -1.283262 -0.727253
  H 1.199925 -0.773423 -0.893797
  H 2.456860 0.983962 -2.000347
  H 4.933092 0.647492 -0.096798
  H 5.714613 -1.648349 -0.468619
 14
 76.601786
  C 1.662998 -0.476607 0.061597
  C 2.429621 0.659336 0.179910
  H 2.872413 0.937134 1.119787
  C 3.060018 0.956285 -1.025408
  C 4.272574 0.318269 -0.922795
  C 4.301202 -1.050838 -1.525532
  H 3.887761 -1.124834 -2.529723
  O 5.430779 -1.763428 -1.452376
  H 1.341279 -0.988298 0.952050
  H 3.403882 -1.429590 -0.845868
  H 1.085051 -0.680661 -0.800893
  H 2.488977 0.874411 -1.942120
  H 5.003430 0.545116 -0.125231
  H 5.957137 -1.592670 -0.702528
 14
 60.027001
  C 1.510475 -0.348843 0.210561
  C 2.411989 0.643025 0.240550
  H 2.892877 0.938969 1.154750
  C 3.070839 0.827605 -1.030647
  C 4.322321 0.243307 -0.989906
  C 4.438199 -1.067796 -1.631689
  H 4.078681 -1.104808 -2.662376
  O 5.626418 -1.762093 -1.578684
  H 1.159320 -0.788416 1.117784
  H 3.610461 -1.558724 -1.011838
  H 0.942611 -0.593288 -0.676036
  H 2.461314 0.754018 -1.939104
  H 5.028816 0.504299 -0.187883
  H 6.092964 -1.645604 -0.739250
 14
 48.244459
  C 1.333497 -0.172074 0.306532
  C 2.401678 0.648655 0.272624
  H 2.902570 0.981385 1.169956
  C 3.088884 0.644129 -0.976281
  C 4.370644 0.109433 -0.980335
  C 4.586526 -1.134370 -1.714259
  H 4.174709 -1.138400 -2.730965
  O 5.833599 -1.703072 -1.764822
  H 0.897767 -0.484316 1.241917
  H 3.866431 -1.760215 -1.108729
  H 0.819374 -0.476994 -0.589036
  H 2.486386 0.581346 -1.876782
  H 5.064678 0.374532 -0.189625
  H 6.345148 -1.572342 -0.951705
 14
 38.995172
  C 1.202241 0.026609 0.400818
  C 2.423413 0.595093 0.299029
  H 2.987387 0.888739 1.173132
  C 3.090108 0.428485 -0.942221
  C 4.393752 -0.030907 -0.973869
  C 4.732626 -1.180035 -1.804186
  H 4.362408 -1.118447 -2.835843
  O 6.029481 -1.630116 -1.857689
  H 0.723991 -0.134000 1.351844
  H 4.064763 -1.943879 -1.312088
  H 0.659283 -0.284616 -0.476903
  H 2.474983 0.323938 -1.827950
  H 5.109579 0.322365 -0.239071
  H 6.506340 -1.511422 -1.022575
 14
 34.911609
  C 1.177832 0.100272 0.472672
  C 2.386478 0.665748 0.290132
  H 2.946032 1.091134 1.111792
  C 3.053329 0.327341 -0.938298
  C 4.357405 -0.141077 -0.935741
  C 4.793189 -1.168110 -1.884491
  H 4.531486 -0.958420 -2.930305
  O 6.086609 -1.622357 -1.850599
  H 0.716753 0.047876 1.445331
  H 4.106452 -2.007786 -1.618992
  H 0.658012 -0.370231 -0.343249
  H 2.436779 0.178148 -1.810082
  H 4.979082 0.049907 -0.067393
  H 6.530917 -1.440637 -1.008348
