19

C -1.50387 -0.813599 0.871644
C -0.863222 0.279194 0.021872
C -1.31167 0.135318 -1.457072
C -1.198902 1.6591 0.409633
C -2.401088 2.015374 1.152329
H -0.5871745146562727 2.4738761148980695 0.08278538066241364
H -1.093429 -1.772069 0.577084
H -2.579318 -0.858416 0.730525
H -1.284291 -0.668138 1.922611
H 0.224828 0.140625 0.049957
H -2.39364 0.178668 -1.527696
H -0.983177 -0.831701 -1.819698
H -0.886846 0.900937 -2.094889
H -2.864506 1.172243 1.644131
H -3.117159 2.451029 0.450882
H -2.184462 2.81775 1.858846
O 2.219118 -0.264571 -0.249324
H 2.7395 0.177412 0.426101
H 2.833079 -0.510784 -0.947527
