 15
 0.000000
  C 0.898170 0.051001 0.231876
  C 2.397408 0.056968 0.126105
  C 3.259792 -0.013101 1.367981
  C 2.540498 -0.088788 2.709256
  H 3.272830 -0.134063 3.511722
  C 2.980130 0.123965 -1.061236
  H 2.435219 0.176245 -1.987805
  H 4.053619 0.129604 -1.161155
  H 0.551667 -0.006899 1.257974
  H 0.487100 -0.803148 -0.304065
  H 0.487102 0.960019 -0.204575
  H 3.910467 0.866179 1.377531
  H 3.910474 -0.887878 1.278556
  H 1.916066 -0.977555 2.770237
  H 1.916078 0.787451 2.869828
 15
 9.966112
  C 0.824559 0.051829 0.217198
  C 2.452428 0.058747 0.094553
  C 3.312894 -0.010859 1.328225
  C 2.528639 -0.092947 2.782933
  H 3.261379 -0.138076 3.582752
  C 3.021406 0.125736 -1.092623
  H 2.465666 0.177665 -2.012959
  H 4.094036 0.131944 -1.202625
  H 0.488480 -0.006159 1.244835
  H 0.416159 -0.801436 -0.317507
  H 0.416161 0.959830 -0.218123
  H 3.961147 0.867362 1.341876
  H 3.961152 -0.885044 1.242993
  H 1.906623 -0.980919 2.838783
  H 1.906625 0.783092 2.938322
 15
 30.977391
  C 0.776568 0.051030 0.231329
  C 2.530666 0.059617 0.079085
  C 3.373514 -0.009623 1.306133
  C 2.482081 -0.096854 2.852250
  H 3.212477 -0.141838 3.649499
  C 3.039939 0.129325 -1.156185
  H 2.427029 0.179173 -2.039558
  H 4.107256 0.138795 -1.323962
  H 0.499441 -0.007564 1.269630
  H 0.401911 -0.809808 -0.306226
  H 0.401915 0.966882 -0.205962
  H 4.012047 0.871494 1.358934
  H 4.012072 -0.891087 1.259481
  H 1.865209 -0.984219 2.844137
  H 1.865201 0.785782 2.944002
