 23
 0.000000
  C 0.982885 0.150939 0.436841
  C 2.446239 0.132322 0.368182
  H 3.037622 0.473413 1.203734
  C 3.051109 -0.331000 -0.778766
  C 4.430230 -0.410864 -0.972699
  C 5.111835 -0.866758 -2.102104
  C 4.614991 -1.387541 -3.402720
  C 3.126876 -1.505245 -3.708484
  C 2.925339 -2.068511 -5.113217
  O 6.428251 -0.864608 -2.086363
  H 0.599525 0.525294 1.381311
  H 0.593902 -0.856974 0.278857
  H 0.578855 0.763862 -0.371390
  H 2.396853 -0.652716 -1.571604
  H 5.051370 -0.078505 -0.147737
  H 5.074540 -2.375183 -3.526702
  H 5.080162 -0.762806 -4.174322
  H 2.650408 -0.525463 -3.662260
  H 2.644846 -2.178384 -2.998822
  H 3.373914 -1.420579 -5.862489
  H 1.864446 -2.153561 -5.333975
  H 3.368488 -3.057249 -5.205431
  H 6.817485 -0.532654 -1.254754
 23
 1.116680
  C 1.030012 0.382860 0.542836
  C 2.382568 -0.152015 0.391653
  H 2.962194 -0.343467 1.285659
  C 2.944265 -0.420770 -0.836458
  C 4.324833 -0.533764 -0.995299
  C 5.071135 -0.779971 -2.148898
  C 4.625105 -1.282841 -3.473496
  C 3.159498 -1.597663 -3.737929
  C 3.006052 -2.229719 -5.119862
  O 6.372421 -0.610424 -2.117889
  H 0.807854 0.645253 1.571939
  H 0.283724 -0.332874 0.191867
  H 0.918408 1.260563 -0.096161
  H 2.290445 -0.477138 -1.691520
  H 4.908297 -0.305057 -0.107797
  H 5.219636 -2.190220 -3.656973
  H 4.983576 -0.570963 -4.222134
  H 2.566993 -0.686318 -3.717130
  H 2.781016 -2.297055 -2.988313
  H 3.364748 -1.555632 -5.900712
  H 1.962494 -2.451361 -5.319846
  H 3.563932 -3.156762 -5.187824
  H 6.732586 -0.295767 -1.266979
 23
 8.948087
  C 1.133851 0.554646 0.567768
  C 2.286480 -0.330684 0.404360
  H 2.677202 -0.837550 1.276464
  C 2.879374 -0.565638 -0.829498
  C 4.252087 -0.539134 -1.010842
  C 5.009394 -0.734386 -2.165375
  C 4.596790 -1.263289 -3.492543
  C 3.158571 -1.697199 -3.744374
  C 3.032632 -2.285739 -5.146854
  O 6.291918 -0.449968 -2.146726
  H 0.938625 0.770177 1.613270
  H 0.227460 0.125678 0.133196
  H 1.330978 1.478460 0.023894
  H 2.221905 -0.707290 -1.676405
  H 4.819590 -0.227879 -0.141588
  H 5.264201 -2.112132 -3.692335
  H 4.881561 -0.511947 -4.235917
  H 2.487148 -0.841285 -3.677523
  H 2.860648 -2.456625 -3.019481
  H 3.311946 -1.553911 -5.902947
  H 2.007774 -2.593539 -5.337566
  H 3.672187 -3.156820 -5.262636
  H 6.626610 -0.103396 -1.298075
 23
 21.553213
  C 1.283308 0.675238 0.620669
  C 2.197363 -0.445791 0.412208
  H 2.334779 -1.163583 1.209606
  C 2.846181 -0.676823 -0.823017
  C 4.188644 -0.488067 -1.024509
  C 4.958363 -0.680928 -2.176212
  C 4.577453 -1.245375 -3.497468
  C 3.164998 -1.755813 -3.752882
  C 3.069546 -2.331360 -5.165374
  O 6.224205 -0.328237 -2.162092
  H 1.074435 0.829696 1.674935
  H 0.326188 0.506855 0.117036
  H 1.710423 1.575062 0.176742
  H 2.211921 -1.004887 -1.638119
  H 4.734452 -0.085065 -0.175434
  H 5.290213 -2.055003 -3.693972
  H 4.820427 -0.479232 -4.244437
  H 2.446813 -0.939896 -3.671197
  H 2.914334 -2.544226 -3.042325
  H 3.304178 -1.574217 -5.911359
  H 2.064981 -2.694649 -5.358840
  H 3.757854 -3.161725 -5.294385
  H 6.537387 0.053399 -1.320530
 23
 23.449913
  C 1.443966 0.743131 0.699873
  C 2.105885 -0.514689 0.369762
  H 1.953847 -1.358888 1.031547
  C 2.849651 -0.753343 -0.813562
  C 4.154683 -0.390553 -1.037027
  C 4.921456 -0.611218 -2.187150
  C 4.558758 -1.223763 -3.493300
  C 3.165362 -1.781169 -3.754147
  C 3.102640 -2.374440 -5.160104
  O 6.187535 -0.248820 -2.182189
  H 1.177252 0.804243 1.751505
  H 0.511548 0.777392 0.122081
  H 2.000788 1.624932 0.378923
  H 2.312389 -1.305315 -1.575374
  H 4.665254 0.098628 -0.215996
  H 5.293658 -2.017396 -3.669965
  H 4.786213 -0.465666 -4.252412
  H 2.420480 -0.987576 -3.685899
  H 2.933484 -2.573248 -3.041774
  H 3.320134 -1.618025 -5.912360
  H 2.111287 -2.772373 -5.359004
  H 3.819408 -3.183980 -5.273026
  H 6.494284 0.164110 -1.353614
 23
 10.482488
  C 1.613292 0.797590 0.718137
  C 2.030679 -0.536746 0.300413
  H 1.595394 -1.375620 0.831166
  C 2.831426 -0.832095 -0.795882
  C 4.100490 -0.336556 -1.060546
  C 4.876284 -0.574340 -2.193364
  C 4.531366 -1.227037 -3.485464
  C 3.156428 -1.834485 -3.736441
  C 3.099069 -2.411751 -5.148335
  O 6.127299 -0.160201 -2.207899
  H 1.307878 0.827932 1.760556
  H 0.725863 1.043240 0.123033
  H 2.330329 1.579750 0.482150
  H 2.424238 -1.581523 -1.462190
  H 4.560465 0.251063 -0.273296
  H 5.295721 -1.993325 -3.658933
  H 4.725517 -0.468133 -4.254133
  H 2.381595 -1.072724 -3.643199
  H 2.963676 -2.647238 -3.035205
  H 3.275556 -1.639136 -5.892389
  H 2.120413 -2.847285 -5.339987
  H 3.846420 -3.190224 -5.280848
  H 6.422299 0.287882 -1.393274
 23
 2.936242
  C 1.800209 0.842924 0.724712
  C 1.960766 -0.520204 0.228369
  H 1.277651 -1.259175 0.625718
  C 2.810036 -0.916402 -0.780737
  C 4.036105 -0.322557 -1.090956
  C 4.834925 -0.552815 -2.209834
  C 4.509087 -1.242505 -3.485872
  C 3.158031 -1.907932 -3.707104
  C 3.070225 -2.436912 -5.136703
  O 6.052822 -0.058463 -2.241914
  H 1.507404 0.856785 1.773705
  H 0.963843 1.290181 0.176182
  H 2.658501 1.481172 0.536226
  H 2.519421 -1.798255 -1.328040
  H 4.438323 0.356581 -0.351453
  H 5.304029 -1.971482 -3.664503
  H 4.657043 -0.485028 -4.267482
  H 2.354005 -1.193839 -3.549389
  H 3.032460 -2.751483 -3.029642
  H 3.173340 -1.629425 -5.859140
  H 2.108262 -2.917321 -5.303715
  H 3.851994 -3.170635 -5.329576
  H 6.330552 0.419660 -1.437577
 23
 1.762968
  C 1.829331 0.851759 0.560801
  C 1.967848 -0.542179 0.142185
  H 1.202101 -1.223358 0.487226
  C 2.922352 -1.027434 -0.715390
  C 4.092867 -0.344843 -1.081783
  C 4.884871 -0.567087 -2.206262
  C 4.538370 -1.306414 -3.446985
  C 3.151609 -1.912230 -3.625281
  C 2.941377 -2.317526 -5.081972
  O 6.064870 0.002018 -2.297788
  H 1.706421 0.910357 1.642978
  H 0.897252 1.250166 0.151554
  H 2.645109 1.478830 0.221168
  H 2.777987 -2.024986 -1.101456
  H 4.457992 0.398846 -0.382775
  H 5.298377 -2.084068 -3.581972
  H 4.724787 -0.603344 -4.268073
  H 2.384327 -1.190386 -3.344126
  H 3.039555 -2.803100 -3.007528
  H 3.008953 -1.455304 -5.741151
  H 1.959172 -2.763420 -5.211581
  H 3.685841 -3.046243 -5.394509
  H 6.354687 0.496130 -1.507323
 23
 6.035364
  C 1.829697 0.813866 0.176253
  C 2.019903 -0.638169 0.092623
  H 1.275938 -1.277558 0.546443
  C 3.060662 -1.182492 -0.595994
  C 4.230250 -0.468356 -0.960946
  C 4.950127 -0.579376 -2.143430
  C 4.492569 -1.176336 -3.423666
  C 3.126172 -1.845994 -3.499923
  C 2.784405 -2.186000 -4.948016
  O 6.130684 -0.012298 -2.260674
  H 1.497760 1.124007 1.162509
  H 1.048058 1.114321 -0.524465
  H 2.738664 1.310579 -0.155619
  H 3.008194 -2.227778 -0.869853
  H 4.699861 0.097057 -0.163584
  H 5.266565 -1.882579 -3.744671
  H 4.540462 -0.368609 -4.163356
  H 2.356526 -1.184239 -3.099290
  H 3.120292 -2.768858 -2.920805
  H 2.749629 -1.288365 -5.560794
  H 1.812148 -2.667235 -5.003080
  H 3.520491 -2.863070 -5.374277
  H 6.484185 0.383172 -1.442040
 23
 15.697527
  C 1.880679 0.704903 -0.136742
  C 2.039456 -0.742711 0.038676
  H 1.290205 -1.313399 0.586574
  C 3.140458 -1.310716 -0.496714
  C 4.254822 -0.493277 -0.881167
  C 4.942747 -0.532270 -2.081421
  C 4.455643 -1.089622 -3.369601
  C 3.083527 -1.738238 -3.411523
  C 2.707454 -2.079100 -4.854652
  O 6.131529 0.047639 -2.202685
  H 1.487818 1.213001 0.728187
  H 1.267372 0.945128 -1.016597
  H 2.891669 1.004639 -0.494068
  H 3.207728 -2.387383 -0.641518
  H 4.811774 -0.099856 -0.046305
  H 5.211984 -1.807468 -3.722272
  H 4.508322 -0.264876 -4.087523
  H 2.337120 -1.076819 -3.000862
  H 3.074085 -2.650674 -2.822457
  H 2.673188 -1.171420 -5.462296
  H 1.725668 -2.543622 -4.880495
  H 3.415456 -2.764083 -5.299607
  H 6.511767 0.385862 -1.379639
 23
 28.451157
  C 1.970457 0.621475 -0.282978
  C 2.024402 -0.816072 -0.016486
  H 1.249684 -1.309677 0.555152
  C 3.132557 -1.414643 -0.446109
  C 4.204801 -0.494117 -0.809693
  C 4.928608 -0.508620 -2.008952
  C 4.447678 -1.057818 -3.317609
  C 3.034200 -1.656179 -3.394175
  C 2.703517 -2.042892 -4.845045
  O 6.088289 0.115168 -2.121795
  H 1.565119 1.238655 0.500041
  H 1.605086 0.911972 -1.274237
  H 3.137930 0.703291 -0.612814
  H 3.292773 -2.474721 -0.495496
  H 4.817301 -0.230753 0.067698
  H 5.187513 -1.806153 -3.652316
  H 4.533017 -0.250896 -4.034618
  H 2.296985 -0.926075 -3.053671
  H 2.943922 -2.540783 -2.768388
  H 2.731698 -1.160656 -5.496456
  H 1.698094 -2.463183 -4.906374
  H 3.395207 -2.769497 -5.225405
  H 6.446144 0.502831 -1.301901
 23
 36.310143
  C 1.885740 0.525645 -0.357081
  C 2.005798 -0.873169 -0.044715
  H 1.237255 -1.378661 0.520111
  C 3.157698 -1.448215 -0.427222
  C 4.196201 -0.435868 -0.792957
  C 4.942428 -0.492792 -2.007893
  C 4.467902 -1.056490 -3.292311
  C 3.023011 -1.535996 -3.385909
  C 2.707988 -1.971683 -4.813821
  O 6.125761 0.051749 -2.092799
  H 1.406728 1.176432 0.359499
  H 1.729491 0.823030 -1.384971
  H 3.401624 0.514740 -0.713870
  H 3.393206 -2.495530 -0.364855
  H 4.822529 -0.212153 0.075274
  H 5.142743 -1.880160 -3.553578
  H 4.651425 -0.298008 -4.061820
  H 2.339848 -0.734916 -3.107562
  H 2.854444 -2.379280 -2.718628
  H 2.840279 -1.147581 -5.511130
  H 1.678946 -2.313521 -4.887254
  H 3.356561 -2.787652 -5.123886
  H 6.478977 0.436972 -1.267654
 23
 33.189473
  C 1.723214 0.473446 -0.354991
  C 2.016774 -0.878349 -0.068628
  H 1.296967 -1.463588 0.488526
  C 3.212881 -1.393706 -0.431098
  C 4.250177 -0.377172 -0.801620
  C 5.009505 -0.512910 -2.024973
  C 4.507103 -1.094919 -3.286072
  C 3.032441 -1.465522 -3.378551
  C 2.698726 -1.942331 -4.790358
  O 6.217757 -0.054862 -2.108437
  H 1.122634 1.041772 0.336452
  H 1.696438 0.831863 -1.364939
  H 3.586468 0.549846 -0.786504
  H 3.477321 -2.435312 -0.345818
  H 4.901426 -0.194342 0.062000
  H 5.118883 -1.976411 -3.503804
  H 4.756602 -0.387458 -4.086311
  H 2.412939 -0.601747 -3.146024
  H 2.791357 -2.260055 -2.674142
  H 2.901302 -1.164506 -5.523341
  H 1.647219 -2.206107 -4.861781
  H 3.284187 -2.820001 -5.053942
  H 6.591008 0.339882 -1.294614
 23
 27.206994
  C 1.558637 0.385211 -0.354782
  C 2.035901 -0.888313 -0.084496
  H 1.397687 -1.557467 0.478793
  C 3.282592 -1.318739 -0.442030
  C 4.305536 -0.300090 -0.829288
  C 5.074609 -0.529664 -2.049652
  C 4.541495 -1.141838 -3.278639
  C 3.038141 -1.379474 -3.374458
  C 2.676588 -1.918919 -4.755558
  O 6.309381 -0.168766 -2.130707
  H 0.798191 0.818333 0.272001
  H 1.704398 0.868204 -1.304128
  H 3.720719 0.639637 -0.883179
  H 3.588839 -2.346993 -0.330173
  H 4.974065 -0.140044 0.024162
  H 5.074341 -2.090384 -3.432127
  H 4.866602 -0.513950 -4.116007
  H 2.500652 -0.446801 -3.210172
  H 2.715190 -2.096288 -2.620523
  H 2.958654 -1.216230 -5.535440
  H 1.606714 -2.087049 -4.826526
  H 3.178597 -2.863335 -4.949105
  H 6.703824 0.244808 -1.334622
 23
 24.188424
  C 1.460525 0.333224 -0.284536
  C 2.059100 -0.857209 -0.001622
  H 1.549418 -1.536221 0.668504
  C 3.294200 -1.257154 -0.477839
  C 4.301906 -0.247239 -0.896857
  C 5.113482 -0.551923 -2.075899
  C 4.579231 -1.192247 -3.286435
  C 3.063148 -1.331581 -3.406774
  C 2.692351 -1.924143 -4.766348
  O 6.367396 -0.272936 -2.115468
  H 0.596463 0.656365 0.264353
  H 1.696572 0.905081 -1.160912
  H 3.771669 0.705930 -1.030300
  H 3.593634 -2.289463 -0.419137
  H 4.939963 -0.059561 -0.019103
  H 5.063151 -2.172290 -3.405026
  H 4.952590 -0.612014 -4.138005
  H 2.587821 -0.351197 -3.305945
  H 2.673852 -1.976114 -2.628132
  H 3.037607 -1.283208 -5.582500
  H 1.619400 -2.024927 -4.852244
  H 3.132927 -2.908900 -4.895652
  H 6.750776 0.158676 -1.322119
