12

C 0.930972 0.056199 0.257957
C 2.424974 0.069179 0.08115
C 3.248696 -0.004587 1.365158
H 2.7331133226566893 -0.06634695085652198 2.300711425141346
C 3.017728 0.134968 -1.13073
H 2.5501362052144834 0.18317987886433432 -2.091944610888552
H 4.0854390163490235 0.13741853403514423 -1.2006383718153875
H 0.620663 -0.002075 1.295999
H 0.492005 -0.812258 -0.227093
H 0.488091 0.971086 -0.128228
H 3.8896 0.880588 1.418491
H 3.899155 -0.883725 1.300746
