 26
 0.000000
  C 0.965877 0.141080 0.403861
  C 2.441623 0.138113 0.395483
  C 3.232810 0.606037 1.558897
  C 2.460161 1.096122 2.778561
  H 3.141900 1.409448 3.557669
  C 3.054544 -0.327250 -0.762677
  C 4.432021 -0.411401 -0.972891
  C 5.115537 -0.861635 -2.095707
  C 4.625403 -1.384463 -3.399875
  C 3.136770 -1.502435 -3.695146
  H 2.988915 -1.901172 -4.689836
  O 6.437800 -0.854875 -2.078898
  H 0.536942 0.512212 1.327187
  H 0.592714 -0.870148 0.236709
  H 0.592179 0.754961 -0.416679
  H 3.889306 1.416062 1.222017
  H 3.889761 -0.211447 1.876296
  H 1.825925 0.304117 3.173219
  H 1.825556 1.940701 2.515393
  H 2.395585 -0.644658 -1.552315
  H 5.050351 -0.079741 -0.147022
  H 5.084782 -2.371645 -3.523785
  H 5.085270 -0.756627 -4.171435
  H 2.658311 -0.526547 -3.648118
  H 2.657855 -2.175339 -2.987116
  H 6.812991 -0.520362 -1.242733
 26
 14.348710
  C 0.942152 0.154512 0.436568
  C 2.416144 0.150827 0.427042
  C 3.208494 0.618012 1.589152
  C 2.435508 1.107836 2.808166
  H 3.123905 1.420417 3.585938
  C 3.029723 -0.315943 -0.734578
  C 4.398814 -0.397278 -0.937732
  C 5.128479 -0.891481 -2.170375
  C 4.641363 -1.406064 -3.453677
  C 3.149391 -1.515887 -3.727972
  H 2.993603 -1.915348 -4.724288
  O 6.585022 -0.878702 -2.139249
  H 0.515880 0.526005 1.360705
  H 0.568507 -0.856152 0.266760
  H 0.568256 0.766346 -0.385484
  H 3.865821 1.426973 1.251639
  H 3.866015 -0.199365 1.905306
  H 1.803362 0.318092 3.208277
  H 1.803291 1.954790 2.550593
  H 2.370742 -0.633821 -1.525560
  H 5.030434 -0.070695 -0.124530
  H 5.100665 -2.394195 -3.580852
  H 5.100936 -0.779772 -4.228364
  H 2.674149 -0.539605 -3.678643
  H 2.673962 -2.187582 -3.017888
  H 6.940112 -0.543236 -1.300962
 26
 44.425469
  C 0.934239 0.160342 0.449151
  C 2.405553 0.159037 0.447119
  C 3.193351 0.625404 1.608618
  C 2.417221 1.114088 2.824697
  H 3.118388 1.425875 3.601627
  C 3.021747 -0.304372 -0.706146
  C 4.371274 -0.375885 -0.884225
  C 5.102580 -0.914802 -2.229049
  C 4.638441 -1.424190 -3.498994
  C 3.146184 -1.529217 -3.759334
  H 2.992538 -1.931342 -4.761884
  O 6.709531 -0.879111 -2.142378
  H 0.512862 0.532195 1.374541
  H 0.559912 -0.850574 0.282153
  H 0.560220 0.774821 -0.370942
  H 3.853680 1.432365 1.273208
  H 3.853171 -0.189639 1.924776
  H 1.791578 0.327239 3.236517
  H 1.792262 1.967632 2.577725
  H 2.368064 -0.623661 -1.501462
  H 5.046370 -0.065294 -0.110585
  H 5.107783 -2.406269 -3.635859
  H 5.107424 -0.808676 -4.276728
  H 2.671720 -0.554370 -3.713486
  H 2.672406 -2.202736 -3.052515
  H 6.977502 -0.537375 -1.289428
 26
 79.011148
  C 0.935913 0.159862 0.452773
  C 2.399302 0.164645 0.462899
  C 3.176253 0.632519 1.624173
  C 2.389153 1.119724 2.835574
  H 3.072913 1.429234 3.603535
  C 3.029443 -0.298865 -0.689820
  C 4.371927 -0.363052 -0.850211
  C 5.072072 -0.937898 -2.284605
  C 4.629658 -1.435476 -3.527523
  C 3.118280 -1.526251 -3.756998
  H 2.943280 -1.920359 -4.740931
  O 6.864641 -0.894204 -2.175289
  H 0.503300 0.530159 1.373304
  H 0.569085 -0.853146 0.274192
  H 0.568172 0.766288 -0.377596
  H 3.836803 1.440779 1.290366
  H 3.837738 -0.180927 1.943191
  H 1.761727 0.329715 3.247229
  H 1.760867 1.974075 2.585337
  H 2.388237 -0.619109 -1.485969
  H 5.100636 -0.069319 -0.118536
  H 5.102703 -2.427338 -3.666129
  H 5.104037 -0.814713 -4.312445
  H 2.653909 -0.544078 -3.699305
  H 2.652639 -2.196219 -3.037488
  H 7.066162 -0.542421 -1.296761
 26
 99.770994
  C 0.888831 0.352305 0.443516
  C 2.342754 0.197952 0.424752
  C 3.178571 0.513093 1.589841
  C 2.471315 1.019108 2.838487
  H 3.205609 1.205213 3.616561
  C 2.902774 -0.270700 -0.754816
  C 4.290778 -0.397183 -0.981234
  C 4.809257 -0.868945 -2.172015
  C 4.573340 -1.417743 -3.422793
  C 3.107173 -1.717834 -3.762434
  H 3.075738 -2.136678 -4.763054
  O 7.167545 -0.636824 -2.078538
  H 0.512847 0.719833 1.389235
  H 0.407426 -0.602329 0.217365
  H 0.575240 1.033259 -0.351221
  H 3.925076 1.255509 1.283957
  H 3.753600 -0.383853 1.849350
  H 1.764305 0.287373 3.220990
  H 1.947196 1.952463 2.648786
  H 2.223298 -0.528860 -1.552019
  H 5.037196 -0.093399 -0.256072
  H 5.179992 -2.334305 -3.501505
  H 5.018001 -0.751172 -4.180267
  H 2.513600 -0.810930 -3.754499
  H 2.689148 -2.443677 -3.071354
  H 7.312461 -0.213085 -1.236632
 26
 110.087709
  C 0.835778 0.340717 0.490323
  C 2.305123 0.200075 0.425343
  C 3.181358 0.534019 1.574696
  C 2.509866 1.033740 2.844922
  H 3.266968 1.230635 3.596050
  C 2.829280 -0.267764 -0.763654
  C 4.218313 -0.424724 -1.025945
  C 4.699611 -0.873360 -2.164986
  C 4.570830 -1.417342 -3.442666
  C 3.112072 -1.732225 -3.836064
  H 3.127805 -2.160351 -4.830510
  O 7.381149 -0.637431 -1.979951
  H 0.490879 0.710630 1.447423
  H 0.356669 -0.620630 0.290124
  H 0.489849 1.016471 -0.295177
  H 3.912106 1.289723 1.261945
  H 3.777709 -0.349227 1.835667
  H 1.825699 0.293001 3.254375
  H 1.967803 1.961507 2.672289
  H 2.138753 -0.516629 -1.552510
  H 4.940916 -0.138472 -0.272784
  H 5.163362 -2.349695 -3.498586
  H 5.025602 -0.748619 -4.196022
  H 2.516588 -0.826488 -3.859818
  H 2.670053 -2.450484 -3.152222
  H 7.547296 -0.208689 -1.138389
 26
 111.063892
  C 0.781025 0.346807 0.598155
  C 2.244684 0.204551 0.441379
  C 3.181181 0.545662 1.535514
  C 2.575764 1.050974 2.838360
  H 3.371472 1.256146 3.546194
  C 2.692706 -0.266191 -0.768571
  C 4.080857 -0.456377 -1.098112
  C 4.558639 -0.894746 -2.199632
  C 4.612400 -1.432619 -3.483842
  C 3.163720 -1.756124 -3.946628
  H 3.243312 -2.190489 -4.934741
  O 7.517386 -0.627218 -1.813248
  H 0.502724 0.720404 1.570481
  H 0.291787 -0.615702 0.436432
  H 0.388783 1.021730 -0.165235
  H 3.884835 1.309229 1.188090
  H 3.788910 -0.332685 1.778343
  H 1.921491 0.310599 3.287735
  H 2.023310 1.973419 2.690082
  H 1.971197 -0.507413 -1.533337
  H 4.795209 -0.179834 -0.326423
  H 5.188850 -2.366545 -3.489594
  H 5.080619 -0.745261 -4.199089
  H 2.572501 -0.852972 -4.008951
  H 2.690754 -2.468430 -3.283317
  H 7.727092 -0.198381 -0.983457
 26
 109.418311
  C 0.734839 0.361968 0.686906
  C 2.187020 0.205001 0.452883
  C 3.188313 0.545020 1.498300
  C 2.655529 1.060905 2.826332
  H 3.488501 1.265076 3.491166
  C 2.567743 -0.271498 -0.765299
  C 3.931165 -0.485839 -1.159609
  C 4.399839 -0.927866 -2.256927
  C 4.657441 -1.446489 -3.511832
  C 3.214388 -1.775673 -4.034579
  H 3.348011 -2.207024 -5.019193
  O 7.584676 -0.593036 -1.636475
  H 0.508225 0.746463 1.676676
  H 0.232447 -0.589674 0.554074
  H 0.309054 1.026485 -0.056413
  H 3.869694 1.296227 1.098537
  H 3.793315 -0.336884 1.702561
  H 2.018213 0.326542 3.312933
  H 2.099590 1.986905 2.700852
  H 1.817409 -0.509790 -1.502056
  H 4.684918 -0.227708 -0.420764
  H 5.252900 -2.367239 -3.470563
  H 5.156808 -0.740097 -4.174965
  H 2.614200 -0.869580 -4.119202
  H 2.718888 -2.493765 -3.394393
  H 7.849008 -0.164900 -0.819780
 26
 106.179237
  C 0.706870 0.314869 0.776890
  C 2.147187 0.179732 0.472488
  C 3.195501 0.572883 1.451355
  C 2.721459 1.118647 2.791179
  H 3.584765 1.362225 3.406203
  C 2.484661 -0.323128 -0.751052
  C 3.817882 -0.520468 -1.210831
  C 4.330930 -0.968304 -2.299396
  C 4.782677 -1.463869 -3.496508
  C 3.329119 -1.684477 -4.052689
  H 3.469230 -2.099108 -5.047947
  O 7.118789 -0.656209 -1.521824
  H 0.520890 0.724706 1.760881
  H 0.218260 -0.656677 0.701322
  H 0.227098 0.950680 0.032696
  H 3.838203 1.325759 0.981148
  H 3.832649 -0.298141 1.640694
  H 2.126503 0.386141 3.331899
  H 2.136634 2.028211 2.667261
  H 1.701911 -0.599548 -1.440907
  H 4.648576 -0.253951 -0.545509
  H 5.332917 -2.400690 -3.425211
  H 5.340015 -0.752751 -4.103578
  H 2.781296 -0.751388 -4.142664
  H 2.768029 -2.398711 -3.457828
  H 7.720084 -0.322900 -0.858902
