 17
 0.000000
  H 1.433328 -0.077160 0.036121
  C 2.506491 -0.083307 0.024118
  C 3.220647 -0.594091 -0.977743
  C 4.657965 -0.604818 -0.998743
  C 5.378849 -1.120280 -2.010160
  C 6.816340 -1.130802 -2.030862
  C 7.533538 -1.641784 -3.035018
  C 9.022497 -1.662015 -3.075227
  H 3.002443 0.352427 0.878816
  H 2.711226 -1.028076 -1.828992
  H 5.162787 -0.169748 -0.145832
  H 4.874526 -1.555120 -2.863614
  H 7.323206 -0.696717 -1.178414
  H 7.033933 -2.077211 -3.890904
  H 9.456829 -1.209905 -2.185979
  H 9.380880 -1.116268 -3.948887
  H 9.381159 -2.689463 -3.149075
 17
 2.545184
  H 1.487358 0.020510 0.015496
  C 2.563180 -0.010744 0.006238
  C 3.251279 -0.546794 -1.002889
  C 4.688894 -0.610020 -1.051452
  C 5.362247 -1.249148 -2.011841
  C 6.793923 -1.319894 -1.990938
  C 7.527660 -1.784259 -2.998312
  C 8.992008 -1.596801 -3.042756
  H 3.062970 0.416658 0.861380
  H 2.726151 -0.968516 -1.850069
  H 5.213122 -0.165486 -0.218572
  H 4.843902 -1.693789 -2.848816
  H 7.285594 -0.872530 -1.137703
  H 7.059456 -2.168119 -3.892014
  H 9.378667 -1.236542 -2.097031
  H 9.136027 -0.824508 -3.788182
  H 9.523735 -2.494576 -3.333440
 17
 5.564475
  H 1.545614 0.205651 -0.108221
  C 2.618990 0.104602 -0.078824
  C 3.303274 -0.510307 -1.046716
  C 4.725852 -0.677689 -1.038122
  C 5.368639 -1.453936 -1.914245
  C 6.788841 -1.528680 -1.915342
  C 7.509494 -1.881690 -2.971227
  C 8.926570 -1.475990 -3.061067
  H 3.116774 0.526070 0.778645
  H 2.780525 -0.921817 -1.899584
  H 5.260807 -0.199225 -0.231251
  H 4.831984 -1.928803 -2.723447
  H 7.288366 -1.100879 -1.055183
  H 7.038876 -2.249810 -3.869217
  H 9.353053 -1.314384 -2.071497
  H 8.880280 -0.495731 -3.552777
  H 9.551687 -2.162345 -3.624982
 17
 8.846131
  H 1.644807 0.429342 -0.275883
  C 2.700074 0.243938 -0.201829
  C 3.345210 -0.532263 -1.069875
  C 4.765313 -0.793103 -1.019314
  C 5.372077 -1.683617 -1.806428
  C 6.794275 -1.726507 -1.841549
  C 7.480779 -1.885494 -2.960325
  C 8.842140 -1.325264 -3.056702
  H 3.216998 0.736758 0.601406
  H 2.802155 -1.003090 -1.879270
  H 5.329198 -0.258097 -0.270874
  H 4.818507 -2.214990 -2.567660
  H 7.306837 -1.353349 -0.959706
  H 6.992688 -2.187085 -3.877643
  H 9.382997 -1.411683 -2.120202
  H 8.647434 -0.264044 -3.230091
  H 9.431628 -1.747564 -3.859553
 17
 13.347684
  H 1.754000 0.562922 -0.350488
  C 2.813748 0.354269 -0.301950
  C 3.394884 -0.543068 -1.092845
  C 4.804758 -0.864833 -1.051878
  C 5.351485 -1.842251 -1.774407
  C 6.777234 -1.879705 -1.826591
  C 7.448062 -1.902675 -2.964683
  C 8.746926 -1.191563 -3.004357
  H 3.378067 0.902305 0.437589
  H 2.804821 -1.080422 -1.823112
  H 5.420915 -0.279662 -0.380376
  H 4.768412 -2.409127 -2.487232
  H 7.290922 -1.554545 -0.932625
  H 6.977426 -2.176951 -3.894290
  H 9.369738 -1.426721 -2.139790
  H 8.432172 -0.150034 -2.914934
  H 9.312278 -1.353015 -3.918329
 17
 19.560185
  H 1.897209 0.706897 -0.471106
  C 2.935533 0.433590 -0.397425
  C 3.466697 -0.535935 -1.137431
  C 4.854418 -0.927795 -1.074675
  C 5.344846 -1.983781 -1.726086
  C 6.778482 -2.029470 -1.796245
  C 7.409731 -1.912036 -2.959947
  C 8.633653 -1.065583 -2.956914
  H 3.528514 0.982720 0.315754
  H 2.843010 -1.083629 -1.841245
  H 5.486892 -0.340847 -0.424171
  H 4.739463 -2.571159 -2.395594
  H 7.302439 -1.725929 -0.897161
  H 6.928199 -2.130278 -3.900439
  H 9.342922 -1.350852 -2.183866
  H 8.179463 -0.108520 -2.674424
  H 9.138359 -1.010693 -3.915001
 17
 26.539472
  H 2.036692 0.798612 -0.515430
  C 3.076194 0.516930 -0.493930
  C 3.535684 -0.540415 -1.158132
  C 4.918433 -0.974805 -1.132583
  C 5.337426 -2.084186 -1.744611
  C 6.770296 -2.173279 -1.804716
  C 7.382766 -1.915282 -2.952240
  C 8.492901 -0.934516 -2.872637
  H 3.721191 1.106827 0.141137
  H 2.862249 -1.130128 -1.764944
  H 5.591122 -0.384740 -0.522954
  H 4.694230 -2.677170 -2.374604
  H 7.297487 -1.956175 -0.881872
  H 6.908067 -2.087292 -3.906112
  H 9.239527 -1.195561 -2.131020
  H 7.915157 -0.070249 -2.507181
  H 8.974304 -0.725193 -3.824754
 17
 34.422466
  H 2.212746 0.920198 -0.611718
  C 3.228654 0.570160 -0.569780
  C 3.620600 -0.541283 -1.188453
  C 4.985846 -1.029466 -1.187645
  C 5.340193 -2.200778 -1.739450
  C 6.780667 -2.324725 -1.811181
  C 7.338723 -1.890502 -2.943729
  C 8.330203 -0.798744 -2.783990
  H 3.921708 1.176196 -0.010001
  H 2.905535 -1.124913 -1.758473
  H 5.693867 -0.436124 -0.629124
  H 4.663596 -2.812825 -2.308090
  H 7.321934 -2.189496 -0.882175
  H 6.817062 -1.960107 -3.887206
  H 9.103218 -1.018464 -2.051799
  H 7.629518 -0.042940 -2.360889
  H 8.778514 -0.456861 -3.710138
 17
 43.741525
  H 2.374997 1.022722 -0.684227
  C 3.372294 0.618362 -0.628521
  C 3.706270 -0.525604 -1.221663
  C 5.054611 -1.067725 -1.234809
  C 5.355907 -2.268295 -1.767078
  C 6.798974 -2.434549 -1.819905
  C 7.308661 -1.877742 -2.929735
  C 8.151580 -0.679560 -2.695790
  H 4.103898 1.213416 -0.103409
  H 2.952079 -1.097347 -1.768599
  H 5.789920 -0.504581 -0.681640
  H 4.651619 -2.875512 -2.320170
  H 7.340574 -2.344280 -0.888389
  H 6.766349 -1.918428 -3.864283
  H 8.937617 -0.832429 -1.964916
  H 7.334764 -0.042961 -2.236054
  H 8.555421 -0.225765 -3.594378
 17
 54.487118
  H 2.517777 1.086931 -0.709049
  C 3.500837 0.665373 -0.673735
  C 3.798358 -0.491674 -1.270855
  C 5.117646 -1.081264 -1.277753
  C 5.384162 -2.296867 -1.808363
  C 6.820926 -2.511077 -1.818002
  C 7.297618 -1.874544 -2.914235
  C 7.962699 -0.587403 -2.621876
  H 4.237961 1.213998 -0.110494
  H 3.031671 -1.032165 -1.818276
  H 5.857606 -0.550573 -0.688570
  H 4.678054 -2.866636 -2.396060
  H 7.348174 -2.435647 -0.875385
  H 6.740747 -1.917885 -3.841750
  H 8.745600 -0.650168 -1.880945
  H 7.042874 -0.104187 -2.152763
  H 8.307072 -0.043040 -3.490845
 17
 65.961834
  H 2.618050 1.151824 -0.714406
  C 3.587214 0.699568 -0.663822
  C 3.875457 -0.436596 -1.306879
  C 5.175880 -1.072184 -1.286507
  C 5.425699 -2.284032 -1.860190
  C 6.849112 -2.554969 -1.801020
  C 7.318098 -1.888112 -2.902031
  C 7.770560 -0.522564 -2.581897
  H 4.307011 1.180253 -0.023784
  H 3.121973 -0.913046 -1.921081
  H 5.885567 -0.625921 -0.596878
  H 4.739631 -2.786737 -2.532342
  H 7.352156 -2.454382 -0.851619
  H 6.793669 -1.999515 -3.840353
  H 8.527890 -0.465653 -1.820275
  H 6.766923 -0.191048 -2.118928
  H 8.042190 0.080201 -3.435976
 17
 76.680506
  H 2.668518 1.191334 -0.724563
  C 3.617332 0.699701 -0.632316
  C 3.915403 -0.396370 -1.328594
  C 5.211671 -1.057662 -1.291272
  C 5.450860 -2.268090 -1.883279
  C 6.863887 -2.552234 -1.802062
  C 7.329107 -1.863328 -2.904687
  C 7.640803 -0.482645 -2.556005
  H 4.332730 1.157697 0.029263
  H 3.179234 -0.826277 -2.000472
  H 5.872499 -0.681041 -0.509404
  H 4.803407 -2.708615 -2.625280
  H 7.350445 -2.422898 -0.842299
  H 6.818779 -2.005950 -3.849029
  H 8.379767 -0.350208 -1.775323
  H 6.555538 -0.266750 -2.054569
  H 7.848742 0.161674 -3.395284
 17
 86.078078
  H 2.651633 1.178810 -0.708451
  C 3.607006 0.702183 -0.614635
  C 3.936149 -0.364526 -1.343924
  C 5.225406 -1.030657 -1.279518
  C 5.463096 -2.262090 -1.881895
  C 6.858231 -2.521379 -1.822210
  C 7.328437 -1.815940 -2.921741
  C 7.579857 -0.451490 -2.548249
  H 4.302066 1.157845 0.065707
  H 3.223065 -0.776755 -2.047462
  H 5.844866 -0.695932 -0.440485
  H 4.834374 -2.655024 -2.669818
  H 7.337468 -2.388236 -0.848396
  H 6.840291 -1.972536 -3.875892
  H 8.275413 -0.276799 -1.737474
  H 6.375778 -0.298764 -1.968220
  H 7.758688 0.226310 -3.368680
 17
 88.471965
  H 2.528407 1.122867 -0.633274
  C 3.506312 0.681096 -0.548507
  C 3.894619 -0.317212 -1.324341
  C 5.193352 -0.964559 -1.244660
  C 5.458833 -2.205301 -1.887534
  C 6.839216 -2.470411 -1.814633
  C 7.369049 -1.791150 -2.938124
  C 7.650090 -0.464525 -2.626643
  H 4.160666 1.111735 0.191090
  H 3.220202 -0.720761 -2.067291
  H 5.765903 -0.695411 -0.340679
  H 4.874768 -2.528397 -2.735045
  H 7.293429 -2.291305 -0.842875
  H 6.919914 -1.993631 -3.900043
  H 8.255327 -0.232135 -1.755684
  H 6.171981 -0.254117 -1.902320
  H 7.855090 0.194232 -3.461214
