 32
 0.000000
  C 0.973205 0.141446 0.392410
  C 2.451156 0.136974 0.395849
  C 3.233794 0.606168 1.567180
  C 2.454813 1.096997 2.784864
  C 3.402494 1.540791 3.894696
  C 3.073421 -0.324638 -0.755691
  C 4.451914 -0.408483 -0.973498
  C 5.121740 -0.860034 -2.101217
  C 4.621709 -1.384624 -3.403524
  C 3.130136 -1.504977 -3.694762
  C 2.902952 -2.068310 -5.094823
  O 6.447591 -0.854717 -2.096411
  H 0.537031 0.517496 1.310993
  H 0.590505 -0.867565 0.229596
  H 0.608341 0.758498 -0.430135
  H 3.891852 1.417220 1.234847
  H 3.888422 -0.211760 1.889314
  H 1.814831 0.300849 3.170540
  H 1.818434 1.941148 2.511743
  H 4.036680 0.718281 4.219397
  H 2.835537 1.887844 4.755641
  H 4.040194 2.357006 3.561087
  H 2.417600 -0.643007 -1.548435
  H 5.082076 -0.078119 -0.155090
  H 5.078149 -2.373159 -3.530022
  H 5.074609 -0.757002 -4.179759
  H 2.653391 -0.525195 -3.641165
  H 2.656971 -2.176780 -2.977155
  H 3.338496 -1.420901 -5.852865
  H 1.837108 -2.150963 -5.294697
  H 3.342051 -3.058648 -5.194486
  H 6.823515 -0.518584 -1.261303
 32
 2.067211
  C 0.945573 0.063823 0.478173
  C 2.411474 0.133994 0.410016
  C 3.238622 0.639579 1.534092
  C 2.497636 1.126625 2.775342
  C 3.486511 1.615018 3.828074
  C 2.949850 -0.350677 -0.760032
  C 4.321596 -0.475803 -0.951098
  C 5.067672 -0.921149 -2.047621
  C 4.624103 -1.401383 -3.385188
  C 3.145368 -1.469461 -3.745369
  C 2.981555 -1.991641 -5.170453
  O 6.386553 -0.945993 -1.956991
  H 0.506736 0.391291 1.415477
  H 0.731689 -0.977138 0.296159
  H 0.487528 0.622583 -0.344610
  H 3.857885 1.463935 1.165431
  H 3.932776 -0.147934 1.845101
  H 1.903060 0.317611 3.202921
  H 1.826582 1.947502 2.517045
  H 4.158760 0.815661 4.132030
  H 2.957443 1.961787 4.712063
  H 4.083059 2.441745 3.448744
  H 2.256098 -0.657373 -1.525027
  H 4.859220 -0.175135 -0.079078
  H 5.066538 -2.395839 -3.513764
  H 5.139033 -0.771617 -4.119748
  H 2.696546 -0.477514 -3.688361
  H 2.622316 -2.146307 -3.069539
  H 3.476778 -1.337511 -5.884176
  H 1.928815 -2.043350 -5.435712
  H 3.403412 -2.988849 -5.270786
  H 6.742271 -0.641501 -1.099662
 32
 6.455990
  C 0.987245 -0.189291 0.588589
  C 2.418789 0.076397 0.424689
  C 3.241132 0.707745 1.479090
  C 2.501984 1.195475 2.732605
  C 3.480493 1.847673 3.710681
  C 2.933814 -0.433231 -0.773434
  C 4.288588 -0.656653 -0.917301
  C 5.050569 -1.107392 -1.977694
  C 4.627289 -1.453347 -3.362036
  C 3.160163 -1.339458 -3.763955
  C 2.987630 -1.731173 -5.231040
  O 6.355297 -1.271776 -1.816515
  H 0.562520 0.070388 1.537968
  H 1.006384 -1.278972 0.422321
  H 0.397278 0.238580 -0.208625
  H 3.763305 1.568306 1.033618
  H 4.026157 0.010769 1.807895
  H 2.015388 0.358307 3.234025
  H 1.739794 1.926238 2.459774
  H 4.243904 1.142381 4.027619
  H 2.955925 2.192795 4.597124
  H 3.971279 2.704797 3.257694
  H 2.232450 -0.723418 -1.531295
  H 4.760827 -0.443065 0.034293
  H 4.973663 -2.477482 -3.548279
  H 5.233284 -0.831596 -4.033360
  H 2.814694 -0.313965 -3.635262
  H 2.552225 -2.009210 -3.156532
  H 3.568629 -1.079945 -5.878644
  H 1.944661 -1.653300 -5.523748
  H 3.309696 -2.755245 -5.400643
  H 6.683952 -1.055571 -0.917148
 32
 12.512331
  C 1.046419 -0.393131 0.725329
  C 2.416366 0.036706 0.448541
  C 3.238509 0.779039 1.430717
  C 2.521171 1.237217 2.696013
  C 3.473186 2.028363 3.590442
  C 2.887419 -0.470480 -0.757394
  C 4.222446 -0.792665 -0.878928
  C 4.996539 -1.265332 -1.925507
  C 4.614739 -1.500596 -3.347966
  C 3.184266 -1.236609 -3.802503
  C 3.050201 -1.517275 -5.296279
  O 6.270282 -1.549780 -1.713544
  H 0.660497 -0.173901 1.704577
  H 1.260047 -1.451859 0.590297
  H 0.336807 -0.096119 -0.043894
  H 3.649488 1.657459 0.923837
  H 4.105821 0.189838 1.740251
  H 2.151702 0.372365 3.256017
  H 1.668505 1.872984 2.436839
  H 4.324903 1.419181 3.891409
  H 2.959921 2.356047 4.492958
  H 3.847112 2.913258 3.076565
  H 2.166860 -0.744515 -1.504323
  H 4.642918 -0.656333 0.114997
  H 4.881575 -2.538869 -3.578737
  H 5.301225 -0.896276 -3.953210
  H 2.917881 -0.194865 -3.616273
  H 2.494277 -1.890366 -3.267987
  H 3.713809 -0.876923 -5.873962
  H 2.030536 -1.331940 -5.626842
  H 3.295289 -2.553343 -5.521010
  H 6.565808 -1.404226 -0.803322
 32
 17.596154
  C 1.155545 -0.661133 0.878269
  C 2.403137 -0.032203 0.469992
  C 3.200966 0.851317 1.341244
  C 2.543682 1.287130 2.650693
  C 3.446675 2.258254 3.403168
  C 2.849018 -0.513629 -0.756524
  C 4.149654 -0.953421 -0.830990
  C 4.913754 -1.471994 -1.862372
  C 4.583883 -1.562832 -3.308748
  C 3.219563 -1.093765 -3.796815
  C 3.136146 -1.214316 -5.315753
  O 6.130892 -1.936077 -1.610341
  H 0.828667 -0.459997 1.886811
  H 1.545555 -1.687701 0.774581
  H 0.347962 -0.538250 0.168177
  H 3.450779 1.744439 0.750987
  H 4.172892 0.400924 1.584593
  H 2.357072 0.421296 3.286619
  H 1.591102 1.776876 2.446628
  H 4.397834 1.796727 3.648067
  H 2.977477 2.568937 4.330386
  H 3.639684 3.147325 2.811575
  H 2.126076 -0.751986 -1.521745
  H 4.537009 -0.906993 0.186859
  H 4.737116 -2.605507 -3.606432
  H 5.365496 -1.003466 -3.835033
  H 3.059475 -0.051930 -3.517390
  H 2.433418 -1.711564 -3.361862
  H 3.895514 -0.603442 -5.796772
  H 2.164215 -0.883312 -5.669102
  H 3.277499 -2.244431 -5.631937
  H 6.398337 -1.872717 -0.679121
 32
 20.477628
  C 1.276355 -0.883604 1.063363
  C 2.316851 -0.075258 0.466994
  C 3.077686 0.960659 1.184842
  C 2.632880 1.290644 2.607145
  C 3.462870 2.436600 3.174541
  C 2.759267 -0.584284 -0.757537
  C 4.033323 -1.093199 -0.772333
  C 4.784367 -1.656437 -1.788139
  C 4.541014 -1.614295 -3.255023
  C 3.277343 -0.949547 -3.784038
  C 3.309370 -0.901438 -5.308077
  O 5.912118 -2.287888 -1.502842
  H 0.960481 -0.573349 2.051078
  H 1.838910 -1.841716 1.099010
  H 0.415692 -1.038726 0.415623
  H 3.020653 1.874529 0.571929
  H 4.144247 0.714345 1.185563
  H 2.753757 0.416291 3.250706
  H 1.581836 1.581149 2.614836
  H 4.515939 2.176516 3.206894
  H 3.144374 2.669792 4.185094
  H 3.350325 3.333120 2.572731
  H 2.046706 -0.835466 -1.521799
  H 4.400293 -1.153658 0.261515
  H 4.592856 -2.643990 -3.621288
  H 5.415334 -1.115899 -3.689481
  H 3.199433 0.067057 -3.400533
  H 2.398624 -1.517389 -3.480368
  H 4.163345 -0.328088 -5.661393
  H 2.406668 -0.433183 -5.691687
  H 3.374860 -1.902785 -5.726785
  H 6.123635 -2.317919 -0.553578
 32
 25.706937
  C 1.350001 -0.987222 1.187398
  C 2.237408 -0.077191 0.458052
  C 2.968751 1.032211 1.091531
  C 2.731731 1.281311 2.579165
  C 3.502733 2.507078 3.042073
  C 2.653907 -0.586575 -0.786809
  C 3.927597 -1.138161 -0.763326
  C 4.695283 -1.728153 -1.748753
  C 4.530235 -1.632183 -3.227558
  C 3.329380 -0.880675 -3.790473
  C 3.454416 -0.745625 -5.308480
  O 5.760748 -2.439409 -1.419223
  H 1.036443 -0.648841 2.161175
  H 2.097198 -1.828650 1.259329
  H 0.502124 -1.345583 0.609535
  H 2.689593 1.939125 0.535637
  H 4.041786 0.925690 0.896731
  H 3.059531 0.418310 3.157763
  H 1.672367 1.442143 2.772401
  H 4.570204 2.377764 2.887576
  H 3.335242 2.681287 4.100117
  H 3.183776 3.393569 2.501703
  H 1.924299 -0.816104 -1.554201
  H 4.234741 -1.216245 0.286528
  H 4.546943 -2.651353 -3.624308
  H 5.449376 -1.167699 -3.603141
  H 3.269738 0.117868 -3.349391
  H 2.407911 -1.426094 -3.569955
  H 4.351306 -0.188930 -5.577679
  H 2.594123 -0.217483 -5.715351
  H 3.505740 -1.724784 -5.782913
  H 5.917599 -2.501472 -0.460896
 32
 32.274371
  C 1.448226 -1.050092 1.224684
  C 2.164326 -0.072744 0.431526
  C 2.880623 1.076345 1.004856
  C 2.810726 1.276928 2.519367
  C 3.556967 2.542625 2.923998
  C 2.568129 -0.595623 -0.820839
  C 3.823047 -1.168473 -0.742044
  C 4.623799 -1.759521 -1.702359
  C 4.524846 -1.619650 -3.179735
  C 3.358701 -0.832123 -3.758020
  C 3.549692 -0.629916 -5.259669
  O 5.662102 -2.498514 -1.343434
  H 1.137733 -0.722024 2.203643
  H 2.306245 -1.785137 1.281475
  H 0.634397 -1.544565 0.699626
  H 2.462284 1.966927 0.515021
  H 3.926782 1.058046 0.669829
  H 3.258925 0.424755 3.028764
  H 1.777342 1.363536 2.842322
  H 4.603669 2.487250 2.636469
  H 3.510915 2.681304 4.001396
  H 3.118510 3.420095 2.453799
  H 1.854273 -0.810883 -1.600210
  H 4.075903 -1.268669 0.330323
  H 4.540852 -2.625143 -3.606848
  H 5.464000 -1.158806 -3.503362
  H 3.288289 0.141405 -3.275390
  H 2.427906 -1.374014 -3.601223
  H 4.461659 -0.069837 -5.464780
  H 2.710810 -0.075618 -5.678966
  H 3.614317 -1.586774 -5.774817
  H 5.782917 -2.571050 -0.381053
 32
 38.626836
  C 1.570785 -1.105347 1.281144
  C 2.125928 -0.074879 0.434052
  C 2.801828 1.119424 0.951205
  C 2.881293 1.288661 2.473334
  C 3.579535 2.594382 2.828097
  C 2.510510 -0.602349 -0.827528
  C 3.741615 -1.201982 -0.729462
  C 4.558147 -1.792148 -1.677211
  C 4.513822 -1.613342 -3.156038
  C 3.393529 -0.774125 -3.754919
  C 3.650873 -0.532011 -5.237748
  O 5.554462 -2.579420 -1.303332
  H 1.273632 -0.799122 2.272474
  H 2.512792 -1.734795 1.290593
  H 0.795791 -1.704428 0.803603
  H 2.255343 1.980748 0.537380
  H 3.798517 1.193897 0.499762
  H 3.437840 0.460013 2.909640
  H 1.884711 1.296559 2.907602
  H 4.587534 2.618064 2.427538
  H 3.643303 2.708138 3.904282
  H 3.035139 3.445876 2.433360
  H 1.802409 -0.786156 -1.616090
  H 3.958649 -1.320720 0.349478
  H 4.512107 -2.608989 -3.606824
  H 5.479367 -1.174666 -3.437168
  H 3.331131 0.185144 -3.245400
  H 2.443043 -1.292661 -3.651979
  H 4.580906 0.006479 -5.387265
  H 2.848572 0.054913 -5.670753
  H 3.711156 -1.470932 -5.778208
  H 5.645488 -2.677479 -0.339538
 32
 45.771632
  C 1.691990 -1.149699 1.329912
  C 2.122797 -0.097581 0.447109
  C 2.762823 1.139961 0.913831
  C 2.917712 1.331008 2.428940
  C 3.576310 2.669245 2.732255
  C 2.486142 -0.634663 -0.823417
  C 3.703246 -1.256878 -0.727640
  C 4.522897 -1.839251 -1.677165
  C 4.513964 -1.605283 -3.147422
  C 3.426907 -0.714378 -3.733764
  C 3.719459 -0.419723 -5.200687
  O 5.487807 -2.673131 -1.312773
  H 1.445500 -0.860444 2.342307
  H 2.691944 -1.728586 1.260548
  H 0.930841 -1.803876 0.906588
  H 2.146767 1.968969 0.524924
  H 3.725321 1.259991 0.406551
  H 3.532407 0.534079 2.840990
  H 1.946019 1.300505 2.916880
  H 4.560582 2.732007 2.274362
  H 3.694974 2.797635 3.803661
  H 2.973204 3.492867 2.360742
  H 1.771702 -0.800406 -1.613332
  H 3.895922 -1.402614 0.371695
  H 4.494096 -2.583787 -3.634157
  H 5.495900 -1.183136 -3.395089
  H 3.377158 0.225695 -3.186711
  H 2.461598 -1.212267 -3.669401
  H 4.665223 0.101457 -5.310664
  H 2.940199 0.203439 -5.624652
  H 3.768242 -1.339146 -5.778371
  H 5.555851 -2.810806 -0.353555
 32
 53.038841
  C 1.814339 -1.189859 1.391959
  C 2.132028 -0.141200 0.472285
  C 2.729231 1.140923 0.872138
  C 2.946129 1.383045 2.372391
  C 3.559982 2.757089 2.607363
  C 2.475513 -0.694812 -0.804081
  C 3.686920 -1.325515 -0.726378
  C 4.504711 -1.892575 -1.685258
  C 4.522993 -1.588929 -3.144252
  C 3.464413 -0.642377 -3.693686
  C 3.779221 -0.277595 -5.140325
  O 5.432210 -2.779412 -1.348421
  H 1.620468 -0.901968 2.414824
  H 2.864558 -1.732071 1.243877
  H 1.076063 -1.901829 1.028155
  H 2.055562 1.928528 0.490531
  H 3.661882 1.289332 0.315000
  H 3.613336 0.626106 2.776358
  H 2.000363 1.326321 2.905616
  H 4.516982 2.847201 2.101476
  H 3.723463 2.921913 3.668679
  H 2.904636 3.544302 2.242623
  H 1.750870 -0.850565 -1.589255
  H 3.868538 -1.493288 0.396264
  H 4.481001 -2.543062 -3.677005
  H 5.516876 -1.182719 -3.362314
  H 3.430286 0.268050 -3.097816
  H 2.486006 -1.119395 -3.663895
  H 4.739161 0.226585 -5.213771
  H 3.017535 0.386511 -5.538942
  H 3.812890 -1.165697 -5.764588
  H 5.473086 -2.971475 -0.397676
 32
 59.839944
  C 1.948429 -1.221394 1.466758
  C 2.160280 -0.195813 0.507052
  C 2.699782 1.136650 0.830886
  C 2.965507 1.444390 2.309124
  C 3.518958 2.853472 2.469622
  C 2.478916 -0.770700 -0.773996
  C 3.687327 -1.404385 -0.735509
  C 4.494818 -1.953595 -1.709712
  C 4.533967 -1.568948 -3.149171
  C 3.500574 -0.566143 -3.643702
  C 3.831634 -0.118232 -5.064695
  O 5.394402 -2.886625 -1.413623
  H 1.814478 -0.921392 2.495893
  H 3.045220 -1.740966 1.235451
  H 1.242514 -1.992466 1.170909
  H 1.970350 1.869738 0.452867
  H 3.599770 1.311359 0.229594
  H 3.687424 0.735027 2.710718
  H 2.048100 1.361689 2.881933
  H 4.450336 2.971065 1.918663
  H 3.717978 3.064688 3.516102
  H 2.811389 3.593646 2.106920
  H 1.742319 -0.911791 -1.546717
  H 3.877761 -1.586346 0.412941
  H 4.468845 -2.487336 -3.733739
  H 5.539135 -1.176782 -3.339226
  H 3.482132 0.306833 -2.990442
  H 2.511748 -1.021219 -3.646537
  H 4.801343 0.367544 -5.102328
  H 3.089227 0.583818 -5.423254
  H 3.849699 -0.966802 -5.743879
  H 5.418697 -3.131900 -0.474701
 32
 68.970577
  C 2.036646 -1.220961 1.507688
  C 2.201895 -0.210803 0.531471
  C 2.697349 1.146179 0.826694
  C 2.973707 1.485140 2.297292
  C 3.477575 2.915369 2.429123
  C 2.514345 -0.791805 -0.761390
  C 3.730559 -1.412010 -0.758211
  C 4.526899 -1.945420 -1.747516
  C 4.555522 -1.530452 -3.180183
  C 3.511533 -0.528718 -3.648750
  C 3.831282 -0.049561 -5.059830
  O 5.451329 -2.860654 -1.471681
  H 1.912902 -0.912285 2.536468
  H 3.237827 -1.744825 1.239594
  H 1.356224 -2.023176 1.235978
  H 1.936421 1.846617 0.449600
  H 3.581403 1.343916 0.209539
  H 3.726542 0.809077 2.697513
  H 2.065239 1.377296 2.887182
  H 4.394751 3.058331 1.862841
  H 3.684353 3.149212 3.469695
  H 2.737640 3.624339 2.066529
  H 1.763571 -0.943746 -1.520171
  H 3.968926 -1.593809 0.474829
  H 4.495518 -2.439055 -3.783381
  H 5.556478 -1.124839 -3.367756
  H 3.487789 0.329357 -2.978759
  H 2.527706 -0.992940 -3.656599
  H 4.797448 0.446882 -5.091635
  H 3.078423 0.654157 -5.401441
  H 3.854393 -0.884333 -5.756153
  H 5.498399 -3.106875 -0.533484
 32
 74.285006
  C 2.140052 -1.223775 1.568760
  C 2.257267 -0.262693 0.573789
  C 2.695762 1.134597 0.802410
  C 2.972783 1.541334 2.253823
  C 3.414357 2.995094 2.324588
  C 2.557280 -0.854519 -0.713466
  C 3.770613 -1.452612 -0.781122
  C 4.557804 -1.961527 -1.781526
  C 4.578260 -1.480246 -3.196696
  C 3.525703 -0.466512 -3.610138
  C 3.828983 0.078230 -5.000349
  O 5.499766 -2.874810 -1.546911
  H 2.056581 -0.895897 2.593304
  H 3.435610 -1.762070 1.227976
  H 1.521375 -2.086328 1.351799
  H 1.901819 1.784408 0.408931
  H 3.567821 1.344023 0.169225
  H 3.757784 0.915299 2.669560
  H 2.074562 1.416473 2.858219
  H 4.318763 3.155481 1.741574
  H 3.621598 3.278168 3.353385
  H 2.639891 3.656269 1.943611
  H 1.783589 -1.015339 -1.447552
  H 4.065859 -1.638941 0.482759
  H 4.515770 -2.362550 -3.836830
  H 5.574459 -1.062235 -3.372607
  H 3.502034 0.360077 -2.901282
  H 2.544195 -0.936217 -3.629171
  H 4.793078 0.582986 -5.018181
  H 3.067071 0.792413 -5.302696
  H 3.850989 -0.725524 -5.735681
  H 5.559368 -3.149718 -0.618367
