 23
 0.000000
  C 0.981168 0.148593 0.422157
  C 2.457358 0.137581 0.394076
  C 3.239486 0.603687 1.552837
  H 2.639497 0.939877 2.389365
  C 3.056746 -0.330302 -0.770036
  C 4.433054 -0.414515 -0.980416
  C 5.118544 -0.864867 -2.103823
  C 4.626685 -1.387407 -3.407436
  C 3.138068 -1.503808 -3.698451
  H 2.998139 -1.903868 -4.696614
  O 6.439202 -0.857617 -2.086101
  H 0.560112 0.521968 1.350928
  H 0.600903 -0.860447 0.255888
  H 0.600490 0.761529 -0.396275
  H 3.892920 1.422267 1.244064
  H 3.893310 -0.200489 1.896593
  H 2.391759 -0.645839 -1.554888
  H 5.055718 -0.083901 -0.157269
  H 5.088407 -2.373542 -3.531221
  H 5.088753 -0.760080 -4.178134
  H 2.656435 -0.530079 -3.657133
  H 2.656171 -2.179321 -2.996105
  H 6.822285 -0.524462 -1.252951
 23
 3.479444
  C 0.962258 0.156630 0.442594
  C 2.421290 0.131919 0.380491
  C 3.220317 0.595737 1.532109
  H 2.596714 0.926749 2.355048
  C 3.024661 -0.334216 -0.778244
  C 4.410701 -0.414547 -0.979343
  C 5.118708 -0.865529 -2.105087
  C 4.642389 -1.390668 -3.416186
  C 3.159088 -1.513495 -3.723147
  H 3.050927 -1.915780 -4.727914
  O 6.439542 -0.852361 -2.072789
  H 0.830028 0.551195 1.423107
  H 0.514298 -0.838093 0.325805
  H 0.513980 0.793012 -0.330598
  H 3.871420 1.418335 1.237788
  H 3.872006 -0.200894 1.889632
  H 2.360560 -0.649554 -1.561756
  H 5.036219 -0.083461 -0.155582
  H 5.115860 -2.372060 -3.533200
  H 5.116082 -0.761584 -4.178401
  H 2.665796 -0.545935 -3.701721
  H 2.665761 -2.198905 -3.039936
  H 6.827060 -0.520848 -1.241965
 23
 13.067656
  C 0.940475 0.145943 0.415471
  C 2.402221 0.123663 0.360511
  C 3.208125 0.582407 1.498762
  H 2.607982 0.920997 2.339853
  C 3.026865 -0.336879 -0.783321
  C 4.405592 -0.412014 -0.972254
  C 5.114243 -0.858905 -2.088636
  C 4.639594 -1.383168 -3.398095
  C 3.154310 -1.505421 -3.702695
  H 3.044782 -1.906109 -4.704318
  O 6.437445 -0.844099 -2.052986
  H 1.012841 0.531715 1.374133
  H 0.483074 -0.813008 0.341440
  H 0.483431 0.786576 -0.302215
  H 3.858459 1.402949 1.193752
  H 3.859022 -0.220098 1.847578
  H 2.371255 -0.656930 -1.577477
  H 5.024618 -0.080023 -0.147008
  H 5.113805 -2.364818 -3.516304
  H 5.113457 -0.754149 -4.161102
  H 2.661350 -0.536973 -3.682972
  H 2.661975 -2.193204 -3.020605
  H 6.824261 -0.509837 -1.213794
 23
 26.069864
  C 0.902039 0.148407 0.418128
  C 2.378995 0.127700 0.369993
  C 3.203285 0.584424 1.507151
  H 2.624346 0.928145 2.362193
  C 3.019776 -0.333743 -0.777536
  C 4.400353 -0.409574 -0.967802
  C 5.113861 -0.858065 -2.088600
  C 4.649739 -1.384348 -3.401550
  C 3.169312 -1.514638 -3.721777
  H 3.073685 -1.917006 -4.725550
  O 6.425500 -0.841403 -2.048732
  H 1.155958 0.526397 1.360895
  H 0.427639 -0.816112 0.372993
  H 0.429520 0.815509 -0.281378
  H 3.854157 1.402196 1.193472
  H 3.853624 -0.223416 1.846640
  H 2.369051 -0.652795 -1.570713
  H 5.021214 -0.078053 -0.142321
  H 5.129481 -2.363903 -3.514861
  H 5.126621 -0.752835 -4.160568
  H 2.670967 -0.549108 -3.709125
  H 2.673064 -2.205034 -3.045420
  H 6.802285 -0.511138 -1.220905
 23
 40.382763
  C 0.892383 0.140989 0.399407
  C 2.369688 0.131468 0.379279
  C 3.198395 0.593256 1.529589
  H 2.625358 0.937041 2.385352
  C 3.037350 -0.336933 -0.785831
  C 4.396550 -0.409604 -0.968672
  C 5.108486 -0.855184 -2.081817
  C 4.643860 -1.383837 -3.400079
  C 3.163119 -1.515148 -3.722814
  H 3.069476 -1.916958 -4.723819
  O 6.421715 -0.837004 -2.037628
  H 1.257493 0.503541 1.304384
  H 0.425964 -0.823831 0.367613
  H 0.427709 0.817859 -0.290006
  H 3.848408 1.411453 1.215210
  H 3.847882 -0.215390 1.868527
  H 2.395588 -0.658171 -1.584081
  H 5.012910 -0.078982 -0.145296
  H 5.124622 -2.363843 -3.513808
  H 5.123057 -0.752169 -4.160411
  H 2.663863 -0.550057 -3.711706
  H 2.665975 -2.205747 -3.047212
  H 6.793389 -0.509320 -1.216525
 23
 52.950345
  C 0.856451 0.135621 0.384003
  C 2.365040 0.128122 0.373663
  C 3.205502 0.585471 1.510054
  H 2.642075 0.933899 2.374166
  C 3.018449 -0.334301 -0.773679
  C 4.402362 -0.407905 -0.961690
  C 5.114120 -0.854104 -2.078402
  C 4.647212 -1.378127 -3.386331
  C 3.165162 -1.507118 -3.702220
  H 3.065777 -1.909192 -4.705675
  O 6.433739 -0.836966 -2.040056
  H 1.343787 0.491126 1.275565
  H 0.397974 -0.835216 0.355558
  H 0.400231 0.822719 -0.304087
  H 3.856676 1.399825 1.186735
  H 3.855354 -0.226560 1.841643
  H 2.367682 -0.656892 -1.574409
  H 5.024026 -0.075702 -0.137725
  H 5.126335 -2.358025 -3.501235
  H 5.123574 -0.746383 -4.146203
  H 2.666861 -0.541198 -3.687015
  H 2.669680 -2.196788 -3.023917
  H 6.812772 -0.508896 -1.218457
 23
 64.737826
  C 0.845454 0.142921 0.365249
  C 2.369039 0.119371 0.379040
  C 3.213452 0.587516 1.521116
  H 2.645610 0.952471 2.386287
  C 3.016721 -0.354687 -0.759310
  C 4.406426 -0.411797 -0.954927
  C 5.112851 -0.845261 -2.070772
  C 4.644096 -1.374629 -3.390536
  C 3.162063 -1.515285 -3.706653
  H 3.065007 -1.918596 -4.719250
  O 6.429231 -0.821432 -2.032203
  H 1.406206 0.466153 1.225142
  H 0.396002 -0.829295 0.321835
  H 0.397687 0.864485 -0.287171
  H 3.872959 1.392933 1.193119
  H 3.850792 -0.229396 1.862166
  H 2.375116 -0.681728 -1.549947
  H 5.023723 -0.074796 -0.138938
  H 5.131664 -2.351514 -3.509651
  H 5.114113 -0.737753 -4.149688
  H 2.657166 -0.556643 -3.689579
  H 2.674075 -2.209666 -3.032696
  H 6.806721 -0.490521 -1.204284
 23
 71.642102
  C 0.843501 0.141234 0.308067
  C 2.385702 0.106624 0.375994
  C 3.227376 0.598204 1.535508
  H 2.652100 0.972061 2.379431
  C 3.019303 -0.385345 -0.753027
  C 4.408567 -0.422401 -0.951451
  C 5.106993 -0.842834 -2.070848
  C 4.635441 -1.367916 -3.383294
  C 3.155117 -1.514833 -3.680762
  H 3.049722 -1.906824 -4.680892
  O 6.431650 -0.812643 -2.047635
  H 1.454391 0.434824 1.176324
  H 0.419682 -0.841990 0.204701
  H 0.375123 0.911883 -0.272733
  H 3.903979 1.398467 1.217817
  H 3.846321 -0.230688 1.893150
  H 2.377992 -0.731610 -1.550907
  H 5.031383 -0.069888 -0.127037
  H 5.124957 -2.337241 -3.511349
  H 5.092941 -0.722719 -4.141373
  H 2.643865 -0.555870 -3.649703
  H 2.678597 -2.219245 -3.003332
  H 6.814120 -0.479380 -1.216758
 23
 75.899162
  C 0.843711 0.135020 0.282412
  C 2.402093 0.098808 0.391493
  C 3.237774 0.612459 1.541694
  H 2.658872 0.993897 2.367715
  C 3.020412 -0.406118 -0.738962
  C 4.413185 -0.430035 -0.948233
  C 5.102219 -0.841170 -2.061365
  C 4.636099 -1.364489 -3.378793
  C 3.145176 -1.514203 -3.687343
  H 3.045437 -1.907747 -4.697488
  O 6.435417 -0.808977 -2.040869
  H 1.495177 0.396133 1.154162
  H 0.436795 -0.849054 0.125577
  H 0.356916 0.950312 -0.222036
  H 3.908282 1.408697 1.216004
  H 3.851000 -0.205501 1.912224
  H 2.385540 -0.765857 -1.522661
  H 5.033974 -0.076339 -0.131180
  H 5.129494 -2.336630 -3.504965
  H 5.098573 -0.712704 -4.133688
  H 2.628800 -0.550186 -3.657489
  H 2.663487 -2.225226 -3.011623
  H 6.815622 -0.474426 -1.207992
 23
 78.865198
  C 0.836294 0.124101 0.249665
  C 2.412030 0.084999 0.399262
  C 3.250934 0.626294 1.546928
  H 2.662004 1.023908 2.374270
  C 3.023295 -0.426972 -0.723574
  C 4.414600 -0.429336 -0.941220
  C 5.102641 -0.836638 -2.062808
  C 4.631258 -1.361963 -3.380165
  C 3.149968 -1.504323 -3.681211
  H 3.045556 -1.901608 -4.685892
  O 6.430875 -0.813387 -2.046319
  H 1.521438 0.347253 1.130083
  H 0.436887 -0.848872 0.044121
  H 0.350380 0.974940 -0.182461
  H 3.915926 1.422833 1.205591
  H 3.870240 -0.184721 1.933068
  H 2.387275 -0.806806 -1.504058
  H 5.033704 -0.072733 -0.124366
  H 5.118016 -2.333563 -3.505403
  H 5.090754 -0.716391 -4.135154
  H 2.642822 -0.544513 -3.655323
  H 2.671281 -2.204802 -3.004548
  H 6.811902 -0.480677 -1.216146
 23
 81.114679
  C 0.838303 0.126447 0.216575
  C 2.420901 0.075375 0.405199
  C 3.255801 0.631581 1.548599
  H 2.662241 1.033077 2.365563
  C 3.030241 -0.439637 -0.716868
  C 4.425276 -0.434593 -0.936433
  C 5.108517 -0.834935 -2.056091
  C 4.630139 -1.360117 -3.378205
  C 3.141327 -1.507117 -3.671688
  H 3.030934 -1.901651 -4.678660
  O 6.437435 -0.801724 -2.046309
  H 1.549989 0.298732 1.113492
  H 0.437253 -0.834202 -0.042430
  H 0.357303 1.015295 -0.143777
  H 3.914985 1.427136 1.199721
  H 3.877414 -0.172684 1.944998
  H 2.396427 -0.828585 -1.493413
  H 5.045097 -0.072305 -0.118832
  H 5.119372 -2.331798 -3.510084
  H 5.083536 -0.708730 -4.134949
  H 2.629567 -0.545256 -3.637985
  H 2.667652 -2.214566 -2.992977
  H 6.820642 -0.464234 -1.214546
 23
 82.698570
  C 0.834270 0.141522 0.188425
  C 2.423323 0.064713 0.408358
  C 3.260037 0.633992 1.551258
  H 2.662234 1.043832 2.362314
  C 3.030612 -0.455521 -0.713585
  C 4.423510 -0.453372 -0.934810
  C 5.106337 -0.848140 -2.060129
  C 4.629824 -1.357374 -3.370614
  C 3.152165 -1.512498 -3.654182
  H 3.039528 -1.894581 -4.668720
  O 6.439313 -0.789447 -2.068818
  H 1.571736 0.255281 1.100997
  H 0.424498 -0.797039 -0.117746
  H 0.362414 1.058183 -0.097863
  H 3.920762 1.428623 1.194461
  H 3.877238 -0.163888 1.955137
  H 2.404129 -0.844044 -1.477716
  H 5.039869 -0.085205 -0.128588
  H 5.122625 -2.316880 -3.514046
  H 5.069936 -0.697486 -4.116798
  H 2.634345 -0.558703 -3.602909
  H 2.692169 -2.231165 -2.985283
  H 6.825812 -0.442471 -1.245566
 23
 83.927272
  C 0.830323 0.157716 0.168762
  C 2.429470 0.060699 0.415781
  C 3.270296 0.640854 1.555672
  H 2.671777 1.053504 2.366007
  C 3.036950 -0.457364 -0.705933
  C 4.427063 -0.457652 -0.922151
  C 5.113361 -0.850542 -2.050746
  C 4.636335 -1.360568 -3.377075
  C 3.148024 -1.524904 -3.662699
  H 3.036113 -1.899678 -4.680344
  O 6.436952 -0.772402 -2.061304
  H 1.593100 0.211649 1.100105
  H 0.416817 -0.762357 -0.180923
  H 0.364434 1.095830 -0.041023
  H 3.924668 1.434378 1.193655
  H 3.891221 -0.153036 1.961474
  H 2.402639 -0.855025 -1.480808
  H 5.044724 -0.082566 -0.112606
  H 5.139065 -2.324459 -3.527473
  H 5.074784 -0.688306 -4.124047
  H 2.622621 -0.573487 -3.602673
  H 2.691928 -2.254174 -2.997325
  H 6.817813 -0.418791 -1.238059
 23
 84.960526
  C 0.835117 0.158866 0.157986
  C 2.433168 0.051580 0.424347
  C 3.272770 0.656534 1.551971
  H 2.671754 1.075928 2.358995
  C 3.037748 -0.473688 -0.700698
  C 4.424251 -0.459215 -0.927070
  C 5.107809 -0.848784 -2.053918
  C 4.636483 -1.359079 -3.375038
  C 3.155775 -1.512716 -3.670304
  H 3.049175 -1.897797 -4.691273
  O 6.438869 -0.781640 -2.059075
  H 1.617853 0.165726 1.103017
  H 0.419002 -0.751220 -0.217986
  H 0.366669 1.107451 0.014645
  H 3.919323 1.454283 1.175008
  H 3.902328 -0.126456 1.965290
  H 2.402907 -0.880944 -1.466981
  H 5.045608 -0.082180 -0.119833
  H 5.130663 -2.320910 -3.517068
  H 5.082274 -0.698339 -4.116716
  H 2.637049 -0.555239 -3.622757
  H 2.689154 -2.231986 -3.002515
  H 6.819530 -0.430844 -1.234503
