 23
 0.000000
  C 0.976371 0.151554 0.429656
  C 2.450501 0.134934 0.387729
  C 3.231148 0.602064 1.548934
  H 2.624872 0.936461 2.381003
  C 3.052630 -0.332275 -0.774634
  C 4.429542 -0.415029 -0.981494
  C 5.118390 -0.864665 -2.103241
  C 4.629944 -1.387687 -3.408171
  C 3.142131 -1.505359 -3.702305
  H 3.006850 -1.905460 -4.700700
  O 6.438969 -0.856045 -2.082146
  H 0.585695 0.529413 1.369280
  H 0.585529 -0.854372 0.270360
  H 0.585176 0.766976 -0.381692
  H 3.883968 1.422548 1.244291
  H 3.884381 -0.200595 1.897018
  H 2.389273 -0.648368 -1.560790
  H 5.050862 -0.084040 -0.157496
  H 5.093437 -2.373143 -3.530767
  H 5.093749 -0.759938 -4.177507
  H 2.658690 -0.532418 -3.663348
  H 2.658478 -2.182035 -3.002269
  H 6.821109 -0.522815 -1.248604
 23
 -0.233599
  C 0.993145 0.271810 0.399794
  C 2.462689 0.143273 0.373279
  C 3.231811 0.512472 1.576382
  H 2.591903 0.558242 2.452706
  C 3.053453 -0.319243 -0.796435
  C 4.428645 -0.405811 -0.998252
  C 5.120334 -0.849901 -2.118952
  C 4.628509 -1.406092 -3.408583
  C 3.141176 -1.564815 -3.676520
  H 3.018071 -2.006433 -4.662531
  O 6.437449 -0.811995 -2.108585
  H 0.633585 0.710159 1.325042
  H 0.532767 -0.710193 0.275154
  H 0.644572 0.869030 -0.443385
  H 3.665986 1.505547 1.437297
  H 4.052910 -0.174328 1.766670
  H 2.385247 -0.600259 -1.591557
  H 5.055965 -0.066726 -0.182630
  H 5.118874 -2.380350 -3.516732
  H 5.073088 -0.784126 -4.193671
  H 2.631935 -0.605518 -3.684289
  H 2.675430 -2.233119 -2.958137
  H 6.831931 -0.458235 -1.289621
 23
 0.363843
  C 1.020355 0.431413 0.356015
  C 2.478136 0.192561 0.359671
  C 3.210599 0.378723 1.624343
  H 2.566385 0.148889 2.469708
  C 3.057246 -0.310542 -0.798864
  C 4.431819 -0.354338 -1.026009
  C 5.121074 -0.818030 -2.142691
  C 4.626511 -1.443446 -3.400267
  C 3.141178 -1.669768 -3.628955
  H 3.015163 -2.152324 -4.595365
  O 6.437218 -0.728636 -2.161263
  H 0.672368 0.852846 1.293692
  H 0.492453 -0.505849 0.173698
  H 0.743534 1.096804 -0.462011
  H 3.497146 1.428307 1.732437
  H 4.112504 -0.222786 1.679533
  H 2.383498 -0.629666 -1.574765
  H 5.057976 0.051280 -0.239668
  H 5.152087 -2.401932 -3.480096
  H 5.030236 -0.835960 -4.217943
  H 2.594591 -0.731800 -3.661660
  H 2.717660 -2.328964 -2.876859
  H 6.831827 -0.325452 -1.365574
 23
 2.267534
  C 1.092252 0.674786 0.300332
  C 2.516141 0.268183 0.341886
  C 3.169423 0.220663 1.657109
  H 2.501914 -0.266608 2.365356
  C 3.069174 -0.266978 -0.810128
  C 4.435972 -0.306810 -1.058226
  C 5.112554 -0.784238 -2.180731
  C 4.607173 -1.483536 -3.394343
  C 3.134194 -1.824866 -3.538241
  H 2.999744 -2.358956 -4.475451
  O 6.419804 -0.624982 -2.254235
  H 0.759411 1.078995 1.251205
  H 0.470277 -0.184163 0.046150
  H 0.928178 1.415850 -0.481888
  H 3.320948 1.232035 2.043370
  H 4.123206 -0.294937 1.640317
  H 2.383155 -0.616058 -1.560838
  H 5.065832 0.153469 -0.305125
  H 5.199641 -2.400351 -3.475234
  H 4.920376 -0.871313 -4.247846
  H 2.519986 -0.932100 -3.587614
  H 2.795779 -2.477376 -2.738650
  H 6.826951 -0.223717 -1.465914
 23
 8.258910
  C 1.145366 0.718432 0.256088
  C 2.590741 0.353133 0.349380
  C 3.122379 0.196903 1.708768
  H 2.339511 -0.183540 2.359086
  C 3.110632 -0.272958 -0.786402
  C 4.465170 -0.246006 -1.106038
  C 5.118191 -0.786550 -2.209754
  C 4.578858 -1.502609 -3.398467
  C 3.099263 -1.838538 -3.491488
  H 2.942077 -2.422216 -4.395250
  O 6.430091 -0.674395 -2.296335
  H 0.766721 1.099450 1.197777
  H 0.563756 -0.151435 -0.032840
  H 1.005241 1.481683 -0.506955
  H 3.404807 1.171577 2.128980
  H 3.990634 -0.451848 1.741086
  H 2.415360 -0.735411 -1.465563
  H 5.104038 0.272338 -0.398282
  H 5.159691 -2.426378 -3.470023
  H 4.871098 -0.904141 -4.272452
  H 2.495735 -0.946932 -3.589891
  H 2.769814 -2.443230 -2.651352
  H 6.846412 -0.168790 -1.569390
 23
 27.312942
  C 1.349308 0.790414 0.145820
  C 2.823273 0.364383 0.461860
  C 2.886929 0.116074 1.900824
  H 1.926552 -0.197099 2.297874
  C 3.264556 -0.258258 -0.711363
  C 4.577205 -0.186156 -1.166394
  C 5.125513 -0.717610 -2.326491
  C 4.507122 -1.544662 -3.410144
  C 3.030509 -1.907321 -3.389816
  H 2.794409 -2.447589 -4.302961
  O 6.417695 -0.552774 -2.557420
  H 0.849448 1.167926 1.033165
  H 0.833492 -0.079224 -0.230507
  H 1.382685 1.570919 -0.617597
  H 3.147708 1.039876 2.422028
  H 3.656703 -0.625291 2.147346
  H 2.542404 -0.725723 -1.359320
  H 5.240871 0.441996 -0.583069
  H 5.109702 -2.454316 -3.482317
  H 4.723057 -1.014642 -4.344420
  H 2.402930 -1.027892 -3.346191
  H 2.804226 -2.571474 -2.565189
  H 6.887919 -0.030146 -1.881218
 23
 61.192369
  C 1.330345 0.531323 0.054860
  C 3.051273 0.202635 0.582858
  C 2.822975 0.315551 2.012436
  H 1.769057 0.253142 2.320362
  C 3.381780 -0.312706 -0.644778
  C 4.686424 -0.271107 -1.151286
  C 5.141145 -0.739198 -2.372079
  C 4.434269 -1.448889 -3.477465
  C 2.954470 -1.800806 -3.355703
  H 2.660416 -2.314335 -4.276635
  O 6.420728 -0.613878 -2.674880
  H 0.783691 0.908122 0.910383
  H 1.026956 -0.435053 -0.265501
  H 1.481425 1.277318 -0.712227
  H 3.167234 1.309154 2.341504
  H 3.388630 -0.437888 2.546054
  H 2.638693 -0.742305 -1.317233
  H 5.410120 0.229149 -0.531828
  H 5.000307 -2.341497 -3.668390
  H 4.583349 -0.807590 -4.370355
  H 2.329866 -0.915229 -3.281913
  H 2.776222 -2.484709 -2.532476
  H 6.964302 -0.198096 -1.956832
 23
 82.675440
  C 1.147253 0.441723 -0.026601
  C 3.177741 0.130254 0.633859
  C 2.886529 0.398763 2.020641
  H 1.816937 0.457009 2.276057
  C 3.479056 -0.365355 -0.556535
  C 4.779793 -0.320781 -1.133096
  C 5.159029 -0.765370 -2.362625
  C 4.378546 -1.417598 -3.467747
  C 2.901921 -1.731499 -3.297180
  H 2.559922 -2.211856 -4.205855
  O 6.435439 -0.637965 -2.746715
  H 0.597457 0.825089 0.818715
  H 0.929644 -0.577472 -0.306744
  H 1.370911 1.141083 -0.784597
  H 3.296971 1.399057 2.280033
  H 3.349593 -0.359291 2.651503
  H 2.740949 -0.770830 -1.202809
  H 5.541719 0.125146 -0.517019
  H 4.917532 -2.345034 -3.688980
  H 4.513039 -0.788092 -4.351511
  H 2.294137 -0.815080 -3.171923
  H 2.739164 -2.440812 -2.504084
  H 6.995616 -0.208033 -2.088519
 23
 93.936079
  C 0.896753 0.329335 -0.079591
  C 3.267441 0.154482 0.648148
  C 2.949444 0.448304 1.996081
  H 1.882067 0.523418 2.173789
  C 3.569474 -0.310594 -0.521117
  C 4.876003 -0.330066 -1.128883
  C 5.199284 -0.793164 -2.358424
  C 4.361435 -1.411286 -3.442716
  C 2.867616 -1.624466 -3.235841
  H 2.466041 -2.100236 -4.129084
  O 6.483361 -0.745182 -2.775057
  H 0.371997 0.662911 0.792385
  H 0.801898 -0.701645 -0.350057
  H 1.119789 1.059679 -0.829744
  H 3.344354 1.434798 2.258934
  H 3.344675 -0.318897 2.667092
  H 2.794159 -0.678212 -1.172140
  H 5.674027 0.077190 -0.521272
  H 4.834220 -2.373251 -3.667439
  H 4.518677 -0.792088 -4.331934
  H 2.341795 -0.679865 -3.118285
  H 2.673341 -2.296505 -2.403001
  H 7.083518 -0.356893 -2.115126
 23
 97.587915
  C 0.678265 0.318045 -0.196976
  C 3.359871 0.131862 0.698235
  C 3.020217 0.418322 2.029875
  H 1.939833 0.513060 2.143363
  C 3.670144 -0.306442 -0.467371
  C 4.958391 -0.376936 -1.111150
  C 5.223100 -0.827866 -2.354681
  C 4.325408 -1.379216 -3.425418
  C 2.830463 -1.519380 -3.175897
  H 2.377038 -1.954391 -4.064595
  O 6.492569 -0.834260 -2.807543
  H 0.153334 0.634607 0.680313
  H 0.624901 -0.713245 -0.476674
  H 0.957667 1.058942 -0.916184
  H 3.414877 1.397651 2.319757
  H 3.359903 -0.365557 2.710116
  H 2.852504 -0.623915 -1.105729
  H 5.787457 -0.025522 -0.512862
  H 4.740677 -2.358320 -3.683586
  H 4.488241 -0.749946 -4.305823
  H 2.358389 -0.551341 -3.023750
  H 2.627202 -2.198939 -2.351452
  H 7.126997 -0.491682 -2.158180
 23
 98.115662
  C 0.486091 0.273901 -0.303938
  C 3.456775 0.108213 0.741053
  C 3.065994 0.428470 2.038542
  H 1.973782 0.520818 2.053274
  C 3.811007 -0.298037 -0.414671
  C 5.062102 -0.345392 -1.124607
  C 5.264480 -0.789499 -2.381410
  C 4.311993 -1.352086 -3.397295
  C 2.837931 -1.515318 -3.053511
  H 2.334339 -1.954374 -3.912815
  O 6.502401 -0.773074 -2.907312
  H -0.063171 0.590496 0.556520
  H 0.446804 -0.756481 -0.584863
  H 0.805123 1.011659 -1.007821
  H 3.423577 1.424339 2.315453
  H 3.354922 -0.331030 2.765885
  H 2.955443 -0.633027 -1.011666
  H 5.912543 0.018218 -0.565167
  H 4.725031 -2.323905 -3.684136
  H 4.409649 -0.717759 -4.283575
  H 2.360776 -0.554354 -2.869694
  H 2.696719 -2.201981 -2.221360
  H 7.168349 -0.419770 -2.295987
 23
 97.290650
  C 0.393596 0.063678 -0.536155
  C 3.595462 0.129603 0.839568
  C 3.136348 0.491152 2.102093
  H 2.040654 0.557198 2.039540
  C 3.879758 -0.259407 -0.337963
  C 5.092441 -0.344889 -1.103236
  C 5.240977 -0.787625 -2.369294
  C 4.244649 -1.324229 -3.356635
  C 2.781797 -1.454704 -2.961065
  H 2.236599 -1.879244 -3.801875
  O 6.464044 -0.797591 -2.936853
  H -0.170163 0.360381 0.321948
  H 0.446840 -0.973733 -0.788438
  H 0.689337 0.808473 -1.243668
  H 3.460770 1.500007 2.369864
  H 3.389070 -0.238966 2.871493
  H 2.966333 -0.551941 -0.880930
  H 5.974819 -0.012310 -0.575019
  H 4.626424 -2.303896 -3.659987
  H 4.326475 -0.688654 -4.243585
  H 2.337567 -0.483478 -2.757017
  H 2.657157 -2.138449 -2.124345
  H 7.156899 -0.462161 -2.346309
 23
 97.372538
  C 0.171657 0.078037 -0.746487
  C 3.637857 0.154762 0.880438
  C 3.195488 0.548441 2.140806
  H 2.104692 0.663427 2.079470
  C 3.905505 -0.245570 -0.298247
  C 5.117698 -0.413555 -1.049879
  C 5.253768 -0.873501 -2.310001
  C 4.238613 -1.354685 -3.306031
  C 2.766475 -1.390334 -2.926121
  H 2.204255 -1.784615 -3.770401
  O 6.480473 -0.963274 -2.861447
  H -0.389650 0.385163 0.109305
  H 0.241353 -0.962206 -0.981204
  H 0.485223 0.813482 -1.455759
  H 3.568635 1.541748 2.403076
  H 3.412171 -0.188449 2.915010
  H 2.979196 -0.486594 -0.843511
  H 6.013247 -0.133258 -0.513331
  H 4.562237 -2.358447 -3.597952
  H 4.370172 -0.731871 -4.196063
  H 2.383213 -0.391702 -2.731261
  H 2.590596 -2.059104 -2.086598
  H 7.184899 -0.666368 -2.264029
 23
 97.895723
  C -0.194327 -0.059364 -0.922001
  C 3.749773 0.182308 0.924367
  C 3.363324 0.602740 2.194280
  H 2.272697 0.727187 2.180641
  C 3.984794 -0.214142 -0.263671
  C 5.175055 -0.415586 -1.040727
  C 5.263948 -0.880162 -2.303248
  C 4.206497 -1.329876 -3.269854
  C 2.744241 -1.318564 -2.849974
  H 2.146877 -1.689837 -3.680402
  O 6.471088 -1.004928 -2.889055
  H -0.736120 0.243744 -0.052456
  H -0.069620 -1.099663 -1.131895
  H 0.084420 0.671231 -1.650030
  H 3.759347 1.595255 2.423867
  H 3.602233 -0.125146 2.970648
  H 3.048349 -0.453243 -0.786502
  H 6.090191 -0.156762 -0.527340
  H 4.489645 -2.343292 -3.569941
  H 4.333188 -0.711104 -4.163325
  H 2.398603 -0.308908 -2.640067
  H 2.567935 -1.985787 -2.009173
  H 7.199945 -0.727975 -2.311689
 23
 97.889040
  C -0.193502 -0.104925 -0.886684
  C 3.757809 0.188251 0.919605
  C 3.376057 0.603007 2.192703
  H 2.283846 0.711818 2.188171
  C 3.987946 -0.204924 -0.270236
  C 5.173749 -0.390338 -1.057443
  C 5.258048 -0.853957 -2.321421
  C 4.198552 -1.318040 -3.278873
  C 2.739933 -1.326476 -2.846396
  H 2.140499 -1.705871 -3.671666
  O 6.461747 -0.962298 -2.917971
  H -0.731683 0.191154 -0.011963
  H -0.057400 -1.143871 -1.098071
  H 0.068861 0.629285 -1.617158
  H 3.759797 1.600951 2.419211
  H 3.631747 -0.121462 2.966799
  H 3.050311 -0.456764 -0.784755
  H 6.089544 -0.119217 -0.551951
  H 4.492788 -2.327510 -3.581424
  H 4.309166 -0.697700 -4.173337
  H 2.382536 -0.321632 -2.633484
  H 2.579915 -1.995947 -2.004174
  H 7.191819 -0.675407 -2.347031
