 18
 0.000000
  C 0.939535 0.141407 0.404616
  C 2.413475 0.140162 0.400584
  C 3.210978 0.602385 1.549703
  C 2.475714 1.096281 2.778595
  C 3.439929 1.535673 3.871830
  C 3.035946 -0.316198 -0.734813
  H 4.103005 -0.364667 -0.856381
  H 0.507513 0.512053 1.326481
  H 0.568506 -0.869036 0.222285
  H 0.567904 0.744043 -0.426409
  H 3.882397 1.398114 1.196928
  H 3.882669 -0.215915 1.845770
  H 1.833674 0.304889 3.176674
  H 1.833594 1.943014 2.518334
  H 4.077641 0.713243 4.187683
  H 2.891019 1.885385 4.742188
  H 4.077580 2.347979 3.530658
  H 2.403280 -0.641666 -1.543780
 18
 5.884488
  C 0.954281 0.136765 0.393226
  C 2.418086 0.131737 0.379634
  C 3.207186 0.598541 1.540128
  C 2.483055 1.092123 2.768107
  C 3.430727 1.535321 3.871006
  C 3.077953 -0.309443 -0.718123
  H 4.123210 -0.380552 -0.896296
  H 0.532443 0.507793 1.315968
  H 0.577443 -0.869803 0.208422
  H 0.576818 0.734823 -0.436954
  H 3.894852 1.378839 1.179871
  H 3.895107 -0.213885 1.820076
  H 1.830924 0.303723 3.160849
  H 1.831038 1.933133 2.506036
  H 4.072325 0.718558 4.195515
  H 2.870067 1.882443 4.734857
  H 4.072330 2.349408 3.540036
  H 2.301526 -0.573552 -1.374269
 18
 16.881538
  C 0.963421 0.129152 0.374200
  C 2.435684 0.125552 0.364143
  C 3.206676 0.601190 1.546630
  C 2.483816 1.091224 2.765758
  C 3.426118 1.535687 3.871930
  C 3.112360 -0.314335 -0.730364
  H 4.139845 -0.408215 -0.965194
  H 0.540387 0.500815 1.298435
  H 0.584305 -0.872794 0.192489
  H 0.583699 0.725792 -0.450347
  H 3.903419 1.378244 1.192448
  H 3.903696 -0.204801 1.828744
  H 1.827515 0.302145 3.156009
  H 1.827812 1.930963 2.501451
  H 4.067634 0.719721 4.198013
  H 2.862090 1.881996 4.733814
  H 4.067645 2.350285 3.542685
  H 2.208821 -0.515340 -1.229429
 18
 30.368873
  C 0.973164 0.124947 0.363783
  C 2.449441 0.118013 0.345428
  C 3.206912 0.597687 1.537716
  C 2.473150 1.093460 2.771429
  C 3.419511 1.539733 3.882183
  C 3.137615 -0.325769 -0.758481
  H 4.164959 -0.436979 -1.036172
  H 0.559988 0.499540 1.295036
  H 0.579358 -0.889107 0.189739
  H 0.578561 0.735710 -0.464179
  H 3.908787 1.373502 1.187291
  H 3.909008 -0.204644 1.821618
  H 1.817415 0.305881 3.162455
  H 1.817440 1.932749 2.508865
  H 4.060621 0.723243 4.208118
  H 2.855431 1.886308 4.745216
  H 4.060476 2.354913 3.552588
  H 2.158131 -0.467517 -1.110144
 18
 44.469469
  C 0.975539 0.124161 0.362003
  C 2.455211 0.116367 0.341239
  C 3.200213 0.598990 1.541110
  C 2.469604 1.090470 2.763901
  C 3.411595 1.532940 3.865262
  C 3.163084 -0.326933 -0.761626
  H 4.173548 -0.441373 -1.047244
  H 0.570377 0.498607 1.293211
  H 0.576007 -0.886647 0.194711
  H 0.575156 0.737350 -0.458544
  H 3.902955 1.373608 1.195540
  H 3.903098 -0.199228 1.827678
  H 1.818966 0.306489 3.154309
  H 1.819209 1.926829 2.503249
  H 4.049789 0.717657 4.189094
  H 2.850190 1.878561 4.725695
  H 4.049795 2.345717 3.534935
  H 2.143456 -0.423219 -1.000385
 18
 57.444864
  C 0.971632 0.124428 0.363503
  C 2.453649 0.112388 0.330877
  C 3.200365 0.596425 1.534813
  C 2.459784 1.088563 2.758441
  C 3.406334 1.530267 3.858723
  C 3.188649 -0.329287 -0.768279
  H 4.204381 -0.441823 -1.048951
  H 0.580490 0.500795 1.300386
  H 0.566668 -0.880735 0.205496
  H 0.565310 0.740009 -0.445904
  H 3.898416 1.371017 1.191888
  H 3.897950 -0.200256 1.823326
  H 1.812536 0.303250 3.149510
  H 1.813487 1.926858 2.497040
  H 4.044572 0.711928 4.182662
  H 2.844736 1.876631 4.720209
  H 4.045306 2.344772 3.526481
  H 2.126467 -0.393005 -0.926431
 18
 61.618730
  C 0.940142 0.124559 0.364806
  C 2.449015 0.094200 0.285433
  C 3.233082 0.607168 1.562029
  C 2.415929 1.082472 2.742351
  C 3.415310 1.510911 3.810566
  C 3.249404 -0.299635 -0.695615
  H 4.246983 -0.423559 -1.004993
  H 0.592728 0.508598 1.321372
  H 0.528786 -0.883748 0.245721
  H 0.526628 0.769401 -0.418588
  H 3.887168 1.412006 1.223360
  H 3.886304 -0.208792 1.874935
  H 1.788477 0.286476 3.143836
  H 1.790157 1.935838 2.480433
  H 4.046104 0.681846 4.118186
  H 2.859674 1.860199 4.678471
  H 4.047657 2.321214 3.459291
  H 2.146784 -0.381013 -0.897876
 18
 65.924372
  C 0.945886 0.127734 0.374049
  C 2.455576 0.089967 0.274760
  C 3.245921 0.606056 1.560312
  C 2.411879 1.080709 2.736942
  C 3.398075 1.515464 3.821640
  C 3.259660 -0.302542 -0.704724
  H 4.249931 -0.447204 -1.067111
  H 0.621698 0.512165 1.332664
  H 0.528747 -0.869648 0.264744
  H 0.526151 0.771608 -0.394114
  H 3.880687 1.418126 1.213886
  H 3.878540 -0.221445 1.873033
  H 1.790308 0.277788 3.138407
  H 1.793056 1.939649 2.469549
  H 4.031356 0.686118 4.138059
  H 2.832469 1.864414 4.687130
  H 4.033943 2.331086 3.476461
  H 2.127525 -0.363782 -0.856335
 18
 70.223349
  C 0.943733 0.127536 0.373225
  C 2.466602 0.088234 0.270575
  C 3.244076 0.605585 1.559070
  C 2.410823 1.078855 2.732361
  C 3.394096 1.520184 3.833955
  C 3.266198 -0.304300 -0.708840
  H 4.241879 -0.454366 -1.084851
  H 0.630172 0.513502 1.334787
  H 0.521191 -0.870596 0.265901
  H 0.520092 0.772186 -0.392920
  H 3.879385 1.414973 1.219614
  H 3.875477 -0.213710 1.874526
  H 1.788208 0.274692 3.130123
  H 1.791060 1.935971 2.461622
  H 4.024898 0.697738 4.153311
  H 2.832651 1.863969 4.686984
  H 4.028011 2.333355 3.495780
  H 2.105965 -0.346977 -0.813821
 18
 73.558399
  C 0.938981 0.128329 0.374610
  C 2.465681 0.087820 0.270764
  C 3.237863 0.606844 1.562385
  C 2.406260 1.080017 2.736334
  C 3.386275 1.521266 3.836386
  C 3.276136 -0.304699 -0.708839
  H 4.242833 -0.463891 -1.108189
  H 0.631316 0.515766 1.339017
  H 0.515957 -0.868112 0.270653
  H 0.515163 0.774929 -0.389463
  H 3.877532 1.421516 1.219700
  H 3.874326 -0.218099 1.879247
  H 1.786862 0.281623 3.133556
  H 1.788446 1.932166 2.469498
  H 4.019790 0.696977 4.155028
  H 2.822947 1.866470 4.694135
  H 4.021503 2.335874 3.496356
  H 2.101626 -0.334657 -0.781009
 18
 76.965021
  C 0.939193 0.129725 0.377346
  C 2.474937 0.085474 0.263716
  C 3.239176 0.605934 1.558862
  C 2.407510 1.080100 2.735545
  C 3.382675 1.523829 3.840679
  C 3.278206 -0.304619 -0.710686
  H 4.236394 -0.470452 -1.127306
  H 0.646431 0.517910 1.343971
  H 0.510812 -0.865280 0.277626
  H 0.510186 0.778627 -0.382584
  H 3.872432 1.411517 1.223264
  H 3.877186 -0.216164 1.877866
  H 1.785613 0.278974 3.131511
  H 1.786022 1.933550 2.466002
  H 4.009878 0.712046 4.156512
  H 2.804498 1.878579 4.722557
  H 4.010117 2.327123 3.507302
  H 2.081646 -0.321744 -0.749994
 18
 79.761136
  C 0.935587 0.131792 0.385487
  C 2.478245 0.088159 0.272639
  C 3.235543 0.608105 1.566425
  C 2.400095 1.081699 2.741145
  C 3.362393 1.522442 3.837769
  C 3.290443 -0.302851 -0.704700
  H 4.241289 -0.472938 -1.132659
  H 0.649759 0.519842 1.353864
  H 0.506438 -0.860685 0.289612
  H 0.500486 0.787197 -0.376655
  H 3.874920 1.423314 1.228766
  H 3.879401 -0.219997 1.889801
  H 1.778407 0.278880 3.138669
  H 1.776437 1.939300 2.470739
  H 4.003841 0.691127 4.162750
  H 2.802929 1.862587 4.683024
  H 4.002532 2.345445 3.497333
  H 2.063759 -0.309787 -0.717163
 18
 82.450319
  C 0.928802 0.132237 0.381085
  C 2.479089 0.087097 0.269278
  C 3.234715 0.607112 1.564866
  C 2.399490 1.081125 2.740748
  C 3.364721 1.524690 3.848453
  C 3.294487 -0.303864 -0.704831
  H 4.242347 -0.477741 -1.139115
  H 0.652205 0.522991 1.352447
  H 0.490073 -0.867993 0.288589
  H 0.496583 0.782891 -0.368414
  H 3.883150 1.428988 1.225565
  H 3.865595 -0.206368 1.883667
  H 1.775323 0.277687 3.137947
  H 1.781823 1.933934 2.471295
  H 3.993557 0.707600 4.168810
  H 2.790168 1.873638 4.714855
  H 3.999972 2.338146 3.513719
  H 2.037597 -0.299683 -0.692414
 18
 84.748933
  C 0.922590 0.130623 0.384018
  C 2.483136 0.088800 0.273459
  C 3.231568 0.609918 1.567758
  C 2.394950 1.083330 2.742872
  C 3.353838 1.528725 3.850387
  C 3.301055 -0.300377 -0.701576
  H 4.247808 -0.473021 -1.137998
  H 0.656494 0.521216 1.357437
  H 0.486660 -0.858600 0.298145
  H 0.479514 0.791569 -0.368943
  H 3.867740 1.418962 1.237106
  H 3.877201 -0.217105 1.895409
  H 1.775591 0.282584 3.137640
  H 1.771943 1.940654 2.470498
  H 3.991954 0.703555 4.175937
  H 2.783819 1.873204 4.705791
  H 3.986960 2.342489 3.516128
  H 2.005822 -0.286898 -0.660241
