 29
 0.000000
  C 0.906624 0.048705 0.272563
  C 2.398264 0.059183 0.086801
  C 3.241499 -0.012239 1.352681
  C 2.525656 -0.088141 2.697717
  H 3.240357 -0.133952 3.509647
  C 2.993165 0.127395 -1.122028
  C 2.352502 0.204840 -2.494528
  C 0.841663 0.217339 -2.715950
  C 0.521861 0.301417 -4.206025
  C 4.452061 0.132356 -1.209881
  C 5.191668 0.194943 -2.319171
  O 6.551406 0.195881 -2.335715
  H 0.606308 -0.010025 1.313319
  H 0.462833 -0.817212 -0.211898
  H 0.462833 0.963624 -0.111410
  H 3.887477 0.871541 1.382365
  H 3.887479 -0.893750 1.282757
  H 1.895793 -0.976024 2.745417
  H 1.895783 0.788737 2.844999
  H 2.741596 -0.643718 -3.068106
  H 2.741595 1.112540 -2.969003
  H 0.388200 1.078126 -2.226386
  H 0.388202 -0.693059 -2.326330
  H 0.932010 1.210135 -4.642140
  H -0.555570 0.309914 -4.356602
  H 0.932010 -0.552473 -4.741599
  H 4.998123 0.079816 -0.278730
  H 4.814014 0.251790 -3.326576
  H 6.881846 0.144739 -1.429327
 29
 12.159074
  C 0.900624 0.047331 0.296895
  C 2.387259 0.057832 0.110744
  C 3.249401 -0.011987 1.348213
  C 2.469788 -0.096322 2.842712
  H 3.207498 -0.140972 3.634091
  C 3.020724 0.131138 -1.188362
  C 2.366557 0.208018 -2.550852
  C 0.851849 0.218945 -2.744420
  C 0.511188 0.302778 -4.230139
  C 4.471239 0.135405 -1.263925
  C 5.220443 0.197688 -2.367829
  O 6.580426 0.197886 -2.371269
  H 0.614350 -0.011609 1.341374
  H 0.453551 -0.815962 -0.190436
  H 0.453550 0.959966 -0.090226
  H 3.891782 0.870617 1.381070
  H 3.891788 -0.892685 1.281573
  H 1.848360 -0.984764 2.892820
  H 1.848351 0.780838 2.992449
  H 2.750233 -0.640468 -3.129205
  H 2.750235 1.116187 -3.030084
  H 0.406734 1.078502 -2.245782
  H 0.406732 -0.691256 -2.345642
  H 0.915996 1.211571 -4.670965
  H -0.568075 0.310528 -4.367456
  H 0.915994 -0.550652 -4.770401
  H 5.010242 0.082581 -0.327731
  H 4.850370 0.254685 -3.377902
  H 6.903812 0.146609 -1.462474
 29
 35.114103
  C 0.908551 0.049111 0.265328
  C 2.397734 0.059096 0.088386
  C 3.287263 -0.009043 1.296081
  C 2.376169 -0.103958 2.978032
  H 3.181564 -0.144526 3.697053
  C 3.047048 0.134022 -1.239509
  C 2.374093 0.209871 -2.583753
  C 0.858286 0.218355 -2.733900
  C 0.487316 0.301732 -4.211625
  C 4.492682 0.137436 -1.300039
  C 5.244095 0.199342 -2.397195
  O 6.604235 0.199144 -2.393361
  H 0.655243 -0.009990 1.312711
  H 0.455714 -0.804405 -0.234771
  H 0.455712 0.953470 -0.135579
  H 3.901101 0.880643 1.424537
  H 3.901111 -0.907532 1.323637
  H 1.790054 -1.009540 2.967668
  H 1.790053 0.797016 3.069609
  H 2.751384 -0.635100 -3.167446
  H 2.751398 1.115132 -3.068700
  H 0.427968 1.077395 -2.219102
  H 0.427952 -0.693133 -2.318995
  H 0.887172 1.210201 -4.657802
  H -0.593483 0.308574 -4.332697
  H 0.887150 -0.550779 -4.757144
  H 5.028830 0.084689 -0.365126
  H 4.872145 0.256314 -3.406855
  H 6.926748 0.147747 -1.482291
 29
 61.713257
  C 0.966003 0.048919 0.268820
  C 2.436408 0.061180 0.051510
  C 3.341063 -0.005245 1.228837
  C 2.263731 -0.113823 3.152960
  H 3.102124 -0.152949 3.846456
  C 3.051674 0.135005 -1.256912
  C 2.378100 0.210512 -2.595126
  C 0.863991 0.219252 -2.749730
  C 0.496555 0.302757 -4.229631
  C 4.486713 0.138774 -1.323692
  C 5.230994 0.201537 -2.436138
  O 6.578670 0.202355 -2.450423
  H 0.762570 -0.010957 1.329530
  H 0.498614 -0.802048 -0.214184
  H 0.498596 0.948784 -0.115401
  H 3.924578 0.886527 1.391404
  H 3.924544 -0.909569 1.290046
  H 1.696654 -1.020943 3.094334
  H 1.696683 0.794054 3.196754
  H 2.758094 -0.635791 -3.178284
  H 2.758085 1.116986 -3.079364
  H 0.429700 1.078617 -2.239272
  H 0.429682 -0.692056 -2.339178
  H 0.897856 1.211621 -4.675013
  H -0.584220 0.309772 -4.353708
  H 0.897830 -0.550248 -4.774422
  H 5.023999 0.085845 -0.385536
  H 4.843591 0.258171 -3.439996
  H 6.907331 0.151937 -1.556606
 29
 84.098146
  C 0.997938 0.049315 0.261753
  C 2.476914 0.063900 0.003100
  C 3.390566 -0.001615 1.164192
  C 2.182833 -0.125255 3.355425
  H 3.045414 -0.162033 4.007438
  C 3.056854 0.136349 -1.281045
  C 2.367886 0.212311 -2.627268
  C 0.847483 0.220848 -2.778202
  C 0.476583 0.304303 -4.257195
  C 4.502584 0.140852 -1.360797
  C 5.249051 0.203288 -2.467210
  O 6.612306 0.203961 -2.478084
  H 0.823217 -0.011061 1.332572
  H 0.521729 -0.803420 -0.208219
  H 0.521795 0.949528 -0.109278
  H 3.951845 0.898700 1.363518
  H 3.951857 -0.918636 1.260975
  H 1.622982 -1.038883 3.269976
  H 1.623013 0.792138 3.373288
  H 2.744957 -0.633369 -3.215478
  H 2.744993 1.118783 -3.116642
  H 0.417105 1.080393 -2.268451
  H 0.417061 -0.690565 -2.368350
  H 0.876838 1.212664 -4.703567
  H -0.604846 0.311198 -4.378955
  H 0.876797 -0.548092 -4.802906
  H 5.030481 0.087817 -0.420610
  H 4.862303 0.260119 -3.474315
  H 6.954346 0.151721 -1.551808
 29
 99.416632
  C 1.050971 0.048870 0.269611
  C 2.530973 0.066161 -0.037108
  C 3.448199 0.000887 1.119605
  C 2.045701 -0.135503 3.537461
  H 2.931412 -0.171074 4.167800
  C 3.075320 0.137460 -1.300830
  C 2.379733 0.213349 -2.645700
  C 0.858197 0.221422 -2.788438
  C 0.480199 0.304647 -4.263354
  C 4.518711 0.143712 -1.411579
  C 5.249260 0.206646 -2.526733
  O 6.593309 0.208524 -2.558722
  H 0.930618 -0.011452 1.339347
  H 0.559696 -0.797350 -0.186546
  H 0.559761 0.941082 -0.088423
  H 3.985968 0.899988 1.377915
  H 3.985942 -0.921556 1.275131
  H 1.496688 -1.054056 3.405929
  H 1.496782 0.791916 3.510087
  H 2.743633 -0.630022 -3.233560
  H 2.743682 1.117516 -3.134990
  H 0.431250 1.079850 -2.273250
  H 0.431215 -0.689508 -2.373071
  H 0.877878 1.213825 -4.711472
  H -0.601742 0.311217 -4.379516
  H 0.877841 -0.548346 -4.810885
  H 5.043450 0.090801 -0.473524
  H 4.843539 0.263028 -3.525817
  H 6.941185 0.157801 -1.659294
 29
 109.041503
  C 1.129781 0.049878 0.251627
  C 2.611933 0.068662 -0.081269
  C 3.495680 0.002935 1.083472
  C 1.834820 -0.142899 3.668364
  H 2.704945 -0.177589 4.283108
  C 3.133043 0.139483 -1.336292
  C 2.408736 0.214279 -2.661882
  C 0.890136 0.218692 -2.740043
  C 0.445619 0.300689 -4.193147
  C 4.564498 0.147707 -1.481796
  C 5.271027 0.211632 -2.614725
  O 6.626439 0.215422 -2.681783
  H 1.022313 -0.010877 1.328381
  H 0.635340 -0.798695 -0.198652
  H 0.635381 0.943703 -0.100290
  H 3.998589 0.895629 1.401186
  H 3.998652 -0.919925 1.298760
  H 1.312116 -1.044506 3.487099
  H 1.312087 0.773421 3.589673
  H 2.760603 -0.629867 -3.258278
  H 2.760618 1.120188 -3.159559
  H 0.485208 1.073565 -2.205698
  H 0.485218 -0.690847 -2.305263
  H 0.819715 1.210744 -4.658760
  H -0.640427 0.304422 -4.259320
  H 0.819702 -0.551190 -4.758177
  H 5.096426 0.095420 -0.554914
  H 4.839491 0.267299 -3.601586
  H 7.002485 0.164615 -1.781044
 29
 114.493939
  C 1.168809 0.048866 0.269332
  C 2.631201 0.070381 -0.112050
  C 3.545216 0.005370 1.040081
  C 1.747847 -0.153413 3.854698
  H 2.642523 -0.185588 4.424682
  C 3.125791 0.141367 -1.370181
  C 2.400560 0.215747 -2.688277
  C 0.872300 0.220231 -2.767100
  C 0.427822 0.302557 -4.225772
  C 4.578520 0.149331 -1.511518
  C 5.289536 0.213112 -2.641706
  O 6.634040 0.216524 -2.700289
  H 1.088579 -0.012027 1.348464
  H 0.659252 -0.816904 -0.168974
  H 0.659228 0.958538 -0.068813
  H 4.025004 0.905292 1.395635
  H 4.024935 -0.928715 1.292088
  H 1.227419 -1.070111 3.649709
  H 1.227434 0.780520 3.754147
  H 2.758876 -0.637782 -3.288680
  H 2.758839 1.131247 -3.188759
  H 0.466332 1.077342 -2.232216
  H 0.466284 -0.691616 -2.332036
  H 0.802006 1.211175 -4.690705
  H -0.656769 0.306387 -4.293247
  H 0.801962 -0.547989 -4.789971
  H 5.118468 0.096244 -0.570116
  H 4.871218 0.268462 -3.622254
  H 6.998917 0.165949 -1.803319
 29
 116.595298
  C 1.229204 0.048686 0.273382
  C 2.695557 0.071367 -0.128883
  C 3.610099 0.006675 1.017615
  C 1.566552 -0.160022 3.971267
  H 2.483735 -0.191173 4.523436
  C 3.177231 0.143118 -1.400713
  C 2.419739 0.217135 -2.712640
  C 0.891431 0.218551 -2.737448
  C 0.392551 0.299829 -4.177932
  C 4.615994 0.152192 -1.561488
  C 5.305001 0.216623 -2.703595
  O 6.663505 0.221435 -2.788802
  H 1.158410 -0.012840 1.363834
  H 0.719052 -0.812158 -0.152452
  H 0.719075 0.951967 -0.052906
  H 4.020979 0.902663 1.440390
  H 4.020962 -0.931057 1.336827
  H 1.071091 -1.069519 3.721431
  H 1.071102 0.771725 3.825379
  H 2.760361 -0.632121 -3.322371
  H 2.760355 1.129550 -3.222954
  H 0.504051 1.074148 -2.186448
  H 0.504044 -0.693568 -2.286201
  H 0.747739 1.209835 -4.656588
  H -0.694421 0.301369 -4.205086
  H 0.747725 -0.550565 -4.755912
  H 5.178618 0.099461 -0.626610
  H 4.868472 0.271806 -3.681838
  H 7.042698 0.171692 -1.906929
 29
 117.485375
  C 1.300149 0.045895 0.324425
  C 2.749327 0.072675 -0.151004
  C 3.693868 0.009664 0.965991
  C 1.387195 -0.165284 4.062870
  H 2.313003 -0.194693 4.584796
  C 3.192941 0.144600 -1.426472
  C 2.422607 0.217201 -2.713689
  C 0.890667 0.217421 -2.717425
  C 0.373075 0.298025 -4.146618
  C 4.638940 0.154726 -1.606244
  C 5.315939 0.219444 -2.754166
  O 6.667102 0.224922 -2.852071
  H 1.280466 -0.015612 1.415043
  H 0.772857 -0.816281 -0.074197
  H 0.772912 0.947412 0.025289
  H 4.057973 0.908907 1.432290
  H 4.058089 -0.936212 1.328018
  H 0.902152 -1.074527 3.790546
  H 0.902088 0.768682 3.894659
  H 2.755363 -0.631699 -3.326184
  H 2.755425 1.129714 -3.226927
  H 0.510123 1.072465 -2.160934
  H 0.510118 -0.694744 -2.260617
  H 0.720927 1.208103 -4.629731
  H -0.714050 0.298694 -4.158383
  H 0.720932 -0.551997 -4.729016
  H 5.206788 0.102167 -0.674271
  H 4.867263 0.274581 -3.731959
  H 7.056490 0.175126 -1.969226
 29
 118.036891
  C 1.418175 0.045138 0.339450
  C 2.842904 0.074080 -0.174864
  C 3.777131 0.011633 0.931845
  C 1.089647 -0.166628 4.083184
  H 2.009851 -0.196535 4.614157
  C 3.252544 0.145472 -1.441019
  C 2.436284 0.216103 -2.693733
  C 0.914845 0.211717 -2.616433
  C 0.319542 0.290674 -4.017293
  C 4.705153 0.158403 -1.670073
  C 5.346101 0.224010 -2.834355
  O 6.703582 0.231801 -2.976058
  H 1.426191 -0.017008 1.441443
  H 0.890577 -0.803596 -0.037115
  H 0.890681 0.930763 0.060745
  H 4.108984 0.907124 1.417113
  H 4.109244 -0.932626 1.312999
  H 0.612614 -1.087747 3.778243
  H 0.612226 0.783240 3.883880
  H 2.743489 -0.633328 -3.321209
  H 2.743553 1.130922 -3.221913
  H 0.562283 1.065586 -2.040073
  H 0.562322 -0.701462 -2.139743
  H 0.639306 1.206047 -4.520807
  H -0.768938 0.287969 -3.969446
  H 0.639379 -0.562403 -4.620572
  H 5.291924 0.107325 -0.764635
  H 4.865880 0.278231 -3.796933
  H 7.119241 0.182974 -2.110842
 29
 118.037921
  C 1.487214 0.042292 0.391496
  C 2.897377 0.073509 -0.164104
  C 3.862695 0.012275 0.923266
  C 0.884317 -0.170777 4.156948
  H 1.812078 -0.201492 4.704253
  C 3.279682 0.145610 -1.444782
  C 2.436823 0.216108 -2.695125
  C 0.911345 0.210602 -2.595606
  C 0.294518 0.288963 -3.986860
  C 4.723302 0.159572 -1.694233
  C 5.344655 0.225867 -2.870726
  O 6.688013 0.235002 -3.029912
  H 1.523143 -0.019505 1.489109
  H 0.939569 -0.825825 0.022336
  H 0.939579 0.946399 0.122105
  H 4.181565 0.919654 1.428316
  H 4.182253 -0.946162 1.322749
  H 0.422091 -1.076834 3.846661
  H 0.421887 0.763961 3.950697
  H 2.732338 -0.629594 -3.324383
  H 2.732592 1.127338 -3.225683
  H 0.567501 1.064100 -2.013478
  H 0.567307 -0.702844 -2.112942
  H 0.604246 1.199773 -4.492725
  H -0.790462 0.285466 -3.923127
  H 0.604125 -0.559384 -4.591764
  H 5.329501 0.109119 -0.798050
  H 4.840815 0.280983 -3.846945
  H 7.116111 0.186404 -2.167286
 29
 117.626048
  C 1.568616 0.040216 0.448954
  C 2.964509 0.072810 -0.140317
  C 3.968009 0.013400 0.914860
  C 0.643899 -0.172048 4.158390
  H 1.542784 -0.204373 4.736118
  C 3.313739 0.145778 -1.443231
  C 2.437057 0.214681 -2.670671
  C 0.915367 0.206972 -2.530311
  C 0.258468 0.284267 -3.908281
  C 4.746095 0.161598 -1.727216
  C 5.338782 0.228283 -2.918642
  O 6.679721 0.238827 -3.112126
  H 1.629116 -0.021042 1.541259
  H 1.014221 -0.828197 0.095596
  H 1.014594 0.942885 0.194869
  H 4.264413 0.911612 1.434004
  H 4.266199 -0.937515 1.328468
  H 0.188978 -1.078874 3.830468
  H 0.188009 0.765671 3.935058
  H 2.716306 -0.626369 -3.306250
  H 2.716537 1.121526 -3.208371
  H 0.585938 1.063025 -1.936565
  H 0.585734 -0.710013 -2.035919
  H 0.553643 1.198018 -4.424368
  H -0.827630 0.279139 -3.814695
  H 0.553456 -0.566165 -4.523235
  H 5.372759 0.111750 -0.838248
  H 4.812061 0.282074 -3.877974
  H 7.130536 0.190955 -2.259812
 29
 118.176517
  C 1.649528 0.038743 0.496179
  C 3.027493 0.073255 -0.135758
  C 4.057328 0.015632 0.889727
  C 0.369529 -0.173321 4.159655
  H 1.262474 -0.206761 4.760555
  C 3.333820 0.145052 -1.424895
  C 2.431748 0.212054 -2.624461
  C 0.924293 0.202573 -2.452072
  C 0.239928 0.278470 -3.812388
  C 4.755682 0.163101 -1.749669
  C 5.318827 0.230263 -2.957511
  O 6.658867 0.242393 -3.188528
  H 1.741345 -0.023822 1.616928
  H 1.085140 -0.835710 0.156160
  H 1.085640 0.945865 0.255535
  H 4.356480 0.922994 1.411943
  H 4.359838 -0.944781 1.304346
  H -0.076728 -1.082819 3.811892
  H -0.078060 0.768608 3.917441
  H 2.694359 -0.622029 -3.261515
  H 2.694668 1.112125 -3.165145
  H 0.608616 1.054877 -1.854131
  H 0.608415 -0.710905 -1.952517
  H 0.520320 1.185966 -4.331652
  H -0.829648 0.272129 -3.696769
  H 0.520151 -0.565739 -4.429285
  H 5.397028 0.114976 -0.887509
  H 4.776917 0.282010 -3.887065
  H 7.132437 0.195413 -2.349682
