 29
 0.000000
  H 1.468827 0.163260 0.462174
  C 2.547735 0.146186 0.418152
  C 3.305028 0.616250 1.585089
  C 2.451416 1.087713 2.758021
  C 3.323254 1.555644 3.919212
  C 3.108725 -0.324529 -0.753288
  C 4.484044 -0.419763 -0.991675
  C 5.142155 -0.877564 -2.134292
  C 4.610275 -1.393538 -3.422286
  C 3.114379 -1.500015 -3.689663
  C 2.875514 -2.060790 -5.089545
  O 6.457245 -0.882305 -2.146628
  H 3.965396 1.435866 1.276889
  H 3.966520 -0.187565 1.930182
  H 1.809175 0.275067 3.102146
  H 1.808077 1.911482 2.443607
  H 3.958396 0.749591 4.279547
  H 2.702401 1.888410 4.747195
  H 3.957216 2.387365 3.620380
  H 2.425115 -0.634560 -1.524364
  H 5.122266 -0.093026 -0.177231
  H 5.060746 -2.383858 -3.558738
  H 5.061520 -0.771953 -4.204772
  H 2.646066 -0.516991 -3.630388
  H 2.645309 -2.169785 -2.968182
  H 3.310624 -1.415156 -5.848670
  H 1.809258 -2.138804 -5.285494
  H 3.309923 -3.052284 -5.192729
  H 6.856471 -0.551072 -1.318866
 29
 1.188366
  H 1.521250 -0.179416 0.646373
  C 2.591817 -0.094495 0.520155
  C 3.328948 0.577878 1.597172
  C 2.448213 1.064846 2.744279
  C 3.274921 1.754377 3.824325
  C 3.132605 -0.617116 -0.636662
  C 4.499950 -0.593748 -0.932318
  C 5.157763 -1.003160 -2.093879
  C 4.612685 -1.406745 -3.413655
  C 3.113888 -1.467968 -3.674269
  C 2.856882 -1.847910 -5.130680
  O 6.470969 -0.953228 -2.126002
  H 3.886437 1.428736 1.186357
  H 4.095176 -0.098841 1.995391
  H 1.916253 0.219714 3.185210
  H 1.701175 1.764147 2.364174
  H 4.011743 1.073519 4.244515
  H 2.633687 2.094822 4.633378
  H 3.795294 2.620643 3.422012
  H 2.451099 -1.076007 -1.330977
  H 5.146381 -0.169979 -0.173512
  H 5.055325 -2.383990 -3.641240
  H 5.071844 -0.729385 -4.144885
  H 2.654904 -0.497469 -3.482819
  H 2.648199 -2.221611 -3.039016
  H 3.286748 -1.113416 -5.807611
  H 1.788548 -1.898515 -5.324307
  H 3.287048 -2.819485 -5.362050
  H 6.920689 -0.993876 -1.263674
 29
 5.844598
  H 1.527465 -0.255661 0.687296
  C 2.593602 -0.142041 0.544456
  C 3.319619 0.580581 1.593601
  C 2.436724 1.075293 2.735073
  C 3.252859 1.819857 3.785980
  C 3.135748 -0.674769 -0.604429
  C 4.499619 -0.622355 -0.912379
  C 5.157547 -1.001531 -2.078672
  C 4.616258 -1.365364 -3.407515
  C 3.117697 -1.454997 -3.658769
  C 2.854511 -1.786148 -5.125907
  O 6.482687 -0.893366 -2.099881
  H 3.853328 1.432630 1.154378
  H 4.109691 -0.062483 2.001552
  H 1.933763 0.228309 3.205582
  H 1.665529 1.740687 2.342522
  H 4.013672 1.173567 4.217710
  H 2.609774 2.164756 4.591592
  H 3.743547 2.688819 3.353390
  H 2.461513 -1.168946 -1.282082
  H 5.155177 -0.201249 -0.161121
  H 5.084838 -2.317838 -3.683455
  H 5.053073 -0.644901 -4.112682
  H 2.636035 -0.504957 -3.424970
  H 2.678425 -2.243174 -3.046923
  H 3.257620 -1.015487 -5.778582
  H 1.785819 -1.857251 -5.310677
  H 3.306683 -2.736719 -5.398777
  H 6.981376 -1.343833 -1.397666
 29
 10.268115
  H 1.505122 -0.194429 0.673429
  C 2.573827 -0.094361 0.537904
  C 3.304350 0.601152 1.599827
  C 2.425072 1.098945 2.742117
  C 3.249112 1.814007 3.807223
  C 3.114652 -0.615857 -0.617069
  C 4.482916 -0.581311 -0.913961
  C 5.147843 -0.955150 -2.074476
  C 4.622611 -1.333870 -3.402879
  C 3.127717 -1.466134 -3.656832
  C 2.874357 -1.816649 -5.121315
  O 6.483323 -0.814854 -2.053406
  H 3.860423 1.446262 1.174944
  H 4.080384 -0.062308 2.002979
  H 1.902490 0.256405 3.199104
  H 1.669325 1.784167 2.353618
  H 3.994041 1.147399 4.235660
  H 2.607867 2.161846 4.612998
  H 3.760108 2.678077 3.388648
  H 2.437328 -1.086248 -1.308682
  H 5.149653 -0.211016 -0.144509
  H 5.117378 -2.270098 -3.689149
  H 5.038032 -0.594813 -4.102862
  H 2.620454 -0.527477 -3.431694
  H 2.709397 -2.260028 -3.037191
  H 3.257845 -1.041398 -5.780362
  H 1.807994 -1.916586 -5.306163
  H 3.350511 -2.757752 -5.386147
  H 7.009479 -1.539440 -1.683969
 29
 8.786807
  H 1.483817 -0.122378 0.654927
  C 2.555645 -0.043207 0.530590
  C 3.292358 0.616059 1.610892
  C 2.415069 1.116377 2.753519
  C 3.247413 1.784597 3.842299
  C 3.095991 -0.550104 -0.630981
  C 4.467632 -0.543760 -0.910767
  C 5.143988 -0.924042 -2.064428
  C 4.637018 -1.331001 -3.393638
  C 3.144162 -1.485866 -3.651831
  C 2.901459 -1.864547 -5.111114
  O 6.473450 -0.785489 -1.984452
  H 3.875348 1.452664 1.206289
  H 4.047474 -0.074692 2.008557
  H 1.862211 0.280827 3.187088
  H 1.684845 1.831896 2.370800
  H 3.965531 1.086655 4.266556
  H 2.607179 2.137134 4.646854
  H 3.790736 2.639747 3.446824
  H 2.415078 -0.986995 -1.341023
  H 5.143744 -0.244386 -0.117289
  H 5.139749 -2.264092 -3.676590
  H 5.039927 -0.586578 -4.094989
  H 2.625664 -0.549355 -3.445521
  H 2.732414 -2.273444 -3.019690
  H 3.281436 -1.097469 -5.781779
  H 1.837031 -1.977030 -5.299529
  H 3.386936 -2.806048 -5.357223
  H 7.015506 -1.588242 -2.030611
 29
 3.328204
  H 1.510147 -0.331110 0.734151
  C 2.573020 -0.204515 0.584221
  C 3.288656 0.586145 1.587759
  C 2.400496 1.137869 2.698217
  C 3.215408 1.913532 3.727190
  C 3.124640 -0.767304 -0.532909
  C 4.488800 -0.733034 -0.814934
  C 5.169085 -1.062899 -1.985943
  C 4.660380 -1.334253 -3.351326
  C 3.160529 -1.437244 -3.605307
  C 2.897623 -1.677640 -5.090057
  O 6.481748 -0.973318 -1.849057
  H 3.823012 1.411727 1.103133
  H 4.081944 -0.031178 2.029476
  H 1.880041 0.317610 3.196369
  H 1.643685 1.797896 2.270039
  H 3.955960 1.272270 4.200091
  H 2.567438 2.308363 4.505587
  H 3.731163 2.750766 3.262933
  H 2.461301 -1.288923 -1.201234
  H 5.172299 -0.495913 -0.006425
  H 5.133320 -2.248264 -3.728878
  H 5.063135 -0.526082 -3.977188
  H 2.662796 -0.514546 -3.306387
  H 2.739693 -2.271464 -3.043387
  H 3.293242 -0.864074 -5.693426
  H 1.829260 -1.744905 -5.277674
  H 3.355664 -2.606117 -5.423514
  H 7.014352 -1.546849 -2.428827
 29
 11.024089
  H 1.587741 -0.776698 0.919950
  C 2.624434 -0.567366 0.694206
  C 3.288112 0.467147 1.497710
  C 2.376074 1.143938 2.516686
  C 3.141316 2.164911 3.351906
  C 3.208905 -1.251363 -0.341767
  C 4.549599 -1.088284 -0.720407
  C 5.213437 -1.278067 -1.926290
  C 4.700933 -1.269786 -3.311214
  C 3.184275 -1.275623 -3.478663
  C 2.806131 -1.234389 -4.956088
  O 6.532194 -1.215559 -1.736645
  H 3.733276 1.225299 0.845176
  H 4.135527 0.002726 2.018890
  H 1.937518 0.393748 3.176867
  H 1.561501 1.650678 1.995576
  H 3.930888 1.685678 3.925878
  H 2.471912 2.661407 4.050215
  H 3.587134 2.928334 2.718540
  H 2.617799 -1.987524 -0.866282
  H 5.356618 -0.931343 -0.005399
  H 5.116549 -2.122522 -3.859236
  H 5.115946 -0.372532 -3.786498
  H 2.748085 -0.412861 -2.973450
  H 2.763544 -2.177880 -3.036353
  H 3.205506 -0.343468 -5.435218
  H 1.725380 -1.218699 -5.068873
  H 3.186818 -2.107230 -5.481108
  H 7.083549 -1.873617 -2.193464
 29
 22.917925
  H 1.621281 -0.948791 1.071932
  C 2.634338 -0.717130 0.773315
  C 3.294031 0.407937 1.448249
  C 2.400858 1.150320 2.438476
  C 3.159610 2.272526 3.139668
  C 3.194797 -1.457061 -0.222237
  C 4.491657 -1.266506 -0.687300
  C 5.160686 -1.397705 -1.892427
  C 4.710052 -1.247958 -3.283513
  C 3.193604 -1.152807 -3.443098
  C 2.810138 -1.016667 -4.912334
  O 6.477999 -1.398183 -1.621880
  H 3.671009 1.114925 0.701853
  H 4.186268 0.034806 1.967512
  H 2.020974 0.452563 3.187201
  H 1.540160 1.571380 1.914464
  H 3.988799 1.877169 3.721615
  H 2.500093 2.812307 3.815300
  H 3.552632 2.984847 2.417682
  H 2.632534 -2.282307 -0.635377
  H 5.420371 -1.155109 -0.088460
  H 5.077254 -2.095021 -3.872268
  H 5.187319 -0.353594 -3.698267
  H 2.818842 -0.289777 -2.891652
  H 2.723703 -2.046186 -3.032939
  H 3.267195 -0.132963 -5.352239
  H 1.732295 -0.922960 -5.015554
  H 3.129496 -1.887251 -5.480364
  H 7.017959 -2.114254 -1.996674
 29
 46.402339
  H 1.525016 -0.866597 1.188428
  C 2.534398 -0.683941 0.849759
  C 3.271698 0.415452 1.489116
  C 2.449131 1.199985 2.508616
  C 3.276330 2.302370 3.161156
  C 3.030872 -1.464180 -0.162094
  C 4.293869 -1.304016 -0.720031
  C 5.019777 -1.365721 -1.866388
  C 4.711905 -1.216397 -3.300288
  C 3.209452 -1.231023 -3.586225
  C 2.938194 -1.079837 -5.078885
  O 6.336454 -1.343859 -1.456688
  H 3.632360 1.100258 0.714184
  H 4.169540 0.019530 1.976364
  H 2.083798 0.523094 3.283242
  H 1.577413 1.641434 2.021877
  H 4.128134 1.886403 3.693306
  H 2.672021 2.859823 3.872654
  H 3.643060 3.003289 2.414728
  H 2.436554 -2.298942 -0.513470
  H 5.460989 -1.229391 -0.192852
  H 5.189565 -2.033579 -3.849721
  H 5.152881 -0.283958 -3.665887
  H 2.726658 -0.415003 -3.046806
  H 2.779212 -2.169171 -3.235259
  H 3.347969 -0.144841 -5.453891
  H 1.868450 -1.078645 -5.271870
  H 3.382853 -1.899054 -5.639136
  H 6.922753 -2.072766 -1.738432
 29
 60.350597
  H 1.522168 -0.927131 1.306270
  C 2.507071 -0.734075 0.908167
  C 3.254273 0.405955 1.473878
  C 2.464445 1.200182 2.511006
  C 3.295265 2.342797 3.083979
  C 2.969767 -1.536903 -0.098918
  C 4.183086 -1.378148 -0.732366
  C 4.923260 -1.399059 -1.820854
  C 4.684569 -1.206231 -3.268191
  C 3.195959 -1.214759 -3.616169
  C 2.985017 -1.019516 -5.112693
  O 6.283548 -1.384535 -1.343523
  H 3.561314 1.071865 0.659444
  H 4.182554 0.048642 1.932420
  H 2.155218 0.539435 3.323458
  H 1.560323 1.607049 2.053635
  H 4.183890 1.962739 3.582950
  H 2.716603 2.907389 3.810896
  H 3.607189 3.026227 2.297503
  H 2.380848 -2.405504 -0.375709
  H 5.641208 -1.315602 -0.262588
  H 5.188582 -2.006145 -3.818692
  H 5.135286 -0.261086 -3.585941
  H 2.688836 -0.417109 -3.071673
  H 2.754857 -2.164259 -3.310430
  H 3.406852 -0.072916 -5.442764
  H 1.924346 -1.017614 -5.350695
  H 3.456278 -1.819775 -5.679098
  H 6.862336 -2.125695 -1.628589
 29
 51.156486
  H 1.514150 -0.930126 1.361897
  C 2.483043 -0.728952 0.931218
  C 3.244996 0.418024 1.479591
  C 2.482645 1.194615 2.549888
  C 3.320729 2.339987 3.107156
  C 2.919900 -1.525417 -0.092836
  C 4.102091 -1.371899 -0.762815
  C 4.870800 -1.382740 -1.812551
  C 4.674823 -1.199751 -3.271204
  C 3.197795 -1.232979 -3.660296
  C 3.027267 -1.049539 -5.163567
  O 6.282873 -1.336953 -1.326676
  H 3.514757 1.095035 0.661275
  H 4.189911 0.065519 1.905560
  H 2.206115 0.522343 3.365116
  H 1.560388 1.597188 2.125183
  H 4.227911 1.963396 3.574518
  H 2.759870 2.892874 3.857000
  H 3.601196 3.033103 2.317089
  H 2.320290 -2.391070 -0.358204
  H 5.890809 -1.261804 -0.377778
  H 5.204588 -1.994571 -3.802845
  H 5.117785 -0.248769 -3.580447
  H 2.663167 -0.440173 -3.135109
  H 2.761979 -2.187141 -3.361025
  H 3.444639 -0.098719 -5.487371
  H 1.973877 -1.064120 -5.431513
  H 3.525638 -1.846416 -5.711165
  H 6.853311 -2.092328 -1.600680
 29
 40.310512
  H 1.616208 -1.159279 1.544384
  C 2.529816 -0.919012 1.022994
  C 3.222587 0.340258 1.391408
  C 2.459075 1.159277 2.420588
  C 3.214217 2.431338 2.796335
  C 2.968508 -1.770971 0.045805
  C 4.076690 -1.592323 -0.717456
  C 4.886386 -1.511855 -1.712292
  C 4.672163 -1.165950 -3.153364
  C 3.187400 -1.090597 -3.524101
  C 3.014462 -0.734783 -4.993295
  O 6.342270 -1.543787 -1.379783
  H 3.383380 0.944975 0.490498
  H 4.215853 0.115459 1.786091
  H 2.296031 0.558424 3.317384
  H 1.478067 1.428817 2.018593
  H 4.188218 2.191552 3.238633
  H 2.648414 3.009728 3.520361
  H 3.376284 3.051704 1.923784
  H 2.426827 -2.700135 -0.103321
  H 6.307319 -1.543503 -0.394887
  H 5.154931 -1.919552 -3.777210
  H 5.151806 -0.200460 -3.361347
  H 2.693403 -0.339322 -2.908970
  H 2.708585 -2.052192 -3.323452
  H 3.467967 0.220349 -5.211777
  H 1.957097 -0.673119 -5.250044
  H 3.475447 -1.489527 -5.634505
  H 6.817934 -2.306900 -1.771644
 29
 41.203934
  H 1.464830 -0.965027 1.288246
  C 2.447983 -0.787530 0.879342
  C 3.215709 0.364512 1.421498
  C 2.436851 1.165065 2.464967
  C 3.255390 2.339260 2.993529
  C 2.909127 -1.613956 -0.109495
  C 4.115764 -1.499447 -0.726349
  C 4.928130 -1.446066 -1.711883
  C 4.677360 -1.215532 -3.171930
  C 3.188971 -1.146168 -3.508638
  C 2.978884 -0.901552 -4.999272
  O 6.382575 -1.389420 -1.449678
  H 3.505374 1.026620 0.597421
  H 4.145899 0.003615 1.873710
  H 2.163314 0.512605 3.297987
  H 1.511395 1.541511 2.021917
  H 4.172049 1.989481 3.464529
  H 2.686907 2.898244 3.733919
  H 3.519338 3.019304 2.185816
  H 2.302470 -2.471507 -0.384897
  H 6.553222 -1.305681 -0.486962
  H 5.127423 -2.034016 -3.739286
  H 5.162484 -0.283513 -3.473563
  H 2.719745 -0.342473 -2.938613
  H 2.704574 -2.081838 -3.224629
  H 3.434194 0.037870 -5.305850
  H 1.917539 -0.852765 -5.230890
  H 3.415999 -1.703906 -5.590127
  H 6.893841 -2.119075 -1.871411
 29
 36.636468
  H 1.794771 -1.395938 1.672978
  C 2.651253 -1.132264 1.073314
  C 3.211881 0.230688 1.233034
  C 2.381467 1.115430 2.159986
  C 2.990253 2.506209 2.298068
  C 3.146425 -2.061288 0.183009
  C 4.208931 -1.876772 -0.627440
  C 4.992613 -1.696324 -1.632074
  C 4.694228 -1.163687 -3.000627
  C 3.216207 -0.824292 -3.180837
  C 2.950142 -0.269334 -4.575311
  O 6.455020 -1.904216 -1.487663
  H 3.297015 0.708803 0.250866
  H 4.232135 0.164162 1.627278
  H 2.315155 0.651366 3.146541
  H 1.366087 1.204161 1.767172
  H 3.993988 2.448209 2.713410
  H 2.385888 3.123455 2.958649
  H 3.045425 2.999965 1.330299
  H 2.682490 -3.039727 0.151458
  H 6.701263 -2.051624 -0.545836
  H 4.978432 -1.902989 -3.752650
  H 5.296389 -0.266448 -3.161237
  H 2.913427 -0.089261 -2.433504
  H 2.612927 -1.719877 -3.024914
  H 3.524339 0.638491 -4.747329
  H 1.896460 -0.029396 -4.694628
  H 3.218741 -0.995243 -5.339750
  H 6.783991 -2.633644 -2.062853
