 23
 0.000000
  C 0.990032 0.133440 0.376633
  C 2.461805 0.138541 0.400488
  C 3.224021 0.611944 1.577326
  C 2.432140 1.099733 2.787136
  C 3.377388 1.545319 3.899294
  C 3.118722 -0.319843 -0.740762
  C 4.503374 -0.383859 -0.903060
  C 5.124010 -0.836009 -2.043286
  H 4.587869 -1.180648 -2.919006
  O 6.408451 -0.904654 -2.211777
  H 0.540413 0.508050 1.287885
  H 0.621768 -0.879457 0.203772
  H 0.634392 0.727669 -0.466985
  H 3.886569 1.422828 1.253477
  H 3.884330 -0.198766 1.906250
  H 1.794181 0.301484 3.170132
  H 1.796964 1.942846 2.510343
  H 4.011575 0.723940 4.225153
  H 2.810915 1.892222 4.759832
  H 4.014375 2.361709 3.566616
  H 2.502414 -0.649047 -1.566200
  H 5.127849 -0.060400 -0.081255
  H 6.934487 -0.601283 -1.445525
 23
 -0.182006
  C 1.021097 0.039176 0.408155
  C 2.488912 0.130173 0.411418
  C 3.231396 0.635883 1.587020
  C 2.414467 1.099866 2.788261
  C 3.329844 1.643508 3.880839
  C 3.161544 -0.241608 -0.748607
  C 4.540162 -0.424077 -0.872877
  C 5.119146 -0.771951 -2.074014
  H 4.524924 -0.838288 -2.978754
  O 6.373994 -1.035485 -2.269094
  H 0.602967 0.020844 1.408073
  H 0.695606 -0.838580 -0.145426
  H 0.602857 0.906987 -0.108718
  H 3.867035 1.466076 1.258897
  H 3.927114 -0.142486 1.921498
  H 1.838024 0.269434 3.199709
  H 1.718444 1.884894 2.489098
  H 4.024570 0.880438 4.223489
  H 2.744750 1.971115 4.735990
  H 3.902998 2.494888 3.521860
  H 2.560205 -0.434626 -1.627167
  H 5.165567 -0.343983 0.005044
  H 6.933341 -0.977045 -1.468015
 23
 3.430329
  C 1.080676 -0.067435 0.426431
  C 2.522814 0.215711 0.392929
  C 3.236398 0.777700 1.558738
  C 2.415427 1.062431 2.811899
  C 3.284182 1.709653 3.886258
  C 3.210670 -0.041773 -0.792588
  C 4.525224 -0.486710 -0.884732
  C 5.141896 -0.728963 -2.092893
  H 4.673816 -0.434437 -3.025297
  O 6.297895 -1.296975 -2.260906
  H 0.741728 -0.275268 1.436369
  H 0.856093 -0.911726 -0.220059
  H 0.508350 0.790248 0.065295
  H 3.720341 1.706911 1.235117
  H 4.069625 0.114944 1.821611
  H 1.999747 0.135434 3.210751
  H 1.589303 1.734297 2.575779
  H 4.109748 1.059168 4.165705
  H 2.696651 1.907589 4.779162
  H 3.694086 2.655199 3.538689
  H 2.647919 0.041179 -1.714881
  H 5.044100 -0.751487 0.026930
  H 6.741265 -1.568176 -1.432333
 23
 11.123874
  C 1.189191 -0.185831 0.442903
  C 2.582162 0.278601 0.408949
  C 3.242310 0.894002 1.573878
  C 2.407317 1.061489 2.838880
  C 3.207402 1.789589 3.914808
  C 3.297253 0.133123 -0.794899
  C 4.483952 -0.566844 -0.924171
  C 5.151549 -0.715961 -2.120649
  H 4.851289 -0.161137 -3.001506
  O 6.166799 -1.504986 -2.335789
  H 0.929265 -0.532196 1.439315
  H 1.059495 -0.988665 -0.277985
  H 0.488251 0.616803 0.201655
  H 3.618690 1.874012 1.258436
  H 4.151680 0.325193 1.809912
  H 2.107089 0.086674 3.226789
  H 1.505976 1.635080 2.620210
  H 4.106795 1.236020 4.174625
  H 2.611463 1.903869 4.816741
  H 3.500233 2.781719 3.578782
  H 2.840056 0.541330 -1.689276
  H 4.847897 -1.105223 -0.058526
  H 6.454334 -2.010852 -1.550581
 23
 22.212076
  C 1.355029 -0.311318 0.481119
  C 2.687072 0.292513 0.465284
  C 3.260843 0.976043 1.631530
  C 2.378806 1.086638 2.870987
  C 3.082531 1.895425 3.956321
  C 3.442029 0.234177 -0.751581
  C 4.433310 -0.679458 -1.012349
  C 5.131709 -0.727729 -2.205199
  H 4.986611 0.021392 -2.971866
  O 5.994813 -1.651982 -2.546072
  H 1.159629 -0.757008 1.454509
  H 1.267351 -1.056480 -0.304477
  H 0.572823 0.441374 0.342047
  H 3.571773 1.977694 1.312004
  H 4.206771 0.483246 1.900280
  H 2.152401 0.095743 3.266447
  H 1.438132 1.576069 2.618338
  H 4.019040 1.425501 4.248686
  H 2.453697 1.969376 4.840112
  H 3.298033 2.904928 3.613061
  H 3.166465 0.944078 -1.523219
  H 4.639811 -1.434844 -0.265268
  H 6.129465 -2.335801 -1.862453
 23
 17.967571
  C 1.516063 -0.458929 0.559216
  C 2.796410 0.248282 0.530024
  C 3.278284 1.029518 1.680287
  C 2.357080 1.124266 2.892984
  C 2.976901 2.014061 3.966310
  C 3.585196 0.245912 -0.658061
  C 4.342613 -0.816209 -1.115207
  C 5.075742 -0.732455 -2.281919
  H 5.062293 0.163995 -2.888050
  O 5.843267 -1.670318 -2.772939
  H 1.309082 -0.909240 1.529050
  H 1.417637 -1.185507 -0.243007
  H 0.735839 0.293565 0.405022
  H 3.532179 2.042509 1.339588
  H 4.242436 0.604559 1.984174
  H 2.185291 0.134163 3.317756
  H 1.392867 1.541808 2.600010
  H 3.933704 1.617137 4.297777
  H 2.321509 2.075766 4.831144
  H 3.135353 3.023240 3.593150
  H 3.591747 1.162997 -1.236773
  H 4.380006 -1.723259 -0.527587
  H 5.863147 -2.486636 -2.237369
 23
 7.586155
  C 1.712599 -0.600659 0.653872
  C 2.933866 0.203882 0.597043
  C 3.312397 1.080678 1.725602
  C 2.345276 1.153406 2.903646
  C 2.855659 2.133243 3.955266
  C 3.730464 0.227256 -0.556529
  C 4.244601 -0.883568 -1.221327
  C 5.004217 -0.723853 -2.359438
  H 5.132140 0.252966 -2.809863
  O 5.630268 -1.667109 -3.004620
  H 1.562124 -1.073076 1.624245
  H 1.635385 -1.316530 -0.158264
  H 0.880523 0.098349 0.533755
  H 3.496867 2.095606 1.346593
  H 4.291784 0.744086 2.086763
  H 2.235029 0.173525 3.367476
  H 1.362625 1.480129 2.561624
  H 3.827899 1.827131 4.334296
  H 2.165988 2.179683 4.796892
  H 2.949054 3.133939 3.542935
  H 4.019532 1.201740 -0.934248
  H 4.098720 -1.867494 -0.796888
  H 5.524634 -2.557809 -2.616693
 23
 1.411059
  C 1.924451 -0.748480 0.769317
  C 3.083142 0.146681 0.683062
  C 3.344452 1.124279 1.762998
  C 2.345482 1.172630 2.912975
  C 2.730978 2.253437 3.917961
  C 3.908473 0.171381 -0.436102
  C 4.185276 -0.899923 -1.292905
  C 4.931714 -0.699045 -2.433903
  H 5.226436 0.299923 -2.734433
  O 5.340087 -1.618371 -3.256789
  H 1.848645 -1.227844 1.743472
  H 1.892437 -1.474927 -0.033723
  H 1.027682 -0.128506 0.678467
  H 3.431740 2.123476 1.321046
  H 4.342402 0.917253 2.168626
  H 2.313353 0.212699 3.430551
  H 1.345501 1.383953 2.531242
  H 3.716114 2.062532 4.337638
  H 2.017106 2.281141 4.737346
  H 2.742849 3.235207 3.450010
  H 4.436050 1.095008 -0.640037
  H 3.852573 -1.895706 -1.038350
  H 5.085457 -2.528556 -3.007485
 23
 3.521279
  C 2.089694 -0.800286 0.785258
  C 3.215835 0.139914 0.740869
  C 3.378787 1.175931 1.786148
  C 2.395166 1.142047 2.949829
  C 2.645892 2.302773 3.908917
  C 4.091837 0.130194 -0.329376
  C 4.263999 -0.927315 -1.246526
  C 4.691406 -0.684602 -2.530041
  H 4.780981 0.334047 -2.902228
  O 4.933286 -1.580185 -3.441071
  H 1.893193 -1.167662 1.788215
  H 2.227062 -1.603289 0.071376
  H 1.188319 -0.262997 0.470584
  H 3.314588 2.159669 1.301812
  H 4.402387 1.125086 2.172187
  H 2.498928 0.207422 3.500723
  H 1.371732 1.203875 2.579585
  H 3.648149 2.259698 4.316966
  H 1.942962 2.268513 4.739634
  H 2.522907 3.260576 3.403987
  H 4.711792 1.006871 -0.480829
  H 4.175765 -1.947916 -0.899483
  H 4.861553 -2.505389 -3.130988
 23
 11.178969
  C 2.219221 -0.775662 0.724209
  C 3.288798 0.233303 0.733956
  C 3.413086 1.241521 1.810865
  C 2.424574 1.123010 2.964148
  C 2.605078 2.265557 3.958083
  C 4.153093 0.234584 -0.336600
  C 4.323614 -0.894891 -1.195063
  C 4.429193 -0.754046 -2.554118
  H 4.191805 0.189860 -3.031999
  O 4.669915 -1.707645 -3.410504
  H 1.946916 -1.146742 1.703795
  H 2.519742 -1.535299 0.000888
  H 1.325319 -0.347270 0.261002
  H 3.300404 2.231662 1.352603
  H 4.436831 1.222925 2.199948
  H 2.572398 0.176930 3.489130
  H 1.401970 1.141592 2.584141
  H 3.609733 2.264384 4.375311
  H 1.897445 2.171429 4.777976
  H 2.436016 3.228005 3.479952
  H 4.758233 1.110205 -0.534893
  H 4.649377 -1.822630 -0.740832
  H 4.894347 -2.568525 -3.005962
 23
 23.470219
  C 2.345956 -0.724730 0.662522
  C 3.355670 0.318166 0.714171
  C 3.437727 1.309071 1.840613
  C 2.457063 1.104329 2.979610
  C 2.564651 2.221538 4.005330
  C 4.198372 0.338163 -0.350167
  C 4.312461 -0.872665 -1.137298
  C 4.245964 -0.839830 -2.520247
  H 3.852200 0.046942 -3.026918
  O 4.476317 -1.825669 -3.325469
  H 2.019160 -1.142217 1.601053
  H 2.803335 -1.389373 -0.126429
  H 1.488099 -0.430810 0.055423
  H 3.281469 2.285668 1.405022
  H 4.473419 1.321343 2.245031
  H 2.648681 0.141662 3.484415
  H 1.445010 1.078058 2.592470
  H 3.570649 2.263701 4.430459
  H 1.850555 2.068572 4.811638
  H 2.349865 3.180128 3.558637
  H 4.800571 1.200657 -0.592681
  H 4.901610 -1.680811 -0.698143
  H 4.839495 -2.618429 -2.903329
 23
 38.278761
  C 2.402115 -0.666285 0.615382
  C 3.381142 0.405829 0.706335
  C 3.458107 1.357125 1.855090
  C 2.455896 1.100935 2.977779
  C 2.560082 2.176103 4.053544
  C 4.250241 0.415230 -0.338061
  C 4.254621 -0.853228 -1.086008
  C 4.151684 -0.860370 -2.474234
  H 3.788903 0.013262 -3.004722
  O 4.375577 -1.876032 -3.253816
  H 2.063413 -1.120164 1.532628
  H 3.066816 -1.287527 -0.308050
  H 1.613673 -0.569286 -0.129247
  H 3.288024 2.361707 1.453133
  H 4.470784 1.354156 2.265588
  H 2.649195 0.130040 3.436798
  H 1.441120 1.096591 2.575427
  H 3.558512 2.196896 4.484566
  H 1.850625 1.984598 4.854526
  H 2.346440 3.159581 3.641211
  H 4.948170 1.204018 -0.560098
  H 4.935024 -1.594375 -0.670446
  H 4.693335 -2.685907 -2.805355
 23
 43.865318
  C 2.320533 -0.597985 0.632271
  C 3.362430 0.373570 0.739311
  C 3.479701 1.319263 1.901386
  C 2.435768 1.132941 2.999490
  C 2.593066 2.196185 4.080736
  C 4.269947 0.347391 -0.273169
  C 4.226897 -0.913280 -1.066228
  C 4.184394 -0.830041 -2.482050
  H 3.861549 0.085655 -2.966263
  O 4.443544 -1.784269 -3.307557
  H 1.906556 -1.032998 1.528057
  H 3.219532 -1.327692 -0.543709
  H 1.620480 -0.536819 -0.187876
  H 3.390644 2.332032 1.497039
  H 4.477892 1.241188 2.337904
  H 2.547651 0.149559 3.459262
  H 1.432588 1.202438 2.573464
  H 3.580735 2.143358 4.533928
  H 1.853231 2.055344 4.865104
  H 2.460797 3.193288 3.666069
  H 5.015990 1.101006 -0.451894
  H 4.920420 -1.667446 -0.681905
  H 4.731983 -2.631679 -2.907112
 23
 39.622258
  C 2.101458 -0.502725 0.669800
  C 3.248732 0.283284 0.777571
  C 3.480737 1.213097 1.946227
  C 2.409940 1.188904 3.032686
  C 2.710329 2.227808 4.107631
  C 4.216846 0.190616 -0.192906
  C 4.185471 -1.002209 -1.084350
  C 4.305865 -0.742508 -2.495246
  H 4.042336 0.234350 -2.889235
  O 4.701107 -1.570665 -3.383491
  H 1.546803 -0.783220 1.548320
  H 3.201613 -1.463490 -0.800306
  H 1.554960 -0.576679 -0.254070
  H 3.540316 2.223874 1.533326
  H 4.450591 0.996663 2.399876
  H 2.372641 0.203269 3.499992
  H 1.431793 1.400354 2.595489
  H 3.675331 2.035679 4.571861
  H 1.950186 2.203444 4.884835
  H 2.728755 3.229473 3.683370
  H 5.027129 0.895422 -0.268345
  H 4.884820 -1.771389 -0.734444
  H 4.949218 -2.467092 -3.067057
 23
 35.058281
  C 1.887200 -0.313451 0.629653
  C 3.109501 0.280477 0.768818
  C 3.459360 1.147279 1.960113
  C 2.398296 1.232097 3.053680
  C 2.858469 2.147058 4.177399
  C 4.111351 0.112146 -0.183553
  C 4.131960 -1.044642 -1.110265
  C 4.432628 -0.703308 -2.490768
  H 4.231132 0.304024 -2.853738
  O 4.992076 -1.462223 -3.345501
  H 1.181343 -0.349609 1.435864
  H 3.164808 -1.558853 -1.012873
  H 1.516019 -0.626169 -0.330416
  H 3.652961 2.153820 1.581374
  H 4.392809 0.786509 2.404236
  H 2.206055 0.239187 3.465310
  H 1.467962 1.620567 2.641002
  H 3.784578 1.778004 4.623812
  H 2.104470 2.200181 4.957227
  H 3.034659 3.154993 3.806829
  H 4.965475 0.772608 -0.183537
  H 4.844889 -1.788138 -0.727713
  H 5.189188 -2.383639 -3.062255
