19
 0
 C -2.91833929 -0.12407848 -2.28707450
 C -2.70104355 -1.33487450 -1.38773188
 C -2.15091425 -2.50338340 -2.20387661
 C -1.80953239 -1.11093870 -0.16508092
 C -1.07594242 0.18971751 0.04018225
 O -1.66488465 -2.01635233 0.66441271
 H -3.62236213 -0.36216946 -3.09196958
 H -1.98304635 0.20576043 -2.75224090
 H -3.33719911 0.71597454 -1.72321522
 H -3.68307779 -1.61958786 -0.98770199
 H -1.15263355 -2.27760043 -2.59451545
 H -2.80705644 -2.73317166 -3.05014811
 H -2.06849249 -3.40851341 -1.59232160
 H -1.31654087 0.94611017 -0.70455979
 H 0.00000000 0.00000000 0.00000000
 H -1.34391320 0.59069198 1.02204343
 O 2.40000000 0.00000000 0.00000000
 H 2.85978125 -0.85122736 -0.05458952
 H 3.11377174 0.64429848 0.11985406
