 17
 0.000000
  H 1.426371 0.160959 0.451448
  C 2.500296 0.135986 0.389094
  H 3.085527 0.472576 1.227201
  C 3.060339 -0.328432 -0.767772
  C 4.444150 -0.413128 -0.979103
  C 5.130278 -0.869511 -2.116498
  C 4.617045 -1.387214 -3.406636
  C 3.128536 -1.499796 -3.687965
  H 2.994397 -1.901115 -4.687808
  O 6.438657 -0.862170 -2.098354
  H 2.391558 -0.642798 -1.550755
  H 5.068589 -0.082337 -0.155170
  H 5.080514 -2.373029 -3.537749
  H 5.081048 -0.766027 -4.182986
  H 2.642033 -0.528542 -3.653285
  H 2.641644 -2.177323 -2.991474
  H 6.848170 -0.532210 -1.274296
 17
 -0.041848
  H 1.465659 0.326707 0.482430
  C 2.525490 0.203946 0.345699
  H 3.171166 0.655764 1.082315
  C 3.024077 -0.449124 -0.742024
  C 4.408922 -0.505330 -0.963142
  C 5.124917 -0.910086 -2.100596
  C 4.624260 -1.356143 -3.420398
  C 3.136922 -1.490802 -3.691815
  H 3.003146 -1.783104 -4.732374
  O 6.430129 -0.884394 -2.063517
  H 2.338788 -0.898069 -1.439364
  H 5.014853 -0.117809 -0.151047
  H 5.122890 -2.310536 -3.628862
  H 5.064324 -0.668293 -4.155686
  H 2.615814 -0.548290 -3.548250
  H 2.685393 -2.263769 -3.076250
  H 6.830474 -0.594991 -1.219645
 17
 1.477712
  H 1.471093 0.478169 0.305713
  C 2.524887 0.257833 0.264624
  H 3.158591 0.809097 0.939264
  C 3.037423 -0.550611 -0.706239
  C 4.423428 -0.586533 -0.927905
  C 5.136373 -0.953976 -2.077764
  C 4.618159 -1.309781 -3.419117
  C 3.127768 -1.471350 -3.659922
  H 2.968594 -1.645687 -4.724396
  O 6.442168 -0.931532 -2.049793
  H 2.372049 -1.116981 -1.326797
  H 5.034525 -0.181440 -0.118188
  H 5.142303 -2.222176 -3.718832
  H 5.013132 -0.543999 -4.101483
  H 2.578948 -0.578296 -3.390043
  H 2.724890 -2.328386 -3.124868
  H 6.851163 -0.718566 -1.186380
 17
 6.373932
  H 1.550671 0.681089 -0.048473
  C 2.556112 0.328643 0.085397
  H 3.201733 0.961869 0.673166
  C 3.039405 -0.737917 -0.621592
  C 4.428500 -0.721145 -0.870902
  C 5.137992 -1.005158 -2.035456
  C 4.606420 -1.226037 -3.401585
  C 3.114789 -1.439316 -3.603401
  H 2.919779 -1.537227 -4.668030
  O 6.445378 -0.934486 -2.020449
  H 2.382539 -1.405625 -1.139271
  H 5.037799 -0.368980 -0.047046
  H 5.161954 -2.078875 -3.816194
  H 4.931439 -0.369513 -3.998918
  H 2.539190 -0.593593 -3.245011
  H 2.774202 -2.348934 -3.120984
  H 6.860543 -0.799513 -1.144358
 17
 14.617531
  H 1.728277 0.922869 -0.409270
  C 2.620709 0.403274 -0.106913
  H 3.219820 0.953063 0.601508
  C 3.017127 -0.789415 -0.605887
  C 4.427713 -0.770875 -0.804730
  C 5.119179 -0.982041 -1.989182
  C 4.580869 -1.159002 -3.363889
  C 3.103254 -1.458334 -3.562603
  H 2.893027 -1.470520 -4.629023
  O 6.438769 -0.992134 -1.979891
  H 2.357432 -1.479370 -1.104346
  H 5.047950 -0.540928 0.056781
  H 5.182721 -1.946573 -3.827508
  H 4.842206 -0.247651 -3.915986
  H 2.476772 -0.699849 -3.111410
  H 2.847919 -2.437449 -3.168562
  H 6.856885 -0.901431 -1.106090
 17
 23.950451
  H 1.856725 0.937419 -0.669875
  C 2.687615 0.383201 -0.249558
  H 3.219229 0.945067 0.501114
  C 3.006431 -0.886878 -0.565014
  C 4.422646 -0.766880 -0.771087
  C 5.109584 -0.973893 -1.953119
  C 4.575741 -1.150077 -3.329692
  C 3.090189 -1.396498 -3.530746
  H 2.882209 -1.403702 -4.600623
  O 6.433639 -1.025954 -1.939180
  H 2.360369 -1.581866 -1.068898
  H 5.041469 -0.633927 0.112413
  H 5.150888 -1.970665 -3.779513
  H 4.872689 -0.259282 -3.890863
  H 2.485873 -0.613159 -3.088067
  H 2.794092 -2.362507 -3.133924
  H 6.852421 -0.830073 -1.081397
 17
 33.968025
  H 2.326467 1.001417 -1.083373
  C 2.938804 0.364934 -0.447289
  H 3.410045 0.909302 0.358058
  C 2.879969 -1.005589 -0.539024
  C 4.310623 -0.809785 -0.700879
  C 5.048185 -0.946619 -1.884024
  C 4.555198 -1.087920 -3.280971
  C 3.084875 -1.387703 -3.525483
  H 2.912261 -1.410407 -4.598847
  O 6.365590 -0.959685 -1.827481
  H 2.189539 -1.671965 -1.008129
  H 4.896193 -0.711435 0.206689
  H 5.167998 -1.868070 -3.744451
  H 4.834125 -0.165648 -3.803697
  H 2.434973 -0.626539 -3.108118
  H 2.813491 -2.362741 -3.130272
  H 6.754338 -0.828728 -0.942560
 17
 30.730313
  H 2.543250 0.901685 -1.267745
  C 3.030223 0.303714 -0.504099
  H 3.313535 0.891930 0.360812
  C 2.880228 -1.091795 -0.466271
  C 4.295581 -0.730433 -0.669726
  C 5.041561 -0.907457 -1.874087
  C 4.536448 -1.081811 -3.261091
  C 3.058796 -1.334564 -3.517548
  H 2.900679 -1.378603 -4.593971
  O 6.338639 -0.935863 -1.816006
  H 2.236071 -1.784383 -0.957502
  H 4.897176 -0.639636 0.232423
  H 5.124569 -1.896210 -3.701210
  H 4.858119 -0.187098 -3.810462
  H 2.426811 -0.542446 -3.130982
  H 2.743576 -2.287049 -3.107171
  H 6.743861 -0.789804 -0.935088
 17
 29.256930
  H 2.443540 0.662908 -1.376851
  C 2.972888 0.194301 -0.555365
  H 3.058792 0.851276 0.300459
  C 2.994367 -1.212998 -0.408955
  C 4.325893 -0.622518 -0.683398
  C 5.053058 -0.880071 -1.886849
  C 4.536830 -1.126258 -3.253545
  C 3.041892 -1.148107 -3.529474
  H 2.893983 -1.344307 -4.588359
  O 6.347707 -0.959006 -1.835499
  H 2.464288 -2.043125 -0.813362
  H 4.954453 -0.445550 0.184907
  H 4.985347 -2.070474 -3.583732
  H 5.009420 -0.366332 -3.887595
  H 2.572063 -0.196376 -3.308395
  H 2.538807 -1.936419 -2.980336
  H 6.767106 -0.784961 -0.968908
 17
 28.924412
  H 2.354032 0.466201 -1.439251
  C 2.924549 0.103438 -0.593332
  H 2.844926 0.763311 0.263236
  C 3.129773 -1.287951 -0.379711
  C 4.346431 -0.500074 -0.713671
  C 5.060816 -0.836507 -1.911569
  C 4.518655 -1.152105 -3.252672
  C 3.033641 -1.005122 -3.539938
  H 2.844138 -1.353349 -4.552278
  O 6.347759 -0.971808 -1.858572
  H 2.730848 -2.233584 -0.660252
  H 4.989448 -0.245490 0.125446
  H 4.844252 -2.175320 -3.482099
  H 5.083413 -0.527123 -3.954701
  H 2.719481 0.031124 -3.491255
  H 2.424452 -1.599947 -2.865336
  H 6.782270 -0.774698 -1.003469
 17
 28.569680
  H 2.361964 0.457389 -1.430468
  C 2.922493 0.087734 -0.581380
  H 2.861416 0.753804 0.270175
  C 3.116718 -1.303564 -0.374723
  C 4.349489 -0.535030 -0.700650
  C 5.061947 -0.831990 -1.908362
  C 4.516191 -1.165527 -3.245019
  C 3.034391 -0.991718 -3.544365
  H 2.840943 -1.369470 -4.544879
  O 6.354218 -0.908066 -1.874515
  H 2.711256 -2.234044 -0.696292
  H 4.991133 -0.278130 0.137487
  H 4.811432 -2.203796 -3.441901
  H 5.101771 -0.579549 -3.963248
  H 2.748731 0.055073 -3.533440
  H 2.405761 -1.546312 -2.856168
  H 6.789030 -0.705809 -1.021678
