 19
 0.000000
  C 1.016031 0.121034 0.354025
  C 2.483664 0.117516 0.344924
  C 3.219076 0.592543 1.524574
  H 2.544776 0.909547 2.312952
  C 3.130630 -0.341888 -0.797411
  C 4.524113 -0.406476 -0.959553
  C 5.163517 -0.859468 -2.089791
  C 4.555614 -1.352697 -3.321572
  H 3.472494 -1.349274 -3.314633
  H 6.245204 -0.854575 -2.077115
  H 0.607289 0.496067 1.286047
  H 0.635821 -0.885853 0.173381
  H 0.635742 0.722293 -0.473544
  H 3.873405 1.424272 1.260887
  H 3.874189 -0.189373 1.910393
  H 2.504004 -0.670488 -1.614210
  H 5.147558 -0.077970 -0.140669
  H 4.920845 -2.362163 -3.523273
  H 4.921782 -0.762169 -4.164378
 19
 -0.178517
  C 1.031348 0.030366 0.394670
  C 2.499324 0.117293 0.345571
  C 3.208562 0.669353 1.506628
  H 2.566273 1.336499 2.077176
  C 3.146109 -0.340846 -0.798309
  C 4.534055 -0.401010 -0.974768
  C 5.164706 -0.853628 -2.110840
  C 4.547688 -1.327365 -3.345767
  H 3.466686 -1.292922 -3.347747
  H 6.247298 -0.861213 -2.102094
  H 0.637905 0.246524 1.383077
  H 0.682745 -0.946002 0.058316
  H 0.605220 0.750007 -0.308990
  H 4.130189 1.178918 1.240663
  H 3.475571 -0.154676 2.174054
  H 2.514419 -0.693538 -1.603429
  H 5.165922 -0.085064 -0.157164
  H 4.883319 -2.349370 -3.542662
  H 4.937088 -0.747983 -4.186709
 19
 0.031946
  C 1.060814 -0.069846 0.445306
  C 2.524883 0.076507 0.369235
  C 3.203526 0.712914 1.503075
  H 2.745041 1.682496 1.694098
  C 3.163230 -0.353146 -0.787944
  C 4.548406 -0.435404 -0.977743
  C 5.161007 -0.849170 -2.138743
  C 4.525030 -1.264694 -3.385339
  H 3.444712 -1.223581 -3.371513
  H 6.242411 -0.871332 -2.141606
  H 0.674119 0.173436 1.429392
  H 0.754124 -1.077530 0.167330
  H 0.591802 0.593097 -0.286921
  H 4.270100 0.844548 1.364902
  H 3.023603 0.128892 2.411028
  H 2.520764 -0.679730 -1.599533
  H 5.193357 -0.175698 -0.151556
  H 4.848752 -2.279795 -3.630096
  H 4.907441 -0.653250 -4.203862
 19
 3.396802
  C 1.095213 -0.228695 0.535009
  C 2.552775 -0.012854 0.423159
  C 3.182972 0.842201 1.431947
  H 2.656331 1.798609 1.428809
  C 3.159389 -0.343382 -0.788640
  C 4.522274 -0.611610 -0.937783
  C 5.143320 -0.937291 -2.118599
  C 4.526087 -1.110064 -3.428780
  H 3.464578 -0.889686 -3.446887
  H 6.215537 -1.111096 -2.078396
  H 0.716614 0.081125 1.503577
  H 0.849360 -1.278285 0.384486
  H 0.582667 0.327056 -0.255452
  H 4.234786 1.033157 1.237106
  H 3.054897 0.427997 2.434593
  H 2.512040 -0.505567 -1.634717
  H 5.141231 -0.569927 -0.040601
  H 4.684155 -2.136067 -3.767555
  H 5.050631 -0.491678 -4.159349
 19
 23.766719
  C 1.304298 -0.330210 0.497101
  C 2.813138 -0.075433 0.577569
  C 3.004795 0.983707 1.568280
  H 2.299275 1.786269 1.371795
  C 3.313073 -0.337176 -0.702499
  C 4.634767 -0.726952 -0.975396
  C 5.126527 -0.993106 -2.226897
  C 4.376625 -1.084075 -3.475133
  H 3.330883 -0.812802 -3.384419
  H 6.167439 -1.277414 -2.296404
  H 0.823342 -0.072824 1.426540
  H 1.113226 -1.387357 0.298651
  H 0.891562 0.276474 -0.308891
  H 4.019641 1.385709 1.561389
  H 2.786783 0.608205 2.571085
  H 2.634326 -0.334552 -1.538226
  H 5.321093 -0.760208 -0.142414
  H 4.454892 -2.099157 -3.858938
  H 4.852261 -0.460428 -4.229564
 19
 63.573625
  C 1.394994 -0.179793 0.304519
  C 3.139833 0.141753 0.597806
  C 2.876272 0.966706 1.769273
  H 2.012215 1.611069 1.660535
  C 3.439157 -0.294559 -0.647596
  C 4.759055 -0.700580 -1.031731
  C 5.109101 -1.098393 -2.289637
  C 4.234778 -1.250264 -3.463738
  H 3.182034 -1.105127 -3.244412
  H 6.167532 -1.226019 -2.490471
  H 0.863090 0.105773 1.195519
  H 1.280581 -1.229813 0.129376
  H 1.120423 0.446958 -0.540354
  H 3.713411 1.623896 1.964214
  H 2.730608 0.323319 2.643282
  H 2.704853 -0.396232 -1.421535
  H 5.514200 -0.671659 -0.257616
  H 4.369790 -2.238057 -3.885550
  H 4.547495 -0.537311 -4.246980
 19
 88.253759
  C 1.066226 -0.184211 0.017540
  C 3.323097 0.235432 0.657941
  C 2.996644 0.872428 1.877108
  H 2.012405 1.320937 1.871780
  C 3.605025 -0.183306 -0.545139
  C 4.911953 -0.552393 -1.059971
  C 5.135637 -1.025582 -2.286915
  C 4.151117 -1.282810 -3.360376
  H 3.128333 -1.068766 -3.067645
  H 6.160406 -1.238807 -2.556744
  H 0.620853 0.117432 0.940870
  H 1.028439 -1.248775 -0.168426
  H 0.893409 0.474365 -0.802739
  H 3.698463 1.699683 2.051659
  H 3.047568 0.168523 2.707857
  H 2.796236 -0.373590 -1.260329
  H 5.734216 -0.423300 -0.365017
  H 4.217626 -2.330930 -3.677384
  H 4.404331 -0.681028 -4.227072
 19
 80.335989
  C 1.235963 -0.406252 -0.615857
  C 3.483666 0.307419 0.902212
  C 3.122915 0.951563 2.097217
  H 2.111485 1.351917 2.070100
  C 3.758657 -0.102936 -0.250995
  C 4.936365 -0.467848 -1.007105
  C 4.978111 -0.951553 -2.255111
  C 3.844966 -1.258119 -3.164973
  H 2.877426 -1.039222 -2.737511
  H 5.958105 -1.177279 -2.667418
  H 0.645712 -0.121530 0.233925
  H 1.259565 -1.467325 -0.808165
  H 1.159168 0.232072 -1.483330
  H 3.772328 1.806970 2.259165
  H 3.191386 0.259095 2.943375
  H 2.602078 -0.330231 -0.789750
  H 5.855633 -0.297861 -0.458894
  H 3.878148 -2.314522 -3.439892
  H 3.966891 -0.683635 -4.087296
 19
 57.059560
  C 1.215529 -0.479383 -0.736842
  C 3.661154 0.335197 0.983533
  C 3.215332 0.944898 2.169665
  H 2.176977 1.267857 2.095351
  C 3.961903 -0.075480 -0.144225
  C 4.982936 -0.455639 -1.030260
  C 4.916259 -0.922680 -2.302372
  C 3.735105 -1.195598 -3.124222
  H 2.797347 -0.984108 -2.628195
  H 5.862384 -1.136290 -2.784823
  H 0.627827 -0.174434 0.112186
  H 1.125148 -1.540691 -0.929277
  H 0.992817 0.113749 -1.616899
  H 3.812454 1.839851 2.354770
  H 3.321728 0.265053 3.015532
  H 2.350332 -0.321747 -0.648696
  H 5.965660 -0.335893 -0.585120
  H 3.750497 -2.239041 -3.442581
  H 3.800584 -0.609273 -4.043656
 19
 46.023366
  C 1.081757 -0.222372 -0.834049
  C 3.883633 0.242298 1.015505
  C 3.345248 0.884042 2.148975
  H 2.321130 1.216097 1.980697
  C 4.249207 -0.198237 -0.073680
  C 5.132116 -0.689481 -1.005052
  C 4.915306 -1.096754 -2.300394
  C 3.664417 -1.162021 -3.023670
  H 2.808102 -0.830016 -2.452965
  H 5.796774 -1.421673 -2.838785
  H 0.549557 0.153319 0.028151
  H 0.744002 -1.232318 -1.053081
  H 0.876397 0.407750 -1.689620
  H 3.970705 1.742263 2.403761
  H 3.374287 0.206761 3.004942
  H 2.148728 -0.206762 -0.620685
  H 6.151856 -0.737341 -0.640182
  H 3.506501 -2.181053 -3.389103
  H 3.752249 -0.578154 -3.946898
 19
 44.157972
  C 0.822951 -0.375806 -0.762776
  C 4.005248 0.351451 0.956845
  C 3.282285 0.827435 2.042473
  H 2.190546 0.790935 1.823464
  C 4.476543 -0.057234 -0.102268
  C 5.344057 -0.453961 -1.095815
  C 5.034601 -0.952263 -2.346726
  C 3.721840 -1.153369 -2.913671
  H 2.924072 -0.841936 -2.249793
  H 5.925016 -1.213346 -2.954891
  H 0.318307 0.005932 0.111263
  H 0.445619 -1.358792 -0.974470
  H 0.563933 0.232290 -1.619641
  H 3.625474 1.824135 2.317507
  H 3.501263 0.224519 2.932155
  H 1.895434 -0.397708 -0.587254
  H 6.431261 -0.357820 -0.856742
  H 3.597066 -2.192536 -3.228501
  H 3.652297 -0.647512 -3.880177
 19
 51.153461
  C 1.036121 -0.385106 -0.955148
  C 3.855247 0.425176 1.044818
  C 3.431393 0.876221 2.308260
  H 2.343045 0.931718 2.363737
  C 3.976840 -0.006200 -0.112196
  C 4.899101 -0.396267 -1.073454
  C 4.765968 -0.953395 -2.323953
  C 3.572147 -1.282208 -3.072044
  H 2.653076 -1.036648 -2.566618
  H 5.700471 -1.180567 -2.822355
  H 0.332621 -0.087772 -0.190228
  H 0.935011 -1.439349 -1.179809
  H 0.910395 0.220648 -1.840866
  H 3.840614 1.870613 2.502258
  H 3.781829 0.191669 3.081251
  H 2.065761 -0.194250 -0.604063
  H 5.917771 -0.215747 -0.740410
  H 3.590374 -2.351886 -3.314030
  H 3.610265 -0.792235 -4.044405
 19
 66.840302
  C 1.161169 -0.408901 -0.990233
  C 3.756655 0.410408 1.077151
  C 3.515671 0.920006 2.364347
  H 2.438227 1.057494 2.493772
  C 3.665684 -0.067505 -0.082677
  C 4.654903 -0.450612 -1.041904
  C 4.623934 -0.965517 -2.286280
  C 3.521179 -1.279998 -3.189920
  H 2.545449 -1.119689 -2.764238
  H 5.597815 -1.181601 -2.716306
  H 0.415175 -0.085288 -0.286981
  H 1.230014 -1.476424 -1.130287
  H 1.235527 0.201717 -1.883123
  H 3.939515 1.924922 2.465468
  H 3.881083 0.251063 3.147690
  H 2.156729 -0.235421 -0.497437
  H 5.648021 -0.300631 -0.619727
  H 3.600341 -2.321191 -3.493555
  H 3.630961 -0.678420 -4.105014
 19
 87.074937
  C 0.601585 -0.450773 -1.110288
  C 3.782072 0.392052 1.024105
  C 3.612065 0.896999 2.312496
  H 2.537248 1.053084 2.471564
  C 3.773559 -0.075965 -0.159342
  C 4.869317 -0.432024 -1.042636
  C 4.772567 -0.932745 -2.274881
  C 3.556280 -1.253332 -3.053193
  H 2.643555 -1.017372 -2.520810
  H 5.701595 -1.142874 -2.789455
  H -0.077993 -0.146320 -0.342366
  H 0.853234 -1.488223 -1.198473
  H 0.856287 0.244683 -1.883920
  H 4.077349 1.879007 2.425014
  H 3.955105 0.199127 3.076133
  H 2.731457 -0.258381 -0.558477
  H 5.845267 -0.256923 -0.616800
  H 3.556415 -2.311115 -3.305711
  H 3.571087 -0.704491 -3.992216
