 22
 0.000000
  C 0.970399 0.041841 0.199936
  C 2.474149 0.046370 0.159563
  C 3.286133 -0.026950 1.432572
  C 2.511166 -0.077842 2.748527
  C 3.469106 -0.146969 3.933903
  C 3.089034 0.117856 -1.029211
  H 2.526621 0.153703 -1.954993
  C 4.520748 0.132120 -1.239110
  C 5.075941 0.200353 -2.447077
  H 6.145268 0.210148 -2.589639
  H 0.579416 -0.021737 1.208775
  H 0.583643 -0.803984 -0.369130
  H 0.581812 0.951367 -0.258971
  H 3.950430 0.842146 1.468429
  H 3.922048 -0.917545 1.382223
  H 1.863877 -0.957374 2.769188
  H 1.888801 0.813944 2.851028
  H 4.093282 -1.036144 3.871145
  H 2.916286 -0.182902 4.870140
  H 4.118507 0.725921 3.953682
  H 5.163206 0.084512 -0.371436
  H 4.481597 0.249518 -3.348667
 22
 -0.096886
  C 0.985449 0.168729 0.200533
  C 2.488409 0.144463 0.173389
  C 3.280907 0.151611 1.459184
  C 2.518250 -0.183738 2.739672
  C 3.464166 -0.219138 3.935430
  C 3.106736 0.098372 -1.015075
  H 2.513079 0.055875 -1.920279
  C 4.531199 0.115114 -1.250430
  C 5.067783 0.053386 -2.466696
  H 6.132282 0.075148 -2.624414
  H 0.587028 0.217985 1.206651
  H 0.586614 -0.723879 -0.280623
  H 0.617300 1.030952 -0.354870
  H 3.747961 1.134606 1.582827
  H 4.084736 -0.581240 1.348002
  H 2.036336 -1.158350 2.635774
  H 1.745852 0.563783 2.930352
  H 4.238383 -0.969820 3.790354
  H 2.920191 -0.460475 4.845869
  H 3.946192 0.747025 4.070472
  H 5.183494 0.195366 -0.392177
  H 4.457552 -0.019811 -3.352170
 22
 0.059060
  C 0.979218 0.309410 0.203669
  C 2.480690 0.242588 0.185754
  C 3.253164 0.319728 1.479942
  C 2.557682 -0.301472 2.693163
  C 3.476660 -0.285964 3.909538
  C 3.107469 0.077031 -0.986608
  H 2.520764 -0.066002 -1.887061
  C 4.530216 0.105947 -1.235640
  C 5.058929 -0.105127 -2.438402
  H 6.120340 -0.059089 -2.611757
  H 0.587091 0.472330 1.200826
  H 0.551321 -0.613589 -0.186407
  H 0.636980 1.123566 -0.434670
  H 3.497471 1.362096 1.706957
  H 4.182271 -0.229405 1.318735
  H 2.280575 -1.332247 2.462002
  H 1.647267 0.247219 2.938710
  H 4.386998 -0.847533 3.710105
  H 2.980774 -0.731939 4.768763
  H 3.754256 0.734594 4.165521
  H 5.187294 0.337314 -0.408914
  H 4.444644 -0.329304 -3.295372
 22
 0.600097
  C 0.952031 0.450112 0.205443
  C 2.448967 0.330204 0.194977
  C 3.201980 0.474961 1.490118
  C 2.629647 -0.403836 2.609131
  C 3.511883 -0.348299 3.850573
  C 3.089980 0.032421 -0.942135
  H 2.527052 -0.241903 -1.827949
  C 4.510709 0.110971 -1.199962
  C 5.059291 -0.264906 -2.352348
  H 6.113126 -0.158053 -2.543861
  H 0.577609 0.715126 1.188968
  H 0.483081 -0.483956 -0.102498
  H 0.639698 1.220810 -0.498542
  H 3.223130 1.514916 1.823685
  H 4.210524 0.112963 1.289376
  H 2.563638 -1.434356 2.253704
  H 1.623518 -0.078368 2.877992
  H 4.517195 -0.696393 3.622796
  H 3.102348 -0.976263 4.638635
  H 3.580343 0.671122 4.225026
  H 5.145312 0.536659 -0.434961
  H 4.469142 -0.688176 -3.148888
 22
 4.658409
  C 0.914933 0.559579 0.182999
  C 2.400418 0.359424 0.206360
  C 3.144702 0.591846 1.492972
  C 2.697748 -0.450954 2.532423
  C 3.574066 -0.395547 3.777466
  C 3.073570 -0.104185 -0.857668
  H 2.558503 -0.572322 -1.691073
  C 4.463491 0.145336 -1.165419
  C 5.076647 -0.359639 -2.226747
  H 6.084642 -0.085814 -2.485041
  H 0.553842 0.918508 1.142645
  H 0.387824 -0.362818 -0.062069
  H 0.660698 1.293480 -0.580440
  H 3.015408 1.592484 1.901555
  H 4.177605 0.332124 1.254502
  H 2.753268 -1.445605 2.085478
  H 1.658893 -0.274705 2.819697
  H 4.612626 -0.597626 3.524447
  H 3.248450 -1.134457 4.506283
  H 3.520112 0.588320 4.239032
  H 5.001736 0.835151 -0.529837
  H 4.582238 -1.048612 -2.891616
 22
 16.488974
  C 0.878309 0.610821 0.081803
  C 2.337904 0.325138 0.217613
  C 3.076538 0.606483 1.499841
  C 2.718210 -0.464867 2.552401
  C 3.665627 -0.393612 3.742324
  C 3.089506 -0.248010 -0.742036
  H 2.638913 -0.879284 -1.505872
  C 4.406895 0.189056 -1.132994
  C 5.087699 -0.335053 -2.148908
  H 6.020368 0.085141 -2.482045
  H 0.484229 1.045769 0.996355
  H 0.306109 -0.289932 -0.146314
  H 0.724159 1.309347 -0.738821
  H 2.953942 1.596546 1.924032
  H 4.059387 0.245199 1.176920
  H 2.760761 -1.454798 2.095367
  H 1.693376 -0.313324 2.905684
  H 4.693822 -0.554377 3.424922
  H 3.409617 -1.153499 4.477601
  H 3.604116 0.581136 4.221779
  H 4.817329 1.040581 -0.605735
  H 4.720166 -1.185635 -2.698869
 22
 35.450807
  C 0.858225 0.662469 -0.049347
  C 2.275601 0.321406 0.222015
  C 2.975820 0.599379 1.522436
  C 2.746750 -0.496614 2.590075
  C 3.781731 -0.379965 3.700352
  C 3.088958 -0.307832 -0.626176
  H 2.704443 -1.056721 -1.314929
  C 4.341948 0.221276 -1.077894
  C 5.080144 -0.328966 -2.073058
  H 5.955802 0.161054 -2.464658
  H 0.411043 1.152702 0.810387
  H 0.270451 -0.228840 -0.280380
  H 0.798114 1.322429 -0.913301
  H 2.808736 1.583799 1.945086
  H 3.908518 0.148050 1.110977
  H 2.796788 -1.484069 2.129537
  H 1.746878 -0.389113 3.024710
  H 4.787551 -0.494775 3.301765
  H 3.619098 -1.149217 4.452623
  H 3.716494 0.592664 4.183203
  H 4.656575 1.161175 -0.636878
  H 4.811876 -1.269792 -2.527385
 22
 62.348444
  C 0.817350 0.722674 -0.174444
  C 2.195590 0.338827 0.235182
  C 2.849547 0.579695 1.539775
  C 2.763193 -0.515395 2.629336
  C 3.902431 -0.381540 3.628158
  C 3.109610 -0.383568 -0.504816
  H 2.782892 -1.186540 -1.177150
  C 4.313929 0.237404 -1.016944
  C 5.067836 -0.285183 -1.983530
  H 5.923427 0.235609 -2.375507
  H 0.319489 1.275223 0.618634
  H 0.227303 -0.168778 -0.400775
  H 0.839694 1.332489 -1.076862
  H 2.700668 1.559013 1.988372
  H 3.764635 -0.040076 1.023915
  H 2.771462 -1.510854 2.181428
  H 1.810254 -0.408444 3.164706
  H 4.864043 -0.514406 3.135929
  H 3.809482 -1.130543 4.411207
  H 3.890033 0.602352 4.091544
  H 4.576602 1.198115 -0.590916
  H 4.841646 -1.240218 -2.427656
 22
 77.736783
  C 0.825303 0.778920 -0.209432
  C 2.163442 0.358848 0.285701
  C 2.733843 0.567251 1.561641
  C 2.768766 -0.532139 2.623802
  C 3.939980 -0.368360 3.586128
  C 3.134294 -0.419003 -0.420759
  H 2.802441 -1.243903 -1.059588
  C 4.320205 0.238131 -0.991334
  C 5.058290 -0.278480 -1.965140
  H 5.902987 0.247422 -2.373353
  H 0.293152 1.346332 0.550642
  H 0.241178 -0.108583 -0.458756
  H 0.901388 1.381992 -1.115792
  H 2.548975 1.531179 2.052840
  H 3.760082 -0.209160 0.853711
  H 2.807326 -1.522401 2.163281
  H 1.833713 -0.471043 3.193656
  H 4.887733 -0.450416 3.056605
  H 3.909425 -1.134657 4.357455
  H 3.902053 0.605620 4.069078
  H 4.568489 1.210977 -0.583187
  H 4.842548 -1.244566 -2.390654
 22
 63.215687
  C 0.875745 0.813222 -0.215502
  C 2.173881 0.379194 0.352490
  C 2.648517 0.569536 1.602389
  C 2.749370 -0.524933 2.638442
  C 3.927931 -0.346547 3.593678
  C 3.186592 -0.471172 -0.340897
  H 2.834857 -1.302379 -0.944127
  C 4.337742 0.233007 -0.992361
  C 5.026181 -0.253922 -1.998826
  H 5.831713 0.295729 -2.453532
  H 0.310287 1.390089 0.512097
  H 0.310319 -0.079690 -0.481226
  H 0.991568 1.408448 -1.123424
  H 2.443450 1.514346 2.120578
  H 3.777487 -0.402185 0.690323
  H 2.813810 -1.508791 2.166928
  H 1.819588 -0.492161 3.213541
  H 4.871534 -0.393641 3.053061
  H 3.927598 -1.125950 4.352261
  H 3.868295 0.617967 4.093711
  H 4.580081 1.209067 -0.590050
  H 4.810620 -1.223087 -2.418820
 22
 37.849708
  C 1.034959 0.859694 -0.289069
  C 2.276582 0.388731 0.384952
  C 2.606631 0.550719 1.678160
  C 2.764730 -0.552048 2.696316
  C 3.876673 -0.302325 3.716835
  C 3.252354 -0.549832 -0.296829
  H 2.839326 -1.350230 -0.901397
  C 4.302438 0.215687 -1.063501
  C 4.872899 -0.208024 -2.165190
  H 5.622853 0.371840 -2.678316
  H 0.421734 1.443880 0.392640
  H 0.482752 -0.027969 -0.594753
  H 1.227698 1.452938 -1.187004
  H 2.304731 1.465137 2.200476
  H 3.864385 -0.690154 0.627976
  H 2.932211 -1.518925 2.214133
  H 1.805701 -0.602895 3.220381
  H 4.844946 -0.250180 3.223033
  H 3.909731 -1.102997 4.453535
  H 3.708475 0.637701 4.238892
  H 4.574206 1.174949 -0.639806
  H 4.627229 -1.163529 -2.601254
 22
 18.813335
  C 1.191639 0.905018 -0.380428
  C 2.272722 0.273853 0.429109
  C 2.469891 0.459937 1.725669
  C 2.761491 -0.601073 2.752107
  C 3.891580 -0.230185 3.713622
  C 3.260952 -0.644546 -0.258464
  H 2.838197 -1.418768 -0.893535
  C 4.246350 0.189690 -1.028446
  C 4.738964 -0.132813 -2.194439
  H 5.476804 0.474391 -2.690133
  H 0.582263 1.566624 0.230578
  H 0.565049 0.100667 -0.767436
  H 1.574161 1.464499 -1.234454
  H 2.085361 1.347982 2.225717
  H 3.868323 -0.950928 0.603130
  H 2.986755 -1.562479 2.286024
  H 1.834293 -0.718532 3.320866
  H 4.833060 -0.133856 3.175971
  H 4.010038 -0.992488 4.481234
  H 3.679140 0.718875 4.201422
  H 4.542167 1.110378 -0.543434
  H 4.450463 -1.039354 -2.701263
 22
 7.964927
  C 1.334664 0.989164 -0.413894
  C 2.302122 0.234538 0.441550
  C 2.368586 0.355808 1.762462
  C 2.798774 -0.672838 2.770495
  C 3.832375 -0.136958 3.761301
  C 3.243236 -0.703972 -0.275536
  H 2.749251 -1.391463 -0.958351
  C 4.253562 0.122021 -1.024052
  C 4.655485 -0.119738 -2.257120
  H 5.396676 0.489091 -2.746927
  H 0.724333 1.661676 0.183420
  H 0.683698 0.265275 -0.903154
  H 1.836142 1.562745 -1.194377
  H 1.891617 1.190165 2.270353
  H 3.818531 -1.199009 0.512576
  H 3.187804 -1.574698 2.296356
  H 1.894481 -0.954909 3.318247
  H 4.748215 0.137609 3.242023
  H 4.072540 -0.888260 4.510545
  H 3.450198 0.745913 4.269509
  H 4.655112 0.960632 -0.469816
  H 4.265171 -0.945640 -2.829802
 22
 2.252499
  C 1.446672 1.045934 -0.405199
  C 2.287919 0.159199 0.463088
  C 2.250280 0.227913 1.786984
  C 2.832889 -0.719705 2.793492
  C 3.807515 -0.013265 3.736118
  C 3.200917 -0.775820 -0.290547
  H 2.655503 -1.373109 -1.021756
  C 4.262052 0.028649 -0.984043
  C 4.589060 -0.096589 -2.256098
  H 5.366932 0.495442 -2.708208
  H 0.866613 1.746074 0.190407
  H 0.759671 0.430090 -0.985506
  H 2.063754 1.603813 -1.109375
  H 1.712042 1.035870 2.270904
  H 3.707529 -1.419111 0.431964
  H 3.336944 -1.562545 2.320773
  H 2.001894 -1.123248 3.380870
  H 4.653094 0.382482 3.177536
  H 4.183047 -0.704427 4.487574
  H 3.315676 0.813799 4.243729
  H 4.770168 0.747856 -0.354241
  H 4.092404 -0.802151 -2.902660
 22
 0.837637
  C 1.568868 1.073331 -0.388545
  C 2.328321 0.112516 0.480265
  C 2.194833 0.126834 1.802817
  C 2.829898 -0.752506 2.832812
  C 3.749995 0.054663 3.749879
  C 3.245464 -0.813084 -0.282208
  H 2.674183 -1.413802 -0.992645
  C 4.293908 -0.029320 -1.010786
  C 4.472090 -0.045936 -2.318171
  H 5.242340 0.533692 -2.798627
  H 0.995910 1.778330 0.207964
  H 0.881156 0.524931 -1.032833
  H 2.251656 1.626083 -1.032259
  H 1.542280 0.887260 2.218346
  H 3.743980 -1.474831 0.430829
  H 3.396895 -1.565438 2.378478
  H 2.035255 -1.202976 3.436174
  H 4.571984 0.481050 3.178891
  H 4.163317 -0.579163 4.531376
  H 3.201637 0.868516 4.219281
  H 4.923037 0.584397 -0.378443
  H 3.855566 -0.647394 -2.966785
