 17
 0.000000
  H 1.435040 -0.076215 0.038437
  C 2.508150 -0.084057 0.023043
  C 3.218919 -0.595528 -0.981065
  C 4.655645 -0.606779 -1.003148
  C 5.377539 -1.121511 -2.013653
  C 6.814952 -1.131083 -2.032440
  C 7.534467 -1.641774 -3.035018
  C 9.023518 -1.660942 -3.072642
  H 3.007411 0.350535 0.876221
  H 2.706623 -1.028432 -1.830915
  H 5.159434 -0.171978 -0.149565
  H 4.873689 -1.556323 -2.867262
  H 7.319893 -0.696488 -1.179254
  H 7.036766 -2.078031 -3.891448
  H 9.455134 -1.207687 -2.182831
  H 9.383287 -1.115719 -3.946067
  H 9.383285 -2.688015 -3.145168
 17
 9.138383
  H 1.409825 -0.259820 -0.322014
  C 2.466800 -0.163388 -0.132700
  C 3.394598 -0.598710 -0.987313
  C 4.785234 -0.486085 -0.766204
  C 5.393346 -1.022184 -1.818657
  C 6.841082 -1.092947 -1.957573
  C 7.472517 -1.626685 -3.005384
  C 8.950916 -1.705489 -3.160085
  H 2.738512 0.306516 0.789801
  H 3.042811 -1.068672 -1.909919
  H 5.251987 -0.030949 0.127306
  H 4.840371 -1.448845 -2.656261
  H 7.421291 -0.678684 -1.144298
  H 6.895840 -2.042247 -3.821197
  H 9.457628 -1.269138 -2.303472
  H 9.265258 -1.178848 -4.061241
  H 9.265258 -2.744046 -3.263949
 17
 33.230310
  H 1.465047 -0.393749 -0.584944
  C 2.481549 -0.230594 -0.264633
  C 3.541982 -0.607096 -1.003767
  C 4.870322 -0.403568 -0.604205
  C 5.391955 -0.955119 -1.686992
  C 6.839785 -1.061199 -1.895244
  C 7.404993 -1.612268 -2.977091
  C 8.871572 -1.731110 -3.210396
  H 2.595029 0.255470 0.689583
  H 3.265637 -1.079168 -1.930531
  H 5.279857 0.043272 0.273017
  H 4.872233 -1.379665 -2.520450
  H 7.475642 -0.663852 -1.115185
  H 6.775513 -2.012664 -3.763123
  H 9.434910 -1.309267 -2.382269
  H 9.151227 -1.212620 -4.127690
  H 9.151236 -2.777962 -3.330347
 17
 69.421749
  H 1.526715 -0.458662 -0.712379
  C 2.525005 -0.271230 -0.344410
  C 3.636772 -0.623879 -1.036717
  C 4.922382 -0.354389 -0.507664
  C 5.346785 -0.926308 -1.630433
  C 6.817826 -1.048218 -1.869760
  C 7.358851 -1.604112 -2.961079
  C 8.820453 -1.739450 -3.226778
  H 2.573493 0.216611 0.613312
  H 3.333449 -1.091032 -1.953822
  H 5.311376 0.091924 0.368520
  H 4.890892 -1.364899 -2.491461
  H 7.474308 -0.658676 -1.105028
  H 6.710691 -1.998838 -3.735987
  H 9.406124 -1.323564 -2.410329
  H 9.086042 -1.223704 -4.149921
  H 9.086060 -2.789435 -3.352386
 17
 111.074622
  H 1.577953 -0.499284 -0.792153
  C 2.565329 -0.301159 -0.403170
  C 3.702204 -0.644874 -1.077939
  C 4.963340 -0.319429 -0.439037
  C 5.296569 -0.912847 -1.604003
  C 6.792540 -1.042617 -1.858752
  C 7.321772 -1.599205 -2.951425
  C 8.782324 -1.743139 -3.234035
  H 2.585097 0.189632 0.560362
  H 3.356428 -1.105124 -1.981504
  H 5.342179 0.126841 0.437072
  H 4.909216 -1.361067 -2.483936
  H 7.457339 -0.655496 -1.098758
  H 6.664170 -1.991148 -3.720854
  H 9.379805 -1.329876 -2.422746
  H 9.041279 -1.227929 -4.160966
  H 9.041309 -2.795868 -3.362289
 17
 149.926059
  H 1.601965 -0.516055 -0.823476
  C 2.600291 -0.318021 -0.435299
  C 3.738026 -0.666965 -1.121429
  C 4.995059 -0.299058 -0.400102
  C 5.237570 -0.905450 -1.591053
  C 6.789001 -1.039945 -1.854058
  C 7.309257 -1.595262 -2.943976
  C 8.754130 -1.743621 -3.234338
  H 2.620807 0.167213 0.517342
  H 3.320907 -1.113566 -1.998115
  H 5.361027 0.141470 0.464901
  H 4.929384 -1.377370 -2.517190
  H 7.455076 -0.651253 -1.090517
  H 6.650978 -1.984840 -3.709257
  H 9.352502 -1.336016 -2.433709
  H 9.006076 -1.231734 -4.156980
  H 9.005552 -2.790947 -3.362743
 17
 175.618268
  H 1.629126 -0.623910 -0.811457
  C 2.618304 -0.366685 -0.452366
  C 3.751810 -0.681290 -1.157274
  C 5.017388 -0.197647 -0.400677
  C 5.200632 -0.851892 -1.605191
  C 6.774504 -1.019783 -1.862965
  C 7.288193 -1.602683 -2.939881
  C 8.743271 -1.776806 -3.234424
  H 2.633376 0.141071 0.503268
  H 3.312573 -1.170243 -2.017844
  H 5.362875 0.280952 0.462101
  H 4.943232 -1.344267 -2.519165
  H 7.437357 -0.622138 -1.101284
  H 6.621949 -2.000951 -3.700904
  H 9.353895 -1.358503 -2.437944
  H 9.001244 -1.282508 -4.172204
  H 8.982592 -2.835959 -3.343137
 17
 153.643933
  H 2.434135 -1.668689 -0.410553
  C 3.291153 -1.021844 -0.320114
  C 3.992655 -0.650576 -1.444643
  C 4.908902 0.655188 -0.801306
  C 5.149783 -0.167805 -1.958613
  C 6.484002 -0.932473 -1.892220
  C 7.086287 -1.458132 -2.946676
  C 8.439769 -2.070187 -2.933546
  H 3.496841 -0.675373 0.680473
  H 3.579794 -1.305141 -2.226200
  H 4.941923 1.199704 0.083562
  H 4.907909 -0.182942 -3.024766
  H 6.950954 -0.981732 -0.916830
  H 6.594361 -1.445769 -3.914972
  H 8.875050 -2.052724 -1.942564
  H 9.091063 -1.530021 -3.622372
  H 8.393879 -3.097052 -3.294561
 17
 115.359098
  H 2.891050 -2.244045 -0.280186
  C 3.550401 -1.404673 -0.432618
  C 3.993285 -1.087229 -1.632911
  C 5.005506 1.046447 -0.984349
  C 5.049685 -0.033719 -1.907563
  C 6.333720 -0.845663 -1.812646
  C 6.978821 -1.345272 -2.857373
  C 8.253797 -2.121657 -2.777086
  H 3.815418 -0.840390 0.445676
  H 3.724413 -1.718963 -2.471249
  H 5.076768 1.755276 -0.211392
  H 4.878593 0.324767 -2.934131
  H 6.691388 -1.006444 -0.802095
  H 6.590519 -1.196874 -3.859343
  H 8.621843 -2.160287 -1.764140
  H 9.010237 -1.655790 -3.409870
  H 8.103963 -3.142085 -3.138839
 17
 108.657254
  H 2.741484 -2.105536 -0.096446
  C 3.471455 -1.347599 -0.330733
  C 3.919082 -1.172672 -1.558572
  C 4.850944 0.987747 -1.101546
  C 5.020368 -0.167315 -1.915729
  C 6.341711 -0.941273 -1.814289
  C 7.031632 -1.363011 -2.860243
  C 8.337454 -2.089044 -2.785345
  H 3.788739 -0.712968 0.480812
  H 3.595785 -1.797622 -2.379697
  H 5.204489 1.726398 -0.423565
  H 4.892022 0.139238 -2.954197
  H 6.699591 -1.108338 -0.809295
  H 6.661797 -1.180255 -3.863704
  H 8.673767 -2.180611 -1.754366
  H 9.100531 -1.559962 -3.355843
  H 8.236940 -3.087403 -3.214566
