17

H 1.4339958810174263 -0.07464233016983816 0.04147342307366027
C 2.503862 -0.082233 0.026345
C 3.219304 -0.595299 -0.980453
C 4.657282 -0.605965 -1.001686
C 5.377072 -1.121633 -2.01359
C 6.815772 -1.131218 -2.032752
C 7.533456 -1.64338 -3.03776
C 9.02419 -1.661116 -3.073347
H 3.004111 0.35358 0.881307
H 2.707767 -1.028996 -1.831249
H 5.162244 -0.170838 -0.148081
H 4.872609 -1.556843 -2.867363
H 7.322936 -0.69654 -1.179988
H 7.035119 -2.079593 -3.894578
H 9.456845 -1.208766 -2.182486
H 9.385199 -1.113919 -3.9458
H 9.383883 -2.688821 -3.145721
