15

H 1.388734610904663 0.13608260284722568 0.390848013842382
C 2.458709 0.139076 0.397619
C 3.239141 0.609852 1.568419
C 2.455394 1.098204 2.783969
C 3.398405 1.545492 3.89631
C 3.07285 -0.324759 -0.756985
H 4.127301585534507 -0.3923474965457953 -0.9256967331380462
H 3.895117 1.422998 1.23706
H 3.895552 -0.206124 1.891843
H 1.817127 0.299885 3.167905
H 1.81673 1.939921 2.508782
H 4.034558 0.725296 4.222911
H 2.827875 1.890661 4.755559
H 4.034128 2.363876 3.564334
H 2.402903 -0.638834 -1.538514
