 15
 0.000000
  H 1.369037 0.157173 0.443449
  C 2.450020 0.143181 0.407881
  C 3.237921 0.604550 1.555149
  C 2.486839 1.090274 2.764124
  C 3.385581 1.545273 3.895800
  C 3.035938 -0.312644 -0.726753
  H 4.104344 -0.362371 -0.851101
  H 3.932616 1.384907 1.200325
  H 3.932955 -0.204096 1.838739
  H 1.820224 0.298659 3.130985
  H 1.819884 1.915370 2.481334
  H 4.030850 0.737820 4.238466
  H 2.805532 1.887847 4.748773
  H 4.030359 2.365640 3.584221
  H 2.422426 -0.642304 -1.547029
 15
 -0.298684
  H 1.384474 0.054892 0.568077
  C 2.456793 0.092404 0.440174
  C 3.268620 0.570452 1.564259
  C 2.517034 1.084855 2.754172
  C 3.375081 1.563460 3.901991
  C 3.006981 -0.277008 -0.739488
  H 4.075376 -0.288882 -0.888101
  H 4.009154 1.308225 1.205644
  H 3.952892 -0.247085 1.858281
  H 1.810082 0.319288 3.113272
  H 1.855043 1.906390 2.438744
  H 4.000203 0.762921 4.296345
  H 2.746394 1.927779 4.710765
  H 4.042832 2.368983 3.599064
  H 2.398862 -0.559009 -1.581689
 15
 -0.270139
  H 1.400494 -0.083258 0.598023
  C 2.463026 0.052064 0.445678
  C 3.263712 0.535316 1.574052
  C 2.511068 1.077370 2.753186
  C 3.373608 1.588636 3.883415
  C 3.004735 -0.215326 -0.762542
  H 4.064776 -0.128330 -0.940519
  H 4.046985 1.228341 1.227314
  H 3.894262 -0.315212 1.900687
  H 1.797132 0.333102 3.134086
  H 1.855421 1.892612 2.410747
  H 3.969542 0.790532 4.325395
  H 2.756384 2.012820 4.670575
  H 4.070796 2.351844 3.543099
  H 2.397324 -0.511698 -1.599986
 15
 -0.095782
  H 1.438098 -0.239674 0.642914
  C 2.478249 -0.003258 0.462045
  C 3.273703 0.492698 1.589685
  C 2.513310 1.064730 2.752283
  C 3.371725 1.614351 3.866934
  C 2.996596 -0.154089 -0.775215
  H 4.041761 0.019464 -0.976734
  H 4.083871 1.154086 1.249681
  H 3.850351 -0.383624 1.949755
  H 1.792331 0.338298 3.151287
  H 1.868026 1.873689 2.376192
  H 3.954276 0.830098 4.348159
  H 2.752805 2.075180 4.631990
  H 4.080491 2.354763 3.499487
  H 2.383977 -0.431777 -1.614914
 15
 0.232413
  H 1.474347 -0.356630 0.668873
  C 2.493292 -0.049863 0.473146
  C 3.286125 0.436922 1.608443
  C 2.518938 1.064453 2.741665
  C 3.372273 1.625266 3.853608
  C 2.984346 -0.089608 -0.782097
  H 4.017851 0.136554 -0.992933
  H 4.134288 1.050443 1.281547
  H 3.782223 -0.470657 2.009265
  H 1.762786 0.379534 3.145265
  H 1.918286 1.886687 2.321449
  H 3.930980 0.841794 4.365611
  H 2.750945 2.117636 4.596517
  H 4.101641 2.339919 3.476890
  H 2.359286 -0.313678 -1.629588
 15
 0.795839
  H 1.534955 -0.502204 0.703833
  C 2.518490 -0.108937 0.487064
  C 3.309062 0.388720 1.622825
  C 2.526120 1.047291 2.730606
  C 3.365144 1.644490 3.832072
  C 2.961672 -0.027871 -0.781928
  H 3.976143 0.258618 -1.008953
  H 4.167312 0.989733 1.297815
  H 3.762671 -0.524853 2.057231
  H 1.762922 0.376879 3.142862
  H 1.941019 1.861103 2.275584
  H 3.944599 0.883370 4.355781
  H 2.726668 2.131748 4.567362
  H 4.074646 2.371886 3.444560
  H 2.312616 -0.191842 -1.623878
 15
 1.435877
  H 1.561827 -0.560878 0.730279
  C 2.534771 -0.145186 0.495561
  C 3.325591 0.370175 1.624294
  C 2.524099 1.045835 2.714383
  C 3.350954 1.665758 3.816946
  C 2.943458 -0.001751 -0.776537
  H 3.959668 0.282618 -1.009341
  H 4.173859 0.974099 1.292774
  H 3.774229 -0.530390 2.092321
  H 1.767419 0.370668 3.125787
  H 1.934566 1.855747 2.257671
  H 3.954194 0.917038 4.328801
  H 2.694129 2.119493 4.553238
  H 4.033008 2.420733 3.437959
  H 2.266991 -0.087976 -1.603491
 15
 1.220067
  H 1.546282 -0.541933 0.725803
  C 2.515446 -0.119303 0.494586
  C 3.308240 0.388771 1.625162
  C 2.511243 1.057351 2.719693
  C 3.336297 1.675647 3.822300
  C 2.929150 0.015653 -0.778804
  H 3.939133 0.312034 -1.017654
  H 4.157300 0.995322 1.296295
  H 3.758602 -0.520270 2.069958
  H 1.747911 0.387381 3.131298
  H 1.932064 1.867052 2.249498
  H 3.924937 0.928402 4.353421
  H 2.681696 2.153516 4.545013
  H 4.034102 2.415631 3.435400
  H 2.255201 -0.098639 -1.611034
 15
 0.942712
  H 1.531434 -0.502205 0.715365
  C 2.517210 -0.112224 0.489517
  C 3.309092 0.401855 1.615015
  C 2.519763 1.044697 2.731113
  C 3.355124 1.650515 3.833869
  C 2.955761 -0.027276 -0.781878
  H 3.970616 0.249363 -1.008669
  H 4.140055 1.031580 1.277676
  H 3.798309 -0.501406 2.037934
  H 1.765395 0.361361 3.142251
  H 1.925284 1.856379 2.282614
  H 3.941983 0.893432 4.355925
  H 2.710946 2.131404 4.567086
  H 4.055894 2.386613 3.446767
  H 2.301898 -0.168104 -1.623935
