 20
 0.000000
  H 1.493754 0.140038 0.400253
  C 2.574433 0.134284 0.386322
  C 3.272742 0.616055 1.584234
  C 2.345517 1.066822 2.704800
  H 2.920691 1.410182 3.559074
  C 3.180770 -0.327596 -0.762542
  C 4.562561 -0.404844 -0.954996
  C 5.203489 -0.865463 -2.104987
  C 4.529271 -1.353118 -3.322560
  H 3.449178 -1.336148 -3.280935
  O 6.507794 -0.894888 -2.179562
  H 3.934968 1.445405 1.306766
  H 3.934787 -0.174541 1.958314
  H 1.705780 0.249604 3.029570
  H 1.706124 1.881633 2.373337
  H 2.528332 -0.647938 -1.560602
  H 5.187646 -0.076081 -0.135032
  H 4.872577 -2.368799 -3.525853
  H 4.873021 -0.758848 -4.170822
  H 6.974889 -0.575563 -1.383613
 20
 4.955474
  H 1.515466 0.142219 0.403511
  C 2.594051 0.147130 0.417581
  C 3.249087 0.633926 1.629493
  C 2.277345 1.071420 2.716069
  H 2.817475 1.422651 3.591235
  C 3.243272 -0.299307 -0.692640
  C 4.601306 -0.403071 -0.949909
  C 5.196920 -0.878090 -2.136159
  C 4.481398 -1.359415 -3.337343
  H 3.401142 -1.326011 -3.253699
  O 6.512800 -0.923678 -2.252210
  H 3.915024 1.467158 1.370394
  H 3.913946 -0.147674 2.019272
  H 1.638614 0.245715 3.020953
  H 1.640033 1.879445 2.364382
  H 2.796366 -0.657086 -1.584823
  H 5.294479 -0.090358 -0.168406
  H 4.798825 -2.380473 -3.551801
  H 4.798734 -0.768803 -4.197513
  H 7.019457 -0.609280 -1.472286
 20
 15.239346
  H 1.519695 0.136846 0.389136
  C 2.599660 0.156336 0.433406
  C 3.226051 0.650551 1.664248
  C 2.235780 1.074706 2.731463
  H 2.758320 1.429827 3.616419
  C 3.292782 -0.281847 -0.658816
  C 4.635660 -0.401286 -0.956251
  C 5.185171 -0.883959 -2.151570
  C 4.449145 -1.361132 -3.339808
  H 3.372579 -1.324813 -3.255833
  O 6.477322 -0.946063 -2.296112
  H 3.889814 1.486113 1.418415
  H 3.893809 -0.121089 2.061474
  H 1.600808 0.240956 3.024324
  H 1.596302 1.877535 2.370111
  H 3.021295 -0.660411 -1.599063
  H 5.376927 -0.105073 -0.221622
  H 4.758325 -2.383558 -3.553231
  H 4.761766 -0.773306 -4.201794
  H 7.005228 -0.638784 -1.526549
 20
 28.911171
  H 1.517762 0.134815 0.382855
  C 2.600919 0.160730 0.444158
  C 3.209867 0.659576 1.685894
  C 2.199465 1.080777 2.747409
  H 2.707841 1.438171 3.636928
  C 3.315011 -0.270909 -0.631155
  C 4.652901 -0.403887 -0.962755
  C 5.179431 -0.890762 -2.166834
  C 4.423525 -1.364633 -3.348540
  H 3.346005 -1.323718 -3.254303
  O 6.471594 -0.961005 -2.330637
  H 3.877669 1.502147 1.445506
  H 3.882987 -0.112210 2.091715
  H 1.566555 0.245926 3.032618
  H 1.560715 1.878184 2.379998
  H 3.193857 -0.660755 -1.598232
  H 5.442253 -0.112910 -0.243006
  H 4.725600 -2.389817 -3.566044
  H 4.729561 -0.777013 -4.215014
  H 7.010688 -0.657253 -1.571575
 20
 44.225133
  H 1.514188 0.135618 0.381971
  C 2.595836 0.163248 0.448740
  C 3.197444 0.664008 1.697421
  C 2.174290 1.084626 2.758219
  H 2.675379 1.443123 3.651462
  C 3.316493 -0.263298 -0.613886
  C 4.664239 -0.406626 -0.972004
  C 5.178537 -0.895349 -2.178499
  C 4.407003 -1.365250 -3.348600
  H 3.328406 -1.317652 -3.238199
  O 6.472541 -0.971075 -2.355323
  H 3.868162 1.509948 1.459755
  H 3.873363 -0.108558 2.107301
  H 1.541067 0.248352 3.039521
  H 1.535389 1.880702 2.387435
  H 3.325873 -0.655087 -1.585717
  H 5.483887 -0.125903 -0.279061
  H 4.700837 -2.392786 -3.569235
  H 4.704919 -0.779161 -4.219881
  H 7.019563 -0.668792 -1.600820
 20
 57.597710
  H 1.497813 0.166336 0.398340
  C 2.579563 0.178820 0.463272
  C 3.184673 0.661365 1.712926
  C 2.177184 1.083764 2.765834
  H 2.682329 1.429700 3.659409
  C 3.296162 -0.253745 -0.609172
  C 4.650240 -0.398292 -0.985903
  C 5.179932 -0.894973 -2.186135
  C 4.411760 -1.381423 -3.362287
  H 3.327857 -1.337034 -3.252904
  O 6.469957 -0.963668 -2.352116
  H 3.861660 1.495415 1.480813
  H 3.847213 -0.116101 2.116252
  H 1.535515 0.254964 3.040771
  H 1.549848 1.887628 2.399472
  H 3.409119 -0.648183 -1.582811
  H 5.462678 -0.110196 -0.299688
  H 4.712254 -2.412083 -3.574009
  H 4.709638 -0.799947 -4.240337
  H 7.000684 -0.656700 -1.606784
 20
 67.723803
  H 1.502611 0.268496 0.373210
  C 2.576498 0.210745 0.442145
  C 3.191415 0.616769 1.741819
  C 2.178367 1.072520 2.774641
  H 2.686523 1.382078 3.696552
  C 3.266122 -0.225903 -0.614330
  C 4.631029 -0.358889 -1.031401
  C 5.176823 -0.884847 -2.200220
  C 4.416190 -1.420495 -3.353777
  H 3.332412 -1.388035 -3.235198
  O 6.475481 -0.941621 -2.371405
  H 3.893142 1.423241 1.520111
  H 3.802420 -0.186019 2.153019
  H 1.483027 0.261121 3.028861
  H 1.593827 1.921584 2.398286
  H 3.452586 -0.630725 -1.592740
  H 5.429195 -0.018018 -0.330665
  H 4.732711 -2.442437 -3.525117
  H 4.689225 -0.873597 -4.247231
  H 7.013920 -0.599065 -1.628355
 20
 71.525098
  H 1.517642 0.432117 0.365716
  C 2.585028 0.278308 0.437235
  C 3.191206 0.567300 1.784572
  C 2.167871 1.049552 2.793136
  H 2.652798 1.269535 3.735008
  C 3.252240 -0.160769 -0.604774
  C 4.624316 -0.286173 -1.107217
  C 5.187106 -0.868615 -2.224044
  C 4.429350 -1.500621 -3.336551
  H 3.341960 -1.484251 -3.198948
  O 6.490789 -0.905732 -2.403155
  H 3.952605 1.337110 1.622430
  H 3.707333 -0.313742 2.170006
  H 1.416729 0.293426 2.976994
  H 1.674822 1.947778 2.447694
  H 3.474118 -0.575768 -1.608804
  H 5.372818 0.143686 -0.421929
  H 4.767645 -2.534155 -3.444427
  H 4.678564 -0.998642 -4.275293
  H 7.021719 -0.511750 -1.680606
 20
 76.064684
  H 1.518227 0.495793 0.369907
  C 2.593629 0.313306 0.439923
  C 3.192191 0.561434 1.797313
  C 2.152537 1.026277 2.813716
  H 2.630594 1.213074 3.775487
  C 3.254102 -0.117206 -0.599218
  C 4.628360 -0.255695 -1.146539
  C 5.192633 -0.869864 -2.237759
  C 4.429334 -1.545176 -3.334762
  H 3.348603 -1.528123 -3.190897
  O 6.499007 -0.907469 -2.414580
  H 3.965636 1.329791 1.668749
  H 3.690487 -0.340544 2.158907
  H 1.385880 0.268943 2.964193
  H 1.671504 1.947395 2.489299
  H 3.510764 -0.514602 -1.609884
  H 5.352850 0.211416 -0.466849
  H 4.766709 -2.577698 -3.413584
  H 4.672696 -1.073459 -4.287039
  H 7.027044 -0.497094 -1.702879
 20
 79.191686
  H 1.528505 0.591205 0.357855
  C 2.592375 0.365550 0.431914
  C 3.186770 0.536474 1.810628
  C 2.150940 0.992762 2.832467
  H 2.620987 1.119978 3.808849
  C 3.247203 -0.053041 -0.613541
  C 4.616978 -0.203344 -1.187276
  C 5.194497 -0.868743 -2.247865
  C 4.437186 -1.607838 -3.310571
  H 3.340629 -1.597501 -3.157671
  O 6.495650 -0.894084 -2.418932
  H 3.986235 1.280302 1.728015
  H 3.644252 -0.396756 2.133266
  H 1.356568 0.258483 2.938629
  H 1.708238 1.944242 2.543993
  H 3.534222 -0.425311 -1.630536
  H 5.326471 0.305387 -0.527139
  H 4.788253 -2.643735 -3.342707
  H 4.674833 -1.176512 -4.291242
  H 7.020598 -0.438469 -1.725651
 20
 81.211929
  H 1.538431 0.669977 0.352904
  C 2.596171 0.411776 0.429067
  C 3.179773 0.511966 1.815583
  C 2.143174 0.951464 2.842869
  H 2.602264 1.025707 3.825642
  C 3.247859 0.010905 -0.622278
  C 4.616658 -0.151634 -1.222605
  C 5.193992 -0.868213 -2.251696
  C 4.434102 -1.659405 -3.264574
  H 3.352663 -1.650009 -3.099498
  O 6.497917 -0.888328 -2.435377
  H 3.999831 1.239326 1.774235
  H 3.608907 -0.448511 2.104037
  H 1.330628 0.235347 2.908105
  H 1.730262 1.921923 2.590123
  H 3.561137 -0.337950 -1.663066
  H 5.322080 0.391906 -0.589275
  H 4.789258 -2.684224 -3.251766
  H 4.654772 -1.278234 -4.257483
  H 7.022821 -0.395124 -1.777948
 20
 82.574168
  H 1.551174 0.729124 0.348717
  C 2.605313 0.440703 0.433275
  C 3.170529 0.482070 1.832497
  C 2.127311 0.911472 2.854003
  H 2.572185 0.944495 3.849094
  C 3.266070 0.068156 -0.619406
  C 4.629418 -0.100056 -1.259958
  C 5.197757 -0.860454 -2.266471
  C 4.426513 -1.707062 -3.213713
  H 3.356188 -1.695730 -3.023931
  O 6.501084 -0.886134 -2.468995
  H 4.002746 1.190434 1.828997
  H 3.574063 -0.496696 2.097262
  H 1.298352 0.209601 2.881786
  H 1.737906 1.901442 2.623697
  H 3.594671 -0.252441 -1.703457
  H 5.334711 0.477287 -0.654498
  H 4.791761 -2.729164 -3.154195
  H 4.622204 -1.375390 -4.237728
  H 7.033717 -0.357313 -1.848609
 20
 81.835513
  H 1.609608 0.773808 0.339407
  C 2.644075 0.469058 0.443201
  C 3.158648 0.440437 1.867793
  C 2.090851 0.867828 2.863151
  H 2.495784 0.851178 3.871684
  C 3.335066 0.128910 -0.598680
  C 4.656891 -0.038942 -1.300480
  C 5.201794 -0.857596 -2.283250
  C 4.407970 -1.767514 -3.151298
  H 3.345320 -1.752725 -2.926271
  O 6.495599 -0.874525 -2.530583
  H 4.013290 1.120221 1.924532
  H 3.516638 -0.555010 2.108166
  H 1.239463 0.191616 2.833820
  H 1.742333 1.874800 2.654547
  H 3.644596 -0.143952 -1.738467
  H 5.366464 0.588262 -0.754987
  H 4.784992 -2.787151 -3.042215
  H 4.565185 -1.498000 -4.197084
  H 7.036520 -0.289309 -1.968659
 20
 79.517929
  H 1.674125 0.841641 0.317311
  C 2.697560 0.512697 0.450069
  C 3.147462 0.406241 1.894351
  C 2.040853 0.795780 2.859727
  H 2.399969 0.722755 3.883222
  C 3.424825 0.196817 -0.571790
  C 4.701405 0.031292 -1.340618
  C 5.205360 -0.851488 -2.297897
  C 4.371442 -1.830055 -3.048174
  H 3.326139 -1.812382 -2.751854
  O 6.482265 -0.863535 -2.618182
  H 4.008869 1.068571 2.025491
  H 3.481686 -0.612144 2.101019
  H 1.183230 0.133606 2.756427
  H 1.713504 1.818450 2.689123
  H 3.706737 -0.023388 -1.786169
  H 5.421760 0.702569 -0.868126
  H 4.764713 -2.830631 -2.898990
  H 4.456157 -1.630770 -4.117508
  H 7.046353 -0.244556 -2.113010
