20
 0
 C 1.00774000 -0.07248000 0.04577000
 C 2.50123000 -0.08220000 0.02669000
 C 3.21382000 -0.59789000 -0.98570000
 C 4.65878000 -0.60650000 -1.00260000
 C 5.37253000 -1.12204000 -2.01469000
 C 6.81784000 -1.12926000 -2.02886000
 C 7.53406000 -1.64399000 -3.03937000
 C 9.02790000 -1.66137000 -3.07348000
 H 0.65033000 0.39720000 0.96783000
 H 0.60971000 -1.09133000 0.01388000
 H 0.60971000 0.50077000 -0.79712000
 H 3.00220000 0.35587000 0.88670000
 H 2.69725000 -1.03272000 -1.83933000
 H 5.16692000 -0.16980000 -0.14529000
 H 4.86523000 -1.55891000 -2.87234000
 H 7.32919000 -0.69321000 -1.17282000
 H 7.03287000 -2.08216000 -3.89955000
 H 9.46859000 -1.20659000 -2.18068000
 H 9.38675000 -1.11163000 -3.94894000
 H 9.38675000 -2.69274000 -3.14355000
