 20
 0.000000
  C 1.007473 -0.071520 0.047655
  C 2.503753 -0.082626 0.025853
  C 3.219079 -0.595573 -0.981150
  C 4.657197 -0.605914 -1.001448
  C 5.377771 -1.121152 -2.012944
  C 6.816198 -1.130733 -2.031751
  C 7.534712 -1.642484 -3.036412
  C 9.024703 -1.661698 -3.074124
  H 0.645529 0.394752 0.963018
  H 0.611833 -1.086286 0.009051
  H 0.611833 0.493894 -0.795878
  H 3.004395 0.352737 0.880546
  H 2.705654 -1.028851 -1.831735
  H 5.161182 -0.170943 -0.147532
  H 4.872886 -1.555913 -2.866455
  H 7.322685 -0.696215 -1.178720
  H 7.036143 -2.078788 -3.892936
  H 9.458353 -1.208499 -2.184423
  H 9.384011 -1.115744 -3.947834
  H 9.384010 -2.689426 -3.146230
 20
 0.752291
  C 1.012125 0.027467 0.003576
  C 2.503464 -0.088672 0.027493
  C 3.219063 -0.667810 -0.943908
  C 4.648433 -0.741714 -0.953153
  C 5.367048 -1.290643 -1.956228
  C 6.804673 -1.220941 -1.997468
  C 7.541760 -1.643795 -3.029700
  C 9.026777 -1.549882 -3.103786
  H 0.638860 0.453283 0.932762
  H 0.552550 -0.951407 -0.135963
  H 0.688628 0.663994 -0.820763
  H 3.011990 0.340499 0.880123
  H 2.721856 -1.047019 -1.822147
  H 5.162626 -0.316113 -0.098920
  H 4.863799 -1.815977 -2.757709
  H 7.293749 -0.779447 -1.136090
  H 7.054369 -2.079127 -3.895253
  H 9.438597 -1.101463 -2.201203
  H 9.325172 -0.950343 -3.963957
  H 9.462847 -2.542457 -3.232308
 20
 1.698919
  C 1.003861 0.046025 -0.075906
  C 2.493175 -0.068584 0.020090
  C 3.249183 -0.702869 -0.880335
  C 4.682852 -0.749216 -0.845061
  C 5.410402 -1.341604 -1.807690
  C 6.838529 -1.250645 -1.936959
  C 7.516048 -1.679882 -3.004536
  C 8.986800 -1.514449 -3.200301
  H 0.589123 0.518820 0.809989
  H 0.550496 -0.936772 -0.189493
  H 0.719989 0.639313 -0.946492
  H 2.967580 0.433561 0.852826
  H 2.791433 -1.118341 -1.774211
  H 5.175306 -0.278185 -0.002801
  H 4.910848 -1.957328 -2.543815
  H 7.369431 -0.757882 -1.129583
  H 6.987556 -2.171385 -3.812380
  H 9.440911 -1.014566 -2.350779
  H 9.183906 -0.930500 -4.098709
  H 9.464989 -2.486688 -3.332662
 20
 8.596279
  C 1.020509 0.074707 -0.225591
  C 2.498811 -0.028222 -0.011892
  C 3.302846 -0.780536 -0.771395
  C 4.732338 -0.839634 -0.635401
  C 5.454026 -1.415961 -1.618264
  C 6.854868 -1.240935 -1.878887
  C 7.454274 -1.659960 -2.995784
  C 8.898250 -1.457983 -3.312671
  H 0.538869 0.561883 0.617194
  H 0.590446 -0.922092 -0.337856
  H 0.785083 0.637834 -1.130818
  H 2.918789 0.570215 0.781297
  H 2.978400 -1.136092 -1.747109
  H 5.201359 -0.403354 0.233888
  H 4.979296 -2.173617 -2.233211
  H 7.423400 -0.677719 -1.150176
  H 6.886239 -2.228443 -3.726688
  H 9.399692 -0.920174 -2.519029
  H 9.011741 -0.902757 -4.241074
  H 9.391593 -2.421948 -3.448716
 20
 21.930629
  C 1.036460 0.055106 -0.276796
  C 2.511537 0.027062 -0.039162
  C 3.352547 -0.726601 -0.760606
  C 4.766864 -0.851637 -0.571944
  C 5.433914 -1.450657 -1.600736
  C 6.814655 -1.221466 -1.897285
  C 7.435342 -1.729707 -2.969640
  C 8.847094 -1.442156 -3.343974
  H 0.538770 0.678387 0.451359
  H 0.627500 -0.955542 -0.208825
  H 0.795425 0.431848 -1.276650
  H 2.898991 0.667943 0.751461
  H 3.140180 -1.001211 -1.791759
  H 5.256580 -0.528635 0.336497
  H 5.004078 -2.349785 -2.030086
  H 7.363513 -0.590615 -1.214674
  H 6.865429 -2.311115 -3.684124
  H 9.326838 -0.801695 -2.607584
  H 8.889722 -0.950498 -4.327366
  H 9.411580 -2.371581 -3.421186
 20
 39.344037
  C 1.156972 0.116398 -0.524568
  C 2.587982 0.105791 -0.114357
  C 3.486247 -0.772849 -0.600597
  C 4.845760 -1.045565 -0.269970
  C 5.468378 -1.656706 -1.348901
  C 6.791301 -1.332928 -1.774933
  C 7.335850 -1.766202 -2.920202
  C 8.621071 -1.271739 -3.480933
  H 0.585892 0.768246 0.121925
  H 0.743189 -0.894368 -0.464302
  H 1.032332 0.474292 -1.548753
  H 2.931113 0.913890 0.529281
  H 3.425750 -1.164299 -1.621409
  H 5.299994 -0.848028 0.683158
  H 5.052293 -2.577463 -1.729222
  H 7.302499 -0.587226 -1.179147
  H 6.796222 -2.490546 -3.509606
  H 9.101672 -0.564024 -2.801199
  H 8.452813 -0.791329 -4.436278
  H 9.306080 -2.105677 -3.643364
 20
 60.628441
  C 1.267912 0.100491 -0.650915
  C 2.627748 0.082545 -0.032794
  C 3.563066 -0.811429 -0.423169
  C 4.862525 -1.168992 -0.074184
  C 5.423939 -1.636259 -1.276507
  C 6.695152 -1.253185 -1.790674
  C 7.215155 -1.712279 -2.941383
  C 8.505486 -1.251149 -3.526227
  H 0.655538 0.891132 -0.226982
  H 0.779569 -0.854537 -0.508354
  H 1.327315 0.262014 -1.731071
  H 2.920179 0.990479 0.465126
  H 3.677665 -1.106666 -1.517612
  H 5.336721 -1.123416 0.888835
  H 5.068949 -2.595674 -1.644573
  H 7.242627 -0.508842 -1.217622
  H 6.677022 -2.454700 -3.510475
  H 8.941570 -0.450823 -2.930070
  H 8.345032 -0.873127 -4.537935
  H 9.214275 -2.084861 -3.597463
 20
 73.424170
  C 1.327653 0.020278 -0.738432
  C 2.675947 0.181077 -0.100458
  C 3.681232 -0.675845 -0.282926
  C 4.883736 -1.170798 0.047379
  C 5.354139 -1.644415 -1.251694
  C 6.655003 -1.290662 -1.769767
  C 7.114776 -1.650176 -2.971813
  C 8.433941 -1.241868 -3.530617
  H 0.651678 0.799784 -0.400123
  H 0.896092 -0.948958 -0.488414
  H 1.394848 0.080084 -1.827099
  H 2.884594 1.146026 0.346465
  H 4.007234 -1.066218 -1.566286
  H 5.385836 -1.225495 0.997504
  H 4.968364 -2.599114 -1.590992
  H 7.249589 -0.632960 -1.146401
  H 6.509406 -2.283972 -3.607099
  H 8.984101 -0.629240 -2.822941
  H 8.296446 -0.674600 -4.453586
  H 9.031094 -2.120737 -3.775184
 20
 57.721717
  C 1.271290 0.001768 -0.629324
  C 2.655282 0.238318 -0.094428
  C 3.662439 -0.586672 -0.231863
  C 4.815814 -1.147809 -0.023578
  C 5.259438 -1.591398 -1.405434
  C 6.627920 -1.284800 -1.845116
  C 7.158547 -1.685848 -2.995075
  C 8.512604 -1.287310 -3.486058
  H 0.575831 0.740513 -0.245731
  H 0.913635 -0.990272 -0.340328
  H 1.268901 0.046999 -1.723781
  H 2.843689 1.221548 0.322675
  H 4.273183 -1.060805 -1.810100
  H 5.383664 -1.238468 0.891487
  H 4.879625 -2.565131 -1.724683
  H 7.216504 -0.667874 -1.174371
  H 6.554945 -2.250992 -3.696116
  H 9.052937 -0.726971 -2.726786
  H 8.426185 -0.683146 -4.379114
  H 9.101009 -2.167797 -3.738726
 20
 37.237645
  C 1.288090 0.029453 -0.526208
  C 2.688793 0.279684 -0.050937
  C 3.680082 -0.547584 -0.169756
  C 4.749029 -1.282024 -0.113134
  C 5.201814 -1.659986 -1.508387
  C 6.591859 -1.289851 -1.887684
  C 7.160617 -1.596809 -3.043809
  C 8.552607 -1.230680 -3.431326
  H 0.639567 0.865870 -0.265281
  H 0.880317 -0.886324 -0.091067
  H 1.277047 -0.084104 -1.616001
  H 2.931976 1.320688 0.191130
  H 4.377240 -1.068827 -1.995418
  H 5.213457 -1.649226 0.780390
  H 4.863802 -2.631448 -1.860325
  H 7.120000 -0.688098 -1.171768
  H 6.617760 -2.199602 -3.760913
  H 9.041455 -0.680773 -2.632983
  H 8.542516 -0.609967 -4.316928
  H 9.132657 -2.121689 -3.666808
 20
 27.270033
  C 1.240156 -0.049746 -0.416870
  C 2.632690 0.342060 -0.005777
  C 3.689902 -0.388695 -0.176680
  C 4.690515 -1.221746 -0.259957
  C 5.165870 -1.456143 -1.671980
  C 6.614956 -1.265607 -1.942011
  C 7.215730 -1.599687 -3.070753
  C 8.660982 -1.372830 -3.362099
  H 0.531776 0.731779 -0.154228
  H 0.930058 -0.974334 0.070327
  H 1.198758 -0.210646 -1.493578
  H 2.767568 1.373659 0.302544
  H 4.482448 -0.743479 -2.172683
  H 5.180796 -1.676555 0.585434
  H 4.759518 -2.387164 -2.087651
  H 7.182368 -0.805441 -1.143471
  H 6.651790 -2.090518 -3.854484
  H 9.157039 -0.893613 -2.520796
  H 8.777108 -0.746608 -4.245860
  H 9.158075 -2.322860 -3.565135
 20
 19.520452
  C 1.157852 -0.034208 -0.212688
  C 2.594500 0.370302 -0.034798
  C 3.611327 -0.401709 -0.276097
  C 4.606282 -1.210804 -0.472728
  C 5.127616 -1.426176 -1.866946
  C 6.605209 -1.262125 -2.009823
  C 7.290776 -1.582970 -3.093966
  C 8.765535 -1.410932 -3.247621
  H 0.495959 0.727165 0.187971
  H 0.954376 -0.977265 0.292452
  H 0.931818 -0.166381 -1.269483
  H 2.774865 1.410118 0.214787
  H 4.565848 -0.710787 -2.484884
  H 5.085651 -1.737296 0.340816
  H 4.795574 -2.396824 -2.257085
  H 7.115044 -0.822908 -1.163992
  H 6.781037 -2.016902 -3.945684
  H 9.205188 -0.989755 -2.345259
  H 8.983550 -0.747971 -4.085011
  H 9.240094 -2.370744 -3.455668
 20
 18.167775
  C 1.080458 -0.154205 -0.032785
  C 2.491827 0.371846 -0.035485
  C 3.533076 -0.330067 -0.365132
  C 4.575412 -1.037615 -0.675806
  C 5.122785 -1.186790 -2.070639
  C 6.620751 -1.176108 -2.092907
  C 7.353769 -1.606764 -3.105644
  C 8.847441 -1.579034 -3.146719
  H 0.412807 0.551232 0.452785
  H 1.025289 -1.110642 0.491798
  H 0.730533 -0.313267 -1.053308
  H 2.621908 1.410971 0.253219
  H 4.740900 -0.381848 -2.704905
  H 5.108978 -1.579178 0.096272
  H 4.757912 -2.127909 -2.497434
  H 7.104490 -0.771730 -1.215437
  H 6.870631 -2.013203 -3.986937
  H 9.257486 -1.191497 -2.213505
  H 9.189893 -0.949200 -3.967060
  H 9.241754 -2.583164 -3.316080
 20
 16.963057
  C 1.125426 -0.075907 -0.015355
  C 2.574241 0.321967 0.033523
  C 3.552400 -0.430688 -0.366924
  C 4.526087 -1.191787 -0.760231
  C 5.065719 -1.235222 -2.164699
  C 6.557268 -1.078788 -2.181955
  C 7.364472 -1.683512 -3.037113
  C 8.847065 -1.511325 -3.073905
  H 0.550132 0.494936 0.709222
  H 1.008572 -1.136428 0.193896
  H 0.713866 0.118634 -1.007590
  H 2.786881 1.313857 0.416460
  H 4.607911 -0.436601 -2.757536
  H 5.016125 -1.853021 -0.056094
  H 4.791394 -2.190486 -2.626577
  H 6.963805 -0.406612 -1.437350
  H 6.956900 -2.358497 -3.779158
  H 9.178999 -0.823264 -2.300801
  H 9.157891 -1.125007 -4.045319
  H 9.342950 -2.470419 -2.928200
