 26
 0.000000
  C 1.011166 0.116082 0.348199
  C 2.487042 0.128949 0.377968
  C 3.242219 0.604173 1.561617
  C 2.438788 1.093476 2.763251
  C 3.371370 1.543112 3.883941
  C 3.140507 -0.328350 -0.761508
  C 4.523660 -0.397649 -0.935513
  C 5.170669 -0.855150 -2.079272
  C 4.531994 -1.350442 -3.316102
  H 3.453035 -1.355698 -3.328378
  O 6.483409 -0.879645 -2.142857
  H 0.560359 0.476060 1.265256
  H 0.653051 -0.897466 0.162363
  H 0.643627 0.728590 -0.476727
  H 3.903939 1.416814 1.241576
  H 3.897127 -0.207343 1.898195
  H 1.797930 0.295129 3.141533
  H 1.804462 1.934541 2.477921
  H 4.003737 0.723414 4.217756
  H 2.794799 1.890782 4.737593
  H 4.010393 2.359916 3.555676
  H 2.511560 -0.655386 -1.576495
  H 5.147428 -0.068688 -0.114958
  H 4.900478 -2.360251 -3.503655
  H 4.900017 -0.748780 -4.148662
  H 6.929542 -0.557038 -1.337313
 26
 3.223016
  C 1.010631 0.079745 0.379103
  C 2.464005 0.120707 0.381091
  C 3.228510 0.597652 1.559202
  C 2.429110 1.101894 2.755713
  C 3.367033 1.545400 3.874259
  C 3.124343 -0.331446 -0.761543
  C 4.520710 -0.391998 -0.932556
  C 5.178352 -0.847927 -2.081521
  C 4.527843 -1.344246 -3.311888
  H 3.448424 -1.332289 -3.265422
  O 6.487098 -0.864579 -2.143960
  H 0.535749 0.455586 1.268623
  H 0.616490 -0.902730 0.140299
  H 0.851836 0.716971 -0.464770
  H 3.905495 1.396776 1.240656
  H 3.871382 -0.221372 1.898944
  H 1.779374 0.313132 3.138044
  H 1.807528 1.950116 2.464092
  H 3.988526 0.718896 4.212124
  H 2.796221 1.905531 4.726603
  H 4.017019 2.351727 3.541195
  H 2.496328 -0.660996 -1.578278
  H 5.147956 -0.062434 -0.113825
  H 4.875912 -2.357817 -3.510691
  H 4.866582 -0.744691 -4.156764
  H 6.940808 -0.540780 -1.343402
 26
 8.556716
  C 1.004545 0.034578 0.386691
  C 2.457460 0.096129 0.386754
  C 3.235403 0.587525 1.564396
  C 2.433138 1.112419 2.752451
  C 3.367539 1.557690 3.872601
  C 3.117493 -0.344066 -0.756617
  C 4.504816 -0.388589 -0.931273
  C 5.160636 -0.836284 -2.076632
  C 4.512352 -1.341789 -3.302444
  H 3.427935 -1.340967 -3.246014
  O 6.471904 -0.837057 -2.144579
  H 0.506402 0.389494 1.265258
  H 0.574246 -0.895048 0.020943
  H 1.047526 0.756451 -0.418682
  H 3.932085 1.368934 1.247079
  H 3.855213 -0.245970 1.914546
  H 1.773414 0.334170 3.138024
  H 1.823666 1.964309 2.446899
  H 3.977881 0.728165 4.223067
  H 2.794971 1.932878 4.717424
  H 4.028527 2.353334 3.535637
  H 2.492416 -0.683486 -1.571699
  H 5.132499 -0.054279 -0.115543
  H 4.868260 -2.353382 -3.499750
  H 4.837067 -0.737704 -4.150287
  H 6.926234 -0.504414 -1.341642
 26
 15.923377
  C 0.991385 0.014898 0.410184
  C 2.448429 0.086482 0.387943
  C 3.226712 0.580423 1.557295
  C 2.428300 1.116557 2.746771
  C 3.369508 1.563621 3.862636
  C 3.111284 -0.351691 -0.763540
  C 4.495071 -0.389528 -0.933579
  C 5.154926 -0.830822 -2.073292
  C 4.512505 -1.340063 -3.305895
  H 3.431085 -1.346175 -3.255115
  O 6.471771 -0.824643 -2.138065
  H 0.484821 0.357680 1.289963
  H 0.535366 -0.866835 -0.015888
  H 1.186032 0.763535 -0.345262
  H 3.929198 1.357845 1.236785
  H 3.838660 -0.260696 1.907111
  H 1.766319 0.343782 3.139303
  H 1.821993 1.969813 2.439021
  H 3.976901 0.733186 4.215456
  H 2.801569 1.946107 4.707263
  H 4.033440 2.353960 3.519585
  H 2.489996 -0.695006 -1.578559
  H 5.117025 -0.053904 -0.115474
  H 4.874584 -2.349002 -3.502121
  H 4.836730 -0.733043 -4.150898
  H 6.921373 -0.488785 -1.328872
 26
 22.531680
  C 0.985959 -0.005232 0.432558
  C 2.450377 0.085328 0.382939
  C 3.224925 0.583755 1.561192
  C 2.424210 1.121388 2.742877
  C 3.361114 1.568850 3.859642
  C 3.110523 -0.351105 -0.768196
  C 4.493719 -0.390202 -0.937158
  C 5.153912 -0.830537 -2.077182
  C 4.511643 -1.337742 -3.311323
  H 3.430709 -1.342956 -3.260737
  O 6.472697 -0.825683 -2.142279
  H 0.467804 0.328248 1.311396
  H 0.509300 -0.860349 -0.026272
  H 1.306178 0.769413 -0.308058
  H 3.929856 1.357489 1.244618
  H 3.830395 -0.256219 1.915405
  H 1.760501 0.349809 3.134519
  H 1.820156 1.975016 2.431412
  H 3.966393 0.738246 4.215938
  H 2.790778 1.953428 4.701453
  H 4.027176 2.357884 3.517208
  H 2.488504 -0.694050 -1.583059
  H 5.115510 -0.056324 -0.117357
  H 4.872608 -2.347026 -3.508796
  H 4.836377 -0.729671 -4.155674
  H 6.913850 -0.497244 -1.346675
 26
 26.510614
  C 0.990223 -0.028367 0.443241
  C 2.438251 0.095596 0.378245
  C 3.224725 0.591310 1.553247
  C 2.420760 1.117352 2.743787
  C 3.358743 1.571602 3.860106
  C 3.108458 -0.351998 -0.774062
  C 4.488327 -0.384605 -0.944079
  C 5.147451 -0.831250 -2.077215
  C 4.509706 -1.355603 -3.308444
  H 3.428220 -1.367144 -3.256864
  O 6.467714 -0.819696 -2.144659
  H 0.473381 0.259826 1.333238
  H 0.497413 -0.787076 -0.138873
  H 1.392534 0.833546 -0.200252
  H 3.924386 1.372202 1.237829
  H 3.827836 -0.256796 1.895972
  H 1.768439 0.336184 3.136044
  H 1.804927 1.965720 2.439801
  H 3.975450 0.746650 4.209559
  H 2.788367 1.945889 4.706797
  H 4.014223 2.369567 3.518343
  H 2.488668 -0.714600 -1.581717
  H 5.110208 -0.039790 -0.129358
  H 4.875764 -2.365172 -3.494495
  H 4.829062 -0.752824 -4.158539
  H 6.905943 -0.477437 -1.342294
 26
 29.608255
  C 0.980152 -0.041785 0.460508
  C 2.410370 0.091200 0.372493
  C 3.203185 0.586104 1.543439
  C 2.421524 1.111435 2.735736
  C 3.375028 1.569384 3.826905
  C 3.084853 -0.356518 -0.779335
  C 4.480336 -0.384952 -0.939819
  C 5.149938 -0.826551 -2.063227
  C 4.524441 -1.348394 -3.295496
  H 3.438019 -1.360710 -3.248675
  O 6.482808 -0.812174 -2.120987
  H 0.468968 0.230068 1.366069
  H 0.468914 -0.749946 -0.181305
  H 1.447615 0.860592 -0.122216
  H 3.894109 1.361331 1.220580
  H 3.806681 -0.256998 1.880880
  H 1.781345 0.332527 3.143402
  H 1.801356 1.955453 2.441134
  H 3.999219 0.746893 4.167228
  H 2.820023 1.945461 4.681602
  H 4.022306 2.366687 3.469573
  H 2.464389 -0.720912 -1.591606
  H 5.094731 -0.039400 -0.119815
  H 4.892705 -2.356396 -3.479801
  H 4.847845 -0.743886 -4.141617
  H 6.910104 -0.473640 -1.320766
 26
 31.662477
  C 0.984861 -0.062633 0.463848
  C 2.420494 0.091126 0.371561
  C 3.213122 0.588153 1.549034
  C 2.414971 1.111743 2.745086
  C 3.363247 1.588968 3.847377
  C 3.101359 -0.361346 -0.788576
  C 4.471137 -0.389863 -0.946693
  C 5.145171 -0.834981 -2.078417
  C 4.523327 -1.356342 -3.316896
  H 3.437621 -1.367947 -3.274987
  O 6.466089 -0.822801 -2.133316
  H 0.474175 0.175898 1.365817
  H 0.470790 -0.700413 -0.227177
  H 1.516820 0.886848 -0.062839
  H 3.901169 1.372653 1.224915
  H 3.824139 -0.253402 1.890128
  H 1.780667 0.322568 3.154722
  H 1.782158 1.950591 2.444736
  H 3.998342 0.774330 4.194224
  H 2.798414 1.961195 4.700980
  H 4.003214 2.395327 3.490582
  H 2.482686 -0.723510 -1.598748
  H 5.084656 -0.044577 -0.125380
  H 4.891702 -2.365877 -3.500778
  H 4.850787 -0.750084 -4.162209
  H 6.890908 -0.484760 -1.326847
 26
 33.806713
  C 0.992272 -0.073665 0.471578
  C 2.422498 0.098630 0.366653
  C 3.220352 0.592076 1.546798
  C 2.410719 1.108671 2.744904
  C 3.349779 1.594417 3.849443
  C 3.097345 -0.356894 -0.789386
  C 4.485597 -0.389506 -0.954609
  C 5.148598 -0.835983 -2.077917
  C 4.515272 -1.359506 -3.319872
  H 3.432571 -1.365183 -3.272895
  O 6.477862 -0.828900 -2.135563
  H 0.476610 0.151664 1.387058
  H 0.466495 -0.669889 -0.257437
  H 1.567991 0.900220 -0.019074
  H 3.907508 1.388413 1.220522
  H 3.839565 -0.250483 1.889182
  H 1.784043 0.313640 3.151392
  H 1.769829 1.940340 2.444210
  H 3.990270 0.789160 4.196006
  H 2.780526 1.958618 4.699313
  H 3.980210 2.405114 3.496676
  H 2.474922 -0.717124 -1.593084
  H 5.105488 -0.044415 -0.136701
  H 4.876877 -2.371770 -3.504133
  H 4.841287 -0.756679 -4.168190
  H 6.904549 -0.492398 -1.331868
 26
 35.532715
  C 0.992437 -0.080914 0.481213
  C 2.418528 0.109180 0.369627
  C 3.216298 0.594530 1.543616
  C 2.414283 1.102218 2.736008
  C 3.356012 1.592451 3.835768
  C 3.101722 -0.354012 -0.794569
  C 4.471500 -0.382774 -0.949796
  C 5.146217 -0.835166 -2.076269
  C 4.524202 -1.358001 -3.309490
  H 3.424987 -1.363095 -3.265309
  O 6.471587 -0.828659 -2.129984
  H 0.471606 0.135118 1.400093
  H 0.461787 -0.641186 -0.277547
  H 1.605266 0.911431 0.017681
  H 3.892923 1.387674 1.218346
  H 3.835304 -0.241097 1.881431
  H 1.794611 0.302831 3.144056
  H 1.767717 1.929434 2.438278
  H 4.005011 0.788237 4.179664
  H 2.787569 1.953591 4.690729
  H 3.981891 2.409327 3.479529
  H 2.477227 -0.720449 -1.606992
  H 5.086687 -0.032514 -0.126421
  H 4.887293 -2.369912 -3.488246
  H 4.854775 -0.757021 -4.156986
  H 6.895683 -0.490294 -1.324796
 26
 37.012774
  C 0.980413 -0.097460 0.471587
  C 2.409066 0.112966 0.358505
  C 3.216825 0.595866 1.543684
  C 2.414987 1.103373 2.745265
  C 3.365423 1.600741 3.847525
  C 3.089681 -0.351811 -0.799854
  C 4.473710 -0.380270 -0.955816
  C 5.147504 -0.833387 -2.074161
  C 4.525629 -1.362520 -3.313959
  H 3.435520 -1.367693 -3.273552
  O 6.476644 -0.825934 -2.122674
  H 0.453410 0.112286 1.388312
  H 0.456191 -0.621417 -0.302477
  H 1.630413 0.918099 0.027059
  H 3.895399 1.395788 1.215720
  H 3.840560 -0.243681 1.879736
  H 1.795890 0.294851 3.159903
  H 1.758351 1.935076 2.448216
  H 4.019818 0.799382 4.188686
  H 2.799934 1.959727 4.705665
  H 3.986674 2.420641 3.488522
  H 2.466323 -0.717653 -1.606581
  H 5.089252 -0.026690 -0.132411
  H 4.890066 -2.377369 -3.489729
  H 4.859123 -0.762729 -4.164396
  H 6.897001 -0.485778 -1.317693
 26
 38.684948
  C 0.982762 -0.101849 0.482952
  C 2.409140 0.128362 0.366209
  C 3.220007 0.603293 1.553708
  C 2.422961 1.101238 2.743438
  C 3.359174 1.593750 3.832147
  C 3.094664 -0.343681 -0.796391
  C 4.470476 -0.371811 -0.951567
  C 5.148098 -0.830951 -2.072092
  C 4.527856 -1.368493 -3.319075
  H 3.437881 -1.375036 -3.284266
  O 6.468914 -0.822511 -2.115657
  H 0.452633 0.109630 1.396685
  H 0.457400 -0.607037 -0.303761
  H 1.661437 0.929014 0.047421
  H 3.898653 1.406651 1.229609
  H 3.842202 -0.235187 1.886795
  H 1.813086 0.298421 3.152682
  H 1.769928 1.923054 2.450583
  H 4.009356 0.801840 4.167823
  H 2.797315 1.945433 4.681642
  H 3.970934 2.408198 3.477116
  H 2.472474 -0.711087 -1.602189
  H 5.081840 -0.016194 -0.133473
  H 4.893439 -2.384298 -3.490373
  H 4.863636 -0.772040 -4.171458
  H 6.887727 -0.476900 -1.305717
 26
 40.054423
  C 0.980746 -0.116444 0.481170
  C 2.417023 0.140965 0.354953
  C 3.228274 0.607191 1.547110
  C 2.418376 1.105748 2.754065
  C 3.353036 1.599941 3.851069
  C 3.100348 -0.337875 -0.805470
  C 4.478027 -0.368761 -0.963671
  C 5.149779 -0.833391 -2.080938
  C 4.525779 -1.371965 -3.316181
  H 3.442306 -1.374491 -3.276968
  O 6.475979 -0.829447 -2.130261
  H 0.450552 0.099116 1.391400
  H 0.454925 -0.610725 -0.311859
  H 1.691917 0.944544 0.040680
  H 3.898393 1.402911 1.230203
  H 3.847133 -0.228166 1.873399
  H 1.809091 0.298536 3.161504
  H 1.762495 1.927474 2.463959
  H 4.011037 0.802014 4.188022
  H 2.782993 1.949318 4.707599
  H 3.967441 2.424912 3.496927
  H 2.476911 -0.705910 -1.608074
  H 5.093828 -0.009861 -0.148002
  H 4.886672 -2.389553 -3.483740
  H 4.859568 -0.780740 -4.172237
  H 6.899019 -0.482297 -1.325914
 26
 41.422555
  C 0.977613 -0.128029 0.484985
  C 2.414549 0.154246 0.354069
  C 3.229199 0.613023 1.549186
  C 2.422314 1.105749 2.754454
  C 3.356569 1.597802 3.849133
  C 3.100745 -0.330762 -0.807289
  C 4.475881 -0.362060 -0.963615
  C 5.150013 -0.831367 -2.078747
  C 4.527706 -1.374174 -3.311754
  H 3.447511 -1.376281 -3.274698
  O 6.476169 -0.827611 -2.126565
  H 0.445477 0.092267 1.387732
  H 0.453396 -0.608471 -0.314443
  H 1.715476 0.955512 0.045818
  H 3.900685 1.412385 1.233427
  H 3.850667 -0.226496 1.872502
  H 1.810954 0.291640 3.162720
  H 1.760654 1.931259 2.465414
  H 4.015498 0.801534 4.182277
  H 2.789199 1.942586 4.704590
  H 3.968321 2.424042 3.496572
  H 2.478096 -0.700371 -1.607925
  H 5.087397 -0.002173 -0.152859
  H 4.888488 -2.391430 -3.474471
  H 4.863007 -0.787040 -4.168413
  H 6.899042 -0.477191 -1.323254
