 20
 0.000000
  C 0.948110 0.178331 0.494099
  C 2.402186 0.114701 0.336433
  H 3.034102 0.441448 1.149759
  C 2.977574 -0.351737 -0.824637
  C 4.361565 -0.418041 -0.990941
  C 5.098617 -0.859356 -2.091687
  C 4.648882 -1.386652 -3.405927
  C 3.171069 -1.519373 -3.736059
  H 3.075053 -1.921787 -4.739251
  O 6.411364 -0.832140 -2.024801
  H 0.648163 0.567274 1.461652
  H 0.511851 -0.813327 0.354417
  H 0.512091 0.797654 -0.293038
  H 2.319800 -0.669389 -1.615144
  H 4.951679 -0.078455 -0.145846
  H 5.131221 -2.364965 -3.517068
  H 5.131021 -0.756360 -4.162501
  H 2.673933 -0.553389 -3.715725
  H 2.674308 -2.203760 -3.053768
  H 6.769144 -0.494572 -1.181453
 20
 15.998571
  C 0.981004 0.211138 0.576701
  C 2.427098 0.115443 0.336628
  H 3.098671 0.433113 1.126800
  C 2.953631 -0.355849 -0.837128
  C 4.387079 -0.441199 -1.049761
  C 5.024837 -0.878497 -2.139533
  C 4.676325 -1.412021 -3.469210
  C 3.217001 -1.557357 -3.830841
  H 3.148628 -1.960960 -4.836829
  O 6.255416 -0.765227 -1.856947
  H 0.749511 0.606156 1.560108
  H 0.512911 -0.769251 0.459628
  H 0.512009 0.837424 -0.186026
  H 2.279127 -0.672493 -1.624696
  H 4.951555 -0.098068 -0.196120
  H 5.177647 -2.375608 -3.555274
  H 5.177615 -0.775256 -4.197441
  H 2.710241 -0.596577 -3.824793
  H 2.710641 -2.247809 -3.162333
  H 6.512764 -0.417481 -0.985652
 20
 59.699622
  C 1.000800 0.224256 0.609086
  C 2.425786 0.116160 0.338799
  H 3.107646 0.428631 1.116891
  C 2.924694 -0.356793 -0.839977
  C 4.460654 -0.455190 -1.085063
  C 4.998390 -0.895087 -2.181928
  C 4.707863 -1.429483 -3.514036
  C 3.228852 -1.575108 -3.873687
  H 3.147987 -1.978029 -4.877726
  O 6.164140 -0.725751 -1.760119
  H 0.797609 0.622435 1.600822
  H 0.522662 -0.753204 0.503548
  H 0.522216 0.857137 -0.143112
  H 2.260442 -0.671698 -1.625406
  H 4.944895 -0.096169 -0.189810
  H 5.222270 -2.401637 -3.586450
  H 5.221089 -0.776541 -4.238482
  H 2.722475 -0.611435 -3.859256
  H 2.724099 -2.262488 -3.196911
  H 6.392481 -0.379012 -0.886054
 20
 117.168934
  C 0.978311 0.230673 0.674821
  C 2.403636 0.144251 0.339954
  H 3.102244 0.461011 1.102874
  C 2.854231 -0.314198 -0.834562
  C 4.560587 -0.453469 -1.113108
  C 4.970480 -0.919388 -2.228965
  C 4.734312 -1.454584 -3.553725
  C 3.263333 -1.597864 -3.938482
  H 3.199373 -2.007066 -4.938479
  O 6.129677 -0.709558 -1.715041
  H 0.823566 0.623405 1.682156
  H 0.503823 -0.751149 0.596668
  H 0.468537 0.870938 -0.047570
  H 2.206414 -0.619572 -1.633228
  H 4.919140 -0.093570 -0.165689
  H 5.249207 -2.425930 -3.596722
  H 5.268377 -0.804844 -4.263742
  H 2.761996 -0.631747 -3.937383
  H 2.744875 -2.275859 -3.262745
  H 6.397059 -0.389157 -0.851551
 20
 139.745022
  C 0.823379 0.279526 0.787793
  C 2.270803 0.137378 0.358476
  H 2.987161 0.437845 1.110277
  C 2.622698 -0.306367 -0.804233
  C 4.796670 -0.465204 -1.157890
  C 5.034159 -0.945008 -2.302969
  C 4.798606 -1.483136 -3.623635
  C 3.318635 -1.612979 -3.962232
  H 3.219437 -2.025028 -4.968921
  O 6.320198 -0.700823 -1.767291
  H 0.774486 0.665146 1.791515
  H 0.324291 -0.684458 0.748624
  H 0.296594 0.964439 0.114950
  H 2.109109 -0.638525 -1.672892
  H 4.936275 -0.083566 -0.181871
  H 5.291451 -2.454689 -3.675572
  H 5.300061 -0.830081 -4.338556
  H 2.830751 -0.643436 -3.945262
  H 2.820967 -2.285168 -3.271853
  H 6.713212 -0.446820 -0.910832
 20
 150.508780
  C 0.675235 0.320297 0.880866
  C 2.103168 0.137375 0.390159
  H 2.860712 0.433151 1.118849
  C 2.421342 -0.313246 -0.775558
  C 5.034831 -0.499009 -1.216724
  C 5.159544 -0.983105 -2.379761
  C 4.867743 -1.514976 -3.683102
  C 3.370349 -1.602797 -3.942820
  H 3.211371 -2.001390 -4.942341
  O 6.511676 -0.732712 -1.837459
  H 0.672514 0.717008 1.882366
  H 0.149639 -0.631346 0.865768
  H 0.138044 1.014716 0.221637
  H 1.892123 -0.648661 -1.643201
  H 5.083577 -0.105726 -0.239436
  H 5.342162 -2.500730 -3.772268
  H 5.344755 -0.858756 -4.420541
  H 2.910988 -0.621675 -3.893593
  H 2.891819 -2.268286 -3.234264
  H 6.972353 -0.461166 -1.016178
 20
 148.664765
  C 0.560050 0.348566 0.986407
  C 1.956261 0.160027 0.418470
  H 2.738049 0.426677 1.113564
  C 2.237437 -0.259804 -0.768983
  C 5.267995 -0.496032 -1.300769
  C 5.195187 -0.998813 -2.458374
  C 4.948726 -1.540160 -3.742870
  C 3.428322 -1.613387 -3.943967
  H 3.230718 -2.034017 -4.928252
  O 6.688925 -0.702332 -1.869608
  H 0.613169 0.717143 2.002070
  H 0.023886 -0.592223 0.978406
  H 0.005920 1.058652 0.380128
  H 1.676072 -0.550343 -1.624642
  H 5.011284 -0.180261 -0.319356
  H 5.401303 -2.538454 -3.815844
  H 5.412043 -0.909995 -4.509592
  H 2.985889 -0.624698 -3.893381
  H 2.968954 -2.251264 -3.193686
  H 7.246049 -0.520170 -1.086572
 20
 130.637738
  C 0.696946 0.386326 0.990692
  C 2.063452 0.164168 0.362047
  H 2.883699 0.434881 1.016336
  C 2.269111 -0.274980 -0.821686
  C 5.302758 -0.558899 -1.328327
  C 5.019140 -1.105765 -2.447539
  C 4.862702 -1.526690 -3.782853
  C 3.349116 -1.716200 -4.060348
  H 3.239617 -2.058848 -5.084543
  O 6.693859 -0.476282 -1.434626
  H 0.810611 0.769551 1.998142
  H 0.149593 -0.551830 1.021940
  H 0.128574 1.095271 0.395126
  H 1.741611 -0.580308 -1.690519
  H 4.866290 -0.246948 -0.406881
  H 5.387809 -2.472222 -3.944585
  H 5.279048 -0.779100 -4.465289
  H 2.821318 -0.775219 -3.945850
  H 2.925443 -2.458365 -3.391225
  H 7.105602 -0.369274 -0.557015
