 23
 0.000000
  H 1.438339 0.162966 0.460249
  C 2.517230 0.147634 0.420372
  C 3.268761 0.619537 1.591745
  C 2.402760 1.086571 2.754173
  H 3.022205 1.419085 3.579489
  C 3.084202 -0.322555 -0.749504
  C 4.460766 -0.415622 -0.982205
  C 5.129099 -0.871337 -2.119220
  C 4.610554 -1.389288 -3.412216
  C 3.117253 -1.495492 -3.678999
  H 2.963950 -1.894701 -4.675556
  O 6.445056 -0.871401 -2.119261
  H 3.928761 1.439895 1.285751
  H 3.930041 -0.183182 1.938871
  H 1.763991 0.279773 3.107358
  H 1.762768 1.912369 2.450526
  H 2.404034 -0.633759 -1.523248
  H 5.099477 -0.089282 -0.169346
  H 5.065437 -2.377784 -3.544200
  H 5.066254 -0.765954 -4.190228
  H 2.639736 -0.519893 -3.633281
  H 2.638935 -2.169251 -2.972465
  H 6.850943 -0.541746 -1.294378
 23
 13.399277
  H 1.403767 0.200773 0.553249
  C 2.480150 0.185666 0.514607
  C 3.233780 0.652622 1.674467
  C 2.363933 1.118815 2.834552
  H 2.982734 1.451927 3.662064
  C 3.095224 -0.327010 -0.760962
  C 4.448892 -0.411573 -0.972054
  C 5.181918 -0.912071 -2.220887
  C 4.644887 -1.424192 -3.499120
  C 3.144995 -1.517107 -3.732366
  H 2.967984 -1.915586 -4.726985
  O 6.483323 -0.907023 -2.208629
  H 3.895831 1.472045 1.367219
  H 3.896681 -0.150685 2.019958
  H 1.725424 0.312098 3.187363
  H 1.724694 1.944672 2.530741
  H 2.412525 -0.636175 -1.530227
  H 5.090377 -0.087565 -0.164640
  H 5.091682 -2.415656 -3.638421
  H 5.092379 -0.803779 -4.284567
  H 2.676410 -0.538246 -3.677751
  H 2.675768 -2.187120 -3.017073
  H 6.885996 -0.576106 -1.381180
 23
 39.926758
  H 1.347315 0.223846 0.603410
  C 2.422254 0.214125 0.582510
  C 3.212033 0.666176 1.710354
  C 2.362263 1.136585 2.879466
  H 2.996712 1.465250 3.700258
  C 3.067421 -0.337382 -0.789488
  C 4.408259 -0.398398 -0.939404
  C 5.234248 -0.944365 -2.303098
  C 4.674434 -1.450557 -3.564855
  C 3.174234 -1.528314 -3.756890
  H 2.971620 -1.926504 -4.749319
  O 6.515499 -0.907614 -2.214401
  H 3.875858 1.474011 1.392886
  H 3.874054 -0.138152 2.040131
  H 1.726276 0.334368 3.242720
  H 1.728460 1.968753 2.586644
  H 2.347380 -0.626558 -1.513015
  H 5.092067 -0.091065 -0.170755
  H 5.115047 -2.442793 -3.716088
  H 5.114395 -0.837676 -4.360017
  H 2.717511 -0.545610 -3.696371
  H 2.718254 -2.197116 -3.033839
  H 6.884788 -0.574033 -1.381190
 23
 72.006397
  H 1.308189 0.234892 0.630550
  C 2.375918 0.235962 0.636764
  C 3.178894 0.683273 1.753331
  C 2.332765 1.155836 2.927795
  H 2.968202 1.481382 3.741134
  C 3.076270 -0.344441 -0.807829
  C 4.388530 -0.384521 -0.905328
  C 5.304745 -0.982768 -2.399237
  C 4.707855 -1.479440 -3.636596
  C 3.190648 -1.526864 -3.753072
  H 2.925276 -1.918251 -4.727647
  O 6.571875 -0.934822 -2.282667
  H 3.847183 1.494527 1.429358
  H 3.845292 -0.128253 2.080699
  H 1.696481 0.353591 3.293990
  H 1.698819 1.990272 2.637116
  H 2.347569 -0.630565 -1.523976
  H 5.088239 -0.083378 -0.152166
  H 5.126792 -2.482711 -3.805156
  H 5.126321 -0.871013 -4.452186
  H 2.759714 -0.535100 -3.665068
  H 2.760435 -2.182722 -3.003467
  H 6.933408 -0.597892 -1.440886
 23
 102.924363
  H 1.252908 0.262072 0.696866
  C 2.315374 0.268227 0.716140
  C 3.145424 0.708840 1.816617
  C 2.322447 1.188876 3.010610
  H 2.976712 1.509071 3.811692
  C 3.033323 -0.331425 -0.775861
  C 4.327167 -0.359969 -0.844436
  C 5.350618 -1.023898 -2.502181
  C 4.755479 -1.514621 -3.724178
  C 3.233862 -1.556998 -3.827615
  H 2.955833 -1.947600 -4.799588
  O 6.601204 -0.964058 -2.355905
  H 3.817646 1.513809 1.483548
  H 3.815183 -0.105030 2.132934
  H 1.686682 0.391383 3.387507
  H 1.689277 2.027632 2.731430
  H 2.281399 -0.612609 -1.479764
  H 5.052846 -0.069235 -0.117015
  H 5.170724 -2.521233 -3.893029
  H 5.170258 -0.904297 -4.542465
  H 2.809371 -0.562384 -3.733916
  H 2.810349 -2.210776 -3.071631
  H 6.950025 -0.621747 -1.500739
 23
 129.155087
  H 1.207176 0.251476 0.760898
  C 2.281608 0.274708 0.797983
  C 3.109835 0.747690 1.898114
  C 2.267282 1.237093 3.075504
  H 2.916901 1.584384 3.882849
  C 3.028361 -0.351036 -0.702189
  C 4.305145 -0.362360 -0.755204
  C 5.418670 -1.079378 -2.624371
  C 4.787032 -1.545303 -3.836970
  C 3.274054 -1.555326 -3.873169
  H 2.941198 -1.927693 -4.842977
  O 6.669045 -1.025950 -2.496574
  H 3.770884 1.556498 1.557495
  H 3.786008 -0.049670 2.236147
  H 1.639836 0.436364 3.461225
  H 1.624432 2.061552 2.774640
  H 2.278682 -0.643312 -1.406494
  H 5.050780 -0.079673 -0.050683
  H 5.175018 -2.550572 -4.033234
  H 5.179402 -0.934144 -4.656748
  H 2.877112 -0.553040 -3.743124
  H 2.872854 -2.210002 -3.105404
  H 7.030696 -0.696731 -1.643406
 23
 133.233724
  H 1.290704 0.267454 0.748209
  C 2.360427 0.260261 0.847949
  C 3.044044 0.772364 2.025938
  C 2.085211 1.309894 3.076856
  H 2.636536 1.673923 3.939260
  C 3.051247 -0.312345 -0.301677
  C 4.362508 -0.347063 -0.380968
  C 5.552576 -1.150579 -2.879397
  C 4.805351 -1.571349 -4.061053
  C 3.286828 -1.552898 -3.905842
  H 2.821236 -1.885674 -4.832165
  O 6.827662 -1.143173 -2.893594
  H 3.750231 1.556335 1.739503
  H 3.657348 -0.021399 2.462769
  H 1.405118 0.533147 3.411109
  H 1.497361 2.130137 2.678285
  H 2.351875 -0.637440 -1.058633
  H 5.196462 -0.126509 0.240207
  H 5.152397 -2.579875 -4.333079
  H 5.117770 -0.931313 -4.900551
  H 2.936118 -0.547802 -3.690497
  H 2.975566 -2.221647 -3.109101
  H 7.276527 -0.846060 -2.073171
 23
 136.923330
  H 1.278078 0.273568 0.851131
  C 2.360147 0.277178 0.953766
  C 2.976394 0.834627 2.153699
  C 1.964227 1.350290 3.177354
  H 2.477935 1.748426 4.052354
  C 3.079136 -0.263469 -0.156877
  C 4.401139 -0.297915 -0.259889
  C 5.623074 -1.226871 -3.034767
  C 4.825643 -1.629981 -4.209112
  C 3.319992 -1.558667 -3.989644
  H 2.800588 -1.871252 -4.893910
  O 6.896742 -1.253879 -3.113441
  H 3.662209 1.640706 1.878956
  H 3.617456 0.074119 2.612942
  H 1.303310 0.550019 3.505732
  H 1.352318 2.144691 2.751670
  H 2.435673 -0.614592 -0.953291
  H 5.279751 -0.103595 0.322526
  H 5.123606 -2.649571 -4.488170
  H 5.123991 -0.999911 -5.058651
  H 3.017966 -0.540904 -3.754808
  H 3.022701 -2.218703 -3.178087
  H 7.378367 -0.963040 -2.314151
 23
 138.053527
  H 1.276105 0.287866 0.930833
  C 2.353429 0.275264 1.048820
  C 2.910635 0.884724 2.249536
  C 1.856781 1.391482 3.230786
  H 2.334505 1.827193 4.107525
  C 3.109699 -0.257779 -0.021872
  C 4.431866 -0.273830 -0.127014
  C 5.690989 -1.279856 -3.172528
  C 4.834815 -1.657280 -4.312859
  C 3.343227 -1.550144 -4.015063
  H 2.766031 -1.843371 -4.890355
  O 6.959744 -1.344265 -3.360337
  H 3.580755 1.706296 1.971760
  H 3.570417 0.154866 2.740784
  H 1.213684 0.578962 3.564528
  H 1.231648 2.156129 2.771623
  H 2.532261 -0.613248 -0.868468
  H 5.313834 -0.131046 0.457810
  H 5.094389 -2.680236 -4.608962
  H 5.103239 -1.024507 -5.166336
  H 3.081717 -0.526545 -3.756612
  H 3.074353 -2.206133 -3.189611
  H 7.499362 -1.074414 -2.591202
 23
 139.485394
  H 1.272890 0.283518 0.993503
  C 2.337027 0.262937 1.137914
  C 2.858114 0.930667 2.338682
  C 1.779111 1.450457 3.273436
  H 2.225965 1.922256 4.141843
  C 3.118306 -0.288644 0.110413
  C 4.438520 -0.286813 0.017786
  C 5.755584 -1.314163 -3.303212
  C 4.835844 -1.665254 -4.412290
  C 3.369220 -1.543560 -4.045267
  H 2.751280 -1.815874 -4.893401
  O 7.011337 -1.394147 -3.554480
  H 3.517579 1.751810 2.051040
  H 3.518396 0.233164 2.863689
  H 1.143010 0.640007 3.620501
  H 1.153864 2.186898 2.776761
  H 2.574275 -0.650594 -0.761959
  H 5.319878 -0.179834 0.601269
  H 5.066389 -2.685392 -4.735233
  H 5.068352 -1.022997 -5.267980
  H 3.136926 -0.521867 -3.762586
  H 3.132074 -2.206482 -3.219035
  H 7.584936 -1.153877 -2.799016
 23
 139.160029
  H 1.229395 0.279846 1.057020
  C 2.311965 0.262955 1.221517
  C 2.809230 0.970553 2.394952
  C 1.711995 1.483852 3.297917
  H 2.139809 1.989338 4.158689
  C 3.116764 -0.297344 0.221462
  C 4.440197 -0.281003 0.140343
  C 5.819888 -1.357614 -3.435205
  C 4.839028 -1.671052 -4.488274
  C 3.391899 -1.516385 -4.033395
  H 2.718715 -1.763654 -4.846503
  O 7.059530 -1.460282 -3.744366
  H 3.450571 1.807813 2.094040
  H 3.481683 0.299727 2.943234
  H 1.090318 0.663936 3.659998
  H 1.073218 2.195005 2.770169
  H 2.590103 -0.665585 -0.654972
  H 5.325902 -0.209370 0.745609
  H 5.027381 -2.696545 -4.833317
  H 5.042569 -1.020906 -5.350933
  H 3.200849 -0.494432 -3.726804
  H 3.185073 -2.180688 -3.202417
  H 7.681490 -1.237532 -3.003382
 23
 139.127355
  H 1.208589 0.272936 1.141654
  C 2.270601 0.269380 1.311458
  C 2.766000 1.026241 2.472209
  C 1.652653 1.542487 3.377485
  H 2.075009 2.081491 4.222227
  C 3.081665 -0.306476 0.333814
  C 4.402050 -0.283676 0.256563
  C 5.877313 -1.400737 -3.566236
  C 4.859250 -1.685078 -4.590686
  C 3.429224 -1.511087 -4.084575
  H 2.726579 -1.736993 -4.874726
  O 7.107953 -1.511482 -3.899680
  H 3.379050 1.862337 2.144575
  H 3.452490 0.389936 3.038515
  H 1.051086 0.715458 3.767845
  H 0.990653 2.226719 2.834721
  H 2.561560 -0.689104 -0.532261
  H 5.264277 -0.242754 0.890245
  H 5.017705 -2.708735 -4.953213
  H 5.047089 -1.030228 -5.448147
  H 3.264990 -0.488476 -3.759038
  H 3.238570 -2.183959 -3.250939
  H 7.738168 -1.294902 -3.175833
 23
 138.835755
  H 1.143268 0.269106 1.269092
  C 2.217066 0.277244 1.430630
  C 2.716300 1.082011 2.546133
  C 1.613132 1.603822 3.446968
  H 2.038872 2.183875 4.265352
  C 3.023227 -0.322401 0.474885
  C 4.349616 -0.292077 0.383785
  C 5.929365 -1.430888 -3.690179
  C 4.881429 -1.690893 -4.692766
  C 3.466858 -1.505200 -4.154020
  H 2.740270 -1.715530 -4.935198
  O 7.150988 -1.547073 -4.035278
  H 3.305286 1.925350 2.172753
  H 3.433145 0.476729 3.122777
  H 1.039144 0.779604 3.876041
  H 0.927900 2.251025 2.892534
  H 2.500626 -0.729078 -0.383608
  H 5.191177 -0.274610 1.058314
  H 5.016641 -2.713423 -5.069489
  H 5.056220 -1.030605 -5.546138
  H 3.321928 -0.481040 -3.812251
  H 3.286713 -2.186358 -3.320148
  H 7.800344 -1.353877 -3.307918
