 10
 0.000000
  H -1.339811 -0.477844 0.654650
  C -0.871490 0.291874 0.044087
  H -1.208744 0.156626 -0.992173
  C -1.185540 1.641761 0.537038
  H -2.144279 1.878306 0.958886
  H -0.584133 2.471723 0.213861
  H 0.208083 0.139494 0.043495
  O 2.404450 -0.324797 -0.335696
  H 2.838907 0.251328 0.297113
  H 3.036898 -0.519038 -1.030728
 10
 -0.127144
  H -1.348346 -0.466643 0.608708
  C -0.869854 0.283824 -0.016551
  H -1.230453 0.155506 -1.045858
  C -1.127468 1.643546 0.477340
  H -1.901671 1.841770 1.191298
  H -0.623212 2.480005 0.033475
  H 0.202145 0.074124 -0.054321
  O 2.293184 -0.244037 -0.324861
  H 2.678618 0.299208 0.365888
  H 2.992489 -0.463966 -0.939528
 10
 0.035347
  H -1.323213 -0.480994 0.584702
  C -0.860320 0.265631 -0.052749
  H -1.247121 0.152214 -1.069624
  C -1.090631 1.621596 0.452371
  H -1.589584 1.796008 1.382914
  H -0.742884 2.467966 -0.106373
  H 0.211217 0.044932 -0.127639
  O 2.233839 -0.204230 -0.293897
  H 2.573420 0.281932 0.463582
  H 2.984331 -0.438998 -0.841938
 10
 1.344130
  H -1.298777 -0.507038 0.542989
  C -0.840727 0.260776 -0.080869
  H -1.137350 0.162255 -1.120738
  C -1.075036 1.615316 0.427182
  H -1.308762 1.787193 1.458589
  H -0.939998 2.462126 -0.209010
  H 0.248479 0.030997 -0.097977
  O 2.137711 -0.188576 -0.264154
  H 2.455454 0.267312 0.522881
  H 2.920361 -0.393458 -0.788636
 10
 3.127002
  H -1.290659 -0.499611 0.543666
  C -0.829360 0.262057 -0.089107
  H -1.124592 0.166337 -1.132812
  C -1.067459 1.614095 0.415841
  H -1.277027 1.775298 1.448073
  H -0.935245 2.467648 -0.215109
  H 0.208728 0.004975 -0.100906
  O 2.132450 -0.188775 -0.261012
  H 2.424653 0.267660 0.520599
  H 2.946829 -0.390797 -0.740532
 10
 37.084064
  H -1.056571 -0.524447 0.731225
  C -0.813469 0.197173 -0.042468
  H -0.957540 -0.175361 -1.055058
  C -1.057738 1.570623 0.271854
  H -1.101586 1.900370 1.288177
  H -1.012840 2.342149 -0.489754
  H 0.421123 -0.005809 -0.125375
  O 1.815971 -0.038638 -0.158072
  H 2.127603 0.491891 0.595400
  H 2.865478 -0.300050 -0.626745
 10
 54.238339
  H -1.115143 -0.546865 0.436422
  C -0.850811 0.338496 -0.124655
  H -0.948569 0.251499 -1.199360
  C -1.018523 1.560653 0.455534
  H -1.166857 1.665557 1.515602
  H -0.902658 2.469526 -0.107330
  H 0.570333 0.082887 -0.192937
  O 1.676328 -0.135775 -0.199979
  H 2.020850 0.212802 0.628810
  H 3.023263 -0.466836 -0.819013
 10
 48.728149
  H -1.236094 -0.511969 0.493212
  C -0.995170 0.365220 -0.083023
  H -1.029360 0.242831 -1.153541
  C -1.103284 1.572529 0.455460
  H -1.245640 1.710372 1.514816
  H -0.958210 2.467267 -0.125930
  H 0.690094 0.063935 -0.157412
  O 1.673623 -0.151720 -0.151191
  H 2.053663 0.264275 0.641216
  H 3.278582 -0.567312 -0.966608
 10
 45.915957
  H -1.277803 -0.517733 0.545701
  C -1.053328 0.342532 -0.065281
  H -0.982511 0.163789 -1.127339
  C -1.075298 1.568011 0.434375
  H -1.223377 1.752774 1.485551
  H -0.894986 2.436674 -0.177985
  H 0.743779 0.092604 -0.151955
  O 1.696710 -0.129405 -0.128510
  H 2.070804 0.257942 0.679685
  H 3.356377 -0.564160 -1.096554
 10
 44.678897
  H -1.413572 -0.508832 0.427919
  C -1.118409 0.381489 -0.104417
  H -0.986630 0.273253 -1.171229
  C -1.078532 1.561217 0.487209
  H -1.272453 1.677416 1.541471
  H -0.806522 2.458511 -0.045736
  H 0.814568 0.050251 -0.191406
  O 1.752732 -0.177997 -0.105373
  H 2.081576 0.208970 0.708133
  H 3.476660 -0.553972 -1.143330
 10
 43.720805
  H -1.611871 -0.355731 -0.276968
  C -1.126019 0.604997 -0.334137
  H -0.770974 0.898710 -1.310012
  C -1.082541 1.422612 0.700802
  H -1.492735 1.150176 1.659630
  H -0.608822 2.389530 0.645521
  H 0.872423 0.049014 -0.270369
  O 1.757247 -0.310734 -0.120215
  H 1.966126 -0.214772 0.811192
  H 3.652482 -0.301464 -1.095041
 10
 43.359102
  H -1.676918 -0.330560 -0.286826
  C -1.172444 0.617262 -0.338184
  H -0.774497 0.892336 -1.300516
  C -1.113903 1.430280 0.700091
  H -1.551406 1.169258 1.649687
  H -0.615629 2.385699 0.654780
  H 0.919718 0.049905 -0.235076
  O 1.781968 -0.360381 -0.088005
  H 2.021995 -0.220540 0.830060
  H 3.736433 -0.300921 -1.175607
 10
 42.855294
  H -1.702194 -0.318728 -0.295438
  C -1.198122 0.632160 -0.355290
  H -0.813131 0.902310 -1.326382
  C -1.086170 1.430596 0.688035
  H -1.487399 1.168041 1.652648
  H -0.588944 2.386516 0.626478
  H 0.936401 -0.001595 -0.222503
  O 1.771074 -0.453227 -0.051331
  H 2.043764 -0.224171 0.839570
  H 3.680038 -0.189565 -1.145384
