 23
 0.000000
  H 1.424303 0.161925 0.455637
  C 2.502721 0.147504 0.418895
  C 3.257340 0.618003 1.588383
  C 2.400769 1.087499 2.757048
  H 3.029113 1.416826 3.575855
  C 3.072967 -0.321822 -0.749316
  C 4.448328 -0.412810 -0.977057
  C 5.119959 -0.868043 -2.112557
  C 4.603026 -1.386646 -3.405851
  C 3.110442 -1.494842 -3.676300
  H 2.963088 -1.894465 -4.672819
  O 6.434747 -0.866468 -2.109203
  H 3.918428 1.437024 1.280627
  H 3.919082 -0.185594 1.933021
  H 1.762513 0.282452 3.114906
  H 1.762012 1.915926 2.458322
  H 2.393430 -0.632926 -1.523236
  H 5.089449 -0.087076 -0.166093
  H 5.061825 -2.373802 -3.537052
  H 5.062249 -0.764016 -4.182810
  H 2.632226 -0.519654 -3.631932
  H 2.631934 -2.169044 -2.970493
  H 6.836727 -0.535715 -1.283011
 23
 3.269557
  H 1.467893 0.311887 0.467067
  C 2.540944 0.203859 0.409826
  C 3.279052 0.589982 1.617032
  C 2.382015 1.085318 2.742589
  H 2.966212 1.363408 3.606316
  C 3.069856 -0.277824 -0.766552
  C 4.446416 -0.487620 -0.975599
  C 5.103561 -0.869512 -2.133745
  C 4.610803 -1.375652 -3.433523
  C 3.109708 -1.561410 -3.638186
  H 2.938714 -1.962052 -4.636918
  O 6.408798 -0.735523 -2.136395
  H 4.014818 1.357013 1.355242
  H 3.884594 -0.262189 1.946811
  H 1.672636 0.316968 3.037466
  H 1.813553 1.959825 2.424254
  H 2.381284 -0.490142 -1.557961
  H 5.008825 -0.249806 -0.077065
  H 5.130944 -2.325632 -3.601547
  H 5.005890 -0.716675 -4.208744
  H 2.587272 -0.607226 -3.588135
  H 2.689411 -2.251943 -2.917570
  H 6.907036 -0.457996 -1.343031
 23
 21.985391
  H 1.451662 0.404199 0.497041
  C 2.511340 0.232612 0.399771
  C 3.308612 0.517550 1.612398
  C 2.424753 1.074844 2.724208
  H 3.025263 1.324955 3.597466
  C 3.038173 -0.217260 -0.774930
  C 4.447868 -0.498056 -0.951792
  C 5.032184 -0.873720 -2.135589
  C 4.629068 -1.380906 -3.467422
  C 3.142388 -1.610940 -3.669542
  H 2.976299 -2.014076 -4.660688
  O 6.322694 -0.618798 -2.091557
  H 4.064967 1.266601 1.370265
  H 3.888461 -0.350828 1.944547
  H 1.667636 0.343130 3.010325
  H 1.906997 1.967646 2.402247
  H 2.332082 -0.359462 -1.577930
  H 4.831252 -0.304386 0.037610
  H 5.205470 -2.308911 -3.592098
  H 4.974224 -0.666688 -4.209510
  H 2.594053 -0.687420 -3.599042
  H 2.742303 -2.315226 -2.929324
  H 6.904148 -0.369864 -1.349842
 23
 23.346294
  H 1.474505 0.622035 0.470409
  C 2.521819 0.358787 0.408145
  C 3.264259 0.478529 1.674004
  C 2.440902 1.060678 2.821362
  H 3.043813 1.122454 3.720010
  C 2.993731 -0.039312 -0.804173
  C 4.346436 -0.446830 -1.025929
  C 4.984871 -0.828243 -2.183148
  C 4.653235 -1.381611 -3.498336
  C 3.202327 -1.762757 -3.704358
  H 3.080417 -2.259000 -4.652094
  O 6.252777 -0.440003 -2.137216
  H 4.138970 1.105963 1.507357
  H 3.680605 -0.494391 1.947139
  H 1.597994 0.421080 3.056635
  H 2.088615 2.051555 2.586835
  H 2.310974 -0.066706 -1.654836
  H 4.783285 -0.432423 -0.050038
  H 5.263157 -2.294605 -3.578679
  H 4.988160 -0.709781 -4.268368
  H 2.571162 -0.882107 -3.700129
  H 2.866269 -2.432704 -2.914910
  H 6.888407 -0.200236 -1.444572
 23
 24.113087
  H 1.639109 1.044983 0.323587
  C 2.629926 0.613086 0.308355
  C 3.277387 0.407550 1.637288
  C 2.364250 0.856957 2.773818
  H 2.838325 0.711769 3.736595
  C 3.156703 0.291995 -0.921343
  C 4.377841 -0.347760 -1.109241
  C 5.074478 -0.742376 -2.245983
  C 4.613979 -1.399384 -3.474825
  C 3.176185 -1.925779 -3.410825
  H 2.905166 -2.354341 -4.362837
  O 6.294024 -0.293229 -2.223716
  H 4.183033 1.013393 1.606826
  H 3.536334 -0.651198 1.724381
  H 1.439463 0.282731 2.757862
  H 2.094767 1.902581 2.656622
  H 2.568303 0.549962 -1.790169
  H 4.751005 -0.583605 -0.112242
  H 5.325846 -2.193313 -3.697341
  H 4.707206 -0.677816 -4.282905
  H 2.480232 -1.123703 -3.198425
  H 3.071716 -2.676875 -2.625344
  H 6.962815 -0.165105 -1.518030
 23
 44.382642
  H 1.719438 1.226267 0.388202
  C 2.646462 0.679544 0.348508
  C 3.249652 0.360598 1.661093
  C 2.407262 0.913900 2.821685
  H 2.870035 0.668803 3.776550
  C 3.156099 0.349088 -0.877552
  C 4.333000 -0.383620 -1.055214
  C 4.923929 -0.742017 -2.296732
  C 4.605691 -1.360674 -3.550003
  C 3.238922 -2.067413 -3.526918
  H 3.052635 -2.537124 -4.494225
  O 6.062188 0.012791 -2.153650
  H 4.240117 0.816405 1.746249
  H 3.339657 -0.721710 1.781128
  H 1.415002 0.501158 2.818126
  H 2.330114 1.994702 2.760688
  H 2.622650 0.641306 -1.766393
  H 4.750945 -0.852722 -0.190705
  H 5.414426 -2.060138 -3.782239
  H 4.672787 -0.587401 -4.318185
  H 2.450905 -1.377033 -3.309906
  H 3.231488 -2.857404 -2.751279
  H 6.767205 -0.102138 -1.503066
 23
 62.656484
  H 1.821119 1.423758 0.486402
  C 2.707601 0.812700 0.403444
  C 3.308605 0.375629 1.704211
  C 2.518167 0.890889 2.906144
  H 2.973289 0.552860 3.834500
  C 3.153119 0.530479 -0.818960
  C 4.267513 -0.351334 -1.081731
  C 4.726020 -0.778715 -2.348416
  C 4.616668 -1.398772 -3.654605
  C 3.352176 -2.256218 -3.734501
  H 3.278505 -2.715728 -4.706375
  O 5.613951 0.205447 -1.828543
  H 4.336428 0.726179 1.782588
  H 3.324969 -0.712969 1.743636
  H 1.496009 0.533342 2.880728
  H 2.498259 1.977544 2.916776
  H 2.644625 0.932735 -1.694582
  H 4.606013 -0.925132 -0.220298
  H 5.495456 -2.015073 -3.862160
  H 4.596526 -0.623757 -4.436974
  H 2.465977 -1.647792 -3.561019
  H 3.368818 -3.037346 -2.968778
  H 6.386607 -0.015832 -1.251384
 23
 69.922538
  H 1.975307 1.578752 0.553229
  C 2.798312 0.886211 0.447262
  C 3.291436 0.285723 1.723242
  C 2.526373 0.811357 2.934363
  H 2.899303 0.356629 3.848761
  C 3.243255 0.635190 -0.784774
  C 4.319478 -0.321810 -1.081151
  C 4.626404 -0.765279 -2.397832
  C 4.566793 -1.408310 -3.687117
  C 3.344353 -2.324498 -3.765864
  H 3.302715 -2.792796 -4.744032
  O 5.571319 0.149365 -1.825422
  H 4.352713 0.494378 1.862557
  H 3.174062 -0.801540 1.682047
  H 1.465484 0.584031 2.848633
  H 2.635768 1.890763 3.022567
  H 2.795049 1.123339 -1.634404
  H 4.619548 -0.940686 -0.237241
  H 5.482343 -1.984941 -3.867215
  H 4.510793 -0.653551 -4.487191
  H 2.429804 -1.759794 -3.615962
  H 3.392189 -3.102378 -3.008541
  H 6.395188 0.305317 -1.310956
