 17
 0.000000
  C 1.008475 -0.070697 0.049271
  C 2.504388 -0.082456 0.026186
  C 3.219381 -0.594859 -0.979747
  C 4.656045 -0.606851 -1.003288
  C 5.376231 -1.122359 -2.015314
  C 6.814307 -1.132633 -2.035482
  C 7.531495 -1.642469 -3.036384
  H 8.604463 -1.653924 -3.058870
  H 0.645893 0.395138 0.963773
  H 0.613040 -1.085034 0.009077
  H 0.613041 0.493180 -0.794850
  H 3.005934 0.352452 0.879986
  H 2.708047 -1.028010 -1.830085
  H 5.161445 -0.172340 -0.150275
  H 4.872466 -1.557147 -2.868878
  H 7.319941 -0.698021 -1.182268
  H 7.037979 -2.079185 -3.893716
 17
 1.081465
  C 0.968133 -0.034306 -0.096463
  C 2.456772 -0.134841 -0.005872
  C 3.231578 -0.605979 -0.987061
  C 4.662359 -0.697341 -0.903967
  C 5.445164 -1.158279 -1.900911
  C 6.878485 -1.231431 -1.895325
  C 7.547563 -1.512450 -3.017174
  H 8.623797 -1.580015 -3.060661
  H 0.545578 0.383225 0.814107
  H 0.527578 -1.017758 -0.262050
  H 0.677857 0.595365 -0.938501
  H 2.914500 0.202073 0.914941
  H 2.778604 -0.945401 -1.911241
  H 5.114440 -0.354730 0.020256
  H 4.959020 -1.497574 -2.808839
  H 7.388855 -1.045346 -0.957513
  H 6.972700 -1.650356 -3.924446
 17
 0.683184
  C 0.994983 -0.057182 0.008444
  C 2.488515 -0.065774 0.024456
  C 3.240103 -0.622946 -0.931608
  C 4.676198 -0.623370 -0.920707
  C 5.428771 -1.170029 -1.890383
  C 6.859878 -1.174689 -2.008439
  C 7.472266 -1.591245 -3.119035
  H 8.543064 -1.601370 -3.214728
  H 0.597279 0.447485 0.880527
  H 0.607189 -1.074115 -0.008350
  H 0.624255 0.446407 -0.881137
  H 2.970889 0.416374 0.865895
  H 2.761041 -1.106193 -1.776617
  H 5.153151 -0.136640 -0.080850
  H 4.910038 -1.637406 -2.727473
  H 7.433160 -0.822423 -1.162830
  H 6.914723 -1.916746 -3.985267
 17
 2.696637
  C 0.994223 -0.060964 -0.036360
  C 2.489249 -0.062284 0.011430
  C 3.262274 -0.648471 -0.906905
  C 4.698141 -0.624112 -0.878742
  C 5.469339 -1.174952 -1.827180
  C 6.895805 -1.206894 -1.970847
  C 7.412702 -1.524278 -3.157455
  H 8.467539 -1.570361 -3.359154
  H 0.576290 0.498675 0.793364
  H 0.608680 -1.082734 0.008365
  H 0.640028 0.382200 -0.964219
  H 2.954111 0.465386 0.837281
  H 2.803350 -1.162250 -1.744876
  H 5.155521 -0.089499 -0.053884
  H 4.954034 -1.744848 -2.592681
  H 7.512105 -0.969855 -1.115311
  H 6.739759 -1.723162 -3.985349
 17
 5.637623
  C 0.994403 -0.058634 -0.051645
  C 2.493500 -0.050714 -0.008444
  C 3.267872 -0.666223 -0.906399
  C 4.710627 -0.642602 -0.880784
  C 5.482735 -1.231721 -1.806419
  C 6.913468 -1.249825 -1.948303
  C 7.395697 -1.453327 -3.173634
  H 8.440677 -1.478095 -3.420115
  H 0.574692 0.537417 0.758818
  H 0.612735 -1.078946 0.035058
  H 0.633423 0.346611 -0.997894
  H 2.955702 0.505450 0.795892
  H 2.807786 -1.195444 -1.729812
  H 5.165940 -0.078042 -0.076904
  H 4.962473 -1.845127 -2.528805
  H 7.532588 -1.097005 -1.076377
  H 6.630356 -1.557809 -3.936122
 17
 8.771948
  C 1.003833 -0.036732 -0.076224
  C 2.503022 -0.037368 -0.038280
  C 3.268229 -0.723912 -0.889277
  C 4.707203 -0.706347 -0.870926
  C 5.482437 -1.340334 -1.771227
  C 6.916429 -1.302511 -1.928744
  C 7.357721 -1.290261 -3.185618
  H 8.389136 -1.286814 -3.480299
  H 0.593851 0.648763 0.668733
  H 0.611089 -1.031164 0.115501
  H 0.648120 0.288661 -1.058506
  H 2.968016 0.567459 0.722917
  H 2.804927 -1.333396 -1.654991
  H 5.167357 -0.076754 -0.125785
  H 4.978181 -2.055730 -2.410248
  H 7.556050 -1.286501 -1.060000
  H 6.548528 -1.280235 -3.910524
 17
 12.324433
  C 1.017982 -0.016973 -0.116532
  C 2.519368 -0.009433 -0.084982
  C 3.284678 -0.761826 -0.876065
  C 4.722760 -0.748987 -0.850968
  C 5.485174 -1.436853 -1.710950
  C 6.927750 -1.417909 -1.912285
  C 7.278010 -1.124943 -3.153259
  H 8.274653 -1.044567 -3.544737
  H 0.605956 0.731070 0.559109
  H 0.635999 -0.989828 0.182037
  H 0.652408 0.184855 -1.121489
  H 2.984930 0.659620 0.610918
  H 2.822887 -1.412913 -1.606719
  H 5.183311 -0.065402 -0.152124
  H 5.006491 -2.252340 -2.261002
  H 7.602584 -1.622080 -1.097535
  H 6.419141 -0.943374 -3.804811
 17
 21.919811
  C 1.067731 0.026081 -0.198674
  C 2.556470 -0.047114 -0.100813
  C 3.311598 -0.820965 -0.879381
  C 4.741673 -0.851482 -0.830489
  C 5.499621 -1.573988 -1.667151
  C 6.944111 -1.419184 -1.890294
  C 7.112171 -0.963133 -3.115190
  H 8.020890 -0.739914 -3.652704
  H 0.669667 0.815732 0.433628
  H 0.609848 -0.920230 0.086169
  H 0.770716 0.225553 -1.230678
  H 3.029859 0.619820 0.607675
  H 2.841402 -1.461622 -1.611866
  H 5.225351 -0.118493 -0.176163
  H 5.120161 -2.530826 -2.012780
  H 7.695923 -1.664965 -1.149799
  H 6.115740 -0.828451 -3.533341
 17
 43.428365
  C 1.098807 0.051366 -0.227090
  C 2.585556 -0.066812 -0.111259
  C 3.338687 -0.778388 -0.951277
  C 4.760238 -0.918611 -0.838086
  C 5.514148 -1.618403 -1.702489
  C 6.966630 -1.443090 -1.873129
  C 7.008960 -0.937171 -3.106264
  H 7.821556 -0.595114 -3.714402
  H 0.703017 0.789285 0.460420
  H 0.616812 -0.904234 -0.050731
  H 0.825350 0.361244 -1.240560
  H 3.069459 0.527115 0.654574
  H 2.866251 -1.319808 -1.757800
  H 5.265348 -0.275596 -0.118961
  H 5.167403 -2.608696 -1.963211
  H 7.723870 -1.594549 -1.118951
  H 5.899725 -0.888568 -3.236653
 17
 69.180375
  C 1.113942 0.063699 -0.252732
  C 2.596513 -0.072490 -0.104469
  C 3.358858 -0.818179 -0.922515
  C 4.774229 -0.921292 -0.831690
  C 5.528360 -1.580736 -1.744563
  C 6.967758 -1.453178 -1.861569
  C 7.004540 -0.877591 -3.062806
  H 7.791360 -0.527595 -3.727375
  H 0.722531 0.804317 0.432076
  H 0.607021 -0.863801 -0.051436
  H 0.864015 0.353111 -1.287554
  H 3.068753 0.526494 0.664689
  H 2.884283 -1.349924 -1.726398
  H 5.283647 -0.287131 -0.086284
  H 5.160599 -2.528428 -2.078126
  H 7.721574 -1.724717 -1.123622
  H 5.689106 -0.895780 -3.073790
