 23
 0.000000
  C 0.996378 0.132254 0.379571
  C 2.468617 0.144085 0.411572
  C 3.227100 0.617734 1.589971
  C 2.429778 1.103823 2.796803
  C 3.368485 1.551831 3.913353
  C 3.124657 -0.314021 -0.726224
  C 4.506835 -0.384795 -0.904686
  C 5.095989 -0.848025 -2.058468
  H 4.547716 -1.198051 -2.924819
  O 6.381017 -0.921004 -2.249112
  H 0.539272 0.499190 1.290341
  H 0.639884 -0.881464 0.189164
  H 0.641187 0.732226 -0.459984
  H 3.888763 1.430301 1.268311
  H 3.887389 -0.192113 1.921005
  H 1.791675 0.303932 3.176394
  H 1.793266 1.944850 2.516532
  H 4.003313 0.732087 4.242250
  H 2.796763 1.897234 4.771088
  H 4.004995 2.369912 3.583701
  H 2.503737 -0.644588 -1.547517
  H 5.151438 -0.060028 -0.099483
  H 6.918828 -0.613117 -1.491713
 23
 1.038983
  C 0.995898 0.184321 0.352172
  C 2.467321 0.179296 0.396979
  C 3.221924 0.601371 1.596077
  C 2.424561 1.088913 2.801712
  C 3.362156 1.480743 3.940786
  C 3.139211 -0.293559 -0.724008
  C 4.522306 -0.248719 -0.940997
  C 5.111220 -0.966066 -1.957927
  H 4.522948 -1.631180 -2.581074
  O 6.375118 -0.979470 -2.251756
  H 0.541014 0.587041 1.248147
  H 0.628730 -0.832011 0.195220
  H 0.653314 0.752829 -0.513597
  H 3.920749 1.392714 1.301259
  H 3.857223 -0.233825 1.914375
  H 1.756090 0.302485 3.155654
  H 1.820328 1.956329 2.530421
  H 3.962075 0.632050 4.261178
  H 2.791622 1.831333 4.797104
  H 4.033410 2.280538 3.636046
  H 2.539338 -0.700715 -1.526852
  H 5.133086 0.407687 -0.337628
  H 6.927834 -0.388277 -1.701831
 23
 3.623938
  C 0.980210 0.170066 0.362309
  C 2.449910 0.257547 0.351446
  C 3.218972 0.710409 1.528902
  C 2.442747 1.025022 2.801642
  C 3.394298 1.423703 3.927442
  C 3.108762 -0.145618 -0.797523
  C 4.506707 -0.149691 -0.996391
  C 5.110651 -1.058074 -1.829515
  H 4.527916 -1.833395 -2.319376
  O 6.382854 -1.153930 -2.064993
  H 0.537179 0.565077 1.266352
  H 0.677251 -0.873500 0.255571
  H 0.567642 0.683706 -0.504564
  H 3.778720 1.602852 1.232209
  H 3.980437 -0.036521 1.763593
  H 1.868089 0.150403 3.120373
  H 1.744235 1.849319 2.628813
  H 4.105155 0.627194 4.138088
  H 2.838304 1.625828 4.839483
  H 3.947786 2.318182 3.670020
  H 2.502687 -0.492185 -1.628877
  H 5.107533 0.606525 -0.504644
  H 6.929097 -0.463583 -1.635918
 23
 8.863582
  C 0.928762 0.174358 0.365563
  C 2.400722 0.245796 0.316348
  C 3.213124 0.672273 1.480464
  C 2.479906 1.010864 2.776488
  C 3.473163 1.365252 3.877573
  C 3.034838 -0.128116 -0.849339
  C 4.431621 -0.049256 -1.086386
  C 5.153832 -1.097490 -1.587829
  H 4.681181 -2.055001 -1.780000
  O 6.435475 -1.106648 -1.820844
  H 0.516399 0.533107 1.300418
  H 0.607077 -0.856773 0.218846
  H 0.498774 0.736371 -0.464802
  H 3.794780 1.547495 1.163148
  H 3.961539 -0.096776 1.697111
  H 1.881284 0.157760 3.105368
  H 1.809697 1.860648 2.623185
  H 4.160538 0.542878 4.063126
  H 2.949672 1.578906 4.804008
  H 4.052990 2.244089 3.610830
  H 2.428890 -0.489973 -1.668628
  H 4.928096 0.886163 -0.865055
  H 6.883816 -0.255034 -1.652314
 23
 14.981462
  C 0.897449 0.250376 0.351699
  C 2.371513 0.281376 0.283025
  C 3.214886 0.651045 1.446979
  C 2.511419 0.969144 2.759250
  C 3.524492 1.281382 3.853705
  C 2.980143 -0.094139 -0.891248
  C 4.388051 -0.019970 -1.157235
  C 5.176644 -1.108217 -1.367821
  H 4.779243 -2.112077 -1.276800
  O 6.460251 -1.096355 -1.617934
  H 0.511218 0.588472 1.303368
  H 0.538826 -0.767015 0.172859
  H 0.471951 0.855725 -0.448794
  H 3.818717 1.515632 1.141768
  H 3.943892 -0.145840 1.629038
  H 1.905232 0.120804 3.076444
  H 1.851382 1.831728 2.636341
  H 4.200508 0.442431 4.011775
  H 3.015850 1.482568 4.792872
  H 4.118203 2.159148 3.598015
  H 2.356209 -0.397233 -1.719523
  H 4.818072 0.971345 -1.215466
  H 6.841988 -0.202651 -1.706335
 23
 20.515623
  C 0.982790 0.834545 0.115088
  C 2.436757 0.581286 0.169193
  C 3.191994 0.531869 1.445844
  C 2.410987 0.695028 2.739104
  C 3.329705 0.583552 3.950012
  C 3.112119 0.359137 -1.001241
  C 4.544870 0.176406 -1.124116
  C 5.172619 -1.019206 -1.154463
  H 4.623953 -1.946238 -1.041986
  O 6.467894 -1.219816 -1.296613
  H 0.548478 1.015247 1.089195
  H 0.474212 -0.015045 -0.343891
  H 0.774649 1.686051 -0.534191
  H 3.970846 1.304227 1.400715
  H 3.749874 -0.412157 1.480843
  H 1.639593 -0.074235 2.811016
  H 1.917541 1.669003 2.763162
  H 3.837337 -0.377474 3.968471
  H 2.756924 0.677483 4.868019
  H 4.082633 1.368618 3.943251
  H 2.559959 0.397321 -1.934197
  H 5.115646 1.095711 -1.232098
  H 6.985387 -0.395975 -1.390167
 23
 15.955097
  C 0.965067 0.814124 0.115218
  C 2.420447 0.577782 0.134741
  C 3.206784 0.549700 1.391477
  C 2.447110 0.647428 2.703846
  C 3.404336 0.552400 3.891025
  C 3.085296 0.411350 -1.053491
  C 4.503498 0.191237 -1.185187
  C 5.122846 -0.990139 -0.945739
  H 4.561679 -1.864187 -0.635614
  O 6.412380 -1.233110 -1.052246
  H 0.552637 0.988514 1.098174
  H 0.460227 -0.039302 -0.341321
  H 0.727917 1.671015 -0.525568
  H 3.948173 1.358108 1.361292
  H 3.809298 -0.370407 1.376865
  H 1.711938 -0.159097 2.772867
  H 1.911197 1.599407 2.761449
  H 3.955096 -0.387856 3.874791
  H 2.850731 0.601473 4.827805
  H 4.121783 1.371874 3.881683
  H 2.528644 0.505996 -1.975885
  H 5.076683 1.045932 -1.544428
  H 6.946292 -0.457675 -1.326347
 23
 14.671828
  C 0.982138 0.837105 0.123161
  C 2.425117 0.539534 0.182587
  C 3.186675 0.506717 1.457830
  C 2.403801 0.699379 2.750855
  C 3.328685 0.577660 3.958555
  C 3.097644 0.281911 -0.982937
  C 4.492324 0.125897 -1.236604
  C 5.252477 -0.963384 -0.946266
  H 4.822895 -1.822250 -0.443564
  O 6.494352 -1.158494 -1.301838
  H 0.554047 1.032170 1.098607
  H 0.447127 0.010201 -0.344908
  H 0.809224 1.705227 -0.513673
  H 3.973815 1.267654 1.420962
  H 3.718198 -0.451771 1.488510
  H 1.618626 -0.054511 2.830411
  H 1.938456 1.686258 2.769302
  H 3.818110 -0.393411 3.977923
  H 2.761999 0.686316 4.879933
  H 4.095433 1.348826 3.942858
  H 2.600711 0.501451 -1.923778
  H 4.875687 0.922501 -1.861341
  H 6.925008 -0.379046 -1.703119
