 9
 0.000000
  C 0.900961 0.049048 0.266449
  C 2.385361 0.059902 0.074084
  H 2.982471 0.009064 0.975086
  C 2.992704 0.125885 -1.095283
  H 2.483722 0.179388 -2.043469
  H 4.068848 0.129850 -1.165519
  H 0.641649 -0.010439 1.320669
  H 0.454929 -0.804845 -0.241913
  H 0.454932 0.954710 -0.142623
 9
 -0.151886
  C 0.903763 0.048653 0.254001
  C 2.393738 0.023051 0.086394
  H 2.955892 -0.198948 0.961412
  C 3.009915 0.201253 -1.071666
  H 2.456261 0.373429 -1.981068
  H 4.073478 0.097875 -1.180999
  H 0.634893 0.235580 1.292561
  H 0.474687 -0.906573 -0.035062
  H 0.462505 0.818162 -0.376660
 9
 -0.903838
  C 0.896168 0.045154 0.233629
  C 2.375373 -0.073789 0.061847
  H 2.927107 -0.383486 0.938923
  C 3.017063 0.212190 -1.054782
  H 2.504934 0.557887 -1.937535
  H 4.085653 0.116648 -1.145800
  H 0.674999 0.480535 1.206466
  H 0.424745 -0.934649 0.178178
  H 0.463792 0.677284 -0.540092
 9
 -1.306687
  C 0.894556 0.037222 0.213056
  C 2.369209 -0.124720 0.048022
  H 2.892838 -0.538258 0.899440
  C 3.041727 0.231381 -1.027281
  H 2.544730 0.639494 -1.895506
  H 4.109795 0.109687 -1.103640
  H 0.693693 0.632533 1.100784
  H 0.410931 -0.931702 0.337669
  H 0.461517 0.539088 -0.648487
 9
 -0.173460
  C 0.883289 0.030187 0.187653
  C 2.349218 -0.200956 0.028558
  H 2.852557 -0.655975 0.870518
  C 3.047617 0.275684 -0.986235
  H 2.566929 0.772462 -1.813140
  H 4.115617 0.155317 -1.060756
  H 0.767325 0.815806 0.930112
  H 0.358456 -0.863946 0.513497
  H 0.446212 0.385358 -0.742487
 9
 -0.028093
  C 0.872728 0.031476 0.147183
  C 2.340738 -0.219085 0.027263
  H 2.806336 -0.754329 0.844159
  C 3.080059 0.315384 -0.925840
  H 2.639514 0.881077 -1.730607
  H 4.145857 0.169094 -0.979093
  H 0.751708 0.952612 0.713956
  H 0.358355 -0.779188 0.654868
  H 0.423719 0.185922 -0.831351
 9
 0.260827
  C 0.870478 0.030878 0.137009
  C 2.334915 -0.242250 0.002689
  H 2.784908 -0.861945 0.766649
  C 3.097470 0.365824 -0.885066
  H 2.688522 1.023195 -1.635301
  H 4.156582 0.181159 -0.950531
  H 0.751286 1.047227 0.507172
  H 0.379955 -0.664478 0.809817
  H 0.382243 -0.011143 -0.835837
