 11
 0.000000
  H 1.343750 0.142575 0.404346
  C 2.418174 0.115598 0.338394
  H 2.982001 0.457959 1.191910
  C 3.041785 -0.337029 -0.788605
  C 4.438949 -0.379037 -0.893919
  C 5.124823 -0.830341 -2.018774
  H 4.601440 -1.185703 -2.903769
  O 6.399469 -0.869131 -2.116305
  H 2.451425 -0.674845 -1.630052
  H 5.031965 -0.040363 -0.051190
  H 6.895295 -0.552133 -1.326623
 11
 15.692903
  H 1.417182 0.164601 0.464028
  C 2.485157 0.116675 0.341181
  H 3.089551 0.450604 1.169284
  C 3.044587 -0.344611 -0.807925
  C 4.485864 -0.416218 -0.988643
  C 5.083772 -0.869105 -2.117488
  H 4.665383 -1.238212 -3.038892
  O 6.305196 -0.801367 -1.947076
  H 2.422106 -0.674785 -1.626094
  H 5.068756 -0.077019 -0.148071
  H 6.660261 -0.462310 -1.093237
 11
 55.267439
  H 1.468902 0.188016 0.519018
  C 2.527905 0.119735 0.348623
  H 3.168550 0.445256 1.153716
  C 3.025931 -0.350176 -0.818686
  C 4.541676 -0.443143 -1.053628
  C 5.073422 -0.899494 -2.194101
  H 4.754998 -1.285361 -3.159011
  O 6.233493 -0.751782 -1.824261
  H 2.380920 -0.674751 -1.623799
  H 5.058024 -0.092402 -0.179263
  H 6.499261 -0.408169 -0.962451
 11
 103.030737
  H 1.437611 0.255577 0.507119
  C 2.506794 0.118612 0.358282
  H 3.111948 0.423458 1.186810
  C 2.946476 -0.362805 -0.771265
  C 4.676703 -0.465915 -1.077897
  C 5.024823 -0.900804 -2.251260
  H 4.733139 -1.279285 -3.204099
  O 6.242673 -0.766752 -1.794691
  H 2.402244 -0.716118 -1.624476
  H 5.060650 -0.073781 -0.156848
  H 6.599364 -0.386046 -0.969466
 11
 131.317741
  H 1.357212 0.255709 0.604048
  C 2.423144 0.135635 0.381582
  H 3.069226 0.437819 1.177608
  C 2.801933 -0.337799 -0.756297
  C 4.830221 -0.481284 -1.111290
  C 5.063572 -0.922070 -2.293084
  H 4.757314 -1.299432 -3.238887
  O 6.324223 -0.783921 -1.785607
  H 2.292404 -0.691700 -1.625566
  H 5.106188 -0.091260 -0.157994
  H 6.727223 -0.368874 -0.998821
 11
 146.551502
  H 1.226695 0.286888 0.709521
  C 2.268175 0.165068 0.424878
  H 2.959650 0.431545 1.208347
  C 2.607463 -0.304831 -0.725195
  C 5.024751 -0.496459 -1.146569
  C 5.147516 -0.941666 -2.329964
  H 4.814880 -1.326232 -3.266083
  O 6.468762 -0.817110 -1.823439
  H 2.105983 -0.660433 -1.593117
  H 5.179009 -0.107150 -0.169237
  H 6.948991 -0.366779 -1.096609
 11
 143.083705
  H 1.029005 0.378949 0.786592
  C 2.065637 0.191036 0.496775
  H 2.769885 0.482662 1.261957
  C 2.412072 -0.309934 -0.638318
  C 5.250573 -0.567743 -1.136472
  C 5.253395 -0.931953 -2.349671
  H 4.924519 -1.255876 -3.312390
  O 6.624375 -0.956791 -1.861219
  H 1.951128 -0.627683 -1.543980
  H 5.234332 -0.182813 -0.142874
  H 7.214348 -0.343114 -1.362776
 11
 137.413627
  H 0.906546 0.418091 0.799131
  C 1.947227 0.214669 0.533686
  H 2.642073 0.522011 1.303396
  C 2.322789 -0.295873 -0.589210
  C 5.402969 -0.628302 -1.133717
  C 5.327766 -0.929341 -2.364426
  H 4.943397 -1.163635 -3.330307
  O 6.701070 -1.041344 -1.837581
  H 1.857708 -0.647045 -1.485365
  H 5.288968 -0.185386 -0.176549
  H 7.336063 -0.327580 -1.534611
 11
 127.272261
  H 0.819556 0.420972 0.792155
  C 1.871120 0.246587 0.545442
  H 2.543517 0.547437 1.337695
  C 2.274662 -0.263421 -0.566297
  C 5.457159 -0.620345 -1.088221
  C 5.380950 -0.879395 -2.335403
  H 5.033387 -1.110277 -3.321753
  O 6.717295 -1.081489 -1.731680
  H 1.839610 -0.634795 -1.470227
  H 5.285302 -0.243718 -0.105330
  H 7.369107 -0.350264 -1.909427
