 23
 0.000000
  H 1.406450 0.152581 0.434051
  C 2.485406 0.141077 0.403521
  C 3.236036 0.611881 1.572044
  H 2.605730 0.940125 2.389213
  C 3.061498 -0.327472 -0.762420
  C 4.440041 -0.414756 -0.980995
  C 5.121289 -0.868288 -2.112277
  C 4.618178 -1.388611 -3.410010
  C 3.127301 -1.504978 -3.701494
  C 2.913915 -2.067588 -5.104696
  O 6.435927 -0.862911 -2.099102
  H 3.891013 1.436925 1.282197
  H 3.892427 -0.182963 1.934032
  H 2.389387 -0.641092 -1.542089
  H 5.067940 -0.085371 -0.160310
  H 5.077053 -2.376138 -3.537877
  H 5.077719 -0.763455 -4.184738
  H 2.651692 -0.524986 -3.649709
  H 2.651106 -2.177402 -2.987110
  H 3.356646 -1.419372 -5.857165
  H 1.851321 -2.152463 -5.317286
  H 3.356172 -3.056349 -5.200747
  H 6.833289 -0.531310 -1.270522
 23
 -0.173121
  H 1.424022 0.085755 0.492882
  C 2.501237 0.105223 0.415360
  C 3.243002 0.675968 1.542514
  H 2.576312 1.006970 2.330033
  C 3.053478 -0.407570 -0.740207
  C 4.429935 -0.450899 -0.976286
  C 5.120693 -0.914719 -2.099128
  C 4.617574 -1.403411 -3.406751
  C 3.127023 -1.513255 -3.696396
  C 2.913804 -2.016441 -5.121825
  O 6.432516 -0.913978 -2.074958
  H 3.851081 1.522294 1.216114
  H 3.944227 -0.052195 1.953584
  H 2.374617 -0.797221 -1.478668
  H 5.058512 -0.062888 -0.183111
  H 5.084324 -2.381313 -3.568858
  H 5.077953 -0.755982 -4.162803
  H 2.648479 -0.538053 -3.600059
  H 2.658128 -2.218495 -3.010930
  H 3.352386 -1.333591 -5.846242
  H 1.852553 -2.099488 -5.338010
  H 3.363637 -2.996807 -5.260718
  H 6.837950 -0.600271 -1.243049
 23
 -0.005729
  H 1.428088 0.023208 0.519496
  C 2.503104 0.076903 0.424681
  C 3.240624 0.736499 1.508921
  H 2.573516 1.086995 2.288174
  C 3.056922 -0.476865 -0.709775
  C 4.431140 -0.485600 -0.965046
  C 5.122806 -0.960447 -2.082269
  C 4.621205 -1.412287 -3.405792
  C 3.130213 -1.525247 -3.689993
  C 2.910645 -1.968036 -5.134425
  O 6.434318 -0.970681 -2.051283
  H 3.814347 1.585652 1.126814
  H 3.973107 0.056429 1.948691
  H 2.384664 -0.936562 -1.410495
  H 5.058961 -0.045394 -0.197554
  H 5.097719 -2.379444 -3.606900
  H 5.069308 -0.730687 -4.137351
  H 2.642844 -0.561173 -3.545568
  H 2.675053 -2.263398 -3.033212
  H 3.336538 -1.249770 -5.831558
  H 1.849506 -2.052993 -5.346016
  H 3.369567 -2.936717 -5.319127
  H 6.838513 -0.672322 -1.212420
 23
 0.350107
  H 1.432856 -0.011346 0.540816
  C 2.505638 0.062897 0.430253
  C 3.239536 0.784600 1.473659
  H 2.572397 1.157994 2.244047
  C 3.060773 -0.528683 -0.683986
  C 4.432096 -0.520665 -0.952730
  C 5.124532 -1.006063 -2.065752
  C 4.631183 -1.416459 -3.406523
  C 3.136086 -1.542835 -3.683061
  C 2.907823 -1.927489 -5.141984
  O 6.435969 -1.023484 -2.027732
  H 3.793140 1.624495 1.047418
  H 3.988726 0.139178 1.936024
  H 2.393896 -1.042275 -1.357290
  H 5.063130 -0.036796 -0.215141
  H 5.121731 -2.366109 -3.644997
  H 5.060789 -0.694857 -4.109792
  H 2.634477 -0.592428 -3.493064
  H 2.699275 -2.317593 -3.051652
  H 3.312728 -1.172414 -5.811948
  H 1.846039 -2.022737 -5.345609
  H 3.381093 -2.879182 -5.372661
  H 6.837448 -0.736235 -1.187449
 23
 0.668087
  H 1.439964 -0.033401 0.553188
  C 2.509713 0.065064 0.430574
  C 3.236971 0.798167 1.467391
  H 2.569273 1.168179 2.235513
  C 3.067813 -0.515254 -0.689719
  C 4.436229 -0.505918 -0.957864
  C 5.121366 -1.009074 -2.069790
  C 4.634193 -1.416473 -3.412037
  C 3.139744 -1.557261 -3.680637
  C 2.907303 -1.921338 -5.144987
  O 6.433318 -1.057855 -2.016407
  H 3.781964 1.638414 1.036274
  H 3.999927 0.166134 1.927518
  H 2.408893 -1.047105 -1.358336
  H 5.082089 -0.026601 -0.230234
  H 5.137373 -2.357982 -3.654213
  H 5.046606 -0.675743 -4.106185
  H 2.634882 -0.610736 -3.479098
  H 2.714401 -2.339233 -3.053423
  H 3.308611 -1.155094 -5.802387
  H 1.846198 -2.019984 -5.347395
  H 3.387571 -2.863534 -5.392670
  H 6.829687 -0.802310 -1.160909
 23
 0.696619
  H 1.456413 -0.144483 0.584765
  C 2.520095 -0.000891 0.434609
  C 3.218392 0.887065 1.371423
  H 2.536446 1.312545 2.098611
  C 3.095493 -0.651715 -0.633599
  C 4.458972 -0.578204 -0.931803
  C 5.145057 -1.075664 -2.041339
  C 4.637899 -1.427949 -3.392794
  C 3.146001 -1.550931 -3.658142
  C 2.899170 -1.824565 -5.144661
  O 6.453202 -1.131868 -2.003315
  H 3.723733 1.693763 0.841878
  H 4.004184 0.341517 1.904003
  H 2.461296 -1.285538 -1.231581
  H 5.080441 -0.023349 -0.229270
  H 5.131399 -2.361788 -3.677664
  H 5.062661 -0.678195 -4.066250
  H 2.629480 -0.629495 -3.381824
  H 2.729397 -2.380154 -3.084136
  H 3.283359 -1.014177 -5.758916
  H 1.833517 -1.919121 -5.339906
  H 3.379830 -2.747203 -5.456637
  H 6.857086 -0.902377 -1.144718
 23
 1.292054
  H 1.504162 -0.354345 0.630158
  C 2.538091 -0.111975 0.430536
  C 3.144680 0.955403 1.232868
  H 2.430012 1.388787 1.925903
  C 3.163040 -0.807299 -0.581095
  C 4.505265 -0.636297 -0.921112
  C 5.198999 -1.138128 -2.032043
  C 4.664539 -1.490535 -3.369485
  C 3.159492 -1.498906 -3.612127
  C 2.870240 -1.686906 -5.095679
  O 6.506366 -1.191644 -2.000419
  H 3.545267 1.742452 0.593258
  H 3.994311 0.570314 1.800491
  H 2.591876 -1.563830 -1.092609
  H 5.092370 0.012531 -0.284559
  H 5.088090 -2.462942 -3.651528
  H 5.134099 -0.780849 -4.059510
  H 2.709286 -0.564878 -3.278059
  H 2.695238 -2.320724 -3.067580
  H 3.291093 -0.872036 -5.681723
  H 1.796536 -1.704840 -5.271395
  H 3.286529 -2.623435 -5.455738
  H 6.916003 -0.967868 -1.143325
 23
 2.467575
  H 1.503737 -0.352931 0.622719
  C 2.540481 -0.111112 0.425706
  C 3.143281 0.973440 1.212374
  H 2.446114 1.366098 1.943562
  C 3.175705 -0.832205 -0.559989
  C 4.507976 -0.640921 -0.922310
  C 5.202615 -1.171293 -2.021715
  C 4.674345 -1.485004 -3.374298
  C 3.169993 -1.511089 -3.603154
  C 2.872500 -1.670384 -5.091324
  O 6.507670 -1.253393 -1.980246
  H 3.461730 1.788843 0.561874
  H 4.039929 0.629927 1.724573
  H 2.617253 -1.613030 -1.049458
  H 5.080742 0.092917 -0.365857
  H 5.112982 -2.437887 -3.694801
  H 5.123175 -0.733892 -4.033564
  H 2.716091 -0.583825 -3.251879
  H 2.718590 -2.348671 -3.071664
  H 3.301271 -0.853187 -5.663923
  H 1.800380 -1.674763 -5.264001
  H 3.279124 -2.605098 -5.471665
  H 6.914560 -1.094080 -1.106802
 23
 4.005910
  H 1.511175 -0.398228 0.600856
  C 2.540218 -0.137571 0.391155
  C 3.112038 1.013757 1.101669
  H 2.366974 1.519996 1.703788
  C 3.205975 -0.914881 -0.530735
  C 4.541679 -0.734448 -0.879522
  C 5.234404 -1.199933 -2.011676
  C 4.691721 -1.445973 -3.371521
  C 3.182459 -1.464091 -3.568600
  C 2.849611 -1.625631 -5.051475
  O 6.538372 -1.312368 -1.982054
  H 3.537967 1.731898 0.400521
  H 3.930194 0.693924 1.750090
  H 2.671666 -1.745457 -0.962901
  H 5.106431 0.025383 -0.349822
  H 5.122604 -2.387503 -3.726702
  H 5.135820 -0.672346 -4.008407
  H 2.739786 -0.541244 -3.201956
  H 2.742214 -2.301828 -3.028644
  H 3.241713 -0.795773 -5.633029
  H 1.769523 -1.653244 -5.193551
  H 3.264063 -2.550626 -5.445484
  H 6.951179 -1.222433 -1.100797
 23
 5.203801
  H 1.508073 -0.399884 0.582093
  C 2.545006 -0.161972 0.392698
  C 3.093842 1.040664 1.034665
  H 2.358803 1.525672 1.671088
  C 3.217883 -0.965985 -0.497760
  C 4.547892 -0.786205 -0.859906
  C 5.245226 -1.240786 -1.997293
  C 4.701159 -1.459317 -3.359941
  C 3.188816 -1.418318 -3.561493
  C 2.855959 -1.578371 -5.041796
  O 6.547554 -1.368206 -1.969801
  H 3.435349 1.758585 0.288279
  H 3.971144 0.786680 1.633298
  H 2.699542 -1.835506 -0.883180
  H 5.110066 -0.016453 -0.349301
  H 5.090076 -2.422744 -3.714843
  H 5.182642 -0.704403 -3.993028
  H 2.776334 -0.474027 -3.199080
  H 2.718707 -2.233350 -3.020165
  H 3.272073 -0.760700 -5.629708
  H 1.775371 -1.582933 -5.187191
  H 3.249466 -2.515860 -5.429305
  H 6.969824 -1.229536 -1.100879
 23
 8.203671
  H 1.480465 -0.359360 0.557454
  C 2.522304 -0.139342 0.362020
  C 3.106217 1.036891 1.027344
  H 2.413976 1.482050 1.724710
  C 3.196300 -0.992489 -0.478775
  C 4.533567 -0.842258 -0.842324
  C 5.233717 -1.203529 -1.992633
  C 4.709330 -1.420947 -3.366759
  C 3.201215 -1.358427 -3.581718
  C 2.868444 -1.600149 -5.044274
  O 6.525817 -1.344980 -1.958622
  H 3.395319 1.792603 0.292308
  H 4.025264 0.771005 1.552814
  H 2.649463 -1.818539 -0.899710
  H 5.134089 -0.073186 -0.370421
  H 5.081997 -2.400064 -3.679923
  H 5.215497 -0.688546 -4.010076
  H 2.809515 -0.390605 -3.263032
  H 2.710958 -2.135730 -2.991050
  H 3.307391 -0.836441 -5.682820
  H 1.790306 -1.588678 -5.191846
  H 3.238258 -2.575566 -5.366469
  H 6.960671 -1.205094 -1.101926
 23
 13.621111
  H 1.529929 -0.398798 0.761233
  C 2.537953 -0.137960 0.475264
  C 3.117824 1.080379 1.049945
  H 2.409243 1.588163 1.696352
  C 3.174615 -0.969574 -0.417150
  C 4.444330 -0.766041 -0.906579
  C 5.196731 -1.187659 -2.013554
  C 4.725905 -1.423067 -3.406702
  C 3.215611 -1.384949 -3.631528
  C 2.903219 -1.573984 -5.113814
  O 6.485992 -1.364990 -1.905868
  H 3.426598 1.772843 0.265309
  H 4.016420 0.840985 1.622097
  H 2.673033 -1.878359 -0.724177
  H 5.096110 0.067272 -0.613879
  H 5.115683 -2.407276 -3.701753
  H 5.234669 -0.706092 -4.052704
  H 2.816056 -0.426302 -3.305768
  H 2.737117 -2.187305 -3.070026
  H 3.365033 -0.797210 -5.716343
  H 1.828554 -1.526260 -5.277445
  H 3.243283 -2.549770 -5.465988
  H 6.852443 -1.312101 -0.999167
 23
 21.894598
  H 1.546858 -0.438535 0.811940
  C 2.543248 -0.163073 0.478979
  C 3.076666 1.133622 0.904308
  H 2.351592 1.685093 1.482310
  C 3.204173 -1.049470 -0.337950
  C 4.430863 -0.834130 -0.899783
  C 5.216006 -1.209078 -1.991611
  C 4.741348 -1.415540 -3.391441
  C 3.220729 -1.363784 -3.598804
  C 2.896877 -1.466990 -5.081412
  O 6.506451 -1.354115 -1.903154
  H 3.371126 1.741825 0.036415
  H 3.976711 0.994316 1.510926
  H 2.743797 -2.007455 -0.557038
  H 5.112518 0.021894 -0.719049
  H 5.132246 -2.395463 -3.700051
  H 5.245715 -0.687853 -4.036440
  H 2.833560 -0.419171 -3.229835
  H 2.743105 -2.186255 -3.076521
  H 3.366104 -0.659763 -5.647257
  H 1.827473 -1.390904 -5.229254
  H 3.213044 -2.427157 -5.489858
  H 6.867296 -1.381947 -0.990531
 23
 40.070462
  H 1.523972 -0.368585 0.880426
  C 2.516063 -0.136344 0.510095
  C 3.145678 1.130717 0.929654
  H 2.492389 1.693752 1.588797
  C 3.100527 -1.038231 -0.350192
  C 4.290406 -0.908182 -0.962029
  C 5.189051 -1.125374 -1.972474
  C 4.747000 -1.330303 -3.405132
  C 3.236537 -1.285067 -3.638010
  C 2.932939 -1.509456 -5.114072
  O 6.486142 -1.244201 -1.889152
  H 3.364839 1.754322 0.063520
  H 4.094647 0.942702 1.424816
  H 2.575290 -1.957781 -0.581542
  H 5.108203 -0.101794 -0.901289
  H 5.147470 -2.312445 -3.666858
  H 5.254832 -0.611486 -4.050534
  H 2.823469 -0.331768 -3.316146
  H 2.772008 -2.088537 -3.076913
  H 3.364607 -0.725331 -5.731366
  H 1.854417 -1.488354 -5.274610
  H 3.291619 -2.480240 -5.448806
  H 6.881104 -1.197408 -0.997970
