 29
 0.000000
  C 0.978159 0.135894 0.390541
  C 2.454461 0.139319 0.398235
  C 3.236439 0.609157 1.566726
  C 2.455770 1.098033 2.783488
  C 3.403127 1.544051 3.892786
  C 3.068890 -0.325209 -0.758014
  C 4.444937 -0.412201 -0.975219
  C 5.121805 -0.863635 -2.100888
  C 4.624734 -1.385575 -3.402533
  C 3.134114 -1.501071 -3.691476
  H 2.975829 -1.898639 -4.683008
  O 6.444111 -0.859400 -2.090518
  H 0.536118 0.504180 1.307052
  H 0.611389 -0.877221 0.220834
  H 0.610881 0.749561 -0.433028
  H 3.892827 1.421301 1.234346
  H 3.893203 -0.206841 1.888752
  H 1.817993 0.300385 3.169037
  H 1.817674 1.940430 2.509913
  H 4.039091 0.723142 4.217079
  H 2.836443 1.889972 4.753851
  H 4.038737 2.361294 3.558681
  H 2.399199 -0.639204 -1.539288
  H 5.065195 -0.080962 -0.150288
  H 5.080234 -2.374205 -3.528975
  H 5.080663 -0.758537 -4.177022
  H 2.659565 -0.522730 -3.638889
  H 2.659112 -2.171782 -2.977596
  H 6.819928 -0.524846 -1.254821
 29
 -0.375534
  C 0.957249 0.136551 0.409960
  C 2.430087 0.148336 0.389664
  C 3.222147 0.614614 1.548896
  C 2.456919 1.098165 2.777617
  C 3.428477 1.520605 3.879346
  C 3.042724 -0.321028 -0.768704
  C 4.419224 -0.405654 -0.966965
  C 5.114172 -0.854357 -2.085292
  C 4.629582 -1.372811 -3.393339
  C 3.147088 -1.487678 -3.691162
  H 3.030825 -1.887098 -4.696699
  O 6.434601 -0.849562 -2.057308
  H 0.534063 0.627633 1.277154
  H 0.604769 -0.896286 0.392922
  H 0.562065 0.599919 -0.493960
  H 3.880808 1.423900 1.214058
  H 3.886495 -0.199706 1.861856
  H 1.815675 0.301192 3.161217
  H 1.828216 1.953832 2.520102
  H 4.057669 0.686527 4.185889
  H 2.881995 1.866974 4.754237
  H 4.071380 2.332376 3.542390
  H 2.380485 -0.631152 -1.557321
  H 5.045895 -0.078931 -0.146353
  H 5.097533 -2.354558 -3.515651
  H 5.101177 -0.744421 -4.155327
  H 2.659966 -0.518470 -3.665470
  H 2.655893 -2.172831 -3.008145
  H 6.825930 -0.522070 -1.225434
 29
 -0.503675
  C 0.960064 0.121219 0.417118
  C 2.434015 0.145178 0.386101
  C 3.224443 0.623121 1.547027
  C 2.453557 1.095481 2.776956
  C 3.418108 1.512723 3.882859
  C 3.047970 -0.320295 -0.771727
  C 4.425015 -0.405382 -0.968831
  C 5.119168 -0.856555 -2.089479
  C 4.629661 -1.359630 -3.401662
  C 3.142310 -1.462588 -3.695910
  H 3.021674 -1.849142 -4.704966
  O 6.436623 -0.864764 -2.060989
  H 0.541550 0.736207 1.206396
  H 0.623379 -0.906041 0.579624
  H 0.547015 0.426794 -0.541703
  H 3.874799 1.438841 1.212569
  H 3.898489 -0.183786 1.860682
  H 1.812679 0.293521 3.151594
  H 1.823884 1.951052 2.524848
  H 4.047947 0.678574 4.186126
  H 2.867165 1.852933 4.758014
  H 4.061201 2.329140 3.552136
  H 2.388322 -0.641273 -1.556160
  H 5.052637 -0.082014 -0.147516
  H 5.093974 -2.343963 -3.537278
  H 5.103571 -0.724086 -4.159387
  H 2.658914 -0.487483 -3.658505
  H 2.649233 -2.153976 -3.021569
  H 6.831436 -0.545087 -1.226500
 29
 -0.588827
  C 0.961833 0.067780 0.452236
  C 2.432738 0.116529 0.395537
  C 3.220914 0.624999 1.540986
  C 2.449077 1.076460 2.777869
  C 3.410968 1.514061 3.877712
  C 3.047382 -0.334443 -0.769959
  C 4.423948 -0.419162 -0.964752
  C 5.119692 -0.845761 -2.091143
  C 4.631675 -1.322852 -3.415620
  C 3.145520 -1.420415 -3.714863
  H 3.026850 -1.788834 -4.731480
  O 6.441452 -0.845970 -2.061356
  H 0.552292 0.774223 1.166446
  H 0.648491 -0.931260 0.756210
  H 0.520528 0.253570 -0.530098
  H 3.845124 1.456068 1.195952
  H 3.917774 -0.159865 1.850575
  H 1.829633 0.260127 3.153377
  H 1.798483 1.917148 2.533480
  H 4.061550 0.697381 4.174015
  H 2.859791 1.837677 4.755291
  H 4.029615 2.344718 3.545737
  H 2.383536 -0.645164 -1.560331
  H 5.049774 -0.120431 -0.133540
  H 5.098421 -2.297908 -3.575744
  H 5.103480 -0.665807 -4.156924
  H 2.665271 -0.451232 -3.659925
  H 2.648175 -2.125368 -3.052008
  H 6.831980 -0.535654 -1.227619
 29
 -1.144027
  C 0.963941 0.039991 0.490191
  C 2.432096 0.099516 0.401817
  C 3.219998 0.618249 1.544626
  C 2.438871 1.059162 2.781075
  C 3.391818 1.508662 3.888869
  C 3.042213 -0.353875 -0.761772
  C 4.419725 -0.431660 -0.959687
  C 5.117415 -0.836827 -2.094592
  C 4.634176 -1.283375 -3.431717
  C 3.147027 -1.384476 -3.738129
  H 3.033221 -1.729671 -4.763249
  O 6.434313 -0.840809 -2.060954
  H 0.555486 0.897061 1.018981
  H 0.679560 -0.840914 1.066439
  H 0.499057 -0.040210 -0.488803
  H 3.826250 1.461555 1.196334
  H 3.935541 -0.155498 1.855024
  H 1.827831 0.236434 3.152087
  H 1.776937 1.888450 2.536230
  H 4.049686 0.698763 4.189893
  H 2.831501 1.827130 4.764899
  H 4.004558 2.346243 3.560154
  H 2.381407 -0.668101 -1.551240
  H 5.045701 -0.144110 -0.122123
  H 5.105076 -2.255962 -3.611111
  H 5.105344 -0.610735 -4.157732
  H 2.657752 -0.418777 -3.662135
  H 2.654436 -2.108442 -3.094249
  H 6.824131 -0.551959 -1.212155
 29
 -0.847790
  C 0.992579 -0.073637 0.519281
  C 2.459583 0.019263 0.429395
  C 3.230041 0.614857 1.545480
  C 2.434830 1.045837 2.773331
  C 3.362334 1.590789 3.855038
  C 3.066185 -0.415589 -0.742096
  C 4.439949 -0.530066 -0.943530
  C 5.128729 -0.883331 -2.099441
  C 4.630766 -1.216232 -3.462645
  C 3.141405 -1.246114 -3.763745
  H 3.009397 -1.519818 -4.807663
  O 6.446500 -0.939970 -2.064154
  H 0.576916 0.893865 0.789717
  H 0.704575 -0.776876 1.300491
  H 0.542883 -0.386033 -0.418983
  H 3.780540 1.480586 1.159948
  H 3.997229 -0.098571 1.867400
  H 1.878779 0.198420 3.177016
  H 1.714841 1.821396 2.506386
  H 4.073479 0.833534 4.177524
  H 2.788555 1.902551 4.724197
  H 3.918077 2.453095 3.493497
  H 2.370612 -0.681570 -1.516999
  H 5.066741 -0.323025 -0.083930
  H 5.067085 -2.190659 -3.710585
  H 5.124534 -0.512813 -4.142740
  H 2.685564 -0.270983 -3.618834
  H 2.629676 -1.992577 -3.163120
  H 6.841904 -0.734243 -1.197023
 29
 -0.982615
  C 0.994289 -0.163740 0.558216
  C 2.457036 -0.034978 0.454729
  C 3.222677 0.577818 1.565687
  C 2.429304 0.981670 2.804099
  C 3.351988 1.559967 3.872432
  C 3.062704 -0.428445 -0.733961
  C 4.441898 -0.482057 -0.957880
  C 5.130109 -0.791717 -2.132116
  C 4.628293 -1.122110 -3.495966
  C 3.138051 -1.212127 -3.779900
  H 3.005501 -1.470255 -4.827667
  O 6.452124 -0.795262 -2.115486
  H 0.553428 0.832202 0.574696
  H 0.706450 -0.650018 1.487709
  H 0.568827 -0.703470 -0.282647
  H 3.738129 1.463398 1.176890
  H 4.017956 -0.109901 1.874408
  H 1.909506 0.116912 3.219007
  H 1.679762 1.730336 2.543659
  H 4.092910 0.827822 4.186378
  H 2.779635 1.853785 4.748858
  H 3.873463 2.439817 3.502172
  H 2.373878 -0.708567 -1.510087
  H 5.073130 -0.263273 -0.103797
  H 5.105641 -2.069195 -3.770629
  H 5.078413 -0.380384 -4.165643
  H 2.641444 -0.261504 -3.610323
  H 2.667306 -1.993310 -3.190463
  H 6.851236 -0.581730 -1.250952
 29
 -0.120110
  C 1.010245 -0.272480 0.583899
  C 2.471804 -0.109269 0.490211
  C 3.222849 0.589478 1.558133
  C 2.428642 1.019439 2.787071
  C 3.342139 1.671506 3.820374
  C 3.072370 -0.488189 -0.704826
  C 4.444043 -0.588235 -0.925339
  C 5.125500 -0.850071 -2.109487
  C 4.618215 -1.052321 -3.494905
  C 3.126386 -1.047484 -3.783870
  H 2.983521 -1.230157 -4.846213
  O 6.442862 -0.924934 -2.085594
  H 0.557770 0.692196 0.347794
  H 0.688111 -0.562144 1.578789
  H 0.634268 -0.981615 -0.149193
  H 3.694376 1.473940 1.115143
  H 4.054548 -0.044990 1.885997
  H 1.939324 0.157971 3.244066
  H 1.654805 1.733585 2.501115
  H 4.106872 0.976357 4.159937
  H 2.768191 1.986922 4.688143
  H 3.834367 2.548525 3.406067
  H 2.364583 -0.718048 -1.481890
  H 5.073606 -0.464970 -0.051313
  H 5.050535 -1.997226 -3.841738
  H 5.106456 -0.282301 -4.103228
  H 2.677989 -0.086514 -3.550318
  H 2.615486 -1.841587 -3.247194
  H 6.843679 -0.791272 -1.206715
