 29
 0.000000
  C 0.967587 0.141027 0.404036
  C 2.443508 0.138589 0.396680
  C 3.233315 0.606889 1.560836
  C 2.460444 1.097119 2.780895
  H 3.137885 1.410929 3.561006
  C 3.056402 -0.326589 -0.761066
  C 4.433768 -0.411762 -0.973822
  C 5.114680 -0.862348 -2.097327
  C 4.623023 -1.385182 -3.401468
  C 3.133200 -1.504093 -3.699412
  C 2.914827 -2.066176 -5.101470
  O 6.436919 -0.856368 -2.082273
  H 0.536829 0.511902 1.326800
  H 0.594922 -0.870545 0.238211
  H 0.594254 0.756010 -0.415772
  H 3.889289 1.417579 1.224597
  H 3.889852 -0.210543 1.879161
  H 1.824868 0.303446 3.172198
  H 1.824381 1.940474 2.514126
  H 2.397326 -0.644068 -1.550819
  H 5.051427 -0.079921 -0.147450
  H 5.080570 -2.373214 -3.526221
  H 5.081204 -0.757429 -4.174236
  H 2.657017 -0.524202 -3.647368
  H 2.656382 -2.176277 -2.984953
  H 3.355339 -1.418324 -5.855808
  H 1.850809 -2.148810 -5.308605
  H 3.354735 -3.056001 -5.199181
  H 6.809577 -0.521403 -1.245229
 29
 2.568916
  C 0.949299 0.154932 0.388175
  C 2.443242 0.139876 0.396527
  C 3.216673 0.588516 1.577274
  C 2.445181 1.091604 2.793982
  H 3.155670 1.378907 3.571624
  C 3.042501 -0.319948 -0.776030
  C 4.417806 -0.399665 -0.968140
  C 5.088813 -0.844966 -2.107420
  C 4.616099 -1.382297 -3.408655
  C 3.124924 -1.515257 -3.710839
  C 2.920476 -2.096594 -5.111842
  O 6.408588 -0.822341 -2.102075
  H 0.569328 0.521237 1.328103
  H 0.623915 -0.866721 0.228888
  H 0.645143 0.812796 -0.417426
  H 3.920603 1.369605 1.269800
  H 3.869023 -0.231801 1.899514
  H 1.797577 0.322484 3.204452
  H 1.846067 1.964877 2.553951
  H 2.383767 -0.626078 -1.574318
  H 5.042509 -0.083224 -0.147124
  H 5.107713 -2.353106 -3.526612
  H 5.090712 -0.758712 -4.173220
  H 2.658071 -0.532010 -3.650560
  H 2.635868 -2.173972 -2.992781
  H 3.373847 -1.455978 -5.866069
  H 1.861039 -2.187967 -5.335469
  H 3.370929 -3.084907 -5.190825
  H 6.782105 -0.478516 -1.266725
 29
 15.286703
  C 0.993594 0.281253 0.310023
  C 2.599587 0.189105 0.436784
  C 3.225903 0.574529 1.726269
  C 2.317783 1.016098 2.859556
  H 2.952580 1.256914 3.708307
  C 3.118526 -0.268778 -0.755562
  C 4.508775 -0.400207 -0.969003
  C 5.090506 -0.805607 -2.154020
  C 4.565733 -1.318666 -3.453308
  C 3.074078 -1.538610 -3.720521
  C 2.883483 -2.203416 -5.082045
  O 6.429849 -0.770650 -2.238948
  H 0.621198 0.625685 1.250010
  H 0.737358 -0.740482 0.084658
  H 0.889722 0.988324 -0.495169
  H 3.931796 1.370052 1.469886
  H 3.761720 -0.333038 2.029408
  H 1.617583 0.244236 3.145148
  H 1.784538 1.919549 2.592438
  H 2.460180 -0.463703 -1.561501
  H 5.166524 -0.132272 -0.155563
  H 5.074484 -2.284796 -3.591940
  H 5.009404 -0.705487 -4.246327
  H 2.532455 -0.595086 -3.644526
  H 2.694197 -2.216542 -2.948987
  H 3.255810 -1.565851 -5.883300
  H 1.833243 -2.408976 -5.273097
  H 3.418888 -3.150204 -5.126959
  H 6.847345 -0.431653 -1.423213
 29
 28.564973
  C 0.931634 0.126405 0.326487
  C 2.614920 0.180566 0.461186
  C 3.230818 0.655972 1.700762
  C 2.340001 1.104282 2.836516
  H 2.945189 1.405341 3.687570
  C 3.129913 -0.275967 -0.728194
  C 4.507811 -0.415248 -0.968572
  C 5.086180 -0.868949 -2.148884
  C 4.591742 -1.378763 -3.453724
  C 3.108776 -1.499143 -3.737214
  C 2.858081 -2.107683 -5.111837
  O 6.395019 -0.873732 -2.176924
  H 0.582639 0.484917 1.276246
  H 0.823500 -0.928559 0.150668
  H 0.827333 0.801111 -0.507371
  H 3.898923 1.488868 1.444059
  H 3.885280 -0.166326 2.035439
  H 1.708695 0.283895 3.158722
  H 1.725967 1.948537 2.532005
  H 2.458227 -0.545496 -1.520754
  H 5.158031 -0.139028 -0.150994
  H 5.092366 -2.348554 -3.578298
  H 5.055260 -0.785564 -4.252992
  H 2.605770 -0.534572 -3.684385
  H 2.644911 -2.155291 -2.992726
  H 3.296719 -1.481900 -5.889307
  H 1.793482 -2.217253 -5.298543
  H 3.323783 -3.085849 -5.181058
  H 6.753803 -0.537966 -1.334008
 29
 47.853112
  C 0.921176 0.105543 0.312356
  C 2.748637 0.254380 0.448418
  C 3.250754 0.749719 1.745225
  C 2.239222 1.072733 2.835623
  H 2.779109 1.347040 3.712318
  C 3.201052 -0.210431 -0.745875
  C 4.575668 -0.451459 -0.982047
  C 5.084802 -0.911593 -2.172555
  C 4.580061 -1.413360 -3.463141
  C 3.075126 -1.520560 -3.698288
  C 2.825266 -2.096495 -5.081269
  O 6.437881 -0.915144 -2.270661
  H 0.624039 0.456773 1.264888
  H 0.924654 -0.949143 0.123016
  H 0.866019 0.773877 -0.521106
  H 3.917894 1.610477 1.571586
  H 3.867345 -0.087444 2.116517
  H 1.620426 0.213595 3.081987
  H 1.609708 1.910419 2.554893
  H 2.506144 -0.371438 -1.550675
  H 5.255186 -0.232524 -0.182587
  H 5.044700 -2.396482 -3.614029
  H 5.026067 -0.774961 -4.243276
  H 2.602978 -0.544836 -3.628522
  H 2.635723 -2.200637 -2.968620
  H 3.252261 -1.452529 -5.844336
  H 1.762760 -2.196514 -5.273632
  H 3.284896 -3.078739 -5.182952
  H 6.827510 -0.553247 -1.441812
 29
 54.622984
  C 0.935044 -0.143409 0.411685
  C 2.792970 0.321694 0.413138
  C 3.232405 0.939831 1.630583
  C 2.255977 1.105780 2.782505
  H 2.775052 1.535798 3.635866
  C 3.233869 -0.116355 -0.762737
  C 4.564577 -0.469318 -0.973889
  C 5.112390 -1.029663 -2.123788
  C 4.585854 -1.487340 -3.466957
  C 3.101407 -1.400643 -3.734359
  C 2.786783 -1.958198 -5.121998
  O 6.400247 -1.189094 -2.126965
  H 0.616684 0.196144 1.369976
  H 1.095042 -1.197001 0.255198
  H 0.700264 0.487166 -0.426477
  H 3.684179 1.902785 1.394301
  H 4.051503 0.309448 2.008384
  H 1.838658 0.150163 3.081895
  H 1.444502 1.778309 2.506863
  H 2.540554 -0.294582 -1.572728
  H 5.220209 -0.325838 -0.113456
  H 4.933676 -2.510513 -3.583706
  H 5.148528 -0.927272 -4.212087
  H 2.766205 -0.361095 -3.715721
  H 2.571737 -1.993041 -2.986434
  H 3.302164 -1.389978 -5.891036
  H 1.720336 -1.903388 -5.314483
  H 3.091414 -3.000056 -5.206274
  H 6.790918 -0.888201 -1.242669
 29
 71.338605
  C 0.994063 -0.211773 0.263829
  C 2.978494 0.409046 0.409151
  C 3.183548 1.164602 1.614857
  C 2.205073 1.017880 2.759125
  H 2.581704 1.551346 3.606856
  C 3.388438 -0.123472 -0.734249
  C 4.714669 -0.536413 -0.995354
  C 5.198242 -1.144469 -2.117197
  C 4.550665 -1.529197 -3.389765
  C 3.064562 -1.291754 -3.612835
  C 2.658100 -1.810130 -4.989846
  O 6.487237 -1.482580 -2.168563
  H 0.439161 0.053098 1.126873
  H 1.271370 -1.248101 0.166532
  H 0.803938 0.357390 -0.621697
  H 3.298224 2.223840 1.386397
  H 4.150824 0.755269 1.981644
  H 2.059557 -0.024719 3.019992
  H 1.238751 1.454591 2.481803
  H 2.700967 -0.296843 -1.542906
  H 5.422231 -0.375195 -0.196472
  H 4.762509 -2.593259 -3.529637
  H 5.105060 -1.014026 -4.182279
  H 2.848763 -0.226398 -3.562771
  H 2.488670 -1.838600 -2.873553
  H 3.206719 -1.299497 -5.776865
  H 1.596010 -1.639974 -5.158049
  H 2.852021 -2.878188 -5.075165
  H 6.971831 -1.271484 -1.349960
 29
 94.431220
  C 0.757816 -0.326807 0.194626
  C 3.200860 0.422649 0.479119
  C 3.276370 1.138675 1.707149
  C 2.089299 1.069255 2.672256
  H 2.344650 1.590057 3.590587
  C 3.563986 -0.139374 -0.664745
  C 4.896512 -0.564759 -1.020625
  C 5.291473 -1.145783 -2.172469
  C 4.542789 -1.524067 -3.413616
  C 3.046482 -1.260918 -3.540741
  C 2.547223 -1.743318 -4.901225
  O 6.583171 -1.476976 -2.332419
  H 0.210032 0.010149 1.048443
  H 1.130241 -1.329703 0.180660
  H 0.707222 0.244074 -0.708691
  H 3.533395 2.187904 1.525379
  H 4.116575 0.645983 2.228109
  H 1.840819 0.040778 2.913650
  H 1.228273 1.561112 2.230998
  H 2.824773 -0.325543 -1.430870
  H 5.646515 -0.401156 -0.258774
  H 4.729285 -2.593271 -3.559406
  H 5.061357 -1.022907 -4.237667
  H 2.843622 -0.191310 -3.469338
  H 2.499884 -1.809126 -2.771288
  H 3.058384 -1.223059 -5.708163
  H 1.480452 -1.560373 -5.002411
  H 2.721633 -2.810195 -5.021470
  H 7.129245 -1.269054 -1.555158
 29
 96.305199
  C 0.601848 -0.437407 0.178226
  C 3.234195 0.497226 0.438399
  C 3.281962 1.229424 1.638946
  C 2.147873 1.039178 2.650328
  H 2.387371 1.576994 3.562332
  C 3.590241 -0.058709 -0.673497
  C 4.912243 -0.556665 -1.002982
  C 5.288056 -1.171251 -2.137823
  C 4.537511 -1.535209 -3.377335
  C 3.056532 -1.210562 -3.518568
  C 2.545109 -1.689406 -4.875252
  O 6.591109 -1.564375 -2.286603
  H 0.060186 -0.112762 1.042573
  H 1.023723 -1.421326 0.167962
  H 0.515539 0.124603 -0.728920
  H 3.433059 2.294937 1.443349
  H 4.189180 0.829979 2.123648
  H 2.007483 -0.009760 2.890192
  H 1.226053 1.447124 2.247767
  H 2.847442 -0.236127 -1.439633
  H 5.660325 -0.418009 -0.232244
  H 4.679188 -2.612246 -3.505879
  H 5.083261 -1.069093 -4.202712
  H 2.899625 -0.131840 -3.461729
  H 2.482485 -1.723642 -2.744742
  H 3.082729 -1.202265 -5.685547
  H 1.488002 -1.462454 -4.985857
  H 2.674295 -2.764098 -4.980474
  H 7.126430 -1.370824 -1.516419
 29
 98.670767
  C 0.467642 -0.518132 0.138582
  C 3.351622 0.573265 0.458881
  C 3.314851 1.311333 1.666231
  C 2.155205 1.030869 2.623734
  H 2.317205 1.563261 3.554505
  C 3.684192 -0.000252 -0.637414
  C 4.964963 -0.544625 -0.992107
  C 5.297250 -1.182192 -2.135287
  C 4.518620 -1.546550 -3.375565
  C 3.044540 -1.192473 -3.516802
  C 2.519429 -1.680026 -4.860720
  O 6.555048 -1.600172 -2.293129
  H -0.080174 -0.196130 0.996517
  H 0.928102 -1.484543 0.142977
  H 0.393687 0.033345 -0.774970
  H 3.415113 2.390640 1.491677
  H 4.230403 0.962222 2.181083
  H 2.069307 -0.029864 2.836910
  H 1.227214 1.384316 2.184041
  H 2.918157 -0.153173 -1.380482
  H 5.732099 -0.423410 -0.237100
  H 4.634699 -2.628087 -3.491013
  H 5.069012 -1.105797 -4.211989
  H 2.912840 -0.109171 -3.476087
  H 2.463358 -1.682199 -2.731281
  H 3.064915 -1.216930 -5.679658
  H 1.467094 -1.432282 -4.971605
  H 2.625549 -2.758846 -4.948743
  H 7.114866 -1.402529 -1.517862
 29
 98.745508
  C 0.392705 -0.662947 0.029414
  C 3.456243 0.653604 0.430267
  C 3.297364 1.393895 1.590292
  C 2.125996 0.999042 2.501991
  H 2.188379 1.549565 3.434866
  C 3.797001 0.042436 -0.638223
  C 5.066044 -0.564775 -0.991614
  C 5.351952 -1.231178 -2.129991
  C 4.508140 -1.555644 -3.320875
  C 3.055545 -1.111892 -3.378804
  C 2.422255 -1.569499 -4.691110
  O 6.581846 -1.717585 -2.324970
  H -0.199342 -0.344625 0.860647
  H 0.910057 -1.596867 0.079249
  H 0.331717 -0.137272 -0.899169
  H 3.298653 2.470912 1.406087
  H 4.216634 1.146490 2.148053
  H 2.136819 -0.065027 2.719745
  H 1.186862 1.249448 2.015709
  H 3.015699 -0.090000 -1.388048
  H 5.847471 -0.462669 -0.247236
  H 4.556704 -2.640674 -3.434411
  H 5.041430 -1.153193 -4.184926
  H 2.990980 -0.022958 -3.338515
  H 2.490504 -1.562646 -2.560614
  H 2.946956 -1.142245 -5.543686
  H 1.382115 -1.257032 -4.742294
  H 2.455938 -2.653688 -4.779788
  H 7.185203 -1.542842 -1.574624
 29
 98.742252
  C 0.229617 -0.711534 -0.021875
  C 3.474934 0.831931 0.363659
  C 3.280709 1.497034 1.579614
  C 2.201409 0.915346 2.515975
  H 2.239092 1.407801 3.483549
  C 3.835336 0.161027 -0.661197
  C 5.071459 -0.500532 -0.990677
  C 5.340461 -1.222452 -2.100730
  C 4.491207 -1.576305 -3.289041
  C 3.046524 -1.097575 -3.381926
  C 2.411849 -1.595922 -4.678926
  O 6.564033 -1.754313 -2.267839
  H -0.385256 -0.427073 0.804455
  H 0.812788 -1.605328 0.036432
  H 0.146147 -0.184419 -0.947956
  H 3.155023 2.577605 1.461762
  H 4.249052 1.320428 2.078667
  H 2.342548 -0.152963 2.660897
  H 1.219692 1.087639 2.084924
  H 3.051317 0.036757 -1.409055
  H 5.853072 -0.392008 -0.250311
  H 4.508912 -2.667744 -3.354701
  H 5.038734 -1.221177 -4.166432
  H 3.007558 -0.007387 -3.390210
  H 2.462671 -1.497150 -2.551496
  H 2.952874 -1.220169 -5.544204
  H 1.381457 -1.259260 -4.752925
  H 2.418439 -2.682565 -4.720177
  H 7.163126 -1.564340 -1.533285
 29
 98.797296
  C 0.048634 -0.790772 -0.050845
  C 3.549326 0.806477 0.399106
  C 3.316488 1.504908 1.584966
  C 2.179932 0.974777 2.461584
  H 2.182118 1.486638 3.423118
  C 3.890234 0.131070 -0.626639
  C 5.113081 -0.549991 -0.982592
  C 5.353525 -1.246859 -2.107888
  C 4.485498 -1.572053 -3.285749
  C 3.046688 -1.091152 -3.339385
  C 2.389210 -1.556848 -4.634248
  O 6.574470 -1.774462 -2.312199
  H -0.583773 -0.487652 0.759211
  H 0.631219 -1.685109 0.035209
  H -0.002825 -0.271206 -0.983495
  H 3.236592 2.589433 1.437180
  H 4.265812 1.313861 2.130768
  H 2.284526 -0.095669 2.631372
  H 1.219590 1.162910 1.975217
  H 3.098887 0.050875 -1.374936
  H 5.907442 -0.474448 -0.242354
  H 4.498989 -2.658877 -3.375913
  H 5.017949 -1.201379 -4.163797
  H 3.009608 0.001965 -3.322877
  H 2.477260 -1.509371 -2.505800
  H 2.917195 -1.160532 -5.500086
  H 1.357436 -1.216484 -4.681779
  H 2.392663 -2.644184 -4.702390
  H 7.197029 -1.583439 -1.582184
