17

H 1.4338707608066086 -0.07438925730055668 0.0420234586875611
C 2.50373 -0.082267 0.026559
C 3.219158 -0.595203 -0.980423
C 4.656983 -0.60633 -1.002264
C 5.376683 -1.121859 -2.014333
C 6.815057 -1.131535 -2.033327
C 7.53475 -1.642902 -3.037234
C 9.024899 -1.661225 -3.073197
H 3.00432 0.353156 0.881371
H 2.707528 -1.028585 -1.831214
H 5.162163 -0.171559 -0.148739
H 4.871399 -1.556641 -2.867885
H 7.321146 -0.696842 -1.179951
H 7.037578 -2.079507 -3.894343
H 9.457324 -1.207731 -2.182919
H 9.384907 -1.115028 -3.94654
H 9.384906 -2.6888 -3.144888
