 17
 0.000000
  H 1.433828 -0.076017 0.038828
  C 2.506141 -0.083075 0.024973
  C 3.219733 -0.594376 -0.978799
  C 4.657079 -0.605889 -1.001399
  C 5.377224 -1.121324 -2.013282
  C 6.814994 -1.131621 -2.033495
  C 7.534612 -1.642538 -3.036519
  C 9.023994 -1.661308 -3.073359
  H 3.004219 0.352117 0.879329
  H 2.708964 -1.027789 -1.829651
  H 5.162072 -0.171288 -0.148206
  H 4.871792 -1.555882 -2.866395
  H 7.320788 -0.697091 -1.180440
  H 7.037443 -2.078970 -3.893289
  H 9.455646 -1.207934 -2.183316
  H 9.383939 -1.115765 -3.946703
  H 9.383937 -2.688496 -3.145580
 17
 1.731869
  H 1.378122 -0.156924 -0.120008
  C 2.451806 -0.119111 -0.045771
  C 3.242824 -0.604144 -0.997976
  C 4.671875 -0.574356 -0.939494
  C 5.459699 -1.059713 -1.892332
  C 6.908092 -1.061592 -1.896012
  C 7.531937 -1.600069 -2.953136
  C 8.996614 -1.708494 -3.165991
  H 2.855248 0.334233 0.844224
  H 2.812026 -1.054633 -1.882360
  H 5.111925 -0.126687 -0.060643
  H 5.051895 -1.521786 -2.799454
  H 7.445700 -0.634613 -1.057785
  H 6.863613 -1.996440 -3.731262
  H 9.543611 -1.282439 -2.329580
  H 9.285533 -1.187384 -4.078849
  H 9.285525 -2.753264 -3.281204
 17
 6.859742
  H 1.348558 -0.215890 -0.235787
  C 2.415694 -0.153371 -0.113036
  C 3.250196 -0.614208 -1.017711
  C 4.693768 -0.550815 -0.893253
  C 5.537897 -1.020517 -1.815360
  C 6.978373 -1.014285 -1.803164
  C 7.522965 -1.567891 -2.889982
  C 8.954536 -1.740262 -3.228353
  H 2.768326 0.308034 0.792775
  H 2.868072 -1.075416 -1.923127
  H 5.089186 -0.090902 0.009611
  H 5.222206 -1.500659 -2.757994
  H 7.529506 -0.601881 -0.993526
  H 6.735640 -1.918580 -3.578447
  H 9.589879 -1.338930 -2.440457
  H 9.186302 -1.229974 -4.165156
  H 9.186275 -2.798020 -3.366379
 17
 15.089511
  H 1.334271 -0.260169 -0.322733
  C 2.386699 -0.177837 -0.161079
  C 3.276242 -0.628150 -1.045090
  C 4.702306 -0.537396 -0.866910
  C 5.591214 -0.991684 -1.758738
  C 7.026425 -0.980697 -1.737183
  C 7.518892 -1.543865 -2.842765
  C 8.914655 -1.764628 -3.276121
  H 2.696706 0.293018 0.763276
  H 2.941810 -1.094703 -1.961002
  H 5.049091 -0.075303 0.040249
  H 5.359833 -1.484971 -2.727158
  H 7.598504 -0.568798 -0.928547
  H 6.632371 -1.854241 -3.452088
  H 9.613850 -1.387272 -2.535275
  H 9.100459 -1.258425 -4.232705
  H 9.100365 -2.835719 -3.429029
 17
 26.553215
  H 1.311290 -0.302057 -0.404955
  C 2.369843 -0.202330 -0.209167
  C 3.290930 -0.637652 -1.063763
  C 4.713442 -0.524847 -0.842306
  C 5.627067 -0.964628 -1.705648
  C 7.068921 -0.953930 -1.684611
  C 7.516532 -1.527010 -2.809697
  C 8.877822 -1.786879 -3.319913
  H 2.643518 0.270958 0.719977
  H 2.991403 -1.110043 -1.991136
  H 5.027905 -0.053985 0.082085
  H 5.470320 -1.473123 -2.703891
  H 7.657580 -0.546999 -0.885735
  H 6.555815 -1.797267 -3.340234
  H 9.629258 -1.431899 -2.622969
  H 9.022817 -1.288165 -4.279525
  H 9.022819 -2.856256 -3.480689
 17
 39.364801
  H 1.325901 -0.321220 -0.442527
  C 2.363035 -0.214639 -0.233312
  C 3.303218 -0.643348 -1.074962
  C 4.709088 -0.519528 -0.831878
  C 5.640868 -0.954218 -1.685251
  C 7.081676 -0.945462 -1.668038
  C 7.512155 -1.520746 -2.797435
  C 8.856705 -1.798226 -3.342223
  H 2.614302 0.256102 0.690859
  H 3.023180 -1.118106 -2.007004
  H 5.001882 -0.046279 0.097221
  H 5.543415 -1.477025 -2.711596
  H 7.673289 -0.542304 -0.876575
  H 6.486002 -1.764915 -3.276772
  H 9.641635 -1.450130 -2.658863
  H 8.981156 -1.304137 -4.301284
  H 8.981221 -2.864704 -3.506503
 17
 52.784026
  H 1.300726 -0.338467 -0.476540
  C 2.352844 -0.224375 -0.252511
  C 3.301026 -0.647093 -1.082334
  C 4.712489 -0.515823 -0.824754
  C 5.651277 -0.944654 -1.666449
  C 7.093935 -0.941269 -1.659380
  C 7.518942 -1.517479 -2.790805
  C 8.847571 -1.805241 -3.356064
  H 2.596062 0.253758 0.686042
  H 3.031699 -1.122817 -2.016207
  H 4.991816 -0.042730 0.104066
  H 5.591044 -1.488874 -2.734524
  H 7.691879 -0.537581 -0.866892
  H 6.431182 -1.748116 -3.243404
  H 9.644405 -1.466451 -2.691120
  H 8.958934 -1.310387 -4.322394
  H 8.959120 -2.877775 -3.524105
 17
 65.026099
  H 1.297485 -0.339804 -0.479365
  C 2.347247 -0.225359 -0.254482
  C 3.300142 -0.648151 -1.084380
  C 4.708505 -0.515765 -0.824827
  C 5.648536 -0.944996 -1.667139
  C 7.086795 -0.948025 -1.672207
  C 7.523318 -1.520904 -2.797389
  C 8.850224 -1.806654 -3.359006
  H 2.584339 0.245847 0.670279
  H 3.034740 -1.121173 -2.012888
  H 4.983885 -0.040176 0.108949
  H 5.612726 -1.508288 -2.772333
  H 7.679916 -0.544726 -0.880501
  H 6.378318 -1.746166 -3.239259
  H 9.639499 -1.471003 -2.700192
  H 8.963442 -1.309142 -4.326587
  H 8.963754 -2.881653 -3.525749
 17
 74.954072
  H 1.292099 -0.330930 -0.462253
  C 2.340325 -0.220345 -0.244668
  C 3.284379 -0.646194 -1.080479
  C 4.698384 -0.518019 -0.829530
  C 5.632152 -0.950022 -1.677075
  C 7.071623 -0.959453 -1.694083
  C 7.528103 -1.528877 -2.812873
  C 8.872818 -1.805775 -3.357523
  H 2.587853 0.255762 0.689454
  H 3.008477 -1.121959 -2.014282
  H 4.979758 -0.043074 0.103086
  H 5.594141 -1.543921 -2.841915
  H 7.664485 -0.550884 -0.892128
  H 6.319391 -1.768172 -3.282076
  H 9.658024 -1.461028 -2.680906
  H 8.997057 -1.308631 -4.320711
  H 8.997664 -2.877114 -3.522269
 17
 85.367491
  H 1.284286 -0.324462 -0.449255
  C 2.336790 -0.215770 -0.235513
  C 3.277130 -0.643668 -1.075505
  C 4.692998 -0.518731 -0.830643
  C 5.621265 -0.951408 -1.679881
  C 7.056990 -0.971667 -1.718833
  C 7.541923 -1.535739 -2.826588
  C 8.888862 -1.802422 -3.350547
  H 2.587030 0.255988 0.690355
  H 2.997096 -1.117441 -2.005568
  H 4.976034 -0.044222 0.101067
  H 5.577526 -1.578243 -2.909924
  H 7.641529 -0.561867 -0.914594
  H 6.264143 -1.790352 -3.326275
  H 9.664226 -1.453120 -2.664848
  H 9.022055 -1.302880 -4.314768
  H 9.022309 -2.875923 -3.513684
 17
 95.492925
  H 1.284124 -0.312498 -0.425319
  C 2.334925 -0.207811 -0.220004
  C 3.266169 -0.639313 -1.067197
  C 4.684044 -0.519976 -0.832954
  C 5.603884 -0.954915 -1.686778
  C 7.030210 -0.990529 -1.756264
  C 7.557563 -1.543449 -2.841897
  C 8.919908 -1.795182 -3.336254
  H 2.595847 0.266906 0.712087
  H 2.976747 -1.112786 -1.996651
  H 4.972707 -0.044256 0.101058
  H 5.533889 -1.628335 -3.008448
  H 7.603720 -0.577176 -0.944952
  H 6.193088 -1.831368 -3.406989
  H 9.678450 -1.438747 -2.636586
  H 9.067985 -1.295435 -4.294372
  H 9.068141 -2.864065 -3.495490
 17
 104.535978
  H 1.282005 -0.299974 -0.401023
  C 2.334478 -0.199104 -0.202700
  C 3.257761 -0.633993 -1.056498
  C 4.678028 -0.519569 -0.832081
  C 5.589388 -0.956814 -1.690500
  C 7.004567 -1.010113 -1.794755
  C 7.577024 -1.550578 -2.855916
  C 8.951405 -1.785736 -3.317720
  H 2.603329 0.274941 0.727732
  H 2.960383 -1.106328 -1.983878
  H 4.969625 -0.043865 0.101951
  H 5.474836 -1.685554 -3.120818
  H 7.565337 -0.592478 -0.975063
  H 6.114582 -1.882362 -3.507150
  H 9.693949 -1.421993 -2.603657
  H 9.114131 -1.284186 -4.272372
  H 9.114216 -2.852882 -3.473423
 17
 111.581422
  H 1.280566 -0.288359 -0.377878
  C 2.334169 -0.190549 -0.186066
  C 3.250260 -0.628437 -1.045829
  C 4.672801 -0.518467 -0.829875
  C 5.575286 -0.957866 -1.692545
  C 6.978744 -1.030514 -1.834960
  C 7.598005 -1.557540 -2.869618
  C 8.983511 -1.775137 -3.296820
  H 2.609966 0.282423 0.742640
  H 2.945710 -1.100115 -1.971829
  H 4.966053 -0.042343 0.104914
  H 5.401686 -1.749052 -3.245512
  H 7.524937 -0.608330 -1.006299
  H 6.029483 -1.942192 -3.624636
  H 9.709424 -1.403893 -2.568059
  H 9.161196 -1.271309 -4.248091
  H 9.161244 -2.840823 -3.448605
 17
 116.775359
  H 1.279714 -0.279697 -0.360914
  C 2.334280 -0.184224 -0.173610
  C 3.245100 -0.624332 -1.037726
  C 4.668814 -0.517213 -0.827341
  C 5.563734 -0.958453 -1.693647
  C 6.953858 -1.050746 -1.874733
  C 7.617098 -1.563769 -2.881827
  C 9.011736 -1.764048 -3.274962
  H 2.615043 0.288125 0.753875
  H 2.935407 -1.095946 -1.963641
  H 4.961827 -0.039801 0.109984
  H 5.315392 -1.817410 -3.379709
  H 7.484501 -0.623484 -1.036115
  H 5.937713 -2.009269 -3.756311
  H 9.721707 -1.385608 -2.532048
  H 9.203631 -1.257522 -4.223506
  H 9.203585 -2.828907 -3.422861
