 25
 0.000000
  C 0.980367 0.140793 0.401301
  C 2.454090 0.140962 0.401239
  C 3.237296 0.608388 1.564713
  C 2.459940 1.096591 2.780731
  H 3.145189 1.409260 3.559127
  C 3.067460 -0.325143 -0.759491
  C 4.448690 -0.414290 -0.982119
  C 5.102551 -0.864311 -2.103442
  C 4.623932 -1.382948 -3.395859
  C 3.139666 -1.506587 -3.704754
  H 3.007303 -1.907269 -4.703281
  H 6.183618 -0.852807 -2.074857
  H 0.547134 0.510943 1.323001
  H 0.610281 -0.870869 0.228803
  H 0.609928 0.751971 -0.422982
  H 3.896972 1.416576 1.228529
  H 3.897274 -0.207585 1.880854
  H 1.827446 0.305973 3.179762
  H 1.827205 1.943472 2.522240
  H 2.403570 -0.641560 -1.546954
  H 5.081356 -0.086824 -0.166572
  H 5.092336 -2.368378 -3.519712
  H 5.092752 -0.756852 -4.166599
  H 2.654077 -0.533886 -3.666632
  H 2.653681 -2.182896 -3.004879
 25
 13.022150
  C 0.956836 0.169733 0.473279
  C 2.460410 0.103741 0.308471
  C 3.297585 0.564447 1.455267
  C 2.572670 1.066648 2.706426
  H 3.315867 1.362440 3.443407
  C 2.844935 -0.371885 -0.875720
  C 4.202047 -0.394736 -0.933649
  C 4.997159 -0.820630 -1.994965
  C 4.664770 -1.350956 -3.316157
  C 3.221356 -1.522815 -3.744938
  H 3.195484 -1.927277 -4.753009
  H 6.066544 -0.757300 -1.837492
  H 0.630831 0.552568 1.425865
  H 0.546513 -0.832044 0.326116
  H 0.546360 0.791045 -0.326111
  H 3.953386 1.375520 1.114177
  H 3.953719 -0.256984 1.769743
  H 1.956617 0.291947 3.154883
  H 1.956587 1.936451 2.494798
  H 2.165353 -0.681397 -1.646107
  H 4.777890 -0.055347 -0.088801
  H 5.188672 -2.311710 -3.404599
  H 5.189106 -0.718159 -4.044241
  H 2.698207 -0.569836 -3.758496
  H 2.697992 -2.220794 -3.096058
 25
 46.049790
  C 0.928768 0.190573 0.525366
  C 2.511935 0.076325 0.240576
  C 3.345952 0.540067 1.394974
  C 2.648808 1.045915 2.654546
  H 3.415731 1.331191 3.365281
  C 2.700526 -0.408499 -0.966391
  C 4.054352 -0.384192 -0.907169
  C 4.935796 -0.790525 -1.920136
  C 4.693575 -1.329042 -3.261976
  C 3.277099 -1.533082 -3.770828
  H 3.313183 -1.936781 -4.777323
  H 5.991599 -0.700944 -1.696917
  H 0.654299 0.580584 1.495607
  H 0.502449 -0.809396 0.400151
  H 0.502127 0.825589 -0.257054
  H 3.992039 1.361712 1.066316
  H 3.992169 -0.280373 1.725770
  H 2.042317 0.280375 3.121857
  H 2.042431 1.922342 2.462541
  H 1.994712 -0.707696 -1.710840
  H 4.610950 -0.044797 -0.062007
  H 5.246945 -2.278254 -3.323368
  H 5.246664 -0.686498 -3.963488
  H 2.736117 -0.593733 -3.812119
  H 2.735805 -2.240353 -3.151694
 25
 88.654078
  C 0.915306 0.206012 0.564269
  C 2.592374 0.051154 0.184717
  C 3.379410 0.525111 1.358800
  C 2.668036 1.032134 2.613801
  H 3.433519 1.318326 3.322462
  C 2.625747 -0.441553 -1.030596
  C 3.983019 -0.376927 -0.884251
  C 4.908089 -0.776510 -1.883692
  C 4.703722 -1.313338 -3.224632
  C 3.301375 -1.526664 -3.763169
  H 3.361886 -1.927618 -4.767371
  H 5.960766 -0.677804 -1.632904
  H 0.674319 0.598093 1.537371
  H 0.497205 -0.793096 0.450384
  H 0.495369 0.847221 -0.210144
  H 4.024451 1.355585 1.040530
  H 4.025435 -0.292485 1.706296
  H 2.067650 0.273495 3.078873
  H 2.067262 1.901386 2.421504
  H 1.903423 -0.733195 -1.750580
  H 4.569240 -0.049012 -0.060561
  H 5.266173 -2.256910 -3.277818
  H 5.268086 -0.667143 -3.912911
  H 2.754775 -0.594615 -3.814113
  H 2.753407 -2.236682 -3.158635
 25
 117.496181
  C 0.822671 0.194043 0.533708
  C 2.793129 0.013297 0.169939
  C 3.426900 0.543778 1.413242
  C 2.620010 1.058369 2.611602
  H 3.344214 1.380630 3.361843
  C 2.641876 -0.497716 -1.003146
  C 4.106218 -0.397805 -0.877297
  C 4.929652 -0.783638 -1.879393
  C 4.691310 -1.313829 -3.248876
  C 3.265336 -1.495863 -3.765015
  H 3.309637 -1.882754 -4.783944
  H 5.995050 -0.715122 -1.666682
  H 0.674246 0.593184 1.512553
  H 0.496615 -0.823991 0.440919
  H 0.485501 0.851511 -0.245162
  H 4.057433 1.383409 1.111254
  H 4.064382 -0.251486 1.813681
  H 2.013181 0.283819 3.067252
  H 2.012608 1.921251 2.363887
  H 1.915289 -0.795263 -1.701000
  H 4.742391 -0.108458 -0.058570
  H 5.210867 -2.278451 -3.313539
  H 5.222348 -0.641489 -3.935722
  H 2.731739 -0.545287 -3.799845
  H 2.720344 -2.226574 -3.165800
 25
 125.765658
  C 0.512299 0.256065 0.545438
  C 2.988437 0.056680 0.180337
  C 3.546658 0.544652 1.452765
  C 2.639952 1.016276 2.599211
  H 3.295345 1.333743 3.420490
  C 2.726957 -0.488805 -0.961841
  C 4.269479 -0.366881 -0.891134
  C 5.016598 -0.771287 -1.929517
  C 4.699633 -1.337924 -3.279808
  C 3.249565 -1.517411 -3.718487
  H 3.235636 -1.904724 -4.736246
  H 6.090467 -0.700157 -1.787569
  H 0.316636 0.657915 1.520764
  H 0.283685 -0.783126 0.420696
  H 0.288882 0.905155 -0.277151
  H 4.179171 1.409827 1.214136
  H 4.161100 -0.259886 1.874543
  H 2.008119 0.211777 2.978718
  H 2.036065 1.877625 2.312854
  H 2.000299 -0.815767 -1.668510
  H 4.940385 -0.062252 -0.097968
  H 5.226009 -2.293070 -3.364082
  H 5.184843 -0.659706 -3.993050
  H 2.718397 -0.564784 -3.723529
  H 2.733669 -2.244443 -3.087348
 25
 122.269373
  C 0.286183 0.295709 0.573899
  C 3.197446 0.061318 0.213275
  C 3.684233 0.570616 1.482351
  C 2.617580 0.953137 2.518288
  H 3.128766 1.318231 3.408752
  C 2.844137 -0.488076 -0.860881
  C 4.411049 -0.358466 -0.894558
  C 5.085196 -0.775239 -1.975621
  C 4.687275 -1.351460 -3.296249
  C 3.216913 -1.502089 -3.664503
  H 3.149576 -1.887711 -4.679762
  H 6.163078 -0.695203 -1.905034
  H 0.055531 0.699765 1.537092
  H 0.108946 -0.752262 0.437954
  H 0.129824 0.936764 -0.270183
  H 4.276221 1.472229 1.292396
  H 4.310967 -0.195975 1.948575
  H 2.010463 0.098000 2.805640
  H 1.979088 1.751435 2.150519
  H 2.099065 -0.843942 -1.527317
  H 5.120796 -0.040376 -0.142249
  H 5.201198 -2.308668 -3.407204
  H 5.143100 -0.680041 -4.035239
  H 2.708775 -0.541360 -3.648243
  H 2.714583 -2.215871 -3.015699
 25
 117.015573
  C 0.028847 0.272177 0.492747
  C 3.514337 0.067955 0.314116
  C 3.849526 0.612877 1.604946
  C 2.584790 0.919261 2.418619
  H 2.886830 1.323550 3.390286
  C 3.021500 -0.426606 -0.733111
  C 4.606743 -0.379775 -0.893983
  C 5.148523 -0.800882 -2.031530
  C 4.617460 -1.331220 -3.325491
  C 3.119108 -1.469734 -3.564496
  H 2.966184 -1.844974 -4.574281
  H 6.231810 -0.764159 -2.060274
  H -0.289616 0.667734 1.431903
  H -0.026146 -0.786022 0.346985
  H 0.011931 0.916159 -0.361013
  H 4.432661 1.538746 1.478333
  H 4.477648 -0.099443 2.155262
  H 1.998145 0.018825 2.589109
  H 1.972262 1.659567 1.920004
  H 2.278459 -0.742623 -1.402267
  H 5.375360 -0.124312 -0.167390
  H 5.088385 -2.307037 -3.474816
  H 5.033721 -0.679726 -4.103531
  H 2.616173 -0.507949 -3.497736
  H 2.671834 -2.192562 -2.884719
 25
 103.253211
  C -0.004036 0.208621 0.232789
  C 3.754367 0.153490 0.630303
  C 3.898705 0.768895 1.896022
  C 2.422926 0.855869 2.395772
  H 2.453076 1.308731 3.387328
  C 3.519972 -0.276368 -0.554394
  C 4.918882 -0.490818 -1.051366
  C 5.248006 -0.943860 -2.253076
  C 4.460650 -1.394290 -3.432113
  C 2.933551 -1.398706 -3.373558
  H 2.550686 -1.717680 -4.343073
  H 6.315300 -0.983317 -2.444920
  H -0.487507 0.560148 1.119791
  H 0.104239 -0.843386 0.079289
  H 0.168919 0.888474 -0.573397
  H 4.333313 1.769129 1.820530
  H 4.493572 0.183146 2.608091
  H 1.975078 -0.131905 2.476647
  H 1.812395 1.473714 1.730169
  H 2.679421 -0.534970 -1.174421
  H 5.718337 -0.232960 -0.372225
  H 4.808910 -2.408956 -3.666411
  H 4.779130 -0.770763 -4.272267
  H 2.542651 -0.399177 -3.197170
  H 2.563553 -2.098164 -2.628269
