 17
 0.000000
  H 1.419989 0.158415 0.445429
  C 2.493958 0.135424 0.388115
  H 3.071971 0.473892 1.230759
  C 3.061714 -0.327616 -0.765048
  C 4.445001 -0.412943 -0.977846
  C 5.131328 -0.869669 -2.116704
  C 4.616263 -1.386760 -3.405697
  C 3.127757 -1.498738 -3.685286
  H 2.995403 -1.900310 -4.686055
  O 6.437876 -0.862246 -2.098592
  H 2.396027 -0.642986 -1.550531
  H 5.087023 -0.087197 -0.166390
  H 5.080301 -2.372245 -3.537691
  H 5.080720 -0.766171 -4.182353
  H 2.640431 -0.528124 -3.652116
  H 2.640191 -2.177079 -2.990459
  H 6.851686 -0.533148 -1.276238
 17
 -0.272241
  H 1.448690 0.309255 0.512837
  C 2.513918 0.098369 0.392736
  H 3.140621 0.327722 1.240620
  C 3.023885 -0.326562 -0.792978
  C 4.413259 -0.423858 -0.990972
  C 5.122586 -0.857636 -2.122526
  C 4.622330 -1.384106 -3.412595
  C 3.136622 -1.517320 -3.693077
  H 3.015782 -1.935156 -4.689567
  O 6.425996 -0.827578 -2.091490
  H 2.344362 -0.569320 -1.591843
  H 5.040199 -0.087095 -0.156829
  H 5.103094 -2.362649 -3.540491
  H 5.085929 -0.764782 -4.190939
  H 2.636095 -0.553100 -3.682653
  H 2.653181 -2.194083 -2.994296
  H 6.833466 -0.494269 -1.267980
 17
 0.742044
  H 1.501357 0.412247 0.498269
  C 2.525236 0.095730 0.395870
  H 3.118204 0.082888 1.296229
  C 3.024619 -0.307423 -0.806187
  C 4.408088 -0.420190 -1.003685
  C 5.127611 -0.847356 -2.128901
  C 4.630352 -1.395065 -3.412395
  C 3.141901 -1.531051 -3.678808
  H 3.008592 -1.976911 -4.661237
  O 6.432674 -0.799022 -2.097357
  H 2.336084 -0.499869 -1.612326
  H 4.993891 -0.035420 -0.175872
  H 5.104487 -2.379277 -3.518706
  H 5.093268 -0.792575 -4.203076
  H 2.647812 -0.563262 -3.693301
  H 2.663224 -2.184000 -2.954812
  H 6.828400 -0.457420 -1.271436
 17
 4.549733
  H 1.527705 0.539066 0.384694
  C 2.520827 0.123855 0.370581
  H 3.058255 0.154195 1.306503
  C 3.048088 -0.442739 -0.755448
  C 4.420221 -0.433335 -0.998454
  C 5.131300 -0.869586 -2.122846
  C 4.627207 -1.382412 -3.419222
  C 3.137040 -1.484544 -3.686933
  H 2.995345 -1.828451 -4.706007
  O 6.438031 -0.799090 -2.109864
  H 2.370707 -0.901279 -1.459393
  H 4.988849 0.129945 -0.262730
  H 5.088919 -2.367817 -3.562077
  H 5.094750 -0.750951 -4.185218
  H 2.647701 -0.520209 -3.597986
  H 2.662592 -2.208723 -3.033607
  H 6.839079 -0.526429 -1.264319
 17
 12.281267
  H 1.678203 0.792853 0.306819
  C 2.557192 0.177292 0.355760
  H 2.975627 0.027609 1.337730
  C 3.031192 -0.494264 -0.746635
  C 4.402621 -0.494746 -0.986376
  C 5.130629 -0.897394 -2.113421
  C 4.637111 -1.338309 -3.439475
  C 3.150156 -1.517041 -3.669212
  H 2.994180 -1.819468 -4.698075
  O 6.435557 -0.831072 -2.078644
  H 2.328264 -0.971339 -1.413461
  H 4.913981 0.157282 -0.278970
  H 5.154519 -2.285553 -3.659128
  H 5.040523 -0.624716 -4.164465
  H 2.612199 -0.587319 -3.512385
  H 2.740415 -2.295765 -3.040488
  H 6.819190 -0.591046 -1.214903
 17
 25.886929
  H 1.946365 1.002436 0.307739
  C 2.695378 0.222882 0.348813
  H 3.030398 -0.048669 1.333951
  C 2.959302 -0.595521 -0.763175
  C 4.307623 -0.538948 -1.033439
  C 5.114647 -0.917382 -2.105754
  C 4.664446 -1.325656 -3.462976
  C 3.177266 -1.500888 -3.705303
  H 3.024414 -1.817862 -4.732676
  O 6.411661 -0.818754 -2.008360
  H 2.197946 -1.142623 -1.296301
  H 4.692135 0.194414 -0.302817
  H 5.173897 -2.265171 -3.683107
  H 5.083374 -0.598088 -4.161090
  H 2.640302 -0.570896 -3.556714
  H 2.761186 -2.275229 -3.057503
  H 6.750053 -0.591763 -1.123050
 17
 38.007951
  H 2.086768 1.070697 0.191949
  C 2.767912 0.244311 0.297243
  H 3.089031 0.031345 1.309900
  C 2.916496 -0.729047 -0.726497
  C 4.246136 -0.591117 -1.051964
  C 5.109283 -0.959239 -2.083293
  C 4.684847 -1.351911 -3.461745
  C 3.186746 -1.427750 -3.731371
  H 3.022462 -1.696294 -4.786774
  O 6.402927 -0.840345 -1.942940
  H 2.156035 -1.363656 -1.122353
  H 4.539049 0.190267 -0.312188
  H 5.150247 -2.319422 -3.666719
  H 5.160025 -0.648827 -4.154174
  H 2.700022 -0.472965 -3.536260
  H 2.719137 -2.201864 -3.126172
  H 6.709037 -0.511302 -1.070462
 17
 49.615032
  H 2.420853 1.190299 0.206022
  C 2.986235 0.266827 0.265990
  H 3.272961 -0.041154 1.262437
  C 2.803059 -0.770337 -0.746876
  C 4.096175 -0.665386 -1.111450
  C 5.050579 -0.943614 -2.059725
  C 4.694986 -1.328914 -3.460220
  C 3.214705 -1.469604 -3.770351
  H 3.096718 -1.743632 -4.814908
  O 6.346409 -0.767317 -1.871246
  H 1.942563 -1.306625 -1.081903
  H 4.298930 0.236537 -0.242445
  H 5.208938 -2.273987 -3.661250
  H 5.156355 -0.588838 -4.122230
  H 2.686542 -0.535204 -3.605001
  H 2.762687 -2.250897 -3.167910
  H 6.615582 -0.570344 -0.956256
 17
 41.105680
  H 2.426413 1.186214 0.102548
  C 3.052047 0.316757 0.241930
  H 3.266944 0.053625 1.273239
  C 2.860095 -0.834486 -0.697573
  C 4.082195 -0.749579 -1.180083
  C 5.062349 -0.975861 -2.096908
  C 4.712204 -1.314578 -3.510752
  C 3.233238 -1.451008 -3.828310
  H 3.119945 -1.712100 -4.875035
  O 6.354742 -0.808963 -1.892603
  H 1.995466 -1.424692 -0.916191
  H 4.178326 0.427714 -0.120273
  H 5.227037 -2.250394 -3.731713
  H 5.175761 -0.557185 -4.147425
  H 2.701923 -0.517882 -3.652454
  H 2.777468 -2.240799 -3.236572
  H 6.618584 -0.641338 -0.971248
 17
 27.102145
  H 2.289431 1.119887 0.175318
  C 3.047676 0.364217 0.302561
  H 3.171094 0.034273 1.331385
  C 2.948006 -0.797990 -0.646829
  C 4.112276 -0.794943 -1.233862
  C 5.086415 -1.024089 -2.130701
  C 4.715863 -1.348451 -3.546108
  C 3.238956 -1.459708 -3.852220
  H 3.113348 -1.672042 -4.910227
  O 6.371955 -0.861842 -1.937278
  H 2.078522 -1.411074 -0.803783
  H 4.062432 0.704396 0.018994
  H 5.226740 -2.282837 -3.779960
  H 5.176690 -0.580562 -4.178608
  H 2.714847 -0.537673 -3.628049
  H 2.786307 -2.272350 -3.290859
  H 6.650568 -0.708042 -1.015454
 17
 19.203081
  H 2.107000 0.986433 0.363842
  C 2.996950 0.375058 0.413902
  H 3.091467 -0.071201 1.407435
  C 3.036305 -0.712660 -0.610908
  C 4.154503 -0.757395 -1.269059
  C 5.117300 -1.007089 -2.187981
  C 4.720197 -1.382189 -3.587823
  C 3.231821 -1.468401 -3.872808
  H 3.086400 -1.778002 -4.904436
  O 6.406869 -0.885327 -2.010562
  H 2.174685 -1.342500 -0.778703
  H 3.927535 0.915448 0.248322
  H 5.198104 -2.348552 -3.771193
  H 5.203095 -0.666889 -4.265086
  H 2.748812 -0.507436 -3.737367
  H 2.749519 -2.203959 -3.232368
  H 6.699290 -0.691199 -1.100593
 17
 8.224009
  H 1.815263 0.628948 0.185167
  C 2.885905 0.484203 0.301485
  H 3.097245 0.400604 1.365632
  C 3.285914 -0.783323 -0.382697
  C 4.206933 -0.952057 -1.255828
  C 5.138592 -1.158389 -2.226649
  C 4.733602 -1.367135 -3.639025
  C 3.236257 -1.336468 -3.898767
  H 3.050459 -1.471073 -4.959926
  O 6.425661 -1.186158 -1.989941
  H 2.713099 -1.650412 -0.050564
  H 3.429831 1.326509 -0.110846
  H 5.164782 -2.315265 -3.977380
  H 5.243099 -0.599700 -4.234223
  H 2.804088 -0.387212 -3.595949
  H 2.727724 -2.134260 -3.365679
  H 6.691398 -1.044670 -1.060195
