 16
 0.000000
  C 1.003776 0.133354 0.382952
  C 2.457566 0.087738 0.269180
  H 3.047251 0.426910 1.113038
  C 3.095193 -0.367344 -0.863559
  C 4.494245 -0.413895 -0.981212
  C 5.178462 -0.860773 -2.094892
  C 4.611747 -1.358887 -3.336078
  H 3.525433 -1.366988 -3.357343
  H 6.260683 -0.839508 -2.041977
  H 0.672091 0.518511 1.342070
  H 0.579146 -0.861366 0.218475
  H 0.579325 0.738371 -0.423671
  H 2.483244 -0.700572 -1.691911
  H 5.076632 -0.073774 -0.134722
  H 4.999070 -2.362004 -3.533772
  H 4.999661 -0.771391 -4.172324
 16
 11.045424
  C 1.066544 0.169707 0.473745
  C 2.504456 0.029835 0.124914
  H 3.195411 0.341321 0.900731
  C 2.909662 -0.440977 -1.048371
  C 4.279380 -0.425521 -1.010560
  C 5.118653 -0.840991 -2.046216
  C 4.709674 -1.356351 -3.329041
  H 3.639659 -1.412247 -3.467942
  H 6.184455 -0.775663 -1.884182
  H 0.918316 0.570018 1.471990
  H 0.571566 -0.803511 0.382761
  H 0.571721 0.810608 -0.264354
  H 2.279217 -0.767512 -1.861770
  H 4.786728 -0.069267 -0.123450
  H 5.159762 -2.338591 -3.481776
  H 5.159811 -0.753081 -4.118895
 16
 41.568919
  C 1.096995 0.191097 0.527075
  C 2.571179 -0.010997 0.022953
  H 3.245846 0.297367 0.791811
  C 2.802544 -0.491126 -1.174618
  C 4.163507 -0.424668 -1.008681
  C 5.081792 -0.820650 -1.995657
  C 4.759507 -1.351028 -3.315224
  H 3.702324 -1.431328 -3.514865
  H 6.130608 -0.730003 -1.770762
  H 1.070095 0.590247 1.522798
  H 0.571899 -0.766570 0.488733
  H 0.572679 0.856761 -0.161656
  H 2.162596 -0.812360 -1.975989
  H 4.670481 -0.074702 -0.137009
  H 5.241422 -2.322591 -3.444523
  H 5.241823 -0.739470 -4.081360
 16
 81.790120
  C 1.089094 0.183018 0.548949
  C 2.657521 -0.045811 -0.050270
  H 3.250229 0.294201 0.773899
  C 2.744690 -0.494220 -1.264044
  C 4.121651 -0.424543 -0.996645
  C 5.055353 -0.819049 -1.962992
  C 4.770725 -1.345145 -3.288415
  H 3.715659 -1.447069 -3.510241
  H 6.113131 -0.706844 -1.724448
  H 1.130231 0.593060 1.558407
  H 0.569853 -0.766504 0.538308
  H 0.607858 0.867095 -0.136446
  H 2.114623 -0.796505 -2.047088
  H 4.682180 -0.063124 -0.149316
  H 5.263226 -2.318879 -3.392127
  H 5.250030 -0.719031 -4.047726
 16
 106.821597
  C 1.049866 0.178629 0.586846
  C 2.750242 -0.074475 -0.116256
  H 3.252867 0.272507 0.766129
  C 2.708303 -0.466981 -1.334774
  C 4.143159 -0.414895 -0.984593
  C 5.053230 -0.803367 -1.914323
  C 4.786728 -1.351895 -3.269379
  H 3.719951 -1.476841 -3.484199
  H 6.100151 -0.686708 -1.678326
  H 1.173000 0.575748 1.573324
  H 0.579605 -0.790709 0.564443
  H 0.604461 0.896368 -0.091629
  H 2.081740 -0.755963 -2.142620
  H 4.708283 -0.025792 -0.156453
  H 5.250475 -2.335749 -3.344860
  H 5.234664 -0.709645 -4.029235
 16
 120.743770
  C 0.902108 0.190502 0.651965
  C 2.884602 -0.028486 -0.143768
  H 3.255065 0.328011 0.782919
  C 2.731791 -0.427724 -1.337064
  C 4.236032 -0.391130 -0.980596
  C 5.091029 -0.823761 -1.927163
  C 4.776971 -1.384926 -3.266553
  H 3.722558 -1.467041 -3.480671
  H 6.154192 -0.720383 -1.732100
  H 1.045272 0.577157 1.655964
  H 0.533026 -0.814894 0.590543
  H 0.480774 0.863745 -0.061640
  H 2.102906 -0.730070 -2.137398
  H 4.839741 0.011164 -0.170413
  H 5.257349 -2.357891 -3.369055
  H 5.238185 -0.754058 -4.025984
 16
 122.435842
  C 0.660541 0.183985 0.756739
  C 3.034872 -0.024572 -0.156197
  H 3.237005 0.361656 0.811862
  C 2.803671 -0.347154 -1.337401
  C 4.388283 -0.369811 -0.994559
  C 5.175819 -0.817471 -1.981079
  C 4.803895 -1.401667 -3.295945
  H 3.736066 -1.496988 -3.445427
  H 6.245093 -0.774506 -1.815777
  H 0.847034 0.562349 1.740687
  H 0.373005 -0.845481 0.664160
  H 0.311394 0.879465 0.026336
  H 2.200554 -0.612280 -2.169486
  H 5.007564 0.013350 -0.184335
  H 5.226543 -2.404560 -3.361675
  H 5.231478 -0.807356 -4.101874
 16
 121.245632
  C 0.414335 0.200977 0.862947
  C 3.189789 -0.010363 -0.164876
  H 3.243784 0.288874 0.854028
  C 2.874454 -0.279838 -1.334755
  C 4.523712 -0.351250 -1.011073
  C 5.242760 -0.833690 -2.027729
  C 4.810405 -1.448786 -3.304751
  H 3.741117 -1.542021 -3.420730
  H 6.318213 -0.796020 -1.912065
  H 0.636220 0.522390 1.857760
  H 0.186389 -0.826377 0.695451
  H 0.142722 0.937360 0.131502
  H 2.326389 -0.521108 -2.208389
  H 5.142628 0.081790 -0.226141
  H 5.253940 -2.443909 -3.378725
  H 5.211725 -0.868918 -4.138570
 16
 109.875212
  C 0.451567 -0.026571 0.720467
  C 3.248374 0.072241 -0.131070
  H 3.198151 0.180789 0.925992
  C 3.131005 0.209297 -1.378806
  C 4.646442 -0.177899 -1.015273
  C 5.235096 -0.889439 -2.000152
  C 4.595822 -1.601735 -3.115599
  H 3.517177 -1.665190 -3.034704
  H 6.318192 -0.855117 -2.034786
  H 0.566087 0.119938 1.774128
  H 0.325966 -1.018570 0.342994
  H 0.214849 0.814534 0.100732
  H 2.645714 0.315436 -2.320400
  H 5.288878 0.379358 -0.346323
  H 5.001947 -2.612380 -3.150284
  H 4.873314 -1.135580 -4.063032
