 19
 0.000000
  C 0.976492 0.053180 0.193262
  C 2.478973 0.054950 0.161837
  C 3.255060 -0.018170 1.457769
  C 2.452145 -0.091197 2.751886
  H 3.135777 -0.138862 3.596651
  C 3.108503 0.121552 -1.018466
  H 2.537155 0.173365 -1.936725
  C 4.538812 0.132926 -1.219981
  C 5.110759 0.200617 -2.419697
  H 6.179666 0.208197 -2.553980
  H 0.576682 -0.003664 1.200617
  H 0.589028 -0.799160 -0.364218
  H 0.589029 0.962825 -0.264793
  H 3.905457 0.860397 1.515519
  H 3.905459 -0.897656 1.416318
  H 1.823323 -0.978852 2.776782
  H 1.823321 0.788015 2.876480
  H 5.172521 0.083576 -0.345367
  H 4.541811 0.252252 -3.334784
 19
 4.004228
  C 0.971593 0.055758 0.147552
  C 2.451446 0.055264 0.156289
  C 3.228618 -0.017863 1.452316
  C 2.439134 -0.091306 2.753814
  H 3.136871 -0.138333 3.587281
  C 3.112053 0.121215 -1.012473
  H 2.528060 0.172670 -1.924371
  C 4.541828 0.132534 -1.213021
  C 5.106463 0.200300 -2.414035
  H 6.174769 0.207713 -2.545461
  H 0.797868 -0.003277 1.193723
  H 0.553562 -0.799137 -0.379684
  H 0.553562 0.964543 -0.280162
  H 3.879236 0.859768 1.502938
  H 3.879237 -0.895612 1.403887
  H 1.814728 -0.982219 2.794319
  H 1.814724 0.789386 2.894290
  H 5.172243 0.083047 -0.336036
  H 4.516470 0.251109 -3.314561
