 19
 0.000000
  C 1.029275 0.118746 0.346651
  C 2.501591 0.121477 0.353075
  C 3.234696 0.596494 1.534952
  H 2.578787 0.918357 2.336422
  C 3.146786 -0.339088 -0.793522
  C 4.533651 -0.409219 -0.969056
  C 5.171677 -0.862453 -2.098516
  C 4.565151 -1.357226 -3.331998
  H 3.481592 -1.365847 -3.354510
  H 6.253858 -0.864853 -2.104398
  H 0.606364 0.491544 1.274658
  H 0.655857 -0.891537 0.169805
  H 0.655671 0.725907 -0.479885
  H 3.891182 1.424391 1.260191
  H 3.891590 -0.191030 1.909306
  H 2.514941 -0.666136 -1.607295
  H 5.153893 -0.079277 -0.147281
  H 4.942468 -2.365459 -3.523642
  H 4.943094 -0.761411 -4.167335
 19
 9.593465
  C 1.053577 0.153685 0.433599
  C 2.527282 0.082517 0.256441
  C 3.325298 0.542543 1.400446
  H 2.675214 0.867136 2.208482
  C 2.974721 -0.404765 -0.955967
  C 4.332598 -0.404270 -0.956269
  C 5.119303 -0.827675 -2.011753
  C 4.653258 -1.344810 -3.301418
  H 3.576578 -1.383686 -3.399158
  H 6.193893 -0.778759 -1.890048
  H 0.747552 0.541785 1.399267
  H 0.613860 -0.838356 0.294849
  H 0.614055 0.774010 -0.352966
  H 3.972555 1.379634 1.128671
  H 3.973117 -0.249350 1.783440
  H 2.341314 -0.720399 -1.740806
  H 4.880338 -0.062331 -0.104917
  H 5.076319 -2.338659 -3.466717
  H 5.076816 -0.740761 -4.107452
 19
 34.633777
  C 1.103669 0.166178 0.464386
  C 2.582853 0.053703 0.184583
  C 3.386970 0.512634 1.326439
  H 2.731225 0.833736 2.126066
  C 2.847940 -0.441203 -1.046887
  C 4.196623 -0.397527 -0.940139
  C 5.072011 -0.804210 -1.954323
  C 4.696101 -1.329095 -3.261735
  H 3.623473 -1.391932 -3.417712
  H 6.135714 -0.729497 -1.769227
  H 0.851756 0.557368 1.438921
  H 0.634322 -0.811485 0.350082
  H 0.634574 0.793793 -0.294086
  H 4.023297 1.361944 1.071350
  H 4.023902 -0.276682 1.729684
  H 2.169333 -0.754643 -1.826558
  H 4.721045 -0.051813 -0.079193
  H 5.149749 -2.312303 -3.402932
  H 5.149526 -0.716318 -4.043624
 19
 69.627005
  C 1.146753 0.170384 0.474546
  C 2.630206 0.029211 0.124393
  C 3.429575 0.503195 1.302230
  H 2.768043 0.824818 2.101982
  C 2.745777 -0.479278 -1.138417
  C 4.094739 -0.391250 -0.923599
  C 5.029050 -0.787920 -1.913295
  C 4.716095 -1.316832 -3.232638
  H 3.654776 -1.395321 -3.429590
  H 6.084193 -0.697235 -1.687368
  H 0.918746 0.567478 1.463421
  H 0.663387 -0.801803 0.375957
  H 0.663944 0.805091 -0.268914
  H 4.060943 1.356338 1.058141
  H 4.061632 -0.280855 1.716886
  H 2.064061 -0.780558 -1.886353
  H 4.643161 -0.049213 -0.071012
  H 5.190937 -2.296326 -3.357056
  H 5.191587 -0.695041 -3.999041
 19
 108.372996
  C 1.179171 0.183170 0.484680
  C 2.687406 0.007364 0.084975
  C 3.448174 0.495398 1.282727
  H 2.776894 0.822055 2.068363
  C 2.687970 -0.532395 -1.193205
  C 4.034348 -0.378479 -0.892602
  C 5.002112 -0.763885 -1.877979
  C 4.723924 -1.296190 -3.204073
  H 3.666083 -1.376625 -3.426105
  H 6.051443 -0.676548 -1.627679
  H 0.971216 0.580122 1.466037
  H 0.692288 -0.787189 0.397409
  H 0.689434 0.825555 -0.248186
  H 4.080023 1.349738 1.033688
  H 4.076830 -0.289442 1.710582
  H 1.991542 -0.839314 -1.932878
  H 4.630913 -0.068179 -0.070043
  H 5.199725 -2.269005 -3.319845
  H 5.210229 -0.671576 -3.952405
 19
 131.203373
  C 1.170914 0.181134 0.429635
  C 2.790500 -0.040958 0.032948
  C 3.474572 0.507211 1.283190
  H 2.768064 0.859654 2.039241
  C 2.645354 -0.610004 -1.180119
  C 4.072788 -0.398366 -0.854746
  C 4.979849 -0.742122 -1.817926
  C 4.697578 -1.254256 -3.187353
  H 3.639039 -1.318514 -3.414072
  H 6.037987 -0.674572 -1.572327
  H 1.026949 0.595666 1.415137
  H 0.685689 -0.791606 0.374685
  H 0.705610 0.841222 -0.296509
  H 4.105098 1.350588 1.019361
  H 4.081976 -0.259423 1.748651
  H 1.936062 -0.921318 -1.897381
  H 4.712362 -0.141666 -0.025936
  H 5.145889 -2.237886 -3.317904
  H 5.174377 -0.595882 -3.914875
 19
 149.692484
  C 1.172449 0.180128 0.423803
  C 2.866896 -0.068766 0.004394
  C 3.471068 0.521409 1.277235
  H 2.740370 0.877799 2.006702
  C 2.625093 -0.648491 -1.182063
  C 4.101401 -0.397832 -0.809236
  C 4.979421 -0.734943 -1.798838
  C 4.683720 -1.226834 -3.174505
  H 3.619564 -1.276830 -3.387333
  H 6.037784 -0.687297 -1.571693
  H 1.029000 0.600855 1.409253
  H 0.696752 -0.788688 0.374391
  H 0.741219 0.840784 -0.314205
  H 4.103996 1.365397 1.012629
  H 4.077346 -0.235101 1.774717
  H 1.920209 -0.957371 -1.902871
  H 4.764904 -0.177404 0.021227
  H 5.109862 -2.219831 -3.312950
  H 5.149740 -0.565276 -3.904881
 19
 133.876328
  C 0.713821 0.200286 0.555369
  C 3.239804 -0.136839 0.012772
  C 3.501819 0.537071 1.276303
  H 2.600609 0.755028 1.835808
  C 2.763004 -0.667260 -1.026966
  C 4.470931 -0.436464 -0.787434
  C 5.154024 -0.785437 -1.895455
  C 4.662430 -1.170066 -3.241913
  H 3.584081 -1.163737 -3.337228
  H 6.234180 -0.771385 -1.827778
  H 0.537578 0.650360 1.513711
  H 0.444788 -0.836172 0.485011
  H 0.461461 0.820509 -0.283298
  H 4.013318 1.476026 1.072523
  H 4.143298 -0.084759 1.898112
  H 2.073878 -0.993845 -1.756439
  H 5.205842 -0.279730 0.003937
  H 5.029171 -2.164089 -3.492813
  H 5.083917 -0.485948 -3.977559
 19
 117.725388
  C 0.510684 0.152813 0.369724
  C 3.431211 -0.120373 0.126325
  C 3.578246 0.611950 1.362829
  H 2.591109 0.757025 1.795139
  C 2.819617 -0.704747 -0.791436
  C 4.733038 -0.493330 -0.734178
  C 5.194060 -0.837048 -1.928787
  C 4.510567 -1.091422 -3.217994
  H 3.435963 -0.960490 -3.176906
  H 6.273121 -0.912796 -1.998668
  H 0.308992 0.678479 1.279858
  H 0.377748 -0.908576 0.368198
  H 0.435248 0.699209 -0.546609
  H 4.039017 1.579544 1.172055
  H 4.206349 0.064276 2.063094
  H 2.213632 -1.048468 -1.595543
  H 5.479356 -0.392792 0.048099
  H 4.730176 -2.104586 -3.551648
  H 4.915097 -0.414429 -3.969174
