 23
 0.000000
  C 1.002231 0.057933 0.181830
  C 2.506630 0.056272 0.181770
  C 3.281461 -0.013138 1.478495
  C 2.475556 -0.097848 2.772210
  C 3.403009 -0.163498 3.981340
  C 3.144755 0.120927 -0.996344
  H 2.546921 0.171399 -1.901880
  C 4.568496 0.131265 -1.204373
  C 5.117127 0.197934 -2.418805
  O 6.445804 0.211458 -2.688659
  H 0.588698 0.020122 1.182397
  H 0.619402 -0.799776 -0.372642
  H 0.626416 0.958063 -0.306356
  H 3.925684 0.870335 1.539333
  H 3.941615 -0.885666 1.435372
  H 1.846304 -0.990206 2.762528
  H 1.832173 0.778942 2.870580
  H 4.046961 -1.038430 3.923573
  H 2.826996 -0.223869 4.901578
  H 4.032572 0.722412 4.030019
  H 5.212598 0.082975 -0.338929
  H 4.530041 0.248809 -3.325830
  H 6.943869 0.165205 -1.862640
 23
 5.868142
  C 1.003173 0.108664 0.196172
  C 2.470429 0.068315 0.170792
  C 3.278259 0.002336 1.493686
  C 2.476233 -0.109441 2.778435
  C 3.403170 -0.169662 3.987455
  C 3.118678 0.129006 -1.001533
  H 2.529701 0.185263 -1.910375
  C 4.548470 0.120001 -1.207615
  C 5.103149 0.182374 -2.424412
  O 6.431185 0.186215 -2.688211
  H 0.548706 0.029296 1.174845
  H 0.875595 -0.789707 -0.386647
  H 0.586460 0.968421 -0.322221
  H 3.900495 0.896518 1.557547
  H 3.952413 -0.853614 1.438913
  H 1.863128 -1.014069 2.758238
  H 1.816428 0.755259 2.884283
  H 4.064078 -1.032348 3.921774
  H 2.827157 -0.249631 4.906639
  H 4.016613 0.727844 4.044986
  H 5.192204 0.065216 -0.339388
  H 4.522117 0.239906 -3.332407
  H 6.923880 0.135398 -1.859612
 23
 18.278391
  C 1.016236 0.136511 0.216162
  C 2.462672 0.086955 0.172366
  C 3.297295 0.026336 1.484859
  C 2.470505 -0.118822 2.775927
  C 3.382350 -0.175482 3.999982
  C 3.110790 0.146839 -1.000932
  H 2.527214 0.219892 -1.903640
  C 4.530220 0.107730 -1.213233
  C 5.075070 0.167438 -2.423860
  O 6.400258 0.152579 -2.693027
  H 0.547294 -0.002608 1.181651
  H 1.109897 -0.753103 -0.360752
  H 0.566863 0.963007 -0.333539
  H 3.897497 0.948079 1.545713
  H 3.996245 -0.821448 1.411719
  H 1.873700 -1.034482 2.735903
  H 1.791021 0.730722 2.881307
  H 4.060550 -1.023475 3.934278
  H 2.795115 -0.277287 4.909744
  H 3.977271 0.732593 4.076436
  H 5.180738 0.037404 -0.347220
  H 4.493553 0.240729 -3.325349
  H 6.892796 0.090338 -1.869097
 23
 32.192563
  C 0.977905 0.164569 0.224892
  C 2.438099 0.087401 0.167239
  C 3.282367 0.025598 1.493066
  C 2.476279 -0.126289 2.776608
  C 3.397018 -0.180707 3.989118
  C 3.097345 0.150245 -1.005149
  H 2.519097 0.236849 -1.912604
  C 4.523450 0.107916 -1.209998
  C 5.080741 0.168174 -2.423068
  O 6.417580 0.137389 -2.684334
  H 0.500691 0.039521 1.184491
  H 1.260291 -0.740600 -0.295647
  H 0.513337 0.932137 -0.384797
  H 3.865398 0.949393 1.548848
  H 3.982330 -0.811537 1.417338
  H 1.885199 -1.044996 2.739198
  H 1.794705 0.718395 2.889721
  H 4.077499 -1.023029 3.915471
  H 2.819578 -0.287424 4.902256
  H 3.985902 0.728229 4.061606
  H 5.169140 0.031452 -0.341577
  H 4.505630 0.248384 -3.331015
  H 6.904412 0.068182 -1.853137
 23
 45.367917
  C 0.967986 0.188154 0.245161
  C 2.433301 0.087553 0.169999
  C 3.262225 0.024200 1.478716
  C 2.469865 -0.132781 2.767654
  C 3.400872 -0.185636 3.968841
  C 3.099345 0.150162 -1.011918
  H 2.529411 0.238892 -1.916159
  C 4.511416 0.105814 -1.205429
  C 5.081966 0.164239 -2.420303
  O 6.406096 0.132189 -2.663768
  H 0.497140 0.073894 1.200528
  H 1.393876 -0.714925 -0.217418
  H 0.492092 0.903841 -0.408275
  H 3.838002 0.947580 1.530251
  H 3.962641 -0.804570 1.403340
  H 1.889083 -1.042362 2.735508
  H 1.793907 0.699961 2.888654
  H 4.093588 -1.038578 3.885163
  H 2.825267 -0.297079 4.896746
  H 3.995358 0.740311 4.036685
  H 5.154229 0.029346 -0.334092
  H 4.519704 0.243996 -3.331553
  H 6.884826 0.063990 -1.818001
 23
 54.028007
  C 0.955366 0.211493 0.258970
  C 2.422352 0.086249 0.162610
  C 3.252900 0.021182 1.475177
  C 2.464778 -0.135788 2.771349
  C 3.406121 -0.190279 3.965140
  C 3.088189 0.151194 -1.022538
  H 2.508989 0.248030 -1.927274
  C 4.512427 0.104622 -1.215451
  C 5.086174 0.164303 -2.417353
  O 6.441828 0.131054 -2.657829
  H 0.494013 0.116329 1.212756
  H 1.480618 -0.706175 -0.141822
  H 0.463753 0.860450 -0.435250
  H 3.829353 0.949081 1.524652
  H 3.959463 -0.810482 1.400928
  H 1.877053 -1.052961 2.743170
  H 1.785854 0.704409 2.899789
  H 4.089340 -1.033828 3.877907
  H 2.843238 -0.300041 4.889409
  H 3.995401 0.722990 4.028437
  H 5.152981 0.025042 -0.342237
  H 4.525472 0.247361 -3.336036
  H 6.908112 0.063237 -1.822964
 23
 60.180143
  C 0.962076 0.235043 0.274387
  C 2.430368 0.082755 0.172719
  C 3.251582 0.018937 1.476394
  C 2.463486 -0.136933 2.761176
  C 3.399730 -0.196678 3.952359
  C 3.102829 0.151029 -1.024500
  H 2.524628 0.250537 -1.919981
  C 4.506861 0.106283 -1.215118
  C 5.085819 0.166214 -2.423417
  O 6.425894 0.131638 -2.654904
  H 0.491019 0.166614 1.238467
  H 1.573805 -0.708031 -0.058244
  H 0.460046 0.810342 -0.471258
  H 3.827865 0.946910 1.528727
  H 3.960992 -0.813352 1.405626
  H 1.870778 -1.056498 2.729082
  H 1.785446 0.709655 2.890378
  H 4.078739 -1.041619 3.865439
  H 2.838276 -0.305454 4.868911
  H 3.993073 0.716253 4.018869
  H 5.140406 0.027178 -0.345974
  H 4.522918 0.249676 -3.353727
  H 6.890104 0.064243 -1.810392
 23
 64.397878
  C 0.946262 0.262424 0.262621
  C 2.417643 0.077640 0.162709
  C 3.254542 0.017021 1.476148
  C 2.465661 -0.138178 2.776893
  C 3.411950 -0.205608 3.974130
  C 3.088680 0.149429 -1.037529
  H 2.496872 0.253253 -1.943330
  C 4.507217 0.104678 -1.227253
  C 5.090908 0.165918 -2.429126
  O 6.443154 0.138849 -2.657563
  H 0.468646 0.222964 1.210820
  H 1.621799 -0.717781 -0.009058
  H 0.435012 0.768113 -0.533771
  H 3.830071 0.940613 1.520803
  H 3.958854 -0.810226 1.398846
  H 1.871776 -1.046615 2.746958
  H 1.797326 0.705088 2.909683
  H 4.087926 -1.055470 3.883809
  H 2.847041 -0.313330 4.904602
  H 4.008604 0.699767 4.039360
  H 5.142382 0.026638 -0.349916
  H 4.539803 0.248434 -3.345353
  H 6.903087 0.074921 -1.814782
 23
 67.952132
  C 0.959073 0.291290 0.270024
  C 2.426432 0.073958 0.172987
  C 3.259519 0.016495 1.476647
  C 2.465807 -0.138560 2.774595
  C 3.405554 -0.214995 3.977755
  C 3.099187 0.148653 -1.039863
  H 2.501416 0.245485 -1.946681
  C 4.498335 0.109256 -1.228083
  C 5.082995 0.165956 -2.433355
  O 6.444934 0.141439 -2.662703
  H 0.470134 0.276331 1.220573
  H 1.691231 -0.727296 0.052713
  H 0.442178 0.716186 -0.566345
  H 3.835017 0.936042 1.522229
  H 3.959992 -0.808932 1.397715
  H 1.866864 -1.041926 2.739133
  H 1.799539 0.708318 2.906227
  H 4.073754 -1.062990 3.889116
  H 2.838392 -0.321550 4.901346
  H 4.003299 0.680691 4.048128
  H 5.133483 0.037952 -0.353316
  H 4.526914 0.241443 -3.355429
  H 6.903682 0.084324 -1.822765
 23
 70.378348
  C 0.953466 0.324591 0.270237
  C 2.418389 0.068586 0.177875
  C 3.263089 0.017015 1.482190
  C 2.472396 -0.137969 2.776110
  C 3.410498 -0.222068 3.970255
  C 3.093635 0.149705 -1.039170
  H 2.495467 0.244087 -1.937696
  C 4.502113 0.108774 -1.228828
  C 5.090031 0.164462 -2.433322
  O 6.439065 0.144693 -2.654790
  H 0.455801 0.321284 1.203523
  H 1.731038 -0.745707 0.097341
  H 0.431242 0.669726 -0.594281
  H 3.839865 0.937664 1.525912
  H 3.964171 -0.811831 1.398615
  H 1.865305 -1.043656 2.738745
  H 1.810497 0.712786 2.911724
  H 4.072717 -1.071831 3.877034
  H 2.846488 -0.328158 4.892023
  H 4.012354 0.669718 4.041339
  H 5.137182 0.038798 -0.353329
  H 4.541407 0.238182 -3.351388
  H 6.895439 0.090094 -1.807543
 23
 72.301949
  C 0.956625 0.359537 0.269621
  C 2.418394 0.056979 0.179411
  C 3.270487 0.014395 1.491266
  C 2.474392 -0.139034 2.772052
  C 3.410203 -0.227939 3.980671
  C 3.099593 0.148204 -1.044366
  H 2.498891 0.243799 -1.941935
  C 4.501010 0.105457 -1.232592
  C 5.092526 0.163990 -2.439986
  O 6.443565 0.148729 -2.656443
  H 0.434882 0.348676 1.215714
  H 1.772474 -0.773988 0.122705
  H 0.427595 0.645300 -0.618951
  H 3.848153 0.941771 1.536038
  H 3.974657 -0.820276 1.408652
  H 1.861765 -1.046832 2.727044
  H 1.809514 0.719534 2.902126
  H 4.078694 -1.091222 3.890521
  H 2.835874 -0.333903 4.902552
  H 4.024924 0.677458 4.058899
  H 5.133860 0.034070 -0.360086
  H 4.538355 0.240961 -3.372732
  H 6.896911 0.093603 -1.807847
 23
 71.737312
  C 0.964668 0.421482 0.270587
  C 2.407741 0.040366 0.179695
  C 3.269523 0.015567 1.490874
  C 2.478209 -0.141841 2.780822
  C 3.418267 -0.232185 3.982732
  C 3.099926 0.151024 -1.048671
  H 2.499636 0.249270 -1.944023
  C 4.498292 0.101523 -1.231915
  C 5.096545 0.163842 -2.437819
  O 6.446864 0.146986 -2.646173
  H 0.424914 0.359850 1.193042
  H 1.813061 -0.829080 0.137166
  H 0.420083 0.628583 -0.632969
  H 3.836874 0.943407 1.529065
  H 3.973683 -0.810084 1.407371
  H 1.867252 -1.048368 2.737647
  H 1.814632 0.713775 2.915684
  H 4.083532 -1.090898 3.888284
  H 2.850988 -0.339715 4.903597
  H 4.029566 0.668964 4.059082
  H 5.128210 0.023781 -0.359705
  H 4.546311 0.247186 -3.372868
  H 6.895997 0.085704 -1.795577
 23
 71.728766
  C 0.980090 0.469738 0.279737
  C 2.406595 0.022802 0.189945
  C 3.269287 0.011546 1.489863
  C 2.480264 -0.146492 2.779383
  C 3.417186 -0.234321 3.975618
  C 3.103751 0.143021 -1.047946
  H 2.498914 0.239670 -1.941797
  C 4.494580 0.096651 -1.230082
  C 5.096115 0.161342 -2.438861
  O 6.446586 0.147053 -2.646103
  H 0.419539 0.358250 1.193363
  H 1.856662 -0.863925 0.147072
  H 0.439345 0.636516 -0.625532
  H 3.830694 0.941885 1.525039
  H 3.979946 -0.813075 1.407920
  H 1.870330 -1.055061 2.736337
  H 1.811928 0.711222 2.913807
  H 4.084784 -1.092905 3.880786
  H 2.847301 -0.342650 4.901932
  H 4.024209 0.664266 4.050096
  H 5.124119 0.019057 -0.360655
  H 4.552883 0.243135 -3.361978
  H 6.896402 0.085138 -1.795754
 23
 70.677992
  C 0.994239 0.519268 0.284696
  C 2.397631 0.004023 0.196906
  C 3.265080 0.008865 1.489335
  C 2.480313 -0.157714 2.777993
  C 3.423147 -0.240849 3.979407
  C 3.103418 0.134799 -1.049600
  H 2.496596 0.224217 -1.942641
  C 4.490565 0.099027 -1.226774
  C 5.096952 0.157979 -2.437168
  O 6.445631 0.136043 -2.639817
  H 0.419688 0.356020 1.178939
  H 1.901193 -0.909599 0.145407
  H 0.456140 0.670097 -0.629021
  H 3.817590 0.950105 1.522519
  H 3.983988 -0.805943 1.406366
  H 1.878321 -1.068885 2.732473
  H 1.807223 0.690816 2.913199
  H 4.096128 -1.092031 3.883539
  H 2.858827 -0.354695 4.899992
  H 4.025343 0.664948 4.056174
  H 5.119731 0.023901 -0.355488
  H 4.554428 0.227789 -3.362913
  H 6.894659 0.077296 -1.788293
