 20
 0.000000
  C 1.007308 -0.071086 0.048505
  C 2.503546 -0.082251 0.026589
  C 3.219387 -0.594976 -0.979980
  C 4.656935 -0.606404 -1.002413
  C 5.377138 -1.121830 -2.014278
  C 6.815353 -1.131424 -2.033109
  C 7.535242 -1.642704 -3.036844
  C 9.025199 -1.661407 -3.073551
  H 0.644641 0.394975 0.963457
  H 0.611883 -1.085849 0.009040
  H 0.611885 0.493630 -0.795526
  H 3.004304 0.353042 0.881146
  H 2.708079 -1.028372 -1.830798
  H 5.162048 -0.171679 -0.148977
  H 4.871051 -1.556545 -2.867695
  H 7.320824 -0.696664 -1.179603
  H 7.036924 -2.079073 -3.893491
  H 9.457233 -1.207940 -2.183332
  H 9.385212 -1.115568 -3.946998
  H 9.385212 -2.688855 -3.145593
 20
 -0.076957
  C 1.005322 -0.057692 0.049004
  C 2.497161 -0.078124 0.026541
  C 3.220229 -0.584103 -0.976546
  C 4.654532 -0.620365 -0.992183
  C 5.381732 -1.134103 -2.000064
  C 6.816931 -1.154038 -2.024949
  C 7.536507 -1.666935 -3.026831
  C 9.025795 -1.649837 -3.087202
  H 0.634815 0.607457 0.827432
  H 0.614423 -1.059589 0.244543
  H 0.608145 0.269438 -0.910202
  H 3.002430 0.338413 0.890412
  H 2.716295 -0.998907 -1.842317
  H 5.158745 -0.208227 -0.127974
  H 4.882345 -1.532628 -2.873452
  H 7.322014 -0.711782 -1.175320
  H 7.034609 -2.129992 -3.865503
  H 9.454787 -1.355536 -2.129902
  H 9.360141 -0.942655 -3.846411
  H 9.411542 -2.632307 -3.363564
 20
 0.767357
  C 1.001780 -0.049923 0.030572
  C 2.492225 -0.091253 0.024490
  C 3.222396 -0.599105 -0.973553
  C 4.655121 -0.663587 -0.966785
  C 5.388029 -1.185641 -1.966658
  C 6.821726 -1.216440 -1.982398
  C 7.534719 -1.676826 -3.015821
  C 9.020950 -1.600019 -3.108166
  H 0.634470 0.716086 0.711967
  H 0.599017 -1.012387 0.357776
  H 0.614260 0.147164 -0.966192
  H 2.991589 0.308144 0.900157
  H 2.725508 -0.997319 -1.851537
  H 5.153227 -0.279808 -0.086792
  H 4.906790 -1.502896 -2.881493
  H 7.329593 -0.810617 -1.115411
  H 7.033201 -2.189605 -3.825643
  H 9.471594 -1.474193 -2.122645
  H 9.306258 -0.746637 -3.721597
  H 9.431354 -2.493043 -3.578792
 20
 2.605236
  C 0.989495 -0.053951 0.009026
  C 2.482360 -0.082932 0.020980
  C 3.227480 -0.593836 -0.960865
  C 4.664064 -0.660494 -0.930629
  C 5.411791 -1.190224 -1.915223
  C 6.845220 -1.225934 -1.922796
  C 7.527857 -1.665508 -2.997049
  C 9.006824 -1.571865 -3.185280
  H 0.606659 0.672580 0.721042
  H 0.591740 -1.032925 0.280691
  H 0.612827 0.190330 -0.983351
  H 2.964838 0.313284 0.899566
  H 2.746816 -0.992084 -1.841954
  H 5.150557 -0.276757 -0.040547
  H 4.969569 -1.451815 -2.858650
  H 7.365793 -0.871279 -1.046753
  H 7.003503 -2.230440 -3.765368
  H 9.515906 -1.382796 -2.238419
  H 9.234027 -0.743589 -3.861409
  H 9.407982 -2.483478 -3.634663
 20
 10.529820
  C 0.993887 -0.039244 -0.033676
  C 2.486892 -0.032558 -0.010584
  C 3.249447 -0.592121 -0.951385
  C 4.681998 -0.663702 -0.888784
  C 5.443856 -1.236456 -1.841619
  C 6.877357 -1.321968 -1.832984
  C 7.490644 -1.709761 -2.965458
  C 8.939909 -1.512200 -3.266543
  H 0.589223 0.717200 0.634047
  H 0.616202 -1.010545 0.290259
  H 0.619242 0.140530 -1.040075
  H 2.954834 0.395900 0.866488
  H 2.783171 -1.038959 -1.820969
  H 5.154581 -0.240845 -0.009755
  H 5.079954 -1.394929 -2.850430
  H 7.428667 -1.109048 -0.928138
  H 6.985194 -2.395612 -3.632517
  H 9.509062 -1.295006 -2.363541
  H 9.045807 -0.658938 -3.939213
  H 9.371184 -2.379460 -3.763822
 20
 23.988999
  C 1.001453 0.019052 -0.167061
  C 2.491942 0.019187 -0.079933
  C 3.287031 -0.650079 -0.917454
  C 4.717648 -0.710758 -0.796914
  C 5.506901 -1.334689 -1.694370
  C 6.924287 -1.456053 -1.681657
  C 7.452766 -1.796881 -2.890822
  C 8.829561 -1.424179 -3.338995
  H 0.574012 0.808047 0.446292
  H 0.602621 -0.932888 0.183082
  H 0.672194 0.154493 -1.194871
  H 2.929393 0.555703 0.754581
  H 2.851313 -1.190863 -1.747146
  H 5.166343 -0.134137 0.003727
  H 5.212189 -1.503971 -2.725394
  H 7.515552 -1.319164 -0.789427
  H 7.013995 -2.614172 -3.444222
  H 9.455665 -1.123059 -2.498842
  H 8.752141 -0.570597 -4.015553
  H 9.319489 -2.231074 -3.879737
 20
 41.592721
  C 1.021630 0.033447 -0.253668
  C 2.507501 0.027975 -0.104643
  C 3.336042 -0.660891 -0.901719
  C 4.755824 -0.713970 -0.731719
  C 5.570514 -1.381164 -1.588684
  C 6.957743 -1.625496 -1.578273
  C 7.379332 -1.820589 -2.872778
  C 8.713981 -1.365172 -3.379222
  H 0.584448 0.903397 0.230744
  H 0.589454 -0.857902 0.203464
  H 0.737053 0.034080 -1.303628
  H 2.919295 0.645975 0.684638
  H 2.924380 -1.271768 -1.692115
  H 5.179733 -0.085319 0.042239
  H 5.386186 -1.395886 -2.675108
  H 7.596599 -1.651730 -0.707154
  H 6.952549 -2.633366 -3.439171
  H 9.366146 -1.066196 -2.558606
  H 8.566461 -0.492474 -4.017852
  H 9.214564 -2.128487 -3.972951
 20
 62.117474
  C 1.031248 -0.032618 -0.370092
  C 2.508453 0.063258 -0.168111
  C 3.407786 -0.640755 -0.876385
  C 4.816002 -0.620069 -0.634136
  C 5.715275 -1.291866 -1.407536
  C 7.040733 -1.687500 -1.436179
  C 7.288770 -1.813534 -2.822112
  C 8.561984 -1.351741 -3.470552
  H 0.520433 0.812833 0.084458
  H 0.641426 -0.944838 0.085956
  H 0.785266 -0.064658 -1.430281
  H 2.847152 0.693696 0.643821
  H 3.066497 -1.278497 -1.682224
  H 5.169785 0.029907 0.159015
  H 5.634692 -1.245545 -2.576272
  H 7.722300 -1.890902 -0.626252
  H 6.837503 -2.659220 -3.319323
  H 9.304378 -1.089725 -2.716831
  H 8.369381 -0.459852 -4.067565
  H 8.978407 -2.108654 -4.134674
 20
 72.905949
  C 1.090724 -0.038376 -0.488367
  C 2.557579 0.061938 -0.219741
  C 3.479071 -0.694472 -0.824559
  C 4.882186 -0.642416 -0.533916
  C 5.813456 -1.335827 -1.206553
  C 7.072648 -1.788693 -1.336059
  C 7.181407 -1.828758 -2.783914
  C 8.383773 -1.271062 -3.496676
  H 0.568283 0.846794 -0.134165
  H 0.667077 -0.906074 0.022707
  H 0.897580 -0.158284 -1.553433
  H 2.866651 0.783607 0.524184
  H 3.167299 -1.417237 -1.570227
  H 5.206240 0.110732 0.177636
  H 5.812977 -1.304148 -2.579577
  H 7.816651 -2.037931 -0.599070
  H 6.726041 -2.677851 -3.281598
  H 9.159132 -1.014054 -2.776365
  H 8.125057 -0.362024 -4.039418
  H 8.783946 -1.982429 -4.217998
 20
 59.930850
  C 1.145980 -0.031480 -0.580737
  C 2.596563 0.051446 -0.234306
  C 3.528901 -0.733719 -0.761967
  C 4.932875 -0.662549 -0.427875
  C 5.890527 -1.343481 -1.037295
  C 7.074000 -1.857195 -1.283187
  C 7.096871 -1.857979 -2.782216
  C 8.240865 -1.200118 -3.512288
  H 0.620109 0.870397 -0.279187
  H 0.681422 -0.879224 -0.072509
  H 1.008847 -0.175054 -1.650724
  H 2.882613 0.816909 0.472223
  H 3.236027 -1.514325 -1.454746
  H 5.233041 0.166266 0.211451
  H 5.965606 -1.404060 -2.694472
  H 7.862710 -2.145478 -0.614152
  H 6.699435 -2.750408 -3.274773
  H 9.008669 -0.901451 -2.804140
  H 7.913521 -0.303718 -4.033450
  H 8.678004 -1.872495 -4.245200
 20
 41.818351
  C 1.095998 -0.178769 -0.432871
  C 2.552396 0.120006 -0.284563
  C 3.522295 -0.677653 -0.727409
  C 4.928651 -0.415430 -0.543717
  C 5.905091 -1.138183 -1.045329
  C 7.054554 -1.688962 -1.319575
  C 7.089831 -1.867692 -2.824582
  C 8.306631 -1.345112 -3.562847
  H 0.499262 0.723076 -0.320073
  H 0.776295 -0.891029 0.329828
  H 0.885822 -0.621733 -1.405321
  H 2.810091 1.034691 0.233086
  H 3.268232 -1.596024 -1.242637
  H 5.188832 0.524401 -0.063282
  H 6.077134 -1.360230 -2.909804
  H 7.848475 -1.935382 -0.638079
  H 6.728188 -2.842865 -3.165141
  H 9.029259 -0.948091 -2.854450
  H 8.038056 -0.542485 -4.247580
  H 8.777675 -2.132895 -4.146018
 20
 25.424512
  C 1.083057 -0.196020 -0.338480
  C 2.537992 0.117982 -0.200856
  C 3.512687 -0.653119 -0.681395
  C 4.920632 -0.353805 -0.534069
  C 5.891843 -1.047734 -1.081285
  C 6.891639 -1.775024 -1.473832
  C 7.067764 -1.774323 -2.975775
  C 8.442116 -1.396432 -3.508689
  H 0.474737 0.688964 -0.169452
  H 0.789105 -0.952145 0.391516
  H 0.861793 -0.591413 -1.328565
  H 2.789116 1.035688 0.314990
  H 3.269349 -1.572638 -1.199028
  H 5.165371 0.594622 -0.063771
  H 6.238926 -1.078935 -3.201950
  H 7.572239 -2.290766 -0.815892
  H 6.646374 -2.671937 -3.442767
  H 9.119893 -1.186194 -2.684368
  H 8.391367 -0.505921 -4.130854
  H 8.865224 -2.200294 -4.106215
 20
 17.901822
  C 1.022225 -0.185034 -0.226225
  C 2.484820 0.114678 -0.137837
  C 3.429025 -0.629290 -0.711582
  C 4.844803 -0.348879 -0.609509
  C 5.779248 -1.031550 -1.219075
  C 6.740003 -1.766595 -1.684391
  C 7.148357 -1.604246 -3.125236
  C 8.655710 -1.521685 -3.358828
  H 0.429951 0.645327 0.149075
  H 0.779004 -1.071484 0.361105
  H 0.728648 -0.384732 -1.256161
  H 2.768215 0.988024 0.435024
  H 3.153826 -1.501362 -1.291581
  H 5.123714 0.538495 -0.050013
  H 6.600666 -0.707600 -3.439195
  H 7.250046 -2.503351 -1.078592
  H 6.685587 -2.383866 -3.741553
  H 9.191412 -1.560272 -2.412486
  H 8.925786 -0.590375 -3.850723
  H 9.003929 -2.345461 -3.977111
 20
 16.223874
  C 0.986959 -0.213745 -0.109643
  C 2.444503 0.138137 -0.122258
  C 3.382921 -0.605506 -0.708572
  C 4.793697 -0.268361 -0.707309
  C 5.719033 -0.962132 -1.324227
  C 6.723175 -1.665209 -1.775041
  C 7.222883 -1.553882 -3.196947
  C 8.761921 -1.637272 -3.312798
  H 0.398727 0.564840 0.374742
  H 0.822638 -1.154066 0.424436
  H 0.614832 -0.345816 -1.125475
  H 2.727442 1.057022 0.377316
  H 3.111164 -1.526108 -1.212213
  H 5.069017 0.658132 -0.211673
  H 6.831153 -0.606147 -3.603380
  H 7.203917 -2.418336 -1.144861
  H 6.747928 -2.345604 -3.794843
  H 9.223098 -1.712624 -2.326886
  H 9.168708 -0.744081 -3.800217
  H 9.069624 -2.512481 -3.886976
 20
 15.904929
  C 1.007239 -0.224955 -0.108780
  C 2.454123 0.152917 -0.158966
  C 3.404943 -0.620282 -0.681784
  C 4.803356 -0.249254 -0.730529
  C 5.742785 -0.991915 -1.254766
  C 6.767619 -1.614692 -1.748588
  C 7.221152 -1.540040 -3.183803
  C 8.744403 -1.668315 -3.325791
  H 0.428422 0.514231 0.438650
  H 0.878331 -1.193883 0.373100
  H 0.597526 -0.303224 -1.116501
  H 2.718427 1.118471 0.252459
  H 3.152771 -1.588873 -1.094582
  H 5.061053 0.720667 -0.318921
  H 6.875036 -0.604310 -3.624002
  H 7.317709 -2.313496 -1.126461
  H 6.727080 -2.345217 -3.737390
  H 9.215869 -1.805294 -2.354993
  H 9.170039 -0.774501 -3.775268
  H 9.013587 -2.518282 -3.948165
