13

H 1.3764518102822247 0.1390099935402057 0.39842706594949456
C 2.446447 0.138115 0.395346
C 3.23446 0.607562 1.562646
H 2.691447544588579 0.9512806862951755 2.418154584386842
C 3.060064 -0.326115 -0.760183
C 4.43913 -0.411993 -0.974599
C 5.11752 -0.862202 -2.097077
H 4.763425098573598 -1.2379584020975964 -3.0342663763090236
H 6.187450867381482 -0.8577179173288686 -2.0857707173700892
H 3.890246 1.419373 1.227748
H 3.890735 -0.209842 1.882633
H 2.401323 -0.643773 -1.550558
H 5.055886 -0.079861 -0.147388
