 22
 0.000000
  C 0.945158 0.053202 0.181686
  C 2.445989 0.055749 0.092211
  C 3.266003 -0.009961 1.367598
  C 2.499626 -0.083202 2.684647
  H 3.204158 -0.128968 3.511191
  C 3.049448 0.119050 -1.108334
  C 2.340787 0.204932 -2.429773
  H 1.258132 0.190335 -2.376640
  C 4.505700 0.129759 -1.222043
  C 5.214534 0.194861 -2.344573
  H 6.292280 0.197843 -2.338586
  H 0.588869 0.000849 1.204037
  H 0.533351 -0.805048 -0.348649
  H 0.535763 0.962713 -0.257163
  H 3.918222 0.872555 1.413386
  H 3.913902 -0.890233 1.314317
  H 1.872259 -0.971526 2.725230
  H 1.871839 0.794863 2.823536
  H 2.658151 -0.628197 -3.057530
  H 2.640454 1.124678 -2.933194
  H 5.062947 0.079799 -0.298454
  H 4.791704 0.249245 -3.333586
 22
 -0.495857
  C 0.962676 -0.095533 0.163586
  C 2.463914 -0.041384 0.082388
  C 3.256555 -0.132230 1.369246
  C 2.487002 0.086098 2.667446
  H 3.189507 0.088804 3.498619
  C 3.088971 0.092280 -1.109887
  C 2.341187 0.253242 -2.406126
  H 1.267445 0.234288 -2.271114
  C 4.541410 0.078102 -1.233179
  C 5.233261 0.269736 -2.352907
  H 6.310466 0.225234 -2.353221
  H 0.619535 -0.294761 1.171959
  H 0.573966 -0.882719 -0.482093
  H 0.524890 0.850709 -0.156708
  H 4.049713 0.619226 1.331860
  H 3.738747 -1.114144 1.418638
  H 1.766000 -0.706252 2.852479
  H 1.970536 1.042666 2.658040
  H 2.615396 -0.542671 -3.096231
  H 2.608010 1.203531 -2.865136
  H 5.099283 -0.131848 -0.332775
  H 4.776035 0.478990 -3.304564
 22
 -0.198346
  C 0.966785 -0.285153 0.154637
  C 2.462957 -0.153143 0.082666
  C 3.244461 -0.243174 1.377207
  C 2.511450 0.274337 2.614167
  H 3.191500 0.263464 3.463808
  C 3.086760 0.085383 -1.086785
  C 2.336438 0.345695 -2.366432
  H 1.263139 0.364161 -2.216798
  C 4.536667 0.031464 -1.230450
  C 5.227388 0.337375 -2.325545
  H 6.298723 0.227732 -2.352225
  H 0.644248 -0.591895 1.142543
  H 0.618339 -1.031652 -0.558414
  H 0.475468 0.659602 -0.079161
  H 4.135453 0.372580 1.252109
  H 3.553331 -1.277751 1.556557
  H 1.654293 -0.341407 2.872899
  H 2.174700 1.296596 2.459098
  H 2.569443 -0.419151 -3.106283
  H 2.637529 1.310381 -2.771654
  H 5.091813 -0.335495 -0.378891
  H 4.774097 0.704746 -3.229316
 22
 0.142775
  C 0.966586 -0.472936 0.150726
  C 2.450942 -0.249018 0.087434
  C 3.215409 -0.343890 1.386004
  C 2.559960 0.458245 2.513080
  H 3.201623 0.442872 3.391628
  C 3.075919 0.086247 -1.055901
  C 2.328350 0.454902 -2.310660
  H 1.258396 0.513458 -2.142489
  C 4.522307 -0.010125 -1.222522
  C 5.219972 0.399129 -2.278574
  H 6.280824 0.223764 -2.342085
  H 0.682150 -0.889823 1.111930
  H 0.658843 -1.171467 -0.626277
  H 0.410795 0.454344 0.009223
  H 4.187214 0.111696 1.201201
  H 3.329219 -1.384001 1.700901
  H 1.594061 0.050397 2.798802
  H 2.420807 1.492237 2.206304
  H 2.516707 -0.270490 -3.101374
  H 2.669289 1.428752 -2.657066
  H 5.063064 -0.519301 -0.436771
  H 4.781749 0.913960 -3.115306
 22
 4.150172
  C 0.980108 -0.713128 0.122225
  C 2.429697 -0.328906 0.101797
  C 3.189327 -0.406732 1.401626
  C 2.612532 0.624174 2.381568
  H 3.231911 0.672510 3.274612
  C 3.064697 0.134070 -0.992206
  C 2.329080 0.665022 -2.195299
  H 1.272144 0.799442 -1.985191
  C 4.488088 -0.093379 -1.213410
  C 5.207813 0.357247 -2.238673
  H 6.232275 0.052463 -2.371044
  H 0.737805 -1.203864 1.061170
  H 0.769284 -1.398889 -0.696709
  H 0.317014 0.146654 0.014051
  H 4.187430 -0.047649 1.150212
  H 3.163018 -1.396468 1.854551
  H 1.600269 0.365158 2.684144
  H 2.590784 1.607910 1.919047
  H 2.430935 -0.000215 -3.052243
  H 2.747264 1.632324 -2.466030
  H 4.978870 -0.751540 -0.508603
  H 4.817732 1.022854 -2.988340
 22
 15.334481
  C 0.997247 -0.901678 0.057343
  C 2.399610 -0.386484 0.111411
  C 3.169264 -0.399579 1.409454
  C 2.639938 0.731407 2.309449
  H 3.288325 0.842191 3.175305
  C 3.066131 0.176492 -0.925207
  C 2.352082 0.876915 -2.054537
  H 1.330288 1.119679 -1.774619
  C 4.438865 -0.207126 -1.219592
  C 5.186340 0.240837 -2.233645
  H 6.159477 -0.177390 -2.428118
  H 0.762589 -1.430686 0.977520
  H 0.892562 -1.582721 -0.785106
  H 0.256954 -0.108408 -0.068139
  H 4.109727 0.021162 1.042136
  H 3.146827 -1.341328 1.947551
  H 1.632474 0.519209 2.665681
  H 2.615868 1.670127 1.762431
  H 2.327850 0.275334 -2.963758
  H 2.876606 1.803235 -2.277611
  H 4.851290 -0.986344 -0.590680
  H 4.867510 1.019741 -2.903596
 22
 35.103298
  C 1.000933 -1.024213 -0.047592
  C 2.341969 -0.394813 0.108539
  C 3.121359 -0.368609 1.401666
  C 2.703830 0.796146 2.326574
  H 3.459258 0.931449 3.095386
  C 3.060142 0.239224 -0.858753
  C 2.412076 1.047105 -1.957584
  H 1.391476 1.309459 -1.687836
  C 4.363304 -0.292351 -1.207998
  C 5.120436 0.096606 -2.223754
  H 6.035410 -0.419577 -2.455920
  H 0.747121 -1.581190 0.850906
  H 1.007091 -1.698112 -0.902280
  H 0.211586 -0.287082 -0.216560
  H 3.955642 0.187035 0.906652
  H 3.147361 -1.299203 1.955262
  H 1.753202 0.591008 2.822808
  H 2.594371 1.719053 1.763853
  H 2.390359 0.513018 -2.908356
  H 2.980235 1.963520 -2.100481
  H 4.713623 -1.106161 -0.586803
  H 4.852018 0.901135 -2.884032
 22
 61.702464
  C 0.984254 -1.143204 -0.128521
  C 2.286013 -0.463579 0.117873
  C 3.012596 -0.367683 1.400212
  C 2.794959 0.874746 2.287202
  H 3.621928 0.980614 2.983370
  C 3.057924 0.239885 -0.792739
  C 2.439520 1.136375 -1.845887
  H 1.436132 1.433950 -1.549064
  C 4.332698 -0.349490 -1.190753
  C 5.099145 0.047009 -2.205570
  H 5.996648 -0.489650 -2.459525
  H 0.692624 -1.719378 0.746543
  H 1.049179 -1.804173 -0.991501
  H 0.194369 -0.415405 -0.331305
  H 3.827590 0.283176 0.718478
  H 3.016863 -1.266246 2.015063
  H 1.877889 0.765805 2.873612
  H 2.707276 1.784307 1.697971
  H 2.381306 0.640586 -2.816173
  H 3.045483 2.031974 -1.962212
  H 4.641506 -1.208884 -0.608369
  H 4.865465 0.895315 -2.823386
 22
 75.863915
  C 1.001532 -1.194747 -0.149122
  C 2.275992 -0.489650 0.157013
  C 2.916934 -0.366692 1.412632
  C 2.804312 0.894469 2.264090
  H 3.654298 0.984304 2.938390
  C 3.091387 0.264470 -0.750325
  C 2.452768 1.180588 -1.774413
  H 1.461355 1.483757 -1.445366
  C 4.354986 -0.364690 -1.192977
  C 5.093745 0.010546 -2.229782
  H 5.980877 -0.535241 -2.500410
  H 0.674521 -1.773538 0.711743
  H 1.100281 -1.856168 -1.010497
  H 0.225549 -0.464446 -0.384275
  H 3.798234 0.419923 0.509874
  H 2.895593 -1.245673 2.070762
  H 1.901072 0.827392 2.875920
  H 2.738674 1.799724 1.663289
  H 2.364782 0.682518 -2.739521
  H 3.056522 2.075791 -1.909515
  H 4.662734 -1.225549 -0.611045
  H 4.855437 0.859422 -2.845392
 22
 61.061542
  C 1.050829 -1.250164 -0.154146
  C 2.291117 -0.524682 0.219452
  C 2.831972 -0.375869 1.462551
  C 2.771602 0.909895 2.252198
  H 3.611050 1.003918 2.943035
  C 3.146387 0.293866 -0.700339
  C 2.472802 1.237468 -1.672147
  H 1.498166 1.536311 -1.294572
  C 4.376026 -0.399430 -1.222557
  C 5.091231 -0.030889 -2.285453
  H 5.970732 -0.580282 -2.580202
  H 0.677882 -1.826023 0.689027
  H 1.193083 -1.916968 -1.006287
  H 0.297202 -0.515700 -0.432571
  H 3.789207 0.534785 0.292254
  H 2.766943 -1.214483 2.172549
  H 1.856245 0.886152 2.843050
  H 2.749165 1.793662 1.616760
  H 2.343313 0.751929 -2.637010
  H 3.069248 2.136988 -1.818756
  H 4.666905 -1.281706 -0.663812
  H 4.836041 0.815302 -2.898733
 22
 37.063231
  C 1.184711 -1.315820 -0.248600
  C 2.312787 -0.485610 0.252301
  C 2.706893 -0.359113 1.526336
  C 2.772003 0.925275 2.306614
  H 3.612358 0.948429 3.003312
  C 3.174408 0.371585 -0.660743
  C 2.483340 1.307669 -1.628182
  H 1.532004 1.640009 -1.218690
  C 4.355826 -0.385827 -1.217060
  C 4.974449 -0.134277 -2.355746
  H 5.800332 -0.741139 -2.686922
  H 0.793277 -1.953316 0.541338
  H 1.459175 -1.935607 -1.104115
  H 0.397206 -0.635571 -0.570502
  H 3.775506 0.745188 0.220017
  H 2.545106 -1.178775 2.234674
  H 1.854801 0.980796 2.891323
  H 2.829830 1.806875 1.670796
  H 2.300964 0.796930 -2.571092
  H 3.093209 2.186686 -1.825768
  H 4.684106 -1.212590 -0.598612
  H 4.719006 0.699065 -2.986551
 22
 19.714971
  C 1.311319 -1.331181 -0.320817
  C 2.354554 -0.446870 0.274742
  C 2.606785 -0.333175 1.581340
  C 2.783864 0.927613 2.375049
  H 3.595416 0.853165 3.101239
  C 3.198139 0.433373 -0.628498
  C 2.465728 1.330395 -1.609770
  H 1.532103 1.680857 -1.174708
  C 4.318638 -0.384198 -1.223993
  C 4.893148 -0.182676 -2.394872
  H 5.710704 -0.798496 -2.730685
  H 0.877516 -1.984404 0.433042
  H 1.690494 -1.939062 -1.143781
  H 0.528109 -0.686144 -0.716694
  H 3.781875 0.947844 0.160938
  H 2.342461 -1.152299 2.252113
  H 1.857980 1.076487 2.929541
  H 2.958074 1.804168 1.755326
  H 2.240560 0.783572 -2.522534
  H 3.067869 2.198994 -1.865868
  H 4.661615 -1.189548 -0.586188
  H 4.582046 0.595810 -3.069701
 22
 8.185474
  C 1.416248 -1.334160 -0.386710
  C 2.345815 -0.373839 0.284976
  C 2.468378 -0.286044 1.604859
  C 2.845143 0.909363 2.429018
  H 3.629122 0.672760 3.149732
  C 3.186831 0.515195 -0.608401
  C 2.410342 1.308239 -1.651207
  H 1.468250 1.655916 -1.232148
  C 4.300962 -0.330945 -1.176643
  C 4.838031 -0.216773 -2.376552
  H 5.651511 -0.850069 -2.689281
  H 0.967340 -2.011424 0.335990
  H 1.917362 -1.918095 -1.159321
  H 0.622323 -0.761873 -0.864251
  H 3.723655 1.169192 0.096611
  H 2.082086 -1.069219 2.252197
  H 1.959634 1.204267 2.992006
  H 3.168982 1.761061 1.837437
  H 2.196505 0.689783 -2.519434
  H 2.978212 2.177148 -1.975131
  H 4.674880 -1.079031 -0.488289
  H 4.503057 0.508719 -3.097687
 22
 2.440937
  C 1.526226 -1.353276 -0.423678
  C 2.341331 -0.319480 0.294288
  C 2.318407 -0.210702 1.615946
  C 2.857245 0.889429 2.477269
  H 3.560937 0.493585 3.210317
  C 3.204233 0.558231 -0.588512
  C 2.395925 1.320369 -1.636533
  H 1.487847 1.717020 -1.186810
  C 4.297148 -0.303062 -1.168133
  C 4.758721 -0.267091 -2.403882
  H 5.561832 -0.911129 -2.721587
  H 1.051107 -2.032785 0.279660
  H 2.142882 -1.929056 -1.113488
  H 0.747424 -0.861269 -1.004668
  H 3.722986 1.267811 0.068860
  H 1.809172 -0.960174 2.212698
  H 2.027832 1.334747 3.027255
  H 3.351928 1.676006 1.915710
  H 2.119030 0.667312 -2.459974
  H 2.971877 2.153692 -2.032130
  H 4.729411 -0.993426 -0.453522
  H 4.371172 0.403422 -3.151316
 22
 0.882271
  C 1.642769 -1.409310 -0.419186
  C 2.362368 -0.306793 0.303273
  C 2.201746 -0.132081 1.610362
  C 2.798360 0.906554 2.500842
  H 3.430713 0.432433 3.249945
  C 3.254711 0.552140 -0.573147
  C 2.425132 1.361905 -1.571342
  H 1.604493 1.854401 -1.051916
  C 4.301555 -0.316764 -1.216546
  C 4.679272 -0.296897 -2.480937
  H 5.454156 -0.950239 -2.844980
  H 1.165245 -2.090079 0.281848
  H 2.336506 -1.971622 -1.044280
  H 0.873215 -0.994300 -1.068472
  H 3.794817 1.253332 0.071549
  H 1.561226 -0.827797 2.142618
  H 2.004447 1.432237 3.028525
  H 3.391408 1.637365 1.962807
  H 2.012010 0.718217 -2.343337
  H 3.037945 2.125250 -2.045759
  H 4.779945 -1.001085 -0.525077
  H 4.242632 0.363304 -3.209020
