 22
 0.000000
  C 1.001391 0.116547 0.348041
  C 2.471700 0.131511 0.378642
  C 3.228310 0.605633 1.555067
  C 2.423482 1.087175 2.754748
  H 3.097428 1.405128 3.543325
  C 3.124868 -0.328143 -0.764863
  C 4.515060 -0.401334 -0.944730
  C 5.141332 -0.856415 -2.078806
  C 4.528868 -1.349930 -3.312473
  H 3.447454 -1.361727 -3.345643
  H 6.221940 -0.865252 -2.097995
  H 0.547378 0.482128 1.260944
  H 0.647339 -0.898628 0.158139
  H 0.641655 0.716275 -0.489803
  H 3.889804 1.417045 1.231118
  H 3.891837 -0.202597 1.882706
  H 1.791797 0.293076 3.147218
  H 1.789832 1.930585 2.488659
  H 2.486712 -0.653067 -1.573958
  H 5.151057 -0.076414 -0.133393
  H 4.910347 -2.356790 -3.501058
  H 4.912646 -0.752851 -4.143755
 22
 1.851740
  C 1.053728 0.115103 0.291848
  C 2.519822 0.162723 0.402754
  C 3.241975 0.621174 1.605221
  C 2.388655 1.086629 2.774504
  H 3.031316 1.399468 3.592332
  C 3.161466 -0.300891 -0.732121
  C 4.543728 -0.373395 -0.951649
  C 5.139585 -0.857360 -2.106753
  C 4.475420 -1.375735 -3.304537
  H 3.393523 -1.368334 -3.256703
  H 6.222144 -0.859973 -2.145474
  H 0.516584 0.374576 1.196838
  H 0.812426 -0.904105 -0.046258
  H 0.715053 0.766101 -0.518786
  H 3.916225 1.432653 1.309231
  H 3.900621 -0.187587 1.939497
  H 1.749064 0.286799 3.140219
  H 1.764719 1.932471 2.496080
  H 2.453045 -0.648791 -1.492491
  H 5.198038 -0.025753 -0.163821
  H 4.829509 -2.391392 -3.496376
  H 4.809584 -0.802996 -4.172865
 22
 5.974798
  C 1.107806 0.102178 0.260655
  C 2.559204 0.178397 0.425269
  C 3.248043 0.633052 1.637125
  C 2.349451 1.093992 2.788088
  H 2.962039 1.412619 3.627888
  C 3.194133 -0.295086 -0.717255
  C 4.563430 -0.367650 -0.969734
  C 5.128625 -0.859769 -2.120543
  C 4.425980 -1.392652 -3.299423
  H 3.348057 -1.377963 -3.216273
  H 6.204934 -0.861728 -2.180054
  H 0.511302 0.246872 1.151272
  H 0.977349 -0.866346 -0.222253
  H 0.792417 0.825563 -0.486840
  H 3.930163 1.452822 1.357625
  H 3.906171 -0.177867 1.983861
  H 1.705443 0.286146 3.134191
  H 1.726215 1.935550 2.488305
  H 2.420328 -0.649007 -1.417225
  H 5.231443 -0.006178 -0.197604
  H 4.768891 -2.412435 -3.490262
  H 4.735157 -0.831171 -4.184390
 22
 12.070358
  C 1.138067 0.087019 0.232762
  C 2.581766 0.188384 0.440411
  C 3.251304 0.648487 1.669438
  C 2.328606 1.100966 2.790387
  H 2.918816 1.427740 3.645944
  C 3.213657 -0.290268 -0.701637
  C 4.580741 -0.367177 -0.980644
  C 5.118909 -0.868095 -2.136508
  C 4.390509 -1.401704 -3.288253
  H 3.309215 -1.379239 -3.179035
  H 6.198561 -0.876545 -2.223436
  H 0.504662 0.110458 1.108391
  H 1.107662 -0.823513 -0.382363
  H 0.816201 0.888906 -0.441401
  H 3.931060 1.465707 1.408194
  H 3.903356 -0.153558 2.027629
  H 1.682996 0.286462 3.121388
  H 1.703702 1.935634 2.470882
  H 2.396543 -0.648880 -1.354179
  H 5.263111 -0.004002 -0.224922
  H 4.723050 -2.427115 -3.478975
  H 4.683162 -0.845519 -4.184636
 22
 20.074553
  C 1.152634 0.090224 0.216484
  C 2.591954 0.207275 0.444230
  C 3.250176 0.657852 1.681229
  C 2.309489 1.100355 2.798990
  H 2.884062 1.420896 3.660944
  C 3.224740 -0.274352 -0.701769
  C 4.589492 -0.357146 -0.994538
  C 5.113237 -0.872913 -2.148821
  C 4.371099 -1.420535 -3.281627
  H 3.298347 -1.395475 -3.158701
  H 6.187648 -0.882022 -2.249483
  H 0.501296 0.011581 1.082583
  H 1.210338 -0.769086 -0.509676
  H 0.815311 0.938456 -0.378697
  H 3.935833 1.482020 1.432879
  H 3.902049 -0.151209 2.039089
  H 1.664762 0.285434 3.113942
  H 1.687612 1.930909 2.479750
  H 2.364997 -0.654750 -1.309200
  H 5.281992 0.012911 -0.248617
  H 4.698263 -2.444889 -3.462051
  H 4.651091 -0.878530 -4.185339
 22
 29.554968
  C 1.165475 0.073381 0.211199
  C 2.600542 0.206348 0.450666
  C 3.248764 0.671116 1.689231
  C 2.296222 1.113233 2.793941
  H 2.863045 1.449186 3.661899
  C 3.238226 -0.279023 -0.691572
  C 4.596498 -0.375169 -0.990046
  C 5.109163 -0.887753 -2.153406
  C 4.354270 -1.416607 -3.283609
  H 3.282605 -1.378517 -3.150911
  H 6.183640 -0.906907 -2.260908
  H 0.520858 -0.097409 1.058916
  H 1.293227 -0.725326 -0.604843
  H 0.796603 0.959540 -0.315079
  H 3.927785 1.495790 1.441733
  H 3.901830 -0.129819 2.056860
  H 1.654385 0.290459 3.111622
  H 1.665304 1.937635 2.459635
  H 2.325911 -0.651160 -1.276079
  H 5.296390 -0.021676 -0.243026
  H 4.667067 -2.445865 -3.474634
  H 4.635224 -0.869457 -4.186766
 22
 40.170448
  C 1.170162 0.053640 0.216588
  C 2.603056 0.197298 0.455337
  C 3.245682 0.685806 1.686895
  C 2.284811 1.132881 2.784747
  H 2.845295 1.491964 3.647457
  C 3.246818 -0.288715 -0.683503
  C 4.605074 -0.409344 -0.979054
  C 5.110602 -0.906704 -2.151200
  C 4.345439 -1.399490 -3.292587
  H 3.271384 -1.343177 -3.157459
  H 6.186903 -0.941430 -2.259067
  H 0.534421 -0.191707 1.059766
  H 1.350995 -0.695521 -0.675732
  H 0.770709 0.950936 -0.253221
  H 3.916114 1.516354 1.427915
  H 3.906033 -0.103121 2.066621
  H 1.656285 0.308693 3.114890
  H 1.643221 1.940098 2.437118
  H 2.278167 -0.642471 -1.256146
  H 5.308511 -0.095611 -0.219548
  H 4.636581 -2.428732 -3.503414
  H 4.636925 -0.841110 -4.182382
 22
 50.459308
  C 1.168753 0.026640 0.234383
  C 2.603597 0.185252 0.459465
  C 3.244583 0.708301 1.677402
  C 2.279505 1.159161 2.768247
  H 2.834320 1.551245 3.616138
  C 3.252447 -0.300637 -0.672713
  C 4.608145 -0.462646 -0.957446
  C 5.111042 -0.932901 -2.141076
  C 4.341292 -1.366733 -3.305902
  H 3.269317 -1.282529 -3.174979
  H 6.187193 -0.991083 -2.241657
  H 0.557484 -0.287210 1.072693
  H 1.383698 -0.679618 -0.735090
  H 0.728214 0.929808 -0.193162
  H 3.895630 1.545995 1.397940
  H 3.922029 -0.062662 2.071854
  H 1.671830 0.328697 3.122311
  H 1.617893 1.942918 2.404985
  H 2.230031 -0.636304 -1.248693
  H 5.311530 -0.212260 -0.172832
  H 4.601390 -2.398521 -3.547742
  H 4.656615 -0.787940 -4.175397
 22
 60.034789
  C 1.170158 0.006601 0.249137
  C 2.601253 0.171375 0.456146
  C 3.242435 0.727314 1.671128
  C 2.273380 1.184010 2.755377
  H 2.827265 1.606291 3.597699
  C 3.256787 -0.313195 -0.659021
  C 4.608786 -0.512119 -0.940530
  C 5.108900 -0.955848 -2.132790
  C 4.337651 -1.332145 -3.316410
  H 3.266996 -1.220806 -3.188970
  H 6.179858 -1.037096 -2.227708
  H 0.585538 -0.346111 1.082545
  H 1.400841 -0.684283 -0.781857
  H 0.702755 0.889258 -0.158431
  H 3.879308 1.570587 1.374394
  H 3.925528 -0.021205 2.076416
  H 1.684461 0.355424 3.127261
  H 1.599679 1.945532 2.379295
  H 2.186251 -0.642528 -1.253333
  H 5.311367 -0.316654 -0.134406
  H 4.567549 -2.363705 -3.587201
  H 4.676114 -0.735211 -4.164727
 22
 67.859701
  C 1.162472 -0.014400 0.283403
  C 2.598699 0.154042 0.460676
  C 3.242856 0.747820 1.654172
  C 2.271224 1.217210 2.737212
  H 2.823299 1.673046 3.558210
  C 3.264085 -0.331897 -0.639195
  C 4.606353 -0.573545 -0.918613
  C 5.107209 -0.981192 -2.120982
  C 4.340023 -1.281037 -3.326719
  H 3.272034 -1.134026 -3.205369
  H 6.184322 -1.093211 -2.208324
  H 0.599957 -0.396199 1.122658
  H 1.394640 -0.717592 -0.828527
  H 0.664616 0.858984 -0.132010
  H 3.862224 1.596605 1.327656
  H 3.943561 0.016173 2.073991
  H 1.701582 0.386794 3.140561
  H 1.578401 1.955619 2.346717
  H 2.142027 -0.672618 -1.274403
  H 5.299875 -0.451963 -0.090949
  H 4.532588 -2.309934 -3.635315
  H 4.710730 -0.662161 -4.146007
 22
 76.365784
  C 1.157823 -0.011265 0.311139
  C 2.591284 0.146398 0.458960
  C 3.239927 0.758495 1.647931
  C 2.269372 1.236593 2.727519
  H 2.823198 1.705988 3.538812
  C 3.274471 -0.337890 -0.620398
  C 4.608796 -0.601590 -0.909123
  C 5.107808 -0.991935 -2.114147
  C 4.339153 -1.253330 -3.333823
  H 3.276235 -1.086286 -3.213924
  H 6.183334 -1.121777 -2.198751
  H 0.607161 -0.399948 1.161481
  H 1.380944 -0.759469 -0.889622
  H 0.647807 0.846739 -0.123278
  H 3.852404 1.605635 1.307910
  H 3.940453 0.036689 2.073442
  H 1.704457 0.405974 3.146538
  H 1.569236 1.968930 2.328920
  H 2.096361 -0.712990 -1.316196
  H 5.297547 -0.515761 -0.072700
  H 4.509797 -2.280900 -3.661114
  H 4.725487 -0.624997 -4.139092
 22
 83.625181
  C 1.140579 -0.008891 0.345729
  C 2.578356 0.131526 0.457075
  C 3.237836 0.772003 1.640113
  C 2.276410 1.265189 2.709492
  H 2.837357 1.755366 3.506502
  C 3.283577 -0.351363 -0.592410
  C 4.610413 -0.642048 -0.892427
  C 5.110908 -1.006575 -2.102452
  C 4.343194 -1.208137 -3.347354
  H 3.289355 -1.010064 -3.232216
  H 6.171983 -1.163054 -2.178504
  H 0.602216 -0.393769 1.208524
  H 1.353553 -0.828775 -0.950983
  H 0.621726 0.810949 -0.120850
  H 3.837716 1.609104 1.280351
  H 3.936319 0.065599 2.073659
  H 1.719142 0.439924 3.152397
  H 1.568783 1.987780 2.299554
  H 2.043021 -0.777595 -1.364485
  H 5.290408 -0.607700 -0.044820
  H 4.481244 -2.230115 -3.703478
  H 4.755189 -0.568716 -4.128949
 22
 89.602457
  C 1.130276 -0.001706 0.376772
  C 2.562907 0.117938 0.451978
  C 3.234477 0.782173 1.628791
  C 2.279767 1.295355 2.694606
  H 2.848794 1.800272 3.475094
  C 3.295116 -0.365435 -0.567848
  C 4.606969 -0.676940 -0.881422
  C 5.108255 -1.019295 -2.096192
  C 4.344925 -1.164041 -3.348755
  H 3.290982 -0.935624 -3.232815
  H 6.165019 -1.201855 -2.169852
  H 0.607396 -0.370298 1.248672
  H 1.317877 -0.913159 -1.032686
  H 0.599608 0.786051 -0.128834
  H 3.826659 1.612141 1.247230
  H 3.938257 0.074970 2.074747
  H 1.728066 0.481001 3.158992
  H 1.570365 2.008776 2.278266
  H 1.990363 -0.858769 -1.437337
  H 5.278193 -0.687221 -0.028249
  H 4.453764 -2.178770 -3.730701
  H 4.778804 -0.515549 -4.108480
 22
 93.628842
  C 1.113412 0.002806 0.407871
  C 2.541291 0.097525 0.444011
  C 3.229025 0.790214 1.607769
  C 2.288679 1.333065 2.672459
  H 2.872890 1.854608 3.427798
  C 3.303043 -0.388196 -0.541437
  C 4.596459 -0.723049 -0.867618
  C 5.102025 -1.035228 -2.088541
  C 4.348421 -1.104218 -3.348958
  H 3.299982 -0.837811 -3.231349
  H 6.157390 -1.253266 -2.158361
  H 0.605515 -0.334421 1.295906
  H 1.272340 -1.025890 -1.118340
  H 0.570782 0.753608 -0.142196
  H 3.819722 1.610710 1.195851
  H 3.938346 0.090157 2.063508
  H 1.742911 0.535207 3.167469
  H 1.576661 2.037628 2.250212
  H 1.933293 -0.964082 -1.520635
  H 5.256719 -0.792864 -0.006055
  H 4.421051 -2.107611 -3.767421
  H 4.812774 -0.443647 -4.079802
