 29
 0.000000
  C 0.950654 0.144703 0.410478
  C 2.426321 0.139013 0.396549
  C 3.224203 0.604742 1.556027
  C 2.464033 1.098288 2.784404
  C 3.438267 1.535706 3.874062
  C 3.036405 -0.327346 -0.764451
  C 4.413627 -0.408376 -0.967270
  C 5.105134 -0.857772 -2.087692
  C 4.616538 -1.381274 -3.392176
  C 3.129095 -1.502962 -3.695283
  H 2.993312 -1.901733 -4.688939
  O 6.423565 -0.847859 -2.063727
  H 0.531940 0.517153 1.337233
  H 0.574955 -0.864738 0.236297
  H 0.574943 0.752951 -0.413755
  H 3.882575 1.412682 1.217351
  H 3.882361 -0.213106 1.870453
  H 1.828379 0.305031 3.181303
  H 1.828773 1.945964 2.522250
  H 4.073340 0.708725 4.183946
  H 2.895498 1.886865 4.748109
  H 4.073767 2.346987 3.525918
  H 2.375049 -0.643769 -1.551855
  H 5.036849 -0.077948 -0.144966
  H 5.082738 -2.366268 -3.514183
  H 5.082859 -0.753979 -4.161283
  H 2.648932 -0.527402 -3.649890
  H 2.649065 -2.176604 -2.988125
  H 6.801662 -0.513249 -1.228761
 29
 16.386410
  C 0.926767 0.157124 0.441026
  C 2.407125 0.140554 0.400177
  C 3.230533 0.602269 1.549867
  C 2.497112 1.101476 2.792152
  C 3.495666 1.531308 3.863561
  C 2.996335 -0.326982 -0.763720
  C 4.423875 -0.422239 -1.002260
  C 5.020399 -0.865600 -2.107848
  C 4.643163 -1.397138 -3.432271
  C 3.177925 -1.534086 -3.771974
  H 3.091833 -1.937745 -4.777976
  O 6.264516 -0.765751 -1.859907
  H 0.526814 0.532418 1.374632
  H 0.541157 -0.848967 0.269644
  H 0.541203 0.764797 -0.378934
  H 3.889504 1.404399 1.200675
  H 3.889123 -0.218727 1.852680
  H 1.864135 0.311982 3.201146
  H 1.864868 1.955023 2.541286
  H 4.129830 0.699371 4.161210
  H 2.972694 1.886737 4.747955
  H 4.130676 2.337455 3.503275
  H 2.330079 -0.646602 -1.559074
  H 5.021778 -0.088955 -0.172317
  H 5.135262 -2.364664 -3.525340
  H 5.134731 -0.762177 -4.168463
  H 2.677317 -0.570602 -3.755973
  H 2.678136 -2.219823 -3.094279
  H 6.542367 -0.420602 -0.997274
 29
 60.358579
  C 0.922181 0.160301 0.461464
  C 2.402544 0.138927 0.404296
  C 3.232679 0.601388 1.548401
  C 2.503281 1.103657 2.793791
  C 3.506452 1.535427 3.860001
  C 2.979045 -0.329665 -0.760776
  C 4.504455 -0.439171 -1.031318
  C 4.997534 -0.882416 -2.142213
  C 4.671891 -1.413865 -3.479033
  C 3.184161 -1.543073 -3.810847
  H 3.079843 -1.942092 -4.814952
  O 6.180153 -0.731592 -1.759259
  H 0.534416 0.538023 1.398679
  H 0.532480 -0.845004 0.295122
  H 0.530345 0.767619 -0.355722
  H 3.889409 1.404690 1.194326
  H 3.890938 -0.221629 1.850941
  H 1.872046 0.315017 3.206899
  H 1.870553 1.957017 2.543610
  H 4.141702 0.703615 4.156907
  H 2.987030 1.892964 4.745910
  H 4.140119 2.340969 3.495163
  H 2.335925 -0.645297 -1.547454
  H 5.023867 -0.092183 -0.160605
  H 5.172312 -2.392063 -3.562253
  H 5.175496 -0.761853 -4.210997
  H 2.690430 -0.578056 -3.783918
  H 2.687388 -2.224614 -3.129433
  H 6.436192 -0.390917 -0.894873
 29
 119.073459
  C 0.870617 0.172055 0.505941
  C 2.353863 0.146800 0.415922
  C 3.209271 0.607513 1.547159
  C 2.509576 1.108274 2.805631
  C 3.537068 1.534762 3.851726
  C 2.906500 -0.319068 -0.747808
  C 4.606158 -0.451316 -1.055527
  C 4.981872 -0.903517 -2.184526
  C 4.707236 -1.428084 -3.510806
  C 3.227193 -1.558863 -3.863071
  H 3.136998 -1.956580 -4.867486
  O 6.150402 -0.719197 -1.713747
  H 0.503031 0.551516 1.453984
  H 0.476261 -0.828781 0.349357
  H 0.466159 0.779893 -0.299149
  H 3.857593 1.410525 1.185463
  H 3.867271 -0.216074 1.839216
  H 1.884116 0.321773 3.233104
  H 1.873367 1.963639 2.568681
  H 4.175084 0.700868 4.134703
  H 3.037377 1.892936 4.748356
  H 4.165597 2.338763 3.474806
  H 2.269234 -0.634468 -1.547253
  H 5.012617 -0.093780 -0.140570
  H 5.213197 -2.406326 -3.578832
  H 5.223476 -0.768694 -4.229366
  H 2.733090 -0.594381 -3.838761
  H 2.723016 -2.239340 -3.186619
  H 6.434153 -0.391980 -0.861663
 29
 147.039967
  C 0.733430 0.204866 0.593238
  C 2.252822 0.146865 0.414357
  C 3.169874 0.600251 1.523485
  C 2.508990 1.106101 2.805914
  C 3.576016 1.527226 3.823316
  C 2.671321 -0.309452 -0.731578
  C 4.781189 -0.469339 -1.093540
  C 5.025819 -0.927299 -2.240587
  C 4.779638 -1.447104 -3.558997
  C 3.288753 -1.567708 -3.894455
  H 3.182398 -1.964114 -4.898031
  O 6.295391 -0.710311 -1.678621
  H 0.481618 0.593038 1.562772
  H 0.304464 -0.787532 0.495881
  H 0.290639 0.845897 -0.161451
  H 3.783404 1.409066 1.131184
  H 3.800938 -0.244103 1.794382
  H 1.891986 0.316343 3.250581
  H 1.871647 1.972047 2.591123
  H 4.220081 0.687268 4.083835
  H 3.106954 1.888336 4.738050
  H 4.196008 2.329599 3.424580
  H 2.133484 -0.648123 -1.592202
  H 4.995870 -0.083815 -0.111103
  H 5.272036 -2.428297 -3.625571
  H 5.285761 -0.785331 -4.276364
  H 2.805346 -0.601560 -3.858353
  H 2.791897 -2.240527 -3.209698
  H 6.658715 -0.400125 -0.834879
 29
 158.455014
  C 0.567955 0.233824 0.705357
  C 2.067885 0.176518 0.439229
  C 3.049643 0.630019 1.505297
  C 2.477902 1.115736 2.832244
  C 3.613712 1.511996 3.779680
  C 2.458484 -0.282535 -0.716534
  C 5.017596 -0.501061 -1.136184
  C 5.149461 -0.965507 -2.305153
  C 4.867733 -1.474816 -3.612251
  C 3.366771 -1.558311 -3.898280
  H 3.217570 -1.951614 -4.899746
  O 6.491623 -0.762796 -1.721374
  H 0.372920 0.630654 1.691893
  H 0.136065 -0.761093 0.647787
  H 0.086785 0.890900 -0.013738
  H 3.662182 1.424557 1.094365
  H 3.691745 -0.216360 1.736288
  H 1.888990 0.321976 3.305345
  H 1.844069 1.992269 2.674207
  H 4.262845 0.665301 3.981001
  H 3.211575 1.861871 4.726530
  H 4.210388 2.313751 3.353259
  H 1.934049 -0.623846 -1.584179
  H 5.100640 -0.112065 -0.146052
  H 5.344332 -2.460074 -3.698418
  H 5.379248 -0.833589 -4.342534
  H 2.909909 -0.580333 -3.840819
  H 2.877553 -2.216285 -3.193703
  H 6.930976 -0.458092 -0.905216
 29
 159.737642
  C 0.412630 0.254679 0.849104
  C 1.897822 0.179460 0.496604
  C 2.945536 0.615183 1.511442
  C 2.445096 1.106221 2.868589
  C 3.617869 1.484646 3.769611
  C 2.245268 -0.268956 -0.673627
  C 5.224013 -0.493649 -1.213334
  C 5.290137 -0.958464 -2.392159
  C 4.970776 -1.466922 -3.688089
  C 3.464112 -1.555193 -3.920026
  H 3.278196 -1.947740 -4.915880
  O 6.666100 -0.745825 -1.839377
  H 0.276886 0.649088 1.850436
  H -0.035259 -0.733620 0.812103
  H -0.098297 0.927263 0.165041
  H 3.542905 1.411768 1.063994
  H 3.586788 -0.247144 1.703905
  H 1.867091 0.321826 3.361507
  H 1.805181 1.983066 2.746635
  H 4.267047 0.628042 3.940206
  H 3.255845 1.832241 4.735355
  H 4.203159 2.286646 3.323854
  H 1.700748 -0.606729 -1.527369
  H 5.270643 -0.115035 -0.211769
  H 5.455359 -2.446686 -3.809877
  H 5.459939 -0.838352 -4.444597
  H 3.004918 -0.572159 -3.838964
  H 3.002035 -2.215654 -3.191063
  H 7.180810 -0.447920 -1.061721
 29
 157.453850
  C 0.270541 0.347529 0.921662
  C 1.730821 0.207406 0.493978
  C 2.844342 0.566031 1.466202
  C 2.432888 1.078934 2.845822
  C 3.660808 1.389081 3.691208
  C 2.018861 -0.229643 -0.694624
  C 5.464608 -0.410730 -1.285509
  C 5.405378 -0.929654 -2.424167
  C 5.047453 -1.496512 -3.674901
  C 3.524837 -1.567936 -3.761584
  H 3.249099 -2.005780 -4.715839
  O 6.866454 -0.638555 -1.908245
  H 0.188104 0.720692 1.937713
  H -0.225760 -0.617090 0.862357
  H -0.243170 1.035385 0.256320
  H 3.464193 1.333785 0.990714
  H 3.455545 -0.333144 1.611259
  H 1.827941 0.331884 3.364497
  H 1.841802 1.988990 2.747712
  H 4.263917 0.498224 3.835590
  H 3.362682 1.756858 4.669451
  H 4.272148 2.153256 3.215573
  H 1.470464 -0.567814 -1.547181
  H 5.369900 -0.121760 -0.267754
  H 5.494535 -2.496538 -3.763836
  H 5.460758 -0.888741 -4.492881
  H 3.087083 -0.574878 -3.692219
  H 3.120698 -2.185564 -2.963542
  H 7.464149 -0.321606 -1.200329
 29
 154.148349
  C 0.269144 0.332496 0.921885
  C 1.719583 0.186854 0.467575
  C 2.851241 0.547540 1.419647
  C 2.468644 1.065488 2.803087
  C 3.719255 1.378599 3.620988
  C 1.985651 -0.245699 -0.728875
  C 5.456105 -0.400579 -1.235629
  C 5.336429 -0.936920 -2.381325
  C 5.048430 -1.482985 -3.648030
  C 3.510142 -1.541616 -3.741398
  H 3.252965 -1.966130 -4.708457
  O 6.858133 -0.577986 -1.740528
  H 0.204002 0.704828 1.936717
  H -0.231543 -0.632310 0.870218
  H -0.255548 1.020868 0.262352
  H 3.461050 1.312550 0.931830
  H 3.465749 -0.346496 1.555670
  H 1.879919 0.317037 3.338273
  H 1.872062 1.976086 2.714402
  H 4.326626 0.485893 3.753457
  H 3.443845 1.747857 4.606275
  H 4.319865 2.141443 3.130359
  H 1.442036 -0.565866 -1.586533
  H 5.224668 -0.143083 -0.231440
  H 5.479496 -2.488695 -3.734343
  H 5.464317 -0.855656 -4.447339
  H 3.080019 -0.544160 -3.665084
  H 3.091232 -2.168641 -2.955498
  H 7.447561 -0.298606 -1.010809
