 14
 0.000000
  C 0.968186 0.138208 0.387715
  C 2.424893 0.111595 0.329339
  H 2.992981 0.453722 1.182108
  C 3.091760 -0.337281 -0.788711
  C 4.486725 -0.374320 -0.883373
  C 5.144821 -0.825664 -2.013196
  H 4.603772 -1.172833 -2.885923
  O 6.425519 -0.886388 -2.162560
  H 0.581998 0.521773 1.325305
  H 0.575636 -0.866760 0.217112
  H 0.575685 0.733903 -0.440630
  H 2.511349 -0.676422 -1.635818
  H 5.072892 -0.037822 -0.037240
  H 6.951249 -0.579660 -1.394848
 14
 0.393650
  C 0.972476 0.078768 0.410457
  C 2.417984 0.197496 0.279011
  H 2.985023 0.572988 1.119762
  C 3.095524 -0.196951 -0.854138
  C 4.488477 -0.303163 -0.901222
  C 5.146850 -0.789900 -2.016787
  H 4.598166 -1.009534 -2.927107
  O 6.412568 -1.021486 -2.112980
  H 0.599086 0.502589 1.336171
  H 0.708007 -0.984121 0.367621
  H 0.459076 0.519278 -0.446213
  H 2.528950 -0.484569 -1.729320
  H 5.057944 -0.052724 -0.015686
  H 6.938839 -0.826532 -1.308911
 14
 2.130450
  C 0.986929 0.022562 0.434157
  C 2.403121 0.297912 0.236467
  H 2.958588 0.745662 1.049651
  C 3.085290 -0.062125 -0.908536
  C 4.468338 -0.255011 -0.921309
  C 5.137142 -0.737682 -2.032282
  H 4.627192 -0.826520 -2.987041
  O 6.371482 -1.112670 -2.074102
  H 0.600534 0.447528 1.359572
  H 0.872595 -1.068993 0.469628
  H 0.385647 0.339213 -0.418621
  H 2.526906 -0.279101 -1.805978
  H 5.012754 -0.118315 0.003146
  H 6.862058 -1.037324 -1.229082
 14
 5.333869
  C 1.039855 -0.060482 0.456497
  C 2.399144 0.394388 0.201311
  H 2.922076 0.931299 0.982807
  C 3.095100 0.051314 -0.945892
  C 4.456466 -0.246996 -0.924023
  C 5.129091 -0.732379 -2.029695
  H 4.656823 -0.733339 -3.007267
  O 6.325722 -1.218087 -2.039113
  H 0.641977 0.307497 1.395340
  H 1.094617 -1.154852 0.483525
  H 0.359968 0.172363 -0.364141
  H 2.546718 -0.100783 -1.867973
  H 4.974981 -0.200721 0.025235
  H 6.781321 -1.223445 -1.171359
 14
 9.925324
  C 1.087504 -0.125964 0.494275
  C 2.385737 0.453398 0.170336
  H 2.859661 1.104834 0.895245
  C 3.095117 0.118741 -0.976060
  C 4.426806 -0.270212 -0.932590
  C 5.128808 -0.696567 -2.043273
  H 4.709814 -0.589954 -3.038509
  O 6.295790 -1.253453 -2.036548
  H 0.692465 0.229538 1.438892
  H 1.257753 -1.206206 0.546665
  H 0.351039 0.015331 -0.299802
  H 2.569433 0.071673 -1.922878
  H 4.896273 -0.343109 0.040412
  H 6.700109 -1.356316 -1.150309
 14
 15.899049
  C 1.158304 -0.199758 0.535193
  C 2.366444 0.517208 0.147519
  H 2.767290 1.270166 0.815816
  C 3.099886 0.197011 -1.000051
  C 4.393179 -0.290150 -0.944452
  C 5.114330 -0.678879 -2.055803
  H 4.739273 -0.489930 -3.055217
  O 6.251300 -1.297972 -2.043455
  H 0.757075 0.136204 1.485018
  H 1.445793 -1.253199 0.596786
  H 0.378213 -0.154573 -0.230504
  H 2.605845 0.261740 -1.962927
  H 4.826111 -0.450586 0.034673
  H 6.613650 -1.473917 -1.151325
 14
 22.478732
  C 1.222129 -0.246810 0.580427
  C 2.360771 0.550875 0.147908
  H 2.654876 1.420771 0.725228
  C 3.117822 0.224503 -1.000650
  C 4.370281 -0.340846 -0.948623
  C 5.102551 -0.677975 -2.075161
  H 4.737995 -0.438224 -3.065100
  O 6.236105 -1.300678 -2.082498
  H 0.807791 0.088969 1.522617
  H 1.566637 -1.280745 0.658141
  H 0.428819 -0.267922 -0.173332
  H 2.662021 0.400538 -1.969139
  H 4.774524 -0.585830 0.024906
  H 6.585715 -1.529640 -1.194887
 14
 29.943083
  C 1.307119 -0.301786 0.625451
  C 2.313767 0.613353 0.109723
  H 2.501204 1.548917 0.620131
  C 3.132128 0.290742 -1.023396
  C 4.320030 -0.383591 -0.956756
  C 5.066102 -0.696948 -2.091350
  H 4.731736 -0.389313 -3.075530
  O 6.178953 -1.356196 -2.105820
  H 0.868041 0.045321 1.554299
  H 1.725166 -1.305502 0.739494
  H 0.509986 -0.435251 -0.115026
  H 2.754319 0.591072 -1.998215
  H 4.693805 -0.686789 0.012694
  H 6.502553 -1.639954 -1.225968
 14
 20.198604
  C 1.418767 -0.327835 0.682048
  C 2.295727 0.653152 0.060478
  H 2.322003 1.660302 0.459441
  C 3.148581 0.350159 -1.019508
  C 4.280670 -0.440331 -0.956544
  C 5.036038 -0.698740 -2.085978
  H 4.726801 -0.326553 -3.055813
  O 6.142773 -1.372642 -2.125315
  H 0.956961 0.041345 1.591849
  H 1.906352 -1.292168 0.844751
  H 0.630942 -0.574333 -0.039264
  H 2.890931 0.796360 -1.977128
  H 4.597358 -0.822097 0.003706
  H 6.444115 -1.718167 -1.259691
 14
 11.516708
  C 1.492964 -0.347211 0.725443
  C 2.250054 0.665525 -0.001363
  H 2.116537 1.705068 0.281835
  C 3.150910 0.391696 -1.020630
  C 4.231461 -0.486051 -0.970682
  C 5.011160 -0.698191 -2.087677
  H 4.737941 -0.264122 -3.042032
  O 6.099986 -1.402636 -2.140534
  H 1.014784 0.046368 1.616892
  H 2.068205 -1.252622 0.935310
  H 0.706288 -0.712061 0.048473
  H 3.026884 0.971920 -1.933767
  H 4.492550 -0.940560 -0.026068
  H 6.370966 -1.804521 -1.292999
 14
 6.877482
  C 1.619418 -0.372975 0.723688
  C 2.235332 0.711635 -0.026305
  H 1.924745 1.727747 0.178102
  C 3.181673 0.489341 -1.010049
  C 4.206053 -0.459519 -0.957322
  C 4.978249 -0.716981 -2.071861
  H 4.729679 -0.273964 -3.030107
  O 6.016345 -1.486585 -2.121120
  H 1.136784 -0.043273 1.637191
  H 2.317214 -1.194300 0.873027
  H 0.844293 -0.815126 0.085824
  H 3.127256 1.110376 -1.897975
  H 4.436418 -0.937767 -0.016293
  H 6.265824 -1.900264 -1.269561
 14
 7.444541
  C 1.735371 -0.414349 0.689723
  C 2.190980 0.733294 -0.083035
  H 1.790423 1.712732 0.135413
  C 3.181182 0.583814 -1.031008
  C 4.181089 -0.395101 -0.954006
  C 4.966522 -0.738696 -2.036281
  H 4.760532 -0.329863 -3.020207
  O 5.940430 -1.590203 -2.031319
  H 1.345666 -0.155449 1.667534
  H 2.515391 -1.176223 0.680988
  H 0.922617 -0.894766 0.131241
  H 3.146551 1.207629 -1.916173
  H 4.451534 -0.773736 0.022989
  H 6.136512 -1.991833 -1.159641
