 17
 0.000000
  H 1.432708 -0.076025 0.038811
  C 2.505009 -0.083656 0.023832
  C 3.217396 -0.595317 -0.980648
  C 4.655472 -0.606060 -1.001736
  C 5.380094 -1.120140 -2.010960
  C 6.818550 -1.129814 -2.029950
  C 7.535217 -1.641525 -3.034531
  C 9.024399 -1.662291 -3.075288
  H 3.004143 0.351246 0.877618
  H 2.702941 -1.028207 -1.830471
  H 5.157766 -0.170842 -0.147336
  H 4.878203 -1.555469 -2.865583
  H 7.328534 -0.695948 -1.178196
  H 7.035110 -2.077273 -3.889960
  H 9.458842 -1.209516 -2.186421
  H 9.382811 -1.117278 -3.949528
  H 9.382809 -2.689895 -3.148466
 17
 2.708547
  H 1.451194 -0.103899 -0.015907
  C 2.525484 -0.080332 0.030358
  C 3.277811 -0.569988 -0.930921
  C 4.708962 -0.596433 -0.982837
  C 5.340383 -1.135250 -2.040626
  C 6.769500 -1.162753 -2.094616
  C 7.524999 -1.653296 -3.057631
  C 9.009944 -1.650042 -3.051233
  H 2.960368 0.365927 0.906438
  H 2.887338 -1.018069 -1.810571
  H 5.272268 -0.175759 -0.156984
  H 4.774984 -1.555559 -2.865758
  H 7.163187 -0.715281 -1.216148
  H 7.057807 -2.095626 -3.925989
  H 9.393915 -1.188536 -2.145222
  H 9.390755 -1.103688 -3.914577
  H 9.390740 -2.669594 -3.116915
 17
 2.872124
  H 1.450816 -0.084525 0.064111
  C 2.513754 0.046965 -0.041184
  C 3.233442 -0.665824 -0.905370
  C 4.661928 -0.575351 -1.035486
  C 5.363693 -1.240332 -1.966205
  C 6.806277 -1.281336 -1.994296
  C 7.542907 -1.524150 -3.077825
  C 9.027712 -1.627842 -3.086204
  H 2.969619 0.793743 0.588013
  H 2.759689 -1.420004 -1.519232
  H 5.175903 0.076954 -0.338472
  H 4.839655 -1.815528 -2.717049
  H 7.265758 -1.205609 -1.017381
  H 7.059615 -1.614058 -4.041863
  H 9.432374 -1.538827 -2.079829
  H 9.457824 -0.845673 -3.713038
  H 9.335342 -2.585629 -3.505569
 17
 4.980317
  H 1.475367 0.143442 -0.079456
  C 2.546760 0.199996 -0.164308
  C 3.243083 -0.655996 -0.906196
  C 4.680367 -0.634966 -1.027774
  C 5.363336 -1.457338 -1.830266
  C 6.820004 -1.501347 -1.908376
  C 7.512004 -1.452913 -3.039980
  C 8.999127 -1.509978 -3.127611
  H 3.029762 0.995991 0.379497
  H 2.738891 -1.455865 -1.435030
  H 5.210738 0.075618 -0.406730
  H 4.823748 -2.146245 -2.470744
  H 7.332494 -1.652998 -0.965160
  H 6.991955 -1.324234 -3.980253
  H 9.442847 -1.667488 -2.147849
  H 9.388762 -0.581224 -3.544874
  H 9.306645 -2.320148 -3.789357
 17
 8.043891
  H 1.490746 0.068716 0.011897
  C 2.538098 0.218694 -0.181826
  C 3.262821 -0.660079 -0.865336
  C 4.679132 -0.540084 -1.118623
  C 5.352344 -1.453293 -1.823459
  C 6.813543 -1.525400 -1.938688
  C 7.528161 -1.358547 -3.039333
  C 9.007366 -1.527085 -3.123519
  H 2.973847 1.127305 0.206820
  H 2.824576 -1.577747 -1.232843
  H 5.204635 0.271480 -0.631969
  H 4.803093 -2.233879 -2.341570
  H 7.254431 -1.932318 -1.036554
  H 7.044314 -1.017904 -3.943470
  H 9.411176 -1.898914 -2.185902
  H 9.484198 -0.574142 -3.359848
  H 9.260226 -2.226931 -3.919699
 17
 11.871252
  H 1.517344 -0.043772 0.157118
  C 2.534066 0.175439 -0.116158
  C 3.278130 -0.677430 -0.823455
  C 4.661742 -0.477726 -1.198483
  C 5.333159 -1.433198 -1.849231
  C 6.791375 -1.505990 -1.975242
  C 7.547021 -1.327976 -3.040598
  C 9.017729 -1.586827 -3.094530
  H 2.909127 1.146974 0.168148
  H 2.906994 -1.652218 -1.119977
  H 5.178046 0.375546 -0.786448
  H 4.781146 -2.232915 -2.337839
  H 7.142003 -2.014033 -1.077035
  H 7.114927 -0.897878 -3.931347
  H 9.372343 -2.017336 -2.158802
  H 9.558372 -0.661011 -3.283804
  H 9.248436 -2.273464 -3.912889
 17
 25.647412
  H 1.481944 -0.234027 0.165083
  C 2.474864 0.095997 -0.095840
  C 3.325741 -0.685312 -0.752458
  C 4.669111 -0.366091 -1.155298
  C 5.363448 -1.318000 -1.788561
  C 6.805705 -1.324640 -2.063994
  C 7.590503 -1.313860 -3.115835
  C 9.033870 -1.685858 -3.099117
  H 2.761277 1.080761 0.237014
  H 3.072853 -1.684769 -1.074598
  H 5.123949 0.548001 -0.822001
  H 4.811965 -2.082058 -2.320130
  H 6.951977 -1.868621 -1.114904
  H 7.217012 -0.929048 -4.063547
  H 9.310387 -2.129521 -2.148795
  H 9.655869 -0.806934 -3.272353
  H 9.241485 -2.399834 -3.895239
 17
 58.977388
  H 1.589146 -0.188811 0.323940
  C 2.569132 0.113213 -0.000210
  C 3.358763 -0.695606 -0.703581
  C 4.656476 -0.401111 -1.197781
  C 5.326608 -1.383092 -1.835478
  C 6.711775 -1.343291 -2.300114
  C 7.634932 -1.264558 -3.215572
  C 9.066309 -1.669951 -3.045172
  H 2.885749 1.106150 0.272016
  H 3.035614 -1.693590 -0.963197
  H 5.131547 0.535824 -0.950590
  H 4.727772 -2.171309 -2.281054
  H 6.497041 -1.922611 -1.257809
  H 7.405313 -0.814251 -4.178814
  H 9.229995 -2.142532 -2.079777
  H 9.712033 -0.796033 -3.122704
  H 9.350282 -2.366289 -3.832962
 17
 78.916897
  H 1.664112 -0.030743 0.405728
  C 2.660992 0.186392 0.061315
  C 3.359226 -0.686943 -0.686335
  C 4.651081 -0.464267 -1.204313
  C 5.355327 -1.478224 -1.900584
  C 6.664833 -1.376086 -2.466266
  C 7.651859 -1.280307 -3.296516
  C 9.087034 -1.634129 -3.012885
  H 3.069660 1.148406 0.327101
  H 2.899492 -1.638896 -0.936667
  H 5.164550 0.453234 -0.953881
  H 4.729944 -2.240663 -2.365309
  H 6.079923 -2.033621 -1.177029
  H 7.492898 -0.859499 -4.293742
  H 9.194959 -2.086102 -2.029712
  H 9.704635 -0.737575 -3.058195
  H 9.453550 -2.330862 -3.765960
 17
 76.426946
  H 1.679316 0.082923 0.356984
  C 2.687715 0.257166 0.028423
  C 3.375400 -0.667874 -0.680657
  C 4.665444 -0.486431 -1.186479
  C 5.395188 -1.551516 -1.863106
  C 6.671469 -1.420954 -2.465804
  C 7.647606 -1.302128 -3.301445
  C 9.093431 -1.626525 -3.027978
  H 3.121593 1.212441 0.268497
  H 2.879919 -1.609064 -0.908154
  H 5.186974 0.433355 -0.971351
  H 4.756043 -2.287453 -2.359289
  H 5.864794 -2.119849 -1.018524
  H 7.479764 -0.885340 -4.300710
  H 9.215038 -2.075403 -2.045878
  H 9.692603 -0.718185 -3.077375
  H 9.467380 -2.316391 -3.783090
 17
 74.098752
  H 1.736926 0.140252 0.369392
  C 2.742287 0.290017 0.018260
  C 3.418450 -0.683591 -0.647454
  C 4.679809 -0.527298 -1.203691
  C 5.403069 -1.646552 -1.840628
  C 6.653538 -1.469278 -2.485036
  C 7.636348 -1.290745 -3.298535
  C 9.089001 -1.577493 -3.008295
  H 3.183836 1.257334 0.191186
  H 2.911201 -1.632918 -0.802901
  H 5.203171 0.404700 -1.067747
  H 4.735132 -2.256566 -2.456263
  H 5.649723 -2.284007 -0.972571
  H 7.476825 -0.871018 -4.297847
  H 9.207780 -2.030221 -2.027349
  H 9.662449 -0.652079 -3.042795
  H 9.490133 -2.251765 -3.763664
 17
 74.007513
  H 1.738597 0.139134 0.371974
  C 2.742384 0.289480 0.019303
  C 3.418228 -0.683549 -0.646001
  C 4.680326 -0.526685 -1.204912
  C 5.403046 -1.646504 -1.842214
  C 6.652791 -1.469512 -2.486497
  C 7.636401 -1.290938 -3.298987
  C 9.088996 -1.577430 -3.007119
  H 3.182667 1.256265 0.190319
  H 2.912316 -1.632522 -0.799261
  H 5.204246 0.407536 -1.070651
  H 4.733773 -2.256160 -2.459636
  H 5.647911 -2.284894 -0.974489
  H 7.477893 -0.871951 -4.298509
  H 9.206853 -2.029208 -2.025939
  H 9.662407 -0.652034 -3.041853
  H 9.490842 -2.252256 -3.761465
