 20
 0.000000
  H 1.530430 0.189248 0.521968
  C 2.606408 0.150993 0.426431
  C 3.374040 0.631159 1.621464
  C 2.456300 1.084986 2.751336
  C 3.246461 1.570821 3.960564
  C 3.132460 -0.306621 -0.712929
  C 4.545504 -0.411093 -0.973407
  C 5.070535 -0.868548 -2.113301
  H 4.483496 -1.205592 -2.953064
  O 6.404692 -0.967904 -2.361073
  H 4.026918 1.461312 1.334090
  H 4.027080 -0.166956 1.988237
  H 1.814050 0.253760 3.051464
  H 1.813940 1.892736 2.393052
  H 3.880257 0.775557 4.348083
  H 2.574920 1.889541 4.754156
  H 3.880149 2.413260 3.690201
  H 2.464081 -0.623228 -1.501064
  H 5.216432 -0.094659 -0.185212
  H 6.878586 -0.653433 -1.577301
 20
 1.392492
  H 1.541896 0.350104 0.439724
  C 2.620316 0.325344 0.361587
  C 3.356011 0.883280 1.541957
  C 2.477015 0.949277 2.789619
  C 3.238252 1.501923 3.988376
  C 3.167634 -0.112049 -0.774398
  C 4.579135 -0.290262 -1.008690
  C 5.058998 -0.967481 -2.054340
  H 4.437695 -1.295493 -2.875122
  O 6.359937 -1.299735 -2.243240
  H 3.708124 1.892193 1.299645
  H 4.239147 0.277109 1.760382
  H 2.109093 -0.052686 3.022991
  H 1.610669 1.583516 2.587609
  H 4.097397 0.874658 4.218728
  H 2.596909 1.538747 4.866110
  H 3.595858 2.509040 3.782528
  H 2.517676 -0.460660 -1.566170
  H 5.262743 0.050895 -0.241616
  H 6.827547 -1.230370 -1.402032
 20
 6.839512
  H 1.562588 0.311941 0.431353
  C 2.642379 0.337698 0.342046
  C 3.345963 0.960085 1.511700
  C 2.515187 0.883653 2.792353
  C 3.254771 1.479471 3.981263
  C 3.180218 0.028984 -0.839436
  C 4.590959 -0.139586 -1.092227
  C 5.054757 -0.969523 -2.028876
  H 4.459775 -1.297781 -2.870073
  O 6.318968 -1.473499 -2.056965
  H 3.544141 2.009056 1.278453
  H 4.311509 0.480032 1.685213
  H 2.271043 -0.164945 3.001814
  H 1.576743 1.419821 2.646129
  H 4.195624 0.956832 4.148458
  H 2.653121 1.400628 4.886762
  H 3.474435 2.530312 3.805991
  H 2.522485 -0.326595 -1.623698
  H 5.276384 0.208594 -0.325489
  H 6.612973 -1.593495 -1.145383
 20
 16.443964
  H 1.597140 0.369025 0.389210
  C 2.677668 0.432106 0.285726
  C 3.367880 1.026069 1.477106
  C 2.626547 0.739431 2.782012
  C 3.246183 1.482970 3.960060
  C 3.197708 0.204783 -0.923049
  C 4.603055 -0.016030 -1.170913
  C 5.059299 -0.966101 -1.995832
  H 4.544005 -1.276879 -2.894816
  O 6.209622 -1.672941 -1.740242
  H 3.427627 2.109398 1.333218
  H 4.390357 0.655794 1.564111
  H 2.649424 -0.336390 2.979137
  H 1.580869 1.033214 2.676649
  H 4.284788 1.187678 4.096749
  H 2.707924 1.261218 4.878764
  H 3.214571 2.555990 3.791649
  H 2.519641 -0.098033 -1.712912
  H 5.276065 0.306520 -0.382263
  H 6.129561 -1.939526 -0.823498
 20
 29.519777
  H 1.649026 0.271466 0.346435
  C 2.717971 0.375546 0.232811
  C 3.375551 1.015101 1.425690
  C 2.635537 0.727123 2.728560
  C 3.320791 1.387758 3.926157
  C 3.194633 0.303399 -1.007321
  C 4.598020 0.149097 -1.280915
  C 5.051571 -0.963166 -1.896572
  H 4.619077 -1.353785 -2.813184
  O 6.041574 -1.737794 -1.344741
  H 3.390788 2.095419 1.244370
  H 4.414697 0.693954 1.542798
  H 2.583804 -0.360292 2.877259
  H 1.616202 1.102090 2.661361
  H 4.339119 1.025484 4.048298
  H 2.775463 1.178476 4.843830
  H 3.356324 2.466192 3.785912
  H 2.524546 -0.009397 -1.796039
  H 5.251684 0.524486 -0.486503
  H 5.781049 -1.814883 -0.424751
 20
 45.710212
  H 1.704962 0.339374 0.266880
  C 2.778709 0.471703 0.169826
  C 3.412291 1.103271 1.372225
  C 2.730862 0.662197 2.669089
  C 3.330997 1.353079 3.889644
  C 3.271903 0.398954 -1.074641
  C 4.683410 0.209794 -1.304576
  C 5.067982 -0.994738 -1.812292
  H 4.713106 -1.402089 -2.754763
  O 5.707401 -1.862451 -0.973273
  H 3.339252 2.192652 1.281034
  H 4.475112 0.855308 1.437577
  H 2.854585 -0.421387 2.782858
  H 1.662153 0.865619 2.611726
  H 4.401036 1.162308 3.956429
  H 2.850782 1.007354 4.799862
  H 3.181228 2.430925 3.825466
  H 2.611496 0.052948 -1.854489
  H 5.289199 0.503543 -0.443347
  H 5.093775 -1.842905 -0.220925
 20
 64.388628
  H 1.809518 0.168194 0.218779
  C 2.878737 0.354279 0.123413
  C 3.445511 1.061304 1.327088
  C 2.747073 0.632934 2.615063
  C 3.370209 1.291809 3.839673
  C 3.308627 0.451831 -1.149514
  C 4.733139 0.292991 -1.384406
  C 5.038679 -1.018928 -1.681419
  H 4.795209 -1.532750 -2.603989
  O 5.427865 -1.773982 -0.615002
  H 3.311179 2.142435 1.191855
  H 4.521779 0.883204 1.432638
  H 2.804564 -0.458832 2.719451
  H 1.691213 0.906540 2.554118
  H 4.418891 1.020428 3.934306
  H 2.855686 0.979780 4.747130
  H 3.304314 2.375617 3.758131
  H 2.630927 0.164628 -1.952275
  H 5.340074 0.680653 -0.564116
  H 4.718368 -1.540528 0.046058
 20
 82.348469
  H 1.925456 0.073442 0.147072
  C 2.979113 0.314735 0.048029
  C 3.508589 1.049494 1.262242
  C 2.861335 0.529610 2.546127
  C 3.391842 1.256297 3.776831
  C 3.424164 0.451819 -1.261467
  C 4.839009 0.347629 -1.376923
  C 4.990719 -1.058757 -1.478073
  H 4.796815 -1.662523 -2.355343
  O 4.937000 -1.581650 -0.290059
  H 3.287893 2.118277 1.160798
  H 4.592083 0.955095 1.359640
  H 3.061396 -0.540545 2.641990
  H 1.778606 0.661213 2.486762
  H 4.467020 1.115819 3.869398
  H 2.918293 0.876565 4.679142
  H 3.190980 2.323423 3.706529
  H 2.805562 0.075782 -2.066814
  H 5.369443 0.749593 -0.511573
  H 4.005152 -0.994218 0.197550
 20
 57.536310
  H 1.950442 -0.011816 0.176125
  C 3.009985 0.207170 0.103495
  C 3.509963 1.020624 1.297538
  C 2.879506 0.523651 2.596562
  C 3.361562 1.327290 3.797870
  C 3.513176 0.424956 -1.261505
  C 4.892385 0.324791 -1.349547
  C 5.004185 -1.102647 -1.579770
  H 4.789730 -1.582932 -2.537464
  O 4.986151 -1.719298 -0.515533
  H 3.253655 2.075645 1.158142
  H 4.594864 0.961974 1.390753
  H 3.134222 -0.529212 2.738540
  H 1.791666 0.596324 2.525003
  H 4.436390 1.222902 3.920761
  H 2.877502 0.981008 4.707536
  H 3.133096 2.382483 3.668260
  H 2.916799 0.080886 -2.097321
  H 5.439859 0.659040 -0.474590
  H 3.626707 -0.794616 0.247370
 20
 39.780168
  H 1.962782 -0.096365 0.263915
  C 3.038729 0.070045 0.233708
  C 3.497305 0.965375 1.381870
  C 2.792213 0.601508 2.686391
  C 3.295154 1.445468 3.849910
  C 3.563584 0.336162 -1.134569
  C 4.912680 0.251793 -1.327099
  C 5.092511 -1.070992 -1.915745
  H 4.849971 -1.271744 -2.968993
  O 5.288235 -1.942760 -1.095758
  H 3.280733 2.011928 1.138548
  H 4.576774 0.874576 1.525616
  H 2.960473 -0.454372 2.902981
  H 1.718322 0.751876 2.570367
  H 4.357754 1.281474 4.008642
  H 2.768513 1.188847 4.763928
  H 3.138476 2.501638 3.650469
  H 2.923616 0.055357 -1.964887
  H 5.550775 0.467403 -0.478083
  H 3.522829 -0.927902 0.357981
 20
 26.269302
  H 1.897304 -0.011121 0.295981
  C 2.984168 0.001317 0.304557
  C 3.508745 0.892047 1.421517
  C 2.758837 0.640293 2.728432
  C 3.270905 1.534732 3.850090
  C 3.552972 0.209193 -1.064006
  C 4.890132 0.146759 -1.276419
  C 5.209147 -1.017395 -2.104351
  H 4.922650 -1.045306 -3.160123
  O 5.608561 -1.982090 -1.500819
  H 3.397845 1.933216 1.133228
  H 4.572493 0.704905 1.583914
  H 2.879371 -0.405908 3.020941
  H 1.696033 0.818236 2.571686
  H 4.328112 1.357100 4.034715
  H 2.729094 1.337110 4.772377
  H 3.141418 2.582000 3.587189
  H 2.888517 0.032035 -1.901306
  H 5.556427 0.315231 -0.437723
  H 3.323910 -1.019797 0.475798
 20
 15.515609
  H 1.863429 0.038675 0.266039
  C 2.949313 -0.045742 0.339315
  C 3.473677 0.888557 1.427988
  C 2.735935 0.680121 2.748812
  C 3.275994 1.591036 3.845319
  C 3.592755 0.079663 -1.000629
  C 4.914756 -0.032092 -1.178614
  C 5.298256 -0.964220 -2.237636
  H 4.970940 -0.752664 -3.268957
  O 5.774947 -2.019096 -1.908737
  H 3.348409 1.924734 1.101364
  H 4.537806 0.715100 1.584724
  H 2.840322 -0.363752 3.059130
  H 1.671385 0.878255 2.605174
  H 4.317576 1.361394 4.051945
  H 2.706425 1.462898 4.764739
  H 3.209449 2.633875 3.543151
  H 2.943433 -0.041062 -1.860757
  H 5.586892 0.038801 -0.336108
  H 3.182333 -1.082947 0.597561
 20
 7.266864
  H 1.826744 0.039606 0.271353
  C 2.899828 -0.127675 0.378462
  C 3.471985 0.830524 1.423946
  C 2.684923 0.768611 2.731077
  C 3.316740 1.637768 3.811404
  C 3.578195 -0.086403 -0.951608
  C 4.899988 -0.189053 -1.120606
  C 5.384197 -0.874885 -2.319960
  H 4.978331 -0.525664 -3.288330
  O 6.063734 -1.866609 -2.233453
  H 3.443257 1.847782 1.028700
  H 4.516153 0.580867 1.625435
  H 2.641109 -0.267499 3.076603
  H 1.660342 1.101596 2.553494
  H 4.361018 1.370850 3.954493
  H 2.797242 1.508337 4.759131
  H 3.267325 2.687533 3.532672
  H 2.940524 -0.178981 -1.822379
  H 5.578086 -0.166983 -0.279241
  H 3.033412 -1.149113 0.722374
 20
 1.689399
  H 1.815307 0.093723 0.275452
  C 2.854869 -0.213313 0.406192
  C 3.528939 0.693778 1.439373
  C 2.690530 0.818181 2.709487
  C 3.353455 1.731612 3.733033
  C 3.547490 -0.247422 -0.915009
  C 4.865587 -0.365076 -1.086113
  C 5.412363 -0.754527 -2.380535
  H 4.844767 -0.378580 -3.255180
  O 6.346168 -1.501368 -2.516165
  H 3.676984 1.684411 1.001394
  H 4.509368 0.294262 1.699628
  H 2.546292 -0.171978 3.145283
  H 1.704189 1.215438 2.456322
  H 4.329156 1.342351 4.016593
  H 2.741616 1.809904 4.629494
  H 3.490611 2.728735 3.320619
  H 2.911456 -0.261399 -1.792699
  H 5.550607 -0.395725 -0.252305
  H 2.849976 -1.244248 0.785523
 20
 1.681568
  H 1.829482 0.267251 0.194361
  C 2.795418 -0.207115 0.395809
  C 3.551445 0.583830 1.457572
  C 2.679493 0.860604 2.679824
  C 3.426061 1.676869 3.727948
  C 3.522553 -0.389631 -0.889974
  C 4.810543 -0.133560 -1.138671
  C 5.425665 -0.676867 -2.343986
  H 4.777086 -0.630157 -3.246005
  O 6.493592 -1.231668 -2.373927
  H 3.886619 1.532259 1.031119
  H 4.430077 0.021521 1.769961
  H 2.348791 -0.084162 3.116101
  H 1.787330 1.410900 2.367939
  H 4.364514 1.194144 3.987820
  H 2.832506 1.776488 4.632260
  H 3.651316 2.670077 3.345387
  H 2.922576 -0.824699 -1.681226
  H 5.480173 0.272036 -0.394716
  H 2.554491 -1.209357 0.782791
