 23
 0.000000
  C 0.982979 0.161507 0.443838
  C 2.444642 0.122593 0.368440
  H 3.041216 0.453104 1.205267
  C 3.045818 -0.336579 -0.781564
  C 4.425167 -0.411511 -0.973748
  C 5.109627 -0.861992 -2.104304
  C 4.614164 -1.384441 -3.404555
  C 3.126829 -1.511200 -3.709933
  C 2.930444 -2.075192 -5.115163
  O 6.425430 -0.851396 -2.089086
  H 0.609902 0.545089 1.388456
  H 0.575655 -0.838890 0.284567
  H 0.588496 0.780285 -0.364900
  H 2.391330 -0.652653 -1.576300
  H 5.045793 -0.080826 -0.147771
  H 5.080485 -2.368854 -3.529640
  H 5.075915 -0.756736 -4.175901
  H 2.644255 -0.534490 -3.663785
  H 2.649048 -2.187844 -3.000812
  H 3.375613 -1.423983 -5.863623
  H 1.870502 -2.167374 -5.337414
  H 3.380417 -3.060845 -5.207318
  H 6.816416 -0.518238 -1.258831
 23
 1.165958
  C 1.030880 0.051592 0.676373
  C 2.383719 0.336082 0.200028
  H 2.964639 1.085443 0.721282
  C 2.944810 -0.309884 -0.879026
  C 4.325233 -0.336621 -1.072702
  C 5.070465 -0.947543 -2.082690
  C 4.619197 -1.524582 -3.374636
  C 3.158967 -1.443823 -3.801105
  C 3.008283 -1.953845 -5.231445
  O 6.374759 -1.026620 -1.957121
  H 0.787596 0.607665 1.575188
  H 0.944294 -1.019089 0.872966
  H 0.286679 0.267692 -0.093546
  H 2.290558 -0.850927 -1.542592
  H 4.909048 0.110425 -0.274006
  H 4.941354 -2.572996 -3.384565
  H 5.239059 -1.044783 -4.142519
  H 2.809318 -0.411559 -3.758212
  H 2.538666 -2.065721 -3.155493
  H 3.591336 -1.352091 -5.923932
  H 1.967231 -1.908466 -5.541285
  H 3.340042 -2.986974 -5.313426
  H 6.737587 -0.662380 -1.127233
 23
 8.768283
  C 1.133047 -0.048657 0.808335
  C 2.297780 0.473107 0.094820
  H 2.701334 1.431981 0.393631
  C 2.886543 -0.199348 -0.967722
  C 4.259190 -0.346364 -1.082516
  C 5.013998 -0.988474 -2.063092
  C 4.591349 -1.547927 -3.373838
  C 3.161242 -1.373957 -3.870856
  C 3.033386 -1.928960 -5.288219
  O 6.303951 -1.152435 -1.873230
  H 0.899512 0.540227 1.688778
  H 1.347374 -1.079265 1.094973
  H 0.247155 -0.086816 0.169121
  H 2.228193 -0.663957 -1.687862
  H 4.830047 0.023135 -0.237201
  H 4.837103 -2.615939 -3.354981
  H 5.279623 -1.122463 -4.113125
  H 2.892601 -0.316943 -3.884116
  H 2.468530 -1.920702 -3.233335
  H 3.692194 -1.402587 -5.973549
  H 2.014126 -1.816053 -5.648641
  H 3.286246 -2.986431 -5.316355
  H 6.644465 -0.807789 -1.026274
 23
 21.133723
  C 1.283465 -0.103002 0.931020
  C 2.223420 0.560374 0.029568
  H 2.383876 1.626052 0.132851
  C 2.868404 -0.117755 -1.030235
  C 4.210159 -0.399282 -1.051210
  C 4.975302 -1.039700 -2.031176
  C 4.577957 -1.568551 -3.362736
  C 3.174057 -1.339514 -3.910288
  C 3.071048 -1.906189 -5.323913
  O 6.251672 -1.252974 -1.802777
  H 1.027506 0.523136 1.779019
  H 1.717307 -1.044714 1.268744
  H 0.354559 -0.365725 0.413776
  H 2.234410 -0.423830 -1.853185
  H 4.760467 -0.113203 -0.161248
  H 4.778640 -2.647029 -3.339555
  H 5.308309 -1.169478 -4.074101
  H 2.954721 -0.271859 -3.950333
  H 2.435920 -1.847722 -3.288926
  H 3.777437 -1.417736 -5.991834
  H 2.070383 -1.752819 -5.721639
  H 3.276846 -2.972874 -5.330883
  H 6.576508 -0.932574 -0.940129
 23
 24.557784
  C 1.443046 -0.124482 1.036714
  C 2.137397 0.565181 -0.043110
  H 2.014310 1.636892 -0.125824
  C 2.875325 -0.072609 -1.072814
  C 4.179100 -0.491561 -1.000350
  C 4.936743 -1.105525 -2.005502
  C 4.546293 -1.578244 -3.361667
  C 3.155961 -1.313468 -3.929855
  C 3.072287 -1.848796 -5.355448
  O 6.215481 -1.332854 -1.784896
  H 1.124355 0.556749 1.820551
  H 2.002350 -0.963611 1.448870
  H 0.544133 -0.584854 0.603442
  H 2.332941 -0.181109 -2.006559
  H 4.702115 -0.290978 -0.068535
  H 4.731476 -2.662424 -3.365706
  H 5.293645 -1.169540 -4.052554
  H 2.955400 -0.242781 -3.957841
  H 2.397185 -1.820425 -3.331819
  H 3.801268 -1.357722 -5.999882
  H 2.082031 -1.670205 -5.769324
  H 3.260582 -2.919274 -5.380528
  H 6.540309 -1.048160 -0.911497
 23
 11.823562
  C 1.623103 -0.152515 1.100565
  C 2.078524 0.540365 -0.101674
  H 1.681561 1.533394 -0.277048
  C 2.868083 -0.003239 -1.109099
  C 4.137024 -0.548972 -0.985632
  C 4.894108 -1.141040 -1.994851
  C 4.510539 -1.575078 -3.366061
  C 3.139337 -1.264089 -3.952856
  C 3.050159 -1.816611 -5.373574
  O 6.159797 -1.423396 -1.760507
  H 1.275590 0.534712 1.866740
  H 2.337741 -0.871329 1.498123
  H 0.762610 -0.761418 0.800025
  H 2.448422 0.092881 -2.102853
  H 4.616092 -0.442442 -0.018824
  H 4.656899 -2.663012 -3.376052
  H 5.282418 -1.188712 -4.040539
  H 2.981825 -0.186638 -4.002116
  H 2.354977 -1.727216 -3.354100
  H 3.804728 -1.366204 -6.014476
  H 2.073427 -1.603576 -5.801863
  H 3.194265 -2.894598 -5.382061
  H 6.479312 -1.174865 -0.873299
 23
 3.955798
  C 1.817915 -0.179153 1.123226
  C 2.019880 0.502653 -0.152702
  H 1.375826 1.348242 -0.355331
  C 2.856473 0.084647 -1.164338
  C 4.084691 -0.559662 -1.002065
  C 4.859446 -1.162265 -1.992491
  C 4.485741 -1.574753 -3.370217
  C 3.138255 -1.202414 -3.973977
  C 3.011643 -1.810234 -5.368959
  O 6.095559 -1.517032 -1.716082
  H 1.485027 0.504596 1.899411
  H 2.671648 -0.769393 1.443758
  H 1.001959 -0.896692 0.978642
  H 2.553295 0.349481 -2.165914
  H 4.510811 -0.538730 -0.005213
  H 4.577702 -2.668765 -3.374511
  H 5.287882 -1.233194 -4.033795
  H 3.049900 -0.119393 -4.069933
  H 2.325410 -1.581220 -3.353560
  H 3.795063 -1.441481 -6.027136
  H 2.052305 -1.550038 -5.808760
  H 3.080838 -2.894377 -5.329854
  H 6.401551 -1.293543 -0.816944
 23
 2.593043
  C 1.878388 -0.313747 0.994272
  C 1.980968 0.435923 -0.255871
  H 1.185536 1.136580 -0.463853
  C 2.940093 0.240750 -1.216499
  C 4.136733 -0.472399 -1.022048
  C 4.902734 -1.127487 -1.981468
  C 4.503087 -1.549462 -3.350698
  C 3.169690 -1.116272 -3.937040
  C 2.904537 -1.861798 -5.242504
  O 6.098962 -1.572422 -1.670824
  H 1.635908 0.352217 1.824527
  H 2.763974 -0.906448 1.199642
  H 1.028999 -1.000984 0.920094
  H 2.779694 0.705679 -2.180993
  H 4.546085 -0.457416 -0.019253
  H 4.539978 -2.644028 -3.341379
  H 5.315225 -1.259660 -4.026322
  H 3.178462 -0.050040 -4.149390
  H 2.363274 -1.330884 -3.240742
  H 3.684007 -1.656824 -5.974196
  H 1.953703 -1.551570 -5.668221
  H 2.864857 -2.934582 -5.077696
  H 6.412547 -1.341497 -0.775988
 23
 7.627124
  C 1.873491 -0.570459 0.660377
  C 2.007784 0.453475 -0.381741
  H 1.223443 1.187644 -0.488506
  C 3.048711 0.424995 -1.256268
  C 4.249968 -0.301161 -1.018512
  C 4.969072 -1.058752 -1.929853
  C 4.481925 -1.590581 -3.228215
  C 3.181232 -1.059910 -3.813315
  C 2.766642 -1.888236 -5.024973
  O 6.162831 -1.520998 -1.622708
  H 1.471143 -0.168064 1.585649
  H 2.833643 -1.071356 0.773002
  H 1.184882 -1.350278 0.321941
  H 2.999080 1.026619 -2.154375
  H 4.744498 -0.074989 -0.079703
  H 4.401340 -2.678236 -3.104321
  H 5.293318 -1.461316 -3.952233
  H 3.306236 -0.023665 -4.128259
  H 2.384750 -1.100684 -3.068015
  H 3.523956 -1.843783 -5.804722
  H 1.835307 -1.511514 -5.439520
  H 2.617449 -2.930493 -4.753267
  H 6.530403 -1.196195 -0.780056
 23
 15.080777
  C 1.924376 -0.696568 0.428685
  C 1.990629 0.456621 -0.482704
  H 1.200655 1.187528 -0.490763
  C 3.076641 0.548275 -1.291156
  C 4.259720 -0.224178 -0.992693
  C 4.969124 -1.029010 -1.862938
  C 4.480297 -1.587166 -3.149853
  C 3.169534 -1.069426 -3.722622
  C 2.724710 -1.924073 -4.911114
  O 6.179180 -1.451029 -1.559281
  H 1.471979 -0.470500 1.382945
  H 2.955280 -1.063909 0.445153
  H 1.402178 -1.543985 -0.027908
  H 3.120714 1.258086 -2.107196
  H 4.803905 0.138235 -0.126590
  H 4.418336 -2.676701 -3.025182
  H 5.285256 -1.444820 -3.880752
  H 3.288574 -0.044777 -4.056079
  H 2.390566 -1.091736 -2.964209
  H 3.446965 -1.866373 -5.726509
  H 1.764133 -1.577835 -5.288010
  H 2.616641 -2.967729 -4.622611
  H 6.529031 -1.128071 -0.708940
 23
 30.018458
  C 2.014172 -0.739571 0.299229
  C 1.970367 0.485186 -0.494768
  H 1.142677 1.169910 -0.433684
  C 3.024618 0.638005 -1.297190
  C 4.167191 -0.199189 -0.918867
  C 4.925760 -0.999840 -1.790260
  C 4.462926 -1.587797 -3.085491
  C 3.153646 -1.069427 -3.702590
  C 2.739599 -1.961410 -4.890746
  O 6.139760 -1.443818 -1.435929
  H 1.624798 -0.690964 1.304950
  H 3.207702 -0.942239 0.068072
  H 1.720930 -1.654465 -0.223940
  H 3.097053 1.349677 -2.089984
  H 4.768384 0.288427 -0.151122
  H 4.392880 -2.665628 -2.924014
  H 5.272451 -1.477564 -3.803460
  H 3.288801 -0.042876 -4.057825
  H 2.350461 -1.074146 -2.968486
  H 3.499402 -1.943040 -5.677426
  H 1.800141 -1.607080 -5.323196
  H 2.591659 -2.991833 -4.579533
  H 6.514858 -1.064327 -0.635424
 23
 36.627545
  C 1.939548 -0.741675 0.208959
  C 1.950969 0.466324 -0.566473
  H 1.134890 1.170042 -0.500314
  C 3.060207 0.674546 -1.297420
  C 4.185949 -0.215747 -0.878169
  C 4.943859 -1.016523 -1.785210
  C 4.457662 -1.588803 -3.061847
  C 3.124851 -1.106376 -3.623924
  C 2.735634 -1.941444 -4.840504
  O 6.146683 -1.417106 -1.474230
  H 1.479853 -0.728711 1.185891
  H 3.487200 -0.869797 -0.102344
  H 1.852751 -1.691330 -0.300899
  H 3.201245 1.461482 -2.015618
  H 4.813692 0.301110 -0.146435
  H 4.415252 -2.676237 -2.919326
  H 5.246457 -1.443197 -3.807528
  H 3.202109 -0.063656 -3.928803
  H 2.337374 -1.189239 -2.876682
  H 3.483918 -1.858430 -5.625178
  H 1.785894 -1.601090 -5.244673
  H 2.632961 -2.991480 -4.576690
  H 6.503768 -1.089089 -0.626114
 23
 32.659530
  C 1.733239 -0.710751 0.158531
  C 1.960647 0.457298 -0.590320
  H 1.202477 1.230878 -0.592318
  C 3.133852 0.632926 -1.247672
  C 4.245064 -0.277341 -0.833133
  C 5.007097 -1.025299 -1.813565
  C 4.489787 -1.562213 -3.087473
  C 3.102746 -1.141785 -3.563017
  C 2.708976 -1.942909 -4.800391
  O 6.232417 -1.363142 -1.572436
  H 1.115014 -0.665280 1.042114
  H 3.673643 -0.958606 -0.132965
  H 1.807290 -1.686241 -0.289290
  H 3.321577 1.440203 -1.932160
  H 4.902780 0.259627 -0.136852
  H 4.516187 -2.655669 -2.990819
  H 5.231229 -1.343275 -3.864134
  H 3.096967 -0.083682 -3.818257
  H 2.360745 -1.312277 -2.785867
  H 3.411696 -1.774895 -5.613286
  H 1.720009 -1.646211 -5.144112
  H 2.684869 -3.007553 -4.584666
  H 6.611923 -1.058395 -0.723216
 23
 26.201206
  C 1.542485 -0.653766 0.053264
  C 1.988264 0.462332 -0.626671
  H 1.321682 1.311902 -0.689384
  C 3.234750 0.578716 -1.187107
  C 4.315290 -0.368231 -0.785769
  C 5.080661 -1.027207 -1.842865
  C 4.530194 -1.512592 -3.120585
  C 3.077954 -1.204370 -3.472409
  C 2.683607 -1.936282 -4.751675
  O 6.333715 -1.276873 -1.684108
  H 0.732516 -0.571630 0.754349
  H 3.811944 -1.113246 -0.144752
  H 1.812953 -1.655381 -0.230212
  H 3.492688 1.414444 -1.814555
  H 4.991359 0.161432 -0.099150
  H 4.666388 -2.604041 -3.112919
  H 5.191128 -1.170928 -3.921416
  H 2.944078 -0.134021 -3.627876
  H 2.414254 -1.519204 -2.671346
  H 3.308395 -1.626906 -5.586435
  H 1.649306 -1.718695 -5.007414
  H 2.780868 -3.011528 -4.632034
  H 6.737724 -1.002999 -0.834280
 23
 25.547025
  C 1.507889 -0.534296 -0.027312
  C 2.042002 0.573826 -0.618644
  H 1.484458 1.500943 -0.572807
  C 3.284254 0.600140 -1.229272
  C 4.330139 -0.372971 -0.812293
  C 5.100875 -1.061578 -1.842590
  C 4.563467 -1.479184 -3.151192
  C 3.053971 -1.451285 -3.349619
  C 2.696873 -1.906776 -4.762694
  O 6.338481 -1.361849 -1.650718
  H 0.637465 -0.462048 0.597904
  H 3.828212 -1.091370 -0.141150
  H 1.774335 -1.531527 -0.332827
  H 3.556172 1.402912 -1.893741
  H 5.008606 0.160061 -0.128788
  H 4.922043 -2.506625 -3.315461
  H 5.062464 -0.899466 -3.937536
  H 2.667945 -0.453196 -3.197532
  H 2.567370 -2.118953 -2.623748
  H 3.133456 -1.246567 -5.507047
  H 1.620484 -1.901929 -4.899999
  H 3.054736 -2.916844 -4.950073
  H 6.726987 -1.109127 -0.788530
