 28
 0.000000
  C 0.964694 0.145268 0.412823
  C 2.437782 0.139984 0.399196
  C 3.233352 0.605078 1.556462
  C 2.467902 1.096222 2.779307
  H 3.158519 1.407096 3.552983
  C 3.047697 -0.326550 -0.762283
  C 4.430569 -0.412750 -0.977357
  C 5.092755 -0.860853 -2.094403
  C 4.611164 -1.379835 -3.388195
  C 3.126440 -1.506175 -3.703712
  C 2.927024 -2.069880 -5.109106
  H 6.173469 -0.852348 -2.073516
  H 0.540001 0.516947 1.337824
  H 0.589791 -0.865246 0.243448
  H 0.589452 0.757453 -0.408654
  H 3.892024 1.411795 1.215274
  H 3.892307 -0.213240 1.868179
  H 1.835335 0.307096 3.181362
  H 1.835146 1.944064 2.523803
  H 2.387970 -0.644231 -1.553338
  H 5.057664 -0.083873 -0.158146
  H 5.076839 -2.366544 -3.512225
  H 5.077149 -0.752582 -4.159753
  H 2.645389 -0.528066 -3.657207
  H 2.645127 -2.180877 -2.994214
  H 3.373600 -1.420114 -5.858306
  H 1.866337 -2.158568 -5.330639
  H 3.373395 -3.057375 -5.201564
 28
 -0.120882
  C 0.972767 0.417253 0.313740
  C 2.437550 0.274279 0.339705
  C 3.221515 0.481365 1.576800
  C 2.450524 0.844540 2.837962
  H 3.145731 0.960348 3.664836
  C 3.057616 -0.095452 -0.852479
  C 4.441586 -0.191072 -1.058225
  C 5.080954 -0.643292 -2.185308
  C 4.595777 -1.279447 -3.417429
  C 3.116862 -1.535119 -3.672224
  C 2.928090 -2.293243 -4.984268
  H 6.160596 -0.551102 -2.194862
  H 0.558396 0.765772 1.251415
  H 0.515364 -0.542247 0.063663
  H 0.678863 1.097245 -0.487061
  H 3.964349 1.263616 1.381251
  H 3.803609 -0.427069 1.768721
  H 1.740514 0.066277 3.106821
  H 1.915160 1.783657 2.720454
  H 2.414313 -0.292432 -1.694676
  H 5.084978 0.147832 -0.257290
  H 5.129642 -2.239107 -3.483643
  H 5.010214 -0.703081 -4.255938
  H 2.576502 -0.590185 -3.745753
  H 2.693441 -2.131683 -2.862728
  H 3.324623 -1.725981 -5.823379
  H 1.871998 -2.472250 -5.169518
  H 3.431589 -3.256953 -4.955141
 28
 1.715447
  C 1.024171 0.638304 0.212162
  C 2.464696 0.346006 0.279222
  C 3.197219 0.291855 1.562858
  C 2.398050 0.551831 2.831081
  H 3.054113 0.467438 3.693563
  C 3.121063 0.061791 -0.911614
  C 4.509387 0.029169 -1.117504
  C 5.105864 -0.449324 -2.250202
  C 4.564649 -1.208667 -3.395846
  C 3.097571 -1.588359 -3.547833
  C 2.913711 -2.480858 -4.774436
  H 6.169514 -0.329083 -2.414606
  H 0.618579 0.987768 1.153651
  H 0.482158 -0.263000 -0.082842
  H 0.824341 1.371896 -0.568872
  H 4.024360 1.010049 1.508089
  H 3.678609 -0.689203 1.639445
  H 1.597379 -0.173534 2.951169
  H 1.971916 1.552133 2.835954
  H 2.522273 -0.134179 -1.791631
  H 5.153450 0.452377 -0.358647
  H 5.148893 -2.141769 -3.407570
  H 4.895877 -0.693212 -4.306905
  H 2.478177 -0.701256 -3.689606
  H 2.755291 -2.136006 -2.668279
  H 3.230437 -1.969093 -5.680428
  H 1.867619 -2.752595 -4.890825
  H 3.490218 -3.398474 -4.681249
 28
 7.016674
  C 1.098146 0.898913 0.157236
  C 2.497990 0.451564 0.229613
  C 3.163267 0.158937 1.519022
  C 2.321515 0.306440 2.776840
  H 2.918679 0.028568 3.641742
  C 3.189859 0.227705 -0.949425
  C 4.565518 0.277221 -1.209108
  C 5.114298 -0.320746 -2.306913
  C 4.528759 -1.193642 -3.351583
  C 3.074855 -1.648523 -3.432290
  C 2.910320 -2.583047 -4.634577
  H 6.173856 -0.231721 -2.517734
  H 0.764791 1.343802 1.088023
  H 0.449659 0.044125 -0.051093
  H 0.958485 1.601928 -0.661499
  H 4.046013 0.807686 1.589767
  H 3.563858 -0.858522 1.469451
  H 1.451903 -0.345062 2.750326
  H 1.990810 1.332218 2.920923
  H 2.656535 -0.163877 -1.804328
  H 5.208445 0.859717 -0.563715
  H 5.132965 -2.112022 -3.295472
  H 4.802185 -0.751402 -4.318191
  H 2.383110 -0.819473 -3.591098
  H 2.800240 -2.210126 -2.538026
  H 3.150222 -2.070730 -5.563638
  H 1.882719 -2.932315 -4.700500
  H 3.555464 -3.454379 -4.547637
 28
 20.379443
  C 1.215308 1.009429 0.020112
  C 2.598308 0.507846 0.160235
  C 3.136771 0.052104 1.465966
  C 2.174951 0.091122 2.648827
  H 2.682689 -0.294952 3.530192
  C 3.382909 0.371526 -0.963829
  C 4.752856 0.468706 -1.288468
  C 5.205650 -0.197755 -2.374295
  C 4.484994 -1.140502 -3.295881
  C 3.027601 -1.628054 -3.210206
  C 2.794508 -2.608990 -4.377779
  H 6.273976 -0.190622 -2.775092
  H 0.831937 1.386082 0.963250
  H 0.553761 0.202294 -0.312528
  H 1.164428 1.795227 -0.730522
  H 4.020102 0.668135 1.692609
  H 3.518277 -0.969289 1.339434
  H 1.298679 -0.533879 2.468863
  H 1.847406 1.107613 2.873004
  H 2.917317 -0.144193 -1.870295
  H 5.416034 1.109434 -0.723523
  H 5.075542 -2.066338 -3.235316
  H 4.647652 -0.766747 -4.317195
  H 2.263984 -0.855281 -3.340180
  H 2.862333 -2.181500 -2.282613
  H 2.920182 -2.112959 -5.337959
  H 1.777470 -3.004285 -4.334269
  H 3.483603 -3.449704 -4.333297
 28
 31.990151
  C 1.317012 1.073033 -0.099364
  C 2.677582 0.556582 0.112204
  C 3.103250 0.003750 1.438922
  C 2.067335 0.037092 2.551410
  H 2.472353 -0.457117 3.430158
  C 3.522336 0.442416 -0.948296
  C 4.882978 0.482770 -1.288910
  C 5.262281 -0.234851 -2.385981
  C 4.448112 -1.138609 -3.274589
  C 2.996753 -1.593809 -3.083879
  C 2.725846 -2.589960 -4.234095
  H 6.275164 -0.278417 -2.782725
  H 0.835981 1.337695 0.842806
  H 0.693375 0.303556 -0.583097
  H 1.337305 1.947119 -0.739380
  H 4.000196 0.541395 1.770652
  H 3.402443 -1.038464 1.267202
  H 1.146028 -0.454256 2.260145
  H 1.837000 1.056519 2.844592
  H 3.124224 -0.156516 -1.837843
  H 5.600355 1.134085 -0.810317
  H 4.984565 -2.088995 -3.237063
  H 4.518381 -0.718498 -4.286680
  H 2.192186 -0.866642 -3.217408
  H 2.908905 -2.169976 -2.167880
  H 2.770963 -2.101774 -5.210636
  H 1.736964 -3.011328 -4.115755
  H 3.435689 -3.418100 -4.217314
 28
 72.508158
  C 1.516009 1.150345 -0.300630
  C 2.843981 0.560662 0.039998
  C 3.057516 -0.114700 1.379402
  C 1.859207 -0.141664 2.317552
  H 2.132025 -0.684362 3.222420
  C 3.802477 0.512094 -0.864961
  C 5.077501 0.551178 -1.374281
  C 5.401055 -0.174249 -2.478681
  C 4.456540 -1.096340 -3.202763
  C 2.948774 -1.529576 -2.759417
  C 2.534207 -2.516567 -3.876924
  H 6.372001 -0.131050 -2.947511
  H 0.945845 1.371115 0.593571
  H 0.930674 0.451710 -0.901878
  H 1.638816 2.065360 -0.867840
  H 3.885135 0.398905 1.874387
  H 3.387944 -1.140386 1.202695
  H 1.009130 -0.648199 1.864898
  H 1.558172 0.858316 2.615423
  H 3.413278 -0.380286 -2.206262
  H 5.790763 1.258505 -0.964744
  H 4.937142 -2.082285 -3.192443
  H 4.381398 -0.777004 -4.244467
  H 2.101476 -0.815332 -2.756734
  H 2.978807 -2.080173 -1.816074
  H 2.467410 -2.027357 -4.838009
  H 1.556715 -2.929237 -3.643362
  H 3.235978 -3.339545 -3.953357
 28
 74.247833
  C 1.602738 1.258476 -0.353772
  C 2.897634 0.592521 0.012805
  C 3.022481 -0.147259 1.342453
  C 1.778823 -0.158206 2.223886
  H 1.985793 -0.739745 3.120159
  C 3.882614 0.530586 -0.840016
  C 5.129550 0.545070 -1.374774
  C 5.473155 -0.223242 -2.464718
  C 4.488414 -1.135164 -3.157457
  C 2.871539 -1.555669 -2.650508
  C 2.454054 -2.493683 -3.788347
  H 6.453757 -0.159319 -2.906232
  H 1.025691 1.508933 0.532363
  H 0.997088 0.597102 -0.967139
  H 1.791123 2.171313 -0.910833
  H 3.848099 0.309446 1.894594
  H 3.315565 -1.179176 1.139621
  H 0.930327 -0.615057 1.717241
  H 1.506791 0.845942 2.543425
  H 3.591229 -0.572925 -2.417259
  H 5.847331 1.252149 -0.978852
  H 4.912969 -2.140431 -3.150957
  H 4.386536 -0.819766 -4.199654
  H 2.055048 -0.815901 -2.610847
  H 2.910651 -2.116991 -1.716718
  H 2.375753 -1.970263 -4.735110
  H 1.477436 -2.904804 -3.552191
  H 3.145890 -3.321657 -3.908139
 28
 71.319335
  C 1.618376 1.278699 -0.332105
  C 2.916063 0.604012 0.025727
  C 3.034502 -0.150640 1.348765
  C 1.765393 -0.218249 2.189157
  H 1.962684 -0.811379 3.081406
  C 3.906581 0.570004 -0.815799
  C 5.136872 0.576519 -1.381322
  C 5.497131 -0.190619 -2.468804
  C 4.553245 -1.115974 -3.166854
  C 2.771463 -1.562143 -2.640918
  C 2.424467 -2.511281 -3.770390
  H 6.477923 -0.100351 -2.904408
  H 1.105370 1.631386 0.554198
  H 0.955043 0.583125 -0.843525
  H 1.801043 2.127133 -0.986772
  H 3.824279 0.332988 1.931312
  H 3.373740 -1.168580 1.143856
  H 0.951209 -0.689800 1.645078
  H 1.447505 0.768475 2.518110
  H 3.600231 -0.673448 -2.579157
  H 5.859062 1.285947 -0.994594
  H 4.909575 -2.140935 -3.092938
  H 4.455986 -0.854197 -4.223253
  H 1.988782 -0.794875 -2.599257
  H 2.852587 -2.081574 -1.689911
  H 2.365963 -2.002537 -4.728406
  H 1.441292 -2.929098 -3.560739
  H 3.122352 -3.338374 -3.853243
 28
 70.499387
  C 1.663079 1.352690 -0.321826
  C 2.934700 0.623782 0.031996
  C 3.010103 -0.179160 1.329021
  C 1.732030 -0.225230 2.155397
  H 1.898136 -0.853783 3.028290
  C 3.937671 0.589175 -0.794468
  C 5.153030 0.599496 -1.388864
  C 5.506015 -0.164234 -2.482222
  C 4.582531 -1.110036 -3.164876
  C 2.740381 -1.546120 -2.615787
  C 2.412362 -2.536230 -3.704958
  H 6.479891 -0.054587 -2.929009
  H 1.128871 1.661230 0.569429
  H 1.000958 0.708826 -0.899075
  H 1.886991 2.237060 -0.913744
  H 3.813081 0.248809 1.935005
  H 3.307937 -1.202935 1.090678
  H 0.905425 -0.647022 1.589405
  H 1.449180 0.761571 2.514208
  H 3.597023 -0.705193 -2.637899
  H 5.880170 1.310728 -1.013229
  H 4.916791 -2.138853 -3.059976
  H 4.489819 -0.871394 -4.226610
  H 1.960922 -0.777643 -2.603043
  H 2.832693 -2.018482 -1.641638
  H 2.355748 -2.065193 -4.681787
  H 1.431098 -2.952492 -3.484438
  H 3.115269 -3.361988 -3.751445
 28
 65.612467
  C 1.735239 1.416140 -0.302615
  C 2.974226 0.624222 0.029535
  C 2.998240 -0.262291 1.271472
  C 1.696773 -0.329542 2.058298
  H 1.824432 -1.019204 2.890243
  C 3.999872 0.633561 -0.759595
  C 5.178627 0.687826 -1.406846
  C 5.539085 -0.054655 -2.517818
  C 4.721148 -1.051227 -3.193472
  C 2.597502 -1.480551 -2.589619
  C 2.323845 -2.607605 -3.533676
  H 6.500419 0.128783 -2.975512
  H 1.178269 1.663385 0.593562
  H 1.079573 0.843380 -0.955957
  H 2.003976 2.340583 -0.807817
  H 3.794493 0.101666 1.925425
  H 3.275696 -1.275648 0.972614
  H 0.875873 -0.691072 1.444353
  H 1.427727 0.638061 2.474958
  H 3.572618 -0.841694 -2.877571
  H 5.896608 1.418121 -1.049539
  H 4.965893 -2.084572 -2.969326
  H 4.710794 -0.908719 -4.278274
  H 1.828595 -0.712098 -2.656372
  H 2.757411 -1.787413 -1.562230
  H 2.263494 -2.270264 -4.564509
  H 1.351673 -3.024573 -3.270157
  H 3.049803 -3.411808 -3.461018
