 29
 0.000000
  C 0.994636 0.134390 0.385443
  C 2.471835 0.139774 0.398361
  C 3.240435 0.612071 1.573856
  C 2.447225 1.097478 2.782561
  H 3.111558 1.414855 3.572443
  C 3.090669 -0.323872 -0.756057
  C 4.466312 -0.411885 -0.975547
  C 5.128296 -0.866494 -2.108710
  C 4.615112 -1.387123 -3.406262
  C 3.122242 -1.501042 -3.690962
  C 2.890707 -2.062805 -5.091087
  O 6.450606 -0.869570 -2.116650
  H 0.549522 0.502665 1.302512
  H 0.629280 -0.879080 0.215794
  H 0.628927 0.748844 -0.438023
  H 3.896738 1.426627 1.247337
  H 3.897004 -0.201803 1.901476
  H 1.810631 0.300077 3.164537
  H 1.810405 1.937405 2.506874
  H 2.431269 -0.640981 -1.545526
  H 5.092819 -0.082425 -0.154842
  H 5.066249 -2.377476 -3.535762
  H 5.066596 -0.761229 -4.184425
  H 2.649499 -0.519633 -3.635982
  H 2.649073 -2.172009 -2.972914
  H 3.327047 -1.416507 -5.849201
  H 1.824749 -2.142116 -5.289439
  H 3.326635 -3.054062 -5.192109
  H 6.839403 -0.536630 -1.286209
 29
 -0.176773
  C 0.988191 -0.204587 0.561987
  C 2.452090 -0.054012 0.458710
  C 3.231174 0.711452 1.464168
  C 2.450853 1.351873 2.606123
  H 3.139753 1.887029 3.256396
  C 3.066446 -0.625078 -0.650418
  C 4.442463 -0.641942 -0.885839
  C 5.124308 -1.081024 -2.015923
  C 4.618756 -1.435008 -3.370546
  C 3.126253 -1.496859 -3.671391
  C 2.909691 -1.791902 -5.154011
  O 6.440575 -1.156680 -1.981058
  H 0.582841 0.183511 1.487637
  H 0.709881 -1.253876 0.455265
  H 0.508237 0.313561 -0.271306
  H 3.789350 1.495401 0.940986
  H 3.986254 0.041961 1.893181
  H 1.941079 0.605469 3.209755
  H 1.721253 2.066914 2.236557
  H 2.415909 -1.109274 -1.356246
  H 5.076324 -0.290601 -0.080187
  H 5.080588 -2.391476 -3.635735
  H 5.080157 -0.709525 -4.051130
  H 2.653048 -0.544267 -3.436079
  H 2.656305 -2.292072 -3.093175
  H 3.346004 -1.012021 -5.774295
  H 1.848022 -1.845707 -5.377722
  H 3.360846 -2.740878 -5.431910
  H 6.842721 -0.921388 -1.124061
 29
 1.023459
  C 1.031735 -0.429419 0.630220
  C 2.478205 -0.194006 0.464128
  C 3.198336 0.834364 1.254421
  C 2.386961 1.614341 2.279972
  H 3.033520 2.331162 2.780057
  C 3.130437 -0.899638 -0.536589
  C 4.506198 -0.866042 -0.784628
  C 5.172084 -1.214461 -1.952424
  C 4.625146 -1.342721 -3.331163
  C 3.122697 -1.389315 -3.575050
  C 2.839986 -1.407083 -5.075050
  O 6.482373 -1.356758 -1.949692
  H 0.617538 0.068782 1.497955
  H 0.826671 -1.498211 0.689593
  H 0.500964 -0.072299 -0.254634
  H 3.656486 1.543963 0.557766
  H 4.034067 0.344831 1.767546
  H 1.969884 0.959084 3.040796
  H 1.579517 2.169027 1.809111
  H 2.519539 -1.544676 -1.147310
  H 5.139866 -0.550078 0.036670
  H 5.097393 -2.221044 -3.783254
  H 5.039951 -0.489885 -3.883726
  H 2.641906 -0.513667 -3.138713
  H 2.696155 -2.291195 -3.135809
  H 3.231016 -0.513664 -5.556110
  H 1.769372 -1.447376 -5.257775
  H 3.295069 -2.275106 -5.546325
  H 6.905683 -1.241486 -1.078591
 29
 3.400259
  C 1.071864 -0.607347 0.691569
  C 2.501942 -0.334692 0.456031
  C 3.176141 0.847748 1.048297
  C 2.337577 1.738461 1.953433
  H 2.944892 2.568713 2.305487
  C 3.180517 -1.134444 -0.440959
  C 4.563313 -1.088942 -0.692783
  C 5.219106 -1.280365 -1.896980
  C 4.637811 -1.187950 -3.263276
  C 3.136373 -1.350563 -3.455790
  C 2.774376 -1.180537 -4.928293
  O 6.527489 -1.440275 -1.935921
  H 0.690038 -0.101209 1.569358
  H 0.891477 -1.677937 0.772878
  H 0.491558 -0.261271 -0.166434
  H 3.582998 1.456856 0.235390
  H 4.049478 0.491410 1.607153
  H 1.980121 1.197318 2.826158
  H 1.485018 2.152238 1.422128
  H 2.601904 -1.882068 -0.962858
  H 5.197475 -0.892253 0.166201
  H 5.172175 -1.908813 -3.889984
  H 4.936274 -0.203862 -3.646605
  H 2.599002 -0.601693 -2.873589
  H 2.822810 -2.342999 -3.132494
  H 3.050151 -0.191026 -5.285621
  H 1.704491 -1.305657 -5.071711
  H 3.284965 -1.918892 -5.541917
  H 6.961839 -1.460319 -1.068108
 29
 8.436650
  C 1.121276 -0.789948 0.674829
  C 2.543567 -0.493831 0.406135
  C 3.155832 0.805915 0.790855
  C 2.268220 1.791205 1.536328
  H 2.831806 2.696437 1.747579
  C 3.280658 -1.392844 -0.319709
  C 4.678272 -1.319605 -0.591803
  C 5.297795 -1.323124 -1.818726
  C 4.648084 -1.058440 -3.132826
  C 3.140316 -1.232869 -3.244071
  C 2.670697 -0.912468 -4.660218
  O 6.603566 -1.493167 -1.933291
  H 0.715822 -0.178182 1.473042
  H 0.982549 -1.843491 0.909115
  H 0.531400 -0.587972 -0.221863
  H 3.537147 1.294112 -0.111327
  H 4.044305 0.584430 1.394387
  H 1.928900 1.383477 2.485660
  H 1.400817 2.070115 0.943459
  H 2.765519 -2.269602 -0.695316
  H 5.322716 -1.298459 0.282380
  H 5.148963 -1.690994 -3.872105
  H 4.915452 -0.031475 -3.409631
  H 2.631306 -0.566323 -2.545684
  H 2.865788 -2.259962 -3.005779
  H 2.905116 0.115622 -4.925500
  H 1.595307 -1.046335 -4.741866
  H 3.147827 -1.568227 -5.384574
  H 7.076179 -1.598921 -1.088273
 29
 14.627414
  C 1.149130 -0.886067 0.655442
  C 2.565443 -0.593382 0.347477
  C 3.144869 0.762413 0.569882
  C 2.223733 1.808728 1.176695
  H 2.760418 2.748867 1.276712
  C 3.338436 -1.560757 -0.221946
  C 4.741974 -1.477781 -0.541146
  C 5.329825 -1.292743 -1.761551
  C 4.633525 -0.913211 -3.024118
  C 3.127291 -1.117316 -3.087824
  C 2.588382 -0.721428 -4.459735
  O 6.641268 -1.415074 -1.925892
  H 0.756429 -0.232707 1.426947
  H 1.018481 -1.924991 0.949142
  H 0.541000 -0.728477 -0.237900
  H 3.522931 1.143555 -0.384205
  H 4.033122 0.640321 1.201084
  H 1.884172 1.514935 2.167324
  H 1.355101 1.984775 0.547332
  H 2.882270 -2.528413 -0.408970
  H 5.401108 -1.653147 0.304920
  H 5.113598 -1.476330 -3.830555
  H 4.875100 0.137053 -3.224786
  H 2.630106 -0.509879 -2.330409
  H 2.887865 -2.163554 -2.900063
  H 2.792093 0.325574 -4.671034
  H 1.513250 -0.873022 -4.502870
  H 3.045098 -1.321910 -5.242694
  H 7.138308 -1.589492 -1.107507
 29
 12.233087
  C 1.184026 -1.004860 0.656779
  C 2.585882 -0.689722 0.314529
  C 3.096861 0.707581 0.396340
  C 2.108769 1.764858 0.859333
  H 2.592482 2.738321 0.855868
  C 3.433603 -1.687466 -0.081163
  C 4.809494 -1.575269 -0.477622
  C 5.357853 -1.213795 -1.680468
  C 4.633823 -0.788199 -2.915508
  C 3.128270 -1.017785 -2.986946
  C 2.588817 -0.588115 -4.348081
  O 6.669028 -1.242394 -1.873011
  H 0.794034 -0.345355 1.425489
  H 1.069499 -2.039523 0.967078
  H 0.560707 -0.864235 -0.229871
  H 3.472749 0.973687 -0.598903
  H 3.975705 0.728734 1.047444
  H 1.767370 1.575384 1.874914
  H 1.243426 1.812728 0.203934
  H 3.093481 -2.714075 0.023981
  H 5.495692 -1.964321 0.272218
  H 5.118830 -1.300122 -3.752339
  H 4.848541 0.276587 -3.058133
  H 2.614218 -0.450188 -2.215955
  H 2.913866 -2.077661 -2.839588
  H 2.778049 0.468139 -4.523610
  H 1.516150 -0.753133 -4.401525
  H 3.057634 -1.155765 -5.148871
  H 7.192345 -1.448900 -1.078030
 29
 10.174210
  C 1.211537 -1.091411 0.655422
  C 2.592741 -0.719855 0.294875
  C 3.045748 0.698218 0.341491
  C 2.011761 1.741309 0.732514
  H 2.462878 2.726913 0.700467
  C 3.490728 -1.701150 -0.039276
  C 4.845459 -1.572995 -0.458761
  C 5.374904 -1.150919 -1.654531
  C 4.636950 -0.693578 -2.872792
  C 3.132775 -0.928523 -2.955940
  C 2.607959 -0.483067 -4.317640
  O 6.667643 -1.283908 -1.896046
  H 0.730756 -0.347255 1.275675
  H 1.178385 -2.058819 1.150040
  H 0.619300 -1.190337 -0.259818
  H 3.461494 0.949960 -0.642691
  H 3.897952 0.766879 1.020520
  H 1.644769 1.582903 1.743528
  H 1.163724 1.733295 0.050409
  H 3.196820 -2.728051 0.161212
  H 5.544011 -2.042454 0.223431
  H 5.120863 -1.181306 -3.725466
  H 4.851636 0.374941 -2.983949
  H 2.602870 -0.368936 -2.192878
  H 2.924589 -1.989472 -2.821639
  H 2.774124 0.578172 -4.469882
  H 1.539533 -0.677603 -4.391745
  H 3.100342 -1.026969 -5.123624
  H 7.217392 -1.486645 -1.117533
 29
 9.017922
  C 1.238546 -1.086972 0.647238
  C 2.618844 -0.701703 0.292954
  C 3.054430 0.721404 0.304680
  C 1.994300 1.760198 0.630934
  H 2.437459 2.751638 0.591399
  C 3.531650 -1.688328 0.001992
  C 4.871674 -1.593979 -0.456862
  C 5.376848 -1.146392 -1.656635
  C 4.626318 -0.641440 -2.844773
  C 3.127499 -0.913530 -2.943856
  C 2.597331 -0.445958 -4.295735
  O 6.656385 -1.321634 -1.942263
  H 0.735942 -0.333187 1.243014
  H 1.212754 -2.042193 1.165631
  H 0.661345 -1.217006 -0.271576
  H 3.496628 0.949918 -0.669804
  H 3.882003 0.819935 1.014143
  H 1.593353 1.624149 1.632266
  H 1.174595 1.726605 -0.081685
  H 3.252117 -2.703729 0.268220
  H 5.571912 -2.151129 0.159959
  H 5.118447 -1.082504 -3.716521
  H 4.815640 0.435288 -2.916219
  H 2.576269 -0.400355 -2.163053
  H 2.950892 -1.985658 -2.843253
  H 2.734497 0.625820 -4.416158
  H 1.536214 -0.663619 -4.382722
  H 3.111248 -0.948592 -5.111851
  H 7.221497 -1.549994 -1.179982
 29
 8.273443
  C 1.257854 -1.097035 0.676689
  C 2.631671 -0.705737 0.306060
  C 3.044548 0.722892 0.266652
  C 1.959322 1.757927 0.519055
  H 2.388068 2.754128 0.445927
  C 3.559162 -1.691686 0.059985
  C 4.880323 -1.620201 -0.444875
  C 5.370170 -1.166152 -1.653408
  C 4.614504 -0.616517 -2.817652
  C 3.118851 -0.908360 -2.928552
  C 2.579419 -0.383289 -4.255370
  O 6.636246 -1.381971 -1.967205
  H 0.747295 -0.330862 1.249662
  H 1.244238 -2.036416 1.223709
  H 0.679848 -1.260367 -0.236292
  H 3.515004 0.919969 -0.701327
  H 3.848717 0.862219 0.997410
  H 1.533144 1.661003 1.514605
  H 1.159576 1.678439 -0.212807
  H 3.302836 -2.689106 0.405244
  H 5.584765 -2.209341 0.136822
  H 5.108753 -1.018508 -3.707290
  H 4.792277 0.463972 -2.846583
  H 2.557795 -0.446048 -2.122503
  H 2.961984 -1.987341 -2.881076
  H 2.701312 0.695038 -4.323864
  H 1.521110 -0.611506 -4.351032
  H 3.098308 -0.838281 -5.095928
  H 7.208078 -1.638995 -1.221372
 29
 8.238604
  C 1.282176 -1.118674 0.697720
  C 2.648592 -0.710218 0.318758
  C 3.033281 0.724963 0.248424
  C 1.919580 1.744150 0.433066
  H 2.331832 2.746470 0.349200
  C 3.600126 -1.681977 0.111376
  C 4.908386 -1.616114 -0.424830
  C 5.371723 -1.203102 -1.659748
  C 4.614807 -0.618844 -2.805932
  C 3.114325 -0.889147 -2.914514
  C 2.570531 -0.307016 -4.215423
  O 6.612888 -1.491575 -2.012264
  H 0.758641 -0.351496 1.257531
  H 1.284163 -2.049053 1.259877
  H 0.706760 -1.305723 -0.212340
  H 3.537359 0.905484 -0.705393
  H 3.806687 0.900503 1.004729
  H 1.457133 1.665331 1.413755
  H 1.150098 1.629562 -0.326150
  H 3.367883 -2.670317 0.497604
  H 5.626582 -2.191615 0.153980
  H 5.092458 -1.015527 -3.707181
  H 4.813066 0.458279 -2.817863
  H 2.561885 -0.456082 -2.086807
  H 2.948196 -1.967816 -2.909130
  H 2.711790 0.770716 -4.246767
  H 1.507096 -0.512123 -4.306589
  H 3.071244 -0.740757 -5.077904
  H 7.195889 -1.770412 -1.282500
