 9
 0.000000
  C 1.008384 -0.072104 0.047103
  C 2.507776 -0.086646 0.017642
  C 3.212350 -0.593353 -0.977244
  H 4.285226 -0.600113 -0.990427
  H 0.651865 0.397343 0.962250
  H 0.609013 -1.085477 0.013314
  H 0.610273 0.490663 -0.795995
  H 3.011764 0.348575 0.869698
  H 2.704129 -1.025659 -1.826322
 9
 -0.239008
  C 1.009212 -0.056747 0.045075
  C 2.508524 -0.037610 0.003534
  C 3.205169 -0.634716 -0.943506
  H 4.280307 -0.636228 -0.990064
  H 0.639596 0.222886 1.028042
  H 0.641110 -1.052373 -0.202017
  H 0.602193 0.643181 -0.684309
  H 3.008683 0.495695 0.799842
  H 2.706272 -1.170564 -1.736165
 9
 -0.687815
  C 1.010252 -0.041454 0.023723
  C 2.505554 -0.002498 -0.019164
  C 3.207769 -0.682381 -0.902348
  H 4.282112 -0.685900 -0.961295
  H 0.647046 0.031782 1.047153
  H 0.649238 -0.969755 -0.418952
  H 0.596913 0.794116 -0.540809
  H 2.994026 0.625849 0.713160
  H 2.714361 -1.309478 -1.630009
 9
 -0.062210
  C 1.016660 -0.012313 -0.015417
  C 2.501602 0.047009 -0.042911
  C 3.200945 -0.729476 -0.835737
  H 4.275708 -0.805439 -0.897349
  H 0.663459 -0.136532 1.007309
  H 0.701231 -0.889138 -0.584616
  H 0.576724 0.894610 -0.429485
  H 2.984084 0.747510 0.639898
  H 2.699354 -1.378181 -1.546935
 9
 2.449804
  C 1.023087 0.018844 -0.037085
  C 2.506501 0.073718 -0.068042
  C 3.185585 -0.795197 -0.792261
  H 4.252002 -0.944656 -0.762172
  H 0.711188 -0.320033 0.951756
  H 0.727804 -0.776457 -0.722343
  H 0.544401 0.970203 -0.246587
  H 2.999938 0.842796 0.516822
  H 2.692579 -1.358812 -1.569845
 9
 14.279246
  C 1.027605 0.047858 -0.057113
  C 2.518679 0.121195 -0.067032
  C 3.138751 -0.836367 -0.739582
  H 4.188127 -1.078750 -0.659488
  H 0.704911 -0.441609 0.867243
  H 0.867247 -0.788443 -0.743211
  H 0.497659 0.983435 -0.171818
  H 3.035949 0.924214 0.444715
  H 2.701680 -1.252259 -1.632747
 9
 33.374052
  C 1.042867 0.060996 -0.047125
  C 2.527224 0.158986 -0.077036
  C 3.073256 -0.841735 -0.785550
  H 4.071594 -1.205105 -0.550880
  H 0.713233 -0.428584 0.879060
  H 1.005685 -0.878527 -0.634047
  H 0.434371 0.936994 -0.221076
  H 3.086456 0.928744 0.432786
  H 2.779024 -1.086880 -1.788639
 9
 60.979258
  C 1.043318 0.072618 -0.026670
  C 2.517345 0.213214 -0.040955
  C 3.008735 -0.860196 -0.723333
  H 3.991832 -1.289944 -0.567864
  H 0.608505 -0.544852 0.763801
  H 1.206075 -0.951580 -0.610747
  H 0.483048 0.988053 -0.155414
  H 3.082805 1.055683 0.319585
  H 2.686444 -0.992034 -1.736374
 9
 79.813758
  C 1.087673 0.140466 0.011132
  C 2.486909 0.269549 -0.081281
  C 2.923386 -0.895842 -0.739500
  H 3.878532 -1.357286 -0.484441
  H 0.684445 -0.568571 0.720080
  H 1.472166 -1.096279 -0.679496
  H 0.439990 1.016805 -0.063351
  H 3.096553 1.081893 0.288139
  H 2.734074 -0.983153 -1.800947
 9
 65.449411
  C 1.070128 0.199665 0.049043
  C 2.417895 0.293103 -0.070850
  C 2.860520 -0.933583 -0.739581
  H 3.821370 -1.372760 -0.485153
  H 0.635804 -0.548403 0.681713
  H 1.672397 -1.219457 -0.727910
  H 0.454710 1.102564 0.002593
  H 3.044824 1.128665 0.216983
  H 2.743479 -0.934093 -1.831628
 9
 40.868121
  C 1.091123 0.273144 0.102000
  C 2.412533 0.321568 -0.140981
  C 2.851593 -0.958526 -0.771206
  H 3.757419 -1.407782 -0.400679
  H 0.646739 -0.565677 0.627499
  H 1.818694 -1.396533 -0.725478
  H 0.396406 1.126717 0.139977
  H 3.082238 1.097724 0.166469
  H 2.835262 -0.924473 -1.867820
 9
 23.233150
  C 1.065313 0.302231 0.098425
  C 2.372154 0.288318 -0.163733
  C 2.846189 -0.995652 -0.763384
  H 3.796382 -1.387608 -0.432139
  H 0.582057 -0.532202 0.578154
  H 1.921739 -1.578261 -0.699086
  H 0.489467 1.213724 0.224451
  H 3.057480 1.079230 0.098482
  H 2.871363 -0.869954 -1.853611
 9
 15.751480
  C 1.077351 0.291489 0.198886
  C 2.355310 0.247675 -0.159149
  C 2.854325 -1.008951 -0.805850
  H 3.766034 -1.392590 -0.354614
  H 0.541511 -0.561697 0.575190
  H 1.936838 -1.580403 -0.727183
  H 0.576320 1.241342 0.305110
  H 3.015995 1.096482 -0.066286
  H 3.017758 -0.897905 -1.874382
 9
 -0.713963
  C 1.131068 0.356962 0.360342
  C 2.259383 0.264764 -0.306962
  C 2.817805 -1.030168 -0.812731
  H 3.770639 -1.254511 -0.331499
  H 0.536317 -0.518927 0.565579
  H 2.113446 -1.855823 -0.627701
  H 0.653237 1.291209 0.632682
  H 2.859444 1.143332 -0.503046
  H 3.000103 -0.961394 -1.884942
