13

C 1.006097 -0.072039 0.046876
C 2.502501 -0.08277 0.025612
C 3.220131 -0.594957 -0.979808
C 4.657878 -0.605249 -1.000425
C 5.378335 -1.120478 -2.012286
H 6.4482094658012 -1.128101736103287 -2.0267948274655687
H 0.64547 0.395249 0.962183
H 0.608751 -1.086455 0.010464
H 0.609691 0.492608 -0.796695
H 3.001989 0.35347 0.88051
H 2.710265 -1.028765 -1.831315
H 5.163561 -0.17117 -0.146574
H 4.874057 -1.555026 -2.866236
