 20
 0.000000
  H 1.403975 0.155649 0.440701
  C 2.483774 0.138810 0.397506
  C 3.221493 0.611820 1.572076
  H 2.557576 0.931519 2.367745
  C 3.047322 -0.330708 -0.770767
  C 4.423876 -0.414964 -0.981988
  C 5.114571 -0.866564 -2.108725
  C 4.614069 -1.386964 -3.406776
  C 3.125698 -1.500417 -3.690280
  H 2.996474 -1.901834 -4.691620
  O 6.428073 -0.857286 -2.086313
  H 3.877112 1.442414 1.302534
  H 3.878172 -0.173282 1.952628
  H 2.372171 -0.643019 -1.547300
  H 5.052253 -0.085821 -0.162631
  H 5.080343 -2.371197 -3.533594
  H 5.080683 -0.763242 -4.178483
  H 2.638752 -0.529877 -3.657831
  H 2.638508 -2.179709 -2.996431
  H 6.823286 -0.525407 -1.256786
 20
 0.400652
  H 1.409563 0.310933 0.423074
  C 2.485307 0.197631 0.387388
  C 3.235839 0.531601 1.605186
  H 2.575794 0.842871 2.402904
  C 3.027774 -0.244509 -0.800773
  C 4.400540 -0.440615 -0.990162
  C 5.103252 -0.813113 -2.134218
  C 4.622647 -1.421467 -3.400107
  C 3.138454 -1.539807 -3.683321
  H 3.009465 -2.036477 -4.650592
  O 6.408526 -0.676879 -2.143933
  H 3.954618 1.327472 1.411725
  H 3.818318 -0.323105 1.946291
  H 2.341633 -0.434404 -1.607971
  H 5.016586 -0.193772 -0.139105
  H 5.069962 -2.423322 -3.422663
  H 5.111975 -0.873163 -4.215370
  H 2.668302 -0.566779 -3.752165
  H 2.633383 -2.148234 -2.933205
  H 6.814261 -0.321220 -1.330534
 20
 7.131387
  H 1.429491 0.420154 0.426017
  C 2.491616 0.236372 0.388572
  C 3.252539 0.443057 1.627235
  H 2.583858 0.763042 2.436903
  C 3.008678 -0.160961 -0.819438
  C 4.371410 -0.428746 -1.016361
  C 5.060378 -0.763722 -2.179591
  C 4.631298 -1.447715 -3.412995
  C 3.141467 -1.581178 -3.677301
  H 3.009698 -2.142912 -4.601964
  O 6.349494 -0.543898 -2.175710
  H 4.009843 1.214500 1.491516
  H 3.796800 -0.441852 1.951605
  H 2.317686 -0.275593 -1.646026
  H 4.909720 -0.214578 -0.095358
  H 5.112006 -2.435962 -3.345488
  H 5.147085 -0.955025 -4.251093
  H 2.686608 -0.602602 -3.810215
  H 2.656593 -2.135319 -2.885840
  H 6.888783 -0.195106 -1.436366
 20
 10.470258
  H 1.441349 0.478703 0.429936
  C 2.500269 0.269995 0.375455
  C 3.238509 0.335647 1.644840
  H 2.583381 0.584690 2.471949
  C 3.025703 -0.025683 -0.860373
  C 4.371036 -0.380419 -1.076017
  C 5.087858 -0.679458 -2.244559
  C 4.671548 -1.499944 -3.398403
  C 3.160317 -1.602773 -3.625052
  H 2.976006 -2.275887 -4.468566
  O 6.345670 -0.311854 -2.260175
  H 4.058470 1.068380 1.577596
  H 3.720044 -0.612913 1.856478
  H 2.360219 -0.035545 -1.711380
  H 4.858957 -0.335888 -0.099419
  H 5.071257 -2.500155 -3.210082
  H 5.165874 -1.120734 -4.293738
  H 2.742188 -0.635938 -3.892683
  H 2.658880 -2.021999 -2.757707
  H 6.839047 0.049063 -1.501777
 20
 13.583329
  H 1.497495 0.676796 0.455480
  C 2.521780 0.343109 0.396160
  C 3.249827 0.167048 1.662719
  H 2.632545 0.447258 2.517691
  C 3.027523 0.123984 -0.863776
  C 4.322932 -0.319084 -1.113776
  C 5.027402 -0.550798 -2.294777
  C 4.686670 -1.534888 -3.342882
  C 3.199197 -1.693527 -3.634102
  H 3.056604 -2.461771 -4.389165
  O 6.219692 -0.019602 -2.405401
  H 4.162381 0.771913 1.680266
  H 3.564635 -0.866171 1.793753
  H 2.390368 0.353526 -1.706954
  H 4.891270 -0.468315 -0.188038
  H 5.093452 -2.485280 -2.968900
  H 5.208568 -1.274262 -4.268184
  H 2.781957 -0.758768 -4.017321
  H 2.642223 -1.984314 -2.741852
  H 6.730397 0.273292 -1.631840
 20
 25.190843
  H 1.551113 0.816594 0.568786
  C 2.547510 0.423761 0.462921
  C 3.298862 0.100694 1.688900
  H 2.672864 0.275419 2.596575
  C 3.005939 0.208492 -0.815382
  C 4.263095 -0.265985 -1.159228
  C 4.952377 -0.489670 -2.365637
  C 4.706391 -1.551417 -3.352394
  C 3.222237 -1.765713 -3.684438
  H 3.107131 -2.581417 -4.397926
  O 6.088213 0.161749 -2.436436
  H 4.202633 0.718254 1.775668
  H 3.607829 -0.941438 1.697740
  H 2.335651 0.464687 -1.613040
  H 4.813169 -0.513475 -0.232780
  H 5.104673 -2.470731 -2.904973
  H 5.271251 -1.319388 -4.263484
  H 2.818730 -0.870192 -4.150065
  H 2.640962 -1.976048 -2.785567
  H 6.743924 0.299487 -1.721487
 20
 42.186718
  H 1.692241 1.126516 0.700609
  C 2.610723 0.588908 0.528963
  C 3.295020 0.011824 1.711999
  H 2.700038 0.170671 2.620066
  C 3.017173 0.438983 -0.771946
  C 4.176058 -0.201785 -1.162112
  C 4.783277 -0.436455 -2.432816
  C 4.719312 -1.530284 -3.385254
  C 3.292472 -1.968415 -3.688504
  H 3.290398 -2.831526 -4.347887
  O 5.863313 0.370413 -2.417647
  H 4.258113 0.502244 1.858654
  H 3.475613 -1.063156 1.605393
  H 2.431119 0.905716 -1.551376
  H 4.730204 -0.669436 -0.346855
  H 5.267132 -2.368466 -2.934195
  H 5.262258 -1.261951 -4.307481
  H 2.749907 -1.157038 -4.170988
  H 2.763666 -2.216822 -2.765606
  H 6.650378 0.292442 -1.880003
 20
 58.562862
  H 1.846353 1.298675 0.845244
  C 2.696059 0.671723 0.625635
  C 3.367291 0.051149 1.761062
  H 2.843781 0.281546 2.700140
  C 3.061193 0.544589 -0.690259
  C 4.158532 -0.230505 -1.107975
  C 4.595331 -0.492876 -2.446292
  C 4.698314 -1.536695 -3.459774
  C 3.330292 -2.111611 -3.837230
  H 3.450503 -2.886516 -4.573456
  O 5.578107 0.486388 -2.196217
  H 4.377578 0.405898 1.839224
  H 3.408711 -1.023956 1.651736
  H 2.500663 1.077558 -1.457453
  H 4.689521 -0.820498 -0.368468
  H 5.320742 -2.368469 -3.090216
  H 5.207891 -1.116393 -4.345701
  H 2.701254 -1.350858 -4.249657
  H 2.829007 -2.534117 -2.955082
  H 6.472759 0.286802 -1.816533
 20
 63.132819
  H 1.960560 1.373608 0.823880
  C 2.805434 0.745913 0.605758
  C 3.405586 0.036362 1.770134
  H 2.852494 0.256264 2.683243
  C 3.179120 0.645321 -0.669032
  C 4.284878 -0.210968 -1.115322
  C 4.536151 -0.627994 -2.453022
  C 4.694732 -1.595818 -3.524198
  C 3.343351 -2.220367 -3.886245
  H 3.488806 -2.944625 -4.686298
  O 5.361405 0.441854 -2.049055
  H 4.438661 0.346256 1.924054
  H 3.396922 -1.043328 1.619976
  H 2.638969 1.172924 -1.449312
  H 4.723338 -0.837933 -0.337440
  H 5.394019 -2.397649 -3.242535
  H 5.131579 -1.092389 -4.396176
  H 2.648295 -1.457790 -4.238637
  H 2.901637 -2.714813 -3.026482
  H 6.214021 0.398249 -1.540181
