 28
 0.000000
  C 0.897450 0.036643 0.273559
  C 2.389961 0.043244 0.091413
  C 3.233789 -0.026565 1.356013
  C 2.517699 -0.077415 2.705931
  C 3.537543 -0.138184 3.839434
  C 2.988774 0.116278 -1.116565
  C 2.336741 0.211405 -2.484373
  C 0.826939 0.205035 -2.707073
  H 0.627913 0.280321 -3.770869
  C 4.448226 0.121981 -1.211409
  C 5.184758 0.195780 -2.317118
  H 6.262214 0.194938 -2.313295
  H 0.623758 -0.026459 1.319268
  H 0.447888 -0.815092 -0.229902
  H 0.453872 0.946633 -0.121642
  H 3.891628 0.847827 1.378632
  H 3.870445 -0.914684 1.306226
  H 1.878978 -0.961151 2.765793
  H 1.898136 0.811404 2.843000
  H 4.162271 -1.024257 3.747333
  H 3.033848 -0.174693 4.802854
  H 4.181683 0.738577 3.824234
  H 2.744688 -0.619547 -3.070609
  H 2.720740 1.132088 -2.938014
  H 0.351936 1.047199 -2.212691
  H 0.380295 -0.715392 -2.341958
  H 4.994575 0.058474 -0.282620
  H 4.798541 0.264114 -3.321392
 28
 -0.466578
  C 0.903706 0.372928 0.286164
  C 2.389132 0.229833 0.098430
  C 3.234537 0.133325 1.359932
  C 2.518673 -0.155480 2.680162
  C 3.535631 -0.334827 3.803571
  C 2.984741 0.192631 -1.112447
  C 2.335918 0.175384 -2.484685
  C 0.834170 -0.003722 -2.678937
  H 0.636408 -0.048602 -3.747894
  C 4.445270 0.215742 -1.209383
  C 5.186036 0.169652 -2.308674
  H 6.258643 0.227953 -2.244993
  H 0.643166 0.470995 1.332000
  H 0.368215 -0.488178 -0.105343
  H 0.542953 1.262972 -0.224627
  H 3.798709 1.064201 1.484583
  H 3.956991 -0.673314 1.213222
  H 1.925286 -1.067848 2.589040
  H 1.853557 0.666556 2.951418
  H 4.208022 -1.162147 3.585897
  H 3.031354 -0.542778 4.744584
  H 4.132214 0.566779 3.926939
  H 2.813795 -0.649565 -3.021938
  H 2.635282 1.099069 -2.991980
  H 0.259203 0.822483 -2.275543
  H 0.485045 -0.934670 -2.241338
  H 4.981383 0.324008 -0.279467
  H 4.793545 0.075834 -3.304656
 28
 -0.414790
  C 0.936158 0.653457 0.289925
  C 2.404511 0.398593 0.101811
  C 3.236534 0.282568 1.368581
  C 2.515579 -0.284084 2.594727
  C 3.499305 -0.491771 3.741463
  C 2.996005 0.242158 -1.100283
  C 2.332209 0.112330 -2.459322
  C 0.836209 -0.151787 -2.592304
  H 0.610421 -0.312420 -3.646150
  C 4.455824 0.297283 -1.211511
  C 5.199831 0.105831 -2.297994
  H 6.268684 0.235548 -2.256727
  H 0.715554 0.894655 1.323436
  H 0.333168 -0.208273 0.016246
  H 0.622662 1.500030 -0.317183
  H 3.661850 1.255824 1.632993
  H 4.047608 -0.408340 1.141277
  H 2.056515 -1.240299 2.335664
  H 1.729145 0.389561 2.937168
  H 4.289484 -1.180797 3.450402
  H 2.990674 -0.902018 4.611043
  H 3.958099 0.452765 4.026827
  H 2.833306 -0.729723 -2.944601
  H 2.579746 1.007562 -3.040064
  H 0.233291 0.682710 -2.252971
  H 0.547297 -1.049229 -2.051974
  H 4.984838 0.593453 -0.317557
  H 4.811705 -0.180465 -3.259382
 28
 -0.883583
  C 0.971024 0.891185 0.292827
  C 2.417880 0.539103 0.101733
  C 3.227326 0.422410 1.375083
  C 2.530695 -0.410953 2.457904
  C 3.459882 -0.640496 3.644251
  C 3.006387 0.294077 -1.085734
  C 2.324398 0.062633 -2.420810
  C 0.841847 -0.290641 -2.470788
  H 0.587106 -0.570741 -3.492369
  C 4.464222 0.374560 -1.213731
  C 5.216289 0.025879 -2.254190
  H 6.276940 0.214455 -2.248256
  H 0.813927 1.278103 1.295865
  H 0.310378 0.037808 0.158589
  H 0.678642 1.668109 -0.410198
  H 3.471923 1.407415 1.781512
  H 4.136417 -0.114887 1.113204
  H 2.238757 -1.373548 2.032798
  H 1.627088 0.085097 2.814088
  H 4.361036 -1.163514 3.331022
  H 2.964980 -1.237365 4.407188
  H 3.753315 0.308608 4.088353
  H 2.852787 -0.781088 -2.871056
  H 2.506747 0.931202 -3.062618
  H 0.205145 0.541101 -2.191810
  H 0.625170 -1.140170 -1.828256
  H 4.975297 0.852892 -0.389543
  H 4.840188 -0.452862 -3.141082
 28
 0.547098
  C 1.004061 1.182932 0.258439
  C 2.415065 0.698388 0.103933
  C 3.191671 0.576170 1.390698
  C 2.557512 -0.513119 2.270696
  C 3.428801 -0.817183 3.482852
  C 3.016969 0.334412 -1.047464
  C 2.321482 -0.047058 -2.339424
  C 0.864024 -0.488943 -2.272469
  H 0.579603 -0.917770 -3.232352
  C 4.463271 0.497642 -1.203047
  C 5.236701 0.043519 -2.186260
  H 6.275587 0.322846 -2.240212
  H 0.902846 1.681378 1.220295
  H 0.267816 0.381428 0.225056
  H 0.766167 1.899237 -0.524993
  H 3.240015 1.510230 1.950416
  H 4.170488 0.197463 1.106423
  H 2.428283 -1.418924 1.674600
  H 1.569834 -0.195836 2.611276
  H 4.405838 -1.180189 3.171078
  H 2.963475 -1.576751 4.107205
  H 3.573374 0.078778 4.083139
  H 2.887139 -0.893159 -2.735432
  H 2.420038 0.769259 -3.062858
  H 0.192160 0.337749 -2.070209
  H 0.729912 -1.251214 -1.508643
  H 4.933654 1.132580 -0.463513
  H 4.890685 -0.601499 -2.974842
 28
 9.763260
  C 1.037206 1.413002 0.181401
  C 2.388795 0.771370 0.110749
  C 3.151790 0.609258 1.401222
  C 2.502986 -0.524701 2.225413
  C 3.420622 -0.972744 3.356010
  C 3.025531 0.289899 -0.989037
  C 2.365462 -0.236569 -2.251040
  C 0.926273 -0.722865 -2.112804
  H 0.628293 -1.241429 -3.022943
  C 4.432251 0.637459 -1.177594
  C 5.220978 0.296458 -2.195306
  H 6.208863 0.712639 -2.284942
  H 0.956289 1.959540 1.119436
  H 0.211193 0.702078 0.150874
  H 0.913358 2.108060 -0.647624
  H 3.248844 1.508701 2.003715
  H 4.063209 0.123675 1.033457
  H 2.283478 -1.367010 1.566748
  H 1.554497 -0.184916 2.650424
  H 4.353206 -1.367741 2.959334
  H 2.943012 -1.749311 3.949575
  H 3.655682 -0.136521 4.010518
  H 2.974179 -1.082398 -2.577173
  H 2.411479 0.520035 -3.043279
  H 0.238230 0.099436 -1.960975
  H 0.834013 -1.415352 -1.278729
  H 4.839740 1.315219 -0.438819
  H 4.926627 -0.375049 -2.981352
 28
 26.666071
  C 1.052285 1.683071 0.060553
  C 2.309966 0.887816 0.115351
  C 3.027120 0.638143 1.416200
  C 2.491732 -0.630661 2.120282
  C 3.476019 -1.115170 3.175401
  C 3.018081 0.330057 -0.921055
  C 2.398357 -0.356907 -2.119089
  C 0.998791 -0.905347 -1.901193
  H 0.716274 -1.537566 -2.739869
  C 4.377243 0.785172 -1.143222
  C 5.198032 0.420859 -2.132939
  H 6.150301 0.911773 -2.262210
  H 0.944288 2.234073 0.990162
  H 0.155600 1.074396 -0.060068
  H 1.091559 2.380990 -0.770371
  H 3.058179 1.465501 2.113817
  H 3.899226 0.171651 0.920004
  H 2.308243 -1.414095 1.384006
  H 1.536394 -0.408209 2.607419
  H 4.425252 -1.390966 2.719283
  H 3.077847 -1.983837 3.696050
  H 3.664721 -0.332918 3.907973
  H 3.053794 -1.200254 -2.340861
  H 2.406123 0.293729 -2.996316
  H 0.266048 -0.106797 -1.824287
  H 0.958699 -1.501954 -0.992674
  H 4.729109 1.533093 -0.445523
  H 4.948141 -0.320327 -2.874910
 28
 53.775369
  C 1.053607 1.854798 -0.056659
  C 2.221304 0.951641 0.127534
  C 2.859667 0.628350 1.421432
  C 2.489214 -0.700987 2.121189
  C 3.606521 -1.168060 3.041766
  C 2.986867 0.294231 -0.825618
  C 2.432751 -0.443738 -2.030741
  C 1.025058 -0.994917 -1.839220
  H 0.763864 -1.645577 -2.671536
  C 4.326521 0.828472 -1.047315
  C 5.166054 0.504438 -2.027657
  H 6.101017 1.025326 -2.140040
  H 0.912335 2.444171 0.847164
  H 0.126322 1.304221 -0.234891
  H 1.210590 2.521043 -0.903338
  H 2.916741 1.431039 2.153140
  H 3.664305 0.023848 0.743273
  H 2.262855 -1.472903 1.383274
  H 1.581797 -0.546760 2.719606
  H 4.510476 -1.380424 2.473819
  H 3.310231 -2.071681 3.569751
  H 3.839255 -0.401707 3.777596
  H 3.107345 -1.279250 -2.229981
  H 2.452019 0.204918 -2.913609
  H 0.290034 -0.196648 -1.796040
  H 0.960152 -1.572368 -0.919022
  H 4.625975 1.603568 -0.352866
  H 4.958933 -0.252064 -2.762860
 28
 68.863607
  C 1.080576 1.928995 -0.073434
  C 2.208357 0.986824 0.167511
  C 2.745927 0.631850 1.424598
  C 2.464393 -0.719906 2.080305
  C 3.610091 -1.184095 2.972719
  C 3.017144 0.274881 -0.788107
  C 2.442174 -0.484597 -1.970796
  C 1.040549 -1.039453 -1.745853
  H 0.763298 -1.693170 -2.570515
  C 4.358720 0.847818 -1.039513
  C 5.184547 0.537077 -2.032858
  H 6.123586 1.051272 -2.146000
  H 0.884873 2.499443 0.832767
  H 0.167883 1.388465 -0.325822
  H 1.297090 2.616614 -0.890534
  H 2.775420 1.408046 2.200395
  H 3.625443 -0.100175 0.490066
  H 2.256311 -1.481905 1.325166
  H 1.562200 -0.609343 2.694563
  H 4.512066 -1.348534 2.385822
  H 3.350994 -2.113705 3.474288
  H 3.828465 -0.435160 3.730659
  H 3.112041 -1.323409 -2.177005
  H 2.447044 0.158149 -2.856677
  H 0.303481 -0.243898 -1.688769
  H 0.997533 -1.614742 -0.823460
  H 4.652978 1.626007 -0.345244
  H 4.972456 -0.220398 -2.766151
 28
 52.363419
  C 1.168884 2.016863 -0.082835
  C 2.231448 1.018649 0.222945
  C 2.656629 0.638872 1.460117
  C 2.412534 -0.728256 2.056308
  C 3.547070 -1.213937 2.957640
  C 3.071622 0.243321 -0.757904
  C 2.458922 -0.536899 -1.907314
  C 1.082499 -1.118196 -1.613219
  H 0.780008 -1.779185 -2.422686
  C 4.394634 0.888074 -1.071500
  C 5.169959 0.628006 -2.104502
  H 6.107640 1.141368 -2.232690
  H 0.933798 2.594304 0.810336
  H 0.265076 1.495913 -0.391151
  H 1.452604 2.700114 -0.885431
  H 2.641142 1.379748 2.275116
  H 3.598273 -0.222130 0.206722
  H 2.243356 -1.466669 1.269758
  H 1.497337 -0.647989 2.648169
  H 4.465628 -1.334308 2.386488
  H 3.296012 -2.170639 3.409901
  H 3.731714 -0.496631 3.753865
  H 3.130232 -1.366427 -2.142290
  H 2.412958 0.103794 -2.790349
  H 0.332584 -0.338504 -1.522977
  H 1.094752 -1.691895 -0.689889
  H 4.696598 1.651333 -0.365293
  H 4.934502 -0.113280 -2.846494
 28
 29.865053
  C 1.328471 2.053886 -0.156174
  C 2.263852 0.968660 0.248460
  C 2.553014 0.612499 1.512050
  C 2.402564 -0.771392 2.092052
  C 3.549262 -1.190820 3.012551
  C 3.082643 0.147286 -0.729810
  C 2.436525 -0.564639 -1.907022
  C 1.059810 -1.147593 -1.606416
  H 0.720498 -1.751605 -2.445459
  C 4.362428 0.884175 -1.079509
  C 5.103185 0.709906 -2.160380
  H 6.004403 1.280067 -2.313296
  H 1.039801 2.648013 0.709275
  H 0.431448 1.598824 -0.570712
  H 1.752943 2.714714 -0.913984
  H 2.442522 1.335962 2.326337
  H 3.589145 -0.421554 0.101778
  H 2.287243 -1.517847 1.302464
  H 1.473055 -0.754073 2.667102
  H 4.477963 -1.278190 2.451802
  H 3.337408 -2.150724 3.478504
  H 3.693516 -0.452231 3.798565
  H 3.091365 -1.391200 -2.199635
  H 2.380209 0.121364 -2.754804
  H 0.324898 -0.366399 -1.435314
  H 1.094757 -1.780524 -0.722678
  H 4.656079 1.628119 -0.348030
  H 4.867732 -0.010137 -2.924449
 28
 12.086510
  C 1.536299 2.096875 -0.191305
  C 2.321300 0.906544 0.264582
  C 2.432598 0.537315 1.521956
  C 2.374905 -0.860863 2.066091
  C 3.461731 -1.155687 3.102622
  C 3.130972 0.104097 -0.741081
  C 2.420153 -0.594516 -1.897336
  C 1.071436 -1.192204 -1.512234
  H 0.671686 -1.773185 -2.341020
  C 4.361236 0.890673 -1.135413
  C 5.013025 0.813931 -2.282681
  H 5.907258 1.389873 -2.455907
  H 1.265780 2.730008 0.652574
  H 0.619320 1.742732 -0.656182
  H 2.077528 2.694632 -0.927416
  H 2.208568 1.252157 2.315593
  H 3.621705 -0.582857 -0.026055
  H 2.432808 -1.603041 1.266098
  H 1.395108 -0.953153 2.541413
  H 4.447805 -1.102751 2.646272
  H 3.330839 -2.149634 3.525811
  H 3.421216 -0.429666 3.912497
  H 3.061542 -1.399184 -2.263548
  H 2.287954 0.117344 -2.714962
  H 0.349784 -0.418970 -1.265238
  H 1.173003 -1.850224 -0.652916
  H 4.724229 1.553250 -0.356510
  H 4.703776 0.172938 -3.090295
 28
 0.544162
  C 1.679941 2.059965 -0.239341
  C 2.329614 0.805842 0.258406
  C 2.303817 0.444242 1.536096
  C 2.426874 -0.935745 2.116556
  C 3.502105 -1.026611 3.199543
  C 3.112910 -0.014572 -0.743369
  C 2.352030 -0.536545 -1.960637
  C 1.002903 -1.146534 -1.595825
  H 0.557450 -1.619175 -2.469019
  C 4.346446 0.785466 -1.092653
  C 4.972486 0.806289 -2.254493
  H 5.865096 1.392318 -2.398099
  H 1.389337 2.702334 0.589307
  H 0.782483 1.797106 -0.796583
  H 2.336009 2.617068 -0.908189
  H 1.982700 1.146676 2.300639
  H 3.527026 -0.845853 -0.151305
  H 2.623381 -1.685382 1.349311
  H 1.454436 -1.168702 2.561155
  H 4.482993 -0.818072 2.777210
  H 3.520491 -2.020597 3.641314
  H 3.309375 -0.302717 3.988593
  H 2.956389 -1.311737 -2.437434
  H 2.217916 0.272045 -2.681645
  H 0.309578 -0.396231 -1.226614
  H 1.124970 -1.902053 -0.822685
  H 4.724470 1.383656 -0.272289
  H 4.643350 0.237024 -3.106517
 28
 -4.906523
  C 1.815918 2.038801 -0.241530
  C 2.349118 0.725619 0.252826
  C 2.196454 0.349653 1.515908
  C 2.456954 -0.990308 2.136902
  C 3.465199 -0.894052 3.282042
  C 3.123548 -0.084725 -0.764238
  C 2.299495 -0.491593 -1.988525
  C 0.982752 -1.152881 -1.596754
  H 0.461825 -1.511714 -2.482076
  C 4.370120 0.694555 -1.100363
  C 4.916634 0.845877 -2.292082
  H 5.824536 1.410913 -2.423665
  H 1.486755 2.662244 0.586520
  H 0.963741 1.867901 -0.898113
  H 2.571930 2.576535 -0.812663
  H 1.779840 1.048093 2.234200
  H 3.483113 -0.989891 -0.258279
  H 2.810152 -1.717608 1.405941
  H 1.505048 -1.358638 2.532445
  H 4.426689 -0.546571 2.909827
  H 3.606484 -1.865006 3.751832
  H 3.117784 -0.192959 4.038004
  H 2.881274 -1.202096 -2.579984
  H 2.108403 0.384634 -2.610209
  H 0.332012 -0.456549 -1.074327
  H 1.164806 -2.000494 -0.939397
  H 4.838389 1.152335 -0.236816
  H 4.497603 0.417426 -3.185993
 28
 -6.473321
  C 1.940833 2.051700 -0.218168
  C 2.373168 0.691250 0.251081
  C 2.107420 0.285612 1.486645
  C 2.445970 -1.014377 2.147516
  C 3.419599 -0.796147 3.305360
  C 3.131370 -0.123786 -0.776782
  C 2.264074 -0.466694 -1.991904
  C 0.997339 -1.211307 -1.587271
  H 0.422652 -1.490373 -2.468352
  C 4.397370 0.612438 -1.118808
  C 4.859034 0.892477 -2.323125
  H 5.789154 1.419951 -2.457185
  H 1.582265 2.654748 0.612702
  H 1.135774 1.966143 -0.947815
  H 2.770801 2.567976 -0.699288
  H 1.600984 0.973929 2.152425
  H 3.441470 -1.066867 -0.310605
  H 2.878266 -1.726095 1.444289
  H 1.522929 -1.455128 2.537930
  H 4.355593 -0.380116 2.937203
  H 3.632862 -1.737215 3.808859
  H 3.000009 -0.104012 4.031211
  H 2.843677 -1.096811 -2.669016
  H 2.000847 0.447025 -2.525945
  H 0.371239 -0.593321 -0.947145
  H 1.247300 -2.118067 -1.039684
  H 4.961531 0.921651 -0.246227
  H 4.343047 0.614917 -3.226467
