 14
 0.000000
  C 0.906806 0.052618 0.210545
  C 2.399804 0.058848 0.116854
  H 2.945063 0.004143 1.048240
  C 3.071476 0.123919 -1.032868
  H 2.540243 0.178704 -1.973591
  C 4.510408 0.128103 -1.129703
  C 5.170559 0.193961 -2.289223
  O 6.519347 0.200778 -2.433860
  H 0.582739 0.003206 1.246945
  H 0.488077 -0.806353 -0.314234
  H 0.485628 0.954966 -0.231291
  H 5.069725 0.074307 -0.202464
  H 4.676450 0.249502 -3.248267
  H 6.940973 0.150471 -1.564869
 14
 3.809063
  C 0.911667 0.081866 0.223391
  C 2.380363 0.067955 0.119980
  H 2.938410 0.008431 1.047063
  C 3.054850 0.135500 -1.030471
  H 2.516958 0.199682 -1.968301
  C 4.493725 0.122407 -1.126508
  C 5.154635 0.189885 -2.285734
  O 6.501408 0.185675 -2.431722
  H 0.551850 -0.008194 1.242015
  H 0.718533 -0.804004 -0.343295
  H 0.453348 0.949067 -0.248384
  H 5.047498 0.056216 -0.196699
  H 4.656265 0.257925 -3.241399
  H 6.922278 0.124856 -1.562453
 14
 11.979069
  C 0.896297 0.097727 0.230478
  C 2.373518 0.091466 0.126424
  H 2.943050 0.035535 1.042152
  C 3.045495 0.162703 -1.024403
  H 2.508077 0.244930 -1.957044
  C 4.481724 0.118867 -1.123905
  C 5.140551 0.189221 -2.279850
  O 6.490943 0.158514 -2.428932
  H 0.512059 -0.029495 1.236875
  H 0.928827 -0.804107 -0.343117
  H 0.408374 0.911662 -0.285160
  H 5.033932 0.028502 -0.196286
  H 4.641151 0.281821 -3.232924
  H 6.903888 0.077451 -1.575159
 14
 22.262746
  C 0.884413 0.111164 0.239579
  C 2.367880 0.089710 0.120469
  H 2.951220 0.024750 1.046155
  C 3.039132 0.169889 -1.031695
  H 2.499189 0.271666 -1.972027
  C 4.472519 0.112337 -1.128484
  C 5.135945 0.193443 -2.283677
  O 6.469452 0.150403 -2.425761
  H 0.501329 -0.013781 1.231177
  H 1.082374 -0.795243 -0.303130
  H 0.373089 0.884635 -0.324452
  H 5.022530 0.001777 -0.199385
  H 4.643401 0.306693 -3.235368
  H 6.882032 0.051155 -1.557609
 14
 32.607046
  C 0.868314 0.121700 0.252426
  C 2.353594 0.084095 0.104738
  H 2.946964 0.011571 1.030633
  C 3.028474 0.177730 -1.047329
  H 2.491390 0.301089 -1.989322
  C 4.462091 0.105469 -1.137584
  C 5.134766 0.200001 -2.283748
  O 6.492536 0.144072 -2.417890
  H 0.497764 0.014978 1.246209
  H 1.192870 -0.788592 -0.238989
  H 0.333838 0.843726 -0.356168
  H 5.005512 -0.027572 -0.208009
  H 4.648318 0.336950 -3.241719
  H 6.896065 0.025908 -1.550484
 14
 40.676263
  C 0.852853 0.131918 0.259266
  C 2.347212 0.081025 0.093570
  H 2.926297 -0.009406 1.009155
  C 3.027445 0.192539 -1.058578
  H 2.495717 0.344171 -1.992232
  C 4.461613 0.099701 -1.146708
  C 5.142863 0.211268 -2.289071
  O 6.495643 0.137115 -2.416690
  H 0.489795 0.075992 1.268552
  H 1.290804 -0.798801 -0.161826
  H 0.298547 0.769326 -0.405101
  H 5.000043 -0.063521 -0.217459
  H 4.666335 0.377172 -3.241981
  H 6.890971 -0.006047 -1.549322
 14
 47.167606
  C 0.851530 0.141748 0.272639
  C 2.338128 0.074664 0.080244
  H 2.898380 -0.033669 0.986669
  C 3.027967 0.198512 -1.072364
  H 2.503236 0.365435 -1.995854
  C 4.457947 0.094988 -1.154164
  C 5.150418 0.216630 -2.291701
  O 6.503211 0.133617 -2.407697
  H 0.503730 0.112755 1.278319
  H 1.366654 -0.798644 -0.105037
  H 0.268008 0.730343 -0.428477
  H 4.987812 -0.084204 -0.225581
  H 4.680209 0.400390 -3.252929
  H 6.887365 -0.022799 -1.539413
 14
 51.427170
  C 0.844736 0.154455 0.270919
  C 2.336710 0.064945 0.075567
  H 2.906058 -0.062252 0.992175
  C 3.027176 0.209484 -1.078504
  H 2.498753 0.402635 -2.001560
  C 4.456086 0.090143 -1.161806
  C 5.152430 0.225596 -2.293828
  O 6.507504 0.129536 -2.407637
  H 0.490001 0.174789 1.281596
  H 1.429247 -0.803827 -0.043754
  H 0.255366 0.656701 -0.472852
  H 4.984142 -0.112729 -0.235559
  H 4.690301 0.431211 -3.246000
  H 6.887221 -0.045863 -1.539313
 14
 55.339520
  C 0.855493 0.162830 0.275494
  C 2.335049 0.053614 0.074659
  H 2.894156 -0.078724 0.974287
  C 3.030937 0.210826 -1.082112
  H 2.492630 0.416962 -2.021201
  C 4.451046 0.086771 -1.161837
  C 5.152188 0.228323 -2.291572
  O 6.506456 0.126822 -2.399560
  H 0.495311 0.196656 1.286109
  H 1.482590 -0.797376 -0.014552
  H 0.262198 0.628089 -0.493074
  H 4.981832 -0.127742 -0.226018
  H 4.691524 0.444254 -3.250958
  H 6.880424 -0.055846 -1.530882
 14
 58.303560
  C 0.848333 0.176869 0.275580
  C 2.334090 0.041180 0.076382
  H 2.901618 -0.092869 0.985375
  C 3.031602 0.210761 -1.083383
  H 2.500716 0.421769 -2.002168
  C 4.452551 0.084632 -1.166560
  C 5.154558 0.231866 -2.295750
  O 6.512208 0.125915 -2.406374
  H 0.480319 0.219107 1.276634
  H 1.517984 -0.801057 0.001327
  H 0.256878 0.606742 -0.513480
  H 4.983149 -0.137148 -0.236247
  H 4.701111 0.450262 -3.238084
  H 6.886691 -0.062675 -1.538685
 14
 61.177504
  C 0.846898 0.197253 0.276039
  C 2.335095 0.025802 0.078887
  H 2.910548 -0.106539 0.995654
  C 3.034990 0.202345 -1.083055
  H 2.503149 0.421160 -1.997989
  C 4.458723 0.067786 -1.168568
  C 5.163642 0.222778 -2.295203
  O 6.515925 0.135639 -2.394862
  H 0.466398 0.239861 1.279229
  H 1.548020 -0.806343 0.009067
  H 0.265557 0.598013 -0.522290
  H 4.981548 -0.152332 -0.253272
  H 4.701159 0.460730 -3.264794
  H 6.885763 -0.054218 -1.523693
 14
 63.749375
  C 0.849609 0.210186 0.276248
  C 2.334252 0.014915 0.081702
  H 2.917336 -0.107746 0.993807
  C 3.037925 0.207593 -1.084482
  H 2.506453 0.425035 -1.988332
  C 4.455936 0.084436 -1.169544
  C 5.161046 0.237718 -2.297189
  O 6.515628 0.118786 -2.401752
  H 0.461379 0.240272 1.270140
  H 1.584585 -0.816414 0.010646
  H 0.268524 0.581396 -0.541027
  H 4.990590 -0.149188 -0.238871
  H 4.707166 0.461454 -3.250380
  H 6.883322 -0.077929 -1.531550
 14
 65.893361
  C 0.860142 0.237439 0.283249
  C 2.339557 -0.002928 0.090221
  H 2.914837 -0.119809 0.992963
  C 3.043845 0.193594 -1.081394
  H 2.499197 0.422058 -2.004752
  C 4.456521 0.061299 -1.168590
  C 5.166859 0.222595 -2.296418
  O 6.525971 0.134913 -2.396604
  H 0.458247 0.249546 1.272922
  H 1.612692 -0.826627 0.014841
  H 0.276504 0.587985 -0.546933
  H 4.973438 -0.160691 -0.268886
  H 4.719171 0.457190 -3.236991
  H 6.895281 -0.059216 -1.526214
 14
 67.434890
  C 0.859654 0.260589 0.279199
  C 2.340486 -0.014572 0.089695
  H 2.920387 -0.122284 1.003083
  C 3.050161 0.198333 -1.084382
  H 2.512631 0.418841 -1.990000
  C 4.461545 0.074359 -1.170172
  C 5.169671 0.232056 -2.298838
  O 6.523886 0.120266 -2.402056
  H 0.443448 0.245865 1.262458
  H 1.645969 -0.850155 0.004067
  H 0.274485 0.582795 -0.554605
  H 4.993823 -0.160397 -0.246903
  H 4.715346 0.460411 -3.251687
  H 6.892493 -0.078383 -1.531700
