17

C 0.97716 0.1339 0.390824
C 2.455161 0.140974 0.392878
H 3.0171674161368136 0.4804291093436144 1.237756107753757
C 3.079739 -0.320812 -0.757117
C 4.459191 -0.410027 -0.97063
C 5.12361 -0.865372 -2.099632
C 4.619688 -1.387093 -3.401578
H 3.5725389624570614 -1.466503953244619 -3.6066945368215793
O 6.449759 -0.867745 -2.096804
H 0.539411 0.495543 1.314463
H 0.613329 -0.880573 0.221048
H 0.59485 0.751966 -0.423466
H 2.425163 -0.639879 -1.550464
H 5.082671 -0.079297 -0.148289
H 5.071153 -2.377876 -3.528246
H 5.07578 -0.761618 -4.177674
H 6.828476 -0.533919 -1.262128
