 20
 0.000000
  C 1.006706 -0.070433 0.049790
  C 2.503023 -0.083110 0.024903
  C 3.216525 -0.596556 -0.983080
  C 4.654423 -0.607093 -1.003765
  C 5.378801 -1.121116 -2.012877
  C 6.817289 -1.130165 -2.030638
  C 7.535689 -1.641927 -3.035319
  C 9.025517 -1.661773 -3.074272
  H 0.646222 0.395920 0.965312
  H 0.610242 -1.084695 0.011005
  H 0.610243 0.494540 -0.793442
  H 3.005821 0.351625 0.878362
  H 2.703734 -1.029460 -1.832931
  H 5.156860 -0.171782 -0.149180
  H 4.877203 -1.556586 -2.867776
  H 7.326025 -0.695952 -1.178205
  H 7.036683 -2.078056 -3.891500
  H 9.459086 -1.208680 -2.184780
  H 9.384653 -1.116277 -3.948188
  H 9.384654 -2.689404 -3.146870
 20
 -0.043479
  C 1.002287 -0.042964 0.038880
  C 2.496688 -0.110667 0.042780
  C 3.221315 -0.614544 -0.960326
  C 4.656169 -0.654552 -0.966298
  C 5.384785 -1.127941 -1.993705
  C 6.820438 -1.127756 -2.033522
  C 7.539094 -1.647036 -3.031643
  C 9.026915 -1.645077 -3.094410
  H 0.629534 0.448598 0.934753
  H 0.573296 -1.043793 -0.007475
  H 0.645008 0.507485 -0.832436
  H 2.998489 0.271487 0.918882
  H 2.718683 -1.002028 -1.839061
  H 5.157201 -0.256049 -0.093846
  H 4.879422 -1.535474 -2.858740
  H 7.326439 -0.656731 -1.201376
  H 7.035195 -2.114714 -3.867920
  H 9.456262 -1.154992 -2.222457
  H 9.366573 -1.127305 -3.991589
  H 9.405014 -2.667444 -3.144956
 20
 0.177997
  C 1.008556 -0.010968 0.034290
  C 2.496960 -0.148082 0.059003
  C 3.216758 -0.634360 -0.956000
  C 4.648499 -0.734594 -0.945524
  C 5.379673 -1.139915 -1.999744
  C 6.815427 -1.137674 -2.032407
  C 7.540653 -1.630971 -3.038855
  C 9.028371 -1.617170 -3.097715
  H 0.647590 0.508445 0.918426
  H 0.534645 -0.991867 -0.004199
  H 0.687887 0.540531 -0.848966
  H 2.999799 0.161775 0.964657
  H 2.714875 -0.950416 -1.861853
  H 5.149740 -0.409241 -0.042353
  H 4.875971 -1.481665 -2.895951
  H 7.316083 -0.672458 -1.193013
  H 7.041401 -2.088971 -3.883447
  H 9.450838 -1.130367 -2.220705
  H 9.366548 -1.090762 -3.990459
  H 9.414578 -2.635380 -3.155157
 20
 0.577865
  C 1.018079 0.025487 0.027831
  C 2.496898 -0.179514 0.073441
  C 3.213018 -0.665997 -0.943878
  C 4.640568 -0.807870 -0.921747
  C 5.375380 -1.158319 -1.993209
  C 6.811569 -1.139351 -2.029177
  C 7.538931 -1.623696 -3.037996
  C 9.025349 -1.587004 -3.105433
  H 0.675015 0.585632 0.890379
  H 0.500417 -0.935440 0.017889
  H 0.728475 0.563519 -0.879066
  H 2.996031 0.074172 1.001787
  H 2.712909 -0.931028 -1.870920
  H 5.138992 -0.537501 0.000931
  H 4.874585 -1.456346 -2.905709
  H 7.309975 -0.655429 -1.198400
  H 7.044486 -2.093229 -3.875569
  H 9.444701 -1.079943 -2.238845
  H 9.350412 -1.068061 -4.010277
  H 9.427805 -2.601340 -3.149082
 20
 1.069706
  C 1.032355 0.063310 0.035157
  C 2.498015 -0.223927 0.085310
  C 3.203965 -0.680275 -0.953366
  C 4.620164 -0.894318 -0.917229
  C 5.364286 -1.174849 -2.003548
  C 6.800408 -1.159661 -2.022736
  C 7.538778 -1.596059 -3.045459
  C 9.026229 -1.549862 -3.098552
  H 0.705462 0.586317 0.930028
  H 0.465174 -0.864242 -0.041908
  H 0.787206 0.671774 -0.835525
  H 2.995704 -0.054437 1.031286
  H 2.708611 -0.854757 -1.900268
  H 5.115441 -0.707448 0.027931
  H 4.871605 -1.395401 -2.944419
  H 7.293431 -0.710466 -1.170875
  H 7.051395 -2.030717 -3.909475
  H 9.435179 -1.075227 -2.209407
  H 9.354072 -0.991234 -3.974175
  H 9.435232 -2.559707 -3.181690
 20
 0.742113
  C 1.022086 0.054885 0.043365
  C 2.493976 -0.204991 0.090444
  C 3.206323 -0.643380 -0.951479
  C 4.631308 -0.832287 -0.923969
  C 5.371390 -1.133035 -2.005562
  C 6.812059 -1.140288 -2.027014
  C 7.542636 -1.573653 -3.055025
  C 9.031076 -1.556286 -3.100426
  H 0.668789 0.479199 0.979072
  H 0.476658 -0.870994 -0.142167
  H 0.778864 0.744729 -0.764701
  H 2.990231 -0.030803 1.035973
  H 2.710566 -0.826587 -1.897225
  H 5.122872 -0.634367 0.019985
  H 4.874773 -1.360550 -2.941270
  H 7.301060 -0.712482 -1.159790
  H 7.049005 -1.986903 -3.925743
  H 9.444949 -1.125458 -2.191617
  H 9.378604 -0.975006 -3.954945
  H 9.415663 -2.569448 -3.217723
 20
 0.610608
  C 1.017359 0.033176 0.043712
  C 2.491685 -0.199514 0.092787
  C 3.215052 -0.615213 -0.951085
  C 4.642567 -0.785662 -0.923730
  C 5.374850 -1.128884 -1.996115
  C 6.815010 -1.136474 -2.025730
  C 7.539229 -1.585826 -3.051745
  C 9.026340 -1.570808 -3.106052
  H 0.632951 0.319392 1.018500
  H 0.497593 -0.867083 -0.284118
  H 0.778463 0.825707 -0.667088
  H 2.982702 -0.014976 1.036482
  H 2.724584 -0.807665 -1.899191
  H 5.137427 -0.549271 0.010973
  H 4.872378 -1.391704 -2.920683
  H 7.309539 -0.700357 -1.164452
  H 7.040269 -2.007098 -3.914780
  H 9.447111 -1.166373 -2.187851
  H 9.369099 -0.966568 -3.944807
  H 9.408680 -2.582507 -3.254843
