 28
 0.000000
  C 0.981546 0.143067 0.407684
  C 2.454962 0.142438 0.405252
  C 3.239378 0.609488 1.567200
  C 2.464185 1.098273 2.784395
  H 3.149424 1.411526 3.563728
  C 3.065367 -0.324292 -0.756887
  C 4.445523 -0.415567 -0.984970
  C 5.093972 -0.865665 -2.106390
  C 4.607813 -1.383205 -3.396243
  C 3.121765 -1.506712 -3.705572
  C 2.915428 -2.070254 -5.110105
  H 6.175895 -0.857615 -2.086241
  H 0.549419 0.513486 1.329898
  H 0.610712 -0.868546 0.237166
  H 0.610172 0.755319 -0.415238
  H 3.898309 1.417915 1.230293
  H 3.898784 -0.206950 1.883134
  H 1.831371 0.307466 3.182065
  H 1.830954 1.944140 2.524601
  H 2.398964 -0.640146 -1.542637
  H 5.080454 -0.088631 -0.170922
  H 5.072273 -2.370302 -3.521983
  H 5.073020 -0.757349 -4.169436
  H 2.642853 -0.527642 -3.657059
  H 2.642108 -2.180268 -2.993858
  H 3.360153 -1.421478 -5.861225
  H 1.853692 -2.156897 -5.327205
  H 3.359469 -3.058614 -5.204253
 28
 15.287412
  C 0.921959 0.197925 0.544765
  C 2.456889 0.114448 0.335727
  C 3.313340 0.565216 1.456644
  C 2.615812 1.067530 2.707599
  H 3.369120 1.359468 3.433869
  C 2.813076 -0.368772 -0.866962
  C 4.162105 -0.394286 -0.931940
  C 4.945093 -0.828044 -2.012715
  C 4.591256 -1.355718 -3.327505
  C 3.138198 -1.527281 -3.756626
  C 3.065220 -2.095658 -5.173858
  H 6.016916 -0.767334 -1.861550
  H 0.622092 0.584285 1.505988
  H 0.498844 -0.792664 0.412756
  H 0.498291 0.821283 -0.236055
  H 3.964696 1.368247 1.105688
  H 3.965403 -0.256955 1.758746
  H 1.999131 0.296272 3.160621
  H 1.998630 1.937545 2.501350
  H 2.124690 -0.669706 -1.615232
  H 4.766468 -0.064901 -0.112248
  H 5.107975 -2.326540 -3.426002
  H 5.108523 -0.722726 -4.069874
  H 2.626777 -0.564556 -3.745522
  H 2.625961 -2.215027 -3.083461
  H 3.548787 -1.432144 -5.886962
  H 2.029194 -2.217956 -5.480241
  H 3.547864 -3.068512 -5.230750
 28
 54.639575
  C 0.941895 0.226630 0.615185
  C 2.514219 0.088699 0.271141
  C 3.364873 0.539593 1.391902
  C 2.675675 1.039136 2.638648
  H 3.442465 1.326521 3.350510
  C 2.650693 -0.401854 -0.949588
  C 3.974866 -0.384896 -0.908190
  C 4.863068 -0.809998 -1.966956
  C 4.584467 -1.339960 -3.287770
  C 3.154957 -1.531946 -3.768232
  C 3.133250 -2.101421 -5.188592
  H 5.922553 -0.722935 -1.749493
  H 0.713337 0.620459 1.594632
  H 0.503141 -0.750463 0.510736
  H 0.502617 0.859290 -0.136576
  H 4.007388 1.354470 1.060701
  H 4.010225 -0.274240 1.720326
  H 2.067762 0.269877 3.101949
  H 2.064367 1.913259 2.442344
  H 1.918842 -0.688481 -1.662539
  H 4.578432 -0.052205 -0.079710
  H 5.143036 -2.297172 -3.354814
  H 5.144123 -0.695101 -3.997863
  H 2.634453 -0.574693 -3.769407
  H 2.633760 -2.224281 -3.107631
  H 3.630979 -1.431524 -5.885382
  H 2.109345 -2.236830 -5.527851
  H 3.630069 -3.067742 -5.229616
 28
 103.413374
  C 0.915545 0.247142 0.666599
  C 2.579740 0.073752 0.234695
  C 3.394769 0.540962 1.394746
  C 2.701692 1.046027 2.654511
  H 3.478594 1.331677 3.362320
  C 2.563850 -0.419981 -0.993565
  C 3.876536 -0.368953 -0.867475
  C 4.840812 -0.813670 -1.975045
  C 4.587015 -1.341722 -3.291757
  C 3.170482 -1.543690 -3.796927
  C 3.182102 -2.110733 -5.213154
  H 5.894204 -0.716071 -1.730800
  H 0.717093 0.637305 1.636996
  H 0.488722 -0.737783 0.568610
  H 0.487885 0.889788 -0.086095
  H 4.036362 1.370002 1.064469
  H 4.039790 -0.282695 1.731290
  H 2.096561 0.277306 3.126080
  H 2.093456 1.925820 2.464510
  H 1.819029 -0.695303 -1.678438
  H 4.542129 -0.051112 -0.074544
  H 5.143868 -2.290499 -3.357640
  H 5.144205 -0.702205 -3.994070
  H 2.641655 -0.591386 -3.809115
  H 2.641995 -2.240823 -3.147462
  H 3.687383 -1.436762 -5.899329
  H 2.167632 -2.254242 -5.571927
  H 3.687028 -3.071859 -5.244815
 28
 118.323646
  C 0.407115 0.185360 0.539467
  C 3.158806 0.154328 0.241975
  C 3.628922 0.590204 1.536008
  C 2.578540 0.957690 2.614914
  H 3.118206 1.266737 3.507961
  C 2.868012 -0.240887 -0.918099
  C 4.371525 -0.312599 -0.967333
  C 5.035337 -0.785716 -2.033823
  C 4.617951 -1.367427 -3.341964
  C 3.142300 -1.502352 -3.693725
  C 2.973585 -2.127656 -5.073275
  H 6.113237 -0.762082 -1.948737
  H 0.163067 0.529022 1.526037
  H 0.378254 -0.865147 0.345534
  H 0.275148 0.865993 -0.276711
  H 4.254040 1.475687 1.379641
  H 4.255579 -0.206689 1.947954
  H 1.964679 0.105397 2.882720
  H 1.956734 1.791304 2.301529
  H 2.124405 -0.492487 -1.635658
  H 5.067594 0.068933 -0.236268
  H 5.081130 -2.356820 -3.407566
  H 5.103496 -0.760410 -4.108342
  H 2.673434 -0.516900 -3.717805
  H 2.641737 -2.144112 -2.971974
  H 3.448272 -1.519117 -5.835633
  H 1.923535 -2.219542 -5.321247
  H 3.416184 -3.118361 -5.108651
 28
 117.206991
  C 0.175692 0.191508 0.485001
  C 3.416255 0.181927 0.247112
  C 3.786641 0.574171 1.575120
  C 2.574679 0.869971 2.482966
  H 2.946712 1.169442 3.458684
  C 2.969339 -0.156335 -0.873622
  C 4.491923 -0.269350 -0.969009
  C 5.108486 -0.754676 -2.052931
  C 4.624620 -1.345947 -3.336068
  C 3.130673 -1.495355 -3.609757
  C 2.901598 -2.137981 -4.974338
  H 6.190125 -0.739028 -2.026240
  H -0.106121 0.507011 1.470772
  H 0.213396 -0.856429 0.261646
  H 0.116536 0.898462 -0.322524
  H 4.409047 1.471157 1.516096
  H 4.381196 -0.223139 2.027207
  H 1.958142 -0.014672 2.614336
  H 1.971918 1.683004 2.089669
  H 2.193169 -0.372123 -1.567001
  H 5.218548 0.106784 -0.250248
  H 5.092700 -2.329713 -3.405722
  H 5.060091 -0.746745 -4.140508
  H 2.659488 -0.508918 -3.623168
  H 2.664789 -2.129303 -2.852446
  H 3.338927 -1.537181 -5.770372
  H 1.836683 -2.238412 -5.173798
  H 3.348581 -3.131112 -5.014277
 28
 118.099591
  C -0.121428 0.200646 0.516449
  C 3.588395 0.165793 0.246806
  C 3.902340 0.578784 1.587121
  C 2.611205 0.821762 2.377427
  H 2.867090 1.142322 3.380819
  C 3.030474 -0.151714 -0.833432
  C 4.580743 -0.265358 -0.964560
  C 5.163677 -0.761518 -2.064152
  C 4.638193 -1.357207 -3.330962
  C 3.142093 -1.471986 -3.577823
  C 2.884413 -2.118331 -4.931793
  H 6.245961 -0.753189 -2.081460
  H -0.376843 0.504158 1.513695
  H -0.097372 -0.839164 0.277515
  H -0.134432 0.919632 -0.279081
  H 4.497201 1.492354 1.561954
  H 4.497234 -0.194529 2.077027
  H 2.023852 -0.089363 2.450741
  H 2.009411 1.599225 1.917029
  H 2.237613 -0.371199 -1.499137
  H 5.349421 0.121921 -0.284805
  H 5.078222 -2.352931 -3.386891
  H 5.072773 -0.786649 -4.156313
  H 2.696374 -0.475510 -3.591477
  H 2.673046 -2.091287 -2.805973
  H 3.315682 -1.525925 -5.737762
  H 1.816439 -2.208966 -5.113886
  H 3.321085 -3.115945 -4.973370
 28
 119.266246
  C -0.523565 0.240883 0.609236
  C 3.706083 0.151165 0.221846
  C 3.996156 0.581216 1.567503
  C 2.676408 0.790284 2.322297
  H 2.893491 1.129199 3.329180
  C 3.077391 -0.180306 -0.816183
  C 4.655832 -0.268677 -0.980882
  C 5.220925 -0.780550 -2.081061
  C 4.681777 -1.375085 -3.337491
  C 3.179515 -1.459244 -3.577306
  C 2.901695 -2.108785 -4.930641
  H 6.303483 -0.768149 -2.108336
  H -0.697427 0.549488 1.615329
  H -0.546978 -0.800242 0.366642
  H -0.503914 0.964168 -0.182634
  H 4.567271 1.516490 1.547884
  H 4.607852 -0.177955 2.071939
  H 2.113019 -0.135418 2.389018
  H 2.061356 1.542998 1.833768
  H 2.276336 -0.421104 -1.460124
  H 5.446018 0.117288 -0.320819
  H 5.098462 -2.388706 -3.388117
  H 5.131856 -0.821278 -4.165410
  H 2.754272 -0.451761 -3.592113
  H 2.709159 -2.063458 -2.804848
  H 3.331721 -1.521956 -5.738303
  H 1.834257 -2.188128 -5.102365
  H 3.325731 -3.108043 -4.977301
 28
 120.110051
  C -1.049181 0.356980 0.787130
  C 3.791676 0.139893 0.179486
  C 4.078750 0.565979 1.523373
  C 2.750821 0.729883 2.279673
  H 2.953651 1.080520 3.284863
  C 3.135682 -0.202829 -0.836927
  C 4.741249 -0.265574 -1.024333
  C 5.303796 -0.784911 -2.119627
  C 4.763077 -1.387482 -3.373175
  C 3.254983 -1.470973 -3.592255
  C 2.948992 -2.124597 -4.935093
  H 6.382751 -0.769050 -2.143970
  H -1.131416 0.668081 1.804144
  H -1.099615 -0.682731 0.539754
  H -1.000663 1.082645 -0.003000
  H 4.620912 1.517290 1.506106
  H 4.708719 -0.182160 2.022265
  H 2.218162 -0.215774 2.349715
  H 2.108642 1.456430 1.787657
  H 2.324098 -0.456847 -1.458912
  H 5.543364 0.111577 -0.373605
  H 5.178013 -2.400288 -3.425083
  H 5.207534 -0.836917 -4.203982
  H 2.832521 -0.467069 -3.604522
  H 2.801503 -2.072866 -2.808834
  H 3.360071 -1.538697 -5.753292
  H 1.875560 -2.205027 -5.080462
  H 3.374132 -3.123849 -4.989962
 28
 111.117750
  C -2.500590 0.656769 1.257970
  C 4.053268 0.149454 0.200064
  C 4.322621 0.494033 1.576710
  C 2.919811 0.613600 2.236483
  H 3.086366 0.907632 3.298612
  C 3.552020 -0.113721 -0.926434
  C 5.125005 -0.252524 -1.222973
  C 5.604627 -0.789654 -2.366841
  C 4.975181 -1.421656 -3.561952
  C 3.464627 -1.562680 -3.649601
  C 3.062667 -2.255619 -4.948221
  H 6.685397 -0.728083 -2.465686
  H -2.210672 0.884157 2.257466
  H -2.844115 -0.321371 1.004304
  H -2.457249 1.420939 0.508617
  H 4.859551 1.474798 1.674200
  H 4.930321 -0.307010 2.086417
  H 2.384166 -0.361967 2.191996
  H 2.291511 1.394750 1.739966
  H 2.686915 -0.258046 -1.545797
  H 5.871905 0.185885 -0.570351
  H 5.430935 -2.421037 -3.639819
  H 5.329355 -0.865675 -4.442409
  H 3.000184 -0.577194 -3.643896
  H 3.096214 -2.166722 -2.818360
  H 3.398533 -1.681286 -5.811627
  H 1.977649 -2.354257 -5.006384
  H 3.500035 -3.258435 -5.011172
 28
 105.069824
  C -2.709475 0.671433 1.258898
  C 4.125649 0.186497 0.284980
  C 4.295087 0.421176 1.665210
  C 2.825486 0.510265 2.187998
  H 2.875072 0.700984 3.260383
  C 3.876013 0.045731 -0.945887
  C 5.314712 -0.164033 -1.387302
  C 5.705708 -0.719566 -2.531857
  C 4.968988 -1.390747 -3.629818
  C 3.448377 -1.498159 -3.576458
  C 2.945835 -2.333744 -4.748541
  H 6.773652 -0.700384 -2.710410
  H -2.389010 0.794837 2.269573
  H -3.150102 -0.251365 0.946819
  H -2.656517 1.492803 0.576491
  H 4.826623 1.360478 1.862474
  H 4.812509 -0.401960 2.170927
  H 2.283165 -0.420788 2.020086
  H 2.291394 1.325697 1.703119
  H 3.062384 -0.008745 -1.637950
  H 6.091428 0.257455 -0.764452
  H 5.387300 -2.402019 -3.691678
  H 5.253819 -0.894500 -4.564044
  H 2.998187 -0.507871 -3.652757
  H 3.136941 -1.980211 -2.648467
  H 3.227412 -1.878983 -5.695390
  H 1.861442 -2.418126 -4.724073
  H 3.362824 -3.338238 -4.715098
