26

C 0.968341 0.139884 0.399936
C 2.446202 0.13845 0.395686
C 3.234342 0.607737 1.563173
C 2.459622 1.098069 2.783777
C 3.411221 1.542676 3.889908
C 3.059757 -0.325663 -0.759787
C 4.43888 -0.411649 -0.974373
C 5.11699 -0.862273 -2.097854
C 4.625438 -1.38582 -3.403169
H 3.579029098582245 -1.4688061281663058 -3.610633969490401
O 6.442688 -0.856823 -2.084272
H 0.534143 0.510229 1.321702
H 0.596455 -0.872435 0.234594
H 0.596055 0.756139 -0.419863
H 3.890239 1.419519 1.228374
H 3.89055 -0.209765 1.883078
H 1.821772 0.301459 3.172017
H 1.821512 1.94166 2.512985
H 4.047299 0.720691 4.212252
H 2.847296 1.889341 4.752967
H 4.047009 2.359354 3.553803
H 2.401023 -0.643254 -1.550384
H 5.05689 -0.079321 -0.146191
H 5.081006 -2.37488 -3.52806
H 5.081381 -0.757493 -4.176933
H 6.81268 -0.521131 -1.246385
