 29
 0.000000
  H 1.460605 0.161803 0.459086
  C 2.539040 0.145711 0.417192
  C 3.299357 0.615392 1.582758
  C 2.452201 1.088476 2.759691
  C 3.330910 1.554709 3.916296
  C 3.101936 -0.324505 -0.752819
  C 4.476186 -0.419633 -0.991097
  C 5.137964 -0.876349 -2.130874
  C 4.612192 -1.393111 -3.421140
  C 3.116731 -1.500450 -3.691097
  C 2.879448 -2.061182 -5.091212
  O 6.453127 -0.878812 -2.137145
  H 3.959353 1.434312 1.271849
  H 3.960623 -0.189654 1.925487
  H 1.810234 0.277205 3.107502
  H 1.809009 1.913657 2.448839
  H 3.966311 0.747464 4.273450
  H 2.714846 1.888696 4.747302
  H 3.965014 2.385149 3.614218
  H 2.419329 -0.635038 -1.524677
  H 5.118061 -0.094159 -0.180546
  H 5.063534 -2.383128 -3.556267
  H 5.064482 -0.770799 -4.202379
  H 2.647932 -0.517632 -3.632119
  H 2.647004 -2.170303 -2.970091
  H 3.315068 -1.415353 -5.849893
  H 1.813344 -2.139438 -5.288064
  H 3.314220 -3.052593 -5.194052
  H 6.862320 -0.549711 -1.313708
 29
 9.525914
  H 1.410757 0.173752 0.489191
  C 2.488712 0.150388 0.429150
  C 3.266950 0.615909 1.584134
  C 2.434633 1.092614 2.769953
  C 3.326836 1.555368 3.917602
  C 3.021162 -0.317504 -0.734994
  C 4.548825 -0.429707 -1.015993
  C 5.187157 -0.886062 -2.154952
  C 4.638297 -1.399067 -3.435951
  C 3.138428 -1.495404 -3.678617
  C 2.871977 -2.054266 -5.074263
  O 6.502262 -0.895466 -2.178647
  H 3.927496 1.430983 1.265304
  H 3.928849 -0.191787 1.918528
  H 1.792648 0.283863 3.123922
  H 1.791350 1.920167 2.465220
  H 3.962538 0.745569 4.268270
  H 2.720756 1.891934 4.754941
  H 3.961153 2.383176 3.608967
  H 2.332029 -0.624766 -1.498662
  H 5.196197 -0.107265 -0.212882
  H 5.081027 -2.391954 -3.578787
  H 5.082022 -0.780011 -4.224715
  H 2.678355 -0.509182 -3.610826
  H 2.677359 -2.161649 -2.948940
  H 3.298679 -1.411563 -5.840610
  H 1.802048 -2.124893 -5.252215
  H 3.297748 -3.048717 -5.184860
  H 6.925905 -0.568889 -1.361664
 29
 28.542465
  H 1.369775 0.177464 0.497832
  C 2.448070 0.145227 0.416046
  C 3.245076 0.608702 1.566285
  C 2.422304 1.087516 2.757134
  C 3.320005 1.548620 3.900888
  C 2.937272 -0.315454 -0.730102
  C 4.621556 -0.438685 -1.038332
  C 5.236004 -0.890430 -2.165839
  C 4.663462 -1.399705 -3.437402
  C 3.160062 -1.480831 -3.642135
  C 2.851780 -2.036735 -5.030509
  O 6.558059 -0.904978 -2.202815
  H 3.906706 1.419512 1.241539
  H 3.907899 -0.200232 1.893416
  H 1.779461 0.279862 3.113293
  H 1.778332 1.915951 2.454693
  H 3.955675 0.737633 4.248543
  H 2.718637 1.886476 4.741266
  H 3.954448 2.375097 3.589288
  H 2.259984 -0.623630 -1.496316
  H 5.252455 -0.114968 -0.231598
  H 5.096018 -2.396045 -3.589769
  H 5.096993 -0.784809 -4.235471
  H 2.713418 -0.489824 -3.561083
  H 2.712389 -2.141382 -2.899562
  H 3.265427 -1.398499 -5.807678
  H 1.777067 -2.096500 -5.181429
  H 3.264420 -3.035412 -5.152033
  H 6.994925 -0.580707 -1.392466
 29
 49.805635
  H 1.301618 0.211325 0.581841
  C 2.379293 0.166621 0.469345
  C 3.203804 0.625515 1.608327
  C 2.403413 1.109250 2.811031
  C 3.317948 1.565403 3.942594
  C 2.838695 -0.310285 -0.716969
  C 4.676267 -0.450687 -1.067825
  C 5.283858 -0.911901 -2.219248
  C 4.697063 -1.419640 -3.487019
  C 3.191550 -1.492673 -3.671395
  C 2.858544 -2.046460 -5.054862
  O 6.608486 -0.931930 -2.270455
  H 3.866001 1.430665 1.271816
  H 3.866945 -0.187579 1.923098
  H 1.760104 0.305333 3.175427
  H 1.759187 1.940776 2.517018
  H 3.953848 0.750926 4.281758
  H 2.729885 1.906593 4.790985
  H 3.952784 2.388367 3.622444
  H 2.165158 -0.620197 -1.487667
  H 5.298227 -0.123526 -0.252113
  H 5.124427 -2.417545 -3.645200
  H 5.125312 -0.807506 -4.290359
  H 2.752913 -0.498622 -3.582373
  H 2.751991 -2.150092 -2.921074
  H 3.264226 -1.410833 -5.838293
  H 1.781385 -2.099875 -5.189835
  H 3.263287 -3.047525 -5.182936
  H 7.056126 -0.609816 -1.466331
 29
 69.280832
  H 1.250136 0.238349 0.651128
  C 2.319799 0.172298 0.485532
  C 3.182296 0.619047 1.593080
  C 2.414945 1.109965 2.812178
  C 3.354535 1.558988 3.924820
  C 2.689973 -0.300065 -0.688448
  C 4.684277 -0.450992 -1.066240
  C 5.293347 -0.910173 -2.214226
  C 4.720049 -1.419773 -3.487429
  C 3.215433 -1.493977 -3.674652
  C 2.877030 -2.046317 -5.056188
  O 6.612622 -0.925299 -2.254657
  H 3.843369 1.415365 1.235429
  H 3.844263 -0.202191 1.887124
  H 1.770779 0.312050 3.188491
  H 1.769922 1.945237 2.530208
  H 3.990882 0.739434 4.251091
  H 2.786930 1.905219 4.784686
  H 3.989931 2.376382 3.591232
  H 2.054579 -0.619298 -1.481761
  H 5.250243 -0.110913 -0.217357
  H 5.151587 -2.415738 -3.646645
  H 5.152313 -0.809229 -4.289796
  H 2.780847 -0.498068 -3.580387
  H 2.780040 -2.149749 -2.919786
  H 3.281353 -1.411266 -5.840892
  H 1.799545 -2.098809 -5.188931
  H 3.280437 -3.047663 -5.186486
  H 7.050829 -0.602012 -1.448789
 29
 87.864596
  H 1.200284 0.235880 0.643493
  C 2.274089 0.165676 0.468065
  C 3.152174 0.615866 1.584934
  C 2.387637 1.108928 2.809148
  C 3.330706 1.556638 3.919510
  C 2.628977 -0.309472 -0.712834
  C 4.779878 -0.471700 -1.117937
  C 5.367178 -0.923719 -2.248282
  C 4.756187 -1.423111 -3.495907
  C 3.243154 -1.472853 -3.621521
  C 2.837764 -2.018767 -4.987032
  O 6.701101 -0.948165 -2.312383
  H 3.812915 1.411854 1.225536
  H 3.813331 -0.206696 1.877475
  H 1.743008 0.311606 3.187497
  H 1.742606 1.945557 2.529074
  H 3.966864 0.736076 4.243706
  H 2.765855 1.903771 4.781425
  H 3.966366 2.373006 3.584036
  H 2.008551 -0.632784 -1.516733
  H 5.336266 -0.131438 -0.267997
  H 5.169524 -2.424602 -3.669301
  H 5.170110 -0.818226 -4.312433
  H 2.829793 -0.470371 -3.507861
  H 2.829189 -2.120217 -2.847997
  H 3.219198 -1.390273 -5.788424
  H 1.755133 -2.053183 -5.074241
  H 3.218520 -3.026831 -5.134040
  H 7.160438 -0.626121 -1.509821
 29
 101.296221
  H 1.149891 0.261454 0.705469
  C 2.215008 0.169633 0.474689
  C 3.126822 0.609846 1.567318
  C 2.397834 1.108966 2.810562
  C 3.377219 1.544954 3.892551
  C 2.465312 -0.300861 -0.696604
  C 4.772672 -0.475169 -1.129454
  C 5.374770 -0.915122 -2.228065
  C 4.779589 -1.421970 -3.493046
  C 3.264475 -1.472542 -3.620011
  C 2.850409 -2.018005 -4.982978
  O 6.728387 -0.930711 -2.269423
  H 3.782793 1.402321 1.189731
  H 3.784079 -0.222674 1.842841
  H 1.753097 0.319295 3.206745
  H 1.751588 1.952093 2.550210
  H 4.013377 0.716569 4.196426
  H 2.841758 1.897374 4.770521
  H 4.011772 2.354188 3.538009
  H 1.916423 -0.639470 -1.539308
  H 5.253015 -0.121412 -0.245654
  H 5.198173 -2.420564 -3.662182
  H 5.198718 -0.816572 -4.304701
  H 2.853658 -0.469231 -3.502637
  H 2.853259 -2.117584 -2.842805
  H 3.228984 -1.390614 -5.786763
  H 1.766986 -2.050585 -5.065130
  H 3.228525 -3.026977 -5.131954
  H 7.174452 -0.604692 -1.452854
 29
 109.522024
  H 1.092258 0.282993 0.760238
  C 2.156388 0.181431 0.504747
  C 3.091198 0.618791 1.589625
  C 2.383528 1.123042 2.846555
  C 3.388428 1.551627 3.908997
  C 2.363763 -0.289208 -0.667065
  C 4.821535 -0.484645 -1.155350
  C 5.402922 -0.924187 -2.251344
  C 4.805279 -1.433883 -3.522746
  C 3.291075 -1.478557 -3.636326
  C 2.866450 -2.022457 -4.993997
  O 6.753962 -0.942449 -2.297040
  H 3.740683 1.407550 1.201264
  H 3.742701 -0.218031 1.854462
  H 1.743972 0.337695 3.255041
  H 1.741684 1.971058 2.598352
  H 4.024270 0.718343 4.199910
  H 2.873646 1.907990 4.797527
  H 4.021853 2.356031 3.541584
  H 1.824039 -0.631165 -1.517145
  H 5.281378 -0.125210 -0.259680
  H 5.219500 -2.434537 -3.691089
  H 5.220685 -0.827325 -4.335612
  H 2.885325 -0.472805 -3.516509
  H 2.884308 -2.122685 -2.855214
  H 3.242236 -1.396342 -5.800047
  H 1.782160 -2.051768 -5.068957
  H 3.241089 -3.032373 -5.144419
  H 7.190301 -0.625052 -1.499022
 29
 113.818975
  H 1.048367 0.290690 0.782640
  C 2.108517 0.182615 0.510350
  C 3.052831 0.616003 1.583490
  C 2.361223 1.122861 2.847024
  C 3.383485 1.546467 3.894631
  C 2.283942 -0.287117 -0.658585
  C 4.896751 -0.494282 -1.182004
  C 5.457398 -0.934116 -2.276822
  C 4.839022 -1.439990 -3.538186
  C 3.319011 -1.464689 -3.604429
  C 2.844695 -2.003983 -4.949140
  O 6.816310 -0.960665 -2.338807
  H 3.698664 1.402989 1.186094
  H 3.701717 -0.224977 1.840627
  H 1.724872 0.339683 3.264805
  H 1.721538 1.974913 2.606878
  H 4.019188 0.710035 4.176706
  H 2.883285 1.905587 4.790238
  H 4.015658 2.347599 3.518016
  H 1.763910 -0.633181 -1.516989
  H 5.327589 -0.130385 -0.278902
  H 5.237550 -2.444539 -3.711636
  H 5.239824 -0.835461 -4.357881
  H 2.931078 -0.453219 -3.471895
  H 2.929046 -2.102817 -2.809605
  H 3.204271 -1.382879 -5.766558
  H 1.758193 -2.019404 -4.991182
  H 3.202060 -3.018742 -5.109871
  H 7.271340 -0.639992 -1.528980
 29
 116.584762
  H 0.997134 0.305499 0.821492
  C 2.052199 0.189030 0.527897
  C 3.013454 0.617439 1.587538
  C 2.340414 1.128166 2.860865
  C 3.382630 1.545683 3.892000
  C 2.191763 -0.281474 -0.642453
  C 4.958635 -0.502482 -1.204975
  C 5.505749 -0.944943 -2.304516
  C 4.872155 -1.447357 -3.556489
  C 3.350139 -1.456676 -3.586259
  C 2.838450 -1.991300 -4.918117
  O 6.863740 -0.978661 -2.381128
  H 3.655631 1.402894 1.178756
  H 3.659363 -0.229844 1.835349
  H 1.707768 0.347706 3.289077
  H 1.703795 1.985044 2.630110
  H 4.017658 0.705463 4.163889
  H 2.899267 1.907976 4.795700
  H 4.013473 2.342869 3.505143
  H 1.689324 -0.631967 -1.510670
  H 5.361926 -0.133106 -0.291241
  H 5.258906 -2.455665 -3.733132
  H 5.261973 -0.843382 -4.381548
  H 2.977274 -0.440998 -3.444705
  H 2.974502 -2.090590 -2.781447
  H 3.185455 -1.374002 -5.743645
  H 1.751408 -1.996124 -4.935043
  H 3.182467 -3.009314 -5.086180
  H 7.317213 -0.666041 -1.589763
 29
 118.334352
  H 0.945397 0.316058 0.850537
  C 1.995014 0.191823 0.536915
  C 2.973069 0.615686 1.583733
  C 2.320236 1.129795 2.865571
  C 3.380736 1.541432 3.880291
  C 2.101232 -0.278236 -0.631718
  C 5.024033 -0.509671 -1.225434
  C 5.560228 -0.953985 -2.327586
  C 4.902200 -1.453244 -3.570990
  C 3.379516 -1.444237 -3.557269
  C 2.821490 -1.973112 -4.873844
  O 6.919964 -0.996349 -2.422241
  H 3.610916 1.397294 1.164847
  H 3.615493 -0.235230 1.821561
  H 1.691116 0.352681 3.303651
  H 1.686372 1.990520 2.644176
  H 4.015042 0.697588 4.142556
  H 2.913583 1.906586 4.791229
  H 4.010071 2.335012 3.483563
  H 1.621065 -0.632746 -1.508725
  H 5.398589 -0.135734 -0.303250
  H 5.274186 -2.465692 -3.753130
  H 5.278121 -0.851197 -4.403350
  H 3.024944 -0.423422 -3.404551
  H 3.021391 -2.073060 -2.740375
  H 3.152341 -1.360283 -5.709370
  H 1.734269 -1.964848 -4.859701
  H 3.148495 -2.995278 -5.051074
  H 7.391473 -0.680551 -1.621530
 29
 119.426220
  H 0.891764 0.330484 0.887868
  C 1.934262 0.197265 0.551955
  C 2.930333 0.614897 1.582612
  C 2.299773 1.133208 2.874062
  C 3.380490 1.537801 3.870579
  C 2.005523 -0.273574 -0.617891
  C 5.083774 -0.516648 -1.244680
  C 5.610397 -0.961608 -2.347043
  C 4.931333 -1.457024 -3.580303
  C 3.408658 -1.432610 -3.529506
  C 2.812411 -1.955654 -4.830991
  O 6.971597 -1.012135 -2.460147
  H 3.564995 1.393958 1.151396
  H 3.569593 -0.242620 1.810002
  H 1.673797 0.359506 3.323240
  H 1.669040 1.999113 2.662682
  H 4.013339 0.689737 4.122308
  H 2.931420 1.906317 4.789271
  H 4.008316 2.326977 3.463060
  H 1.546766 -0.632527 -1.505331
  H 5.429787 -0.138480 -0.314136
  H 5.290713 -2.472748 -3.766863
  H 5.295085 -0.856328 -4.418441
  H 3.070202 -0.407782 -3.367845
  H 3.066220 -2.057521 -2.703060
  H 3.129381 -1.346375 -5.674364
  H 1.726198 -1.936538 -4.790738
  H 3.125052 -2.980913 -5.015576
  H 7.443302 -0.703966 -1.678961
 29
 119.924951
  H 0.835345 0.343254 0.922072
  C 1.870298 0.201358 0.564005
  C 2.886416 0.613529 1.579689
  C 2.280100 1.135943 2.881060
  C 3.380880 1.533483 3.858528
  C 1.907170 -0.268719 -0.603233
  C 5.141575 -0.522252 -1.260095
  C 5.661448 -0.969658 -2.367180
  C 4.957591 -1.460827 -3.589601
  C 3.436746 -1.419941 -3.499317
  C 2.799822 -1.936505 -4.784540
  O 7.020575 -1.029195 -2.500739
  H 3.516677 1.388144 1.136853
  H 3.521845 -0.248418 1.795733
  H 1.657904 0.366414 3.341321
  H 1.652581 2.006099 2.680391
  H 4.012320 0.681218 4.099471
  H 2.950380 1.905123 4.784815
  H 4.006735 2.318461 3.439952
  H 1.472103 -0.631466 -1.499400
  H 5.459559 -0.140338 -0.321846
  H 5.303192 -2.480055 -3.781541
  H 5.308085 -0.861894 -4.434309
  H 3.115624 -0.390951 -3.328217
  H 3.111097 -2.040814 -2.662895
  H 3.101617 -1.330787 -5.636099
  H 1.715204 -1.905742 -4.716387
  H 3.096721 -2.965081 -4.976880
  H 7.512237 -0.717206 -1.710384
 29
 120.105157
  H 0.779631 0.359096 0.963204
  C 1.805364 0.208055 0.581661
  C 2.840752 0.613203 1.578773
  C 2.260182 1.139340 2.889649
  C 3.381746 1.529035 3.846409
  C 1.807314 -0.262418 -0.586173
  C 5.197588 -0.527551 -1.274060
  C 5.708733 -0.974068 -2.378056
  C 4.981623 -1.461660 -3.591525
  C 3.462367 -1.407011 -3.467778
  C 2.791836 -1.917436 -4.738010
  O 7.069212 -1.041917 -2.531187
  H 3.466980 1.384572 1.122923
  H 3.472768 -0.254996 1.783080
  H 1.641779 0.373528 3.361690
  H 1.635788 2.014577 2.700134
  H 4.011399 0.672359 4.075801
  H 2.971042 1.903685 4.780370
  H 4.005217 2.309581 3.416296
  H 1.395626 -0.629131 -1.491962
  H 5.487083 -0.142660 -0.329238
  H 5.315262 -2.483835 -3.788079
  H 5.320363 -0.864002 -4.441673
  H 3.156116 -0.374771 -3.289076
  H 3.151317 -2.024805 -2.623546
  H 3.080656 -1.314483 -5.595914
  H 1.709371 -1.877047 -4.646531
  H 3.075486 -2.948502 -4.936657
  H 7.560336 -0.737977 -1.762526
