 20
 0.000000
  C 1.112101 0.034639 0.056943
  C 2.608447 0.044538 0.036535
  C 3.322992 0.540478 -0.979027
  C 4.760993 0.550104 -0.998879
  C 5.480387 1.048762 -2.019991
  C 6.919128 1.057276 -2.037577
  C 7.636121 1.552252 -3.051167
  C 9.126152 1.570235 -3.088134
  H 0.752145 -0.417238 0.982605
  H 0.716888 -0.547612 -0.777211
  H 0.716357 1.048644 0.003542
  H 3.107883 -0.376709 0.899015
  H 2.811317 0.959364 -1.836701
  H 5.265473 0.129668 -0.138045
  H 4.976482 1.469295 -2.881042
  H 7.426236 0.637358 -1.177800
  H 7.137552 1.974068 -3.914814
  H 9.561203 1.132271 -2.191387
  H 9.485088 2.596834 -3.176761
  H 9.485016 1.008904 -3.952263
 20
 2.694083
  C 1.128573 0.050986 0.058923
  C 2.612910 0.054155 0.035369
  C 3.329749 0.543841 -0.968856
  C 4.763339 0.555623 -0.998607
  C 5.490313 1.051841 -2.017054
  C 6.922866 1.062636 -2.046444
  C 7.635577 1.548179 -3.042970
  C 9.122375 1.567254 -3.089236
  H 0.715009 -0.453299 0.905579
  H 0.691431 -0.569884 -0.697005
  H 0.726837 1.054997 -0.012748
  H 3.116080 -0.367246 0.894720
  H 2.823331 0.965975 -1.828188
  H 5.268778 0.133597 -0.138061
  H 4.984927 1.473715 -2.877478
  H 7.426580 0.640761 -1.186123
  H 7.134217 1.970441 -3.904067
  H 9.548354 1.126763 -2.190450
  H 9.484895 2.591516 -3.183959
  H 9.481095 1.011639 -3.956428
 20
 7.766467
  C 1.117137 0.068887 0.068158
  C 2.607305 0.057223 0.042556
  C 3.329894 0.551877 -0.964590
  C 4.762026 0.558410 -0.994819
  C 5.497623 1.059717 -2.019804
  C 6.933377 1.064383 -2.050430
  C 7.654361 1.554855 -3.052825
  C 9.142718 1.567408 -3.099684
  H 0.662077 -0.480585 0.871620
  H 0.642193 -0.625356 -0.607934
  H 0.690301 1.056518 -0.037844
  H 3.113036 -0.370309 0.904190
  H 2.826429 0.981095 -1.820784
  H 5.265339 0.130563 -0.136993
  H 4.993751 1.487723 -2.878307
  H 7.434181 0.636342 -1.191889
  H 7.154116 1.983012 -3.911557
  H 9.566162 1.121227 -2.203262
  H 9.510044 2.590521 -3.191479
  H 9.498727 1.015070 -3.970123
 20
 15.394119
  C 1.139001 0.076673 0.062533
  C 2.620175 0.061581 0.034937
  C 3.340921 0.557131 -0.973710
  C 4.772816 0.564094 -1.004592
  C 5.487882 1.053881 -2.006014
  C 6.919862 1.058025 -2.037495
  C 7.645689 1.553285 -3.049758
  C 9.133875 1.565832 -3.098092
  H 0.646347 -0.497389 0.820216
  H 0.624898 -0.642143 -0.548769
  H 0.720357 1.071762 -0.051681
  H 3.124753 -0.365341 0.892881
  H 2.835045 0.987466 -1.829826
  H 5.278721 0.136553 -0.148326
  H 4.982417 1.481176 -2.862006
  H 7.422137 0.629037 -1.178268
  H 7.144351 1.982251 -3.908969
  H 9.559245 1.119430 -2.202283
  H 9.500730 2.588920 -3.189892
  H 9.488673 1.013592 -3.969176
 20
 22.245452
  C 1.140761 0.093179 0.064629
  C 2.615495 0.065126 0.036538
  C 3.340590 0.564796 -0.972092
  C 4.764638 0.565771 -1.003170
  C 5.493119 1.064117 -2.014859
  C 6.925523 1.061044 -2.046654
  C 7.651810 1.556292 -3.051256
  C 9.140810 1.560985 -3.099011
  H 0.631996 -0.505480 0.810005
  H 0.613476 -0.687856 -0.478149
  H 0.689307 1.059042 -0.085964
  H 3.120859 -0.369002 0.892921
  H 2.838271 1.002881 -1.822022
  H 5.265448 0.131437 -0.151359
  H 4.991789 1.499041 -2.867795
  H 7.424380 0.625118 -1.191723
  H 7.153871 1.992833 -3.907331
  H 9.562770 1.107200 -2.206426
  H 9.513393 2.582043 -3.184300
  H 9.493140 1.012306 -3.972798
 20
 28.555272
  C 1.136730 0.098584 0.065360
  C 2.603236 0.067098 0.033788
  C 3.329460 0.574936 -0.972109
  C 4.762679 0.567527 -1.007157
  C 5.492024 1.072012 -2.015225
  C 6.934431 1.059789 -2.050485
  C 7.663046 1.562182 -3.052313
  C 9.153415 1.557298 -3.102875
  H 0.615619 -0.489463 0.831048
  H 0.600214 -0.752402 -0.386004
  H 0.663904 1.039927 -0.157558
  H 3.107794 -0.373976 0.882485
  H 2.825088 1.027689 -1.817380
  H 5.265703 0.119173 -0.158547
  H 4.988678 1.521688 -2.865088
  H 7.434619 0.609453 -1.199033
  H 7.165655 2.012474 -3.903639
  H 9.575064 1.089371 -2.214560
  H 9.533400 2.578189 -3.177193
  H 9.500701 1.015728 -3.984515
 20
 33.690306
  C 1.133376 0.102753 0.061047
  C 2.599845 0.064017 0.022601
  C 3.326380 0.580424 -0.976701
  C 4.761719 0.567098 -1.013679
  C 5.495116 1.081073 -2.017425
  C 6.933736 1.058219 -2.054918
  C 7.664747 1.568010 -3.048855
  C 9.157051 1.553178 -3.100614
  H 0.610514 -0.442765 0.862621
  H 0.593268 -0.806285 -0.275125
  H 0.644577 1.006442 -0.251164
  H 3.106067 -0.392743 0.862821
  H 2.822500 1.049075 -1.813310
  H 5.263450 0.104166 -0.172713
  H 4.994842 1.545002 -2.859383
  H 7.430915 0.592695 -1.210474
  H 7.170938 2.032849 -3.892162
  H 9.575198 1.070401 -2.219515
  H 9.544459 2.571539 -3.161054
  H 9.500688 1.020895 -3.990116
 20
 38.298251
  C 1.134872 0.104570 0.057345
  C 2.599729 0.061009 0.011468
  C 3.330558 0.585096 -0.984930
  C 4.758844 0.565813 -1.022338
  C 5.496124 1.085467 -2.020094
  C 6.932900 1.055099 -2.056578
  C 7.669959 1.571472 -3.045995
  C 9.150844 1.548449 -3.094549
  H 0.613413 -0.410547 0.884251
  H 0.590426 -0.835784 -0.186796
  H 0.634618 0.973377 -0.310914
  H 3.102795 -0.402864 0.839464
  H 2.829987 1.063382 -1.812028
  H 5.258837 0.091609 -0.185508
  H 4.999908 1.559642 -2.856103
  H 7.425186 0.579695 -1.218645
  H 7.177402 2.050501 -3.890642
  H 9.564024 1.054981 -2.218314
  H 9.542721 2.561874 -3.143405
  H 9.492860 1.025675 -3.984444
 20
 42.448016
  C 1.137060 0.103640 0.054946
  C 2.593216 0.059784 0.003818
  C 3.323147 0.587486 -0.988784
  C 4.753872 0.564316 -1.027927
  C 5.493943 1.088847 -2.023607
  C 6.936990 1.053351 -2.060858
  C 7.674809 1.572333 -3.043602
  C 9.147600 1.543737 -3.088918
  H 0.623128 -0.397025 0.892582
  H 0.598264 -0.852514 -0.123277
  H 0.619770 0.958324 -0.352993
  H 3.104566 -0.416640 0.838388
  H 2.819899 1.075048 -1.814064
  H 5.257664 0.078871 -0.188321
  H 4.994293 1.573859 -2.861762
  H 7.429510 0.569487 -1.224664
  H 7.185485 2.059891 -3.887293
  H 9.555710 1.043144 -2.215663
  H 9.541110 2.553988 -3.129618
  H 9.489743 1.026687 -3.979924
 20
 45.584957
  C 1.127774 0.101885 0.054899
  C 2.587270 0.053653 -0.001144
  C 3.319628 0.588783 -0.992432
  C 4.751184 0.562357 -1.032309
  C 5.492615 1.092093 -2.023463
  C 6.934104 1.050430 -2.062203
  C 7.675708 1.575484 -3.042054
  C 9.159163 1.541778 -3.087750
  H 0.615720 -0.369380 0.916631
  H 0.589996 -0.871941 -0.045905
  H 0.607381 0.919745 -0.397579
  H 3.090100 -0.424241 0.814752
  H 2.821299 1.081960 -1.806235
  H 5.250898 0.070408 -0.201591
  H 4.997560 1.582791 -2.851802
  H 7.423036 0.559071 -1.233291
  H 7.188077 2.072977 -3.883291
  H 9.565725 1.031401 -2.217327
  H 9.557056 2.551452 -3.119633
  H 9.500037 1.030147 -3.985002
 20
 48.526012
  C 1.131768 0.102642 0.048552
  C 2.586584 0.049602 -0.012144
  C 3.317637 0.589747 -0.999269
  C 4.747553 0.562937 -1.037291
  C 5.489183 1.096325 -2.022346
  C 6.931506 1.046959 -2.061965
  C 7.674737 1.575580 -3.037160
  C 9.154098 1.537932 -3.082994
  H 0.621335 -0.340695 0.931584
  H 0.593007 -0.882149 0.018447
  H 0.608613 0.884919 -0.439459
  H 3.096816 -0.445052 0.811622
  H 2.816676 1.094444 -1.815011
  H 5.243174 0.065454 -0.214048
  H 4.996539 1.594757 -2.848232
  H 7.420917 0.544049 -1.230619
  H 7.195583 2.073914 -3.863187
  H 9.556480 1.022986 -2.221078
  H 9.554653 2.544907 -3.107384
  H 9.493049 1.032009 -3.982663
 20
 51.101040
  C 1.133450 0.098251 0.045849
  C 2.582922 0.044801 -0.018810
  C 3.316658 0.591695 -1.002935
  C 4.744434 0.561488 -1.040088
  C 5.489731 1.100964 -2.021739
  C 6.923446 1.042241 -2.062495
  C 7.670660 1.575471 -3.033682
  C 9.160384 1.532787 -3.078234
  H 0.622181 -0.313357 0.958343
  H 0.592160 -0.898910 0.093010
  H 0.597352 0.847346 -0.485736
  H 3.089055 -0.456337 0.795433
  H 2.817980 1.104367 -1.813281
  H 5.237803 0.053925 -0.221562
  H 5.000215 1.609302 -2.844519
  H 7.407352 0.531498 -1.237842
  H 7.192112 2.084263 -3.859052
  H 9.561652 1.007172 -2.216068
  H 9.569232 2.547181 -3.094992
  H 9.498580 1.031393 -3.981554
 20
 53.768116
  C 1.136396 0.091277 0.041441
  C 2.580601 0.040236 -0.025841
  C 3.314884 0.594438 -1.004953
  C 4.740612 0.561998 -1.039720
  C 5.491384 1.109259 -2.018253
  C 6.922635 1.038088 -2.064138
  C 7.671659 1.575760 -3.030446
  C 9.154465 1.531292 -3.070581
  H 0.628619 -0.287020 0.977848
  H 0.601080 -0.907165 0.164025
  H 0.582985 0.806314 -0.531779
  H 3.086321 -0.468758 0.784665
  H 2.810136 1.121837 -1.822077
  H 5.233170 0.039768 -0.224545
  H 5.008926 1.622328 -2.827627
  H 7.408467 0.512888 -1.238294
  H 7.195869 2.092556 -3.854010
  H 9.554906 0.997909 -2.201684
  H 9.557646 2.539143 -3.079398
  H 9.505251 1.023464 -3.996981
 20
 56.354445
  C 1.131273 0.086619 0.044437
  C 2.576357 0.043714 -0.027822
  C 3.311558 0.597011 -1.008309
  C 4.736993 0.544392 -1.053976
  C 5.490244 1.093911 -2.028273
  C 6.925160 1.040090 -2.059178
  C 7.679398 1.583253 -3.019983
  C 9.158121 1.520570 -3.065053
  H 0.631358 -0.265664 1.000981
  H 0.602067 -0.915844 0.235031
  H 0.565570 0.763733 -0.554373
  H 3.079710 -0.467201 0.776733
  H 2.810564 1.124965 -1.816640
  H 5.227800 0.023857 -0.239182
  H 5.003263 1.620835 -2.846665
  H 7.403933 0.515539 -1.240580
  H 7.210158 2.109106 -3.834693
  H 9.549040 0.976709 -2.211193
  H 9.579119 2.537114 -3.062313
  H 9.493325 1.030352 -3.977825
