 17
 0.000000
  C 1.009731 0.132956 0.380445
  C 2.480678 0.131479 0.378367
  C 3.207908 0.608171 1.565254
  H 2.523207 0.921956 2.345857
  C 3.143919 -0.325556 -0.758403
  C 4.532195 -0.380288 -0.894962
  C 5.141801 -0.840358 -2.041980
  H 4.570182 -1.183839 -2.895847
  O 6.423306 -0.916150 -2.234435
  H 0.597523 0.507268 1.312230
  H 0.630681 -0.874055 0.199625
  H 0.631683 0.736029 -0.446494
  H 3.859844 1.444262 1.309938
  H 3.859354 -0.172398 1.959493
  H 2.545583 -0.661248 -1.594662
  H 5.161123 -0.052637 -0.078591
  H 6.974028 -0.612058 -1.483426
 17
 0.944758
  C 1.009217 0.101393 0.380195
  C 2.479973 0.080277 0.399225
  C 3.203740 0.681711 1.531832
  H 2.523833 1.095624 2.269260
  C 3.149041 -0.462072 -0.689777
  C 4.539864 -0.531987 -0.824728
  C 5.133286 -0.740706 -2.051028
  H 4.531253 -0.838490 -2.947165
  O 6.406517 -0.782400 -2.287825
  H 0.587563 0.467054 1.310255
  H 0.612501 -0.890348 0.159017
  H 0.659798 0.739635 -0.434400
  H 3.871264 1.471816 1.187715
  H 3.835964 -0.064123 2.016675
  H 2.552553 -0.818002 -1.517416
  H 5.164750 -0.370554 0.042360
  H 6.975879 -0.703354 -1.494255
 17
 1.426489
  C 1.012054 0.026558 0.420277
  C 2.481614 0.057545 0.393341
  C 3.199505 0.767682 1.467176
  H 2.520944 1.354519 2.078563
  C 3.152769 -0.487174 -0.691070
  C 4.545653 -0.554991 -0.822854
  C 5.148153 -0.694725 -2.053488
  H 4.554194 -0.673586 -2.961038
  O 6.423882 -0.755730 -2.280026
  H 0.621578 0.174809 1.423170
  H 0.617715 -0.892388 -0.008993
  H 0.631302 0.844272 -0.198378
  H 3.982078 1.411270 1.071675
  H 3.691951 0.039956 2.116869
  H 2.557908 -0.863773 -1.512911
  H 5.162208 -0.482242 0.062863
  H 6.980970 -0.805779 -1.476609
 17
 6.696454
  C 1.004614 0.002180 0.434105
  C 2.473365 0.011165 0.366993
  C 3.214180 0.838033 1.340226
  H 2.557602 1.533685 1.853317
  C 3.128418 -0.652462 -0.648204
  C 4.533720 -0.726043 -0.790032
  C 5.162568 -0.518875 -1.991151
  H 4.600093 -0.193953 -2.859453
  O 6.444360 -0.559233 -2.203916
  H 0.655783 0.131786 1.456165
  H 0.575833 -0.894851 -0.005175
  H 0.620735 0.856764 -0.129992
  H 4.034548 1.380204 0.877345
  H 3.657047 0.181082 2.092966
  H 2.527730 -1.121372 -1.418443
  H 5.127350 -0.933683 0.092340
  H 6.975833 -0.869964 -1.443497
 17
 15.382999
  C 0.999580 0.011773 0.446379
  C 2.467143 0.002085 0.341963
  C 3.235855 0.900069 1.231283
  H 2.598893 1.646036 1.694355
  C 3.099938 -0.773618 -0.592071
  C 4.521689 -0.852973 -0.770494
  C 5.173843 -0.325613 -1.844127
  H 4.638823 0.238518 -2.599995
  O 6.461114 -0.366480 -2.058433
  H 0.684019 0.182084 1.473950
  H 0.548521 -0.896300 0.054416
  H 0.606973 0.852439 -0.131997
  H 4.056676 1.389328 0.712999
  H 3.683116 0.297443 2.026446
  H 2.492320 -1.375281 -1.260808
  H 5.087228 -1.365971 0.000690
  H 6.967403 -0.874045 -1.394042
 17
 17.997516
  C 0.987059 0.004619 0.414748
  C 2.453957 -0.007631 0.276196
  C 3.256508 0.908594 1.111778
  H 2.642011 1.693425 1.542549
  C 3.078380 -0.870725 -0.581614
  C 4.501237 -0.946020 -0.808538
  C 5.186434 -0.192317 -1.707242
  H 4.666222 0.501503 -2.357483
  O 6.471418 -0.243020 -1.951235
  H 0.690330 0.195891 1.443383
  H 0.525732 -0.909578 0.053642
  H 0.586958 0.829374 -0.181078
  H 4.076860 1.330045 0.529763
  H 3.717935 0.363031 1.937142
  H 2.487861 -1.626319 -1.090317
  H 5.020052 -1.721468 -0.251709
  H 6.968256 -0.849205 -1.368572
 17
 9.881556
  C 1.002942 0.001103 0.388692
  C 2.467656 -0.013550 0.242732
  C 3.257257 0.963351 1.017980
  H 2.636188 1.776638 1.381020
  C 3.088563 -0.960764 -0.536538
  C 4.479274 -1.040949 -0.829411
  C 5.194831 -0.079756 -1.488535
  H 4.696073 0.780435 -1.921794
  O 6.464159 -0.126596 -1.779817
  H 0.710920 0.228772 1.411734
  H 0.539013 -0.924585 0.061620
  H 0.601548 0.807901 -0.230375
  H 4.093074 1.346276 0.434780
  H 3.696680 0.470486 1.887535
  H 2.493566 -1.790361 -0.902570
  H 4.961543 -1.981176 -0.583479
  H 6.944223 -0.879977 -1.383533
 17
 5.438875
  C 1.027699 -0.021696 0.363873
  C 2.494297 -0.024626 0.229399
  C 3.230477 1.017963 0.967634
  H 2.597559 1.876969 1.173713
  C 3.122613 -1.031887 -0.479287
  C 4.466083 -1.102084 -0.895922
  C 5.223237 -0.040557 -1.332761
  H 4.779055 0.933835 -1.504364
  O 6.471021 -0.087850 -1.693910
  H 0.724241 0.249709 1.373290
  H 0.574777 -0.965352 0.075338
  H 0.623696 0.754853 -0.290425
  H 4.149379 1.324096 0.478850
  H 3.527604 0.601592 1.933738
  H 2.530751 -1.911734 -0.699213
  H 4.891877 -2.096799 -0.971509
  H 6.909380 -0.949046 -1.544140
 17
 4.661666
  C 1.053433 -0.020983 0.305130
  C 2.525323 -0.055878 0.231616
  C 3.244910 0.989845 0.978817
  H 2.750292 1.954302 0.885213
  C 3.158401 -1.094875 -0.430760
  C 4.472012 -1.134789 -0.924623
  C 5.188567 -0.024003 -1.311046
  H 4.718973 0.952227 -1.363023
  O 6.419067 0.002148 -1.726243
  H 0.709933 0.241264 1.304075
  H 0.594245 -0.950425 -0.017311
  H 0.694355 0.774027 -0.352606
  H 4.296316 1.061824 0.725541
  H 3.192699 0.730232 2.040404
  H 2.579483 -1.998402 -0.579715
  H 4.897565 -2.112940 -1.108194
  H 6.879183 -0.860752 -1.703781
 17
 7.105741
  C 1.090359 0.065157 0.182134
  C 2.554135 -0.090559 0.218267
  C 3.303371 0.888037 1.029097
  H 2.855132 1.878101 0.987363
  C 3.178190 -1.183157 -0.366824
  C 4.476271 -1.186705 -0.895540
  C 5.063333 -0.027993 -1.358360
  H 4.443807 0.843889 -1.545029
  O 6.291337 0.158212 -1.737753
  H 0.682573 0.219385 1.180819
  H 0.591900 -0.772370 -0.295951
  H 0.854567 0.972884 -0.375895
  H 4.359530 0.929118 0.782738
  H 3.235141 0.563938 2.071109
  H 2.622448 -2.111876 -0.412880
  H 4.974499 -2.135612 -1.038050
  H 6.880955 -0.613069 -1.618714
 17
 15.453530
  C 1.185607 0.172622 0.058075
  C 2.619473 -0.111712 0.219885
  C 3.379075 0.762268 1.132862
  H 2.993199 1.778368 1.145656
  C 3.200340 -1.280511 -0.290708
  C 4.427499 -1.250308 -0.940806
  C 4.864834 -0.045817 -1.474601
  H 4.126659 0.670346 -1.819441
  O 6.078210 0.313343 -1.769636
  H 0.691809 0.296485 1.023102
  H 0.672327 -0.589040 -0.520989
  H 1.081241 1.134125 -0.446327
  H 4.446564 0.762645 0.933340
  H 3.247330 0.358418 2.140755
  H 2.682249 -2.220152 -0.150445
  H 4.987813 -2.159003 -1.106269
  H 6.769732 -0.338805 -1.538558
 17
 27.388944
  C 1.341082 0.264760 -0.067849
  C 2.732136 -0.132475 0.206971
  C 3.472914 0.639155 1.215849
  H 3.146834 1.678340 1.255433
  C 3.234243 -1.396012 -0.235909
  C 4.347297 -1.333982 -1.020999
  C 4.621168 -0.047984 -1.535395
  H 3.818549 0.523402 -1.987684
  O 5.787303 0.493806 -1.724841
  H 0.783990 0.401266 0.860738
  H 0.823737 -0.449704 -0.699067
  H 1.334262 1.243226 -0.549745
  H 4.551342 0.587308 1.094065
  H 3.252394 0.189242 2.188552
  H 2.752727 -2.315108 0.066061
  H 4.959188 -2.188392 -1.277975
  H 6.548208 -0.045951 -1.432764
 17
 33.904277
  C 1.517505 0.322766 -0.196178
  C 2.869138 -0.157557 0.149842
  C 3.596356 0.549097 1.222588
  H 3.315827 1.597822 1.269898
  C 3.268350 -1.520055 -0.214134
  C 4.262027 -1.428828 -1.106064
  C 4.363535 -0.037119 -1.496125
  H 3.546752 0.436374 -2.027395
  O 5.456960 0.665037 -1.543116
  H 0.943245 0.482961 0.718844
  H 0.986446 -0.372475 -0.839602
  H 1.561634 1.298695 -0.679290
  H 4.676312 0.455847 1.150420
  H 3.320188 0.085051 2.175122
  H 2.819230 -2.405886 0.203217
  H 4.906432 -2.209086 -1.475371
  H 6.259439 0.209519 -1.220472
 17
 32.823195
  C 1.636087 0.335985 -0.285340
  C 2.980683 -0.173536 0.087822
  C 3.674149 0.505259 1.209194
  H 3.442479 1.566896 1.234610
  C 3.328859 -1.588160 -0.197912
  C 4.232439 -1.479504 -1.170560
  C 4.219749 -0.036043 -1.456277
  H 3.431753 0.367602 -2.083384
  O 5.261409 0.750293 -1.419546
  H 1.044868 0.441206 0.625771
  H 1.118466 -0.333786 -0.966091
  H 1.686792 1.334586 -0.720263
  H 4.747080 0.360336 1.198957
  H 3.320583 0.060890 2.142779
  H 2.932487 -2.451774 0.302448
  H 4.882649 -2.210725 -1.613916
  H 6.078413 0.341554 -1.074826
 17
 30.419299
  C 1.720205 0.270512 -0.344553
  C 3.097371 -0.174441 0.031430
  C 3.718137 0.537460 1.182579
  H 3.697148 1.614733 1.039703
  C 3.441795 -1.614906 -0.152831
  C 4.239690 -1.511475 -1.215328
  C 4.149334 -0.046970 -1.436704
  H 3.430640 0.316034 -2.173087
  O 5.183804 0.767837 -1.370309
  H 1.059351 0.026044 0.489509
  H 1.342856 -0.249619 -1.221437
  H 1.672263 1.345642 -0.496596
  H 4.734680 0.207373 1.378001
  H 3.131350 0.315407 2.078207
  H 3.168586 -2.448761 0.469053
  H 4.852802 -2.221993 -1.737559
  H 5.996960 0.373444 -1.002648
