 15
 0.000000
  C 0.973885 0.140275 0.361972
  C 2.442597 0.159888 0.405361
  C 3.217050 0.615538 1.568575
  C 2.455159 1.089171 2.782306
  H 3.145159 1.394573 3.562443
  C 3.110991 -0.279070 -0.713626
  H 4.178698 -0.338216 -0.829237
  H 0.505328 0.492992 1.273410
  H 0.624203 -0.874799 0.149917
  H 0.619763 0.743125 -0.477120
  H 3.900998 1.408325 1.228523
  H 3.902165 -0.196755 1.856098
  H 1.815361 0.301493 3.179716
  H 1.814127 1.936756 2.540594
  H 2.518775 -0.612899 -1.552455
 15
 -0.688386
  C 0.963767 0.091461 0.394963
  C 2.431011 0.113885 0.403996
  C 3.205565 0.598280 1.556821
  C 2.446835 1.137891 2.741485
  H 3.136659 1.483440 3.505494
  C 3.113095 -0.306424 -0.712939
  H 4.186969 -0.386485 -0.743182
  H 0.528757 0.171554 1.384920
  H 0.597119 -0.801260 -0.112002
  H 0.597611 0.934883 -0.198894
  H 3.929072 1.349019 1.201618
  H 3.877032 -0.216530 1.873724
  H 1.801749 0.377412 3.181964
  H 1.807386 1.972515 2.454727
  H 2.581998 -0.582577 -1.609449
 15
 -0.455778
  C 0.980879 0.082981 0.408445
  C 2.448239 0.111796 0.396168
  C 3.213605 0.625536 1.544465
  C 2.425631 1.171040 2.708193
  H 3.098131 1.557332 3.468592
  C 3.120460 -0.358513 -0.703037
  H 4.166710 -0.617744 -0.680070
  H 0.590364 -0.112838 1.403875
  H 0.602703 -0.653263 -0.296331
  H 0.595311 1.063441 0.111837
  H 3.922572 1.387422 1.187274
  H 3.889472 -0.177993 1.876445
  H 1.797489 0.403117 3.158574
  H 1.768103 1.982745 2.397740
  H 2.619128 -0.486918 -1.649149
 15
 2.988726
  C 1.003345 0.103270 0.398457
  C 2.476168 0.130544 0.392905
  C 3.229219 0.669477 1.537094
  C 2.407207 1.173703 2.703299
  H 3.062882 1.599041 3.457377
  C 3.103370 -0.430932 -0.688318
  H 4.028571 -0.982588 -0.624470
  H 0.643436 -0.266761 1.356350
  H 0.643809 -0.546360 -0.395061
  H 0.596068 1.108974 0.272960
  H 3.874887 1.479495 1.171294
  H 3.944047 -0.097017 1.862371
  H 1.831159 0.371298 3.158933
  H 1.712251 1.952986 2.397028
  H 2.710393 -0.299025 -1.684746
 15
 11.460177
  C 1.027245 0.132755 0.356968
  C 2.500202 0.190092 0.420958
  C 3.259829 0.698566 1.568664
  C 2.416362 1.169981 2.739777
  H 3.053367 1.622565 3.495154
  C 3.005977 -0.445499 -0.689864
  H 3.771697 -1.222409 -0.631574
  H 0.664067 -0.252799 1.320255
  H 0.806748 -0.603000 -0.409211
  H 0.542454 1.068139 0.125220
  H 3.870706 1.530544 1.210562
  H 3.997984 -0.057261 1.874565
  H 1.877542 0.341394 3.196586
  H 1.693461 1.919312 2.435644
  H 2.774670 -0.123788 -1.692308
 15
 24.642653
  C 1.053530 0.100094 0.335000
  C 2.525685 0.238790 0.472456
  C 3.288901 0.728217 1.599485
  C 2.448005 1.220669 2.762080
  H 3.087426 1.604587 3.547781
  C 2.884839 -0.457157 -0.676882
  H 3.535605 -1.338144 -0.647814
  H 0.638996 -0.516835 1.150919
  H 0.984514 -0.567535 -0.557514
  H 0.500393 0.996275 0.172089
  H 3.913071 1.532528 1.246184
  H 4.001847 -0.054439 1.931938
  H 1.829349 0.432106 3.177337
  H 1.797613 2.039061 2.435688
  H 2.802703 -0.003612 -1.647848
 15
 39.038676
  C 1.101673 0.018760 0.282327
  C 2.540442 0.272251 0.541067
  C 3.335998 0.745103 1.659324
  C 2.486933 1.295857 2.801964
  H 3.125499 1.629711 3.613557
  C 2.719121 -0.436122 -0.672031
  H 3.222539 -1.404323 -0.685861
  H 0.676284 -0.740497 0.934942
  H 1.172551 -0.573804 -0.712806
  H 0.458925 0.886815 0.122554
  H 4.022379 1.519794 1.301107
  H 3.982927 -0.060406 2.028574
  H 1.817347 0.533471 3.191697
  H 1.893118 2.143148 2.471179
  H 2.772052 0.106424 -1.605639
 15
 36.555420
  C 1.133379 -0.006646 0.260403
  C 2.512578 0.302689 0.597120
  C 3.353447 0.779199 1.684181
  C 2.526584 1.314819 2.851056
  H 3.182948 1.645895 3.650055
  C 2.560839 -0.438852 -0.665400
  H 2.974752 -1.447381 -0.647539
  H 0.637078 -0.811645 0.804955
  H 1.353935 -0.615577 -0.850194
  H 0.473377 0.806851 -0.038799
  H 4.025729 1.566315 1.319023
  H 4.013790 -0.025714 2.037577
  H 1.870453 0.543711 3.248404
  H 1.920007 2.160367 2.540174
  H 2.828411 0.136684 -1.552604
 15
 39.333332
  C 1.030353 0.004981 0.337646
  C 2.369949 0.248779 0.674270
  C 3.296496 0.760530 1.668894
  C 2.565536 1.356656 2.870051
  H 3.284982 1.685010 3.615366
  C 2.500218 -0.470972 -0.645636
  H 2.994772 -1.441992 -0.565237
  H 0.533785 -0.918837 0.625856
  H 1.485056 -0.653326 -1.102908
  H 0.356706 0.808269 0.041144
  H 3.951716 1.520600 1.223948
  H 3.967770 -0.044429 2.002321
  H 1.910799 0.621758 3.329183
  H 1.968101 2.214793 2.574565
  H 2.952649 0.203047 -1.373942
 15
 30.389147
  C 0.938095 0.134813 0.453932
  C 2.315962 0.263140 0.597246
  C 3.239074 0.749401 1.591058
  C 2.550457 1.327043 2.823144
  H 3.292929 1.678940 3.533169
  C 2.622073 -0.525791 -0.647242
  H 3.199381 -1.438722 -0.490536
  H 0.429386 -0.784503 0.696766
  H 1.633284 -0.758322 -1.090575
  H 0.285214 0.982163 0.262758
  H 3.902112 1.513073 1.154214
  H 3.900005 -0.072644 1.870958
  H 1.943755 0.573382 3.312510
  H 1.909029 2.167787 2.554361
  H 3.086930 0.131436 -1.373502
 15
 22.937233
  C 0.920793 0.151296 0.515854
  C 2.310018 0.234373 0.552268
  C 3.224638 0.702292 1.577403
  C 2.541200 1.344079 2.777245
  H 3.284406 1.672407 3.497106
  C 2.677092 -0.527422 -0.670531
  H 3.340174 -1.373875 -0.513513
  H 0.418167 -0.769053 0.756535
  H 1.709652 -0.844675 -1.092114
  H 0.279129 1.019509 0.431396
  H 3.940218 1.413668 1.141430
  H 3.841794 -0.147214 1.882095
  H 1.883503 0.637108 3.272701
  H 1.952640 2.209812 2.479634
  H 3.089940 0.157216 -1.408531
 15
 12.856942
  C 0.870330 0.187007 0.620139
  C 2.243348 0.186593 0.519978
  C 3.179647 0.662831 1.536845
  C 2.542739 1.352385 2.738248
  H 3.318256 1.728562 3.403952
  C 2.715693 -0.538960 -0.684344
  H 3.429315 -1.329405 -0.460423
  H 0.324175 -0.742230 0.670689
  H 1.844418 -0.916540 -1.218068
  H 0.268006 1.086123 0.720252
  H 3.908209 1.330332 1.069394
  H 3.774377 -0.198354 1.854799
  H 1.920101 0.665171 3.300842
  H 1.930653 2.192905 2.428078
  H 3.200083 0.179875 -1.347233
 15
 6.790730
  C 0.853568 0.218875 0.644514
  C 2.214157 0.164944 0.503861
  C 3.162429 0.717674 1.481627
  C 2.551637 1.319964 2.735571
  H 3.340725 1.640824 3.409654
  C 2.726495 -0.594171 -0.659730
  H 3.395998 -1.403939 -0.362716
  H 0.245490 -0.666178 0.509758
  H 1.899334 -0.962059 -1.259299
  H 0.311928 1.119010 0.897946
  H 3.789733 1.461387 0.973126
  H 3.866420 -0.077479 1.753012
  H 1.936635 0.598059 3.263920
  H 1.936171 2.185563 2.497628
  H 3.311665 0.079446 -1.285097
 15
 3.519240
  C 0.835314 0.190339 0.673719
  C 2.190366 0.113064 0.516144
  C 3.141404 0.663792 1.498634
  C 2.556827 1.354661 2.718081
  H 3.362068 1.729347 3.343940
  C 2.733883 -0.576250 -0.673308
  H 3.472383 -1.329081 -0.397571
  H 0.178773 -0.590928 0.323568
  H 1.943373 -1.006763 -1.281081
  H 0.347962 1.038120 1.132973
  H 3.817255 1.344230 0.961389
  H 3.808070 -0.144134 1.827860
  H 1.961018 0.673961 3.322477
  H 1.928251 2.194300 2.432471
  H 3.265438 0.147262 -1.295520
 15
 2.448059
  C 0.823539 0.248170 0.644435
  C 2.176021 0.086748 0.523595
  C 3.127316 0.660662 1.495373
  C 2.560902 1.321369 2.733058
  H 3.369804 1.752850 3.317515
  C 2.738236 -0.616538 -0.645907
  H 3.570394 -1.261609 -0.365470
  H 0.116092 -0.428744 0.190692
  H 1.991675 -1.165103 -1.209766
  H 0.402907 1.096524 1.162819
  H 3.754404 1.373438 0.938256
  H 3.848532 -0.107913 1.799946
  H 2.044759 0.607089 3.371316
  H 1.856985 2.111983 2.480290
  H 3.160820 0.122996 -1.332377
