 16
 0.000000
  C 1.004969 0.137815 0.394441
  C 2.468705 0.133135 0.382755
  C 3.214374 0.602185 1.549539
  H 2.559463 0.925595 2.354664
  C 3.108473 -0.330282 -0.770603
  C 4.503123 -0.400389 -0.946368
  C 5.097579 -0.854666 -2.079106
  H 4.546082 -1.200663 -2.941373
  H 6.171831 -0.889410 -2.166384
  H 0.596707 0.513058 1.328016
  H 0.621599 -0.870309 0.216377
  H 0.621487 0.742299 -0.431708
  H 3.875040 1.427095 1.273015
  H 3.875212 -0.184572 1.920787
  H 2.472886 -0.656596 -1.582545
  H 5.127990 -0.071259 -0.126972
 16
 3.707797
  C 1.004921 0.130720 0.376786
  C 2.465211 0.146571 0.415732
  C 3.182347 0.622270 1.599780
  H 2.508042 0.938331 2.388390
  C 3.157866 -0.303158 -0.704311
  C 4.525957 -0.396585 -0.937584
  C 5.028534 -0.867753 -2.111077
  H 4.388304 -1.189771 -2.912649
  H 6.087929 -0.934499 -2.277259
  H 0.554376 0.499367 1.294295
  H 0.645216 -0.882166 0.169162
  H 0.644995 0.718306 -0.473836
  H 3.845839 1.451183 1.336375
  H 3.847043 -0.157827 1.982104
  H 2.729662 -0.664503 -1.604085
  H 5.229009 -0.087862 -0.168383
 16
 13.810641
  C 0.997839 0.129210 0.372517
  C 2.456377 0.155531 0.438286
  C 3.157074 0.634342 1.630225
  H 2.474227 0.947340 2.411251
  C 3.174178 -0.286633 -0.662214
  C 4.529335 -0.401125 -0.948753
  C 4.989054 -0.878116 -2.136906
  H 4.327219 -1.196250 -2.928767
  H 6.048276 -0.955939 -2.331679
  H 0.529303 0.494054 1.280225
  H 0.649911 -0.886247 0.156530
  H 0.649887 0.712808 -0.486005
  H 3.821841 1.464552 1.371972
  H 3.823076 -0.143068 2.016997
  H 2.917107 -0.667563 -1.609520
  H 5.285521 -0.107458 -0.218432
 16
 27.249238
  C 0.987811 0.129682 0.373698
  C 2.446888 0.161198 0.452191
  C 3.139601 0.641826 1.648639
  H 2.452919 0.953523 2.426983
  C 3.175074 -0.276512 -0.637348
  C 4.530411 -0.408089 -0.965643
  C 4.969317 -0.887298 -2.159411
  H 4.304463 -1.204370 -2.949495
  H 6.022908 -0.968945 -2.363540
  H 0.509373 0.493317 1.278818
  H 0.646743 -0.884490 0.154382
  H 0.646315 0.710066 -0.486393
  H 3.802706 1.469374 1.393143
  H 3.804684 -0.131646 2.035522
  H 3.068335 -0.667341 -1.609994
  H 5.316774 -0.125974 -0.263506
 16
 42.366020
  C 0.973075 0.132697 0.380987
  C 2.437355 0.165013 0.461670
  C 3.127131 0.644440 1.655507
  H 2.442326 0.955697 2.432868
  C 3.165670 -0.270939 -0.623431
  C 4.532718 -0.415222 -0.984054
  C 4.963554 -0.894716 -2.177650
  H 4.306081 -1.212320 -2.967786
  H 6.018162 -0.976296 -2.382105
  H 0.490884 0.497207 1.288648
  H 0.633062 -0.881792 0.160027
  H 0.632572 0.712565 -0.480429
  H 3.789083 1.468683 1.399331
  H 3.791177 -0.127157 2.039715
  H 3.189012 -0.664099 -1.601482
  H 5.335940 -0.142657 -0.306700
 16
 55.526948
  C 0.964168 0.139032 0.390968
  C 2.422813 0.164538 0.463285
  C 3.120778 0.643924 1.662687
  H 2.437541 0.957658 2.442505
  C 3.142994 -0.276071 -0.629506
  C 4.520733 -0.419699 -1.007277
  C 4.969429 -0.902694 -2.196412
  H 4.320097 -1.236164 -3.004352
  H 6.024554 -0.974236 -2.386066
  H 0.492538 0.503255 1.295491
  H 0.619140 -0.876061 0.171794
  H 0.621160 0.721197 -0.469696
  H 3.787707 1.470802 1.403227
  H 3.786117 -0.133421 2.047956
  H 3.278413 -0.676207 -1.616258
  H 5.333017 -0.129024 -0.308735
 16
 64.812203
  C 0.935307 0.160181 0.405723
  C 2.435887 0.142088 0.428110
  C 3.136288 0.619854 1.658156
  H 2.433652 0.933453 2.415736
  C 3.121079 -0.286662 -0.606669
  C 4.494048 -0.421169 -1.072759
  C 5.008300 -0.912254 -2.213578
  H 4.434414 -1.300475 -3.035240
  H 6.075825 -0.934450 -2.356809
  H 0.521968 0.540259 1.322993
  H 0.563669 -0.843522 0.214402
  H 0.572551 0.759050 -0.425393
  H 3.796246 1.440804 1.395100
  H 3.774583 -0.156199 2.064661
  H 3.300446 -0.712480 -1.602949
  H 5.263964 -0.064445 -0.363955
 16
 67.886470
  C 0.923236 0.173404 0.416799
  C 2.431612 0.138506 0.424590
  C 3.138622 0.612941 1.670008
  H 2.427447 0.926863 2.412628
  C 3.113960 -0.292450 -0.598622
  C 4.476639 -0.435572 -1.138239
  C 5.047680 -0.929159 -2.243010
  H 4.522098 -1.355515 -3.080512
  H 6.119644 -0.912226 -2.348604
  H 0.540321 0.559101 1.344655
  H 0.534250 -0.828531 0.255942
  H 0.564678 0.792373 -0.396990
  H 3.788379 1.439133 1.416939
  H 3.749455 -0.176524 2.078534
  H 3.321585 -0.733367 -1.600224
  H 5.200451 -0.017694 -0.401132
 16
 71.921929
  C 0.924660 0.181670 0.422640
  C 2.428870 0.143445 0.438252
  C 3.129286 0.605321 1.680934
  H 2.395774 0.929088 2.441447
  C 3.111524 -0.291257 -0.588979
  C 4.482823 -0.435785 -1.177846
  C 5.067285 -0.944881 -2.263803
  H 4.550208 -1.405031 -3.083622
  H 6.139034 -0.902148 -2.367787
  H 0.538642 0.566913 1.351105
  H 0.529762 -0.815316 0.265078
  H 0.573320 0.807523 -0.391494
  H 3.791386 1.444887 1.437857
  H 3.738380 -0.205354 2.094295
  H 3.360078 -0.736034 -1.589443
  H 5.173821 0.024424 -0.454048
 16
 75.903090
  C 0.921925 0.190407 0.426306
  C 2.423485 0.145814 0.443302
  C 3.129019 0.598012 1.696425
  H 2.410708 0.916696 2.444705
  C 3.096948 -0.290783 -0.587298
  C 4.485206 -0.427024 -1.202133
  C 5.082144 -0.957246 -2.271792
  H 4.570468 -1.460087 -3.076391
  H 6.149807 -0.888085 -2.375907
  H 0.538002 0.575267 1.356964
  H 0.518257 -0.810111 0.265887
  H 0.573054 0.823403 -0.388853
  H 3.793281 1.429933 1.465301
  H 3.727342 -0.212519 2.104636
  H 3.397871 -0.735376 -1.589895
  H 5.152244 0.078856 -0.488417
 16
 79.425129
  C 0.915172 0.202883 0.437106
  C 2.414862 0.142636 0.439759
  C 3.135603 0.578714 1.690657
  H 2.422931 0.902407 2.449669
  C 3.071201 -0.296332 -0.598888
  C 4.478288 -0.410478 -1.219888
  C 5.100991 -0.966397 -2.263532
  H 4.612799 -1.520894 -3.048209
  H 6.168612 -0.864126 -2.362378
  H 0.542729 0.589929 1.376783
  H 0.500325 -0.790857 0.277338
  H 0.566193 0.842032 -0.371425
  H 3.806829 1.403965 1.459717
  H 3.727848 -0.241594 2.089877
  H 3.431656 -0.733917 -1.597633
  H 5.115348 0.149940 -0.524471
 16
 82.431958
  C 0.908959 0.219860 0.448670
  C 2.406392 0.138195 0.430035
  C 3.153075 0.552527 1.677060
  H 2.463704 0.880270 2.438297
  C 3.039145 -0.311747 -0.617509
  C 4.457778 -0.387786 -1.228644
  C 5.119938 -0.966014 -2.238502
  H 4.668442 -1.584331 -3.003202
  H 6.179734 -0.815826 -2.330057
  H 0.557475 0.608826 1.390356
  H 0.474739 -0.771473 0.292845
  H 0.557378 0.868415 -0.356590
  H 3.835860 1.367349 1.442721
  H 3.734239 -0.280067 2.063175
  H 3.458836 -0.750124 -1.596302
  H 5.053699 0.235816 -0.555957
 16
 84.795343
  C 0.899255 0.234076 0.470850
  C 2.394428 0.134287 0.424748
  C 3.167683 0.531436 1.662574
  H 2.489350 0.866414 2.443506
  C 3.002236 -0.318310 -0.635395
  C 4.450395 -0.374393 -1.247376
  C 5.152652 -0.971355 -2.218610
  H 4.740554 -1.632913 -2.962623
  H 6.212706 -0.791424 -2.294995
  H 0.567623 0.625840 1.423585
  H 0.450613 -0.750816 0.319345
  H 0.542027 0.888196 -0.325372
  H 3.853682 1.335672 1.420885
  H 3.743185 -0.307795 2.032925
  H 3.479220 -0.739069 -1.635249
  H 5.009962 0.296440 -0.588531
 16
 87.461703
  C 0.903843 0.236439 0.477954
  C 2.403286 0.135364 0.435622
  C 3.172398 0.524719 1.673705
  H 2.494149 0.855683 2.450805
  C 3.011328 -0.310597 -0.625618
  C 4.451571 -0.363381 -1.265252
  C 5.167555 -0.977694 -2.217221
  H 4.768234 -1.672607 -2.939752
  H 6.224341 -0.782983 -2.295064
  H 0.568992 0.627083 1.433714
  H 0.456179 -0.738302 0.323162
  H 0.551551 0.891374 -0.313969
  H 3.861654 1.333099 1.436698
  H 3.749467 -0.321161 2.043403
  H 3.504248 -0.714929 -1.651827
  H 4.989358 0.339219 -0.622918
