 10
 0.000000
  H 3.410537 -0.453276 -1.078372
  C 4.479923 -0.442112 -1.050680
  C 5.203136 -0.856057 -2.082549
  C 4.638065 -1.371343 -3.366882
  H 3.553835 -1.360686 -3.340909
  O 6.569629 -0.856316 -2.083361
  H 4.936086 -0.078351 -0.144031
  H 4.993508 -2.384746 -3.540045
  H 4.993862 -0.758882 -4.192492
  H 6.887002 -0.516566 -1.236397
 10
 2.765286
  H 3.437866 -0.666873 -0.920856
  C 4.465683 -0.417907 -1.068475
  C 5.190509 -0.890511 -2.076351
  C 4.640700 -1.364832 -3.384779
  H 3.566542 -1.212685 -3.424755
  O 6.553608 -0.814237 -2.086798
  H 4.954129 0.035650 -0.216375
  H 4.857960 -2.422450 -3.533795
  H 5.123910 -0.811469 -4.186496
  H 6.835716 -0.512937 -1.216805
 10
 10.795692
  H 3.538013 -0.831592 -0.708398
  C 4.431902 -0.391420 -1.087567
  C 5.155432 -0.873668 -2.101315
  C 4.636163 -1.346244 -3.421365
  H 3.574249 -1.160014 -3.495598
  O 6.518448 -0.815688 -2.059952
  H 4.979220 0.153556 -0.319971
  H 4.822825 -2.409932 -3.566920
  H 5.170445 -0.807749 -4.203335
  H 6.750203 -0.596620 -1.153797
 10
 22.543188
  H 3.687538 -0.944755 -0.490015
  C 4.384702 -0.413580 -1.095507
  C 5.116871 -0.916790 -2.108440
  C 4.628790 -1.327350 -3.457616
  H 3.583985 -1.065588 -3.578343
  O 6.477483 -0.821592 -2.038998
  H 5.001138 0.191531 -0.414092
  H 4.747190 -2.400144 -3.617904
  H 5.233481 -0.815137 -4.201404
  H 6.650495 -0.569540 -1.123128
 10
 35.462930
  H 3.811151 -0.990057 -0.367815
  C 4.331514 -0.416339 -1.090776
  C 5.083137 -0.934451 -2.107449
  C 4.614524 -1.303436 -3.471142
  H 3.553996 -1.095025 -3.582441
  O 6.439720 -0.926439 -2.001174
  H 4.969560 0.301056 -0.531136
  H 4.793880 -2.357519 -3.694833
  H 5.183718 -0.722331 -4.191799
  H 6.652850 -0.662111 -1.093787
 10
 51.816660
  H 3.981764 -1.056658 -0.299614
  C 4.284231 -0.419013 -1.100272
  C 5.075580 -0.919313 -2.116250
  C 4.607360 -1.286477 -3.480735
  H 3.546825 -1.080974 -3.578871
  O 6.414666 -1.052395 -1.957068
  H 4.871304 0.395206 -0.610221
  H 4.787974 -2.342781 -3.689981
  H 5.175333 -0.710851 -4.207734
  H 6.643734 -0.712577 -1.079531
 10
 73.391917
  H 4.231108 -1.057012 -0.221977
  C 4.241268 -0.401967 -1.100669
  C 5.086517 -0.923068 -2.108470
  C 4.614958 -1.269144 -3.473572
  H 3.558172 -1.046581 -3.571681
  O 6.404674 -1.175119 -1.949884
  H 4.595359 0.570050 -0.738769
  H 4.790459 -2.327915 -3.666171
  H 5.187954 -0.711543 -4.215372
  H 6.695407 -0.932524 -1.057252
 10
 55.442769
  H 4.413865 -1.027054 -0.129600
  C 4.289898 -0.487840 -1.083038
  C 5.120779 -0.968945 -2.085548
  C 4.630445 -1.265323 -3.465041
  H 3.595086 -0.950179 -3.563895
  O 6.442515 -1.230121 -1.954868
  H 4.335161 0.573930 -0.861067
  H 4.700922 -2.337202 -3.627147
  H 5.244758 -0.776278 -4.224282
  H 6.745376 -1.045187 -1.059448
 10
 36.568397
  H 4.564068 -0.906990 -0.091544
  C 4.333235 -0.480055 -1.081703
  C 5.125781 -0.967478 -2.076459
  C 4.624782 -1.225665 -3.461049
  H 3.617736 -0.836808 -3.570189
  O 6.443732 -1.285850 -1.955449
  H 4.071729 0.548564 -0.948690
  H 4.614862 -2.304189 -3.610479
  H 5.274967 -0.793779 -4.222710
  H 6.784644 -1.088411 -1.074548
 10
 21.120451
  H 4.702996 -0.755609 -0.059128
  C 4.390237 -0.478929 -1.068170
  C 5.160199 -0.934191 -2.073906
  C 4.627315 -1.216443 -3.451362
  H 3.641645 -0.774582 -3.575239
  O 6.474608 -1.294717 -1.966732
  H 3.881503 0.453977 -1.043356
  H 4.554516 -2.300544 -3.559713
  H 5.304645 -0.853350 -4.232155
  H 6.807566 -1.225432 -1.062849
 10
 9.705015
  H 4.822228 -0.620830 -0.047029
  C 4.457793 -0.458689 -1.056462
  C 5.185490 -0.909143 -2.078477
  C 4.639928 -1.195270 -3.442500
  H 3.659397 -0.746276 -3.562747
  O 6.482544 -1.314989 -1.965680
  H 3.728938 0.323032 -1.121578
  H 4.553817 -2.275663 -3.542337
  H 5.309677 -0.840295 -4.223881
  H 6.823534 -1.170923 -1.074528
 10
 2.211574
  H 4.906184 -0.394244 -0.058596
  C 4.494186 -0.409932 -1.054798
  C 5.201882 -0.872527 -2.079368
  C 4.639252 -1.183897 -3.431524
  H 3.650098 -0.752441 -3.544641
  O 6.509571 -1.259156 -1.975342
  H 3.560866 0.100234 -1.183807
  H 4.576344 -2.263988 -3.537320
  H 5.296478 -0.811631 -4.216175
  H 6.835231 -1.095277 -1.080518
 10
 0.033201
  H 4.953286 -0.147983 -0.113054
  C 4.498258 -0.354183 -1.071356
  C 5.190917 -0.882270 -2.072358
  C 4.633152 -1.201974 -3.424710
  H 3.595045 -0.895562 -3.494286
  O 6.510167 -1.212760 -1.971801
  H 3.466786 -0.096215 -1.181193
  H 4.708727 -2.272318 -3.605281
  H 5.216475 -0.694189 -4.191940
  H 6.833752 -0.988224 -1.093703
