 31
 0.000000
  C 0.904686 0.048754 0.271691
  C 2.396097 0.059154 0.087326
  C 3.238875 -0.012278 1.353362
  C 2.524787 -0.088320 2.700888
  C 3.529318 -0.152928 3.845968
  C 2.991148 0.127374 -1.121652
  C 2.350484 0.204784 -2.493535
  C 0.839679 0.217308 -2.715408
  C 0.522440 0.301430 -4.206252
  C 4.453087 0.132313 -1.209117
  C 5.192032 0.194592 -2.312945
  H 6.270484 0.194341 -2.308442
  H 0.604898 -0.009988 1.312663
  H 0.461352 -0.816528 -0.214296
  H 0.461352 0.963214 -0.113869
  H 3.884859 0.870952 1.383233
  H 3.884861 -0.893264 1.283685
  H 1.892256 -0.977996 2.744625
  H 1.892250 0.790783 2.844433
  H 4.164304 -1.032031 3.756945
  H 3.007909 -0.206732 4.799392
  H 4.164299 0.730608 3.856400
  H 2.740401 -0.643682 -3.066720
  H 2.740401 1.112350 -2.967632
  H 0.385649 1.078154 -2.226129
  H 0.385649 -0.693119 -2.326077
  H 0.933754 1.210100 -4.641509
  H -0.554756 0.310056 -4.359122
  H 0.933751 -0.552506 -4.740963
  H 4.995413 0.079765 -0.277831
  H 4.811061 0.251435 -3.320288
 31
 7.170832
  C 0.780680 0.047679 0.290739
  C 2.429546 0.059487 0.081419
  C 3.264389 -0.011790 1.344706
  C 2.540648 -0.087525 2.686791
  C 3.538966 -0.152463 3.837707
  C 3.015463 0.127534 -1.124486
  C 2.369308 0.204746 -2.492862
  C 0.858310 0.216750 -2.705518
  C 0.535527 0.300816 -4.195387
  C 4.477249 0.132834 -1.218350
  C 5.210200 0.195190 -2.323543
  H 6.288720 0.194839 -2.317314
  H 0.493996 -0.011186 1.333888
  H 0.340800 -0.815734 -0.195116
  H 0.340800 0.960267 -0.094900
  H 3.910277 0.871239 1.377862
  H 3.910278 -0.892941 1.278315
  H 1.907720 -0.976724 2.725794
  H 1.907712 0.791639 2.825579
  H 4.174243 -1.031686 3.751496
  H 3.012879 -0.206121 4.788541
  H 4.174237 0.730878 3.850949
  H 2.757497 -0.643579 -3.067452
  H 2.757496 1.112330 -2.968370
  H 0.407007 1.077098 -2.213375
  H 0.407008 -0.693504 -2.313286
  H 0.945641 1.209471 -4.631822
  H -0.542105 0.309257 -4.344971
  H 0.945639 -0.552970 -4.731266
  H 5.023199 0.080412 -0.289313
  H 4.823285 0.251886 -3.328283
 31
 22.160445
  C 0.691064 0.046251 0.316051
  C 2.495769 0.060145 0.069786
  C 3.297587 -0.011137 1.333124
  C 2.534100 -0.085610 2.652834
  C 3.500501 -0.152128 3.831750
  C 3.056584 0.128213 -1.136496
  C 2.392201 0.204821 -2.494164
  C 0.880303 0.214938 -2.673396
  C 0.530727 0.298693 -4.157742
  C 4.520432 0.134582 -1.249328
  C 5.239371 0.197513 -2.364701
  H 6.317877 0.197133 -2.357954
  H 0.445157 -0.013011 1.366237
  H 0.265869 -0.815633 -0.170888
  H 0.265869 0.957443 -0.070836
  H 3.943044 0.871842 1.381223
  H 3.943049 -0.893920 1.281586
  H 1.899150 -0.972869 2.670864
  H 1.899145 0.793983 2.770562
  H 4.136806 -1.032179 3.761616
  H 2.949714 -0.204982 4.768414
  H 4.136802 0.730231 3.861059
  H 2.772913 -0.643250 -3.074391
  H 2.772910 1.112779 -2.975299
  H 0.440000 1.073829 -2.170175
  H 0.440001 -0.695112 -2.269992
  H 0.933355 1.207541 -4.600760
  H -0.549113 0.306134 -4.289609
  H 0.933354 -0.554549 -4.700188
  H 5.077366 0.082499 -0.326276
  H 4.836060 0.253807 -3.362330
 31
 38.507385
  C 0.575417 0.044361 0.349530
  C 2.535630 0.060416 0.064964
  C 3.324231 -0.011468 1.338974
  C 2.544474 -0.085500 2.650891
  C 3.497060 -0.152657 3.841124
  C 3.081450 0.129326 -1.156237
  C 2.410253 0.205821 -2.511887
  C 0.896382 0.215002 -2.674545
  C 0.532118 0.298560 -4.155384
  C 4.546012 0.135943 -1.273457
  C 5.260407 0.198879 -2.388891
  H 6.338424 0.198068 -2.374519
  H 0.365813 -0.015251 1.405917
  H 0.164232 -0.823107 -0.142406
  H 0.164231 0.961666 -0.041693
  H 3.970183 0.872169 1.394311
  H 3.970190 -0.895720 1.294552
  H 1.909042 -0.972251 2.659125
  H 1.909039 0.794689 2.758827
  H 4.133657 -1.032866 3.777253
  H 2.936606 -0.205183 4.771962
  H 4.133659 0.729160 3.876673
  H 2.788290 -0.642154 -3.094140
  H 2.788295 1.113921 -2.995052
  H 0.462634 1.073178 -2.164805
  H 0.462630 -0.695076 -2.264580
  H 0.930826 1.207436 -4.601790
  H -0.548797 0.305476 -4.277940
  H 0.930826 -0.554330 -4.701200
  H 5.103578 0.083823 -0.349769
  H 4.851610 0.254999 -3.383449
 31
 54.903100
  C 0.475211 0.044644 0.344524
  C 2.593262 0.061931 0.038127
  C 3.352637 -0.010097 1.314686
  C 2.545182 -0.083071 2.607859
  C 3.470861 -0.151382 3.818521
  C 3.116598 0.129594 -1.160973
  C 2.434288 0.205362 -2.503753
  C 0.918206 0.212405 -2.628518
  C 0.516104 0.295388 -4.099179
  C 4.581878 0.136312 -1.279998
  C 5.298492 0.199574 -2.401197
  H 6.376629 0.198372 -2.379899
  H 0.290458 -0.015139 1.403939
  H 0.084875 -0.824270 -0.154354
  H 0.084876 0.964165 -0.053435
  H 3.997738 0.873075 1.381504
  H 3.997740 -0.895173 1.281726
  H 1.908738 -0.968856 2.599378
  H 1.908728 0.798043 2.699079
  H 4.107853 -1.032394 3.768000
  H 2.890630 -0.203212 4.737030
  H 4.107847 0.729721 3.867428
  H 2.803810 -0.642435 -3.091232
  H 2.803808 1.113862 -2.992125
  H 0.498260 1.069685 -2.105138
  H 0.498264 -0.698304 -2.204905
  H 0.902682 1.204778 -4.555280
  H -0.567413 0.300794 -4.194980
  H 0.902683 -0.556925 -4.654687
  H 5.137304 0.084112 -0.354871
  H 4.886555 0.255616 -3.394402
 31
 68.224937
  C 0.334058 0.042045 0.390562
  C 2.605854 0.062099 0.035170
  C 3.345297 -0.010805 1.327248
  C 2.553102 -0.084291 2.629518
  C 3.493832 -0.151849 3.826822
  C 3.109218 0.130959 -1.185155
  C 2.445163 0.207331 -2.538667
  C 0.928102 0.213941 -2.655756
  C 0.512060 0.296618 -4.120921
  C 4.587780 0.136555 -1.284293
  C 5.322069 0.199794 -2.405061
  H 6.399432 0.196854 -2.352900
  H 0.242922 -0.018036 1.455282
  H 0.020202 -0.838144 -0.131670
  H 0.020202 0.975396 -0.029334
  H 3.991643 0.871784 1.394854
  H 3.991647 -0.895388 1.295136
  H 1.919544 -0.972300 2.622706
  H 1.919534 0.798846 2.722645
  H 4.131142 -1.032135 3.766435
  H 2.927040 -0.204138 4.753499
  H 4.131132 0.729630 3.865850
  H 2.820458 -0.640544 -3.121150
  H 2.820442 1.115312 -3.022044
  H 0.518870 1.070047 -2.122825
  H 0.518873 -0.696668 -2.222527
  H 0.895899 1.205955 -4.579532
  H -0.571978 0.301608 -4.209272
  H 0.895899 -0.555364 -4.678929
  H 5.117589 0.083608 -0.345882
  H 4.910772 0.255808 -3.397812
 31
 81.213698
  C 0.259873 0.041644 0.397648
  C 2.689065 0.063096 0.017467
  C 3.390851 -0.009936 1.311813
  C 2.536021 -0.081363 2.577597
  C 3.417946 -0.151470 3.820083
  C 3.186383 0.132259 -1.208229
  C 2.489292 0.207300 -2.538137
  C 0.968794 0.210366 -2.592453
  C 0.490782 0.292021 -4.039538
  C 4.655687 0.139720 -1.340425
  C 5.343310 0.202373 -2.450827
  H 6.419495 0.200917 -2.424989
  H 0.178921 -0.018739 1.467729
  H -0.048166 -0.842275 -0.128102
  H -0.048165 0.979100 -0.025324
  H 4.037080 0.874314 1.401626
  H 4.037091 -0.898680 1.301582
  H 1.900070 -0.967135 2.539337
  H 1.900067 0.803083 2.639222
  H 4.055017 -1.033423 3.790823
  H 2.806630 -0.202145 4.718149
  H 4.055023 0.728188 3.890225
  H 2.846341 -0.641155 -3.132813
  H 2.846361 1.117301 -3.033612
  H 0.580240 1.065627 -2.041101
  H 0.580229 -0.701501 -2.140807
  H 0.852709 1.202276 -4.514053
  H -0.596028 0.294416 -4.081914
  H 0.852699 -0.559067 -4.613430
  H 5.209725 0.087560 -0.415987
  H 4.906966 0.257694 -3.431267
 31
 90.851452
  C 0.143902 0.037655 0.468372
  C 2.719586 0.064129 -0.000826
  C 3.408795 -0.009499 1.304054
  C 2.535115 -0.080187 2.556763
  C 3.392295 -0.151247 3.816133
  C 3.208415 0.133368 -1.227874
  C 2.508999 0.208704 -2.562975
  C 0.990398 0.210346 -2.592073
  C 0.481104 0.291338 -4.027512
  C 4.676951 0.140257 -1.349947
  C 5.378460 0.203546 -2.471626
  H 6.455464 0.201722 -2.439287
  H 0.131633 -0.022377 1.532236
  H -0.122315 -0.847902 -0.063828
  H -0.122313 0.977464 0.039175
  H 4.054162 0.875454 1.401964
  H 4.054177 -0.899858 1.301791
  H 1.899901 -0.964206 2.502839
  H 1.899902 0.804274 2.602629
  H 4.028795 -1.033729 3.799310
  H 2.763565 -0.201242 4.702132
  H 4.028796 0.727535 3.898689
  H 2.861318 -0.640545 -3.159372
  H 2.861343 1.119711 -3.060093
  H 0.616894 1.061944 -2.030492
  H 0.616889 -0.699022 -2.129853
  H 0.831819 1.201818 -4.509559
  H -0.606297 0.292412 -4.046528
  H 0.831814 -0.559133 -4.608913
  H 5.218453 0.087473 -0.414464
  H 4.942071 0.258911 -3.452845
 31
 99.055638
  C 0.016941 0.037597 0.469463
  C 2.752167 0.064808 -0.012790
  C 3.428320 -0.009298 1.300538
  C 2.541951 -0.079363 2.542190
  C 3.383941 -0.150892 3.809832
  C 3.241590 0.133831 -1.236002
  C 2.527680 0.208767 -2.564044
  C 1.006684 0.208712 -2.563034
  C 0.467607 0.289047 -3.986769
  C 4.723079 0.141105 -1.364886
  C 5.423157 0.204631 -2.490759
  H 6.500839 0.202957 -2.461021
  H 0.006507 -0.022639 1.536916
  H -0.233731 -0.849696 -0.068991
  H -0.233727 0.979832 0.034249
  H 4.070909 0.872906 1.405695
  H 4.070909 -0.897721 1.305785
  H 1.906405 -0.963634 2.480488
  H 1.906395 0.806235 2.580357
  H 4.020134 -1.034055 3.800132
  H 2.745075 -0.200471 4.688463
  H 4.020113 0.727738 3.899541
  H 2.870878 -0.639250 -3.164902
  H 2.870857 1.118943 -3.065661
  H 0.643174 1.061949 -1.991553
  H 0.643179 -0.703383 -2.091177
  H 0.807227 1.200066 -4.475943
  H -0.619908 0.288840 -3.983066
  H 0.807232 -0.561177 -4.575339
  H 5.265227 0.088591 -0.434165
  H 4.983630 0.259892 -3.470168
 31
 105.205878
  C -0.098483 0.035294 0.510250
  C 2.789498 0.065363 -0.022654
  C 3.451505 -0.008817 1.292000
  C 2.541996 -0.078086 2.519545
  C 3.360044 -0.150527 3.803365
  C 3.274889 0.134401 -1.246138
  C 2.550677 0.209046 -2.569035
  C 1.032735 0.207594 -2.543295
  C 0.468541 0.287357 -3.956889
  C 4.748534 0.142088 -1.382362
  C 5.438850 0.205924 -2.513712
  H 6.516618 0.204776 -2.493300
  H -0.090011 -0.024726 1.573897
  H -0.338482 -0.851106 -0.028888
  H -0.338479 0.976721 0.074255
  H 4.093941 0.874527 1.405691
  H 4.093945 -0.899337 1.305599
  H 1.906489 -0.961171 2.445236
  H 1.906488 0.807744 2.545049
  H 3.995314 -1.034285 3.805768
  H 2.704563 -0.199417 4.669802
  H 3.995304 0.727344 3.905166
  H 2.887101 -0.639278 -3.174534
  H 2.887101 1.120093 -3.075257
  H 0.679954 1.058064 -1.966012
  H 0.679953 -0.702420 -2.065349
  H 0.798541 1.198673 -4.451934
  H -0.618719 0.286059 -3.933875
  H 0.798537 -0.562480 -4.551306
  H 5.295937 0.089552 -0.451253
  H 4.989529 0.260995 -3.489732
 31
 109.663023
  C -0.215303 0.034225 0.529264
  C 2.828543 0.066174 -0.036986
  C 3.473645 -0.008524 1.286819
  C 2.540887 -0.076773 2.496297
  C 3.331913 -0.150107 3.795893
  C 3.312456 0.135107 -1.258604
  C 2.571372 0.209289 -2.573312
  C 1.051905 0.205832 -2.512049
  C 0.452130 0.284776 -3.911157
  C 4.790662 0.143207 -1.402127
  C 5.475810 0.207257 -2.537289
  H 6.553849 0.206420 -2.522386
  H -0.195513 -0.025874 1.594303
  H -0.441271 -0.853889 -0.014451
  H -0.441266 0.977868 0.088916
  H 4.113921 0.873546 1.411401
  H 4.113921 -0.899003 1.311380
  H 1.905745 -0.958796 2.408181
  H 1.905742 0.809560 2.507964
  H 3.965953 -1.034642 3.811293
  H 2.658714 -0.198219 4.648550
  H 3.965934 0.727057 3.910695
  H 2.897332 -0.638344 -3.184357
  H 2.897317 1.120241 -3.085102
  H 0.712016 1.057047 -1.924085
  H 0.712028 -0.706097 -2.023592
  H 0.768354 1.196555 -4.414252
  H -0.634201 0.281940 -3.860893
  H 0.768362 -0.564639 -4.513647
  H 5.339727 0.090837 -0.473957
  H 5.021189 0.262122 -3.509677
 31
 112.718264
  C -0.331047 0.032443 0.560820
  C 2.866680 0.066862 -0.049197
  C 3.493627 -0.008094 1.279183
  C 2.535117 -0.075317 2.470472
  C 3.297603 -0.149615 3.787191
  C 3.348247 0.135790 -1.270744
  C 2.592380 0.209451 -2.576216
  C 1.076370 0.204100 -2.481402
  C 0.443626 0.282173 -3.865021
  C 4.822403 0.144349 -1.422399
  C 5.498276 0.208688 -2.562676
  H 6.576411 0.208368 -2.556922
  H -0.297058 -0.027516 1.623374
  H -0.544468 -0.855329 0.014693
  H -0.544464 0.976017 0.118035
  H 4.132491 0.873962 1.414504
  H 4.132490 -0.899763 1.314417
  H 1.900343 -0.956387 2.367797
  H 1.900340 0.811706 2.467566
  H 3.930080 -1.034964 3.816443
  H 2.605804 -0.196891 4.625008
  H 3.930065 0.726806 3.915847
  H 2.908401 -0.638052 -3.192682
  H 2.908389 1.120895 -3.093415
  H 0.750225 1.053250 -1.885319
  H 0.750227 -0.706711 -1.984631
  H 0.746600 1.194373 -4.375400
  H -0.641120 0.277872 -3.788785
  H 0.746598 -0.566820 -4.474783
  H 5.375924 0.092035 -0.495202
  H 5.034150 0.263370 -3.531812
 31
 114.734648
  C -0.449488 0.030953 0.587274
  C 2.903082 0.067542 -0.061247
  C 3.511920 -0.007854 1.274924
  C 2.528870 -0.073980 2.446780
  C 3.262507 -0.149157 3.779077
  C 3.382887 0.136413 -1.281777
  C 2.609846 0.209575 -2.578399
  C 1.094189 0.202269 -2.448948
  C 0.427283 0.279465 -3.817020
  C 4.857637 0.145418 -1.441334
  C 5.526200 0.210011 -2.586100
  H 6.604314 0.210128 -2.588085
  H -0.404367 -0.029046 1.650528
  H -0.650448 -0.858175 0.037251
  H -0.650442 0.976313 0.140771
  H 4.148687 0.873540 1.421543
  H 4.148685 -0.900137 1.321459
  H 1.895014 -0.953768 2.329822
  H 1.895019 0.813372 2.429536
  H 3.893077 -1.035247 3.821882
  H 2.552802 -0.195574 4.601680
  H 3.893064 0.726471 3.921284
  H 2.915351 -0.637680 -3.200233
  H 2.915338 1.121368 -3.100953
  H 0.781189 1.051593 -1.843377
  H 0.781196 -0.709777 -1.942776
  H 0.716426 1.192106 -4.334642
  H -0.655320 0.273664 -3.714212
  H 0.716430 -0.569164 -4.434043
  H 5.414177 0.093248 -0.516683
  H 5.054938 0.264442 -3.550774
 31
 115.956591
  C -0.570995 0.029254 0.617363
  C 2.936090 0.068104 -0.071230
  C 3.526089 -0.007609 1.270567
  C 2.518307 -0.072635 2.422941
  C 3.223284 -0.148684 3.770657
  C 3.413923 0.136976 -1.291773
  C 2.624710 0.209533 -2.577676
  C 1.113137 0.200321 -2.414460
  C 0.414007 0.276549 -3.765390
  C 4.885955 0.146485 -1.460251
  C 5.545045 0.211367 -2.610137
  H 6.623162 0.212025 -2.621703
  H -0.515324 -0.030638 1.678743
  H -0.760122 -0.859625 0.064712
  H -0.760116 0.974664 0.168219
  H 4.160831 0.873404 1.428255
  H 4.160827 -0.900757 1.328142
  H 1.885379 -0.951457 2.291871
  H 1.885379 0.815352 2.391564
  H 3.851755 -1.035588 3.826901
  H 2.496023 -0.194236 4.577958
  H 3.851742 0.726241 3.926309
  H 2.919544 -0.637451 -3.204552
  H 2.919530 1.121629 -3.105272
  H 0.813825 1.048157 -1.801124
  H 0.813834 -0.711120 -1.900406
  H 0.689528 1.189534 -4.289628
  H -0.665691 0.269285 -3.636652
  H 0.689530 -0.571667 -4.389018
  H 5.447266 0.094433 -0.537684
  H 5.064257 0.265585 -3.571051
