 31
 0.000000
  C 0.955507 0.145911 0.415914
  C 2.428568 0.140590 0.401501
  C 3.224876 0.605734 1.558077
  C 2.464707 1.098976 2.785722
  C 3.432568 1.538929 3.879827
  C 3.036386 -0.326362 -0.760761
  C 4.419626 -0.413108 -0.977562
  C 5.089766 -0.859569 -2.090704
  C 4.616704 -1.379537 -3.387480
  C 3.132839 -1.506809 -3.706077
  C 2.935500 -2.070483 -5.111886
  H 6.170576 -0.848499 -2.063039
  H 0.530380 0.517613 1.340802
  H 0.580519 -0.864843 0.249070
  H 0.579880 0.759671 -0.404025
  H 3.882470 1.413384 1.216953
  H 3.882930 -0.213002 1.870698
  H 1.828405 0.305144 3.181296
  H 1.828040 1.945527 2.522009
  H 4.068387 0.714137 4.193832
  H 2.882403 1.888478 4.749923
  H 4.068013 2.351859 3.535589
  H 2.373229 -0.642924 -1.548166
  H 5.042376 -0.082872 -0.155179
  H 5.083376 -2.365743 -3.508644
  H 5.083979 -0.750691 -4.156447
  H 2.650993 -0.529071 -3.660081
  H 2.650444 -2.181592 -2.997425
  H 3.382557 -1.420457 -5.860523
  H 1.874946 -2.159203 -5.334029
  H 3.382053 -3.057905 -5.203902
 31
 7.692786
  C 0.831492 0.146990 0.418593
  C 2.463874 0.140631 0.401494
  C 3.252657 0.604370 1.554662
  C 2.488151 1.096395 2.779331
  C 3.452339 1.537578 3.876609
  C 3.060329 -0.324915 -0.757338
  C 4.442714 -0.413749 -0.979405
  C 5.104343 -0.860896 -2.094221
  C 4.627956 -1.379100 -3.386459
  C 3.143670 -1.505067 -3.701689
  C 2.943031 -2.068662 -5.107163
  H 6.186295 -0.849948 -2.066900
  H 0.413787 0.518874 1.344004
  H 0.461973 -0.862444 0.252035
  H 0.461360 0.760056 -0.400186
  H 3.910933 1.412282 1.215020
  H 3.911379 -0.213554 1.868504
  H 1.851682 0.301723 3.172228
  H 1.851333 1.941737 2.513134
  H 4.088208 0.713588 4.192511
  H 2.899420 1.886469 4.745107
  H 4.087866 2.351237 3.534337
  H 2.392214 -0.640279 -1.541770
  H 5.071490 -0.085188 -0.161224
  H 5.094736 -2.365437 -3.509654
  H 5.095318 -0.751614 -4.157031
  H 2.662905 -0.526797 -3.654392
  H 2.662393 -2.179320 -2.991676
  H 3.389203 -1.419085 -5.856681
  H 1.882166 -2.156759 -5.327665
  H 3.388746 -3.056351 -5.200070
 31
 23.635603
  C 0.742878 0.148687 0.422084
  C 2.534641 0.143456 0.408008
  C 3.289456 0.606981 1.561113
  C 2.496779 1.092266 2.769340
  C 3.434206 1.541640 3.887535
  C 3.100047 -0.320785 -0.747737
  C 4.483205 -0.416928 -0.988168
  C 5.122973 -0.868991 -2.115148
  C 4.631934 -1.383539 -3.397761
  C 3.145310 -1.504542 -3.700052
  C 2.930848 -2.067675 -5.103817
  H 6.206775 -0.860032 -2.093012
  H 0.347841 0.521795 1.350670
  H 0.398168 -0.861105 0.256750
  H 0.397695 0.763068 -0.395981
  H 3.949648 1.419285 1.232548
  H 3.949991 -0.206577 1.885834
  H 1.858692 0.292047 3.146330
  H 1.858455 1.930714 2.488014
  H 4.070221 0.723109 4.216936
  H 2.860719 1.885733 4.744322
  H 4.069972 2.360711 3.559002
  H 2.417452 -0.632312 -1.522668
  H 5.129647 -0.093115 -0.181961
  H 5.097227 -2.370725 -3.527891
  H 5.097664 -0.760359 -4.174109
  H 2.668465 -0.524445 -3.647930
  H 2.668168 -2.176750 -2.985081
  H 3.372929 -1.419821 -5.857165
  H 1.868269 -2.152755 -5.316343
  H 3.372723 -3.056669 -5.200487
 31
 41.053096
  C 0.643961 0.149338 0.423255
  C 2.595119 0.147290 0.417435
  C 3.325853 0.617808 1.588160
  C 2.506320 1.097440 2.782417
  C 3.416380 1.554303 3.919439
  C 3.144279 -0.324389 -0.756852
  C 4.524928 -0.425975 -1.010956
  C 5.146532 -0.881151 -2.145807
  C 4.639503 -1.393678 -3.423227
  C 3.149587 -1.508808 -3.710458
  C 2.918136 -2.070964 -5.111559
  H 6.230166 -0.874311 -2.129164
  H 0.267965 0.525738 1.360007
  H 0.325457 -0.870564 0.257905
  H 0.325149 0.771128 -0.401815
  H 3.988119 1.435012 1.271510
  H 3.988407 -0.191106 1.924835
  H 1.866720 0.291451 3.144525
  H 1.866512 1.929821 2.486418
  H 4.052186 0.741069 4.262008
  H 2.822830 1.893628 4.764452
  H 4.051965 2.378680 3.604144
  H 2.452620 -0.632943 -1.524464
  H 5.183604 -0.105765 -0.213749
  H 5.101915 -2.381601 -3.560606
  H 5.102258 -0.774965 -4.205407
  H 2.677414 -0.526786 -3.652606
  H 2.677332 -2.178498 -2.989941
  H 3.355016 -1.424994 -5.869607
  H 1.853146 -2.151998 -5.313594
  H 3.355072 -3.061749 -5.212897
 31
 58.360876
  C 0.544206 0.147421 0.418382
  C 2.654711 0.146024 0.414494
  C 3.360543 0.614719 1.580631
  C 2.521811 1.088985 2.761474
  C 3.410751 1.551390 3.912080
  C 3.173582 -0.319319 -0.743966
  C 4.550973 -0.424340 -1.006737
  C 5.161753 -0.882559 -2.149331
  C 4.643803 -1.392877 -3.421281
  C 3.151687 -1.503412 -3.696936
  C 2.907373 -2.064714 -5.096024
  H 6.245966 -0.877212 -2.136544
  H 0.193369 0.525887 1.360162
  H 0.252557 -0.875789 0.255353
  H 0.252411 0.773246 -0.407333
  H 4.023262 1.434269 1.271379
  H 4.023572 -0.190719 1.924298
  H 1.881407 0.278511 3.111472
  H 1.881145 1.916167 2.453600
  H 4.046321 0.742166 4.264811
  H 2.802022 1.886897 4.747589
  H 4.045996 2.379942 3.606810
  H 2.473844 -0.624802 -1.503952
  H 5.217281 -0.106100 -0.214402
  H 5.104035 -2.381182 -3.564171
  H 5.104310 -0.777672 -4.207678
  H 2.683094 -0.519770 -3.634683
  H 2.683075 -2.171311 -2.972136
  H 3.340316 -1.420122 -5.857556
  H 1.840691 -2.142575 -5.290027
  H 3.340451 -3.056841 -5.200914
 31
 74.199760
  C 0.432196 0.153857 0.434831
  C 2.702046 0.153144 0.432639
  C 3.391413 0.630002 1.618749
  C 2.527601 1.099479 2.787627
  C 3.390379 1.569063 3.955510
  C 3.214108 -0.327698 -0.764183
  C 4.598994 -0.440003 -1.045182
  C 5.191860 -0.899990 -2.192231
  C 4.657016 -1.407830 -3.458285
  C 3.161650 -1.511542 -3.717433
  C 2.899005 -2.071519 -5.113638
  H 6.276084 -0.898205 -2.188157
  H 0.104536 0.535772 1.384958
  H 0.166669 -0.877537 0.273181
  H 0.166507 0.786398 -0.395654
  H 4.054987 1.455149 1.320229
  H 4.055479 -0.171884 1.974136
  H 1.886545 0.283528 3.123695
  H 1.886009 1.920799 2.465820
  H 4.025334 0.765051 4.320748
  H 2.762916 1.899805 4.779216
  H 4.024751 2.402641 3.662667
  H 2.504276 -0.631135 -1.518893
  H 5.275801 -0.125287 -0.261573
  H 5.112637 -2.397609 -3.608136
  H 5.113066 -0.796390 -4.250652
  H 2.698411 -0.525847 -3.649350
  H 2.698176 -2.176895 -2.987132
  H 3.326383 -1.428904 -5.879979
  H 1.829919 -2.144525 -5.295921
  H 3.326303 -3.065619 -5.223506
 31
 84.532044
  C 0.436135 0.140591 0.397428
  C 2.865130 0.150502 0.426869
  C 3.463329 0.642762 1.653650
  C 2.508976 1.089020 2.762610
  C 3.275072 1.579351 3.983303
  C 3.295517 -0.320812 -0.746578
  C 4.679067 -0.450115 -1.073626
  C 5.221692 -0.914985 -2.233457
  C 4.640613 -1.420372 -3.491272
  C 3.134546 -1.502164 -3.692383
  C 2.815385 -2.058475 -5.078131
  H 6.306722 -0.924448 -2.259328
  H 0.175146 0.529398 1.365039
  H 0.264230 -0.908730 0.238621
  H 0.265336 0.788856 -0.443106
  H 4.108507 1.492146 1.388211
  H 4.108197 -0.154379 2.049835
  H 1.874835 0.251054 3.051329
  H 1.875493 1.894212 2.390896
  H 3.904818 0.792589 4.392240
  H 2.582770 1.892302 4.760829
  H 3.905283 2.429958 3.734003
  H 2.569609 -0.617334 -1.482767
  H 5.373971 -0.140481 -0.305037
  H 5.075953 -2.415725 -3.653401
  H 5.074888 -0.813120 -4.296969
  H 2.689223 -0.508985 -3.609306
  H 2.690431 -2.162946 -2.945598
  H 3.230024 -1.422711 -5.857414
  H 1.740229 -2.119297 -5.227232
  H 3.231218 -3.056061 -5.201800
 31
 90.030512
  C 0.410826 0.130462 0.372781
  C 2.998303 0.157404 0.441746
  C 3.506451 0.655069 1.683098
  C 2.490301 1.087841 2.759497
  C 3.192803 1.590657 4.012803
  C 3.359935 -0.301669 -0.703605
  C 4.771778 -0.457431 -1.093505
  C 5.261918 -0.929205 -2.268870
  C 4.634123 -1.437325 -3.532669
  C 3.118520 -1.502079 -3.692030
  C 2.750900 -2.054388 -5.066872
  H 6.346715 -0.952752 -2.328718
  H 0.172428 0.519153 1.341852
  H 0.301285 -0.924420 0.209395
  H 0.301021 0.780131 -0.474204
  H 4.140862 1.520928 1.455508
  H 4.140362 -0.127749 2.117967
  H 1.857450 0.241001 3.021672
  H 1.858204 1.881358 2.363236
  H 3.817680 0.815214 4.449267
  H 2.460513 1.890025 4.757882
  H 3.818202 2.452413 3.792123
  H 2.615442 -0.591569 -1.425313
  H 5.488188 -0.155733 -0.341670
  H 5.049235 -2.436765 -3.708434
  H 5.048433 -0.837015 -4.351273
  H 2.686963 -0.503706 -3.597036
  H 2.687817 -2.157698 -2.932735
  H 3.148107 -1.422325 -5.858623
  H 1.670746 -2.101398 -5.182142
  H 3.149067 -3.058127 -5.201673
 31
 91.511557
  C 0.477402 0.085058 0.278289
  C 3.217718 0.169139 0.463984
  C 3.583711 0.682688 1.738410
  C 2.456817 1.073579 2.722111
  C 3.030836 1.598943 4.027165
  C 3.518417 -0.295480 -0.694079
  C 4.901083 -0.484756 -1.148175
  C 5.301207 -0.957262 -2.322647
  C 4.599657 -1.450488 -3.558134
  C 3.074759 -1.473906 -3.628861
  C 2.613084 -2.014746 -4.980406
  H 6.381641 -1.007373 -2.439904
  H 0.232097 0.472426 1.243162
  H 0.461464 -0.974659 0.119296
  H 0.455077 0.739305 -0.570373
  H 4.189381 1.579820 1.570012
  H 4.194537 -0.078472 2.235925
  H 1.841002 0.201796 2.926465
  H 1.835746 1.841345 2.268853
  H 3.644471 0.847576 4.516783
  H 2.225503 1.867983 4.704617
  H 3.639044 2.484014 3.860355
  H 2.764401 -0.575845 -1.399968
  H 5.646060 -0.198801 -0.424411
  H 4.972707 -2.461636 -3.748773
  H 4.977938 -0.853534 -4.393951
  H 2.677327 -0.463850 -3.512465
  H 2.672023 -2.120927 -2.847428
  H 2.981040 -1.391622 -5.793287
  H 1.527162 -2.032682 -5.033575
  H 2.975897 -3.028891 -5.136455
 31
 93.656220
  C 0.407735 0.064308 0.230536
  C 3.303587 0.169912 0.464816
  C 3.619855 0.686987 1.746354
  C 2.453384 1.060495 2.689169
  C 2.975454 1.594529 4.014463
  C 3.583314 -0.296163 -0.695474
  C 4.959013 -0.495450 -1.172415
  C 5.327614 -0.972309 -2.356930
  C 4.596121 -1.450670 -3.556884
  C 3.071971 -1.450892 -3.573163
  C 2.556311 -1.984019 -4.906491
  H 6.399546 -1.034657 -2.502201
  H 0.163655 0.453509 1.198860
  H 0.425518 -0.995820 0.076297
  H 0.418257 0.721418 -0.615592
  H 4.216186 1.597899 1.597594
  H 4.222577 -0.069789 2.267589
  H 1.842851 0.174408 2.871462
  H 1.836146 1.822471 2.210034
  H 3.583295 0.851471 4.526175
  H 2.141947 1.851697 4.663798
  H 3.576452 2.489460 3.868697
  H 2.814521 -0.577533 -1.404232
  H 5.718246 -0.213965 -0.459246
  H 4.949162 -2.468182 -3.756893
  H 4.955820 -0.856291 -4.403780
  H 2.694280 -0.434532 -3.443811
  H 2.687468 -2.092866 -2.777911
  H 2.905438 -1.366527 -5.731223
  H 1.469001 -1.985932 -4.922132
  H 2.898836 -3.002725 -5.074530
 31
 94.789830
  C 0.337396 0.057293 0.215778
  C 3.389355 0.179972 0.488507
  C 3.659232 0.699131 1.774114
  C 2.452491 1.055093 2.675829
  C 2.919241 1.595718 4.016770
  C 3.641328 -0.287314 -0.673535
  C 5.004150 -0.500166 -1.182972
  C 5.340822 -0.979194 -2.371808
  C 4.578877 -1.456712 -3.570460
  C 3.051142 -1.447349 -3.565873
  C 2.512647 -1.978098 -4.893297
  H 6.412352 -1.050501 -2.536979
  H 0.097709 0.445650 1.181091
  H 0.383122 -1.001150 0.066263
  H 0.375279 0.716102 -0.626492
  H 4.243110 1.619038 1.645482
  H 4.250529 -0.049587 2.315996
  H 1.851834 0.161365 2.834830
  H 1.843931 1.805589 2.174741
  H 3.518877 0.862369 4.549518
  H 2.059736 1.839747 4.635043
  H 3.510879 2.498938 3.892411
  H 2.866057 -0.561740 -1.364892
  H 5.777831 -0.225443 -0.486651
  H 4.920761 -2.477574 -3.775153
  H 4.928691 -0.864026 -4.423304
  H 2.681635 -0.428288 -3.433172
  H 2.673541 -2.087972 -2.766132
  H 2.854611 -1.362918 -5.723112
  H 1.425120 -1.973270 -4.894283
  H 2.846732 -2.999183 -5.065783
 31
 95.465284
  C 0.271890 0.039853 0.174299
  C 3.478374 0.184034 0.497135
  C 3.697489 0.705420 1.787365
  C 2.446253 1.040844 2.640359
  C 2.850318 1.588897 3.999238
  C 3.707496 -0.284557 -0.666858
  C 5.058628 -0.509531 -1.205100
  C 5.359964 -0.992986 -2.404093
  C 4.563938 -1.457719 -3.571571
  C 3.040383 -1.427035 -3.516084
  C 2.452344 -1.949692 -4.823650
  H 6.423596 -1.076771 -2.598563
  H 0.031818 0.429416 1.141734
  H 0.346060 -1.017857 0.030337
  H 0.337851 0.701569 -0.663973
  H 4.268172 1.636866 1.680359
  H 4.276511 -0.036130 2.352852
  H 1.855387 0.134549 2.773717
  H 1.846412 1.781968 2.112016
  H 3.440392 0.865101 4.556612
  H 1.961585 1.818110 4.582050
  H 3.431329 2.502715 3.898740
  H 2.917053 -0.556643 -1.352591
  H 5.850218 -0.240990 -0.524067
  H 4.885124 -2.481920 -3.784639
  H 4.893982 -0.869069 -4.433025
  H 2.689867 -0.402971 -3.372630
  H 2.680833 -2.063176 -2.704853
  H 2.775860 -1.339321 -5.664105
  H 1.365865 -1.930039 -4.789289
  H 2.767049 -2.974927 -5.006446
 31
 95.678037
  C 0.196811 0.030092 0.151868
  C 3.558184 0.193322 0.518656
  C 3.732688 0.716205 1.811853
  C 2.442808 1.031229 2.616616
  C 2.787390 1.584613 3.988408
  C 3.764127 -0.276251 -0.646589
  C 5.100122 -0.514165 -1.215830
  C 5.369416 -1.000089 -2.419939
  C 4.541599 -1.460662 -3.577541
  C 3.016210 -1.417881 -3.494288
  C 2.399492 -1.936754 -4.792372
  H 6.429401 -1.093465 -2.636461
  H -0.044085 0.418780 1.116419
  H 0.292408 -1.025300 0.012683
  H 0.283891 0.693180 -0.681915
  H 4.289808 1.657206 1.725057
  H 4.299094 -0.017734 2.398520
  H 1.863341 0.115619 2.726133
  H 1.853306 1.761874 2.064615
  H 3.366884 0.870352 4.567578
  H 1.873855 1.799284 4.536563
  H 3.356802 2.507137 3.909744
  H 2.963447 -0.542217 -1.317151
  H 5.907137 -0.252980 -0.553045
  H 4.850025 -2.489411 -3.796139
  H 4.859855 -0.873353 -4.446486
  H 2.676063 -0.390380 -3.346171
  H 2.666029 -2.052468 -2.676964
  H 2.712810 -1.329145 -5.638849
  H 1.313668 -1.908665 -4.738681
  H 2.703032 -2.964522 -4.980572
 31
 95.720889
  C 0.107198 0.015470 0.118317
  C 3.623189 0.198191 0.528986
  C 3.760467 0.721969 1.823361
  C 2.436056 1.017750 2.583041
  C 2.726099 1.575848 3.966045
  C 3.813721 -0.272517 -0.637747
  C 5.137155 -0.521205 -1.232023
  C 5.376772 -1.010732 -2.443963
  C 4.520177 -1.460321 -3.574998
  C 3.000743 -1.400202 -3.451401
  C 2.345221 -1.911674 -4.731510
  H 6.429228 -1.114738 -2.684996
  H -0.139969 0.404642 1.083276
  H 0.216959 -1.039410 -0.017524
  H 0.207945 0.680002 -0.713230
  H 4.305500 1.671278 1.754183
  H 4.315918 -0.005052 2.428578
  H 1.866968 0.092569 2.671319
  H 1.855654 1.739742 2.009032
  H 3.295721 0.869637 4.565322
  H 1.790610 1.776969 4.482244
  H 3.284406 2.507059 3.906832
  H 2.998984 -0.534990 -1.299902
  H 5.960797 -0.266447 -0.584763
  H 4.811204 -2.491105 -3.799822
  H 4.822149 -0.876677 -4.450160
  H 2.676426 -0.369312 -3.295555
  H 2.665179 -2.031060 -2.625822
  H 2.643257 -1.307786 -5.585902
  H 1.262012 -1.871348 -4.649438
  H 2.632298 -2.942618 -4.927152
