 26
 0.000000
  C 0.991686 0.134707 0.386157
  C 2.468692 0.139420 0.397467
  C 3.239964 0.611110 1.571472
  C 2.448292 1.096632 2.780492
  H 3.118177 1.413305 3.568676
  C 3.087397 -0.324568 -0.757761
  C 4.463295 -0.411445 -0.974400
  C 5.128588 -0.865674 -2.106734
  C 4.617929 -1.386433 -3.404660
  C 3.126473 -1.499666 -3.687561
  H 2.970509 -1.898344 -4.681232
  O 6.450977 -0.867623 -2.111874
  H 0.548865 0.503314 1.304033
  H 0.625692 -0.878374 0.215237
  H 0.625370 0.748026 -0.437955
  H 3.896909 1.424645 1.243560
  H 3.897169 -0.202998 1.897379
  H 1.813197 0.301261 3.166750
  H 1.813003 1.938062 2.509328
  H 2.428117 -0.641619 -1.547100
  H 5.090272 -0.082136 -0.154055
  H 5.071336 -2.375800 -3.532976
  H 5.071676 -0.760401 -4.181298
  H 2.651009 -0.522498 -3.638230
  H 2.650632 -2.171516 -2.976539
  H 6.841934 -0.535069 -1.282206
 26
 16.783705
  C 1.036466 0.108191 0.321790
  C 2.550462 0.092221 0.281849
  C 3.302378 0.573218 1.476497
  C 2.495180 1.057416 2.679834
  H 3.182921 1.371477 3.460340
  C 3.090969 -0.359684 -0.840060
  C 4.454401 -0.357803 -0.835603
  C 5.021456 -0.802334 -1.947182
  C 4.524356 -1.325634 -3.254423
  C 3.046821 -1.473355 -3.624476
  H 3.002670 -1.876968 -4.633491
  O 6.386468 -0.831136 -2.021023
  H 0.618129 0.478577 1.242010
  H 0.664037 -0.903266 0.143712
  H 0.663843 0.714252 -0.507286
  H 3.956520 1.398642 1.167585
  H 3.956653 -0.235999 1.825393
  H 1.870934 0.267241 3.090370
  H 1.871060 1.911750 2.428496
  H 2.494859 -0.687955 -1.656202
  H 5.045662 -0.026687 -0.009997
  H 5.010895 -2.304948 -3.365392
  H 5.011257 -0.693556 -4.010423
  H 2.529061 -0.517171 -3.642037
  H 2.528709 -2.177680 -2.977823
  H 6.825493 -0.513080 -1.227972
 26
 72.767567
  C 1.128223 0.061171 0.232383
  C 2.687821 0.044064 0.204472
  C 3.354901 0.562018 1.444973
  C 2.482326 1.048505 2.594504
  H 3.129639 1.383604 3.398309
  C 3.185690 -0.421701 -0.873036
  C 4.528130 -0.334798 -0.672406
  C 4.913480 -0.755379 -1.809193
  C 4.393159 -1.261709 -3.132424
  C 2.942709 -1.438958 -3.577611
  H 2.976002 -1.821454 -4.596630
  O 6.320304 -0.829541 -2.034898
  H 0.684923 0.440614 1.143141
  H 0.774698 -0.954382 0.056149
  H 0.778762 0.656312 -0.611027
  H 4.004206 1.399739 1.172404
  H 3.996323 -0.225106 1.853668
  H 1.852603 0.254912 2.990627
  H 1.859167 1.891150 2.303003
  H 2.637165 -0.768045 -1.709375
  H 5.114024 -0.008027 0.151655
  H 4.896116 -2.225803 -3.252492
  H 4.886528 -0.614041 -3.862771
  H 2.393691 -0.502532 -3.617878
  H 2.403625 -2.177127 -2.989970
  H 6.841949 -0.528224 -1.268424
 26
 152.238409
  C 1.193178 -0.030811 0.181112
  C 2.850724 -0.081819 0.182912
  C 3.413050 0.567962 1.435323
  C 2.446786 1.113395 2.492042
  H 3.045660 1.520370 3.306448
  C 3.202883 -0.709525 -0.834703
  C 4.615949 -0.362507 -0.522878
  C 4.768115 -0.736727 -1.710117
  C 4.320742 -1.183286 -3.098283
  C 2.879627 -1.322519 -3.596480
  H 2.952539 -1.623517 -4.635394
  O 6.282648 -0.857158 -2.034502
  H 0.823425 0.412985 1.092752
  H 0.848523 -1.055049 0.094428
  H 0.854609 0.555291 -0.673176
  H 4.025751 1.418943 1.139095
  H 4.040752 -0.164856 1.945261
  H 1.819699 0.330974 2.918737
  H 1.828963 1.924480 2.113554
  H 2.616478 -1.119297 -1.618286
  H 5.217676 0.011573 0.266631
  H 4.828509 -2.141498 -3.230029
  H 4.835013 -0.483793 -3.763065
  H 2.327396 -0.384431 -3.582146
  H 2.313754 -2.113112 -3.094204
  H 6.839159 -0.620857 -1.288039
 26
 145.656762
  C 1.290454 -0.587126 0.095895
  C 2.799534 -0.428469 0.160834
  C 3.319776 0.551179 1.146512
  C 2.320365 1.292375 2.044677
  H 2.883492 1.959635 2.690656
  C 3.514588 -1.360347 -0.498181
  C 4.941969 -0.768455 -0.310448
  C 4.563863 -0.777515 -1.531793
  C 4.111559 -0.779828 -2.917832
  C 2.628230 -0.598261 -3.185368
  H 2.488711 -0.554667 -4.260211
  O 6.773659 -0.884784 -2.184030
  H 0.767865 -0.023901 0.855749
  H 1.027792 -1.637225 0.188515
  H 0.970452 -0.272361 -0.891421
  H 3.884888 1.330559 0.625355
  H 4.021879 0.049399 1.820197
  H 1.756078 0.606506 2.680826
  H 1.630815 1.906007 1.470646
  H 3.029560 -2.097939 -1.130254
  H 5.612575 -0.396713 0.413527
  H 4.480387 -1.712734 -3.361673
  H 4.679400 0.014684 -3.420708
  H 2.269247 0.334437 -2.775837
  H 2.025809 -1.417123 -2.817043
  H 7.421864 -0.844114 -1.495183
 26
 113.377309
  C 1.224594 -0.786458 0.337328
  C 2.657916 -0.487043 0.286884
  C 3.226716 0.637195 1.042086
  C 2.291433 1.425506 1.947846
  H 2.855163 2.218626 2.431290
  C 3.510751 -1.359772 -0.416075
  C 5.007970 -0.965339 -0.450571
  C 4.421820 -0.771590 -1.584685
  C 4.158549 -0.650971 -2.985071
  C 2.701786 -0.352544 -3.321967
  H 2.600559 -0.228445 -4.396466
  O 6.784872 -1.015680 -2.036499
  H 0.691355 -0.205477 1.080451
  H 1.049606 -1.851601 0.496423
  H 0.798397 -0.575213 -0.647511
  H 3.670504 1.330671 0.316734
  H 4.065950 0.265145 1.635274
  H 1.872209 0.794675 2.730106
  H 1.478823 1.885307 1.392546
  H 3.104942 -2.288662 -0.786217
  H 5.759194 -0.738257 0.263288
  H 4.486306 -1.586826 -3.452483
  H 4.834875 0.116246 -3.375400
  H 2.378768 0.565431 -2.844560
  H 2.051340 -1.163164 -3.012814
  H 7.468476 -1.128950 -1.365926
