 14
 0.000000
  C 0.986239 0.132723 0.380563
  C 2.445128 0.114969 0.338021
  H 2.996269 0.460964 1.200741
  C 3.108648 -0.335418 -0.783487
  C 4.500076 -0.381864 -0.899630
  C 5.155104 -0.835303 -2.029194
  H 4.620359 -1.187964 -2.905430
  O 6.436522 -0.893456 -2.177210
  H 0.595847 0.509603 1.320041
  H 0.592399 -0.870870 0.200088
  H 0.593450 0.734521 -0.443133
  H 2.515736 -0.672690 -1.623935
  H 5.089593 -0.042949 -0.055911
  H 6.960352 -0.582915 -1.408804
 14
 8.973670
  C 1.023636 0.194499 0.411962
  C 2.493352 0.038973 0.220059
  H 2.970741 0.383069 1.123465
  C 3.013637 -0.520225 -0.909253
  C 4.410825 -0.423643 -0.912569
  C 5.169830 -0.779278 -2.022203
  H 4.705171 -1.103202 -2.944164
  O 6.459508 -0.783408 -2.090374
  H 0.795945 0.609635 1.388780
  H 0.565402 -0.792409 0.276858
  H 0.623732 0.852598 -0.364711
  H 2.464427 -0.898960 -1.753888
  H 4.969305 -0.146456 -0.028532
  H 6.930086 -0.480873 -1.280794
 14
 38.359966
  C 1.082693 0.214810 0.428982
  C 2.592548 0.007098 0.159810
  H 2.973361 0.332733 1.104896
  C 2.941767 -0.625097 -0.985629
  C 4.327544 -0.408432 -0.894895
  C 5.133516 -0.712894 -2.013026
  H 4.724587 -1.003045 -2.974416
  O 6.429118 -0.740321 -2.009821
  H 0.904752 0.655507 1.398075
  H 0.600977 -0.750350 0.285824
  H 0.707451 0.874118 -0.356761
  H 2.413276 -1.010996 -1.824703
  H 4.910677 -0.202538 -0.014272
  H 6.863721 -0.474506 -1.175807
 14
 55.539937
  C 1.054257 0.274510 0.377068
  C 2.601105 0.018671 0.173101
  H 2.822341 0.349258 1.173165
  C 2.926444 -0.719558 -0.907778
  C 4.353702 -0.394609 -0.894332
  C 5.131874 -0.628503 -2.039663
  H 4.745096 -0.906281 -3.030239
  O 6.427131 -0.737496 -2.026416
  H 0.937008 0.626289 1.405883
  H 0.684981 -0.740348 0.235793
  H 0.686597 0.984330 -0.365774
  H 2.398812 -1.133424 -1.729389
  H 4.993511 -0.337357 -0.047593
  H 6.866342 -0.491878 -1.177180
 14
 63.727695
  C 1.094522 0.295367 0.296884
  C 2.668777 -0.038614 0.230659
  H 2.705221 0.337514 1.230220
  C 3.006123 -0.886766 -0.746948
  C 4.410958 -0.441434 -0.787887
  C 5.072836 -0.493932 -2.012457
  H 4.533896 -0.581328 -2.944380
  O 6.348580 -0.639205 -2.181894
  H 0.873214 0.712781 1.275066
  H 0.655644 -0.668341 0.181834
  H 0.882221 0.993130 -0.524491
  H 2.472137 -1.327347 -1.557082
  H 5.044739 -0.531734 0.079873
  H 6.891976 -0.561049 -1.370368
 14
 78.463704
  C 1.163035 0.337196 0.186178
  C 2.804057 -0.113728 0.177820
  H 2.903593 0.355020 1.145020
  C 2.983303 -1.135878 -0.660931
  C 4.364684 -0.549252 -0.648465
  C 4.920539 -0.302574 -1.907755
  H 4.299462 -0.185276 -2.775930
  O 6.206335 -0.392990 -2.214390
  H 1.023460 0.805942 1.131052
  H 0.677848 -0.618068 0.085527
  H 1.091261 0.993579 -0.664728
  H 2.450927 -1.673337 -1.408963
  H 4.996655 -0.773030 0.213738
  H 6.807952 -0.573615 -1.462279
 14
 92.986439
  C 1.084079 0.399286 0.175885
  C 2.992008 -0.214971 0.119274
  H 3.019455 0.276651 1.061414
  C 3.006156 -1.248516 -0.638424
  C 4.380905 -0.603950 -0.606232
  C 4.886759 -0.289047 -1.884089
  H 4.215142 -0.058892 -2.707606
  O 6.146512 -0.256511 -2.217038
  H 1.018899 0.909631 1.128669
  H 0.655113 -0.575774 0.117896
  H 1.032654 1.005305 -0.696688
  H 2.434153 -1.825484 -1.334199
  H 5.049327 -0.910745 0.196100
  H 6.781520 -0.422853 -1.481867
 14
 97.180938
  C 0.906631 0.476107 0.150383
  C 3.124950 -0.317278 0.157863
  H 3.129062 0.267678 1.030928
  C 3.106231 -1.375110 -0.561396
  C 4.472065 -0.667370 -0.554548
  C 4.860644 -0.159606 -1.797272
  H 4.094530 0.160579 -2.505896
  O 6.044210 -0.165398 -2.291753
  H 0.838821 1.025262 1.063377
  H 0.484777 -0.502786 0.107089
  H 1.014378 1.022580 -0.762831
  H 2.578706 -2.049742 -1.178047
  H 5.225765 -1.083107 0.112229
  H 6.767818 -0.446789 -1.687673
