 31
 0.000000
  C 0.986645 0.135885 0.389179
  C 2.461013 0.140397 0.399924
  C 3.232475 0.610523 1.570055
  C 2.447911 1.098189 2.784389
  C 3.393726 1.544423 3.895077
  C 3.079972 -0.324095 -0.756596
  C 4.462186 -0.413278 -0.979055
  C 5.112611 -0.864282 -2.103174
  C 4.610053 -1.381206 -3.391503
  C 3.120954 -1.500225 -3.688967
  C 2.901772 -2.063110 -5.091883
  H 6.193180 -0.863595 -2.101642
  H 0.543623 0.504464 1.307010
  H 0.620880 -0.877324 0.217561
  H 0.620504 0.748782 -0.435524
  H 3.890474 1.422817 1.240360
  H 3.890712 -0.203945 1.893805
  H 1.810370 0.299903 3.168889
  H 1.810182 1.940530 2.509934
  H 4.029650 0.723894 4.219918
  H 2.826161 1.889951 4.755587
  H 4.029428 2.361834 3.562006
  H 2.418831 -0.640880 -1.545172
  H 5.093528 -0.085408 -0.162302
  H 5.067304 -2.370877 -3.519950
  H 5.067695 -0.755108 -4.168428
  H 2.644895 -0.519947 -3.637481
  H 2.644442 -2.172784 -2.974231
  H 3.342126 -1.415587 -5.846671
  H 1.837826 -2.146165 -5.299594
  H 3.341717 -3.052967 -5.189654
 31
 -0.333893
  C 0.959692 -0.173324 0.547493
  C 2.428186 -0.105767 0.494465
  C 3.213968 0.578770 1.542564
  C 2.453118 1.192415 2.713848
  C 3.421160 1.849553 3.694234
  C 3.045610 -0.656798 -0.625918
  C 4.427223 -0.668438 -0.866142
  C 5.079638 -1.068384 -2.006370
  C 4.599704 -1.499293 -3.324745
  C 3.130032 -1.389227 -3.710009
  C 2.947015 -1.668196 -5.199610
  H 6.162105 -1.043433 -1.951214
  H 0.548971 0.146580 1.496079
  H 0.616202 -1.181840 0.317652
  H 0.543829 0.461311 -0.238420
  H 3.808657 1.368169 1.067055
  H 3.950436 -0.130724 1.940280
  H 1.889432 0.422325 3.244653
  H 1.751295 1.947441 2.354890
  H 4.123878 1.122490 4.095115
  H 2.877455 2.285530 4.528792
  H 3.986956 2.643927 3.210950
  H 2.395828 -1.112164 -1.355173
  H 5.066261 -0.326177 -0.062904
  H 4.920776 -2.545152 -3.440677
  H 5.205124 -0.968043 -4.071023
  H 2.765222 -0.383027 -3.492488
  H 2.533566 -2.113859 -3.153481
  H 3.505789 -0.956046 -5.801891
  H 1.898271 -1.588831 -5.473979
  H 3.285461 -2.669494 -5.453469
 31
 1.316652
  C 0.991557 -0.510052 0.658229
  C 2.454495 -0.386287 0.573354
  C 3.206432 0.525565 1.460806
  C 2.433829 1.229200 2.571281
  C 3.367519 2.107716 3.398422
  C 3.095300 -1.053751 -0.462687
  C 4.472828 -1.001432 -0.732438
  C 5.108643 -1.262893 -1.916442
  C 4.584427 -1.520967 -3.267166
  C 3.170122 -1.085914 -3.646584
  C 2.933005 -1.288741 -5.140459
  H 6.190177 -1.214080 -1.887103
  H 0.583211 -0.123638 1.582984
  H 0.683320 -1.545338 0.517660
  H 0.539199 0.046954 -0.167933
  H 3.686029 1.290444 0.839696
  H 4.036966 -0.033167 1.908229
  H 1.970970 0.494367 3.232201
  H 1.647842 1.855897 2.148829
  H 4.157525 1.515137 3.856100
  H 2.816167 2.602909 4.193872
  H 3.829072 2.874773 2.781711
  H 2.474571 -1.653461 -1.110417
  H 5.115934 -0.698570 0.085513
  H 4.663079 -2.607656 -3.422749
  H 5.291619 -1.089387 -3.982765
  H 3.043123 -0.029512 -3.405667
  H 2.420358 -1.656113 -3.105862
  H 3.645258 -0.716292 -5.731098
  H 1.931294 -0.963549 -5.413085
  H 3.032132 -2.337653 -5.411391
 31
 3.569402
  C 1.046905 -0.836243 0.650340
  C 2.506385 -0.676408 0.559778
  C 3.211314 0.386755 1.307305
  C 2.393147 1.230834 2.278130
  C 3.277167 2.264189 2.969572
  C 3.195302 -1.458833 -0.353515
  C 4.582342 -1.359184 -0.611438
  C 5.211340 -1.445661 -1.815343
  C 4.607646 -1.476684 -3.162743
  C 3.300987 -0.704499 -3.383863
  C 2.790419 -0.897213 -4.806741
  H 6.293236 -1.438820 -1.803827
  H 0.631582 -0.401915 1.552561
  H 0.762809 -1.884324 0.569662
  H 0.579576 -0.328952 -0.198517
  H 3.683665 1.060928 0.582885
  H 4.050362 -0.066337 1.848814
  H 1.940405 0.593920 3.040939
  H 1.594036 1.751066 1.748222
  H 4.076430 1.782849 3.528919
  H 2.691331 2.858118 3.666691
  H 3.724843 2.941645 2.246106
  H 2.636144 -2.207833 -0.898411
  H 5.215099 -1.165519 0.248411
  H 4.426833 -2.534642 -3.399445
  H 5.345325 -1.123367 -3.886549
  H 3.491028 0.356906 -3.213072
  H 2.532730 -1.029926 -2.688187
  H 3.525700 -0.557689 -5.532860
  H 1.877425 -0.328572 -4.963427
  H 2.576358 -1.944887 -5.004714
 31
 8.382045
  C 1.042457 -0.983320 0.526695
  C 2.505867 -0.858659 0.456024
  C 3.210520 0.275827 1.090407
  C 2.385134 1.246915 1.923748
  C 3.267994 2.345414 2.507619
  C 3.226682 -1.759597 -0.311380
  C 4.646943 -1.662097 -0.521393
  C 5.292618 -1.455787 -1.678689
  C 4.658971 -1.262747 -3.011207
  C 3.307156 -0.545814 -3.002530
  C 2.639341 -0.561414 -4.368656
  H 6.372182 -1.423199 -1.665704
  H 0.622288 -0.462577 1.380171
  H 0.736737 -2.028375 0.533924
  H 0.598333 -0.541143 -0.369356
  H 3.717029 0.843183 0.299312
  H 4.030850 -0.119011 1.701656
  H 1.900408 0.717040 2.746781
  H 1.608521 1.707226 1.311181
  H 4.043036 1.926425 3.145364
  H 2.673758 3.029196 3.108479
  H 3.746991 2.921740 1.719506
  H 2.717412 -2.626487 -0.715589
  H 5.246475 -1.730724 0.381632
  H 4.523753 -2.260393 -3.445943
  H 5.347965 -0.720966 -3.661637
  H 3.446278 0.486076 -2.673568
  H 2.652366 -1.045008 -2.281490
  H 3.262765 -0.054587 -5.102621
  H 1.680358 -0.050768 -4.334667
  H 2.474752 -1.580617 -4.710882
 31
 9.448506
  C 1.227863 -1.403726 0.529188
  C 2.659268 -1.084751 0.382919
  C 3.226602 0.165369 0.938873
  C 2.296066 1.079161 1.723007
  C 3.039627 2.319435 2.209419
  C 3.493213 -1.920387 -0.330784
  C 4.889943 -1.617738 -0.596129
  C 5.419989 -1.044947 -1.673925
  C 4.675834 -0.754856 -2.937265
  C 3.210392 -0.425115 -2.740726
  C 2.423726 -0.392246 -4.040056
  H 6.481021 -0.848662 -1.699873
  H 0.789811 -0.936703 1.404569
  H 1.061463 -2.478429 0.558331
  H 0.684047 -1.027404 -0.340712
  H 3.654054 0.728301 0.096087
  H 4.096157 -0.079629 1.558346
  H 1.896543 0.552703 2.592429
  H 1.456567 1.390234 1.099477
  H 3.871899 2.047810 2.854815
  H 2.371951 2.962798 2.776869
  H 3.428695 2.894466 1.372373
  H 3.156090 -2.921924 -0.575091
  H 5.560459 -1.938202 0.196566
  H 4.758160 -1.642671 -3.575253
  H 5.180691 0.052690 -3.471804
  H 3.102993 0.522788 -2.209929
  H 2.785237 -1.211189 -2.086994
  H 2.813291 0.385342 -4.694288
  H 1.374509 -0.179691 -3.853029
  H 2.493928 -1.340516 -4.567813
 31
 7.478915
  C 1.267308 -1.513794 0.571317
  C 2.697080 -1.203177 0.394962
  C 3.245133 0.096672 0.861450
  C 2.290990 1.055669 1.559104
  C 3.009990 2.345165 1.945062
  C 3.555219 -2.098432 -0.195854
  C 4.907801 -1.781050 -0.557284
  C 5.352356 -0.966092 -1.532197
  C 4.607239 -0.531248 -2.741849
  C 3.095871 -0.406671 -2.646388
  C 2.464405 -0.186079 -4.015693
  H 6.405057 -0.718686 -1.557758
  H 0.848477 -1.033090 1.449320
  H 1.092661 -2.586069 0.615941
  H 0.713784 -1.136545 -0.291793
  H 3.676491 0.602781 -0.013705
  H 4.104966 -0.090534 1.512546
  H 1.894757 0.597056 2.467457
  H 1.450911 1.298685 0.906985
  H 3.843152 2.141849 2.614005
  H 2.327835 3.020637 2.455064
  H 3.393462 2.856672 1.065306
  H 3.257838 -3.136911 -0.282867
  H 5.656036 -2.302875 0.034432
  H 4.835557 -1.282478 -3.510350
  H 5.045248 0.398695 -3.113475
  H 2.825526 0.418173 -1.985980
  H 2.687231 -1.326899 -2.212848
  H 2.836011 0.731976 -4.465972
  H 1.383955 -0.106113 -3.930132
  H 2.690629 -1.008462 -4.690345
 31
 6.739306
  C 1.256929 -1.470199 0.560221
  C 2.696335 -1.224173 0.379001
  C 3.263649 0.093477 0.780886
  C 2.325873 1.077362 1.470231
  C 3.054848 2.379741 1.788827
  C 3.547581 -2.198001 -0.090381
  C 4.864733 -1.927883 -0.540525
  C 5.270151 -0.958767 -1.403806
  C 4.542449 -0.410594 -2.570225
  C 3.021961 -0.478423 -2.626313
  C 2.517725 -0.108854 -4.018512
  H 6.317879 -0.681709 -1.405397
  H 0.883019 -1.032433 1.481814
  H 1.019191 -2.530263 0.529494
  H 0.713725 -0.986325 -0.254496
  H 3.665668 0.580308 -0.115510
  H 4.136141 -0.076446 1.418496
  H 1.957997 0.650451 2.405438
  H 1.467068 1.298718 0.835502
  H 3.910718 2.198917 2.435175
  H 2.389036 3.070719 2.299690
  H 3.406622 2.862997 0.880400
  H 3.246039 -3.235427 -0.018356
  H 5.635301 -2.585085 -0.146539
  H 4.927627 -1.002062 -3.414690
  H 4.889156 0.607296 -2.770685
  H 2.584373 0.209637 -1.903963
  H 2.683549 -1.488289 -2.382930
  H 2.826186 0.898972 -4.287406
  H 1.432067 -0.149236 -4.052343
  H 2.902225 -0.793926 -4.770697
 31
 7.160415
  C 1.215665 -1.363242 0.516106
  C 2.663312 -1.154768 0.347554
  C 3.233437 0.178366 0.695011
  C 2.373252 1.078670 1.590977
  C 3.095458 2.392780 1.881885
  C 3.505361 -2.178089 -0.034045
  C 4.809387 -1.969773 -0.533515
  C 5.228774 -0.966505 -1.366146
  C 4.520162 -0.378972 -2.517951
  C 3.032775 -0.635620 -2.713720
  C 2.601510 -0.229448 -4.120838
  H 6.271096 -0.677384 -1.337840
  H 0.883471 -1.053764 1.508262
  H 0.928036 -2.398096 0.340207
  H 0.678270 -0.728049 -0.191736
  H 3.417453 0.731381 -0.233503
  H 4.216804 0.043360 1.158657
  H 2.175120 0.572233 2.539568
  H 1.417998 1.301817 1.114772
  H 4.052569 2.212305 2.367662
  H 2.496069 3.016189 2.542676
  H 3.274752 2.951081 0.965667
  H 3.194430 -3.195421 0.157207
  H 5.559573 -2.692276 -0.228256
  H 5.044668 -0.811804 -3.379226
  H 4.742483 0.687408 -2.586685
  H 2.446307 -0.064206 -1.996967
  H 2.812367 -1.695751 -2.564108
  H 2.801827 0.824265 -4.299467
  H 1.535553 -0.397111 -4.253886
  H 3.127885 -0.809075 -4.875921
 31
 14.156751
  C 1.170263 -1.067806 0.303409
  C 2.639286 -0.976771 0.253278
  C 3.273146 0.288258 0.726372
  C 2.466608 1.095344 1.750998
  C 3.245867 2.331703 2.181806
  C 3.443181 -2.079083 -0.012050
  C 4.717671 -1.927509 -0.554720
  C 5.091932 -0.840039 -1.325592
  C 4.426489 -0.372083 -2.550652
  C 2.999740 -0.825079 -2.840376
  C 2.616299 -0.507255 -4.283325
  H 6.079795 -0.405701 -1.205540
  H 0.793471 -0.812930 1.293082
  H 0.815447 -2.056734 0.028461
  H 0.735553 -0.334248 -0.374643
  H 3.436375 0.954525 -0.128211
  H 4.256942 0.069397 1.144091
  H 2.273738 0.478603 2.629568
  H 1.514410 1.412745 1.331902
  H 4.205576 2.057296 2.612223
  H 2.687994 2.885767 2.932540
  H 3.423685 2.994106 1.338938
  H 3.089615 -3.061071 0.273135
  H 5.462196 -2.693309 -0.371383
  H 5.078332 -0.765333 -3.347167
  H 4.513658 0.715005 -2.647733
  H 2.306185 -0.312917 -2.175205
  H 2.903175 -1.898464 -2.670070
  H 2.696755 0.558807 -4.481681
  H 1.590471 -0.809649 -4.477861
  H 3.258929 -1.034243 -4.984317
 31
 27.425440
  C 1.221288 -0.737762 0.125052
  C 2.690862 -0.767611 0.207129
  C 3.376860 0.378820 0.875882
  C 2.536147 1.144158 1.908122
  C 3.369230 2.251583 2.544133
  C 3.406832 -1.966421 0.005058
  C 4.620773 -1.868126 -0.619880
  C 4.869159 -0.686804 -1.352517
  C 4.261802 -0.366465 -2.649157
  C 2.923868 -0.999385 -3.011079
  C 2.628598 -0.822889 -4.497795
  H 5.790486 -0.135797 -1.181730
  H 0.775243 -0.478675 1.085328
  H 0.815716 -1.686827 -0.214812
  H 0.906627 0.050968 -0.558488
  H 3.689446 1.127662 0.140753
  H 4.285015 0.017063 1.361124
  H 2.206268 0.459277 2.691519
  H 1.660708 1.591808 1.440411
  H 4.255350 1.845561 3.026880
  H 2.786211 2.773841 3.298755
  H 3.685359 2.979532 1.800732
  H 2.986206 -2.902212 0.346231
  H 5.381644 -2.637045 -0.569591
  H 5.012766 -0.746143 -3.362545
  H 4.242423 0.713471 -2.822221
  H 2.126456 -0.528359 -2.440577
  H 2.933680 -2.062813 -2.768254
  H 2.605748 0.230481 -4.767369
  H 1.662405 -1.254663 -4.745396
  H 3.381437 -1.315612 -5.108836
 31
 35.839123
  C 1.345728 -0.447732 -0.089318
  C 2.788422 -0.605594 0.155650
  C 3.491659 0.458805 0.937720
  C 2.616800 1.194471 1.969550
  C 3.461318 2.195661 2.748337
  C 3.371409 -1.927588 0.062182
  C 4.510777 -1.903790 -0.641055
  C 4.623171 -0.622406 -1.306032
  C 4.057182 -0.357139 -2.633609
  C 2.848990 -1.161446 -3.102218
  C 2.642087 -0.994747 -4.604928
  H 5.479343 0.007637 -1.079882
  H 0.829912 -0.186816 0.835813
  H 0.905235 -1.351642 -0.500959
  H 1.156338 0.388444 -0.763772
  H 3.885177 1.247165 0.291982
  H 4.344758 0.014010 1.454712
  H 2.191655 0.472570 2.669395
  H 1.806218 1.729481 1.477751
  H 4.284822 1.700142 3.257537
  H 2.853317 2.693099 3.500126
  H 3.872060 2.957944 2.090616
  H 2.886810 -2.788931 0.495610
  H 5.257470 -2.677322 -0.727384
  H 4.894336 -0.622390 -3.305130
  H 3.904708 0.713652 -2.791663
  H 1.951669 -0.820036 -2.592487
  H 2.990633 -2.218211 -2.872242
  H 2.493342 0.051285 -4.862706
  H 1.765441 -1.549318 -4.929243
  H 3.497848 -1.366166 -5.164275
 31
 33.143295
  C 1.480665 -0.260166 -0.268489
  C 2.890291 -0.516257 0.100201
  C 3.589905 0.504511 0.963165
  C 2.671754 1.235423 1.964043
  C 3.499530 2.168659 2.838281
  C 3.340698 -1.923139 0.120121
  C 4.425590 -1.955966 -0.643136
  C 4.434085 -0.604978 -1.227312
  C 3.907027 -0.352053 -2.584026
  C 2.788788 -1.230824 -3.132783
  C 2.646751 -1.044302 -4.641965
  H 5.253395 0.053755 -0.956654
  H 0.919702 0.030872 0.622425
  H 1.010447 -1.141627 -0.699481
  H 1.392458 0.583180 -0.955863
  H 4.048507 1.299069 0.373981
  H 4.387676 0.008259 1.519760
  H 2.171308 0.502373 2.600806
  H 1.918934 1.822336 1.439188
  H 4.265471 1.620205 3.381830
  H 2.859429 2.660520 3.566525
  H 3.984351 2.939022 2.242597
  H 2.801335 -2.724634 0.596572
  H 5.154206 -2.729777 -0.811807
  H 4.788544 -0.545319 -3.221669
  H 3.685749 0.708006 -2.727097
  H 1.839795 -0.967950 -2.668937
  H 2.996295 -2.280783 -2.916264
  H 2.434778 -0.005787 -4.886503
  H 1.830484 -1.653131 -5.022127
  H 3.554655 -1.340168 -5.163758
 31
 24.825582
  C 1.624287 -0.069293 -0.393931
  C 3.017926 -0.402593 0.016422
  C 3.666542 0.560077 1.016880
  C 2.693790 1.256575 1.979652
  C 3.485392 2.093118 2.976802
  C 3.330489 -1.854178 0.165391
  C 4.350866 -1.953258 -0.679877
  C 4.245470 -0.556027 -1.180737
  C 3.821284 -0.351223 -2.600054
  C 2.746406 -1.259622 -3.184829
  C 2.671407 -1.138829 -4.702984
  H 5.064495 0.107953 -0.923100
  H 1.042752 0.270197 0.462126
  H 1.117161 -0.935489 -0.808496
  H 1.615994 0.754759 -1.106142
  H 4.212398 1.358831 0.518022
  H 4.386212 -0.011213 1.607008
  H 2.113715 0.507548 2.522263
  H 2.012423 1.910441 1.437171
  H 4.181897 1.477866 3.541891
  H 2.805941 2.565303 3.682974
  H 4.045786 2.877854 2.475193
  H 2.737671 -2.592000 0.678549
  H 5.037314 -2.737895 -0.933246
  H 4.735816 -0.570607 -3.175602
  H 3.594560 0.699703 -2.788211
  H 1.772381 -0.970869 -2.782480
  H 2.939943 -2.297561 -2.913195
  H 2.473718 -0.111941 -5.001541
  H 1.872066 -1.764167 -5.093082
  H 3.600837 -1.459587 -5.168529
 31
 22.025426
  C 1.636268 0.007498 -0.455785
  C 3.045425 -0.297250 -0.036080
  C 3.656147 0.685606 0.978298
  C 2.703809 1.158671 2.084706
  C 3.477602 2.011645 3.083226
  C 3.330131 -1.741396 0.247497
  C 4.311664 -1.914304 -0.656493
  C 4.184464 -0.534728 -1.202688
  C 3.875217 -0.396379 -2.669815
  C 2.726022 -1.242783 -3.226619
  C 2.682873 -1.221292 -4.746267
  H 5.030083 0.111300 -0.961522
  H 1.062387 0.455467 0.353388
  H 1.116194 -0.892968 -0.775092
  H 1.640086 0.741610 -1.262245
  H 4.044935 1.568651 0.466756
  H 4.495806 0.179773 1.460264
  H 2.277993 0.301083 2.601452
  H 1.896441 1.758033 1.669056
  H 4.290937 1.448222 3.538090
  H 2.813542 2.341454 3.880865
  H 3.894936 2.893681 2.601875
  H 2.744236 -2.427970 0.833385
  H 4.963082 -2.727271 -0.908194
  H 4.775943 -0.754417 -3.185701
  H 3.734498 0.654040 -2.933823
  H 1.784864 -0.826246 -2.858970
  H 2.819196 -2.271002 -2.877565
  H 2.581435 -0.206753 -5.117877
  H 1.836803 -1.799356 -5.107712
  H 3.583916 -1.658744 -5.172100
