 20
 0.000000
  C 0.922309 0.037814 0.298255
  C 2.394478 0.072000 0.037537
  H 3.023459 0.023497 0.915757
  C 2.981853 0.145068 -1.160899
  C 2.341390 0.216292 -2.530522
  C 0.828251 0.223342 -2.721034
  H 0.606594 0.280081 -3.784611
  C 4.438965 0.142095 -1.220875
  C 5.213025 0.180605 -2.305667
  O 6.570623 0.173254 -2.280984
  H 0.705499 -0.033332 1.363158
  H 0.468212 -0.826974 -0.182294
  H 0.439824 0.943434 -0.061337
  H 2.733293 -0.632541 -3.101285
  H 2.729479 1.122978 -3.007546
  H 0.371110 1.082330 -2.239429
  H 0.374545 -0.683988 -2.334616
  H 4.947768 0.103496 -0.261838
  H 4.861828 0.221167 -3.323758
  H 6.877615 0.136676 -1.365624
 20
 -0.731803
  C 0.916186 0.019994 0.334159
  C 2.366681 0.107426 -0.022828
  H 3.021943 0.136273 0.844364
  C 2.968891 0.143963 -1.218578
  C 2.348291 0.166223 -2.594501
  C 0.834277 0.243784 -2.728284
  H 0.581867 0.372843 -3.779493
  C 4.426660 0.176088 -1.223202
  C 5.230788 0.144053 -2.286280
  O 6.586572 0.162899 -2.231240
  H 0.816166 -0.274482 1.373350
  H 0.393961 -0.710721 -0.275776
  H 0.420964 0.984695 0.213415
  H 2.696511 -0.721224 -3.128429
  H 2.773259 1.034708 -3.109893
  H 0.434878 1.087498 -2.181802
  H 0.354420 -0.665870 -2.385106
  H 4.892846 0.217397 -0.244055
  H 4.895200 0.096405 -3.309536
  H 6.873279 0.204758 -1.310366
 20
 -0.126222
  C 0.925157 -0.028986 0.337613
  C 2.358490 0.200976 -0.013673
  H 2.995616 0.343422 0.849678
  C 2.962960 0.173126 -1.207206
  C 2.342842 0.132437 -2.586334
  C 0.835500 0.288642 -2.742266
  H 0.607601 0.437920 -3.799388
  C 4.419593 0.224799 -1.222954
  C 5.221929 0.085708 -2.278216
  O 6.578375 0.104528 -2.225713
  H 0.875666 -0.552409 1.294895
  H 0.433221 -0.643846 -0.406398
  H 0.382521 0.908303 0.446691
  H 2.652041 -0.797347 -3.076513
  H 2.810897 0.953560 -3.139609
  H 0.472593 1.154423 -2.191486
  H 0.295762 -0.598063 -2.416328
  H 4.889577 0.359207 -0.249509
  H 4.886000 -0.066854 -3.290002
  H 6.866042 0.240453 -1.313733
 20
 2.673169
  C 0.951708 -0.088614 0.318480
  C 2.350596 0.325307 0.002042
  H 2.945117 0.637182 0.852487
  C 2.958172 0.194986 -1.182795
  C 2.332742 0.126766 -2.562059
  C 0.834096 0.343476 -2.747363
  H 0.634774 0.466330 -3.811172
  C 4.414992 0.245490 -1.223215
  C 5.207727 0.025866 -2.270755
  O 6.564041 0.018356 -2.223624
  H 0.980754 -0.745907 1.189563
  H 0.577781 -0.673988 -0.512386
  H 0.292532 0.744758 0.552773
  H 2.613461 -0.817073 -3.039829
  H 2.831778 0.925632 -3.119969
  H 0.505120 1.243154 -2.234210
  H 0.239391 -0.497715 -2.405596
  H 4.893802 0.427392 -0.265107
  H 4.863848 -0.188432 -3.269663
  H 6.858432 0.209943 -1.323829
 20
 9.363329
  C 0.991484 -0.162996 0.289887
  C 2.328682 0.428158 -0.003570
  H 2.820084 0.979821 0.786112
  C 2.953820 0.206396 -1.173455
  C 2.325127 0.149345 -2.555843
  C 0.831274 0.405021 -2.731762
  H 0.629139 0.534751 -3.793709
  C 4.407734 0.258889 -1.222492
  C 5.195649 -0.057871 -2.248904
  O 6.552152 -0.094482 -2.198728
  H 1.130820 -0.896279 1.090561
  H 0.732233 -0.754154 -0.583023
  H 0.226888 0.539144 0.609927
  H 2.584873 -0.787928 -3.057399
  H 2.838511 0.951290 -3.095549
  H 0.534566 1.313043 -2.212825
  H 0.209141 -0.413832 -2.383624
  H 4.889573 0.492639 -0.276010
  H 4.845316 -0.340974 -3.227667
  H 6.850950 0.166129 -1.317760
 20
 21.035262
  C 1.033896 -0.202028 0.280858
  C 2.308852 0.517594 -0.010796
  H 2.702676 1.244460 0.684786
  C 2.940875 0.179270 -1.162119
  C 2.318009 0.180874 -2.552628
  C 0.822791 0.435766 -2.722399
  H 0.609689 0.530231 -3.785825
  C 4.394998 0.203485 -1.204314
  C 5.189180 -0.060582 -2.249091
  O 6.543991 -0.126894 -2.191453
  H 1.261837 -0.987259 1.013402
  H 0.882319 -0.796148 -0.619647
  H 0.203797 0.384214 0.654743
  H 2.575764 -0.734542 -3.096538
  H 2.836365 1.007017 -3.046311
  H 0.533171 1.360603 -2.230007
  H 0.203746 -0.367986 -2.336749
  H 4.875752 0.399930 -0.248784
  H 4.840819 -0.277947 -3.245686
  H 6.836339 0.020634 -1.282899
 20
 35.807196
  C 1.127392 -0.322108 0.260518
  C 2.290438 0.555704 -0.043865
  H 2.575527 1.398275 0.571157
  C 2.918171 0.193517 -1.206788
  C 2.290575 0.246356 -2.587221
  C 0.800078 0.548583 -2.688798
  H 0.533329 0.657081 -3.738330
  C 4.369083 0.229590 -1.212561
  C 5.180273 -0.187612 -2.190503
  O 6.528662 -0.241593 -2.105149
  H 1.423261 -1.113884 0.957843
  H 1.163829 -0.923755 -0.661590
  H 0.216749 0.156156 0.600873
  H 2.495277 -0.674546 -3.149377
  H 2.835245 1.049339 -3.088016
  H 0.559488 1.469413 -2.162867
  H 0.185825 -0.245297 -2.274649
  H 4.825317 0.585996 -0.293282
  H 4.841971 -0.558251 -3.144561
  H 6.806538 0.082445 -1.248751
 20
 61.028084
  C 1.143399 -0.263579 0.197292
  C 2.225746 0.707033 -0.032642
  H 2.440425 1.600250 0.527202
  C 2.911831 0.197522 -1.115865
  C 2.305702 0.227088 -2.527718
  C 0.807513 0.500819 -2.649501
  H 0.554611 0.626143 -3.702312
  C 4.361863 0.159720 -1.167532
  C 5.133630 -0.152198 -2.214864
  O 6.487773 -0.216463 -2.186955
  H 1.451545 -1.150739 0.778138
  H 1.492579 -0.849240 -0.757980
  H 0.182095 0.088882 0.558924
  H 2.541175 -0.693018 -3.072261
  H 2.823585 1.059814 -3.016072
  H 0.550675 1.421327 -2.131699
  H 0.200113 -0.303489 -2.243275
  H 4.854934 0.349702 -0.216743
  H 4.760923 -0.386197 -3.195772
  H 6.799672 -0.021765 -1.296478
 20
 79.648042
  C 1.207579 -0.246032 0.274622
  C 2.195602 0.698682 -0.059798
  H 2.393726 1.643783 0.423568
  C 2.875939 0.137629 -1.188767
  C 2.264546 0.274905 -2.592744
  C 0.763003 0.523263 -2.647693
  H 0.463354 0.699006 -3.678737
  C 4.339999 0.151367 -1.176995
  C 5.152623 -0.227662 -2.164261
  O 6.509118 -0.273378 -2.086662
  H 1.507163 -1.173223 0.747313
  H 1.841413 -0.873362 -0.885472
  H 0.234881 0.074860 0.658542
  H 2.504819 -0.606879 -3.190972
  H 2.768611 1.128210 -3.059744
  H 0.498083 1.396108 -2.055837
  H 0.200921 -0.328368 -2.270129
  H 4.784133 0.431150 -0.226681
  H 4.813238 -0.556958 -3.133849
  H 6.791787 0.027725 -1.213804
 20
 60.547770
  C 1.229994 -0.169466 0.387157
  C 2.136991 0.707388 -0.082922
  H 2.367212 1.684517 0.353276
  C 2.842683 0.087667 -1.216257
  C 2.248651 0.267589 -2.656186
  C 0.741385 0.489131 -2.699656
  H 0.434454 0.717090 -3.716786
  C 4.325104 0.083254 -1.153052
  C 5.154056 -0.220027 -2.130285
  O 6.506501 -0.246758 -2.028467
  H 1.537523 -1.152338 0.706197
  H 2.086527 -0.824238 -1.036849
  H 0.351518 0.143473 0.941398
  H 2.503768 -0.601257 -3.251072
  H 2.739621 1.144056 -3.118968
  H 0.465979 1.321964 -2.060499
  H 0.193043 -0.391953 -2.369641
  H 4.737826 0.366008 -0.192371
  H 4.840650 -0.463771 -3.130500
  H 6.761645 -0.037730 -1.137892
 20
 35.518395
  C 1.214420 -0.104024 0.488643
  C 2.104826 0.663122 -0.143503
  H 2.292205 1.694340 0.100132
  C 2.836274 -0.031768 -1.264377
  C 2.257639 0.302707 -2.663149
  C 0.749665 0.483073 -2.682033
  H 0.419516 0.709178 -3.693439
  C 4.321339 0.007279 -1.158714
  C 5.183748 -0.216001 -2.147545
  O 6.532663 -0.191047 -2.029942
  H 1.453164 -1.098710 0.830303
  H 2.286115 -0.991737 -1.054112
  H 0.336890 0.300702 0.974139
  H 2.548093 -0.491577 -3.353703
  H 2.720217 1.225480 -3.024630
  H 0.447763 1.296164 -2.027553
  H 0.245437 -0.424678 -2.355742
  H 4.704551 0.178109 -0.159881
  H 4.893176 -0.434422 -3.162329
  H 6.770896 0.035729 -1.129635
 20
 20.023720
  C 1.224215 0.008321 0.546049
  C 2.099375 0.689794 -0.175166
  H 2.362532 1.717251 0.029342
  C 2.819409 -0.071074 -1.261397
  C 2.271924 0.267062 -2.666967
  C 0.757639 0.420323 -2.714282
  H 0.449890 0.729760 -3.710437
  C 4.304635 -0.030999 -1.155206
  C 5.166112 -0.148374 -2.152622
  O 6.518138 -0.110904 -2.028014
  H 1.353649 -1.039730 0.764032
  H 2.333828 -1.050130 -1.078498
  H 0.471989 0.463380 1.178057
  H 2.574350 -0.532025 -3.344356
  H 2.734447 1.192797 -3.022137
  H 0.419779 1.168676 -2.002392
  H 0.264796 -0.521209 -2.480163
  H 4.686911 0.119670 -0.150558
  H 4.881761 -0.290535 -3.182611
  H 6.754901 -0.025128 -1.096207
 20
 8.421979
  C 1.210680 0.107493 0.599079
  C 2.125397 0.645967 -0.182001
  H 2.464617 1.661413 -0.032061
  C 2.799671 -0.144676 -1.270437
  C 2.270978 0.272201 -2.657226
  C 0.751362 0.359489 -2.721378
  H 0.440959 0.691706 -3.709406
  C 4.292838 -0.080604 -1.154777
  C 5.167182 -0.101200 -2.156736
  O 6.519061 -0.057403 -2.018360
  H 1.071630 -0.957515 0.681390
  H 2.418415 -1.164708 -1.113780
  H 0.623412 0.701421 1.281997
  H 2.612479 -0.465829 -3.385116
  H 2.702850 1.237400 -2.933055
  H 0.369447 1.063022 -1.986359
  H 0.302147 -0.612517 -2.529645
  H 4.666310 -0.028627 -0.136632
  H 4.893167 -0.156452 -3.198142
  H 6.747679 -0.013652 -1.080887
 20
 4.335749
  C 1.293544 0.191712 0.687004
  C 2.163085 0.647164 -0.194897
  H 2.487625 1.679414 -0.165171
  C 2.763841 -0.182967 -1.294846
  C 2.263940 0.311918 -2.659972
  C 0.744615 0.262752 -2.769054
  H 0.428133 0.587575 -3.757650
  C 4.261239 -0.157354 -1.161452
  C 5.142487 -0.034019 -2.133176
  O 6.489962 -0.019326 -1.967813
  H 0.965955 -0.834559 0.686590
  H 2.406101 -1.211515 -1.155896
  H 0.860518 0.839470 1.430930
  H 2.691708 -0.319855 -3.440212
  H 2.612673 1.333863 -2.821152
  H 0.281251 0.909712 -2.028173
  H 0.384060 -0.751290 -2.609989
  H 4.619864 -0.249796 -0.141495
  H 4.887445 0.069035 -3.175267
  H 6.702231 -0.115009 -1.031843
 20
 3.945306
  C 1.320820 0.211965 0.708278
  C 2.161194 0.653284 -0.206875
  H 2.485506 1.686195 -0.204127
  C 2.745753 -0.191862 -1.304801
  C 2.260044 0.299188 -2.674631
  C 0.740640 0.254039 -2.789143
  H 0.426594 0.579865 -3.778149
  C 4.244067 -0.176405 -1.158224
  C 5.137932 0.001621 -2.119411
  O 6.485098 0.002503 -1.943787
  H 0.986850 -0.812913 0.723891
  H 2.395570 -1.223552 -1.162904
  H 0.928509 0.852034 1.481282
  H 2.691817 -0.334058 -3.451481
  H 2.610595 1.320821 -2.834317
  H 0.278353 0.902195 -2.048498
  H 0.376885 -0.758927 -2.630240
  H 4.592649 -0.329660 -0.142216
  H 4.890996 0.167412 -3.155443
  H 6.690408 -0.146819 -1.012738
