19
 0
 C -3.25734969 -1.80259808 0.05864046
 C -1.74175894 -1.64770299 0.02617855
 C -1.15359234 -2.47482539 -1.11578297
 C -1.21582274 -0.21438217 -0.06761529
 C -2.15126926 0.95028940 -0.26879620
 O 0.00000000 0.00000000 0.00000000
 H -3.53536519 -2.85323435 0.19670699
 H -3.71796152 -1.45810940 -0.87362058
 H -3.69402920 -1.23639223 0.88797265
 H -1.35720735 -2.04068397 0.97652737
 H -1.48232148 -2.09493577 -2.08931367
 H -1.45732216 -3.52406406 -1.03611438
 H -0.05862725 -2.44423590 -1.10278520
 H -3.20299348 0.67065904 -0.25032449
 H -1.93737011 1.41384791 -1.23555372
 H -1.98428182 1.67502796 0.53339420
 O 2.70000000 0.00000000 0.00000000
 H 3.26165789 -0.45890637 -0.64258244
 H 3.31189510 0.25197749 0.70784698
