 23
 0.000000
  C 1.009746 0.113172 0.332484
  C 2.485377 0.125558 0.363403
  C 3.242177 0.601356 1.547338
  C 2.429268 1.081605 2.742764
  H 3.102010 1.399312 3.533510
  C 3.140794 -0.332485 -0.776411
  C 4.524802 -0.398336 -0.940787
  C 5.183626 -0.853576 -2.076364
  C 4.554069 -1.350406 -3.315252
  H 3.473020 -1.341085 -3.292694
  O 6.494950 -0.869746 -2.117591
  H 0.558621 0.480249 1.246111
  H 0.651686 -0.900668 0.147143
  H 0.651800 0.717216 -0.502649
  H 3.901333 1.415772 1.226877
  H 3.901500 -0.208207 1.879461
  H 1.798795 0.288706 3.137210
  H 1.798812 1.927011 2.479040
  H 2.516807 -0.661174 -1.594635
  H 5.146934 -0.068837 -0.119792
  H 4.911512 -2.362590 -3.507434
  H 4.911931 -0.751755 -4.153566
  H 6.934467 -0.545939 -1.310342
 23
 -0.006827
  C 1.023463 -0.093362 0.408244
  C 2.494647 -0.005527 0.405149
  C 3.238064 0.622608 1.523956
  C 2.411821 1.193919 2.667739
  H 3.075812 1.644232 3.400702
  C 3.161140 -0.487461 -0.715711
  C 4.545128 -0.549460 -0.874618
  C 5.200482 -0.928428 -2.043061
  C 4.547468 -1.168958 -3.347531
  H 3.486087 -0.962480 -3.336649
  O 6.502995 -1.081151 -2.070541
  H 0.587586 0.123278 1.375833
  H 0.697975 -1.076751 0.070485
  H 0.618951 0.620816 -0.312906
  H 3.863975 1.421570 1.112954
  H 3.932558 -0.120025 1.932526
  H 1.840128 0.420457 3.173525
  H 1.730706 1.964734 2.318095
  H 2.541309 -0.861088 -1.517994
  H 5.166841 -0.309783 -0.022499
  H 4.720078 -2.201934 -3.649852
  H 5.032400 -0.551328 -4.102685
  H 6.954344 -0.934126 -1.218618
 23
 1.914063
  C 1.027669 -0.256366 0.476262
  C 2.495399 -0.124720 0.431563
  C 3.233665 0.694615 1.424266
  C 2.409607 1.369777 2.511644
  H 3.067108 1.950644 3.153580
  C 3.170192 -0.705640 -0.628528
  C 4.560016 -0.777483 -0.780752
  C 5.206513 -0.962132 -1.996276
  C 4.544387 -0.808179 -3.310145
  H 3.520938 -0.468098 -3.223612
  O 6.479420 -1.269028 -2.069961
  H 0.610284 0.023971 1.436044
  H 0.723834 -1.270970 0.222889
  H 0.584497 0.394006 -0.281516
  H 3.797142 1.462163 0.884049
  H 3.988518 0.055864 1.896915
  H 1.898451 0.641058 3.136220
  H 1.674282 2.048587 2.087688
  H 2.562949 -1.159529 -1.400671
  H 5.171909 -0.734491 0.111279
  H 4.579192 -1.757088 -3.846123
  H 5.114834 -0.102944 -3.913160
  H 6.932096 -1.365252 -1.211522
 23
 6.909641
  C 1.026758 -0.357600 0.519040
  C 2.493458 -0.219534 0.432110
  C 3.236594 0.741810 1.287537
  C 2.424432 1.529278 2.305138
  H 3.081777 2.205377 2.846073
  C 3.169164 -0.918575 -0.539131
  C 4.570598 -0.995288 -0.709033
  C 5.205073 -0.933225 -1.936877
  C 4.529747 -0.443858 -3.159617
  H 3.537822 -0.062604 -2.952388
  O 6.449871 -1.311625 -2.115143
  H 0.633971 -0.007723 1.466878
  H 0.723405 -1.389153 0.350679
  H 0.559515 0.238900 -0.267582
  H 3.761028 1.448574 0.636966
  H 4.026127 0.185309 1.805712
  H 1.953234 0.873124 3.033295
  H 1.656562 2.127776 1.822084
  H 2.571184 -1.481094 -1.248023
  H 5.170904 -1.191071 0.171541
  H 4.474702 -1.252542 -3.889114
  H 5.137151 0.333891 -3.619823
  H 6.909529 -1.613986 -1.310266
 23
 14.232855
  C 1.031282 -0.467837 0.549220
  C 2.497558 -0.328619 0.420157
  C 3.245660 0.730417 1.154153
  C 2.438690 1.613463 2.092883
  H 3.094212 2.353266 2.545522
  C 3.169997 -1.130705 -0.451522
  C 4.583690 -1.206343 -0.671383
  C 5.201809 -0.886066 -1.859878
  C 4.507909 -0.148941 -2.940581
  H 3.531618 0.199956 -2.626594
  O 6.433391 -1.252271 -2.144687
  H 0.663048 -0.060224 1.484121
  H 0.727893 -1.508213 0.456195
  H 0.540725 0.080981 -0.257234
  H 3.749537 1.370238 0.422799
  H 4.051341 0.238900 1.711508
  H 1.988505 1.034357 2.896019
  H 1.653525 2.144704 1.561201
  H 2.581053 -1.818345 -1.053041
  H 5.176145 -1.645417 0.124118
  H 4.406938 -0.800070 -3.809486
  H 5.120869 0.690781 -3.263733
  H 6.907309 -1.702724 -1.422441
 23
 19.756517
  C 1.036543 -0.568640 0.557989
  C 2.496370 -0.420984 0.378403
  C 3.247761 0.691585 1.026237
  C 2.439372 1.641440 1.894104
  H 3.090442 2.423128 2.277331
  C 3.167656 -1.292746 -0.404482
  C 4.588428 -1.347422 -0.675711
  C 5.205867 -0.795997 -1.767737
  C 4.490069 0.074112 -2.731502
  H 3.502922 0.338013 -2.368927
  O 6.456850 -1.061073 -2.084981
  H 0.699273 -0.150823 1.500523
  H 0.733443 -1.609963 0.493609
  H 0.517242 -0.031943 -0.238866
  H 3.740924 1.263057 0.230969
  H 4.060721 0.264231 1.621210
  H 2.004079 1.129655 2.749569
  H 1.641169 2.113647 1.327487
  H 2.613491 -2.120842 -0.838755
  H 5.161635 -1.988507 -0.012993
  H 4.399048 -0.436528 -3.690323
  H 5.081939 0.968018 -2.920147
  H 6.945463 -1.587549 -1.427067
 23
 12.647997
  C 1.060042 -0.680723 0.543323
  C 2.514217 -0.495099 0.353971
  C 3.218655 0.680955 0.936136
  C 2.362726 1.675506 1.704282
  H 2.984992 2.499579 2.043891
  C 3.225623 -1.434518 -0.341682
  C 4.610108 -1.454802 -0.696127
  C 5.223791 -0.713015 -1.679084
  C 4.516685 0.291025 -2.508789
  H 3.517565 0.488591 -2.139651
  O 6.464222 -0.951960 -2.054002
  H 0.706031 -0.227697 1.463631
  H 0.783551 -1.731496 0.522569
  H 0.529857 -0.193099 -0.278301
  H 3.732061 1.203085 0.121173
  H 4.018323 0.318103 1.589441
  H 1.913703 1.222825 2.585351
  H 1.572036 2.082853 1.079919
  H 2.711897 -2.360041 -0.588838
  H 5.178584 -2.262862 -0.245747
  H 4.454410 -0.072129 -3.534575
  H 5.103460 1.207451 -2.548304
  H 6.956389 -1.565745 -1.480021
 23
 7.896880
  C 1.086569 -0.743960 0.508174
  C 2.538720 -0.557322 0.325431
  C 3.214142 0.647484 0.874981
  C 2.318300 1.692273 1.523011
  H 2.923661 2.535390 1.845486
  C 3.268565 -1.543942 -0.297620
  C 4.610852 -1.531388 -0.742924
  C 5.217989 -0.631687 -1.598649
  C 4.503060 0.436925 -2.335226
  H 3.469960 0.529854 -2.025094
  O 6.477682 -0.775335 -1.952721
  H 0.733075 -0.313886 1.440687
  H 0.801034 -1.790736 0.451878
  H 0.562600 -0.220226 -0.295312
  H 3.795832 1.120649 0.079829
  H 3.958126 0.311847 1.605425
  H 1.812143 1.301443 2.402353
  H 1.569991 2.058987 0.825759
  H 2.792301 -2.515844 -0.382054
  H 5.175936 -2.425138 -0.498759
  H 4.534486 0.199530 -3.399074
  H 5.031450 1.382763 -2.224321
  H 6.969091 -1.455055 -1.457603
 23
 6.690844
  C 1.118371 -0.717850 0.465597
  C 2.578413 -0.585216 0.315285
  C 3.267504 0.611513 0.863559
  C 2.375125 1.716934 1.408814
  H 2.992705 2.549410 1.736202
  C 3.297959 -1.619109 -0.251651
  C 4.596570 -1.590261 -0.786111
  C 5.165328 -0.590121 -1.560425
  C 4.393945 0.454462 -2.274809
  H 3.339269 0.427386 -2.031059
  O 6.446808 -0.592929 -1.849194
  H 0.769464 -0.332133 1.420055
  H 0.785222 -1.743459 0.335237
  H 0.634482 -0.111627 -0.303794
  H 3.929506 1.032608 0.105207
  H 3.936258 0.265973 1.660018
  H 1.796784 1.384648 2.267363
  H 1.689110 2.081880 0.649284
  H 2.840490 -2.601268 -0.216428
  H 5.169935 -2.503239 -0.676679
  H 4.516146 0.281514 -3.344921
  H 4.814838 1.440731 -2.084379
  H 6.968372 -1.282900 -1.401192
 23
 8.891807
  C 1.145085 -0.612404 0.353521
  C 2.616707 -0.574877 0.293446
  C 3.339852 0.579198 0.892161
  C 2.476862 1.708956 1.435009
  H 3.117827 2.503839 1.807635
  C 3.316876 -1.662649 -0.205020
  C 4.585233 -1.627190 -0.790797
  C 5.087585 -0.559081 -1.529276
  C 4.232185 0.364161 -2.313193
  H 3.177485 0.203250 -2.127441
  O 6.374248 -0.369933 -1.711373
  H 0.765356 -0.267937 1.312662
  H 0.752284 -1.600906 0.132934
  H 0.752843 0.081653 -0.392735
  H 4.040847 0.995887 0.166077
  H 3.966247 0.184795 1.699448
  H 1.853425 1.379128 2.262228
  H 1.836579 2.125272 0.662343
  H 2.863389 -2.638638 -0.081207
  H 5.184847 -2.526494 -0.741299
  H 4.441131 0.180000 -3.367944
  H 4.505009 1.403019 -2.134048
  H 6.953200 -1.009660 -1.258649
 23
 15.046408
  C 1.199006 -0.483865 0.206015
  C 2.669237 -0.541628 0.263632
  C 3.413460 0.554675 0.943905
  C 2.568712 1.686775 1.510713
  H 3.221718 2.436035 1.951151
  C 3.340018 -1.693229 -0.156510
  C 4.568406 -1.664975 -0.800082
  C 4.993563 -0.530373 -1.507210
  C 4.086151 0.237710 -2.391975
  H 3.051060 -0.055955 -2.270997
  O 6.243954 -0.146589 -1.571563
  H 0.761270 -0.180187 1.155290
  H 0.767548 -1.428690 -0.112103
  H 0.913619 0.285831 -0.513243
  H 4.148637 0.991205 0.263212
  H 3.998247 0.099876 1.749635
  H 1.900357 1.335687 2.292724
  H 1.977369 2.168381 0.737315
  H 2.887781 -2.650301 0.069751
  H 5.187925 -2.550458 -0.819992
  H 4.397276 0.032752 -3.417863
  H 4.204365 1.311488 -2.253063
  H 6.876599 -0.711362 -1.090247
 23
 24.681006
  C 1.299338 -0.336247 0.048759
  C 2.752270 -0.487005 0.238557
  C 3.499549 0.532070 1.028156
  C 2.662376 1.666220 1.604702
  H 3.313276 2.359269 2.131733
  C 3.363230 -1.719192 -0.104862
  C 4.518081 -1.718832 -0.835029
  C 4.856976 -0.516499 -1.514640
  C 3.950053 0.109287 -2.499197
  H 2.944426 -0.288380 -2.442544
  O 6.051564 0.013173 -1.467182
  H 0.794047 -0.039972 0.967551
  H 0.847602 -1.245114 -0.338761
  H 1.119345 0.473615 -0.660362
  H 4.290973 0.985696 0.424272
  H 4.014723 0.009181 1.839859
  H 1.928729 1.298641 2.317587
  H 2.145975 2.217832 0.824573
  H 2.906136 -2.638285 0.237166
  H 5.141162 -2.593484 -0.947178
  H 4.360571 -0.109403 -3.487471
  H 3.947541 1.194647 -2.408382
  H 6.708924 -0.486157 -0.946733
 23
 32.394575
  C 1.442550 -0.206145 -0.113737
  C 2.861001 -0.446348 0.209684
  C 3.592979 0.497840 1.102285
  C 2.760439 1.641891 1.672338
  H 3.397681 2.278866 2.279256
  C 3.407369 -1.763355 -0.059917
  C 4.464247 -1.782479 -0.883592
  C 4.693842 -0.498934 -1.520779
  C 3.797056 0.014063 -2.572626
  H 2.834053 -0.479871 -2.568805
  O 5.806462 0.164580 -1.364051
  H 0.874447 0.078796 0.772747
  H 0.983743 -1.077203 -0.572669
  H 1.356951 0.639976 -0.797468
  H 4.442566 0.952482 0.581561
  H 4.028000 -0.081367 1.923657
  H 1.961011 1.273630 2.309356
  H 2.328476 2.252304 0.886103
  H 2.957427 -2.639785 0.389499
  H 5.086134 -2.637989 -1.103133
  H 4.282858 -0.180684 -3.531266
  H 3.686318 1.093779 -2.504999
  H 6.487638 -0.279333 -0.817994
 23
 33.820430
  C 1.613761 -0.134713 -0.288518
  C 2.988702 -0.428510 0.158166
  C 3.655768 0.460042 1.150483
  C 2.805565 1.607757 1.686587
  H 3.404442 2.206597 2.367863
  C 3.476067 -1.813236 0.000442
  C 4.425018 -1.840418 -0.924819
  C 4.529965 -0.472029 -1.471112
  C 3.701577 -0.043143 -2.618731
  H 2.788874 -0.619634 -2.704404
  O 5.565479 0.286890 -1.209641
  H 1.002911 0.176887 0.559328
  H 1.155725 -0.997115 -0.764198
  H 1.592866 0.705422 -0.983339
  H 4.553917 0.913966 0.717020
  H 4.010997 -0.157089 1.982724
  H 1.944278 1.240272 2.239786
  H 2.459524 2.256083 0.887383
  H 3.062782 -2.640652 0.555348
  H 5.037364 -2.663769 -1.250920
  H 4.294742 -0.202102 -3.524099
  H 3.494983 1.024210 -2.573259
  H 6.246723 -0.127251 -0.646954
 23
 33.823561
  C 1.632614 -0.122226 -0.307737
  C 3.004778 -0.420381 0.146645
  C 3.659996 0.455462 1.160015
  C 2.807963 1.599290 1.701704
  H 3.402662 2.187349 2.396168
  C 3.483751 -1.813471 0.009118
  C 4.420227 -1.841437 -0.928164
  C 4.503745 -0.463490 -1.460936
  C 3.687603 -0.054918 -2.627159
  H 2.783820 -0.644333 -2.722102
  O 5.534661 0.305007 -1.201666
  H 1.029371 0.230849 0.529032
  H 1.161760 -0.996110 -0.749836
  H 1.617984 0.689268 -1.035659
  H 4.562391 0.914268 0.741688
  H 4.005140 -0.173025 1.987624
  H 1.940513 1.227973 2.242680
  H 2.472465 2.259082 0.906907
  H 3.075949 -2.632559 0.578799
  H 5.036655 -2.657430 -1.263047
  H 4.298734 -0.216112 -3.519516
  H 3.467268 1.009755 -2.596523
  H 6.221978 -0.104344 -0.642901
