 23
 0.000000
  C 0.975790 0.137332 0.393142
  C 2.453972 0.138831 0.396445
  C 3.235887 0.609601 1.567949
  C 2.454651 1.098519 2.785050
  C 3.400218 1.544794 3.895611
  C 3.074760 -0.323868 -0.755623
  C 4.452396 -0.411652 -0.974602
  C 5.123831 -0.863395 -2.100714
  H 4.763810 -1.238544 -3.035887
  O 6.448567 -0.861790 -2.097024
  H 0.536390 0.506813 1.312870
  H 0.606624 -0.875729 0.225913
  H 0.606339 0.752985 -0.428456
  H 3.892013 1.422462 1.236076
  H 3.892206 -0.206765 1.890660
  H 1.816409 0.300727 3.170305
  H 1.816264 1.941012 2.511316
  H 4.036296 0.723883 4.220901
  H 2.831617 1.890430 4.756103
  H 4.036115 2.362679 3.562473
  H 2.419633 -0.642347 -1.548686
  H 5.073532 -0.080521 -0.149771
  H 6.820588 -0.526463 -1.260938
 23
 0.000000
  C 1.018105 0.126813 0.366948
  C 2.496203 0.133020 0.381963
  C 3.267308 0.606262 1.559620
  C 2.474900 1.092671 2.770488
  C 3.410212 1.541940 3.888502
  C 3.127570 -0.327683 -0.765146
  C 4.444158 -0.425847 -1.010019
  C 5.059038 -0.851568 -2.071262
  H 4.723433 -1.229848 -3.014226
  O 6.285424 -0.822484 -1.999072
  H 0.570257 0.494879 1.283162
  H 0.653504 -0.887416 0.196810
  H 0.653216 0.741298 -0.457558
  H 3.923451 1.421213 1.232948
  H 3.923647 -0.208015 1.887530
  H 1.836170 0.292845 3.150683
  H 1.836021 1.933131 2.491696
  H 4.046304 0.723054 4.218830
  H 2.833713 1.885751 4.744458
  H 4.046120 2.361851 3.560404
  H 2.479765 -0.648238 -1.563371
  H 5.083029 -0.099421 -0.196940
  H 6.576359 -0.455214 -1.083336
 23
 0.000000
  C 1.059958 0.116838 0.342105
  C 2.537849 0.128028 0.369518
  C 3.297449 0.603848 1.553598
  C 2.493275 1.087564 2.757771
  C 3.417657 1.539965 3.883585
  C 3.180366 -0.330525 -0.772248
  C 4.444019 -0.439168 -1.043249
  C 5.003704 -0.841267 -2.045601
  H 4.688915 -1.222026 -2.994727
  O 6.130170 -0.790795 -1.920105
  H 0.603202 0.483378 1.254526
  H 0.700218 -0.898612 0.168927
  H 0.699929 0.730103 -0.485440
  H 3.953558 1.421012 1.232431
  H 3.953755 -0.208216 1.887012
  H 1.854078 0.285583 3.132604
  H 1.853928 1.925869 2.473618
  H 4.053713 0.723224 4.219248
  H 2.832842 1.881817 4.734672
  H 4.053527 2.362021 3.560823
  H 2.540364 -0.653252 -1.575874
  H 5.102247 -0.118112 -0.243579
  H 6.326980 -0.391002 -0.923277
 23
 0.000000
  C 1.100740 0.107650 0.319221
  C 2.578285 0.124053 0.359607
  C 3.325778 0.602529 1.550303
  C 2.509362 1.083384 2.747363
  C 3.422224 1.539024 3.881244
  C 3.232414 -0.332211 -0.776470
  C 4.453048 -0.451370 -1.073684
  C 4.959420 -0.832923 -2.024810
  H 4.660495 -1.215458 -2.978342
  O 5.985155 -0.767383 -1.861755
  H 0.634700 0.472561 1.227592
  H 0.746118 -0.909060 0.142905
  H 0.745827 0.719655 -0.511462
  H 3.981794 1.422008 1.234897
  H 3.981993 -0.207221 1.889476
  H 1.869732 0.279147 3.116582
  H 1.869581 1.919434 2.457598
  H 4.058186 0.724526 4.222489
  H 2.828757 1.878796 4.727160
  H 4.058000 2.363324 3.564065
  H 2.600633 -0.657182 -1.585678
  H 5.132047 -0.136362 -0.289116
  H 6.073605 -0.335523 -0.784981
 23
 0.000000
  C 1.139671 0.099527 0.298987
  C 2.616722 0.121297 0.352731
  C 3.351675 0.602463 1.550131
  C 2.522727 1.080328 2.739754
  C 3.423638 1.539261 3.881836
  C 3.282751 -0.332568 -0.777378
  C 4.472005 -0.462071 -1.100376
  C 4.928022 -0.827125 -2.010357
  H 4.638766 -1.210698 -2.966451
  O 5.852648 -0.752887 -1.825620
  H 0.664115 0.462726 1.203102
  H 0.790354 -0.918461 0.119487
  H 0.790063 0.710254 -0.534880
  H 4.007536 1.424326 1.240658
  H 4.007734 -0.204903 1.895236
  H 1.882710 0.273765 3.103185
  H 1.882559 1.914053 2.444204
  H 4.059444 0.727072 4.228829
  H 2.821316 1.876859 4.722346
  H 4.059257 2.365870 3.570407
  H 2.659497 -0.659820 -1.592260
  H 5.172628 -0.153690 -0.332357
  H 5.818487 -0.290516 -0.672777
 23
 0.000000
  C 1.175846 0.092752 0.282110
  C 2.652256 0.119936 0.349333
  C 3.374480 0.603772 1.553384
  C 2.532963 1.078573 2.735385
  C 3.421723 1.540785 3.885636
  C 3.330231 -0.331463 -0.774644
  C 4.501003 -0.470569 -1.121574
  C 4.911367 -0.824680 -2.004258
  H 4.624551 -1.208518 -2.960980
  O 5.734775 -0.747976 -1.813363
  H 0.690729 0.454189 1.181842
  H 0.831917 -0.926507 0.099444
  H 0.831627 0.702208 -0.554923
  H 4.030121 1.428039 1.249897
  H 4.030318 -0.201190 1.904475
  H 1.892616 0.269663 3.092972
  H 1.892466 1.909951 2.433991
  H 4.057309 0.730926 4.238430
  H 2.810521 1.876158 4.720609
  H 4.057124 2.369724 3.580009
  H 2.715645 -0.660986 -1.595175
  H 5.223048 -0.169110 -0.370837
  H 5.565308 -0.257553 -0.590591
 23
 0.000000
  C 1.206675 0.087825 0.269834
  C 2.682358 0.120052 0.349617
  C 3.392655 0.606334 1.559763
  C 2.539492 1.078239 2.734555
  C 3.416849 1.543467 3.892321
  C 3.371412 -0.329011 -0.768545
  C 4.537034 -0.475420 -1.133677
  C 4.910925 -0.826679 -2.009230
  H 4.618955 -1.209988 -2.964604
  O 5.639145 -0.753042 -1.825963
  H 0.712688 0.447588 1.165400
  H 0.867797 -0.932600 0.084261
  H 0.867511 0.696114 -0.570107
  H 4.048034 1.432842 1.261855
  H 4.048228 -0.196388 1.916433
  H 1.898894 0.267140 3.086691
  H 1.898746 1.907429 2.427710
  H 4.052173 0.735779 4.250521
  H 2.797422 1.876737 4.722058
  H 4.051992 2.374578 3.592100
  H 2.764959 -0.660621 -1.594271
  H 5.277677 -0.180278 -0.398711
  H 5.333095 -0.238414 -0.542856
 23
 0.000000
  C 1.229515 0.084964 0.262703
  C 2.704512 0.121307 0.352743
  C 3.405019 0.609558 1.567794
  C 2.542396 1.079069 2.736621
  C 3.410382 1.546732 3.900454
  C 3.402573 -0.325820 -0.760597
  C 4.572549 -0.475678 -1.134326
  C 4.923361 -0.833298 -2.025718
  H 4.620719 -1.215467 -2.978225
  O 5.573755 -0.765866 -1.857897
  H 0.728311 0.443338 1.154810
  H 0.894783 -0.936401 0.074789
  H 0.894502 0.692313 -0.579581
  H 4.060145 1.437894 1.274441
  H 4.060334 -0.191335 1.929020
  H 1.901631 0.266182 3.084303
  H 1.901487 1.906470 2.425322
  H 4.045452 0.740816 4.263071
  H 2.784273 1.878264 4.725862
  H 4.045275 2.379615 3.604648
  H 2.802803 -0.659115 -1.590516
  H 5.326202 -0.185135 -0.410840
  H 5.149679 -0.231252 -0.524975
 23
 0.000000
  C 1.246292 0.083628 0.259371
  C 2.720654 0.123404 0.357967
  C 3.412961 0.613276 1.577059
  C 2.542481 1.080771 2.740859
  C 3.402609 1.550446 3.909705
  C 3.426202 -0.322091 -0.751301
  C 4.604537 -0.471843 -1.124768
  C 4.943288 -0.844524 -2.053689
  H 4.626181 -1.225070 -3.002135
  O 5.532493 -0.784468 -1.904237
  H 0.739088 0.440829 1.148554
  H 0.915034 -0.938513 0.069525
  H 0.914758 0.690200 -0.584847
  H 4.067849 1.443136 1.287506
  H 4.068032 -0.186092 1.942087
  H 1.901602 0.266393 3.084823
  H 1.901465 1.906680 2.425840
  H 4.037439 0.746008 4.276006
  H 2.770952 1.880515 4.731465
  H 4.037268 2.384806 3.617582
  H 2.832034 -0.656777 -1.584683
  H 5.366519 -0.184326 -0.408834
  H 5.008469 -0.230351 -0.522701
 23
 0.000000
  C 1.258291 0.083720 0.259596
  C 2.732039 0.126549 0.365808
  C 3.417022 0.617850 1.588458
  C 2.539574 1.083536 2.747742
  C 3.392676 1.554987 3.921015
  C 3.444230 -0.317479 -0.739797
  C 4.632805 -0.464255 -1.105852
  C 4.968904 -0.862168 -2.097658
  H 4.633174 -1.240498 -3.040570
  O 5.513153 -0.809929 -1.967672
  H 0.745761 0.439867 1.146144
  H 0.930137 -0.939104 0.068048
  H 0.929868 0.689608 -0.586327
  H 4.071677 1.449066 1.302287
  H 4.071853 -0.180161 1.956871
  H 1.898615 0.267831 3.088396
  H 1.898484 1.908117 2.429410
  H 4.027271 0.751864 4.290596
  H 2.756100 1.883743 4.739497
  H 4.027107 2.390661 3.632169
  H 2.855071 -0.653392 -1.576236
  H 5.399782 -0.178585 -0.394526
  H 4.902620 -0.231559 -0.525682
 23
 0.000000
  C 1.264829 0.085847 0.264888
  C 2.737966 0.131506 0.378166
  C 3.416133 0.624118 1.604084
  C 2.532242 1.088115 2.759144
  C 3.378801 1.561201 3.936491
  C 3.456303 -0.311150 -0.724009
  C 4.657837 -0.453223 -1.078341
  C 5.001161 -0.890420 -2.168063
  H 4.640860 -1.265610 -3.103138
  O 5.521803 -0.846260 -2.058200
  H 0.747369 0.441006 1.148966
  H 0.939562 -0.937605 0.071775
  H 0.939303 0.691105 -0.582605
  H 4.070555 1.456591 1.321050
  H 4.070721 -0.172634 1.975638
  H 1.891224 0.271180 3.096725
  H 1.891103 1.911464 2.437736
  H 4.013158 0.759298 4.309117
  H 2.737676 1.888732 4.751910
  H 4.013003 2.398093 3.650686
  H 2.871807 -0.648192 -1.563261
  H 5.427698 -0.168631 -0.369703
  H 4.836805 -0.231099 -0.524505
 23
 0.000000
  C 1.264517 0.090466 0.276386
  C 2.737084 0.138612 0.395878
  C 3.409241 0.632367 1.624644
  C 2.519702 1.094870 2.775961
  C 3.360486 1.569383 3.956867
  C 3.460811 -0.302830 -0.703253
  C 4.677312 -0.440686 -1.047071
  C 5.036553 -0.928618 -2.263247
  H 4.647866 -1.299860 -3.188481
  O 5.562169 -0.892144 -2.172541
  H 0.742734 0.444750 1.158270
  H 0.941796 -0.933533 0.081908
  H 0.941549 0.695174 -0.572477
  H 4.063445 1.465944 1.344369
  H 4.063599 -0.163280 1.998961
  H 1.878646 0.276853 3.110840
  H 1.878536 1.917136 2.451846
  H 3.994617 0.768551 4.332171
  H 2.715374 1.895830 4.769572
  H 3.994475 2.407344 3.673735
  H 2.880432 -0.640857 -1.544962
  H 5.449027 -0.156794 -0.340171
  H 4.822888 -0.225393 -0.510250
 23
 0.000000
  C 1.261429 0.096401 0.291161
  C 2.733390 0.147054 0.416919
  C 3.399469 0.641951 1.648530
  C 2.504253 1.102937 2.796050
  C 3.339195 1.578879 3.980520
  C 3.462538 -0.293153 -0.679121
  C 4.690818 -0.427397 -1.013923
  C 5.066880 -0.966816 -2.358428
  H 4.651290 -1.333997 -3.273539
  O 5.611284 -0.937506 -2.285582
  H 0.735294 0.449795 1.170815
  H 0.941282 -0.928146 0.095318
  H 0.941047 0.700560 -0.559072
  H 4.053440 1.476640 1.371037
  H 4.053583 -0.152582 2.025634
  H 1.863171 0.283829 3.128202
  H 1.863073 1.924110 2.469204
  H 3.973086 0.779127 4.358523
  H 2.690076 1.904226 4.790470
  H 3.972956 2.417919 3.700084
  H 2.886322 -0.632167 -1.523290
  H 5.463927 -0.144034 -0.308335
  H 4.829102 -0.215868 -0.486482
 23
 0.000000
  C 1.257421 0.103527 0.308903
  C 2.728648 0.157059 0.441852
  C 3.387732 0.653254 1.676700
  C 2.486019 1.112485 2.819828
  C 3.314231 1.590056 4.008362
  C 3.464003 -0.281719 -0.650608
  C 4.700819 -0.412034 -0.975606
  C 5.091660 -1.002660 -2.447745
  H 4.650421 -1.365670 -3.352457
  O 5.659118 -0.980672 -2.393153
  H 0.726304 0.455889 1.185973
  H 0.940239 -0.921643 0.111505
  H 0.940017 0.707061 -0.542889
  H 4.041418 1.489222 1.402401
  H 4.041548 -0.139999 2.057001
  H 1.844925 0.292124 3.148850
  H 1.844840 1.932404 2.489848
  H 3.947830 0.791544 4.389463
  H 2.660527 1.914131 4.815128
  H 3.947712 2.430334 3.731020
  H 2.892583 -0.621856 -1.497581
  H 5.474934 -0.129055 -0.270968
  H 4.833211 -0.203886 -0.456591
