13

C 1.008212 -0.071295 0.048147
C 2.504001 -0.083742 0.025159
C 3.217998 -0.596259 -0.982866
C 4.656095 -0.606059 -1.002976
C 5.377031 -1.121853 -2.014024
H 6.446927729123234 -1.128320569231379 -2.0274090498557653
H 0.648913 0.39403 0.965383
H 0.610609 -1.085436 0.008719
H 0.611759 0.497588 -0.792948
H 3.005635 0.350534 0.880107
H 2.705786 -1.029468 -1.83343
H 5.160089 -0.170144 -0.149237
H 4.873534 -1.557861 -2.867953
