 25
 0.000000
  C 0.905405 0.048701 0.272641
  C 2.396477 0.059191 0.086679
  C 3.243488 -0.012094 1.350090
  C 2.524821 -0.087931 2.694001
  H 3.251399 -0.133301 3.498102
  C 2.991779 0.127416 -1.122391
  C 2.351722 0.204896 -2.495498
  C 0.841346 0.217058 -2.710978
  H 0.632113 0.277083 -3.774760
  C 4.453455 0.132513 -1.212651
  C 5.192924 0.194805 -2.316710
  H 6.269956 0.193543 -2.294293
  H 0.616644 -0.010173 1.315942
  H 0.460310 -0.813607 -0.216730
  H 0.460311 0.960588 -0.116616
  H 3.889891 0.870514 1.379297
  H 3.889895 -0.892386 1.279823
  H 1.898620 -0.976946 2.751752
  H 1.898612 0.788941 2.851398
  H 2.744596 -0.643239 -3.066807
  H 2.744592 1.111912 -2.967763
  H 0.379650 1.076274 -2.233507
  H 0.379649 -0.690417 -2.333197
  H 4.995203 0.079948 -0.281066
  H 4.808060 0.251491 -3.321273
 25
 9.950519
  C 0.821319 0.048240 0.280798
  C 2.439271 0.060421 0.064882
  C 3.283978 -0.010320 1.318650
  C 2.498841 -0.092503 2.775011
  H 3.227506 -0.137741 3.576792
  C 3.021205 0.128628 -1.143861
  C 2.369941 0.205764 -2.510885
  C 0.858482 0.217054 -2.710914
  H 0.641234 0.277088 -3.774892
  C 4.482618 0.134369 -1.245564
  C 5.212794 0.196891 -2.353683
  H 6.290595 0.195832 -2.334872
  H 0.549874 -0.010818 1.327386
  H 0.376399 -0.812949 -0.205407
  H 0.376400 0.958661 -0.105438
  H 3.927613 0.871030 1.352844
  H 3.927618 -0.889923 1.253481
  H 1.875607 -0.980441 2.828362
  H 1.875599 0.783793 2.927915
  H 2.758660 -0.642214 -3.085259
  H 2.758660 1.112975 -2.986219
  H 0.400316 1.075867 -2.230273
  H 0.400316 -0.690376 -2.329937
  H 5.031327 0.082031 -0.317991
  H 4.819199 0.253383 -3.354807
 25
 30.574392
  C 0.755247 0.046236 0.316346
  C 2.498061 0.061189 0.051290
  C 3.314252 -0.009466 1.303523
  C 2.426237 -0.096793 2.851036
  H 3.177518 -0.140666 3.628586
  C 3.048463 0.130799 -1.182342
  C 2.380353 0.207583 -2.543132
  C 0.867666 0.217041 -2.710707
  H 0.643957 0.277137 -3.775769
  C 4.513054 0.137252 -1.296662
  C 5.235097 0.200043 -2.409545
  H 6.312633 0.198108 -2.375161
  H 0.570659 -0.013323 1.371779
  H 0.334904 -0.821834 -0.166117
  H 0.334905 0.963070 -0.065399
  H 3.948525 0.871083 1.387699
  H 3.948523 -0.893888 1.288105
  H 1.827261 -0.994696 2.867028
  H 1.827256 0.793604 2.967940
  H 2.763816 -0.639506 -3.122771
  H 2.763814 1.114497 -3.023793
  H 0.414599 1.077153 -2.230224
  H 0.414599 -0.691656 -2.330036
  H 5.066331 0.084945 -0.369623
  H 4.828264 0.256164 -3.404118
 25
 54.955992
  C 0.676859 0.046290 0.314523
  C 2.541661 0.062848 0.021706
  C 3.346087 -0.007728 1.272986
  C 2.396053 -0.101849 2.940980
  H 3.193409 -0.142695 3.665316
  C 3.056847 0.132274 -1.208713
  C 2.385515 0.208825 -2.565581
  C 0.871470 0.216915 -2.707814
  H 0.628903 0.276870 -3.769916
  C 4.522442 0.138579 -1.320391
  C 5.245688 0.201450 -2.434713
  H 6.323116 0.198546 -2.383171
  H 0.568096 -0.012918 1.363820
  H 0.307728 -0.827551 -0.187096
  H 0.307691 0.970994 -0.085614
  H 3.956217 0.877997 1.425656
  H 3.956250 -0.904968 1.325066
  H 1.815929 -1.005135 2.908500
  H 1.815896 0.799321 3.010301
  H 2.765887 -0.640681 -3.144009
  H 2.765904 1.118029 -3.044717
  H 0.427616 1.075593 -2.215508
  H 0.427531 -0.691665 -2.315254
  H 5.065819 0.085808 -0.385098
  H 4.828918 0.257307 -3.424669
 25
 82.136713
  C 0.590787 0.045596 0.326796
  C 2.580432 0.064122 -0.000801
  C 3.381595 -0.005701 1.237115
  C 2.370372 -0.106393 3.021457
  H 3.178405 -0.146667 3.735643
  C 3.084605 0.133710 -1.234061
  C 2.403629 0.209744 -2.581674
  C 0.886036 0.216852 -2.706716
  H 0.631317 0.276451 -3.762722
  C 4.550740 0.140348 -1.351715
  C 5.270349 0.203202 -2.465731
  H 6.345639 0.200383 -2.415824
  H 0.499072 -0.015228 1.404679
  H 0.225589 -0.835349 -0.179028
  H 0.225547 0.977834 -0.076715
  H 3.987292 0.883784 1.401574
  H 3.987333 -0.908013 1.300484
  H 1.790610 -1.016947 2.981827
  H 1.790566 0.802816 3.084496
  H 2.779033 -0.638300 -3.163375
  H 2.779061 1.117841 -3.064255
  H 0.447510 1.075602 -2.209361
  H 0.447440 -0.692354 -2.309132
  H 5.093161 0.087766 -0.419850
  H 4.850945 0.258947 -3.453628
 25
 107.636713
  C 0.529625 0.044128 0.352994
  C 2.635424 0.065590 -0.026650
  C 3.406193 -0.003650 1.200801
  C 2.314493 -0.110649 3.096799
  H 3.144551 -0.149144 3.779302
  C 3.110821 0.135378 -1.263428
  C 2.416541 0.211058 -2.604567
  C 0.899336 0.216302 -2.697076
  H 0.615974 0.275544 -3.747190
  C 4.575416 0.142374 -1.387551
  C 5.282251 0.204981 -2.497181
  H 6.357897 0.202531 -2.453933
  H 0.503184 -0.016609 1.429271
  H 0.193294 -0.840552 -0.155671
  H 0.193252 0.980404 -0.052912
  H 3.987020 0.885035 1.419812
  H 3.987047 -0.911314 1.318458
  H 1.751121 -1.022116 3.016879
  H 1.751096 0.803991 3.119916
  H 2.783185 -0.638491 -3.190482
  H 2.783228 1.121078 -3.091225
  H 0.475060 1.073399 -2.186821
  H 0.475020 -0.692715 -2.286449
  H 5.115659 0.089647 -0.453229
  H 4.853148 0.260481 -3.480634
 25
 129.414546
  C 0.496782 0.041118 0.406597
  C 2.682827 0.067160 -0.054429
  C 3.422259 -0.001741 1.166887
  C 2.260669 -0.117255 3.213814
  H 3.117137 -0.153324 3.853236
  C 3.120914 0.137257 -1.296721
  C 2.422107 0.213263 -2.643692
  C 0.910409 0.218648 -2.738789
  H 0.624101 0.278043 -3.791575
  C 4.585229 0.144337 -1.422227
  C 5.294081 0.207497 -2.541716
  H 6.372744 0.205654 -2.509081
  H 0.548690 -0.018861 1.469520
  H 0.171675 -0.841423 -0.091574
  H 0.171645 0.974090 0.010870
  H 3.957771 0.884298 1.458385
  H 3.957788 -0.914946 1.356872
  H 1.715233 -1.023798 3.107352
  H 1.715226 0.795472 3.210009
  H 2.789433 -0.636859 -3.230182
  H 2.789464 1.123928 -3.130854
  H 0.490127 1.073348 -2.229067
  H 0.490103 -0.687950 -2.328427
  H 5.120287 0.091182 -0.480147
  H 4.861521 0.263015 -3.525699
 25
 147.613558
  C 0.480477 0.042579 0.380654
  C 2.754501 0.068460 -0.077451
  C 3.440266 -0.000246 1.140402
  C 2.168140 -0.123547 3.325197
  H 3.035880 -0.159012 3.953895
  C 3.173304 0.139379 -1.334306
  C 2.438101 0.213690 -2.651239
  C 0.917575 0.215045 -2.674926
  H 0.581516 0.273216 -3.706052
  C 4.636659 0.148223 -1.491136
  C 5.320441 0.212123 -2.623743
  H 6.396430 0.211622 -2.614875
  H 0.546400 -0.017737 1.449557
  H 0.166488 -0.847545 -0.126442
  H 0.166457 0.984088 -0.023087
  H 3.946690 0.893358 1.486415
  H 3.946707 -0.927099 1.383704
  H 1.624727 -1.041444 3.196713
  H 1.624696 0.802971 3.300786
  H 2.784533 -0.634758 -3.250052
  H 2.784569 1.124076 -3.150839
  H 0.518997 1.070451 -2.143080
  H 0.518975 -0.694740 -2.242657
  H 5.185921 0.095790 -0.561853
  H 4.867391 0.267108 -3.598222
 25
 161.135010
  C 0.430119 0.041643 0.397175
  C 2.801948 0.069780 -0.100819
  C 3.465612 0.000916 1.119856
  C 2.115837 -0.130041 3.440308
  H 2.994226 -0.164688 4.054583
  C 3.199019 0.140966 -1.362439
  C 2.448692 0.214839 -2.671604
  C 0.928663 0.215134 -2.676490
  H 0.577380 0.273249 -3.706627
  C 4.662025 0.150550 -1.532404
  C 5.333628 0.214719 -2.669799
  H 6.410794 0.214884 -2.672773
  H 0.520956 -0.018691 1.466417
  H 0.117703 -0.852054 -0.109561
  H 0.117669 0.986661 -0.005809
  H 3.949386 0.891252 1.494319
  H 3.949399 -0.925877 1.391796
  H 1.578340 -1.046598 3.302287
  H 1.578319 0.796197 3.406267
  H 2.788820 -0.633108 -3.275552
  H 2.788853 1.125295 -3.176359
  H 0.536489 1.071886 -2.138366
  H 0.536474 -0.696677 -2.238141
  H 5.218389 0.098217 -0.604893
  H 4.871364 0.269383 -3.638606
 25
 166.257487
  C 0.533699 0.037463 0.457236
  C 2.917750 0.071807 -0.133023
  C 3.490701 0.002939 1.094392
  C 1.912250 -0.135777 3.541674
  H 2.782856 -0.170548 4.166673
  C 3.250909 0.143701 -1.407616
  C 2.452598 0.215877 -2.686189
  C 0.935991 0.212847 -2.624244
  H 0.540559 0.269829 -3.637821
  C 4.709999 0.155789 -1.629420
  C 5.341073 0.221320 -2.795249
  H 6.417584 0.223194 -2.834163
  H 0.698024 -0.022059 1.513067
  H 0.209145 -0.857537 -0.038659
  H 0.208345 0.982297 0.065181
  H 3.898536 0.891650 1.548835
  H 3.899494 -0.930763 1.446152
  H 1.386491 -1.053418 3.363394
  H 1.385548 0.795536 3.467580
  H 2.769877 -0.633064 -3.301118
  H 2.770424 1.128230 -3.202043
  H 0.566280 1.068147 -2.068574
  H 0.565761 -0.699027 -2.167727
  H 5.298469 0.104303 -0.721265
  H 4.842223 0.275074 -3.746630
 25
 168.979456
  C 0.517242 0.036650 0.481029
  C 2.966317 0.073081 -0.159435
  C 3.501511 0.003916 1.067600
  C 1.824786 -0.143008 3.671334
  H 2.716934 -0.176317 4.263284
  C 3.274625 0.145243 -1.438890
  C 2.457812 0.216592 -2.702452
  C 0.944300 0.211686 -2.612136
  H 0.530322 0.268474 -3.617134
  C 4.733155 0.158597 -1.676082
  C 5.351010 0.224668 -2.847793
  H 6.426528 0.227433 -2.895573
  H 0.732810 -0.022483 1.530870
  H 0.195041 -0.856071 -0.012259
  H 0.194766 0.979032 0.091136
  H 3.861199 0.891096 1.561554
  H 3.861232 -0.933109 1.458767
  H 1.306414 -1.061853 3.483332
  H 1.306281 0.791079 3.587796
  H 2.766522 -0.629628 -3.324275
  H 2.766743 1.127318 -3.225140
  H 0.584574 1.065902 -2.050397
  H 0.584341 -0.700225 -2.150130
  H 5.328064 0.107734 -0.774047
  H 4.839697 0.277882 -3.792651
 25
 169.336228
  C 0.529056 0.032553 0.543308
  C 3.036417 0.075096 -0.187580
  C 3.525196 0.005950 1.047378
  C 1.688431 -0.148384 3.760940
  H 2.583461 -0.180631 4.346123
  C 3.315353 0.147460 -1.472197
  C 2.466030 0.217438 -2.713699
  C 0.955853 0.210177 -2.574451
  H 0.509024 0.265607 -3.563117
  C 4.765618 0.161852 -1.737720
  C 5.358690 0.228330 -2.923143
  H 6.432332 0.231749 -2.993230
  H 0.800614 -0.025927 1.582121
  H 0.195885 -0.859448 0.060149
  H 0.194893 0.972880 0.163544
  H 3.828741 0.893624 1.580401
  H 3.830180 -0.935437 1.477447
  H 1.176387 -1.067952 3.558771
  H 1.174910 0.787243 3.663277
  H 2.757726 -0.626899 -3.344634
  H 2.758361 1.126864 -3.246201
  H 0.613944 1.063106 -2.001957
  H 0.613324 -0.701021 -2.100610
  H 5.377780 0.111350 -0.848014
  H 4.826384 0.281097 -3.855989
 25
 167.866127
  C 0.548215 0.028502 0.625791
  C 3.105556 0.076458 -0.218583
  C 3.541320 0.006268 1.027580
  C 1.532808 -0.152586 3.839527
  H 2.429289 -0.185053 4.418087
  C 3.358666 0.149068 -1.507037
  C 2.474697 0.217734 -2.723176
  C 0.968181 0.206812 -2.525859
  H 0.481224 0.261714 -3.495862
  C 4.799447 0.165627 -1.801368
  C 5.365356 0.233212 -3.000560
  H 6.437095 0.238857 -3.096605
  H 0.881477 -0.028890 1.647558
  H 0.196339 -0.865498 0.156878
  H 0.195973 0.969273 0.260020
  H 3.786425 0.894878 1.594623
  H 3.786486 -0.940376 1.491293
  H 1.024037 -1.069297 3.630317
  H 1.023752 0.781622 3.734683
  H 2.747225 -0.626090 -3.364903
  H 2.747437 1.128326 -3.265861
  H 0.647325 1.059180 -1.938297
  H 0.647053 -0.706231 -2.038117
  H 5.430710 0.116266 -0.924116
  H 4.810830 0.284809 -3.919848
 25
 101.290975
  C 1.395145 -0.010314 1.367670
  C 3.541052 0.077665 -0.306552
  C 3.779976 0.005176 0.996599
  C 0.393950 -0.118574 2.874854
  H 1.095349 -0.168310 3.694411
  C 3.616196 0.148654 -1.629123
  C 2.447113 0.191557 -2.606826
  C 1.121801 0.171682 -1.893436
  H 0.314769 0.180670 -2.631014
  C 4.988226 0.191905 -2.194420
  C 5.327968 0.271286 -3.478747
  H 6.363278 0.326619 -3.772817
  H 2.202826 -0.034336 2.041632
  H 0.863621 -0.888607 1.064433
  H 0.930229 0.931303 1.129381
  H 3.730666 0.897632 1.611366
  H 3.713701 -0.944067 1.512676
  H -0.206119 -0.990571 2.744991
  H -0.161851 0.798440 2.807293
  H 2.529319 -0.678901 -3.265289
  H 2.536916 1.109144 -3.197216
  H 1.027362 1.039791 -1.252752
  H 1.037589 -0.723451 -1.290090
  H 5.770180 0.156675 -1.433695
  H 4.607662 0.303516 -4.287166
