 22
 0.000000
  C 1.009446 0.113804 0.337888
  C 2.479516 0.128168 0.363704
  C 3.234194 0.600502 1.542240
  C 2.429142 1.079351 2.741215
  H 3.110092 1.395723 3.528659
  C 3.138531 -0.328042 -0.775495
  C 4.529501 -0.395689 -0.946172
  C 5.162404 -0.852975 -2.078879
  C 4.547601 -1.353026 -3.305507
  H 3.462936 -1.352642 -3.295879
  H 6.246098 -0.848546 -2.076300
  H 0.560299 0.468406 1.257372
  H 0.652683 -0.897503 0.132960
  H 0.644876 0.722599 -0.491919
  H 3.898337 1.410328 1.218914
  H 3.900630 -0.207107 1.866130
  H 1.802235 0.286932 3.142515
  H 1.799519 1.927861 2.485193
  H 2.513155 -0.657471 -1.593521
  H 5.156623 -0.063530 -0.131257
  H 4.913841 -2.362948 -3.502266
  H 4.908894 -0.764220 -4.151427
 22
 0.203291
  C 1.012508 0.220814 0.298905
  C 2.479623 0.152802 0.353284
  C 3.231038 0.519470 1.569334
  C 2.423997 0.993071 2.772310
  H 3.099411 1.212191 3.594966
  C 3.138404 -0.299144 -0.788300
  C 4.522271 -0.269102 -1.003722
  C 5.153077 -0.738830 -2.131054
  C 4.555364 -1.458568 -3.251703
  H 3.489292 -1.627000 -3.156162
  H 6.220760 -0.576818 -2.202626
  H 0.576242 0.722713 1.157233
  H 0.599054 -0.795701 0.241529
  H 0.696196 0.719943 -0.619268
  H 3.960400 1.295093 1.303535
  H 3.836290 -0.346540 1.866764
  H 1.727608 0.230322 3.110099
  H 1.870728 1.901388 2.548599
  H 2.513233 -0.667512 -1.589179
  H 5.144469 0.198556 -0.252446
  H 5.067057 -2.416519 -3.371343
  H 4.763547 -0.919121 -4.178792
 22
 1.448251
  C 1.016662 0.291645 0.280289
  C 2.474326 0.116129 0.370406
  C 3.219719 0.386730 1.614281
  C 2.440566 0.970093 2.783232
  H 3.109588 1.106014 3.629558
  C 3.133340 -0.338908 -0.770336
  C 4.490358 -0.163020 -1.059388
  C 5.121716 -0.617791 -2.192283
  C 4.589819 -1.545257 -3.188179
  H 3.581614 -1.885039 -2.982311
  H 6.133851 -0.276210 -2.367376
  H 0.603927 0.824886 1.128804
  H 0.526267 -0.681715 0.210943
  H 0.770317 0.819508 -0.641338
  H 4.068222 1.040941 1.382468
  H 3.681693 -0.556308 1.931395
  H 1.639126 0.308387 3.100245
  H 2.019200 1.941225 2.532583
  H 2.513392 -0.791541 -1.535257
  H 5.072554 0.455453 -0.390125
  H 5.256243 -2.408854 -3.257508
  H 4.632931 -1.083063 -4.177750
 22
 3.796864
  C 1.029735 0.386330 0.248314
  C 2.464823 0.090176 0.378348
  C 3.205889 0.301658 1.634884
  C 2.459477 0.953996 2.786907
  H 3.119556 1.028009 3.646809
  C 3.125091 -0.399579 -0.751102
  C 4.430435 -0.074772 -1.125569
  C 5.068972 -0.519605 -2.257270
  C 4.632743 -1.596043 -3.146990
  H 3.697727 -2.059195 -2.850393
  H 6.004362 -0.043364 -2.521097
  H 0.647164 0.956453 1.085846
  H 0.450834 -0.536702 0.162307
  H 0.868234 0.936381 -0.677798
  H 4.118425 0.867119 1.416718
  H 3.573110 -0.679807 1.958813
  H 1.594623 0.368621 3.086018
  H 2.134638 1.958485 2.528201
  H 2.528493 -0.973310 -1.449613
  H 4.942632 0.674499 -0.537047
  H 5.414559 -2.357847 -3.189549
  H 4.553602 -1.218656 -4.168981
 22
 7.413203
  C 1.060065 0.466466 0.219860
  C 2.460282 0.057424 0.395827
  C 3.192386 0.225953 1.661461
  C 2.478788 0.949173 2.793045
  H 3.124273 0.975806 3.666376
  C 3.124165 -0.471112 -0.718644
  C 4.353726 -0.017624 -1.180910
  C 5.000969 -0.453837 -2.311652
  C 4.668506 -1.634739 -3.112810
  H 3.813801 -2.188427 -2.739524
  H 5.847799 0.124501 -2.655590
  H 0.703596 1.076098 1.041490
  H 0.403566 -0.400099 0.121318
  H 0.988586 1.018423 -0.719726
  H 4.154332 0.709886 1.449566
  H 3.474262 -0.779902 1.998824
  H 1.562096 0.440606 3.076483
  H 2.245271 1.974033 2.520638
  H 2.574445 -1.179302 -1.326594
  H 4.787029 0.829674 -0.662979
  H 5.536116 -2.295976 -3.146724
  H 4.494472 -1.339491 -4.149426
 22
 12.219734
  C 1.116229 0.558967 0.186390
  C 2.473628 0.054313 0.413829
  C 3.179243 0.174486 1.697348
  C 2.479163 0.932772 2.814876
  H 3.100921 0.915743 3.705822
  C 3.146094 -0.521249 -0.685561
  C 4.283538 0.032162 -1.252658
  C 4.932258 -0.416475 -2.377436
  C 4.679047 -1.669534 -3.095668
  H 3.889355 -2.269239 -2.656306
  H 5.707109 0.214457 -2.789904
  H 0.778503 1.208203 0.985716
  H 0.399269 -0.259260 0.082606
  H 1.118956 1.088112 -0.767071
  H 4.174364 0.599366 1.510115
  H 3.394394 -0.848410 2.032559
  H 1.525840 0.478064 3.068432
  H 2.315137 1.972649 2.543919
  H 2.660545 -1.353685 -1.180772
  H 4.643050 0.954169 -0.813932
  H 5.598345 -2.257183 -3.123954
  H 4.440532 -1.454485 -4.138806
 22
 17.912897
  C 1.197189 0.682174 0.156263
  C 2.500185 0.084498 0.427841
  C 3.164081 0.133775 1.732770
  C 2.468113 0.902736 2.845768
  H 3.058801 0.833753 3.755679
  C 3.176813 -0.529820 -0.667633
  C 4.219348 0.077739 -1.338540
  C 4.866143 -0.408661 -2.452000
  C 4.664366 -1.717409 -3.084101
  H 3.919229 -2.327755 -2.585206
  H 5.590908 0.236872 -2.926740
  H 0.879823 1.362602 0.936551
  H 0.430056 -0.090976 0.048717
  H 1.253158 1.183672 -0.809922
  H 4.187337 0.507982 1.585831
  H 3.318982 -0.907166 2.047374
  H 1.484006 0.492862 3.056996
  H 2.367180 1.955541 2.595364
  H 2.765546 -1.461379 -1.041030
  H 4.521831 1.055082 -0.982302
  H 5.611560 -2.258846 -3.102683
  H 4.383249 -1.581486 -4.129994
 22
 23.915537
  C 1.294372 0.893330 0.138841
  C 2.540652 0.199608 0.405842
  C 3.138608 0.106599 1.732518
  C 2.426566 0.811628 2.877609
  H 2.977618 0.649476 3.798900
  C 3.219110 -0.442398 -0.695351
  C 4.162738 0.169088 -1.488028
  C 4.815427 -0.410699 -2.558888
  C 4.653517 -1.788007 -3.051445
  H 3.930971 -2.366070 -2.484760
  H 5.522370 0.201255 -3.099720
  H 1.013130 1.583418 0.929290
  H 0.496845 0.145330 0.055267
  H 1.321325 1.384217 -0.836188
  H 4.177513 0.453412 1.651254
  H 3.255176 -0.960399 1.969324
  H 1.421211 0.424374 3.018124
  H 2.372077 1.883608 2.711063
  H 2.923694 -1.462987 -0.904909
  H 4.416399 1.195523 -1.256910
  H 5.616750 -2.300552 -3.026796
  H 4.353350 -1.770208 -4.101012
 22
 16.826274
  C 1.436090 1.018025 0.104857
  C 2.618304 0.221872 0.415313
  C 3.120524 0.042949 1.783511
  C 2.366409 0.752966 2.897409
  H 2.843138 0.535178 3.851085
  C 3.298407 -0.433683 -0.654934
  C 4.086327 0.215384 -1.593018
  C 4.718547 -0.405386 -2.646141
  C 4.618910 -1.817257 -3.035584
  H 3.957293 -2.398743 -2.401846
  H 5.368402 0.202235 -3.260126
  H 1.181715 1.734603 0.878130
  H 0.601336 0.311104 0.019925
  H 1.492509 1.485666 -0.875819
  H 4.175437 0.343242 1.784205
  H 3.161440 -1.034655 1.999843
  H 1.334457 0.416335 2.955478
  H 2.379948 1.830431 2.761188
  H 3.177086 -1.509158 -0.722901
  H 4.252010 1.275515 -1.455614
  H 5.614303 -2.267543 -3.027977
  H 4.273260 -1.885033 -4.069576
 22
 10.046325
  C 1.575893 1.073425 0.087121
  C 2.680858 0.188844 0.453131
  C 3.077090 -0.042164 1.854612
  C 2.308041 0.723214 2.920399
  H 2.688737 0.453942 3.902026
  C 3.394674 -0.455022 -0.575411
  C 4.012598 0.210149 -1.634833
  C 4.610385 -0.410853 -2.702920
  C 4.588097 -1.841404 -3.023934
  H 4.023283 -2.440661 -2.318386
  H 5.154052 0.213112 -3.399548
  H 1.343646 1.816292 0.842639
  H 0.692036 0.435614 -0.025519
  H 1.716475 1.514878 -0.897799
  H 4.148643 0.170804 1.935067
  H 3.004785 -1.118241 2.061975
  H 1.248693 0.483216 2.894774
  H 2.430078 1.797240 2.804296
  H 3.453207 -1.535599 -0.541940
  H 4.087406 1.286463 -1.567591
  H 5.612201 -2.215572 -3.081290
  H 4.173327 -1.978754 -4.023751
 22
 4.572134
  C 1.747695 1.214859 0.078171
  C 2.774200 0.243470 0.459212
  C 3.033543 -0.098159 1.873233
  C 2.228131 0.662611 2.914644
  H 2.493210 0.308241 3.907255
  C 3.506003 -0.398493 -0.540910
  C 3.985417 0.224269 -1.701045
  C 4.522374 -0.440678 -2.773919
  C 4.517576 -1.886334 -3.007269
  H 4.033009 -2.456334 -2.222489
  H 4.975620 0.155162 -3.555138
  H 1.601686 1.998914 0.814465
  H 0.801350 0.667490 0.011391
  H 1.921108 1.604050 -0.921670
  H 4.104751 0.034228 2.060893
  H 2.864774 -1.174552 2.003151
  H 1.160778 0.512439 2.777698
  H 2.440340 1.728505 2.879939
  H 3.737662 -1.446209 -0.398510
  H 4.010360 1.304976 -1.714193
  H 5.544764 -2.234353 -3.135614
  H 4.026145 -2.094576 -3.959195
 22
 3.844216
  C 1.836204 1.170681 0.033761
  C 2.872645 0.240529 0.490455
  C 3.020026 -0.117791 1.916608
  C 2.136860 0.644508 2.890481
  H 2.305710 0.279698 3.899943
  C 3.688953 -0.358586 -0.461200
  C 4.022315 0.248723 -1.687730
  C 4.460106 -0.417502 -2.800885
  C 4.438416 -1.867020 -3.008733
  H 4.052570 -2.421679 -2.160143
  H 4.792985 0.171860 -3.644894
  H 1.714924 2.032279 0.683127
  H 0.882092 0.635157 0.046806
  H 2.010182 1.430752 -1.007371
  H 4.073004 0.005366 2.194334
  H 2.828267 -1.193255 2.016562
  H 1.083550 0.515066 2.656867
  H 2.368337 1.706916 2.881009
  H 4.096344 -1.338338 -0.250562
  H 4.051197 1.329428 -1.710432
  H 5.447783 -2.208281 -3.247867
  H 3.844413 -2.100122 -3.893423
