 31
 0.000000
  C 0.955507 0.145911 0.415914
  C 2.428568 0.140590 0.401501
  C 3.224876 0.605734 1.558077
  C 2.464707 1.098976 2.785722
  C 3.432568 1.538929 3.879827
  C 3.036386 -0.326362 -0.760761
  C 4.419626 -0.413108 -0.977562
  C 5.089766 -0.859569 -2.090704
  C 4.616704 -1.379537 -3.387480
  C 3.132839 -1.506809 -3.706077
  C 2.935500 -2.070483 -5.111886
  H 6.170576 -0.848499 -2.063039
  H 0.530380 0.517613 1.340802
  H 0.580519 -0.864843 0.249070
  H 0.579880 0.759671 -0.404025
  H 3.882470 1.413384 1.216953
  H 3.882930 -0.213002 1.870698
  H 1.828405 0.305144 3.181296
  H 1.828040 1.945527 2.522009
  H 4.068387 0.714137 4.193832
  H 2.882403 1.888478 4.749923
  H 4.068013 2.351859 3.535589
  H 2.373229 -0.642924 -1.548166
  H 5.042376 -0.082872 -0.155179
  H 5.083376 -2.365743 -3.508644
  H 5.083979 -0.750691 -4.156447
  H 2.650993 -0.529071 -3.660081
  H 2.650444 -2.181592 -2.997425
  H 3.382557 -1.420457 -5.860523
  H 1.874946 -2.159203 -5.334029
  H 3.382053 -3.057905 -5.203902
 31
 9.763712
  C 0.924981 0.174642 0.487216
  C 2.387970 0.169298 0.472816
  C 3.193024 0.627713 1.612823
  C 2.448318 1.124147 2.848509
  C 3.431727 1.559120 3.930444
  C 3.060097 -0.352003 -0.824838
  C 4.430516 -0.435497 -1.033676
  C 5.101128 -0.880594 -2.143405
  C 4.634223 -1.400761 -3.440465
  C 3.151416 -1.530062 -3.763889
  C 2.959858 -2.094050 -5.170268
  H 6.182569 -0.866529 -2.108381
  H 0.502162 0.546531 1.412606
  H 0.549899 -0.836111 0.318565
  H 0.549296 0.787199 -0.334000
  H 3.851790 1.431537 1.263674
  H 3.852211 -0.193878 1.916930
  H 1.813235 0.333181 3.251511
  H 1.812929 1.973832 2.592206
  H 4.067273 0.731159 4.236512
  H 2.894304 1.911349 4.807269
  H 4.066959 2.368833 3.578370
  H 2.394359 -0.666535 -1.607173
  H 5.051886 -0.104733 -0.210012
  H 5.103727 -2.386041 -3.560685
  H 5.104261 -0.771974 -4.208177
  H 2.668297 -0.552735 -3.719365
  H 2.667834 -2.205558 -3.056504
  H 3.408882 -1.443390 -5.917224
  H 1.900358 -2.184594 -5.396785
  H 3.408475 -3.080735 -5.260559
 31
 27.879097
  C 0.810660 0.195128 0.538189
  C 2.254256 0.202245 0.554779
  C 3.129773 0.631384 1.621966
  C 2.475523 1.147013 2.905473
  C 3.544649 1.552955 3.915327
  C 2.979123 -0.375469 -0.883304
  C 4.353470 -0.434051 -1.030556
  C 5.069396 -0.875188 -2.130410
  C 4.658476 -1.401153 -3.441507
  C 3.186819 -1.548066 -3.808515
  C 3.045195 -2.113797 -5.219259
  H 6.148170 -0.837670 -2.037308
  H 0.377659 0.566800 1.463010
  H 0.442663 -0.818596 0.353234
  H 0.442072 0.798418 -0.296965
  H 3.797305 1.411819 1.228129
  H 3.797713 -0.204319 1.877513
  H 1.848660 0.370393 3.346076
  H 1.848428 2.012429 2.686285
  H 4.176649 0.707197 4.176619
  H 3.081040 1.919524 4.827816
  H 4.176418 2.344481 3.518678
  H 2.287163 -0.679778 -1.639885
  H 4.950297 -0.096349 -0.189871
  H 5.147963 -2.378556 -3.550200
  H 5.148300 -0.770110 -4.195492
  H 2.696121 -0.574041 -3.773928
  H 2.695757 -2.228116 -3.110553
  H 3.511155 -1.457392 -5.951065
  H 1.995303 -2.218812 -5.481758
  H 3.510791 -3.094099 -5.294683
 31
 48.947246
  C 0.766988 0.215389 0.588129
  C 2.213522 0.225667 0.612682
  C 3.114863 0.648633 1.664915
  C 2.475588 1.166606 2.954590
  C 3.554474 1.568262 3.954102
  C 2.999431 -0.406877 -0.962163
  C 4.358150 -0.455924 -1.085914
  C 5.079505 -0.888796 -2.164975
  C 4.680134 -1.415796 -3.478055
  C 3.208753 -1.562908 -3.845168
  C 3.066140 -2.128517 -5.255212
  H 6.155113 -0.844264 -2.054669
  H 0.332174 0.586997 1.513061
  H 0.401001 -0.795627 0.397740
  H 0.400474 0.813165 -0.248948
  H 3.782081 1.421860 1.261777
  H 3.782394 -0.188444 1.908537
  H 1.849789 0.392219 3.400287
  H 1.849610 2.033992 2.740803
  H 4.185568 0.720104 4.209577
  H 3.100743 1.936480 4.870911
  H 4.185369 2.357587 3.551741
  H 2.292187 -0.706477 -1.706927
  H 4.943345 -0.117654 -0.244036
  H 5.171836 -2.392289 -3.585509
  H 5.172005 -0.784659 -4.230711
  H 2.718230 -0.589167 -3.810365
  H 2.717980 -2.242487 -3.147110
  H 3.532176 -1.472163 -5.986896
  H 2.016478 -2.233705 -5.517996
  H 3.531862 -3.108715 -5.330425
 31
 69.906135
  C 0.709755 0.256334 0.689520
  C 2.139631 0.264755 0.709602
  C 3.071682 0.670074 1.718444
  C 2.471314 1.195460 3.026874
  C 3.580704 1.585441 3.997675
  C 2.964608 -0.426234 -1.011231
  C 4.339291 -0.469908 -1.121858
  C 5.096334 -0.911472 -2.222348
  C 4.716115 -1.442747 -3.545363
  C 3.249037 -1.595961 -3.927183
  C 3.121535 -2.162480 -5.338878
  H 6.171572 -0.859207 -2.093076
  H 0.282477 0.629627 1.619108
  H 0.340887 -0.754869 0.496248
  H 0.340421 0.852588 -0.149538
  H 3.737942 1.433671 1.292793
  H 3.738120 -0.175798 1.938986
  H 1.848877 0.427324 3.488019
  H 1.848759 2.069129 2.828726
  H 4.209288 0.730491 4.236608
  H 3.155302 1.958275 4.926174
  H 4.209107 2.368264 3.578845
  H 2.232643 -0.715866 -1.731093
  H 4.919831 -0.127806 -0.270817
  H 5.213533 -2.416953 -3.647925
  H 5.213532 -0.810033 -4.293156
  H 2.754458 -0.623706 -3.897293
  H 2.754329 -2.277730 -3.233465
  H 3.592361 -1.504249 -6.066000
  H 2.074888 -2.272077 -5.612405
  H 3.592102 -3.140841 -5.409226
 31
 87.465575
  C 0.646699 0.270557 0.724023
  C 2.064569 0.283454 0.756110
  C 3.040234 0.667910 1.713553
  C 2.497967 1.203044 3.045834
  C 3.646374 1.576780 3.976754
  C 2.932326 -0.465654 -1.108658
  C 4.285818 -0.485911 -1.162196
  C 5.086567 -0.904384 -2.205691
  C 4.749264 -1.437497 -3.532686
  C 3.285902 -1.595360 -3.925035
  C 3.163844 -2.161934 -5.336887
  H 6.152251 -0.833166 -2.030250
  H 0.207016 0.642238 1.649327
  H 0.284603 -0.742461 0.520121
  H 0.284540 0.860989 -0.123994
  H 3.704562 1.416998 1.256810
  H 3.704178 -0.189245 1.901868
  H 1.880465 0.442086 3.525567
  H 1.880750 2.084566 2.865925
  H 4.270489 0.712793 4.194308
  H 3.258447 1.955390 4.919326
  H 4.270667 2.351153 3.536289
  H 2.153972 -0.736167 -1.780306
  H 4.828899 -0.134856 -0.289621
  H 5.252442 -2.408855 -3.627241
  H 5.251928 -0.801117 -4.272919
  H 2.790034 -0.623727 -3.895397
  H 2.790357 -2.277086 -3.231834
  H 3.637256 -1.502619 -6.061789
  H 2.118711 -2.273475 -5.614748
  H 3.637290 -3.139372 -5.405017
 31
 103.360451
  C 0.596906 0.302091 0.802531
  C 2.023048 0.313491 0.831178
  C 3.017048 0.695157 1.781714
  C 2.495271 1.235156 3.125724
  C 3.656961 1.602190 4.039959
  C 2.942365 -0.492094 -1.173912
  C 4.279597 -0.508282 -1.217671
  C 5.102197 -0.926875 -2.261775
  C 4.777150 -1.464206 -3.599352
  C 3.317017 -1.625816 -4.000846
  C 3.203502 -2.192516 -5.413203
  H 6.165342 -0.851048 -2.075098
  H 0.154313 0.674959 1.730603
  H 0.234764 -0.709444 0.597230
  H 0.234849 0.890507 -0.045523
  H 3.679068 1.438738 1.315795
  H 3.678620 -0.164487 1.959799
  H 1.880402 0.477819 3.613130
  H 1.880780 2.119466 2.953679
  H 4.278905 0.735012 4.249153
  H 3.283669 1.982909 4.987496
  H 4.279155 2.372899 3.591178
  H 2.150618 -0.757635 -1.832927
  H 4.809934 -0.156413 -0.343204
  H 5.283379 -2.435385 -3.690823
  H 5.282755 -0.825697 -4.337206
  H 2.819307 -0.655420 -3.973441
  H 2.819757 -2.308314 -3.310177
  H 3.679244 -1.532341 -6.135140
  H 2.160009 -2.306361 -5.696699
  H 3.679410 -3.168536 -5.478724
 31
 116.570468
  C 0.568199 0.331126 0.874673
  C 1.979830 0.339813 0.896682
  C 2.979864 0.711356 1.822316
  C 2.485156 1.254760 3.174834
  C 3.665216 1.613763 4.069245
  C 2.946005 -0.522612 -1.250637
  C 4.292967 -0.532941 -1.279960
  C 5.127534 -0.945502 -2.308846
  C 4.810262 -1.480541 -3.640199
  C 3.348897 -1.640059 -4.036287
  C 3.227220 -2.206728 -5.447940
  H 6.187087 -0.865459 -2.111704
  H 0.126516 0.703779 1.802463
  H 0.206588 -0.680251 0.667905
  H 0.206704 0.918622 0.025800
  H 3.638925 1.449056 1.343410
  H 3.638367 -0.153085 1.986928
  H 1.872907 0.500860 3.671417
  H 1.873405 2.142998 3.011769
  H 4.284851 0.742068 4.268203
  H 3.310301 1.997015 5.023040
  H 4.285213 2.380637 3.609939
  H 2.138008 -0.780751 -1.891136
  H 4.815675 -0.177626 -0.396989
  H 5.315237 -2.451401 -3.731068
  H 5.314612 -0.842050 -4.377586
  H 2.853345 -0.668256 -4.005857
  H 2.853792 -2.321296 -3.342239
  H 3.701016 -1.547315 -6.172300
  H 2.182231 -2.318598 -5.726385
  H 3.701151 -3.183850 -5.515428
 31
 126.935726
  C 0.516005 0.363811 0.956304
  C 1.937806 0.369257 0.970275
  C 2.954510 0.739358 1.892313
  C 2.484724 1.287804 3.257006
  C 3.680575 1.639311 4.132641
  C 2.952490 -0.550044 -1.318412
  C 4.280213 -0.555224 -1.335127
  C 5.140725 -0.966012 -2.359827
  C 4.839136 -1.506826 -3.705677
  C 3.381207 -1.671310 -4.114280
  C 3.270260 -2.238338 -5.526940
  H 6.198379 -0.879795 -2.147281
  H 0.069928 0.737255 1.886009
  H 0.154503 -0.647736 0.747213
  H 0.154611 0.949769 0.105635
  H 3.611861 1.472050 1.402426
  H 3.611204 -0.129118 2.045709
  H 1.875449 0.537648 3.762459
  H 1.876041 2.179489 3.102740
  H 4.297499 0.764007 4.322137
  H 3.342926 2.024838 5.091781
  H 4.297893 2.402084 3.663874
  H 2.132586 -0.801595 -1.942478
  H 4.788027 -0.197774 -0.446852
  H 5.347804 -2.477444 -3.792269
  H 5.347225 -0.865539 -4.439760
  H 2.883211 -0.700855 -4.086844
  H 2.883614 -2.353637 -3.423399
  H 3.747213 -1.577713 -6.247729
  H 2.227392 -2.353034 -5.812549
  H 3.747290 -3.213912 -5.591044
 31
 134.197081
  C 0.499371 0.396429 1.038125
  C 1.906942 0.394548 1.033657
  C 2.916048 0.759755 1.943264
  C 2.467477 1.310329 3.312978
  C 3.675439 1.656240 4.174300
  C 2.965483 -0.582252 -1.398101
  C 4.304273 -0.585149 -1.409235
  C 5.171146 -0.991396 -2.422662
  C 4.871866 -1.526067 -3.753420
  C 3.412210 -1.686894 -4.153490
  C 3.290685 -2.253423 -5.565080
  H 6.225673 -0.903978 -2.206714
  H 0.055049 0.769980 1.967967
  H 0.138527 -0.613005 0.828749
  H 0.138511 0.980485 0.188625
  H 3.569795 1.486625 1.444671
  H 3.569163 -0.110467 2.086470
  H 1.860318 0.562759 3.825075
  H 1.860819 2.204687 3.165132
  H 4.290510 0.777687 4.356588
  H 3.351225 2.043554 5.137645
  H 4.290839 2.416349 3.697877
  H 2.131611 -0.828667 -2.009482
  H 4.808001 -0.225794 -0.515888
  H 5.377888 -2.496086 -3.840216
  H 5.377561 -0.885422 -4.487160
  H 2.917117 -0.714921 -4.122003
  H 2.917275 -2.367448 -3.458714
  H 3.764850 -1.593949 -6.288968
  H 2.245912 -2.365131 -5.843665
  H 3.764682 -3.230450 -5.632226
 31
 139.079552
  C 0.453844 0.433827 1.132080
  C 1.878091 0.425426 1.111081
  C 2.895863 0.796291 2.034303
  C 2.459039 1.349404 3.410088
  C 3.673315 1.692195 4.262911
  C 2.985950 -0.608134 -1.461581
  C 4.306052 -0.611388 -1.473568
  C 5.187740 -1.019109 -2.490822
  C 4.896020 -1.558527 -3.833938
  C 3.439157 -1.724958 -4.248825
  C 3.332286 -2.292013 -5.662262
  H 6.244267 -0.929239 -2.268231
  H 0.008593 0.808203 2.063778
  H 0.090997 -0.576972 0.922285
  H 0.090853 1.018325 0.281249
  H 3.549982 1.522193 1.530750
  H 3.549519 -0.076517 2.173318
  H 1.853186 0.603338 3.926247
  H 1.853455 2.245304 3.266072
  H 4.287074 0.812131 4.440892
  H 3.357060 2.080484 5.228462
  H 4.287133 2.450430 3.782091
  H 2.150218 -0.851577 -2.065786
  H 4.803647 -0.251106 -0.577446
  H 5.406587 -2.528492 -3.917087
  H 5.406582 -0.915411 -4.564778
  H 2.940378 -0.754760 -4.221398
  H 2.940246 -2.407043 -3.558452
  H 3.810458 -1.630986 -6.381810
  H 2.290294 -2.407195 -5.950127
  H 3.809951 -3.267293 -5.725357
 31
 142.509937
  C 0.448122 0.467790 1.218011
  C 1.857091 0.451497 1.176678
  C 2.862764 0.819364 2.091475
  C 2.435288 1.371856 3.465669
  C 3.654287 1.712547 4.312040
  C 3.006777 -0.639994 -1.539558
  C 4.345495 -0.643418 -1.551678
  C 5.222550 -1.047718 -2.560432
  C 4.925324 -1.579268 -3.884899
  C 3.466468 -1.739943 -4.286970
  C 3.345918 -2.305884 -5.698639
  H 6.276171 -0.959360 -2.340613
  H 0.011367 0.842553 2.150368
  H 0.083377 -0.540533 1.011023
  H 0.082918 1.051995 0.370745
  H 3.514022 1.542232 1.584190
  H 3.513995 -0.053434 2.225684
  H 1.830333 0.626627 3.984182
  H 1.830041 2.268417 3.323889
  H 4.267447 0.831076 4.486813
  H 3.343742 2.101533 5.279298
  H 4.266986 2.469824 3.827635
  H 2.160627 -0.880738 -2.137479
  H 4.844028 -0.282807 -0.653861
  H 5.432454 -2.548742 -3.970418
  H 5.433027 -0.938140 -4.616740
  H 2.971513 -0.767963 -4.254277
  H 2.970797 -2.419707 -3.591955
  H 3.820284 -1.646429 -6.422195
  H 2.301323 -2.416918 -5.977291
  H 3.819185 -3.283070 -5.766033
 31
 144.884040
  C 0.406643 0.506191 1.314549
  C 1.835647 0.483980 1.257966
  C 2.849398 0.860025 2.192531
  C 2.422259 1.414015 3.570470
  C 3.641538 1.754983 4.416741
  C 3.036596 -0.663924 -1.598388
  C 4.355163 -0.669299 -1.615378
  C 5.240950 -1.076930 -2.632438
  C 4.946130 -1.614756 -3.972952
  C 3.489394 -1.780800 -4.389356
  C 3.383211 -2.347483 -5.803347
  H 6.298445 -0.987549 -2.409527
  H -0.028520 0.882422 2.250500
  H 0.038451 -0.503585 1.108572
  H 0.037703 1.091895 0.466937
  H 3.502273 1.584270 1.684701
  H 3.502586 -0.013967 2.327265
  H 1.817187 0.668682 4.089363
  H 1.816550 2.310643 3.428900
  H 4.254618 0.873633 4.591097
  H 3.331558 2.144046 5.384213
  H 4.253803 2.512053 3.931945
  H 2.193359 -0.903520 -2.193713
  H 4.850900 -0.308544 -0.716955
  H 5.458025 -2.584477 -4.056055
  H 5.458959 -0.971874 -4.703002
  H 2.990599 -0.810482 -4.360758
  H 2.989541 -2.462123 -3.698692
  H 3.861438 -1.686523 -6.522820
  H 2.341167 -2.461904 -6.091173
  H 3.859943 -3.323141 -5.866867
 31
 146.493803
  C 0.410062 0.540714 1.400170
  C 1.820639 0.511103 1.325333
  C 2.819251 0.883292 2.250754
  C 2.394495 1.435396 3.624098
  C 3.614125 1.775708 4.469015
  C 3.061173 -0.694339 -1.675522
  C 4.401926 -0.700338 -1.694545
  C 5.277815 -1.105155 -2.704250
  C 4.973565 -1.634140 -4.021647
  C 3.514148 -1.792893 -4.419427
  C 3.388852 -2.358802 -5.830400
  H 6.332041 -1.018217 -2.487533
  H -0.013385 0.917201 2.337034
  H 0.038874 -0.465918 1.197834
  H 0.038198 1.126905 0.557513
  H 3.469855 1.605265 1.742147
  H 3.470027 0.010263 2.383357
  H 1.789253 0.690241 4.142681
  H 1.788695 2.331782 3.482467
  H 4.226988 0.893808 4.642614
  H 3.305128 2.164846 5.436719
  H 4.226285 2.532622 3.983366
  H 2.207912 -0.932059 -2.266283
  H 4.901241 -0.339447 -0.796228
  H 5.480976 -2.603392 -4.108522
  H 5.481868 -0.994558 -4.754456
  H 3.020318 -0.820441 -4.384351
  H 3.019322 -2.470995 -3.722208
  H 3.861360 -1.700233 -6.555801
  H 2.343216 -2.468147 -6.105285
  H 3.859894 -3.336815 -5.899336
