 17
 0.000000
  C 0.996384 0.132972 0.381868
  C 2.475139 0.140018 0.399085
  C 3.241227 0.613797 1.578372
  H 2.683154 0.954049 2.425534
  C 3.096863 -0.322475 -0.752613
  C 4.472906 -0.413204 -0.978851
  C 5.132414 -0.867699 -2.111643
  H 4.763744 -1.241749 -3.043882
  O 6.457488 -0.870547 -2.119086
  H 0.547238 0.500715 1.297563
  H 0.632250 -0.881396 0.212641
  H 0.631990 0.748397 -0.441931
  H 3.897288 1.429656 1.253616
  H 3.897458 -0.199872 1.908184
  H 2.436796 -0.639606 -1.542199
  H 5.100515 -0.083792 -0.158214
  H 6.834017 -0.535875 -1.285013
 17
 0.000000
  C 1.029859 0.117814 0.344111
  C 2.538714 0.126464 0.365320
  C 3.301493 0.600985 1.546452
  H 2.741047 0.940696 2.392263
  C 3.126389 -0.322176 -0.751873
  C 4.436897 -0.410006 -0.970890
  C 5.065659 -0.849540 -2.066401
  H 4.709723 -1.225298 -3.002894
  O 6.327794 -0.837539 -2.036856
  H 0.578148 0.485122 1.258718
  H 0.667117 -0.896906 0.174008
  H 0.666859 0.732886 -0.480567
  H 3.957546 1.417479 1.223279
  H 3.957714 -0.212049 1.877849
  H 2.460757 -0.637688 -1.537427
  H 5.068378 -0.081618 -0.152816
  H 6.662778 -0.485236 -1.158848
 17
 0.000000
  C 1.061179 0.102543 0.306074
  C 2.603590 0.113268 0.332447
  C 3.362191 0.588719 1.515894
  H 2.798758 0.927745 2.359995
  C 3.159178 -0.321916 -0.751233
  C 4.403883 -0.407264 -0.964065
  C 5.002665 -0.832388 -2.023669
  H 4.659218 -1.209757 -2.964171
  O 6.201125 -0.807054 -1.960911
  H 0.606238 0.469298 1.219301
  H 0.700196 -0.912620 0.134870
  H 0.699940 0.717171 -0.519707
  H 4.018227 1.406014 1.194717
  H 4.018392 -0.223513 1.849290
  H 2.487610 -0.635678 -1.532424
  H 5.039953 -0.080103 -0.149060
  H 6.490559 -0.435541 -1.035035
 17
 0.000000
  C 1.090044 0.087168 0.267778
  C 2.669756 0.100475 0.300578
  C 3.423313 0.577039 1.486797
  H 2.856291 0.915235 2.328825
  C 3.195209 -0.321696 -0.750692
  C 4.374167 -0.404877 -0.958126
  C 4.943701 -0.816213 -1.983373
  H 4.612278 -1.195073 -2.927584
  O 6.078015 -0.779177 -1.891463
  H 0.631218 0.453252 1.179330
  H 0.731184 -0.928524 0.095255
  H 0.730931 0.701266 -0.559324
  H 4.079319 1.395299 1.168025
  H 4.079482 -0.234226 1.822599
  H 2.517380 -0.633584 -1.527214
  H 5.015559 -0.079156 -0.146722
  H 6.317013 -0.387143 -0.914453
 17
 0.000000
  C 1.115288 0.071765 0.229414
  C 2.737330 0.088247 0.270116
  C 3.484911 0.566118 1.459587
  H 2.913660 0.903325 2.299150
  C 3.234741 -0.321539 -0.750308
  C 4.348327 -0.402879 -0.953155
  C 4.889390 -0.801256 -1.946108
  H 4.569241 -1.181461 -2.893664
  O 5.959454 -0.754238 -1.829335
  H 0.651882 0.437050 1.138968
  H 0.758945 -0.944548 0.055343
  H 0.758695 0.685240 -0.599240
  H 4.140869 1.385517 1.143656
  H 4.141029 -0.244007 1.798233
  H 2.550275 -0.631409 -1.521800
  H 4.995926 -0.078861 -0.146009
  H 6.142346 -0.340144 -0.797353
 17
 0.000000
  C 1.135303 0.056345 0.191006
  C 2.806883 0.076732 0.241432
  C 3.547443 0.556120 1.434680
  H 2.971251 0.892160 2.271331
  C 3.278369 -0.321463 -0.750126
  C 4.327005 -0.401305 -0.949242
  C 4.840253 -0.787751 -1.912462
  H 4.530322 -1.169131 -2.862938
  O 5.846003 -0.732507 -1.775201
  H 0.666543 0.420681 1.098195
  H 0.781919 -0.960692 0.015135
  H 0.781672 0.669095 -0.639451
  H 4.203326 1.376856 1.122077
  H 4.203483 -0.252668 1.776656
  H 2.586767 -0.629127 -1.516122
  H 4.981940 -0.079333 -0.147209
  H 5.965805 -0.294323 -0.683189
 17
 0.000000
  C 1.149106 0.041110 0.153063
  C 2.877482 0.066172 0.215126
  C 3.610070 0.547260 1.412605
  H 3.028308 0.881966 2.245931
  C 3.325486 -0.321478 -0.750171
  C 4.310895 -0.400114 -0.946282
  C 4.797355 -0.775919 -1.882982
  H 4.496192 -1.158275 -2.835882
  O 5.739946 -0.714315 -1.729882
  H 0.674303 0.404361 1.057542
  H 0.799082 -0.976737 -0.024828
  H 0.798839 0.653049 -0.679417
  H 4.265844 1.369507 1.103768
  H 4.265998 -0.260015 1.758350
  H 2.626369 -0.626776 -1.510272
  H 4.974235 -0.080530 -0.150217
  H 5.789547 -0.250596 -0.574242
 17
 0.000000
  C 1.154703 0.026107 0.115698
  C 2.949400 0.056788 0.191748
  C 3.672978 0.539767 1.393936
  H 3.084973 0.872956 2.223480
  C 3.376453 -0.321594 -0.750467
  C 4.300715 -0.399347 -0.944377
  C 4.761381 -0.766052 -1.858400
  H 4.467177 -1.149163 -2.813169
  O 5.642245 -0.699917 -1.694014
  H 0.673120 0.388118 1.017085
  H 0.808479 -0.992644 -0.064444
  H 0.808240 0.637140 -0.719036
  H 4.328601 1.363716 1.089339
  H 4.328751 -0.265805 1.743924
  H 2.669350 -0.624329 -1.504180
  H 4.973731 -0.082572 -0.155334
  H 5.613353 -0.208834 -0.470189
 17
 0.000000
  C 1.150055 0.011480 0.079271
  C 3.022321 0.048875 0.172033
  C 3.735876 0.533922 1.379372
  H 3.140985 0.865411 2.204678
  C 3.431135 -0.321801 -0.750990
  C 4.297156 -0.399026 -0.943585
  C 4.733115 -0.758475 -1.839524
  H 4.443639 -1.142091 -2.795536
  O 5.554378 -0.689598 -1.668308
  H 0.660986 0.372097 0.977181
  H 0.808061 -1.008261 -0.103335
  H 0.807826 0.621522 -0.757932
  H 4.391292 1.359756 1.079471
  H 4.391439 -0.269764 1.734057
  H 2.715535 -0.621754 -1.497770
  H 4.981239 -0.085548 -0.162779
  H 5.437985 -0.169255 -0.371574
 17
 0.000000
  C 1.133250 -0.002574 0.044272
  C 3.095625 0.042754 0.156784
  C 3.798258 0.530012 1.369626
  H 3.195939 0.859634 2.190281
  C 3.489014 -0.322037 -0.751586
  C 4.300573 -0.399127 -0.943844
  C 4.712949 -0.753427 -1.826948
  H 4.425576 -1.137267 -2.783504
  O 5.477455 -0.683495 -1.653104
  H 0.636094 0.356506 0.938349
  H 0.795868 -1.023376 -0.140974
  H 0.795637 0.606406 -0.795574
  H 4.453406 1.357890 1.074817
  H 4.453549 -0.271629 1.729406
  H 2.764388 -0.618969 -1.490835
  H 4.997179 -0.089490 -0.172630
  H 5.264182 -0.132091 -0.278978
 17
 0.000000
  C 1.102180 -0.015871 0.011164
  C 3.168519 0.038771 0.146858
  C 3.859433 0.528352 1.365484
  H 3.249227 0.855954 2.181106
  C 3.549436 -0.322212 -0.752029
  C 4.311291 -0.399611 -0.945055
  C 4.701237 -0.751121 -1.821202
  H 4.413013 -1.134879 -2.777535
  O 5.412565 -0.681653 -1.648515
  H 0.596425 0.341539 0.901078
  H 0.769750 -1.037789 -0.176862
  H 0.769523 0.591992 -0.831465
  H 4.514243 1.358413 1.076112
  H 4.514383 -0.271106 1.730703
  H 2.815289 -0.615881 -1.483144
  H 5.021848 -0.094393 -0.184881
  H 5.093135 -0.097457 -0.192687
 17
 0.000000
  C 1.053406 -0.027794 -0.018519
  C 3.240202 0.037451 0.143564
  C 3.919200 0.529342 1.367944
  H 3.301063 0.854872 2.178406
  C 3.611548 -0.322245 -0.752118
  C 4.329798 -0.400653 -0.947657
  C 4.698135 -0.752196 -1.823882
  H 4.405257 -1.135472 -2.778994
  O 5.360923 -0.684634 -1.655941
  H 0.538992 0.327898 0.867110
  H 0.726015 -1.050824 -0.209315
  H 0.725792 0.578955 -0.863922
  H 4.573614 1.361610 1.084070
  H 4.573752 -0.267908 1.738663
  H 2.867127 -0.612302 -1.474230
  H 5.056030 -0.100590 -0.200353
  H 4.927531 -0.065468 -0.112984
 17
 0.000000
  C 1.030186 -0.032483 -0.030195
  C 3.263840 0.037289 0.143160
  C 3.937896 0.530123 1.369888
  H 3.316497 0.854790 2.178199
  C 3.633457 -0.322713 -0.753286
  C 4.339069 -0.401593 -0.949999
  C 4.700845 -0.754003 -1.828383
  H 4.405811 -1.137053 -2.782924
  O 5.348536 -0.687283 -1.662540
  H 0.512204 0.322489 0.853642
  H 0.704885 -1.055968 -0.222123
  H 0.704664 0.573810 -0.876731
  H 4.592132 1.363304 1.088286
  H 4.592268 -0.266214 1.742880
  H 2.885806 -0.611616 -1.472520
  H 5.070659 -0.103337 -0.207205
  H 4.873838 -0.055151 -0.087278
 17
 0.000000
  C 0.895795 -0.049676 -0.072984
  C 3.391131 0.043292 0.158102
  C 4.043973 0.540075 1.394665
  H 3.408735 0.860999 2.193655
  C 3.747697 -0.320330 -0.747362
  C 4.385510 -0.402606 -0.952536
  C 4.705602 -0.761570 -1.847238
  H 4.391314 -1.142504 -2.796463
  O 5.272893 -0.701542 -1.698058
  H 0.362661 0.302168 0.803055
  H 0.579475 -1.075070 -0.269667
  H 0.579261 0.554706 -0.924281
  H 4.697337 1.377150 1.122759
  H 4.697470 -0.252368 1.777354
  H 2.978256 -0.601175 -1.446510
  H 5.151008 -0.116398 -0.239815
  H 4.559660 -0.003129 0.042339
