13

H -2.5133815885828197 0.9815187895946395 -0.16989780185144945
C -1.9772470219422968 0.014610527927406688 0.016939852586922006
C -0.5967304094369243 0.31190948304803146 0.41209898938647327
O -0.38190792221255015 1.0997606037004604 1.2970369693788113
C 0.5609044389844987 -0.3396046517695361 -0.2567818030722746
C 1.8771119658160222 0.1037136128507224 0.29746545131940816
H -2.0151850810665897 -0.6234125319406427 -0.9059700361655869
H -2.5576051750674487 -0.5484510486512574 0.7800940039063801
H 0.4388466807776265 -1.4304562833200096 -0.11920619762326669
H 0.5170430277383646 -0.1332093661122819 -1.343321455227421
H 2.6417601155162003 0.016939727140420826 -0.501030224957713
H 2.182884196779758 -0.582284397443602 1.1408582538136554
H 1.8235067726961611 1.1289655349756453 0.7055832144209178
