19
 0
 C -3.26168899 -1.79261826 0.10502523
 C -1.74557349 -1.64206969 0.07690882
 C -1.15168113 -2.51306895 -1.02889391
 C -1.21582275 -0.21438217 -0.06761527
 C -2.14730567 0.94367361 -0.31909126
 O 0.00000000 0.00000000 0.00000000
 H -3.54296387 -2.83670963 0.28094909
 H -3.71532379 -1.48282033 -0.84270209
 H -3.70260358 -1.19450375 0.90934064
 H -1.36822566 -1.99948825 1.04403728
 H -1.47308308 -2.16972210 -2.01831532
 H -1.45827849 -3.55792745 -0.91155062
 H -0.05676095 -2.48417867 -1.00970094
 H -3.19975190 0.66702987 -0.29710612
 H -1.92595065 1.36981044 -1.30126680
 H -1.98403339 1.69798076 0.45615264
 O 2.70000000 0.00000000 0.00000000
 H 3.26165789 -0.45890637 -0.64258244
 H 3.31189510 0.25197749 0.70784698
