 20
 0.000000
  H 1.494358 0.173651 0.483608
  C 2.574438 0.153225 0.432159
  C 3.315487 0.623576 1.602241
  C 2.442629 1.089184 2.761075
  C 3.287963 1.562144 3.939440
  C 3.145839 -0.315054 -0.733216
  C 4.527088 -0.400188 -0.945258
  C 5.102265 -0.867503 -2.110702
  H 4.522888 -1.209286 -2.961857
  O 6.379805 -0.942113 -2.298090
  H 3.987787 1.439421 1.306031
  H 3.987698 -0.170467 1.952856
  H 1.797409 0.272949 3.091631
  H 1.797797 1.907585 2.435160
  H 3.920720 0.760478 4.313193
  H 2.648741 1.889925 4.755253
  H 3.921156 2.399394 3.655072
  H 2.490398 -0.635330 -1.531071
  H 5.191189 -0.082133 -0.151746
  H 6.900074 -0.631544 -1.526160
 20
 -0.384727
  H 1.529884 0.219120 0.467181
  C 2.610383 0.175769 0.436751
  C 3.323929 0.641163 1.625950
  C 2.423600 1.082072 2.773391
  C 3.239497 1.551011 3.973169
  C 3.193492 -0.306260 -0.715306
  C 4.575134 -0.396733 -0.931641
  C 5.097383 -0.876524 -2.118800
  H 4.440385 -1.214379 -2.914178
  O 6.349828 -0.967592 -2.412527
  H 3.986461 1.472317 1.348709
  H 4.007904 -0.141674 1.978712
  H 1.782874 0.252409 3.078014
  H 1.772853 1.893961 2.442361
  H 3.879720 0.753945 4.345100
  H 2.581659 1.855864 4.782557
  H 3.863944 2.401968 3.711798
  H 2.542844 -0.630860 -1.515314
  H 5.251915 -0.071590 -0.153740
  H 6.968635 -0.668299 -1.713236
 20
 -0.305028
  H 1.539216 0.272647 0.440950
  C 2.617491 0.187916 0.431311
  C 3.324760 0.628718 1.633959
  C 2.418267 1.092761 2.767785
  C 3.226471 1.524353 3.986643
  C 3.206589 -0.308911 -0.711436
  C 4.588161 -0.418440 -0.918541
  C 5.100219 -0.865043 -2.122404
  H 4.434183 -1.188021 -2.916546
  O 6.347564 -0.922300 -2.445388
  H 4.014657 1.442165 1.370289
  H 3.981005 -0.173856 1.994359
  H 1.742984 0.283903 3.053630
  H 1.803018 1.929234 2.430759
  H 3.835897 0.704741 4.360425
  H 2.563696 1.840102 4.788061
  H 3.880554 2.359131 3.745613
  H 2.558885 -0.615204 -1.521042
  H 5.267657 -0.117687 -0.133686
  H 6.975937 -0.632379 -1.750443
 20
 -0.106587
  H 1.549960 0.328680 0.416135
  C 2.623510 0.199071 0.424873
  C 3.326828 0.608943 1.640766
  C 2.419968 1.115556 2.755766
  C 3.220995 1.497496 3.995652
  C 3.213014 -0.309217 -0.712555
  C 4.593346 -0.451846 -0.907088
  C 5.101150 -0.853484 -2.128340
  H 4.430194 -1.138975 -2.932427
  O 6.344876 -0.880636 -2.468051
  H 4.059595 1.389526 1.391869
  H 3.937008 -0.223369 2.013911
  H 1.696222 0.343935 3.020601
  H 1.858090 1.987008 2.408613
  H 3.782659 0.648001 4.373215
  H 2.557291 1.835773 4.785194
  H 3.918681 2.303412 3.777069
  H 2.567619 -0.584825 -1.534133
  H 5.273861 -0.189885 -0.109708
  H 6.979107 -0.617241 -1.766773
 20
 0.201082
  H 1.563322 0.394902 0.390145
  C 2.628748 0.216218 0.415521
  C 3.329568 0.587998 1.645036
  C 2.428852 1.139230 2.744104
  C 3.223084 1.469165 4.003513
  C 3.216205 -0.304065 -0.717792
  C 4.594183 -0.488109 -0.898546
  C 5.097975 -0.837434 -2.138449
  H 4.421134 -1.084893 -2.951290
  O 6.338440 -0.842258 -2.490231
  H 4.106205 1.329732 1.412933
  H 3.888210 -0.276031 2.026894
  H 1.655735 0.407825 2.988756
  H 1.926163 2.041321 2.391046
  H 3.732772 0.587784 4.384701
  H 2.561096 1.835442 4.783569
  H 3.965422 2.238871 3.806321
  H 2.573949 -0.538724 -1.554963
  H 5.274423 -0.277964 -0.085138
  H 6.978440 -0.618243 -1.781429
 20
 0.606598
  H 1.573267 0.434199 0.379281
  C 2.633124 0.224440 0.411666
  C 3.335500 0.559963 1.650569
  C 2.449051 1.157112 2.738463
  C 3.240595 1.435544 4.011866
  C 3.212766 -0.301263 -0.723104
  C 4.585674 -0.522493 -0.900167
  C 5.084013 -0.804834 -2.160047
  H 4.400970 -0.977962 -2.986715
  O 6.321885 -0.788910 -2.523100
  H 4.153268 1.259688 1.433380
  H 3.841166 -0.333953 2.039276
  H 1.632159 0.470483 2.966230
  H 2.005265 2.087590 2.378871
  H 3.694636 0.524867 4.393895
  H 2.588782 1.834441 4.784620
  H 4.028290 2.163814 3.830404
  H 2.569093 -0.495124 -1.570332
  H 5.264997 -0.370480 -0.073846
  H 6.969273 -0.619717 -1.805655
 20
 0.759388
  H 1.571680 0.454791 0.397645
  C 2.627731 0.224074 0.414292
  C 3.344118 0.530341 1.653332
  C 2.492229 1.191252 2.731137
  C 3.278183 1.387499 4.021579
  C 3.193164 -0.281286 -0.737523
  C 4.561289 -0.527077 -0.920310
  C 5.058123 -0.758137 -2.190890
  H 4.375612 -0.877604 -3.027645
  O 6.297911 -0.748171 -2.550563
  H 4.214486 1.163159 1.437396
  H 3.780756 -0.396188 2.052759
  H 1.611440 0.578335 2.936016
  H 2.140512 2.162456 2.376467
  H 3.640543 0.437159 4.403791
  H 2.646721 1.835387 4.785714
  H 4.130524 2.044525 3.863695
  H 2.544366 -0.441350 -1.586869
  H 5.237324 -0.448976 -0.080137
  H 6.945491 -0.651432 -1.820513
 20
 0.670452
  H 1.579509 0.465772 0.388530
  C 2.635094 0.241477 0.402233
  C 3.364236 0.582985 1.626506
  C 2.499394 1.182570 2.733648
  C 3.288771 1.363656 4.020937
  C 3.192701 -0.285833 -0.745645
  C 4.560233 -0.532677 -0.930975
  C 5.058015 -0.779727 -2.195262
  H 4.378268 -0.876200 -3.039936
  O 6.302204 -0.809942 -2.535262
  H 4.184055 1.274227 1.390485
  H 3.871761 -0.309966 2.005735
  H 1.639604 0.534171 2.926333
  H 2.113452 2.151443 2.414001
  H 3.665940 0.406166 4.386208
  H 2.655954 1.791160 4.795786
  H 4.131343 2.032010 3.870128
  H 2.539315 -0.471351 -1.587667
  H 5.237624 -0.436643 -0.097982
  H 6.941310 -0.710838 -1.795836
 20
 0.698338
  H 1.607234 0.500256 0.346012
  C 2.659331 0.256343 0.368195
  C 3.377744 0.566441 1.605123
  C 2.510687 1.159857 2.708258
  C 3.303615 1.358930 3.995445
  C 3.215484 -0.283514 -0.770666
  C 4.583954 -0.540805 -0.956091
  C 5.072346 -0.809809 -2.220079
  H 4.382602 -0.949960 -3.047315
  O 6.308599 -0.817077 -2.586500
  H 4.211721 1.247182 1.393894
  H 3.865048 -0.346439 1.976992
  H 1.661350 0.501534 2.906497
  H 2.110343 2.122633 2.383583
  H 3.701391 0.413876 4.357528
  H 2.665435 1.771740 4.773052
  H 4.131461 2.046528 3.841922
  H 2.562918 -0.464540 -1.615439
  H 5.269546 -0.434320 -0.126390
  H 6.963502 -0.688847 -1.868466
 20
 0.949847
  H 1.619220 0.570964 0.323569
  C 2.662979 0.287189 0.356155
  C 3.377626 0.560240 1.603003
  C 2.504558 1.124508 2.718934
  C 3.312009 1.370587 3.989007
  C 3.213185 -0.267421 -0.778871
  C 4.574182 -0.564869 -0.948493
  C 5.068624 -0.821551 -2.213264
  H 4.383807 -0.957360 -3.045038
  O 6.307397 -0.827247 -2.570455
  H 4.197309 1.262900 1.404750
  H 3.879068 -0.351928 1.951706
  H 1.693886 0.427135 2.938977
  H 2.050640 2.063517 2.395122
  H 3.756790 0.447607 4.352899
  H 2.671607 1.765394 4.774535
  H 4.106524 2.090434 3.812706
  H 2.567828 -0.409479 -1.634922
  H 5.255742 -0.459329 -0.116642
  H 6.957655 -0.706273 -1.845571
 20
 1.129713
  H 1.624077 0.668200 0.319222
  C 2.653303 0.337929 0.366489
  C 3.372454 0.613347 1.613063
  C 2.486269 1.103101 2.753966
  C 3.300049 1.376854 4.014086
  C 3.189531 -0.253981 -0.756121
  C 4.541558 -0.590933 -0.908921
  C 5.046947 -0.832635 -2.172713
  H 4.372532 -0.946640 -3.016075
  O 6.289948 -0.836857 -2.512660
  H 4.138647 1.376841 1.416752
  H 3.937414 -0.269339 1.931695
  H 1.727826 0.349778 2.974432
  H 1.965749 2.015267 2.456729
  H 3.783053 0.470208 4.369836
  H 2.655609 1.745516 4.807941
  H 4.066448 2.127286 3.829591
  H 2.545898 -0.385097 -1.615894
  H 5.213541 -0.524382 -0.063839
  H 6.927930 -0.732006 -1.775614
