14

C -1.001199 -0.106597 2.575311
C -1.957017 -0.22273 1.391125
H -2.6760853603252635 0.5693638955351028 1.4118120451046872
C -1.207571 -0.214462 0.076771
O -0.010316 -0.003458 0.008761
H -1.773116453447395 -0.40865415092371404 -0.8105551793752068
H -1.545954 -0.159451 3.51458
H -0.45962 0.836666 2.54975
H -0.270986 -0.91298 2.563574
H -2.474512 -1.1861 1.46121
O 3.357098 0.175554 -0.052751
H 2.393012 0.00407 0.002553
H 3.872878 -0.558516 0.343001
H 3.588816 1.036519 0.355436
