9

C 0.981032 0.134942 0.388268
C 2.458709 0.139076 0.397619
H 3.0215189809830725 0.4785769835671614 1.2419435865558834
C 3.07285 -0.324759 -0.756985
H 4.127301585534507 -0.3923474965457953 -0.9256967331380462
H 0.536687 0.502943 1.30414
H 0.614694 -0.878814 0.219609
H 0.614144 0.749801 -0.434967
H 2.402903 -0.638834 -1.538514
