 13
 0.000000
  H 3.586660 -0.601044 -0.991890
  C 4.661041 -0.610247 -1.009956
  C 5.372644 -1.120841 -2.012338
  C 6.814898 -1.131599 -2.033457
  C 7.534972 -1.641858 -3.035184
  C 9.024225 -1.659955 -3.070704
  H 5.164896 -0.176625 -0.158689
  H 4.867762 -1.555387 -2.865423
  H 7.320264 -0.697074 -1.180411
  H 7.037925 -2.078334 -3.892044
  H 9.454193 -1.206354 -2.180214
  H 9.384852 -1.114343 -3.943523
  H 9.384852 -2.686770 -3.142559
 13
 0.930451
  H 3.603774 -0.800091 -0.995192
  C 4.672377 -0.689996 -0.965010
  C 5.400671 -0.953620 -2.042000
  C 6.843840 -0.940541 -2.063358
  C 7.539715 -1.594381 -2.991349
  C 9.025887 -1.685355 -3.054135
  H 5.122796 -0.387504 -0.039929
  H 4.912608 -1.268171 -2.959741
  H 7.344884 -0.421421 -1.261514
  H 7.007158 -2.117446 -3.774795
  H 9.485076 -1.140123 -2.235398
  H 9.389810 -1.278283 -3.995841
  H 9.343110 -2.726347 -3.006985
 13
 2.599168
  H 3.612317 -0.907036 -0.965165
  C 4.686964 -0.849377 -0.966928
  C 5.383880 -0.867234 -2.094373
  C 6.839055 -0.844400 -2.143088
  C 7.528629 -1.590533 -2.998591
  C 9.011414 -1.731592 -3.033635
  H 5.167413 -0.762748 -0.005107
  H 4.874288 -0.954730 -3.047999
  H 7.347244 -0.236468 -1.407046
  H 6.987611 -2.204795 -3.709227
  H 9.485996 -1.068481 -2.314037
  H 9.391803 -1.503320 -4.027962
  H 9.292309 -2.759840 -2.803480
 13
 4.884234
  H 3.625301 -0.993862 -0.996819
  C 4.699680 -0.976689 -1.008846
  C 5.387814 -0.725659 -2.110647
  C 6.857607 -0.749608 -2.171344
  C 7.516078 -1.606223 -2.937899
  C 8.997176 -1.760397 -3.006116
  H 5.191353 -1.171821 -0.070055
  H 4.871769 -0.530687 -3.045351
  H 7.390097 -0.047621 -1.539486
  H 6.949111 -2.297059 -3.550930
  H 9.497742 -1.008389 -2.401648
  H 9.341195 -1.671769 -4.036634
  H 9.284656 -2.746360 -2.647725
 13
 5.919948
  H 3.644395 -1.048852 -1.058645
  C 4.719876 -1.080048 -1.098914
  C 5.405980 -0.573169 -2.106507
  C 6.875438 -0.645302 -2.204171
  C 7.493620 -1.607181 -2.869182
  C 8.970176 -1.783317 -2.985005
  H 5.214364 -1.562467 -0.269496
  H 4.894314 -0.098139 -2.935586
  H 7.438825 0.121664 -1.685032
  H 6.896751 -2.365555 -3.361661
  H 9.501382 -0.977328 -2.484921
  H 9.268493 -1.804728 -4.034061
  H 9.268199 -2.731336 -2.538486
 13
 4.962778
  H 3.667898 -1.104237 -1.113936
  C 4.734945 -1.200445 -1.214870
  C 5.433911 -0.468038 -2.062640
  C 6.890984 -0.589412 -2.219594
  C 7.470707 -1.645677 -2.769003
  C 8.944907 -1.821477 -2.944791
  H 5.212753 -1.937308 -0.584232
  H 4.946090 0.267291 -2.688516
  H 7.485968 0.244699 -1.864953
  H 6.852352 -2.466360 -3.114372
  H 9.488308 -0.960640 -2.571813
  H 9.186754 -1.960023 -3.996533
  H 9.281572 -2.707515 -2.411930
 13
 3.738952
  H 3.702089 -1.250145 -1.190883
  C 4.768860 -1.302173 -1.331161
  C 5.445132 -0.412528 -2.042398
  C 6.887871 -0.509489 -2.264075
  C 7.463364 -1.633503 -2.670924
  C 8.920774 -1.842041 -2.897905
  H 5.268837 -2.127142 -0.858673
  H 4.940178 0.423001 -2.504920
  H 7.479976 0.380316 -2.067981
  H 6.835324 -2.498063 -2.863973
  H 9.494603 -0.966475 -2.601539
  H 9.113881 -2.046632 -3.950964
  H 9.268055 -2.702623 -2.327493
 13
 4.799220
  H 3.769708 -1.437374 -1.291731
  C 4.833672 -1.378603 -1.413859
  C 5.445357 -0.373228 -2.023803
  C 6.867951 -0.438558 -2.335185
  C 7.438246 -1.603684 -2.621376
  C 8.888846 -1.857665 -2.832979
  H 5.390910 -2.205222 -1.014993
  H 4.896558 0.504495 -2.333988
  H 7.457549 0.467310 -2.263329
  H 6.798778 -2.465890 -2.781070
  H 9.481418 -0.988837 -2.576676
  H 9.086375 -2.121605 -3.870622
  H 9.210238 -2.702553 -2.209041
 13
 13.709250
  H 3.907387 -1.648569 -1.336195
  C 4.953003 -1.430788 -1.418814
  C 5.442232 -0.354803 -2.035387
  C 6.842234 -0.390692 -2.416004
  C 7.375229 -1.598567 -2.616902
  C 8.831319 -1.886520 -2.751580
  H 5.595877 -2.071077 -0.841824
  H 4.791120 0.437356 -2.386020
  H 7.463108 0.497681 -2.389674
  H 6.735429 -2.382052 -3.007730
  H 9.439740 -1.071997 -2.331483
  H 9.111639 -2.030532 -3.803319
  H 9.067606 -2.814105 -2.216344
 13
 27.466629
  H 4.147548 -1.898182 -1.405796
  C 5.141908 -1.519938 -1.473920
  C 5.448757 -0.330290 -2.026774
  C 6.800251 -0.308089 -2.492985
  C 7.286449 -1.553465 -2.726121
  C 8.736909 -1.917519 -2.650927
  H 5.853626 -2.054515 -0.884168
  H 4.718887 0.441962 -2.193992
  H 7.428796 0.577576 -2.567618
  H 6.666234 -2.301983 -3.198781
  H 9.316808 -1.126582 -2.168621
  H 9.166754 -2.105570 -3.656541
  H 8.846306 -2.829850 -2.077148
 13
 40.302850
  H 4.531736 -2.204723 -1.539430
  C 5.443355 -1.613041 -1.538218
  C 5.479081 -0.307220 -2.052633
  C 6.756196 -0.181882 -2.549808
  C 7.174377 -1.515251 -2.737798
  C 8.589531 -1.976140 -2.560670
  H 6.154417 -1.921278 -0.793435
  H 4.634352 0.355681 -2.143879
  H 7.382053 0.689421 -2.649437
  H 6.585718 -2.157349 -3.374046
  H 9.162009 -1.268398 -1.965898
  H 9.073900 -2.094922 -3.531178
  H 8.612932 -2.947901 -2.068104
 13
 30.969848
  H 4.863742 -2.389965 -1.647671
  C 5.713681 -1.688175 -1.631963
  C 5.507798 -0.297718 -2.024378
  C 6.723165 -0.106785 -2.575882
  C 7.070427 -1.514325 -2.771639
  C 8.464389 -2.013009 -2.523412
  H 6.348682 -1.840165 -0.774992
  H 4.603556 0.258966 -2.074555
  H 7.363142 0.747540 -2.646347
  H 6.493017 -2.086481 -3.484035
  H 8.997621 -1.346012 -1.848103
  H 9.017552 -2.091647 -3.458923
  H 8.445770 -3.002975 -2.064012
 13
 15.310780
  H 5.062728 -2.510376 -1.756202
  C 5.834907 -1.735955 -1.663735
  C 5.511289 -0.310962 -1.966696
  C 6.659537 -0.071117 -2.621310
  C 7.028278 -1.515698 -2.734895
  C 8.427356 -2.052627 -2.492886
  H 6.410643 -1.856491 -0.744538
  H 4.565543 0.210919 -1.953388
  H 7.267248 0.805153 -2.721159
  H 6.551641 -2.028388 -3.578713
  H 8.964839 -1.433000 -1.781374
  H 8.980124 -2.067668 -3.425900
  H 8.392322 -3.072044 -2.109051
 13
 4.860069
  H 5.082002 -2.489879 -1.853828
  C 5.866666 -1.753292 -1.684344
  C 5.576953 -0.296044 -1.899171
  C 6.633924 -0.102681 -2.692787
  C 6.996377 -1.562615 -2.748880
  C 8.403219 -2.039010 -2.455812
  H 6.336904 -1.925406 -0.715553
  H 4.678506 0.265378 -1.717392
  H 7.203573 0.766085 -2.973486
  H 6.607911 -2.024118 -3.663303
  H 8.864387 -1.416746 -1.689919
  H 9.015837 -1.992510 -3.353957
  H 8.390197 -3.067414 -2.101414
 13
 -0.742709
  H 5.021648 -2.397454 -1.984537
  C 5.870206 -1.774485 -1.706907
  C 5.673593 -0.291111 -1.845683
  C 6.612684 -0.149126 -2.773529
  C 6.964456 -1.615198 -2.801386
  C 8.377876 -1.996213 -2.395585
  H 6.252218 -2.096442 -0.738838
  H 4.984815 0.379034 -1.362376
  H 7.014385 0.685263 -3.319610
  H 6.694202 -2.107351 -3.739514
  H 8.705743 -1.389348 -1.554733
  H 9.067387 -1.842322 -3.222975
  H 8.417244 -3.043502 -2.104173
