 20
 0.000000
  H 1.415131 0.148771 0.421954
  C 2.494126 0.142009 0.404626
  C 3.242321 0.612332 1.574198
  H 2.612116 0.940556 2.391299
  C 3.076841 -0.325751 -0.759641
  C 4.453832 -0.414654 -0.981572
  C 5.128898 -0.869446 -2.115767
  C 4.614112 -1.388310 -3.409401
  C 3.122901 -1.498393 -3.684884
  H 2.979034 -1.898589 -4.682624
  O 6.444377 -0.868522 -2.114074
  H 3.899473 1.435958 1.284696
  H 3.899997 -0.182113 1.935118
  H 2.404722 -0.639035 -1.539394
  H 5.088546 -0.087250 -0.166036
  H 5.072864 -2.375473 -3.539481
  H 5.073420 -0.765117 -4.185657
  H 2.642232 -0.524257 -3.643534
  H 2.641712 -2.173642 -2.981903
  H 6.840127 -0.536323 -1.285083
 20
 -0.267817
  H 1.469165 0.492164 0.344967
  C 2.526170 0.271459 0.349720
  C 3.245241 0.486659 1.609845
  H 2.558766 0.648319 2.434434
  C 3.078473 -0.175901 -0.832700
  C 4.447266 -0.398972 -1.002367
  C 5.131371 -0.837605 -2.138700
  C 4.611445 -1.401834 -3.410612
  C 3.116835 -1.583189 -3.633430
  H 2.972804 -2.111812 -4.569065
  O 6.443776 -0.804527 -2.140050
  H 3.877775 1.375046 1.525025
  H 3.912632 -0.341317 1.844113
  H 2.411229 -0.316295 -1.663977
  H 5.076525 -0.154337 -0.155181
  H 5.109050 -2.371208 -3.520842
  H 5.031211 -0.789807 -4.216962
  H 2.603172 -0.626533 -3.721051
  H 2.665118 -2.176926 -2.847600
  H 6.854988 -0.449145 -1.329175
 20
 -0.267020
  H 1.542250 0.696357 0.281955
  C 2.565154 0.348114 0.323109
  C 3.232825 0.460751 1.621281
  H 2.513161 0.372063 2.431893
  C 3.114091 -0.128775 -0.849210
  C 4.464819 -0.451710 -0.993052
  C 5.139750 -0.875517 -2.140245
  C 4.603497 -1.416797 -3.415361
  C 3.106401 -1.571524 -3.626560
  H 2.945299 -2.122083 -4.549990
  O 6.452335 -0.854115 -2.149372
  H 3.660682 1.464913 1.709403
  H 4.037562 -0.255705 1.756186
  H 2.465455 -0.188009 -1.705530
  H 5.095717 -0.267659 -0.131177
  H 5.082030 -2.396719 -3.531636
  H 5.030600 -0.810426 -4.221662
  H 2.614435 -0.609349 -3.736788
  H 2.644726 -2.134513 -2.820360
  H 6.872068 -0.526488 -1.330442
 20
 1.017096
  H 1.643585 0.943065 0.158531
  C 2.585540 0.423721 0.273610
  C 3.170033 0.479043 1.611978
  H 2.393857 0.302799 2.356350
  C 3.121726 -0.152315 -0.856226
  C 4.429704 -0.634775 -0.933110
  C 5.149544 -0.947647 -2.092258
  C 4.652755 -1.404882 -3.413849
  C 3.160660 -1.505853 -3.684551
  H 3.016482 -2.016487 -4.633917
  O 6.457440 -0.865844 -2.070361
  H 3.517915 1.499610 1.805374
  H 3.990439 -0.211137 1.768208
  H 2.522733 -0.125743 -1.750418
  H 5.015559 -0.597818 -0.020737
  H 5.100253 -2.399520 -3.542392
  H 5.135927 -0.788383 -4.179994
  H 2.702312 -0.524810 -3.775310
  H 2.652502 -2.082031 -2.916709
  H 6.853984 -0.665779 -1.201579
 20
 5.330424
  H 1.834439 1.188876 0.120674
  C 2.662061 0.501700 0.255857
  C 3.275609 0.543567 1.586539
  H 2.488641 0.527080 2.344550
  C 3.071063 -0.232785 -0.833046
  C 4.315936 -0.874024 -0.886858
  C 5.088280 -1.017095 -2.048784
  C 4.644417 -1.332742 -3.429487
  C 3.163911 -1.475367 -3.740809
  H 3.059206 -1.889783 -4.739925
  O 6.388858 -0.860491 -1.973162
  H 3.783093 1.502677 1.722736
  H 3.978516 -0.260490 1.777122
  H 2.473066 -0.172109 -1.726306
  H 4.842288 -1.007308 0.051889
  H 5.140162 -2.288387 -3.643654
  H 5.114998 -0.621138 -4.116055
  H 2.654871 -0.515290 -3.739492
  H 2.673471 -2.149889 -3.044521
  H 6.770667 -0.856855 -1.073540
 20
 10.944196
  H 2.002122 1.337343 0.063172
  C 2.741453 0.564225 0.227247
  C 3.405176 0.628142 1.532279
  H 2.640083 0.625767 2.311843
  C 3.050719 -0.231267 -0.841026
  C 4.174533 -1.070340 -0.864248
  C 5.013658 -1.101041 -1.985972
  C 4.644315 -1.280830 -3.408649
  C 3.181282 -1.455214 -3.785939
  H 3.123982 -1.741227 -4.827835
  O 6.297508 -0.919235 -1.811531
  H 3.919024 1.586530 1.641116
  H 4.106383 -0.175243 1.711490
  H 2.474908 -0.109471 -1.744418
  H 4.606890 -1.365629 0.082053
  H 5.190573 -2.193146 -3.690553
  H 5.105499 -0.489354 -4.002944
  H 2.622844 -0.531017 -3.679917
  H 2.707456 -2.235410 -3.194341
  H 6.654615 -1.161451 -0.936866
 20
 20.220924
  H 2.289721 1.579379 -0.019573
  C 2.876202 0.687004 0.152866
  C 3.461550 0.589650 1.496923
  H 2.674435 0.791393 2.225803
  C 3.029071 -0.183314 -0.885770
  C 4.035826 -1.184688 -0.873379
  C 4.949898 -1.067604 -1.936486
  C 4.673449 -1.265165 -3.375540
  C 3.234510 -1.468807 -3.818183
  H 3.227662 -1.763475 -4.863346
  O 6.205917 -0.818606 -1.659571
  H 4.201863 1.378643 1.642793
  H 3.911712 -0.371314 1.716549
  H 2.449819 -0.030513 -1.779883
  H 4.396110 -1.548715 0.080203
  H 5.243197 -2.176575 -3.597420
  H 5.158139 -0.480380 -3.964179
  H 2.651279 -0.555153 -3.740148
  H 2.750580 -2.251686 -3.240869
  H 6.595952 -1.214372 -0.855696
 20
 30.353888
  H 2.402042 1.620449 -0.062199
  C 2.940094 0.700123 0.117264
  C 3.574972 0.606820 1.443071
  H 2.785712 0.630367 2.194481
  C 3.028356 -0.186767 -0.903954
  C 3.937314 -1.295183 -0.875016
  C 4.897372 -1.054664 -1.887680
  C 4.677537 -1.191917 -3.340044
  C 3.274231 -1.496994 -3.831503
  H 3.322213 -1.791056 -4.873211
  O 6.109551 -0.703740 -1.546889
  H 4.189465 1.491907 1.636942
  H 4.173104 -0.284945 1.580751
  H 2.420467 -0.032127 -1.783586
  H 4.169956 -1.825609 0.035558
  H 5.328804 -2.039326 -3.582991
  H 5.105532 -0.338248 -3.874616
  H 2.621972 -0.628260 -3.772345
  H 2.827900 -2.314205 -3.266045
  H 6.567767 -1.197915 -0.837720
 20
 43.612963
  H 2.668038 1.636433 -0.253369
  C 3.119786 0.687163 0.001958
  C 3.693688 0.590739 1.350221
  H 2.893418 0.770827 2.071584
  C 3.077919 -0.300437 -0.939298
  C 3.856706 -1.519291 -0.845300
  C 4.749480 -0.952130 -1.788949
  C 4.585475 -1.004635 -3.264010
  C 3.286255 -1.575012 -3.813290
  H 3.376688 -1.681809 -4.890649
  O 5.911686 -0.479924 -1.373784
  H 4.411363 1.396182 1.517987
  H 4.154710 -0.368843 1.559680
  H 2.493468 -0.125927 -1.829950
  H 4.065489 -2.096997 0.034085
  H 5.411253 -1.666248 -3.560076
  H 4.805500 -0.030021 -3.706581
  H 2.433169 -0.929771 -3.627995
  H 3.079972 -2.550430 -3.385726
  H 6.482717 -1.069694 -0.848621
 20
 50.906703
  H 2.859815 1.668132 -0.314900
  C 3.236751 0.692713 -0.036599
  C 3.746046 0.553952 1.320680
  H 2.910380 0.717558 2.008819
  C 3.192085 -0.304053 -0.997258
  C 3.856480 -1.592071 -0.847688
  C 4.672938 -0.860429 -1.762733
  C 4.546100 -0.952179 -3.254197
  C 3.290248 -1.626336 -3.782934
  H 3.386935 -1.767024 -4.856311
  O 5.800909 -0.256912 -1.329060
  H 4.447678 1.358003 1.550694
  H 4.193642 -0.412362 1.522547
  H 2.492617 -0.163525 -1.811406
  H 4.020452 -2.251273 -0.022139
  H 5.418419 -1.546238 -3.548598
  H 4.678407 0.035038 -3.700238
  H 2.396891 -1.030284 -3.615699
  H 3.147650 -2.598809 -3.316557
  H 6.499526 -0.839046 -0.989945
 20
 56.824016
  H 3.127488 1.721514 -0.347496
  C 3.374408 0.709682 -0.046064
  C 3.796528 0.512495 1.320435
  H 2.913780 0.681150 1.949112
  C 3.211742 -0.303667 -1.009429
  C 3.857037 -1.606142 -0.875565
  C 4.592702 -0.754352 -1.779153
  C 4.505457 -0.889747 -3.276616
  C 3.327788 -1.722389 -3.765887
  H 3.422408 -1.892308 -4.833625
  O 5.690088 -0.068932 -1.319580
  H 4.492645 1.290472 1.635728
  H 4.190065 -0.477854 1.521918
  H 2.400311 -0.170004 -1.714969
  H 4.034693 -2.328196 -0.111639
  H 5.439072 -1.371440 -3.576721
  H 4.496197 0.101717 -3.734963
  H 2.379150 -1.219864 -3.596691
  H 3.301991 -2.685697 -3.261475
  H 6.493395 -0.597774 -1.204773
 20
 64.557451
  H 3.298810 1.685073 -0.370218
  C 3.474836 0.666777 -0.045329
  C 3.869095 0.472554 1.318177
  H 3.006889 0.798924 1.914944
  C 3.167361 -0.358313 -0.978128
  C 3.883648 -1.630821 -0.910395
  C 4.497961 -0.667699 -1.814112
  C 4.475566 -0.847995 -3.307980
  C 3.387322 -1.798208 -3.787616
  H 3.484624 -1.959522 -4.857806
  O 5.520740 0.157477 -1.347070
  H 4.661471 1.161388 1.620591
  H 4.106337 -0.557282 1.573239
  H 2.263186 -0.240280 -1.565525
  H 4.146966 -2.379614 -0.202205
  H 5.456377 -1.243715 -3.584439
  H 4.373856 0.127646 -3.790190
  H 2.395025 -1.393007 -3.599779
  H 3.468816 -2.758370 -3.283720
  H 6.385125 -0.275451 -1.272391
 20
 70.225502
  H 3.438994 1.653175 -0.430449
  C 3.589225 0.633479 -0.085526
  C 4.032687 0.443625 1.268629
  H 3.200347 0.823585 1.879755
  C 3.076088 -0.414247 -0.974014
  C 3.835237 -1.659698 -0.930724
  C 4.339429 -0.628978 -1.836594
  C 4.430892 -0.798267 -3.325882
  C 3.493878 -1.885517 -3.838858
  H 3.633360 -2.020995 -4.907128
  O 5.250464 0.342323 -1.290774
  H 4.864730 1.094662 1.531442
  H 4.224529 -0.588737 1.541053
  H 2.097496 -0.303987 -1.416873
  H 4.192816 -2.366781 -0.222301
  H 5.465206 -1.057794 -3.569282
  H 4.211794 0.154499 -3.812579
  H 2.455035 -1.618741 -3.664559
  H 3.695355 -2.831234 -3.341937
  H 6.145842 -0.018887 -1.158120
 20
 58.834168
  H 3.486833 1.634328 -0.530670
  C 3.746703 0.622649 -0.223177
  C 4.166849 0.473552 1.201899
  H 3.380622 0.893074 1.832631
  C 3.010708 -0.492105 -0.975546
  C 3.779949 -1.725773 -0.920579
  C 4.215953 -0.698997 -1.854964
  C 4.436527 -0.820838 -3.329187
  C 3.594588 -1.956034 -3.903214
  H 3.785218 -2.055158 -4.968390
  O 4.980122 0.388443 -1.156818
  H 5.057450 1.063859 1.399672
  H 4.309535 -0.561886 1.488958
  H 1.974194 -0.406343 -1.251216
  H 4.190976 -2.382875 -0.192148
  H 5.494119 -1.020680 -3.512964
  H 4.184960 0.121389 -3.820249
  H 2.534374 -1.762207 -3.763563
  H 3.839911 -2.898289 -3.420104
  H 5.845640 0.084027 -0.800829
 20
 55.829008
  H 3.445635 1.605741 -0.545569
  C 3.838199 0.626792 -0.265929
  C 4.151489 0.528406 1.203068
  H 3.448468 1.129054 1.771096
  C 3.041665 -0.513076 -0.928423
  C 3.801002 -1.747261 -0.918016
  C 4.229119 -0.748810 -1.862458
  C 4.422684 -0.806736 -3.338493
  C 3.614009 -1.961308 -3.930604
  H 3.760120 -1.998617 -5.003274
  O 4.995955 0.384594 -1.160467
  H 5.144626 0.916207 1.406013
  H 4.088933 -0.494377 1.559729
  H 1.988655 -0.434803 -1.128561
  H 4.164894 -2.518643 -0.283567
  H 5.483573 -0.949897 -3.558870
  H 4.106998 0.136693 -3.786206
  H 2.551906 -1.830903 -3.735273
  H 3.929580 -2.911007 -3.507880
  H 5.807724 0.088087 -0.686774
