10

H 3.5870690376019994 -0.597934208086676 -0.9857857977342935
C 4.65692 -0.606041 -1.001698
C 5.377655 -1.121228 -2.013093
C 6.816019 -1.130563 -2.031418
C 7.534354 -1.64239 -3.036228
H 8.603916726244332 -1.6562750552479613 -3.0634819881403788
H 5.16216 -0.171472 -0.148572
H 4.874069 -1.556291 -2.867196
H 7.323438 -0.696132 -1.178557
H 7.03562 -2.078651 -3.892667
