 10
 0.000000
  H 3.589922 -0.601399 -0.992588
  C 4.664047 -0.608508 -1.006541
  C 5.374578 -1.118833 -2.008392
  C 6.818003 -1.131203 -2.032674
  C 7.528807 -1.641318 -3.034122
  H 8.602930 -1.653873 -3.058767
  H 5.164717 -0.174485 -0.154487
  H 4.869392 -1.553380 -2.861481
  H 7.326381 -0.697254 -1.180759
  H 7.032444 -2.076725 -3.888886
 10
 1.736694
  H 3.636385 -0.546364 -0.884547
  C 4.703324 -0.611356 -1.012135
  C 5.314232 -1.145933 -2.061586
  C 6.758353 -1.148563 -2.066759
  C 7.539140 -1.635387 -3.022472
  H 8.611984 -1.602538 -2.957987
  H 5.346341 -0.217383 -0.238699
  H 4.781677 -1.574621 -2.903179
  H 7.153543 -0.687944 -1.162486
  H 7.126172 -2.086942 -3.908950
 10
 6.990871
  H 3.686355 -0.503828 -0.801070
  C 4.732451 -0.615563 -1.020399
  C 5.269983 -1.166066 -2.101100
  C 6.714576 -1.158802 -2.086885
  C 7.551346 -1.624878 -3.001864
  H 8.611489 -1.563840 -2.882016
  H 5.499671 -0.261940 -0.326151
  H 4.713525 -1.588568 -2.930539
  H 7.009505 -0.678844 -1.144605
  H 7.192405 -2.088741 -3.912471
 10
 15.505512
  H 3.726892 -0.470581 -0.735760
  C 4.750184 -0.618494 -1.026149
  C 5.235828 -1.179398 -2.127298
  C 6.681724 -1.165673 -2.100352
  C 7.558547 -1.615544 -2.983524
  H 8.618131 -1.534551 -2.824504
  H 5.622977 -0.304886 -0.410482
  H 4.667688 -1.593490 -2.940219
  H 6.895532 -0.672264 -1.131713
  H 7.241903 -2.086088 -3.907266
 10
 26.833789
  H 3.758189 -0.443657 -0.682899
  C 4.769096 -0.617460 -1.024116
  C 5.215692 -1.186124 -2.140507
  C 6.665020 -1.172272 -2.113313
  C 7.569765 -1.610550 -2.973722
  H 8.607674 -1.516819 -2.789690
  H 5.710474 -0.345422 -0.490060
  H 4.636455 -1.594281 -2.941771
  H 6.801471 -0.664457 -1.116387
  H 7.292028 -2.076804 -3.889034
 10
 39.609695
  H 3.781084 -0.431817 -0.659617
  C 4.771660 -0.616612 -1.022446
  C 5.202325 -1.187566 -2.143342
  C 6.653094 -1.175437 -2.119499
  C 7.571893 -1.605935 -2.964631
  H 8.623480 -1.501406 -2.759423
  H 5.786383 -0.366002 -0.530493
  H 4.615609 -1.596909 -2.946957
  H 6.738852 -0.649244 -1.086548
  H 7.311139 -2.081475 -3.898221
 10
 52.916435
  H 3.782768 -0.427977 -0.652116
  C 4.771854 -0.614701 -1.018729
  C 5.200524 -1.186032 -2.140269
  C 6.652230 -1.176783 -2.122217
  C 7.575605 -1.604743 -2.962424
  H 8.625706 -1.497102 -2.750843
  H 5.847528 -0.379079 -0.556127
  H 4.614464 -1.595324 -2.943774
  H 6.696058 -0.632707 -1.054066
  H 7.325042 -2.081429 -3.898174
 10
 65.132053
  H 3.772004 -0.431386 -0.657877
  C 4.765625 -0.613151 -1.015260
  C 5.203599 -1.182324 -2.133613
  C 6.655490 -1.179111 -2.125505
  C 7.578967 -1.606733 -2.964318
  H 8.629269 -1.497422 -2.752429
  H 5.898480 -0.380371 -0.559641
  H 4.620686 -1.592234 -2.938774
  H 6.675071 -0.612731 -1.015474
  H 7.331843 -2.083138 -3.901899
 10
 75.238122
  H 3.757383 -0.436028 -0.666497
  C 4.755418 -0.612772 -1.014327
  C 5.208952 -1.178003 -2.125754
  C 6.658335 -1.182715 -2.131105
  C 7.581814 -1.609898 -2.968383
  H 8.631987 -1.498600 -2.756089
  H 5.940855 -0.374245 -0.548529
  H 4.630185 -1.589164 -2.933664
  H 6.670344 -0.592522 -0.976291
  H 7.338130 -2.085860 -3.908003
 10
 85.925112
  H 3.728657 -0.446914 -0.685786
  C 4.733668 -0.615064 -1.017147
  C 5.217539 -1.171344 -2.117250
  C 6.663580 -1.192007 -2.139315
  C 7.583462 -1.621723 -2.976675
  H 8.633860 -1.499480 -2.771777
  H 5.988829 -0.354112 -0.512610
  H 4.647549 -1.584175 -2.931223
  H 6.682397 -0.561180 -0.915929
  H 7.340909 -2.092225 -3.920329
 10
 96.214500
  H 3.689791 -0.457354 -0.720175
  C 4.704429 -0.614975 -1.025434
  C 5.230606 -1.166783 -2.100868
  C 6.668181 -1.193967 -2.155765
  C 7.582599 -1.621652 -2.996567
  H 8.633760 -1.511506 -2.788928
  H 6.042084 -0.328760 -0.453401
  H 4.674409 -1.587274 -2.921985
  H 6.708686 -0.524886 -0.837446
  H 7.341461 -2.100882 -3.937697
 10
 105.247080
  H 3.643479 -0.476350 -0.761255
  C 4.669077 -0.618034 -1.034217
  C 5.243634 -1.157403 -2.085989
  C 6.673053 -1.212404 -2.168289
  C 7.581590 -1.645202 -3.008841
  H 8.632974 -1.509562 -2.817149
  H 6.102438 -0.286798 -0.373180
  H 4.704773 -1.581682 -2.918175
  H 6.751836 -0.478110 -0.741991
  H 7.342806 -2.108521 -3.959814
 10
 112.433348
  H 3.593307 -0.503529 -0.812423
  C 4.631063 -0.622861 -1.044936
  C 5.260326 -1.147080 -2.061226
  C 6.672642 -1.208462 -2.196883
  C 7.577258 -1.635439 -3.039854
  H 8.628797 -1.537094 -2.826820
  H 6.171081 -0.236238 -0.271284
  H 4.744002 -1.581271 -2.905935
  H 6.812561 -0.419883 -0.633861
  H 7.347832 -2.123184 -3.982690
 10
 117.850110
  H 3.551691 -0.534577 -0.863221
  C 4.599372 -0.631403 -1.054081
  C 5.276565 -1.136293 -2.038635
  C 6.671175 -1.217491 -2.215676
  C 7.574835 -1.643121 -3.056193
  H 8.626253 -1.549269 -2.835213
  H 6.247611 -0.175391 -0.153287
  H 4.783118 -1.575187 -2.896946
  H 6.887725 -0.357014 -0.512267
  H 7.356686 -2.133286 -4.001292
