 22
 0.000000
  C 0.976219 0.208139 0.569885
  C 2.414288 0.119574 0.348091
  H 3.079040 0.438919 1.141534
  C 2.964018 -0.351298 -0.823871
  C 4.356654 -0.422702 -1.002889
  C 5.046310 -0.866209 -2.107800
  C 4.612751 -1.385842 -3.402386
  C 3.144890 -1.531991 -3.767823
  C 2.997616 -2.097487 -5.178379
  H 6.127652 -0.832485 -2.024487
  H 0.729420 0.602068 1.549603
  H 0.513222 -0.773806 0.441700
  H 0.512528 0.827540 -0.202386
  H 2.306379 -0.669515 -1.615282
  H 4.958211 -0.086722 -0.166745
  H 5.110859 -2.359693 -3.523988
  H 5.111155 -0.766500 -4.163390
  H 2.650441 -0.559648 -3.733554
  H 2.649747 -2.210893 -3.071289
  H 3.459801 -1.442694 -5.913620
  H 1.946913 -2.200482 -5.436762
  H 3.458901 -3.079239 -5.257530
 22
 0.148548
  C 0.977099 0.208677 0.545709
  C 2.411019 0.015258 0.361858
  H 3.053990 0.062451 1.231237
  C 2.975766 -0.250730 -0.862981
  C 4.364106 -0.402898 -1.019354
  C 5.058912 -0.783393 -2.144905
  C 4.622024 -1.323613 -3.429745
  C 3.150335 -1.502293 -3.764432
  C 2.984671 -2.186503 -5.118826
  H 6.137889 -0.715157 -2.064749
  H 0.714435 0.429012 1.574415
  H 0.430843 -0.678734 0.213714
  H 0.615905 1.004531 -0.110582
  H 2.335887 -0.302919 -1.728603
  H 4.962493 -0.176451 -0.144479
  H 5.131274 -2.294745 -3.536369
  H 5.108101 -0.723149 -4.212982
  H 2.656223 -0.530360 -3.808588
  H 2.663216 -2.113012 -3.002127
  H 3.441755 -1.599810 -5.912350
  H 1.930658 -2.305738 -5.355961
  H 3.440609 -3.173915 -5.118124
 22
 1.386317
  C 0.970121 0.166640 0.461765
  C 2.389609 -0.140790 0.314422
  H 2.950771 -0.419810 1.196979
  C 3.026627 -0.150775 -0.900058
  C 4.415278 -0.339492 -1.043365
  C 5.100413 -0.696485 -2.177633
  C 4.632733 -1.291411 -3.428501
  C 3.149289 -1.469196 -3.706590
  C 2.929614 -2.250225 -4.999001
  H 6.179197 -0.603786 -2.127692
  H 0.651566 0.166041 1.498444
  H 0.366815 -0.555013 -0.096167
  H 0.740924 1.128699 -0.001946
  H 2.467458 0.084344 -1.792651
  H 5.013737 -0.149913 -0.158988
  H 5.125756 -2.274827 -3.491578
  H 5.104310 -0.741151 -4.254847
  H 2.667708 -0.495687 -3.807683
  H 2.675168 -2.007238 -2.882998
  H 3.372263 -1.733895 -5.847714
  H 1.866883 -2.366350 -5.194973
  H 3.368459 -3.243442 -4.937250
 22
 4.025820
  C 0.964784 0.089491 0.338932
  C 2.370090 -0.290066 0.196988
  H 2.836966 -0.839273 1.004431
  C 3.089060 -0.064591 -0.942472
  C 4.489055 -0.245162 -1.074270
  C 5.163659 -0.639265 -2.193992
  C 4.647613 -1.292537 -3.399840
  C 3.150197 -1.426833 -3.613908
  C 2.845309 -2.268236 -4.849114
  H 6.243264 -0.553371 -2.179466
  H 0.586066 -0.106306 1.336383
  H 0.349923 -0.460229 -0.379185
  H 0.825274 1.140508 0.079806
  H 2.618896 0.424544 -1.786271
  H 5.084715 -0.023571 -0.195029
  H 5.106033 -2.293535 -3.422505
  H 5.106511 -0.801535 -4.269090
  H 2.699061 -0.442860 -3.744226
  H 2.690545 -1.897332 -2.740424
  H 3.272221 -1.818137 -5.742340
  H 1.771617 -2.350604 -4.995861
  H 3.247649 -3.273763 -4.749272
 22
 8.792580
  C 0.969100 0.097301 0.274331
  C 2.322835 -0.433076 0.075991
  H 2.664274 -1.211235 0.747063
  C 3.113776 -0.082766 -0.970334
  C 4.531204 -0.189116 -1.107492
  C 5.208696 -0.621256 -2.204102
  C 4.666935 -1.312906 -3.381505
  C 3.163119 -1.437218 -3.539426
  C 2.797883 -2.262624 -4.768422
  H 6.285859 -0.517174 -2.212817
  H 0.537882 -0.239090 1.211481
  H 0.313811 -0.227821 -0.538054
  H 0.971507 1.186900 0.232146
  H 2.738615 0.631196 -1.704345
  H 5.115704 0.112954 -0.245060
  H 5.124267 -2.313430 -3.397880
  H 5.094102 -0.837474 -4.275250
  H 2.710158 -0.450206 -3.632531
  H 2.738890 -1.916013 -2.650663
  H 3.186163 -1.803253 -5.674478
  H 1.718367 -2.338763 -4.867523
  H 3.200351 -3.270759 -4.699676
 22
 16.762200
  C 0.987393 0.232976 0.282922
  C 2.244430 -0.502102 0.032896
  H 2.410759 -1.403636 0.611589
  C 3.106122 -0.202743 -0.953244
  C 4.526710 -0.200098 -1.129707
  C 5.210148 -0.643459 -2.219474
  C 4.677470 -1.341521 -3.392278
  C 3.176549 -1.523612 -3.510102
  C 2.804162 -2.283530 -4.777447
  H 6.280724 -0.493744 -2.235524
  H 0.503172 -0.112804 1.192796
  H 0.293299 0.082557 -0.547885
  H 1.169913 1.304842 0.350590
  H 2.853138 0.671432 -1.592831
  H 5.102678 0.190089 -0.295432
  H 5.178678 -2.320608 -3.440965
  H 5.056627 -0.830268 -4.288555
  H 2.677923 -0.555554 -3.523587
  H 2.805791 -2.078792 -2.640806
  H 3.130967 -1.745739 -5.663600
  H 1.724372 -2.410823 -4.841386
  H 3.260128 -3.271121 -4.792353
 22
 27.465782
  C 0.995394 0.280083 0.143632
  C 2.205069 -0.565262 -0.028874
  H 2.208318 -1.508429 0.507931
  C 3.213397 -0.297133 -0.833237
  C 4.599271 -0.187913 -1.118732
  C 5.236414 -0.632252 -2.248505
  C 4.657344 -1.340206 -3.398225
  C 3.149027 -1.527025 -3.447501
  C 2.729238 -2.303181 -4.692211
  H 6.295616 -0.443559 -2.315562
  H 0.370583 -0.104766 0.942506
  H 0.407243 0.284246 -0.773850
  H 1.269575 1.308591 0.369288
  H 3.164344 0.692284 -1.420945
  H 5.210774 0.179356 -0.306718
  H 5.153841 -2.321712 -3.459623
  H 4.995934 -0.833994 -4.314446
  H 2.648343 -0.557311 -3.456164
  H 2.816630 -2.072875 -2.560695
  H 3.028837 -1.781394 -5.597556
  H 1.649866 -2.425408 -4.717692
  H 3.178685 -3.292770 -4.706355
 22
 37.852388
  C 0.982428 0.221556 0.034517
  C 2.204194 -0.634138 -0.007863
  H 2.148690 -1.566875 0.540822
  C 3.286724 -0.401745 -0.689692
  C 4.608994 -0.152770 -1.108557
  C 5.230713 -0.587563 -2.274610
  C 4.635458 -1.294992 -3.415436
  C 3.133191 -1.544305 -3.404775
  C 2.694786 -2.280300 -4.667435
  H 6.286270 -0.360140 -2.369866
  H 0.287979 -0.145192 0.780599
  H 0.484641 0.207833 -0.931782
  H 1.239441 1.252286 0.267675
  H 3.445371 0.688470 -1.288596
  H 5.258453 0.281579 -0.350735
  H 5.160805 -2.254599 -3.515728
  H 4.913933 -0.757816 -4.332389
  H 2.594989 -0.596498 -3.350903
  H 2.862997 -2.143608 -2.536337
  H 2.930640 -1.703381 -5.557481
  H 1.622580 -2.453039 -4.654307
  H 3.188917 -3.245576 -4.747371
 22
 41.694250
  C 0.978146 0.232501 -0.132098
  C 2.221479 -0.601482 -0.040717
  H 2.125400 -1.523790 0.528692
  C 3.365134 -0.375104 -0.580959
  C 4.650717 -0.104626 -1.085414
  C 5.248426 -0.646256 -2.254935
  C 4.601885 -1.365544 -3.359689
  C 3.084050 -1.508918 -3.340134
  C 2.598447 -2.262000 -4.574114
  H 6.310104 -0.490661 -2.358594
  H 0.219528 -0.139196 0.547624
  H 0.583927 0.191374 -1.145355
  H 1.190656 1.270780 0.109366
  H 3.872037 0.772645 -1.320467
  H 5.361108 0.267884 -0.348202
  H 5.053648 -2.365191 -3.416042
  H 4.911415 -0.888887 -4.300087
  H 2.613668 -0.523423 -3.327314
  H 2.772446 -2.056571 -2.450546
  H 2.872819 -1.736066 -5.485304
  H 1.516735 -2.363741 -4.557846
  H 3.029130 -3.259853 -4.615181
 22
 40.836395
  C 1.001961 0.228016 -0.147565
  C 2.231881 -0.627901 -0.024475
  H 2.101892 -1.534349 0.563415
  C 3.383687 -0.437258 -0.548974
  C 4.648036 -0.106247 -1.077965
  C 5.240747 -0.648924 -2.271656
  C 4.580938 -1.369076 -3.363575
  C 3.060681 -1.489199 -3.338632
  C 2.560570 -2.242787 -4.567375
  H 6.302502 -0.494229 -2.383264
  H 0.224864 -0.124343 0.520790
  H 0.627942 0.185626 -1.168525
  H 1.232608 1.262796 0.090814
  H 4.054771 0.802793 -1.416956
  H 5.370899 0.220720 -0.330219
  H 5.015514 -2.379106 -3.402689
  H 4.896954 -0.914556 -4.312187
  H 2.606737 -0.496900 -3.330522
  H 2.742496 -2.025408 -2.445449
  H 2.847786 -1.730512 -5.483223
  H 1.476372 -2.320737 -4.552005
  H 2.969354 -3.250300 -4.599006
 22
 39.001365
  C 1.002630 0.190217 -0.172644
  C 2.255503 -0.630894 -0.012431
  H 2.134660 -1.515321 0.610417
  C 3.405757 -0.427725 -0.530080
  C 4.644447 -0.056090 -1.093547
  C 5.223162 -0.646055 -2.290530
  C 4.549074 -1.384955 -3.355150
  C 3.026820 -1.479651 -3.324419
  C 2.512166 -2.241342 -4.541969
  H 6.283566 -0.490768 -2.418373
  H 0.232365 -0.156338 0.506320
  H 0.637213 0.098587 -1.193318
  H 1.209386 1.237993 0.026556
  H 4.257351 0.919288 -1.482866
  H 5.392649 0.199266 -0.339386
  H 4.967628 -2.403121 -3.365696
  H 4.871532 -0.965861 -4.318142
  H 2.591818 -0.479239 -3.327525
  H 2.701039 -1.997199 -2.423428
  H 2.808272 -1.747948 -5.465433
  H 1.426605 -2.298447 -4.525277
  H 2.901684 -3.256927 -4.558923
 22
 38.072025
  C 0.989596 0.148979 -0.276413
  C 2.268242 -0.608771 -0.020643
  H 2.158699 -1.441542 0.673109
  C 3.422139 -0.400219 -0.526254
  C 4.664578 -0.038514 -1.085091
  C 5.222650 -0.642272 -2.286629
  C 4.532322 -1.377427 -3.343183
  C 3.015840 -1.512806 -3.264561
  C 2.473748 -2.205355 -4.511645
  H 6.274966 -0.465836 -2.444697
  H 0.230939 -0.132857 0.446535
  H 0.626775 -0.085280 -1.275022
  H 1.164099 1.219043 -0.215229
  H 4.479319 1.006933 -1.403877
  H 5.425271 0.078273 -0.303976
  H 4.979301 -2.382211 -3.397042
  H 4.810242 -0.926721 -4.305860
  H 2.559503 -0.526498 -3.183462
  H 2.737341 -2.095907 -2.390331
  H 2.722124 -1.642783 -5.410980
  H 1.390166 -2.293224 -4.459145
  H 2.887467 -3.207532 -4.611447
 22
 37.771785
  C 0.984047 0.137948 -0.301686
  C 2.270073 -0.594324 -0.014693
  H 2.165129 -1.404781 0.704910
  C 3.421240 -0.394843 -0.530112
  C 4.668268 -0.039578 -1.082720
  C 5.223453 -0.637309 -2.290254
  C 4.531522 -1.374447 -3.344593
  C 3.015315 -1.522417 -3.253899
  C 2.465540 -2.193241 -4.509418
  H 6.277273 -0.463502 -2.450061
  H 0.247007 -0.079676 0.462308
  H 0.595774 -0.187025 -1.264636
  H 1.155605 1.209082 -0.342389
  H 4.529459 1.028341 -1.350902
  H 5.428580 0.026972 -0.293398
  H 4.988075 -2.374179 -3.412811
  H 4.796724 -0.911885 -4.306426
  H 2.552253 -0.540247 -3.147832
  H 2.749746 -2.126908 -2.387212
  H 2.695584 -1.608770 -5.397334
  H 1.385558 -2.295198 -4.445868
  H 2.889103 -3.186539 -4.636817
