 13
 0.000000
  C 1.008863 -0.070563 0.049534
  C 2.505018 -0.084058 0.023042
  C 3.216163 -0.596325 -0.982629
  C 4.658522 -0.609294 -1.008087
  C 5.372485 -1.120076 -2.010836
  H 6.445312 -1.126275 -2.023005
  H 0.648797 0.395638 0.964760
  H 0.612222 -1.084341 0.010163
  H 0.612222 0.493649 -0.793647
  H 3.008909 0.350263 0.875687
  H 2.703081 -1.028948 -1.831930
  H 5.164024 -0.174873 -0.155248
  H 4.871088 -1.554199 -2.863094
 13
 4.368561
  C 0.987135 -0.009601 0.052901
  C 2.479475 -0.083133 0.009955
  C 3.166067 -0.710641 -0.944180
  C 4.607376 -0.705022 -1.024566
  C 5.323084 -1.001268 -2.107923
  H 6.396053 -0.864651 -2.030311
  H 0.642655 0.393305 1.001305
  H 0.545125 -0.994191 -0.093205
  H 0.617860 0.637885 -0.743789
  H 3.012647 0.423368 0.803430
  H 2.638507 -1.214892 -1.744884
  H 5.116347 -0.303954 -0.155662
  H 5.076961 -1.661267 -2.920041
 13
 27.901173
  C 0.979405 0.010666 0.088647
  C 2.470323 -0.084341 0.020330
  C 3.115608 -0.740392 -0.950809
  C 4.579715 -0.772539 -1.071605
  C 5.238731 -1.015004 -2.204867
  H 6.270112 -0.801109 -1.932194
  H 0.673910 0.450383 1.019231
  H 0.509076 -0.964908 -0.018665
  H 0.599956 0.656426 -0.718382
  H 3.009305 0.420836 0.784303
  H 2.585851 -1.223160 -1.700212
  H 5.119200 -0.391512 -0.185390
  H 5.504155 -1.651211 -2.990535
 13
 45.845489
  C 0.985082 0.024814 0.128030
  C 2.472783 -0.067803 -0.001825
  C 3.097352 -0.731804 -0.973788
  C 4.542760 -0.750990 -1.118594
  C 5.206230 -1.079942 -2.234717
  H 6.267813 -0.867608 -1.810324
  H 0.701506 0.493175 1.068012
  H 0.530314 -0.963524 0.077625
  H 0.570056 0.616898 -0.687881
  H 3.057492 0.441183 0.752773
  H 2.516963 -1.231851 -1.739764
  H 5.062880 -0.464077 -0.214885
  H 5.765276 -1.537533 -3.013781
 13
 66.813615
  C 0.991699 0.027237 0.155581
  C 2.473682 -0.059044 -0.028229
  C 3.063720 -0.763392 -0.992084
  C 4.493055 -0.783715 -1.198934
  C 5.204660 -0.990800 -2.323646
  H 6.253764 -0.936987 -1.718896
  H 0.740821 0.547341 1.075880
  H 0.547178 -0.966567 0.184932
  H 0.537090 0.564059 -0.677801
  H 3.082400 0.480340 0.684542
  H 2.448270 -1.294285 -1.712124
  H 4.987739 -0.591009 -0.250984
  H 5.969161 -1.376856 -2.953835
 13
 85.590831
  C 0.978198 0.032603 0.156033
  C 2.460564 -0.026230 -0.033180
  C 3.059918 -0.762650 -0.964474
  C 4.483084 -0.815202 -1.197639
  C 5.124013 -0.909428 -2.371911
  H 6.329887 -1.125576 -1.754385
  H 0.720566 0.595703 1.048944
  H 0.562061 -0.970475 0.244704
  H 0.503731 0.509478 -0.701396
  H 3.061846 0.563572 0.647437
  H 2.452308 -1.343706 -1.651672
  H 5.004111 -0.679410 -0.250245
  H 6.000520 -1.120162 -2.939672
 13
 99.011342
  C 0.949899 0.020410 0.142771
  C 2.438098 -0.007955 -0.007156
  C 3.072255 -0.740840 -0.916299
  C 4.519670 -0.795691 -1.104759
  C 4.990413 -0.861610 -2.330670
  H 6.662318 -1.375637 -2.049600
  H 0.656494 0.599691 1.013464
  H 0.553500 -0.989078 0.245290
  H 0.487795 0.466068 -0.738405
  H 3.007748 0.600075 0.684394
  H 2.500306 -1.340892 -1.612691
  H 5.086360 -0.703728 -0.183010
  H 5.902213 -1.080091 -2.888373
 13
 104.410208
  C 0.911662 0.027968 0.146555
  C 2.402278 0.032317 0.012435
  C 3.056771 -0.698253 -0.883026
  C 4.521250 -0.730638 -1.036737
  C 4.904783 -0.800446 -2.283173
  H 6.885966 -1.579584 -2.529403
  H 0.597141 0.615928 1.004533
  H 0.537022 -0.988913 0.263583
  H 0.449825 0.446358 -0.745556
  H 2.951494 0.658262 0.703544
  H 2.510532 -1.319015 -1.580244
  H 5.101790 -0.635948 -0.125795
  H 5.980431 -1.250562 -2.717772
 13
 107.668445
  C 0.884885 0.004607 0.147414
  C 2.377165 0.053275 0.043584
  C 3.065010 -0.642849 -0.854410
  C 4.541173 -0.634239 -0.954886
  C 4.867182 -0.669653 -2.213693
  H 6.868912 -1.824750 -2.887116
  H 0.537467 0.580916 1.001290
  H 0.538291 -1.021153 0.255458
  H 0.428508 0.411412 -0.753798
  H 2.897043 0.673542 0.762140
  H 2.549293 -1.261904 -1.575785
  H 5.102157 -0.528239 -0.037355
  H 6.123055 -1.384985 -2.746104
 13
 110.391588
  C 0.886358 -0.027364 0.138921
  C 2.375338 0.089576 0.053668
  C 3.104217 -0.581486 -0.832738
  C 4.593477 -0.514624 -0.850758
  C 4.811442 -0.528681 -2.125238
  H 6.726672 -2.069226 -3.130522
  H 0.502089 0.548810 0.975530
  H 0.585797 -1.066660 0.265009
  H 0.424319 0.338574 -0.777566
  H 2.858691 0.729451 0.779650
  H 2.624899 -1.227610 -1.554264
  H 5.120220 -0.391156 0.078192
  H 6.129789 -1.568833 -2.882636
 13
 112.098432
  C 0.915261 -0.072701 0.112382
  C 2.393922 0.120389 0.009532
  C 3.161270 -0.576385 -0.829100
  C 4.675226 -0.471576 -0.707894
  C 4.702668 -0.340312 -1.984429
  H 6.514420 -2.094044 -3.336420
  H 0.496513 0.557597 0.891204
  H 0.673517 -1.110528 0.338106
  H 0.437299 0.175517 -0.834791
  H 2.843625 0.831296 0.689643
  H 2.713781 -1.301856 -1.493421
  H 5.170376 -0.436032 0.240176
  H 6.001136 -1.579879 -3.015248
 13
 111.676282
  C 0.943556 -0.080912 0.109677
  C 2.407776 0.129211 -0.094382
  C 3.150730 -0.639089 -0.905978
  C 4.821218 -0.521999 -0.570085
  C 4.475094 -0.317012 -1.755960
  H 6.394233 -1.915514 -3.337420
  H 0.548496 0.620561 0.838900
  H 0.734966 -1.094360 0.451722
  H 0.414451 0.061199 -0.833300
  H 2.876721 0.920416 0.474078
  H 2.674395 -1.449124 -1.450005
  H 5.369872 -0.565614 0.341373
  H 5.876535 -1.456713 -2.962518
 13
 84.862974
  C 0.851009 -0.156822 0.050076
  C 2.322358 0.075189 -0.117466
  C 3.060636 -0.599321 -0.990876
  C 5.288659 -0.363976 -0.552999
  C 4.404590 -0.269320 -1.396491
  H 6.154932 -1.960826 -3.185029
  H 0.459709 0.424033 0.875692
  H 0.643067 -1.216264 0.246993
  H 0.315817 0.091059 -0.857737
  H 2.765378 0.800737 0.522662
  H 2.556792 -1.270309 -1.691636
  H 6.149546 -0.370539 0.066772
  H 5.724620 -1.535823 -2.676153
 13
 50.380965
  C 0.779876 -0.219455 -0.039117
  C 2.263209 -0.058176 0.031750
  C 3.094243 -0.495924 -0.913338
  C 5.669204 -0.176267 -0.645102
  C 4.488656 -0.299570 -0.845761
  H 5.606089 -2.090090 -3.245143
  H 0.300330 0.159655 0.865908
  H 0.511465 -1.266960 -0.161745
  H 0.378582 0.322774 -0.892839
  H 2.664974 0.445908 0.900009
  H 2.718579 -1.016251 -1.785421
  H 6.706432 -0.011254 -0.620578
  H 5.480177 -1.623127 -2.628284
 13
 50.497774
  C 0.854248 -0.221486 -0.204098
  C 2.334097 -0.126094 -0.013569
  C 3.214943 -0.339435 -0.991385
  C 5.762103 -0.139805 -0.466574
  C 4.607718 -0.239497 -0.790878
  H 4.977929 -2.260938 -3.030504
  H 0.329593 -0.078060 0.736847
  H 0.580072 -1.195238 -0.610313
  H 0.509501 0.536286 -0.909187
  H 2.690278 0.133730 0.974102
  H 2.884352 -0.598861 -1.989338
  H 6.799406 -0.064682 -0.326049
  H 5.093271 -1.769422 -2.427200
