 22
 0.000000
  H 1.422466 0.160896 0.454557
  C 2.502686 0.143806 0.410468
  C 3.248829 0.613141 1.574469
  H 2.602761 0.938084 2.382666
  C 3.063337 -0.325967 -0.757741
  C 4.447002 -0.416686 -0.984711
  C 5.090105 -0.869735 -2.115140
  C 4.601669 -1.383200 -3.396613
  C 3.119102 -1.508970 -3.710998
  C 2.915857 -2.072150 -5.115979
  H 6.173851 -0.857820 -2.086302
  H 3.909431 1.436677 1.292452
  H 3.910787 -0.175041 1.941542
  H 2.389202 -0.639322 -1.537481
  H 5.089383 -0.092237 -0.176223
  H 5.074749 -2.367607 -3.529682
  H 5.075195 -0.763455 -4.172708
  H 2.637932 -0.530506 -3.661111
  H 2.637595 -2.181906 -2.999180
  H 3.360689 -1.423239 -5.866739
  H 1.855136 -2.160365 -5.336629
  H 3.360435 -3.060122 -5.210532
 22
 -0.016233
  H 1.447874 0.450646 0.352638
  C 2.516521 0.283881 0.342157
  C 3.233377 0.433324 1.607354
  H 2.568301 0.706632 2.419098
  C 3.081384 -0.076885 -0.860201
  C 4.460848 -0.272379 -1.049296
  C 5.100995 -0.721809 -2.182867
  C 4.607560 -1.294208 -3.432360
  C 3.124458 -1.465809 -3.712896
  C 2.908395 -2.192273 -5.037740
  H 6.183898 -0.685396 -2.146904
  H 4.018998 1.187307 1.516734
  H 3.756817 -0.489878 1.866709
  H 2.428993 -0.176347 -1.710755
  H 5.103200 -0.018039 -0.215568
  H 5.101053 -2.274446 -3.527529
  H 5.071075 -0.723363 -4.250569
  H 2.637519 -0.490994 -3.774546
  H 2.653956 -2.044565 -2.915917
  H 3.346082 -1.637604 -5.864533
  H 1.845950 -2.306334 -5.236964
  H 3.352825 -3.184704 -5.018198
 22
 0.841910
  H 1.518246 0.741932 0.222713
  C 2.539036 0.386515 0.251443
  C 3.138457 0.147625 1.563969
  H 2.457457 0.392275 2.371851
  C 3.161628 0.140066 -0.948498
  C 4.536437 -0.111146 -1.114192
  C 5.157881 -0.587573 -2.243118
  C 4.624722 -1.253319 -3.429724
  C 3.132358 -1.458643 -3.627814
  C 2.864394 -2.316273 -4.861569
  H 6.240177 -0.527664 -2.252395
  H 4.056542 0.730461 1.672851
  H 3.454801 -0.892917 1.662541
  H 2.590600 0.249493 -1.856484
  H 5.182722 0.152655 -0.285639
  H 5.123247 -2.235707 -3.462752
  H 5.049774 -0.751083 -4.310713
  H 2.632437 -0.498651 -3.767423
  H 2.699616 -1.949669 -2.753723
  H 3.261356 -1.846225 -5.758398
  H 1.795295 -2.453938 -5.001017
  H 3.317521 -3.300022 -4.762480
 22
 2.531611
  H 1.562368 0.838809 0.121179
  C 2.555287 0.411646 0.119661
  C 3.049565 -0.176973 1.365092
  H 2.388506 0.023695 2.201128
  C 3.236728 0.361420 -1.067433
  C 4.621787 0.101706 -1.205729
  C 5.243749 -0.484594 -2.273002
  C 4.660527 -1.255658 -3.372546
  C 3.153816 -1.380839 -3.513033
  C 2.785065 -2.388113 -4.597480
  H 6.326224 -0.462313 -2.297097
  H 4.056305 0.187217 1.583040
  H 3.163390 -1.258417 1.261441
  H 2.742609 0.713560 -1.963944
  H 5.255540 0.415649 -0.384002
  H 5.102622 -2.262220 -3.307143
  H 5.089497 -0.873471 -4.310006
  H 2.716897 -0.416188 -3.774968
  H 2.714679 -1.700166 -2.564044
  H 3.187810 -2.088255 -5.562203
  H 1.705097 -2.461714 -4.694344
  H 3.168225 -3.378234 -4.361315
 22
 7.446938
  H 1.747000 1.130490 0.064485
  C 2.625085 0.501604 0.017521
  C 2.899614 -0.382503 1.154464
  H 2.254596 -0.170405 2.000465
  C 3.353822 0.469296 -1.132643
  C 4.749123 0.215357 -1.285873
  C 5.341374 -0.476675 -2.294298
  C 4.690736 -1.313877 -3.311508
  C 3.174582 -1.353349 -3.381539
  C 2.691039 -2.376518 -4.401860
  H 6.423057 -0.484650 -2.348610
  H 3.949859 -0.293707 1.442015
  H 2.768785 -1.428877 0.874140
  H 2.992107 1.047970 -1.982841
  H 5.389728 0.620077 -0.511522
  H 5.084951 -2.333009 -3.182135
  H 5.092997 -1.020676 -4.291934
  H 2.781159 -0.374754 -3.655386
  H 2.767143 -1.610251 -2.398922
  H 3.060445 -2.138772 -5.395817
  H 1.606092 -2.387432 -4.442468
  H 3.027700 -3.377789 -4.145022
 22
 18.178405
  H 2.029678 1.364936 -0.010437
  C 2.739455 0.549490 -0.024192
  C 2.639150 -0.440633 1.071073
  H 1.939550 -0.117094 1.834737
  C 3.568871 0.421999 -1.070902
  C 4.954918 0.211428 -1.358436
  C 5.451132 -0.523771 -2.388339
  C 4.706334 -1.354950 -3.342794
  C 3.190639 -1.366166 -3.267566
  C 2.591337 -2.341118 -4.276073
  H 6.524735 -0.537528 -2.524069
  H 3.625259 -0.597123 1.511700
  H 2.311788 -1.408481 0.694091
  H 3.422342 1.161829 -1.887537
  H 5.654611 0.670028 -0.669047
  H 5.091870 -2.380232 -3.244903
  H 5.019557 -1.069599 -4.356520
  H 2.791820 -0.371378 -3.466479
  H 2.877969 -1.658748 -2.260646
  H 2.869796 -2.070652 -5.291771
  H 1.505604 -2.333285 -4.213274
  H 2.931169 -3.356776 -4.089946
 22
 31.076661
  H 2.242758 1.463492 -0.141767
  C 2.836337 0.564100 -0.063031
  C 2.418436 -0.398142 1.003515
  H 1.644534 0.033386 1.628483
  C 3.795770 0.333161 -0.929342
  C 5.128610 0.140279 -1.392061
  C 5.532158 -0.607875 -2.465991
  C 4.700021 -1.395939 -3.381838
  C 3.192128 -1.372057 -3.186378
  C 2.493874 -2.288860 -4.186763
  H 6.593785 -0.642054 -2.671232
  H 3.274205 -0.665182 1.620139
  H 2.033584 -1.315195 0.561801
  H 3.896587 1.155503 -1.727380
  H 5.900675 0.583226 -0.771749
  H 5.060526 -2.434203 -3.335007
  H 4.945135 -1.095365 -4.410387
  H 2.807950 -0.358810 -3.316562
  H 2.948691 -1.701624 -2.173504
  H 2.703061 -1.982488 -5.209185
  H 1.416901 -2.258793 -4.042002
  H 2.819949 -3.319684 -4.066851
 22
 38.323126
  H 2.259364 1.403004 -0.332499
  C 2.867986 0.533242 -0.121348
  C 2.341688 -0.371472 0.956768
  H 1.489640 0.081962 1.453289
  C 3.941579 0.300696 -0.816743
  C 5.211392 0.129708 -1.409669
  C 5.555845 -0.667636 -2.489545
  C 4.672096 -1.427583 -3.382399
  C 3.169075 -1.359905 -3.137200
  C 2.415711 -2.236713 -4.134023
  H 6.607987 -0.729428 -2.718277
  H 3.116594 -0.577265 1.691358
  H 2.029403 -1.322151 0.529670
  H 4.291286 1.135186 -1.650095
  H 6.037585 0.535263 -0.834746
  H 4.997456 -2.478202 -3.347653
  H 4.892062 -1.128097 -4.417350
  H 2.812897 -0.333555 -3.240120
  H 2.945208 -1.703621 -2.126426
  H 2.606498 -1.917387 -5.156422
  H 1.344337 -2.178176 -3.958531
  H 2.715070 -3.278415 -4.041659
 22
 40.904786
  H 2.198835 1.336631 -0.354618
  C 2.854472 0.502984 -0.125515
  C 2.356364 -0.408975 0.964620
  H 1.469783 0.008030 1.426443
  C 3.942043 0.323447 -0.786598
  C 5.190202 0.210134 -1.429277
  C 5.537547 -0.677077 -2.489483
  C 4.642654 -1.457301 -3.350595
  C 3.137680 -1.308571 -3.154402
  C 2.376393 -2.217249 -4.115036
  H 6.591204 -0.786841 -2.690326
  H 3.123874 -0.549697 1.720826
  H 2.111496 -1.383991 0.550373
  H 4.619609 1.145960 -1.851605
  H 6.036814 0.564306 -0.842076
  H 4.913950 -2.517023 -3.235544
  H 4.899838 -1.237494 -4.396465
  H 2.832281 -0.277072 -3.336365
  H 2.868711 -1.576260 -2.132576
  H 2.611099 -1.975324 -5.148978
  H 1.304298 -2.103292 -3.978728
  H 2.627991 -3.261443 -3.945208
 22
 38.675674
  H 2.190383 1.257380 -0.389748
  C 2.853745 0.442888 -0.112098
  C 2.331522 -0.418429 1.006940
  H 1.436698 0.011346 1.423535
  C 3.950583 0.268664 -0.744791
  C 5.174472 0.263222 -1.444716
  C 5.526337 -0.654339 -2.514234
  C 4.633623 -1.451322 -3.351245
  C 3.129232 -1.297255 -3.162935
  C 2.372452 -2.213493 -4.117012
  H 6.578856 -0.748166 -2.725183
  H 3.079211 -0.516426 1.786390
  H 2.103726 -1.409555 0.632279
  H 4.840591 1.190061 -1.984893
  H 6.029856 0.554532 -0.821999
  H 4.904235 -2.508500 -3.208843
  H 4.893247 -1.261795 -4.401558
  H 2.829931 -0.267163 -3.356561
  H 2.853547 -1.552116 -2.140522
  H 2.613559 -1.983668 -5.151809
  H 1.301255 -2.095104 -3.988350
  H 2.620076 -3.256878 -3.933780
 22
 36.895814
  H 2.130567 1.186196 -0.482486
  C 2.826370 0.419810 -0.143962
  C 2.319180 -0.386411 1.023581
  H 1.418334 0.059298 1.428948
  C 3.937936 0.271902 -0.758755
  C 5.163662 0.288176 -1.453573
  C 5.511122 -0.631122 -2.530507
  C 4.623964 -1.446549 -3.353958
  C 3.120205 -1.346108 -3.127942
  C 2.368721 -2.215702 -4.128307
  H 6.557808 -0.673865 -2.784874
  H 3.075035 -0.440275 1.801220
  H 2.094160 -1.399750 0.697800
  H 5.122348 1.269480 -1.974975
  H 6.001776 0.421894 -0.756774
  H 4.933948 -2.493514 -3.237829
  H 4.851257 -1.234830 -4.409853
  H 2.793157 -0.313916 -3.244778
  H 2.871979 -1.674774 -2.121703
  H 2.581036 -1.908109 -5.148872
  H 1.296413 -2.136925 -3.970653
  H 2.648159 -3.261021 -4.022881
 22
 36.399091
  H 2.134919 1.224845 -0.496603
  C 2.821878 0.446689 -0.165003
  C 2.298817 -0.371397 0.987032
  H 1.449059 0.122119 1.446294
  C 3.930418 0.293721 -0.781311
  C 5.171251 0.285780 -1.446907
  C 5.508562 -0.603462 -2.550979
  C 4.623475 -1.426682 -3.369072
  C 3.123972 -1.379558 -3.096386
  C 2.367784 -2.241984 -4.102604
  H 6.550937 -0.621183 -2.826116
  H 3.075194 -0.520133 1.730633
  H 1.982299 -1.346476 0.624307
  H 5.235873 1.300619 -1.893982
  H 5.990055 0.322282 -0.714681
  H 4.971182 -2.469089 -3.289422
  H 4.811773 -1.180877 -4.424742
  H 2.762796 -0.353994 -3.170183
  H 2.917136 -1.747756 -2.091770
  H 2.536586 -1.893588 -5.119749
  H 1.298284 -2.204797 -3.908365
  H 2.684886 -3.281196 -4.041522
