 14
 0.000000
  H 1.434986 -0.076276 0.038318
  C 2.508072 -0.084176 0.022809
  C 3.218042 -0.595735 -0.981469
  C 4.655897 -0.606597 -1.002790
  C 5.378780 -1.120887 -2.012423
  C 6.816947 -1.130471 -2.031236
  C 7.529630 -1.640885 -3.033273
  H 8.602461 -1.654153 -3.059314
  H 3.007506 0.350437 0.876030
  H 2.705452 -1.028575 -1.831193
  H 5.158953 -0.171524 -0.148672
  H 4.876415 -1.556084 -2.866790
  H 7.324848 -0.696489 -1.179256
  H 7.031982 -2.076304 -3.888056
 14
 16.369065
  H 1.523974 -0.136563 -0.080031
  C 2.596541 -0.104349 -0.016794
  C 3.398294 -0.598769 -0.987421
  C 4.756726 -0.586939 -0.964194
  C 5.277385 -1.140480 -2.050886
  C 6.636698 -1.127990 -2.026363
  C 7.440640 -1.622239 -2.996667
  H 8.513198 -1.589652 -2.932695
  H 3.011660 0.346820 0.868917
  H 2.907694 -1.036406 -1.846578
  H 5.323317 -0.172552 -0.150687
  H 4.710936 -1.554912 -2.864476
  H 7.125726 -0.689947 -1.166406
  H 7.027185 -2.073703 -3.882959
