 22
 0.000000
  C 1.001503 0.127222 0.367756
  C 2.468584 0.140045 0.399127
  C 3.227110 0.610042 1.568711
  C 2.442790 1.096595 2.780280
  C 3.387580 1.543070 3.891837
  C 3.118071 -0.321586 -0.750171
  C 4.512458 -0.393380 -0.930050
  C 5.109814 -0.845828 -2.057433
  H 4.581944 -1.195374 -2.928222
  H 6.183954 -0.877423 -2.136414
  H 0.542258 0.492985 1.278282
  H 0.645636 -0.886602 0.172584
  H 0.645355 0.724210 -0.474428
  H 3.895586 1.417551 1.243515
  H 3.895810 -0.197870 1.892430
  H 1.804610 0.298173 3.163802
  H 1.804492 1.938426 2.505071
  H 4.023754 0.723648 4.218272
  H 2.820545 1.888577 4.752391
  H 4.023592 2.360713 3.560795
  H 2.494145 -0.651713 -1.571423
  H 5.140613 -0.065286 -0.113201
 22
 -0.234967
  C 1.022682 0.252388 0.311050
  C 2.488716 0.232202 0.363851
  C 3.226384 0.766756 1.518393
  C 2.442076 1.018604 2.801651
  C 3.375350 1.438568 3.932017
  C 3.154704 -0.356633 -0.712711
  C 4.549841 -0.403554 -0.908705
  C 5.092728 -0.954757 -2.023578
  H 4.476653 -1.398627 -2.788930
  H 6.156619 -0.968102 -2.182839
  H 0.572239 0.847527 1.096479
  H 0.647612 -0.771545 0.395948
  H 0.678867 0.597013 -0.664734
  H 3.673782 1.721225 1.202490
  H 4.081587 0.121646 1.742805
  H 1.917273 0.107035 3.094347
  H 1.698306 1.803968 2.657843
  H 4.114798 0.667985 4.137085
  H 2.809073 1.609239 4.844142
  H 3.898370 2.359972 3.687254
  H 2.545049 -0.796184 -1.492562
  H 5.204160 0.032957 -0.167495
 22
 2.487109
  C 1.071675 0.389656 0.246268
  C 2.543625 0.349552 0.323974
  C 3.232587 0.912437 1.493133
  C 2.445797 0.932869 2.809290
  C 3.346651 1.372885 3.957927
  C 3.172085 -0.473650 -0.611293
  C 4.549277 -0.462528 -0.910725
  C 5.054787 -1.032370 -2.032187
  H 4.418622 -1.515030 -2.753501
  H 6.106941 -1.011197 -2.245184
  H 0.630321 1.086543 0.948901
  H 0.683691 -0.610985 0.451147
  H 0.743628 0.639588 -0.760884
  H 3.495543 1.954644 1.256680
  H 4.180277 0.394289 1.657631
  H 2.071832 -0.072257 3.012923
  H 1.595845 1.613113 2.757512
  H 4.185315 0.691411 4.084371
  H 2.783121 1.388393 4.889629
  H 3.738305 2.374154 3.789622
  H 2.540834 -1.037276 -1.287458
  H 5.221381 0.044686 -0.229250
 22
 17.404284
  C 1.237723 0.462677 0.208418
  C 2.762866 0.463332 0.302689
  C 3.272369 1.028233 1.558612
  C 2.419425 0.892782 2.829337
  C 3.214683 1.353488 4.038431
  C 3.208358 -0.548310 -0.528037
  C 4.543878 -0.532027 -1.032430
  C 4.938337 -1.144063 -2.173031
  H 4.229693 -1.589837 -2.853176
  H 5.968757 -1.145214 -2.477865
  H 0.803799 1.187317 0.891850
  H 0.892634 -0.541161 0.452592
  H 0.925287 0.719052 -0.802620
  H 3.424701 2.101411 1.399824
  H 4.260601 0.609621 1.766229
  H 2.132223 -0.153253 2.961068
  H 1.510088 1.493998 2.769376
  H 4.136449 0.781205 4.146631
  H 2.626781 1.215507 4.941514
  H 3.473358 2.412791 3.961983
  H 2.511714 -1.133996 -1.110492
  H 5.270536 -0.011076 -0.426640
 22
 56.667009
  C 1.413718 0.359678 0.291887
  C 3.110072 0.400388 0.372326
  C 3.367201 0.938314 1.706918
  C 2.337645 0.974139 2.850155
  C 3.029401 1.473717 4.120440
  C 3.238997 -0.534473 -0.613377
  C 4.549576 -0.565980 -1.224626
  C 4.787719 -1.056570 -2.463998
  H 3.992063 -1.328788 -3.134117
  H 5.794583 -1.210278 -2.815460
  H 1.037574 1.056642 1.022346
  H 1.186328 -0.663942 0.507407
  H 1.100159 0.683975 -0.693858
  H 3.765379 1.956819 1.609194
  H 4.157651 0.304909 2.121357
  H 1.972765 -0.041361 3.014281
  H 1.517148 1.656924 2.644442
  H 3.857183 0.826856 4.409496
  H 2.311376 1.482467 4.939902
  H 3.390699 2.488343 3.999893
  H 2.485642 -0.908045 -1.273572
  H 5.371990 -0.368782 -0.560499
 22
 85.086120
  C 1.220480 0.253084 0.297902
  C 3.326486 0.282451 0.464522
  C 3.485289 0.875811 1.763846
  C 2.383552 1.002635 2.834960
  C 2.995223 1.514136 4.133249
  C 3.244290 -0.462806 -0.593748
  C 4.596097 -0.689932 -1.219949
  C 4.748964 -1.007574 -2.492868
  H 3.931179 -1.105820 -3.181354
  H 5.735750 -1.145723 -2.907303
  H 0.979705 0.907953 1.115494
  H 1.037501 -0.788835 0.452020
  H 1.031377 0.662219 -0.674515
  H 3.881657 1.887393 1.608307
  H 4.266165 0.267116 2.254200
  H 1.914054 0.036434 3.014201
  H 1.643936 1.729707 2.509272
  H 3.705529 0.805427 4.544691
  H 2.210502 1.662696 4.869845
  H 3.501126 2.466238 3.984322
  H 2.509078 -0.629958 -1.354995
  H 5.448023 -0.586745 -0.564290
 22
 97.192471
  C 0.744758 0.202568 0.254970
  C 3.442951 0.319442 0.494637
  C 3.707323 0.902200 1.749957
  C 2.534744 1.002038 2.760904
  C 3.055807 1.484952 4.102903
  C 3.237377 -0.368753 -0.560705
  C 4.638839 -0.652871 -1.102716
  C 4.801005 -0.975613 -2.374455
  H 4.002863 -0.986899 -3.093694
  H 5.776448 -1.232479 -2.743052
  H 0.587469 0.855925 1.082381
  H 0.657407 -0.851950 0.415236
  H 0.621362 0.612400 -0.727342
  H 4.108955 1.909016 1.599941
  H 4.467498 0.281992 2.245129
  H 2.065674 0.029444 2.879032
  H 1.803897 1.718182 2.384237
  H 3.777771 0.790482 4.522572
  H 2.228773 1.571412 4.802887
  H 3.525648 2.461992 4.015076
  H 2.578272 -0.443723 -1.394167
  H 5.464305 -0.676993 -0.414116
 22
 107.623686
  C 0.426776 0.119434 0.067076
  C 3.433863 0.233810 0.513185
  C 3.887126 0.776761 1.735699
  C 2.688383 1.031565 2.684303
  C 3.201505 1.502392 4.037588
  C 3.027583 -0.417217 -0.473123
  C 4.596821 -0.489493 -0.868411
  C 4.824216 -0.792696 -2.132006
  H 4.069375 -0.860774 -2.895980
  H 5.837141 -0.992059 -2.443718
  H 0.409812 0.756473 0.925337
  H 0.211158 -0.918709 0.206619
  H 0.252325 0.567754 -0.888348
  H 4.412868 1.719357 1.562336
  H 4.566803 0.076715 2.232308
  H 2.113410 0.114196 2.805739
  H 2.041654 1.795113 2.253949
  H 3.836321 0.751777 4.501093
  H 2.361338 1.688889 4.701434
  H 3.768035 2.425179 3.943079
  H 2.483756 -0.646769 -1.356953
  H 5.403754 -0.464964 -0.153421
 22
 107.097483
  C 0.613820 -0.017558 -0.197675
  C 3.231790 0.172462 0.493989
  C 3.819543 0.689301 1.705015
  C 2.723248 1.081097 2.719383
  C 3.356193 1.525025 4.033040
  C 2.652497 -0.470972 -0.420792
  C 4.450423 -0.357883 -0.639071
  C 4.713278 -0.581863 -1.909358
  H 3.991701 -0.637738 -2.704978
  H 5.741908 -0.728890 -2.198939
  H 0.587971 0.620290 0.663592
  H 0.251413 -1.018649 -0.065041
  H 0.419332 0.451132 -1.143113
  H 4.419153 1.573110 1.478106
  H 4.455793 -0.071378 2.161041
  H 2.069858 0.227183 2.901075
  H 2.121430 1.896219 2.316759
  H 3.947191 0.724663 4.472160
  H 2.583982 1.802710 4.746167
  H 4.001659 2.387425 3.882786
  H 2.187170 -0.878017 -1.275258
  H 5.251420 -0.330958 0.087276
 22
 113.934046
  C 0.715667 -0.000786 -0.137064
  C 3.170828 0.136351 0.451818
  C 3.767098 0.658099 1.664556
  C 2.702714 1.075716 2.700739
  C 3.375373 1.500422 4.001428
  C 2.593460 -0.536582 -0.439912
  C 4.496522 -0.262788 -0.623924
  C 4.760016 -0.555975 -1.874797
  H 4.034491 -0.741894 -2.651495
  H 5.795447 -0.624701 -2.179038
  H 0.707379 0.636694 0.727212
  H 0.263440 -0.970308 -0.000786
  H 0.473328 0.481809 -1.071455
  H 4.392632 1.521124 1.430094
  H 4.388526 -0.129038 2.099967
  H 2.025791 0.242266 2.894713
  H 2.113887 1.909551 2.312150
  H 3.963356 0.690837 4.425324
  H 2.622743 1.796814 4.730076
  H 4.045683 2.341219 3.838914
  H 1.920001 -1.014306 -1.285533
  H 5.290013 -0.091185 0.090318
 22
 84.636767
  C 0.840927 -0.041799 -0.094776
  C 3.171550 0.121898 0.352819
  C 3.757800 0.614068 1.604374
  C 2.713572 1.090938 2.632782
  C 3.400728 1.466207 3.940087
  C 2.437561 -0.646071 -0.416515
  C 4.509618 -0.181983 -0.540273
  C 4.746964 -0.449517 -1.802127
  H 4.008921 -0.647523 -2.559018
  H 5.772595 -0.487729 -2.134871
  H 0.838755 0.635661 0.742472
  H 0.297399 -0.959058 0.104465
  H 0.517218 0.433297 -1.011488
  H 4.435050 1.440148 1.389602
  H 4.317741 -0.209160 2.054408
  H 1.985605 0.300307 2.823798
  H 2.184698 1.962585 2.245670
  H 3.925233 0.613717 4.365021
  H 2.664555 1.805694 4.665211
  H 4.120010 2.267764 3.787294
  H 1.918633 -1.148713 -1.275054
  H 5.323267 0.022351 0.142643
 22
 63.035933
  C 1.383605 -0.543440 -0.361144
  C 3.325284 0.668303 0.247750
  C 3.639861 0.513002 1.686887
  C 2.604213 -0.129532 2.622102
  C 3.215649 -0.326586 4.007404
  C 2.859704 -0.064679 -0.791063
  C 4.372320 1.596539 -0.337626
  C 4.400344 2.185571 -1.522141
  H 3.693530 2.008251 -2.308319
  H 5.197881 2.868290 -1.756766
  H 1.175769 -0.441998 0.692139
  H 1.340458 -1.589034 -0.669677
  H 0.638848 0.011208 -0.935439
  H 3.891728 1.497934 2.076985
  H 4.527521 -0.119865 1.736451
  H 2.283787 -1.099692 2.246073
  H 1.733506 0.524061 2.712271
  H 4.093857 -0.968402 3.963836
  H 2.493343 -0.788869 4.669637
  H 3.509253 0.626689 4.442637
  H 2.413740 -0.241374 -1.742200
  H 5.129369 1.848104 0.397432
 22
 22.130563
  C 1.188196 -0.427221 -0.179264
  C 3.436402 0.546291 0.185521
  C 3.708046 0.416234 1.646985
  C 2.617577 -0.006408 2.634904
  C 3.187858 -0.041304 4.048278
  C 2.562311 -0.139261 -0.641472
  C 4.557864 1.194243 -0.474080
  C 4.587468 1.671800 -1.730917
  H 3.755213 1.606167 -2.410052
  H 5.452923 2.204827 -2.093350
  H 1.038023 -0.286285 0.880437
  H 0.928089 -1.459215 -0.438253
  H 0.478677 0.191346 -0.731258
  H 4.060193 1.397574 1.974861
  H 4.533331 -0.295497 1.746199
  H 2.244752 -1.002269 2.408696
  H 1.790303 0.708654 2.600979
  H 3.984355 -0.780268 4.127756
  H 2.412164 -0.310271 4.759041
  H 3.591264 0.928643 4.337213
  H 2.413103 0.002306 -1.701708
  H 5.395109 1.412506 0.176221
 22
 9.272348
  C 1.155310 -0.448659 -0.158688
  C 3.462019 0.595938 0.204959
  C 3.707795 0.460651 1.664078
  C 2.613805 0.030077 2.635334
  C 3.183168 -0.084228 4.047427
  C 2.488407 -0.028408 -0.560132
  C 4.534761 1.287217 -0.475163
  C 4.591394 1.630211 -1.777803
  H 3.811548 1.426683 -2.491397
  H 5.455770 2.142510 -2.163500
  H 0.937781 -0.336334 0.894290
  H 0.975476 -1.482937 -0.470735
  H 0.426159 0.118766 -0.747378
  H 4.135874 1.403936 2.019264
  H 4.519736 -0.275300 1.755044
  H 2.198925 -0.938511 2.359586
  H 1.814837 0.774397 2.644069
  H 3.976140 -0.827199 4.093020
  H 2.404077 -0.385101 4.743359
  H 3.585930 0.867476 4.386435
  H 2.591707 0.000786 -1.636649
  H 5.352604 1.600621 0.161319
 22
 7.550933
  C 1.088589 -0.337725 -0.119242
  C 3.466016 0.618499 0.207167
  C 3.674712 0.548308 1.676205
  C 2.649153 -0.075282 2.612760
  C 3.201197 -0.131666 4.035693
  C 2.400416 0.119042 -0.529025
  C 4.540743 1.292004 -0.485461
  C 4.684625 1.469050 -1.812049
  H 3.980067 1.127403 -2.549943
  H 5.550578 1.979648 -2.195890
  H 0.864711 -0.259599 0.934166
  H 0.949820 -1.370077 -0.463739
  H 0.341645 0.205220 -0.709298
  H 3.901791 1.561837 2.030122
  H 4.620524 0.004343 1.815950
  H 2.404249 -1.091054 2.298721
  H 1.738747 0.526089 2.627895
  H 4.113557 -0.721785 4.080701
  H 2.475125 -0.588838 4.703884
  H 3.420202 0.865543 4.411314
  H 2.543521 0.100315 -1.602802
  H 5.313236 1.691317 0.159609
