 20
 0.000000
  H 1.495418 0.138755 0.398903
  C 2.576298 0.134164 0.387089
  C 3.273107 0.616552 1.584968
  C 2.345233 1.067039 2.704704
  H 2.919913 1.411085 3.559393
  C 3.186927 -0.326898 -0.759461
  C 4.568148 -0.404086 -0.952000
  C 5.199767 -0.866870 -2.108257
  C 4.527685 -1.354159 -3.326324
  H 3.447414 -1.337877 -3.286802
  O 6.505960 -0.893797 -2.176130
  H 3.935374 1.445518 1.306669
  H 3.935798 -0.173707 1.958477
  H 1.705846 0.249651 3.029397
  H 1.705572 1.881308 2.372739
  H 2.542152 -0.649778 -1.563215
  H 5.214106 -0.081092 -0.145545
  H 4.871823 -2.369527 -3.529325
  H 4.872504 -0.759490 -4.173734
  H 6.951031 -0.570588 -1.368627
 20
 0.887825
  H 1.524442 0.377235 0.321948
  C 2.597334 0.266234 0.335545
  C 3.274452 0.601383 1.594358
  C 2.322410 0.998339 2.712916
  H 2.876020 1.231945 3.617997
  C 3.203749 -0.177429 -0.818148
  C 4.583853 -0.355076 -0.965783
  C 5.214729 -0.866330 -2.099701
  C 4.521242 -1.477669 -3.245905
  H 3.459424 -1.604820 -3.086763
  O 6.519149 -0.905981 -2.180391
  H 3.983757 1.418855 1.414026
  H 3.891540 -0.245459 1.918982
  H 1.631081 0.189463 2.938460
  H 1.739018 1.877005 2.435378
  H 2.562330 -0.381282 -1.667017
  H 5.219487 -0.108952 -0.125296
  H 4.981870 -2.442364 -3.469704
  H 4.690137 -0.858297 -4.130141
  H 6.997378 -0.302134 -1.581275
 20
 5.467119
  H 1.518638 0.452715 0.302254
  C 2.590425 0.309458 0.328168
  C 3.259063 0.602832 1.600459
  C 2.302112 0.959798 2.728366
  H 2.852060 1.163459 3.642919
  C 3.200099 -0.130796 -0.825291
  C 4.575841 -0.344250 -0.956291
  C 5.212099 -0.881171 -2.074408
  C 4.527674 -1.511549 -3.215686
  H 3.456608 -1.592996 -3.085420
  O 6.526945 -0.983658 -2.097700
  H 3.963741 1.430650 1.447857
  H 3.884057 -0.246805 1.898353
  H 1.612036 0.142405 2.923347
  H 1.719046 1.843439 2.480261
  H 2.568003 -0.304082 -1.683447
  H 5.213251 -0.120236 -0.112744
  H 4.955613 -2.499624 -3.388763
  H 4.750695 -0.937476 -4.116802
  H 7.041495 -0.190315 -1.869310
 20
 10.507870
  H 1.500200 0.405995 0.323146
  C 2.574275 0.278685 0.350385
  C 3.240773 0.617986 1.609873
  C 2.283744 0.980415 2.735282
  H 2.834778 1.219023 3.640579
  C 3.186914 -0.187001 -0.792212
  C 4.566106 -0.386612 -0.921022
  C 5.214286 -0.908456 -2.035829
  C 4.551734 -1.456964 -3.228475
  H 3.472970 -1.485259 -3.147489
  O 6.538942 -1.042121 -1.989067
  H 3.925140 1.458207 1.431097
  H 3.891904 -0.206192 1.923228
  H 1.614209 0.152216 2.954834
  H 1.678049 1.843721 2.470245
  H 2.553705 -0.398775 -1.640857
  H 5.209455 -0.124807 -0.092714
  H 4.934743 -2.461550 -3.416460
  H 4.840073 -0.870852 -4.102851
  H 7.096983 -0.265982 -2.146443
 20
 10.145238
  H 1.480159 0.271943 0.381533
  C 2.559168 0.192795 0.398511
  C 3.227929 0.640039 1.622204
  C 2.272894 1.038548 2.737042
  H 2.826147 1.358611 3.615402
  C 3.174418 -0.317743 -0.723541
  C 4.557100 -0.473731 -0.860799
  C 5.218949 -0.949492 -1.989734
  C 4.583322 -1.334424 -3.260890
  H 3.501977 -1.310779 -3.221886
  O 6.534240 -1.106536 -1.881329
  H 3.876745 1.492004 1.377242
  H 3.917286 -0.134522 1.977782
  H 1.640847 0.200692 3.021983
  H 1.628428 1.857168 2.425545
  H 2.536787 -0.612019 -1.543923
  H 5.203640 -0.159377 -0.052112
  H 4.922535 -2.336238 -3.531589
  H 4.925600 -0.683502 -4.067440
  H 7.135877 -0.496983 -2.337376
 20
 3.378629
  H 1.474900 0.269290 0.389066
  C 2.555389 0.212807 0.404803
  C 3.216706 0.669924 1.632136
  C 2.249625 1.047001 2.747035
  H 2.794467 1.370356 3.629375
  C 3.181503 -0.282612 -0.716208
  C 4.566297 -0.404739 -0.852541
  C 5.244729 -0.887469 -1.975235
  C 4.625075 -1.284469 -3.253797
  H 3.547354 -1.259054 -3.219835
  O 6.545083 -0.998031 -1.831744
  H 3.847860 1.535766 1.389940
  H 3.918188 -0.094055 1.987454
  H 1.630396 0.197490 3.024808
  H 1.593524 1.858285 2.437422
  H 2.549785 -0.594985 -1.534733
  H 5.210061 -0.037264 -0.064004
  H 4.956808 -2.291703 -3.511697
  H 4.962070 -0.633227 -4.064090
  H 7.096013 -0.826080 -2.617905
 20
 5.160974
  H 1.492382 0.574857 0.283169
  C 2.562958 0.424028 0.315324
  C 3.214011 0.590680 1.619478
  C 2.241535 0.826920 2.765691
  H 2.778776 0.932642 3.704023
  C 3.194604 0.066796 -0.851408
  C 4.571032 -0.153587 -0.964325
  C 5.233437 -0.796326 -2.009008
  C 4.602904 -1.572982 -3.088955
  H 3.525804 -1.614326 -2.980305
  O 6.544098 -0.781638 -1.882271
  H 3.910171 1.437171 1.549635
  H 3.847775 -0.274848 1.838888
  H 1.550380 -0.006751 2.864222
  H 1.660554 1.731818 2.604172
  H 2.589953 -0.030335 -1.742319
  H 5.281132 0.276572 -0.268739
  H 5.007898 -2.585312 -3.081799
  H 4.841358 -1.151244 -4.066739
  H 7.067957 -0.739767 -2.702534
 20
 13.424402
  H 1.517073 0.815438 0.231596
  C 2.578226 0.608297 0.245278
  C 3.227598 0.545885 1.560958
  C 2.255960 0.607594 2.730100
  H 2.793355 0.561783 3.673203
  C 3.202898 0.367317 -0.947192
  C 4.566084 0.079965 -1.077590
  C 5.198386 -0.729154 -2.010408
  C 4.579173 -1.758821 -2.854868
  H 3.509089 -1.809016 -2.686936
  O 6.516289 -0.620057 -1.927533
  H 3.937623 1.380503 1.626020
  H 3.845250 -0.354451 1.637404
  H 1.559754 -0.227152 2.697942
  H 1.680459 1.530136 2.712262
  H 2.617397 0.415016 -1.855502
  H 5.368933 0.602531 -0.569396
  H 5.033257 -2.725089 -2.636822
  H 4.760262 -1.561905 -3.912596
  H 7.014832 -0.586687 -2.760399
 20
 29.361472
  H 1.477419 0.941559 0.307209
  C 2.525026 0.677950 0.257619
  C 3.236575 0.518848 1.533460
  C 2.325718 0.572001 2.751442
  H 2.901166 0.431321 3.662276
  C 3.081241 0.474998 -0.976438
  C 4.414044 0.091649 -1.180353
  C 5.101037 -0.741268 -2.042187
  C 4.675414 -1.909809 -2.819936
  H 3.612399 -2.088630 -2.690622
  O 6.414582 -0.466052 -1.892258
  H 3.999014 1.303673 1.609065
  H 3.791023 -0.425066 1.528212
  H 1.571257 -0.209750 2.704885
  H 1.817612 1.531224 2.817851
  H 2.480006 0.668561 -1.856236
  H 5.367060 0.554021 -0.802072
  H 5.237880 -2.788732 -2.507436
  H 4.874859 -1.756992 -3.881839
  H 6.930500 -0.254269 -2.689517
 20
 51.162108
  H 1.456290 1.028979 0.378104
  C 2.482616 0.706329 0.274391
  C 3.242461 0.471098 1.511127
  C 2.388983 0.545499 2.770330
  H 2.992512 0.342146 3.650707
  C 2.978455 0.518451 -0.989541
  C 4.264461 0.062708 -1.263918
  C 5.014502 -0.743204 -2.054042
  C 4.755782 -1.962877 -2.833182
  H 3.707454 -2.237661 -2.765140
  O 6.319161 -0.345672 -1.828821
  H 4.047017 1.212897 1.577832
  H 3.739082 -0.502598 1.453037
  H 1.582711 -0.183523 2.736543
  H 1.949316 1.533622 2.884169
  H 2.362521 0.802459 -1.835615
  H 5.415034 0.514777 -0.937940
  H 5.369894 -2.783921 -2.466897
  H 5.002628 -1.797687 -3.882316
  H 6.859561 -0.077282 -2.597642
 20
 63.983703
  H 1.453938 1.085559 0.400581
  C 2.462425 0.722848 0.268715
  C 3.243710 0.438422 1.489463
  C 2.417844 0.531463 2.765579
  H 3.028099 0.287883 3.631456
  C 2.924712 0.534550 -1.006009
  C 4.169708 0.036304 -1.322029
  C 4.947576 -0.736153 -2.051183
  C 4.780614 -1.984561 -2.816463
  H 3.745608 -2.308937 -2.779641
  O 6.285003 -0.269146 -1.780362
  H 4.078491 1.144540 1.553801
  H 3.695269 -0.555846 1.406289
  H 1.579512 -0.160907 2.736333
  H 2.024925 1.536797 2.901821
  H 2.307060 0.869213 -1.833382
  H 5.597485 0.480963 -1.029137
  H 5.418301 -2.766681 -2.408244
  H 5.057271 -1.826710 -3.858804
  H 6.817575 0.017844 -2.554369
 20
 55.755910
  H 1.463801 1.162641 0.406706
  C 2.448214 0.746310 0.260869
  C 3.219411 0.387961 1.475008
  C 2.408470 0.522938 2.757895
  H 3.004428 0.227680 3.617229
  C 2.892503 0.555473 -1.020299
  C 4.094858 0.036096 -1.360840
  C 4.890949 -0.715335 -2.039565
  C 4.781055 -1.997024 -2.757387
  H 3.759641 -2.363288 -2.705902
  O 6.282880 -0.200146 -1.803307
  H 4.097290 1.040013 1.545286
  H 3.604244 -0.631798 1.377816
  H 1.523089 -0.107923 2.725515
  H 2.088582 1.551021 2.906947
  H 2.273802 0.914668 -1.835238
  H 5.839500 0.443192 -1.131058
  H 5.452993 -2.735861 -2.320452
  H 5.049139 -1.865658 -3.805608
  H 6.757578 0.123057 -2.603898
 20
 46.696366
  H 1.437415 1.206450 0.445793
  C 2.410264 0.778599 0.276663
  C 3.203630 0.400157 1.464626
  C 2.423032 0.508148 2.746181
  H 3.029256 0.189296 3.586435
  C 2.831467 0.591479 -1.019921
  C 4.015604 0.031780 -1.396206
  C 4.891363 -0.697250 -2.025999
  C 4.818140 -2.011495 -2.740662
  H 3.799513 -2.391362 -2.714952
  O 6.310564 -0.242930 -1.821293
  H 4.092852 1.036815 1.533809
  H 3.569912 -0.624160 1.342884
  H 1.543338 -0.114756 2.709706
  H 2.107451 1.538672 2.925012
  H 2.209246 0.974495 -1.818564
  H 6.096287 0.481904 -1.164259
  H 5.474609 -2.725898 -2.267945
  H 5.120331 -1.898289 -3.791067
  H 6.759181 0.011700 -2.637504
 20
 42.287043
  H 1.490861 1.313348 0.419009
  C 2.445537 0.841762 0.247919
  C 3.180818 0.333932 1.431886
  C 2.358287 0.407314 2.711489
  H 2.922806 0.010176 3.551291
  C 2.898727 0.718685 -1.048496
  C 4.065939 0.144486 -1.423351
  C 4.909160 -0.639910 -1.999411
  C 4.795013 -2.034110 -2.499652
  H 3.792237 -2.409043 -2.324567
  O 6.334574 -0.172602 -2.026803
  H 4.098734 0.917075 1.566324
  H 3.494705 -0.699308 1.250773
  H 1.442216 -0.170841 2.615010
  H 2.089648 1.436776 2.939759
  H 2.311022 1.169085 -1.840534
  H 6.325951 0.623184 -1.452223
  H 5.508777 -2.673343 -1.985223
  H 4.993983 -2.072626 -3.569180
  H 6.684462 -0.000686 -2.931284
 20
 42.325691
  H 1.392647 1.118539 0.385865
  C 2.394381 0.750910 0.228207
  C 3.173312 0.352599 1.427629
  C 2.368904 0.465019 2.716735
  H 2.971762 0.165720 3.570521
  C 2.863960 0.648940 -1.058914
  C 4.095614 0.204794 -1.413694
  C 4.946417 -0.581049 -1.984363
  C 4.750356 -1.957374 -2.530354
  H 3.709949 -2.249170 -2.438767
  O 6.385877 -0.253664 -1.991949
  H 4.066441 0.980867 1.506225
  H 3.526258 -0.676522 1.302776
  H 1.490468 -0.175723 2.680676
  H 2.037866 1.488761 2.877654
  H 2.237516 1.021040 -1.862495
  H 6.607874 0.436185 -1.327538
  H 5.367470 -2.666774 -1.983237
  H 5.024602 -1.988848 -3.582481
  H 6.731783 -0.040894 -2.889760
