 23
 0.000000
  C 1.004495 0.113605 0.333921
  C 2.479674 0.126554 0.367087
  C 3.233174 0.603138 1.552616
  C 2.418101 1.083411 2.746831
  H 3.086333 1.401728 3.539035
  C 3.136555 -0.330248 -0.769197
  C 4.519224 -0.396187 -0.934295
  C 5.180183 -0.850157 -2.067403
  C 4.532900 -1.344435 -3.300212
  H 3.453988 -1.334745 -3.275968
  O 6.489289 -0.871342 -2.122221
  H 0.551240 0.480652 1.246334
  H 0.646960 -0.900577 0.148864
  H 0.647461 0.717646 -0.501713
  H 3.892139 1.418354 1.233590
  H 3.891897 -0.206109 1.886771
  H 1.786072 0.289477 3.137682
  H 1.786478 1.927228 2.479314
  H 2.504244 -0.656613 -1.581507
  H 5.128732 -0.063179 -0.105058
  H 4.886678 -2.357777 -3.495738
  H 4.886654 -0.746746 -4.141572
  H 6.934763 -0.548718 -1.317683
 23
 0.358817
  C 1.013059 0.294387 0.261984
  C 2.480464 0.211879 0.329719
  C 3.222321 0.524406 1.570136
  C 2.397233 0.908514 2.791935
  H 3.063396 1.100023 3.629693
  C 3.147350 -0.210402 -0.815854
  C 4.532100 -0.264176 -0.979532
  C 5.182226 -0.799601 -2.085189
  C 4.531807 -1.576787 -3.156417
  H 3.474449 -1.739254 -2.982298
  O 6.483783 -0.680479 -2.234342
  H 0.560248 0.657250 1.183490
  H 0.599091 -0.688512 0.028591
  H 0.715505 0.942339 -0.563790
  H 3.918516 1.339238 1.352141
  H 3.846436 -0.339636 1.824329
  H 1.720854 0.107047 3.082725
  H 1.819237 1.813397 2.615667
  H 2.533748 -0.449101 -1.671112
  H 5.157023 0.178583 -0.215634
  H 5.038136 -2.537894 -3.250401
  H 4.677613 -1.066691 -4.108492
  H 6.931544 -0.167754 -1.543678
 23
 2.122726
  C 1.003775 0.401161 0.220907
  C 2.472026 0.275109 0.284357
  C 3.219987 0.436274 1.554607
  C 2.410152 0.765396 2.801034
  H 3.079410 0.851161 3.652917
  C 3.135859 -0.084689 -0.878802
  C 4.525020 -0.079368 -1.061390
  C 5.187427 -0.755005 -2.078960
  C 4.543615 -1.726256 -2.989731
  H 3.498745 -1.886761 -2.757759
  O 6.474690 -0.603402 -2.281671
  H 0.563598 0.716605 1.157930
  H 0.563677 -0.555187 -0.066962
  H 0.722858 1.104574 -0.563225
  H 3.971303 1.219978 1.406885
  H 3.790065 -0.481523 1.734995
  H 1.689087 -0.018199 3.025902
  H 1.884211 1.711381 2.696473
  H 2.519246 -0.248305 -1.752747
  H 5.127418 0.523039 -0.393215
  H 5.079168 -2.672802 -2.935762
  H 4.650507 -1.380108 -4.018092
  H 6.911472 0.043078 -1.696155
 23
 5.399788
  C 0.986712 0.488119 0.200862
  C 2.453438 0.336460 0.226797
  C 3.226257 0.359261 1.493340
  C 2.448944 0.600864 2.778541
  H 3.136689 0.593528 3.623689
  C 3.101433 0.062181 -0.962566
  C 4.498168 0.095745 -1.155144
  C 5.180373 -0.704069 -2.057909
  C 4.556727 -1.837423 -2.777275
  H 3.522348 -1.977479 -2.500294
  O 6.462661 -0.551313 -2.297344
  H 0.569433 0.738535 1.168478
  H 0.525339 -0.436877 -0.148361
  H 0.703752 1.253964 -0.523581
  H 3.996341 1.132660 1.393936
  H 3.776105 -0.582125 1.582039
  H 1.711326 -0.177757 2.946855
  H 1.947815 1.566130 2.766758
  H 2.489289 -0.007578 -1.853270
  H 5.072436 0.829571 -0.601920
  H 5.117769 -2.748833 -2.569993
  H 4.640829 -1.670036 -3.852868
  H 6.883497 0.190059 -1.824706
 23
 9.388335
  C 0.975880 0.619722 0.183154
  C 2.426957 0.334310 0.188505
  C 3.207738 0.220690 1.444498
  C 2.477432 0.521793 2.745378
  H 3.173712 0.423827 3.584463
  C 3.061430 0.066644 -1.005863
  C 4.460780 0.171292 -1.220962
  C 5.190922 -0.679539 -2.022415
  C 4.613019 -1.911327 -2.610084
  H 3.598355 -2.083920 -2.266561
  O 6.447449 -0.462389 -2.335438
  H 0.600030 0.901091 1.163247
  H 0.427738 -0.261052 -0.151875
  H 0.749843 1.406627 -0.528888
  H 4.069653 0.895412 1.349574
  H 3.634936 -0.783428 1.501753
  H 1.666190 -0.179210 2.911620
  H 2.078917 1.529362 2.757562
  H 2.463592 0.093078 -1.903859
  H 4.985485 0.956966 -0.689731
  H 5.242994 -2.770888 -2.361290
  H 4.630369 -1.828663 -3.694015
  H 6.818476 0.371222 -1.987336
 23
 16.813386
  C 1.008423 0.800849 0.163576
  C 2.437072 0.418600 0.154348
  C 3.205992 0.168877 1.406676
  C 2.451303 0.306072 2.720132
  H 3.139475 0.144373 3.546034
  C 3.061501 0.165589 -1.030261
  C 4.447521 0.290607 -1.371573
  C 5.185824 -0.677158 -2.016619
  C 4.632851 -2.017055 -2.323530
  H 3.619756 -2.124245 -1.955030
  O 6.414861 -0.478276 -2.440394
  H 0.629168 0.956751 1.163446
  H 0.407789 0.021297 -0.308862
  H 0.861906 1.709077 -0.421114
  H 4.053562 0.859804 1.395530
  H 3.640109 -0.834385 1.357586
  H 1.656693 -0.432794 2.802940
  H 2.027190 1.299230 2.834644
  H 2.499615 0.298355 -1.952303
  H 4.947649 1.208830 -1.075658
  H 5.269012 -2.790410 -1.888186
  H 4.660481 -2.172766 -3.398308
  H 6.748923 0.428813 -2.314074
 23
 28.740128
  C 1.064966 0.808809 0.133471
  C 2.499668 0.411576 0.212880
  C 3.183834 0.172995 1.533298
  C 2.307081 0.267090 2.769477
  H 2.919088 0.083355 3.647760
  C 3.214524 0.217803 -0.902642
  C 4.527389 0.325991 -1.463267
  C 5.195510 -0.700257 -2.111829
  C 4.616051 -2.052501 -2.270745
  H 3.679453 -2.143410 -1.737447
  O 6.352947 -0.513845 -2.709053
  H 0.623833 0.933850 1.115634
  H 0.486099 0.063255 -0.415156
  H 0.975723 1.748365 -0.399474
  H 3.977664 0.921174 1.602660
  H 3.676248 -0.808213 1.508603
  H 1.512107 -0.478012 2.759727
  H 1.875160 1.256547 2.875979
  H 2.768421 0.449602 -1.883182
  H 5.049718 1.268621 -1.355475
  H 5.324760 -2.803756 -1.922321
  H 4.464269 -2.259562 -3.330982
  H 6.735315 0.376269 -2.607006
 23
 36.434765
  C 1.085132 0.781157 0.096800
  C 2.529588 0.431044 0.208236
  C 3.165377 0.093282 1.546952
  C 2.296290 0.300865 2.783595
  H 2.874810 0.038110 3.663328
  C 3.273931 0.298145 -0.873425
  C 4.544180 0.376603 -1.518696
  C 5.175701 -0.671813 -2.161403
  C 4.592201 -2.038097 -2.206326
  H 3.677939 -2.092342 -1.625696
  O 6.321967 -0.519644 -2.774927
  H 0.615351 0.873389 1.070736
  H 0.555975 0.012533 -0.465093
  H 0.966592 1.720574 -0.430463
  H 4.065735 0.694908 1.640831
  H 3.478214 -0.952673 1.518234
  H 1.413259 -0.336064 2.768229
  H 1.993792 1.331245 2.887665
  H 2.891008 0.605296 -1.901761
  H 5.110591 1.300806 -1.355862
  H 5.320031 -2.764466 -1.821639
  H 4.401119 -2.330490 -3.242191
  H 6.703598 0.377390 -2.740099
 23
 48.000939
  C 1.167560 0.750012 0.073614
  C 2.617498 0.443436 0.286705
  C 3.177923 0.178128 1.674676
  C 2.174103 0.246936 2.819532
  H 2.697529 0.039503 3.753697
  C 3.446601 0.333410 -0.738901
  C 4.577510 0.398501 -1.582683
  C 5.152481 -0.702635 -2.222834
  C 4.524322 -2.041333 -2.218832
  H 3.646938 -2.066476 -1.579553
  O 6.251702 -0.596638 -2.943563
  H 0.632102 0.806447 1.014860
  H 0.706255 -0.025427 -0.537904
  H 1.051088 1.701003 -0.443208
  H 3.969956 0.905516 1.852168
  H 3.635492 -0.799114 1.673186
  H 1.391696 -0.490996 2.711908
  H 1.728669 1.239297 2.904479
  H 3.177652 0.699479 -1.855257
  H 5.160606 1.318807 -1.528903
  H 5.256666 -2.789878 -1.872270
  H 4.251686 -2.330690 -3.230495
  H 6.683573 0.274128 -2.901820
 23
 53.901943
  C 1.199954 0.701601 0.064704
  C 2.665239 0.460884 0.309871
  C 3.189320 0.179193 1.718358
  C 2.149004 0.211597 2.827911
  H 2.644352 -0.006143 3.771756
  C 3.523471 0.439357 -0.658223
  C 4.557723 0.476792 -1.632604
  C 5.113028 -0.693512 -2.232558
  C 4.459425 -2.017258 -2.140486
  H 3.580179 -1.980496 -1.506904
  O 6.213423 -0.639512 -2.969809
  H 0.641958 0.732116 0.991218
  H 0.791416 -0.092704 -0.556203
  H 1.056005 1.646270 -0.454380
  H 3.964424 0.915298 1.937417
  H 3.666485 -0.801882 1.709771
  H 1.378337 -0.540391 2.679327
  H 1.686552 1.191542 2.917392
  H 3.485198 0.748413 -2.077734
  H 5.174934 1.373405 -1.639270
  H 5.162938 -2.748356 -1.742506
  H 4.186130 -2.372683 -3.134628
  H 6.634244 0.238389 -3.007625
 23
 49.780705
  C 1.262491 0.590998 0.070840
  C 2.736951 0.436712 0.365058
  C 3.221680 0.232112 1.804097
  C 2.143756 0.248659 2.875771
  H 2.617335 0.091798 3.843101
  C 3.616425 0.437435 -0.576812
  C 4.515983 0.514958 -1.683932
  C 5.063587 -0.698326 -2.278613
  C 4.377405 -1.996744 -2.163997
  H 3.496438 -1.925095 -1.534265
  O 6.154376 -0.672295 -3.006028
  H 0.679524 0.628526 0.980667
  H 0.914731 -0.246896 -0.528248
  H 1.089241 1.505549 -0.489440
  H 3.949547 1.014733 2.022088
  H 3.746785 -0.722521 1.846191
  H 1.418945 -0.548621 2.730491
  H 1.628013 1.205110 2.913084
  H 3.628615 0.767833 -2.314209
  H 5.170606 1.387114 -1.669666
  H 5.059935 -2.739088 -1.750971
  H 4.101001 -2.364760 -3.152221
  H 6.600183 0.194929 -3.058286
 23
 47.462851
  C 1.155557 0.617208 0.118788
  C 2.649044 0.460580 0.292208
  C 3.242786 0.220127 1.689150
  C 2.241877 0.117781 2.828999
  H 2.788603 -0.065543 3.751997
  C 3.450474 0.522661 -0.713653
  C 4.456888 0.569921 -1.718387
  C 5.073165 -0.688853 -2.183028
  C 4.368610 -1.973225 -2.067640
  H 3.398102 -1.851268 -1.599398
  O 6.203930 -0.688917 -2.829520
  H 0.635239 0.553209 1.064969
  H 0.774009 -0.158632 -0.540841
  H 0.937373 1.581856 -0.333321
  H 3.935642 1.037172 1.897689
  H 3.824173 -0.702117 1.645904
  H 1.551213 -0.709425 2.684567
  H 1.680228 1.039939 2.956993
  H 3.859750 0.837372 -2.613927
  H 5.167236 1.384866 -1.558725
  H 4.967093 -2.668846 -1.477284
  H 4.264433 -2.437165 -3.049052
  H 6.669914 0.167313 -2.880903
 23
 47.304226
  C 1.126825 0.729709 0.135430
  C 2.616496 0.512242 0.238756
  C 3.256992 0.218425 1.607346
  C 2.292017 -0.055524 2.749179
  H 2.867012 -0.295322 3.638807
  C 3.386909 0.592476 -0.791226
  C 4.430565 0.590498 -1.757384
  C 5.064782 -0.700154 -2.114881
  C 4.390139 -1.977718 -1.851812
  H 3.406561 -1.824352 -1.419617
  O 6.153934 -0.741666 -2.822992
  H 0.630585 0.535769 1.077845
  H 0.703072 0.076357 -0.622401
  H 0.929327 1.758094 -0.157766
  H 3.885073 1.070630 1.866030
  H 3.909851 -0.648244 1.486952
  H 1.649119 -0.906102 2.531985
  H 1.680412 0.815096 2.979080
  H 3.911147 0.781874 -2.718247
  H 5.139753 1.410057 -1.614079
  H 4.989203 -2.578248 -1.167001
  H 4.318643 -2.565150 -2.768161
  H 6.609129 0.110798 -2.969032
 23
 46.871577
  C 1.100546 0.805796 0.145022
  C 2.591414 0.573956 0.197003
  C 3.272698 0.330489 1.553603
  C 2.388054 -0.285595 2.627410
  H 3.002159 -0.501903 3.500172
  C 3.331118 0.665864 -0.854699
  C 4.392080 0.573743 -1.803357
  C 5.015200 -0.750883 -2.044283
  C 4.363334 -1.997063 -1.624178
  H 3.363831 -1.813212 -1.244829
  O 6.082813 -0.861070 -2.776650
  H 0.623619 0.530789 1.076190
  H 0.655172 0.225453 -0.658140
  H 0.900698 1.858014 -0.049593
  H 3.659840 1.288929 1.906354
  H 4.124543 -0.327538 1.381741
  H 1.948098 -1.218645 2.288489
  H 1.598015 0.390105 2.943745
  H 3.895342 0.704809 -2.785333
  H 5.112559 1.387778 -1.699181
  H 4.956380 -2.476622 -0.842251
  H 4.338728 -2.708168 -2.449631
  H 6.529070 -0.026605 -3.019188
 23
 42.892304
  C 1.154182 0.851394 0.105963
  C 2.645490 0.671607 0.227812
  C 3.207577 0.624714 1.648380
  C 2.532229 -0.431300 2.516040
  H 3.101544 -0.555787 3.434151
  C 3.436196 0.655216 -0.786156
  C 4.439636 0.509863 -1.787198
  C 4.932970 -0.850500 -2.084051
  C 4.248257 -2.038744 -1.563227
  H 3.201965 -1.827178 -1.360436
  O 5.945580 -1.045251 -2.878478
  H 0.635780 0.127533 0.726141
  H 0.829626 0.736539 -0.923295
  H 0.884162 1.848797 0.448281
  H 3.070828 1.613092 2.092049
  H 4.276938 0.420769 1.597985
  H 2.498145 -1.391454 2.007330
  H 1.521443 -0.139527 2.787429
  H 3.957405 0.812647 -2.735243
  H 5.247916 1.235275 -1.643411
  H 4.711270 -2.338955 -0.620269
  H 4.357273 -2.875451 -2.249376
  H 6.408899 -0.244881 -3.192004
