 20
 0.000000
  H 1.499422 0.146869 0.419841
  C 2.579846 0.135953 0.391848
  C 3.270085 0.619963 1.592855
  C 2.326492 1.065548 2.700887
  H 2.888888 1.412407 3.562475
  C 3.178285 -0.326176 -0.757354
  C 4.561281 -0.403040 -0.949851
  C 5.198852 -0.865594 -2.105619
  C 4.515506 -1.350868 -3.319572
  H 3.437047 -1.320513 -3.246420
  O 6.500782 -0.895689 -2.180621
  H 3.934364 1.449629 1.322243
  H 3.935290 -0.165048 1.972380
  H 1.688993 0.245332 3.021108
  H 1.688440 1.878587 2.363870
  H 2.526529 -0.646717 -1.554990
  H 5.200738 -0.078565 -0.139107
  H 4.843604 -2.369234 -3.529337
  H 4.845195 -0.759048 -4.173819
  H 6.971500 -0.577669 -1.387789
 20
 0.373752
  H 1.506841 0.110137 0.424136
  C 2.586655 0.153609 0.380533
  C 3.267562 0.699631 1.561114
  C 2.327465 1.021502 2.713809
  H 2.884345 1.414808 3.559794
  C 3.191989 -0.279260 -0.778051
  C 4.568316 -0.460637 -0.933539
  C 5.206798 -0.848306 -2.114323
  C 4.515085 -1.336370 -3.322480
  H 3.490187 -0.993957 -3.388998
  O 6.507124 -0.813907 -2.216010
  H 3.810633 1.606833 1.268201
  H 4.042165 0.002577 1.901506
  H 1.797272 0.130495 3.041382
  H 1.591360 1.765735 2.419587
  H 2.546101 -0.492944 -1.616904
  H 5.200529 -0.251093 -0.080495
  H 4.508899 -2.427930 -3.304517
  H 5.075157 -1.042688 -4.207465
  H 6.984025 -0.486404 -1.428852
 20
 8.204964
  H 1.622823 -0.337767 0.606722
  C 2.620338 0.048129 0.438708
  C 3.193419 0.910685 1.476954
  C 2.341933 1.018897 2.733899
  H 2.823915 1.665395 3.462002
  C 3.240901 -0.275965 -0.757808
  C 4.566519 -0.662298 -0.888912
  C 5.214015 -0.950661 -2.091483
  C 4.524130 -1.198438 -3.373784
  H 3.603919 -0.633925 -3.468204
  O 6.515821 -1.047681 -2.147699
  H 3.341488 1.906885 1.042723
  H 4.204244 0.570077 1.734003
  H 2.197855 0.042611 3.189991
  H 1.364670 1.437356 2.506950
  H 2.619792 -0.236108 -1.644951
  H 5.165586 -0.697191 0.012496
  H 4.270686 -2.258466 -3.434236
  H 5.194126 -0.977822 -4.200651
  H 6.986374 -0.872595 -1.310721
 20
 25.218698
  H 1.972487 -0.768687 0.887324
  C 2.738226 -0.074801 0.559330
  C 3.042069 1.080228 1.405249
  C 2.313084 1.081350 2.742684
  H 2.591493 1.955332 3.324130
  C 3.360203 -0.308545 -0.696909
  C 4.593841 -0.862955 -0.866804
  C 5.224977 -1.076005 -2.110159
  C 4.539945 -1.008472 -3.413186
  H 3.750762 -0.260427 -3.422540
  O 6.489871 -1.372732 -2.174684
  H 2.793809 1.997099 0.855861
  H 4.128541 1.137284 1.557152
  H 2.559728 0.193214 3.319544
  H 1.235379 1.106219 2.596604
  H 2.776699 -0.033677 -1.573525
  H 5.162911 -1.104410 0.023863
  H 4.084653 -1.970734 -3.628160
  H 5.265928 -0.811017 -4.198941
  H 6.963558 -1.416194 -1.307924
 20
 15.123974
  H 2.591923 -0.983284 1.193581
  C 2.972519 -0.113106 0.674275
  C 2.834662 1.191125 1.331367
  C 2.250445 1.115717 2.734876
  H 2.211781 2.106334 3.179492
  C 3.534438 -0.277006 -0.601745
  C 4.648359 -1.040855 -0.867055
  C 5.225130 -1.205419 -2.131284
  C 4.562894 -0.832852 -3.397197
  H 3.938288 0.048404 -3.292953
  O 6.405331 -1.746437 -2.271968
  H 2.221609 1.859773 0.710008
  H 3.819373 1.671846 1.351757
  H 2.859850 0.483104 3.374990
  H 1.240754 0.713424 2.716280
  H 3.050251 0.241310 -1.422849
  H 5.150645 -1.501272 -0.027062
  H 3.923557 -1.656721 -3.717273
  H 5.310867 -0.677442 -4.170292
  H 6.835387 -2.031773 -1.444439
 20
 4.792544
  H 3.077466 -0.943421 1.341156
  C 3.177886 -0.054348 0.730493
  C 2.709830 1.209617 1.302702
  C 2.240955 1.126820 2.754160
  H 1.919741 2.105624 3.099898
  C 3.673428 -0.181943 -0.543134
  C 4.596857 -1.137197 -0.914243
  C 5.171385 -1.299068 -2.157231
  C 4.593499 -0.748526 -3.413976
  H 4.084968 0.189742 -3.246108
  O 6.287456 -1.955029 -2.305932
  H 1.877937 1.591732 0.696416
  H 3.504241 1.952686 1.189951
  H 3.035477 0.772472 3.404856
  H 1.396052 0.446261 2.850020
  H 3.295998 0.505733 -1.309707
  H 4.939198 -1.782125 -0.109265
  H 3.865698 -1.466060 -3.798344
  H 5.368960 -0.639022 -4.173645
  H 6.736186 -2.243052 -1.496014
 20
 3.462426
  H 3.441805 -0.829373 1.471506
  C 3.299614 -0.006284 0.786667
  C 2.597692 1.180738 1.288602
  C 2.223871 1.110838 2.761774
  H 1.714659 2.019363 3.068194
  C 3.769806 -0.118699 -0.497881
  C 4.531170 -1.208228 -0.919949
  C 5.113432 -1.384425 -2.175316
  C 4.624153 -0.724859 -3.401620
  H 4.307506 0.293148 -3.200081
  O 6.106356 -2.228472 -2.336688
  H 1.693907 1.339243 0.683852
  H 3.209708 2.071550 1.091968
  H 3.109020 0.993041 3.380980
  H 1.561067 0.272229 2.953933
  H 3.555415 0.678133 -1.194831
  H 4.770792 -1.955733 -0.170326
  H 3.753261 -1.258695 -3.786312
  H 5.390443 -0.750311 -4.169917
  H 6.754661 -2.289085 -1.612856
 20
 9.896227
  H 3.546188 -0.786358 1.532262
  C 3.320095 -0.006086 0.816333
  C 2.549231 1.148842 1.285944
  C 2.216087 1.125627 2.768413
  H 1.649562 2.006274 3.044118
  C 3.765601 -0.139053 -0.474422
  C 4.517098 -1.242494 -0.892069
  C 5.075068 -1.424115 -2.151576
  C 4.659984 -0.674396 -3.350351
  H 4.486278 0.375369 -3.124038
  O 5.968586 -2.402483 -2.320610
  H 1.625505 1.216767 0.696832
  H 3.088295 2.070680 1.030960
  H 3.120642 1.104460 3.367570
  H 1.623770 0.250756 3.019592
  H 3.536286 0.644205 -1.184062
  H 4.767938 -1.989624 -0.147128
  H 3.710585 -1.075238 -3.724209
  H 5.393785 -0.784085 -4.140330
  H 6.872154 -2.212442 -2.026275
 20
 6.033889
  H 3.541357 -0.780049 1.568987
  C 3.288620 -0.025973 0.837380
  C 2.520840 1.134333 1.291873
  C 2.233061 1.153783 2.782890
  H 1.690898 2.054559 3.053961
  C 3.688127 -0.202477 -0.465002
  C 4.493119 -1.277747 -0.853395
  C 5.074209 -1.440638 -2.108536
  C 4.743210 -0.626711 -3.292973
  H 4.570024 0.414873 -3.048241
  O 5.929927 -2.450086 -2.235300
  H 1.579703 1.175892 0.730819
  H 3.043759 2.050864 0.992291
  H 3.156107 1.129036 3.355692
  H 1.630175 0.293971 3.073755
  H 3.390595 0.528603 -1.199819
  H 4.774975 -2.002474 -0.100876
  H 3.814131 -1.013441 -3.713331
  H 5.510953 -0.707520 -4.062451
  H 6.802731 -2.203829 -2.584930
 20
 2.868792
  H 3.401705 -0.828615 1.536146
  C 3.260275 -0.020135 0.831250
  C 2.580700 1.189406 1.308063
  C 2.215214 1.158936 2.785227
  H 1.707651 2.076314 3.070818
  C 3.737865 -0.161334 -0.447154
  C 4.452859 -1.289278 -0.850879
  C 5.091124 -1.447170 -2.084516
  C 4.711599 -0.717123 -3.307237
  H 4.442258 0.315097 -3.106087
  O 6.046746 -2.349236 -2.126410
  H 1.675770 1.346579 0.705475
  H 3.206095 2.063764 1.088997
  H 3.106163 1.060711 3.401478
  H 1.555877 0.323378 3.005385
  H 3.560729 0.635806 -1.154798
  H 4.649660 -2.058190 -0.113899
  H 3.821068 -1.200550 -3.715084
  H 5.488837 -0.753764 -4.065367
  H 6.765544 -2.145064 -2.751226
 20
 9.827880
  H 3.229680 -0.869276 1.452905
  C 3.239561 0.012565 0.820650
  C 2.717085 1.262839 1.384676
  C 2.202304 1.129575 2.809083
  H 1.769461 2.066566 3.144799
  C 3.756080 -0.080358 -0.447922
  C 4.339453 -1.246864 -0.930679
  C 5.104821 -1.364385 -2.101590
  C 4.621709 -0.915271 -3.417595
  H 4.055621 0.009541 -3.354964
  O 6.193627 -2.098105 -1.991825
  H 1.916160 1.632868 0.736361
  H 3.497391 2.035752 1.335522
  H 3.008270 0.867233 3.488300
  H 1.436689 0.361032 2.874091
  H 3.778428 0.808903 -1.064138
  H 4.348839 -2.116578 -0.278252
  H 3.928645 -1.680887 -3.764573
  H 5.415317 -0.823177 -4.152600
  H 6.936774 -1.809728 -2.553027
 20
 27.462958
  H 3.078447 -0.850287 1.341753
  C 3.251493 0.076110 0.814979
  C 2.838085 1.323303 1.476888
  C 2.186945 1.104086 2.837965
  H 1.870387 2.052670 3.264616
  C 3.848918 0.043649 -0.424185
  C 4.287590 -1.128337 -1.008745
  C 5.046290 -1.273438 -2.203923
  C 4.541613 -1.219724 -3.567081
  H 3.804904 -0.429102 -3.696778
  O 6.228124 -1.814163 -1.921699
  H 2.150186 1.864269 0.817616
  H 3.710052 1.978170 1.584810
  H 2.883685 0.638671 3.529773
  H 1.310927 0.464227 2.749814
  H 4.023296 0.977350 -0.941382
  H 4.110880 -2.055769 -0.470120
  H 4.019817 -2.165293 -3.742909
  H 5.337402 -1.135236 -4.303106
  H 7.005463 -1.288839 -2.173109
 20
 51.483081
  H 4.070452 1.125251 1.083255
  C 3.390357 0.339174 0.782138
  C 2.289448 0.016867 1.707047
  C 2.278308 0.895164 2.953443
  H 1.468519 0.603186 3.616166
  C 3.581901 -0.295913 -0.418927
  C 4.645796 0.012114 -1.258203
  C 4.934492 -0.612995 -2.513813
  C 5.702579 -1.674926 -3.100379
  H 5.555267 -2.604752 -2.549444
  O 4.522103 0.508795 -3.211781
  H 2.378548 -1.033487 2.003522
  H 1.334490 0.105974 1.179202
  H 2.139496 1.940666 2.689481
  H 3.213254 0.799475 3.502234
  H 2.893551 -1.070849 -0.724762
  H 5.340064 0.763149 -0.895296
  H 6.769700 -1.436197 -3.038711
  H 5.451742 -1.810348 -4.150424
  H 3.673067 0.423582 -3.679348
 20
 61.248681
  H 4.077438 1.105637 1.074269
  C 3.375955 0.358185 0.729175
  C 2.259747 0.027389 1.659665
  C 2.272674 0.890402 2.916099
  H 1.450014 0.617337 3.572281
  C 3.550197 -0.216903 -0.459953
  C 4.697970 0.097528 -1.312074
  C 5.081272 -0.721209 -2.413340
  C 5.786291 -1.740740 -3.139962
  H 5.757830 -2.674349 -2.578629
  O 4.382390 0.473236 -2.777355
  H 2.331046 -1.026531 1.941336
  H 1.304820 0.148461 1.141909
  H 2.167689 1.943104 2.663518
  H 3.201410 0.757789 3.466333
  H 2.867964 -0.978738 -0.808327
  H 5.393000 0.833992 -0.908996
  H 6.846120 -1.490292 -3.285190
  H 5.346623 -1.882948 -4.125660
  H 3.427961 0.358463 -3.017874
 20
 61.077286
  H 4.150575 1.017857 1.109510
  C 3.406400 0.323508 0.737694
  C 2.281120 0.011281 1.665968
  C 2.256810 0.931064 2.878926
  H 1.439885 0.660771 3.544966
  C 3.540838 -0.206562 -0.475451
  C 4.686651 0.096479 -1.337295
  C 5.059392 -0.737253 -2.436136
  C 5.791183 -1.725883 -3.177164
  H 5.719094 -2.689202 -2.672870
  O 4.375521 0.474159 -2.782675
  H 2.380385 -1.026849 2.001565
  H 1.331338 0.080906 1.132720
  H 2.115571 1.962404 2.575549
  H 3.187918 0.860656 3.437050
  H 2.822638 -0.927021 -0.842035
  H 5.404905 0.806139 -0.926430
  H 6.860682 -1.485329 -3.247454
  H 5.403716 -1.806086 -4.191313
  H 3.418512 0.372891 -3.019723
