22

C 0.986964 0.138002 0.37789
C 2.464716 0.142258 0.39292
C 3.239071 0.610428 1.569499
C 2.450119 1.095982 2.782766
H 3.108261487010581 1.4077558571971918 3.5666955432370897
C 3.089247 -0.318443 -0.75754
C 4.468218 -0.406418 -0.972231
C 5.129709 -0.861254 -2.101753
C 4.615906 -1.38496 -3.400148
H 3.5680607676006932 -1.4673232090730013 -3.600489385463016
H 6.199672188637636 -0.8610231045215251 -2.1106255220574774
H 0.538984 0.502146 1.295722
H 0.620825 -0.874858 0.203927
H 0.621458 0.757173 -0.442975
H 3.896692 1.424302 1.243233
H 3.893971 -0.206319 1.893973
H 1.810094 0.296847 3.162115
H 1.812829 1.938549 2.506884
H 2.434029 -0.635199 -1.550905
H 5.091005 -0.076457 -0.148876
H 5.067793 -2.375303 -3.52858
H 5.065248 -0.759014 -4.179744
