 14
 0.000000
  H 1.432221 -0.076008 0.038843
  C 2.506046 -0.082631 0.025843
  C 3.219976 -0.593449 -0.976981
  C 4.657996 -0.604750 -0.999161
  C 5.379279 -1.119437 -2.009577
  C 6.817530 -1.130904 -2.032088
  C 7.530099 -1.641891 -3.035249
  H 8.603713 -1.654630 -3.060253
  H 3.002637 0.352454 0.879989
  H 2.710889 -1.027211 -1.828521
  H 5.161978 -0.169951 -0.145582
  H 4.874926 -1.554135 -2.862960
  H 7.325747 -0.696946 -1.180156
  H 7.033408 -2.077295 -3.890003
 14
 -0.095474
  H 1.433812 -0.122592 0.057699
  C 2.509344 -0.094724 0.042540
  C 3.219626 -0.599861 -0.964241
  C 4.657050 -0.576753 -1.016323
  C 5.377831 -1.112187 -2.015326
  C 6.815586 -1.097286 -2.062648
  C 7.528450 -1.667568 -3.031923
  H 8.604336 -1.647895 -3.041408
  H 2.989817 0.366667 0.890105
  H 2.715707 -1.061878 -1.803925
  H 5.163222 -0.097391 -0.187658
  H 4.871832 -1.595731 -2.841640
  H 7.318347 -0.594017 -1.246323
  H 7.051677 -2.175459 -3.854572
 14
 -0.055866
  H 1.433546 -0.178887 0.083494
  C 2.506830 -0.109324 0.045228
  C 3.213652 -0.613403 -0.964356
  C 4.647824 -0.538837 -1.050526
  C 5.369257 -1.107593 -2.030392
  C 6.805014 -1.050916 -2.103086
  C 7.524922 -1.685190 -3.026339
  H 8.599709 -1.634428 -3.047973
  H 2.985055 0.391628 0.871101
  H 2.710143 -1.118272 -1.779263
  H 5.151675 0.005089 -0.261152
  H 4.866577 -1.659232 -2.815049
  H 7.300464 -0.464929 -1.339062
  H 7.057059 -2.276658 -3.796431
 14
 0.025345
  H 1.454380 -0.243011 0.144203
  C 2.522101 -0.130338 0.073022
  C 3.220889 -0.633971 -0.942388
  C 4.648462 -0.505441 -1.069804
  C 5.373374 -1.109877 -2.025185
  C 6.805016 -1.009497 -2.123853
  C 7.538746 -1.700441 -2.994053
  H 8.611133 -1.618807 -3.029025
  H 3.001626 0.412018 0.871529
  H 2.716724 -1.181825 -1.728102
  H 5.145808 0.107169 -0.328298
  H 4.879166 -1.731644 -2.761612
  H 7.287380 -0.346540 -1.416606
  H 7.085045 -2.368266 -3.707622
 14
 0.158500
  H 1.482259 -0.313065 0.214159
  C 2.538935 -0.149123 0.098805
  C 3.224714 -0.650808 -0.925908
  C 4.641021 -0.463272 -1.105728
  C 5.371578 -1.106950 -2.031014
  C 6.796892 -0.963989 -2.159704
  C 7.548167 -1.708012 -2.969255
  H 8.618279 -1.600322 -3.015186
  H 3.019762 0.440590 0.863263
  H 2.720567 -1.251288 -1.674648
  H 5.125131 0.223545 -0.427813
  H 4.891478 -1.808949 -2.701731
  H 7.263382 -0.230355 -1.513018
  H 7.112051 -2.446069 -3.621502
 14
 0.373620
  H 1.518174 -0.383566 0.296419
  C 2.558626 -0.167065 0.125532
  C 3.230909 -0.685539 -0.900361
  C 4.626216 -0.430134 -1.147339
  C 5.370220 -1.116466 -2.030845
  C 6.784812 -0.915936 -2.199562
  C 7.565709 -1.697986 -2.942432
  H 8.630776 -1.554236 -2.997273
  H 3.035246 0.487760 0.836498
  H 2.733813 -1.351851 -1.594390
  H 5.086679 0.349385 -0.552657
  H 4.917878 -1.908423 -2.614299
  H 7.223780 -0.114231 -1.619204
  H 7.159165 -2.502868 -3.532497
 14
 0.726231
  H 1.563005 -0.443795 0.386911
  C 2.582718 -0.185047 0.157392
  C 3.242800 -0.736937 -0.858862
  C 4.608821 -0.417829 -1.184471
  C 5.370122 -1.135030 -2.027723
  C 6.767204 -0.868567 -2.243306
  C 7.589711 -1.666915 -2.921205
  H 8.648184 -1.481181 -2.974682
  H 3.047546 0.545678 0.799570
  H 2.758692 -1.477204 -1.483572
  H 5.030656 0.450287 -0.692832
  H 4.959831 -2.013865 -2.509136
  H 7.169109 -0.008780 -1.720888
  H 7.225125 -2.525743 -3.461232
 14
 1.182304
  H 1.598459 -0.452975 0.444399
  C 2.603047 -0.172699 0.169019
  C 3.247842 -0.755617 -0.838874
  C 4.588770 -0.400438 -1.226796
  C 5.366257 -1.137576 -2.037892
  C 6.749191 -0.826462 -2.275765
  C 7.616884 -1.622921 -2.898983
  H 8.662337 -1.389630 -2.953506
  H 3.058361 0.613366 0.751052
  H 2.775606 -1.553967 -1.397246
  H 4.983037 0.512955 -0.802493
  H 4.994216 -2.071344 -2.447720
  H 7.113114 0.066695 -1.787899
  H 7.297562 -2.518472 -3.409018
 14
 0.950462
  H 1.627319 -0.522089 0.495288
  C 2.601920 -0.204721 0.174343
  C 3.254950 -0.806182 -0.818788
  C 4.577439 -0.421149 -1.236009
  C 5.371164 -1.162571 -2.026628
  C 6.746425 -0.823555 -2.276359
  C 7.629535 -1.623058 -2.870591
  H 8.669593 -1.359447 -2.959896
  H 3.034466 0.628973 0.706428
  H 2.810559 -1.649577 -1.334146
  H 4.955426 0.507880 -0.828670
  H 5.015604 -2.106506 -2.420837
  H 7.080079 0.113570 -1.846163
  H 7.334376 -2.561214 -3.310860
 14
 0.918691
  H 1.605380 -0.510541 0.466992
  C 2.604220 -0.220795 0.189927
  C 3.266863 -0.810235 -0.802549
  C 4.604257 -0.440946 -1.187466
  C 5.391870 -1.166367 -1.998438
  C 6.770281 -0.833854 -2.243778
  C 7.643723 -1.624747 -2.863889
  H 8.688375 -1.375058 -2.932929
  H 3.039463 0.591083 0.750429
  H 2.814525 -1.627829 -1.349105
  H 4.986011 0.479592 -0.763788
  H 5.028099 -2.096007 -2.417483
  H 7.120222 0.079402 -1.777627
  H 7.335887 -2.537768 -3.346953
 14
 0.684038
  H 1.599742 -0.555000 0.450157
  C 2.598173 -0.255389 0.182904
  C 3.248903 -0.782326 -0.852254
  C 4.599372 -0.418416 -1.196467
  C 5.392301 -1.141379 -2.003084
  C 6.780410 -0.833271 -2.221967
  C 7.634015 -1.641754 -2.846729
  H 8.677529 -1.399671 -2.951110
  H 3.058077 0.494081 0.806128
  H 2.783847 -1.550258 -1.457285
  H 4.997709 0.463605 -0.710076
  H 5.010250 -2.038141 -2.474343
  H 7.135362 0.094152 -1.789851
  H 7.311444 -2.572917 -3.283629
 14
 1.087476
  H 1.635642 -0.600303 0.489849
  C 2.625313 -0.288828 0.204111
  C 3.234138 -0.753641 -0.884702
  C 4.581981 -0.386346 -1.237717
  C 5.379264 -1.124021 -2.026417
  C 6.771852 -0.824306 -2.231243
  C 7.635435 -1.656817 -2.808011
  H 8.680713 -1.418419 -2.905503
  H 3.120821 0.407446 0.861192
  H 2.742200 -1.476660 -1.522533
  H 4.981930 0.495904 -0.753502
  H 4.998273 -2.023798 -2.491504
  H 7.119348 0.120795 -1.832731
  H 7.320225 -2.607692 -3.208896
