 17
 0.000000
  H 1.537716 0.039149 0.047223
  C 2.610898 0.045217 0.034807
  C 3.324056 0.539019 -0.976354
  C 4.761268 0.549408 -0.997628
  C 5.481865 1.047690 -2.017945
  C 6.919344 1.057348 -2.037732
  C 7.636653 1.551756 -3.050129
  C 9.125694 1.570841 -3.089213
  H 3.106940 -0.375637 0.896572
  H 2.813994 0.958011 -1.834325
  H 5.265306 0.129218 -0.137213
  H 4.977982 1.467940 -2.878498
  H 7.425881 0.637648 -1.178318
  H 7.137781 1.973180 -3.913061
  H 9.559457 1.133085 -2.192813
  H 9.484495 2.596852 -3.178944
  H 9.484499 1.010742 -3.953526
 17
 13.223778
  H 1.467042 0.003058 0.121128
  C 2.538285 0.004718 0.117736
  C 3.342237 0.556044 -1.011218
  C 4.765046 0.561659 -1.022717
  C 5.495797 1.059207 -2.041530
  C 6.931204 1.065333 -2.054086
  C 7.657305 1.558007 -3.062931
  C 9.146129 1.573395 -3.094445
  H 3.029014 -0.415047 0.977276
  H 2.835963 0.974097 -1.867267
  H 5.262303 0.139882 -0.159051
  H 4.997985 1.480963 -2.905165
  H 7.431104 0.644092 -1.191516
  H 7.164457 1.980804 -3.928671
  H 9.572494 1.134329 -2.195362
  H 9.508475 2.598159 -3.182837
  H 9.508475 1.013012 -3.956944
 17
 38.730957
  H 1.437441 -0.020719 0.169800
  C 2.505951 -0.037492 0.204157
  C 3.352197 0.584572 -1.069621
  C 4.747836 0.579962 -1.060187
  C 5.487851 1.069113 -2.061816
  C 6.933367 1.072313 -2.068354
  C 7.680040 1.559872 -3.066747
  C 9.169007 1.569285 -3.086037
  H 3.058455 -0.441067 1.030535
  H 2.766184 0.978596 -1.876458
  H 5.246638 0.160963 -0.202214
  H 4.989739 1.491717 -2.927180
  H 7.424100 0.647975 -1.199457
  H 7.195584 1.985048 -3.937378
  H 9.574344 1.126604 -2.179535
  H 9.540889 2.590862 -3.175792
  H 9.540881 1.011926 -3.946846
 17
 67.822346
  H 1.388092 -0.054224 0.238443
  C 2.449435 -0.083430 0.298222
  C 3.361118 0.602879 -1.107110
  C 4.738777 0.592483 -1.085839
  C 5.509556 1.089622 -2.103837
  C 6.932793 1.083378 -2.091011
  C 7.699383 1.568212 -3.083827
  C 9.189544 1.566330 -3.079966
  H 3.031793 -0.474549 1.099087
  H 2.733998 0.982329 -1.884090
  H 5.234663 0.170911 -0.222600
  H 5.022458 1.513677 -2.972168
  H 7.408513 0.657007 -1.217944
  H 7.228218 1.996731 -3.961307
  H 9.578961 1.120801 -2.167654
  H 9.570096 2.584559 -3.165320
  H 9.570082 1.007551 -3.935435
 17
 96.291149
  H 1.323819 -0.091622 0.314991
  C 2.386531 -0.125207 0.383758
  C 3.376883 0.621923 -1.146096
  C 4.745049 0.606948 -1.115433
  C 5.526175 1.103310 -2.131840
  C 6.944103 1.092149 -2.108985
  C 7.717460 1.572889 -3.093418
  C 9.201861 1.565435 -3.078138
  H 2.977126 -0.514544 1.180985
  H 2.737307 0.999534 -1.919324
  H 5.237331 0.183887 -0.249151
  H 5.044599 1.528985 -3.003484
  H 7.414048 0.663057 -1.230347
  H 7.255416 2.001816 -3.971735
  H 9.581774 1.118418 -2.162766
  H 9.587026 2.582961 -3.160958
  H 9.587022 1.005089 -3.931492
 17
 121.750298
  H 1.253669 -0.132183 0.398007
  C 2.314112 -0.170044 0.475557
  C 3.378190 0.639164 -1.181392
  C 4.738773 0.619365 -1.140834
  C 5.534040 1.115942 -2.157674
  C 6.952503 1.099294 -2.123624
  C 7.745560 1.581343 -3.110737
  C 9.233806 1.567167 -3.081694
  H 2.916063 -0.555637 1.265133
  H 2.724861 1.010249 -1.941274
  H 5.227231 0.195901 -0.273724
  H 5.058758 1.542686 -3.031510
  H 7.413319 0.668785 -1.242087
  H 7.292110 2.013168 -3.994993
  H 9.603068 1.118301 -2.162526
  H 9.625034 2.582756 -3.161455
  H 9.625034 1.005598 -3.931636
 17
 142.902338
  H 1.235528 -0.176709 0.489140
  C 2.288487 -0.215396 0.568427
  C 3.381523 0.666840 -1.238064
  C 4.723310 0.642346 -1.187883
  C 5.540827 1.139809 -2.206530
  C 6.945291 1.111162 -2.147919
  C 7.758818 1.585228 -3.118689
  C 9.247979 1.555441 -3.057688
  H 2.930307 -0.583959 1.323128
  H 2.674341 1.012700 -1.946308
  H 5.214230 0.219690 -0.322407
  H 5.074402 1.567684 -3.082671
  H 7.390388 0.678763 -1.262518
  H 7.324004 2.021297 -4.011624
  H 9.594623 1.102895 -2.130987
  H 9.652142 2.566811 -3.129352
  H 9.652140 0.990067 -3.899336
 17
 160.724116
  H 1.156950 -0.218925 0.575588
  C 2.219750 -0.259122 0.657973
  C 3.393198 0.683512 -1.272206
  C 4.728842 0.655884 -1.215612
  C 5.556286 1.152119 -2.231745
  C 6.960265 1.118637 -2.163226
  C 7.783075 1.590648 -3.129784
  C 9.264625 1.555752 -3.058326
  H 2.867125 -0.631193 1.419841
  H 2.675670 1.031777 -1.985370
  H 5.215381 0.231154 -0.345890
  H 5.096322 1.581615 -3.111208
  H 7.399697 0.683278 -1.271759
  H 7.358049 2.026717 -4.022715
  H 9.602277 1.102419 -2.130016
  H 9.672356 2.565342 -3.126821
  H 9.672350 0.988977 -3.896622
 17
 174.887952
  H 1.098667 -0.264738 0.669403
  C 2.155071 -0.304034 0.749947
  C 3.397376 0.701761 -1.309578
  C 4.729455 0.671414 -1.247420
  C 5.567487 1.165954 -2.260081
  C 6.967965 1.126631 -2.179596
  C 7.801840 1.595212 -3.139126
  C 9.287331 1.553288 -3.053279
  H 2.803889 -0.672372 1.504155
  H 2.673896 1.042340 -2.006995
  H 5.212335 0.246558 -0.377439
  H 5.114493 1.596429 -3.141548
  H 7.397971 0.690525 -1.286599
  H 7.385460 2.034001 -4.037627
  H 9.614849 1.098014 -2.121000
  H 9.701235 2.561732 -3.117888
  H 9.701229 0.984155 -3.888282
 17
 185.739222
  H 1.029219 -0.310895 0.763913
  C 2.092019 -0.348956 0.841956
  C 3.405201 0.719504 -1.345914
  C 4.730561 0.686464 -1.278242
  C 5.580575 1.179572 -2.287973
  C 6.979018 1.134133 -2.194963
  C 7.824717 1.599684 -3.148285
  C 9.305735 1.550861 -3.048314
  H 2.745910 -0.718721 1.599051
  H 2.668806 1.057904 -2.038862
  H 5.209627 0.260126 -0.405228
  H 5.135128 1.611539 -3.172492
  H 7.400392 0.695810 -1.297420
  H 7.419381 2.039671 -4.049242
  H 9.621758 1.094451 -2.113712
  H 9.724671 2.556526 -3.108724
  H 9.724658 0.980134 -3.878533
 17
 193.553053
  H 0.960135 -0.361288 0.867065
  C 2.024228 -0.393960 0.934160
  C 3.411463 0.736398 -1.380512
  C 4.733003 0.701388 -1.308793
  C 5.594315 1.192655 -2.314755
  C 6.989537 1.141337 -2.209712
  C 7.845473 1.603696 -3.156500
  C 9.326239 1.548351 -3.043171
  H 2.671657 -0.766239 1.696319
  H 2.673445 1.071828 -2.067370
  H 5.207377 0.274053 -0.433734
  H 5.156584 1.626020 -3.202145
  H 7.402195 0.701509 -1.309081
  H 7.449584 2.045482 -4.061147
  H 9.632648 1.090369 -2.105346
  H 9.750395 2.552968 -3.099706
  H 9.750392 0.975200 -3.870199
 17
 197.911072
  H 0.866870 -0.416370 0.979772
  C 1.942794 -0.437860 1.024122
  C 3.424391 0.749556 -1.407446
  C 4.742516 0.713382 -1.333321
  C 5.613793 1.203056 -2.336036
  C 7.007127 1.147396 -2.222116
  C 7.869337 1.607972 -3.165271
  C 9.345637 1.548808 -3.044128
  H 2.567537 -0.822830 1.812132
  H 2.696020 1.091877 -2.108416
  H 5.210379 0.283973 -0.454004
  H 5.183423 1.638065 -3.226813
  H 7.413864 0.706099 -1.318462
  H 7.480576 2.050335 -4.071112
  H 9.646535 1.090460 -2.105538
  H 9.771780 2.551982 -3.098131
  H 9.771768 0.974548 -3.868440
 17
 199.036813
  H 0.775147 -0.475236 1.100193
  C 1.857031 -0.481816 1.114189
  C 3.434170 0.762307 -1.433545
  C 4.751936 0.724983 -1.357020
  C 5.632518 1.212499 -2.355340
  C 7.023531 1.152770 -2.233114
  C 7.891246 1.611351 -3.172211
  C 9.367777 1.548553 -3.043629
  H 2.448898 -0.879443 1.927968
  H 2.720632 1.109443 -2.144371
  H 5.213159 0.294165 -0.474802
  H 5.209146 1.648778 -3.248755
  H 7.424289 0.710707 -1.327865
  H 7.507961 2.054881 -4.080466
  H 9.664408 1.089413 -2.103396
  H 9.796308 2.551372 -3.095815
  H 9.796296 0.973058 -3.866536
 17
 198.364491
  H 0.680318 -0.534338 1.221065
  C 1.768451 -0.526223 1.205123
  C 3.444105 0.773827 -1.457122
  C 4.761727 0.734957 -1.377358
  C 5.650857 1.220125 -2.370899
  C 7.040735 1.156617 -2.240985
  C 7.913701 1.613386 -3.176420
  C 9.387961 1.547415 -3.041338
  H 2.325901 -0.936456 2.044601
  H 2.742679 1.127240 -2.180789
  H 5.216652 0.302488 -0.491734
  H 5.233893 1.657683 -3.266984
  H 7.436076 0.713627 -1.333804
  H 7.535778 2.057633 -4.086181
  H 9.680127 1.087986 -2.100473
  H 9.818188 2.548995 -3.092000
  H 9.818175 0.971447 -3.862318
 17
 192.826401
  H 0.818649 -0.456565 1.347818
  C 1.902709 -0.438812 1.146843
  C 3.417010 0.803600 -1.507353
  C 4.721718 0.639039 -1.471957
  C 5.631185 1.143118 -2.440400
  C 7.016109 1.136281 -2.249778
  C 7.906796 1.646989 -3.138419
  C 9.379941 1.557609 -2.986277
  H 2.382462 -0.884409 2.034533
  H 2.654724 1.118892 -2.181505
  H 5.167194 0.186960 -0.591225
  H 5.226366 1.639443 -3.310987
  H 7.393911 0.656360 -1.354996
  H 7.544606 2.136807 -4.032251
  H 9.652961 1.045195 -2.067174
  H 9.814233 2.558406 -2.974062
  H 9.824751 1.027496 -3.830426
