 22
 0.000000
  C 0.999753 0.058392 0.184707
  C 2.504101 0.056817 0.163905
  C 3.290268 -0.012298 1.449957
  C 2.498667 -0.096405 2.752468
  C 3.441234 -0.161227 3.950032
  C 3.124662 0.122391 -1.021130
  H 2.513122 0.173128 -1.910861
  C 4.548258 0.133161 -1.256148
  C 5.083679 0.200549 -2.474291
  H 6.147541 0.207197 -2.631740
  H 0.598187 0.016604 1.191005
  H 0.610175 -0.797934 -0.366811
  H 0.618759 0.956812 -0.296755
  H 3.935543 0.871755 1.503675
  H 3.950271 -0.885578 1.400116
  H 1.869224 -0.988919 2.752720
  H 1.856065 0.780072 2.859855
  H 4.084940 -1.036304 3.884473
  H 2.876294 -0.221244 4.877809
  H 4.071490 0.725067 3.990207
  H 5.198405 0.083545 -0.391762
  H 4.468796 0.251522 -3.357848
 22
 6.067473
  C 0.993813 0.113862 0.209846
  C 2.465295 0.063046 0.168959
  C 3.271506 -0.001787 1.446445
  C 2.491738 -0.108674 2.754299
  C 3.444076 -0.167297 3.944642
  C 3.093364 0.122369 -1.015228
  H 2.487591 0.176589 -1.912623
  C 4.522968 0.117803 -1.242032
  C 5.084375 0.181327 -2.486485
  H 6.152810 0.180017 -2.634100
  H 0.544997 0.033582 1.186381
  H 0.871200 -0.775807 -0.374252
  H 0.574234 0.972459 -0.301296
  H 3.902058 0.892143 1.500110
  H 3.946759 -0.861226 1.384907
  H 1.876885 -1.011639 2.750527
  H 1.836371 0.756879 2.872446
  H 4.101769 -1.030917 3.867699
  H 2.887190 -0.243517 4.875983
  H 4.060197 0.728716 3.986613
  H 5.164983 0.063636 -0.372697
  H 4.478061 0.237170 -3.378716
 22
 17.978559
  C 0.982547 0.151963 0.209077
  C 2.440896 0.088276 0.174438
  C 3.271616 0.024277 1.452569
  C 2.494419 -0.118934 2.755684
  C 3.444315 -0.176317 3.948629
  C 3.083053 0.140872 -1.028775
  H 2.477667 0.217716 -1.925488
  C 4.510566 0.093491 -1.256491
  C 5.055828 0.152236 -2.466935
  H 6.120869 0.126449 -2.613471
  H 0.504190 0.024838 1.161804
  H 1.089161 -0.743817 -0.360982
  H 0.545819 0.961074 -0.348217
  H 3.876298 0.935618 1.515223
  H 3.970033 -0.815595 1.380211
  H 1.896664 -1.035584 2.733729
  H 1.819552 0.732112 2.882916
  H 4.120493 -1.025285 3.860790
  H 2.885819 -0.278244 4.877652
  H 4.041920 0.731840 4.006007
  H 5.152739 0.015808 -0.396518
  H 4.450486 0.234523 -3.357114
 22
 31.597424
  C 0.968283 0.182795 0.230700
  C 2.430062 0.092629 0.175353
  C 3.260523 0.026586 1.447083
  C 2.488886 -0.128193 2.749315
  C 3.440862 -0.185435 3.933565
  C 3.081717 0.144542 -1.038571
  H 2.481093 0.233858 -1.932949
  C 4.498384 0.089135 -1.258115
  C 5.054965 0.145809 -2.468894
  H 6.117599 0.107592 -2.607170
  H 0.491735 0.085404 1.184010
  H 1.250165 -0.738231 -0.261170
  H 0.506397 0.921773 -0.403569
  H 3.851442 0.942924 1.508006
  H 3.966037 -0.802462 1.371551
  H 1.898058 -1.047191 2.725348
  H 1.810584 0.717084 2.884107
  H 4.120967 -1.029046 3.838610
  H 2.887624 -0.295069 4.862809
  H 4.032079 0.725420 3.992244
  H 5.135424 0.002512 -0.394702
  H 4.457891 0.237426 -3.362468
 22
 42.844483
  C 0.967280 0.207815 0.248795
  C 2.433230 0.097534 0.172070
  C 3.255566 0.029300 1.437852
  C 2.477917 -0.132181 2.743626
  C 3.430090 -0.199730 3.930966
  C 3.083299 0.152343 -1.047532
  H 2.475420 0.255605 -1.938215
  C 4.495384 0.083254 -1.271723
  C 5.051964 0.142912 -2.482619
  H 6.112547 0.107060 -2.620439
  H 0.498452 0.182254 1.211633
  H 1.390538 -0.747315 -0.121696
  H 0.471670 0.833881 -0.482369
  H 3.839033 0.949681 1.496823
  H 3.965397 -0.794992 1.362396
  H 1.883963 -1.047920 2.714015
  H 1.802456 0.713416 2.884023
  H 4.108216 -1.045790 3.832333
  H 2.874963 -0.312799 4.859576
  H 4.024962 0.709741 3.995585
  H 5.137475 -0.010204 -0.407340
  H 4.457407 0.245850 -3.371031
 22
 50.869273
  C 0.948187 0.231597 0.242639
  C 2.414635 0.106921 0.156814
  C 3.235699 0.037557 1.428707
  C 2.473646 -0.134807 2.741738
  C 3.446733 -0.215354 3.920781
  C 3.073568 0.166154 -1.056416
  H 2.475293 0.269510 -1.948840
  C 4.486260 0.097965 -1.265678
  C 5.060109 0.144079 -2.469266
  H 6.123573 0.076995 -2.593834
  H 0.477230 0.252523 1.209507
  H 1.485286 -0.738446 -0.035500
  H 0.439496 0.750631 -0.539186
  H 3.815231 0.963548 1.487628
  H 3.951405 -0.786004 1.346692
  H 1.877069 -1.050760 2.711573
  H 1.802286 0.711458 2.901289
  H 4.121141 -1.060303 3.806018
  H 2.904933 -0.335724 4.855336
  H 4.043602 0.691104 3.985639
  H 5.115784 -0.002177 -0.396498
  H 4.478761 0.229693 -3.365052
 22
 56.393212
  C 0.947316 0.254761 0.245092
  C 2.413591 0.104672 0.155049
  C 3.238282 0.038280 1.429671
  C 2.471919 -0.131598 2.747005
  C 3.440212 -0.227733 3.921516
  C 3.072042 0.157064 -1.066608
  H 2.467152 0.261485 -1.955263
  C 4.482222 0.076457 -1.276950
  C 5.060036 0.133835 -2.481144
  H 6.123999 0.106792 -2.599906
  H 0.472521 0.332013 1.203690
  H 1.570423 -0.740195 0.052354
  H 0.421838 0.665286 -0.591766
  H 3.822815 0.963402 1.486551
  H 3.952473 -0.788759 1.346951
  H 1.865191 -1.038961 2.713642
  H 1.811239 0.720025 2.910297
  H 4.102900 -1.078225 3.803708
  H 2.897815 -0.344893 4.853902
  H 4.046064 0.669202 3.989264
  H 5.115345 -0.009103 -0.403314
  H 4.480524 0.256105 -3.377036
 22
 60.632878
  C 0.956568 0.278351 0.270374
  C 2.423322 0.101566 0.168153
  C 3.250347 0.045104 1.435489
  C 2.469382 -0.127951 2.737135
  C 3.418809 -0.239520 3.919214
  C 3.082788 0.165458 -1.074530
  H 2.462714 0.269263 -1.960713
  C 4.485746 0.085633 -1.292202
  C 5.057204 0.138592 -2.500392
  H 6.128868 0.098423 -2.626531
  H 0.479908 0.377579 1.222843
  H 1.648159 -0.745754 0.125803
  H 0.410190 0.588086 -0.599833
  H 3.830596 0.970195 1.495967
  H 3.966758 -0.779448 1.354569
  H 1.854711 -1.031528 2.689519
  H 1.811469 0.729446 2.897333
  H 4.078666 -1.098592 3.803116
  H 2.861523 -0.358455 4.846166
  H 4.033051 0.655184 4.000358
  H 5.127765 -0.008059 -0.419855
  H 4.468902 0.244678 -3.397939
 22
 64.377691
  C 0.948329 0.309350 0.260696
  C 2.411872 0.088886 0.163738
  C 3.246192 0.045306 1.432577
  C 2.470938 -0.129188 2.741592
  C 3.429869 -0.246517 3.924848
  C 3.078271 0.166326 -1.079884
  H 2.464791 0.271174 -1.960654
  C 4.480965 0.083628 -1.290537
  C 5.063100 0.139792 -2.495580
  H 6.130278 0.091572 -2.612328
  H 0.457969 0.400683 1.206061
  H 1.692141 -0.756881 0.136449
  H 0.401324 0.555611 -0.624401
  H 3.821153 0.975871 1.487909
  H 3.965485 -0.777730 1.349827
  H 1.853728 -1.029030 2.694859
  H 1.816648 0.728539 2.905956
  H 4.083901 -1.104238 3.805265
  H 2.879113 -0.364680 4.851864
  H 4.046010 0.642949 4.004659
  H 5.114174 -0.018261 -0.420059
  H 4.480773 0.249879 -3.399893
 22
 67.845965
  C 0.956577 0.333133 0.258528
  C 2.415922 0.078015 0.163847
  C 3.255224 0.044507 1.442666
  C 2.473940 -0.132302 2.737077
  C 3.421717 -0.250183 3.930617
  C 3.076230 0.162931 -1.079881
  H 2.458705 0.262882 -1.964365
  C 4.471805 0.089402 -1.295812
  C 5.051166 0.142073 -2.507171
  H 6.115511 0.084047 -2.627820
  H 0.464363 0.410222 1.198177
  H 1.745237 -0.765038 0.138649
  H 0.411345 0.552413 -0.637691
  H 3.826173 0.977101 1.501177
  H 3.982080 -0.775085 1.365610
  H 1.858391 -1.029587 2.682452
  H 1.829890 0.707634 2.892023
  H 4.079033 -1.109775 3.815570
  H 2.854658 -0.371258 4.864365
  H 4.040043 0.643998 4.017319
  H 5.115466 -0.013871 -0.421213
  H 4.471097 0.239307 -3.401680
 22
 69.621131
  C 0.963683 0.365456 0.260631
  C 2.411471 0.065253 0.170849
  C 3.252629 0.045012 1.442158
  C 2.474023 -0.141826 2.746047
  C 3.426167 -0.256787 3.929963
  C 3.080872 0.158377 -1.083511
  H 2.462646 0.253486 -1.968311
  C 4.473557 0.090381 -1.296168
  C 5.058841 0.139996 -2.508119
  H 6.123890 0.075640 -2.623569
  H 0.461528 0.420029 1.202883
  H 1.791137 -0.800288 0.137472
  H 0.421547 0.564579 -0.642789
  H 3.805945 0.971584 1.497177
  H 3.977108 -0.754031 1.363130
  H 1.858415 -1.054674 2.690897
  H 1.798915 0.727734 2.914189
  H 4.085919 -1.107412 3.809349
  H 2.873506 -0.382645 4.853018
  H 4.033579 0.634247 4.014730
  H 5.108239 -0.012042 -0.431520
  H 4.476045 0.226705 -3.415206
 22
 68.870911
  C 0.969935 0.427712 0.263872
  C 2.392854 0.043576 0.173201
  C 3.243075 0.046741 1.443349
  C 2.473270 -0.148110 2.750385
  C 3.431612 -0.256494 3.929348
  C 3.082461 0.145495 -1.094245
  H 2.464601 0.241873 -1.974141
  C 4.470461 0.071187 -1.296619
  C 5.063675 0.130311 -2.508347
  H 6.132573 0.081835 -2.617946
  H 0.449983 0.425042 1.197006
  H 1.830160 -0.872915 0.117531
  H 0.419132 0.604137 -0.641256
  H 3.782011 0.988268 1.490352
  H 3.983412 -0.747159 1.363467
  H 1.865443 -1.067235 2.696345
  H 1.802310 0.699132 2.919924
  H 4.100528 -1.105370 3.804246
  H 2.881511 -0.388459 4.857568
  H 4.034216 0.644139 4.013566
  H 5.102968 -0.027910 -0.428292
  H 4.487566 0.233668 -3.411888
 22
 68.369708
  C 0.985426 0.477469 0.259219
  C 2.382414 0.026004 0.172661
  C 3.237092 0.047128 1.439909
  C 2.475009 -0.157571 2.749697
  C 3.437479 -0.260443 3.923889
  C 3.075239 0.128086 -1.089661
  H 2.458869 0.225025 -1.970927
  C 4.459786 0.050576 -1.287990
  C 5.059460 0.116773 -2.498612
  H 6.132068 0.084051 -2.601400
  H 0.450743 0.431266 1.185055
  H 1.882878 -0.920654 0.102974
  H 0.435566 0.639809 -0.652134
  H 3.764514 1.001523 1.482058
  H 3.993172 -0.741355 1.358307
  H 1.879839 -1.073727 2.695229
  H 1.802041 0.678633 2.923625
  H 4.112690 -1.103478 3.794133
  H 2.888977 -0.399488 4.858948
  H 4.033484 0.646227 4.006721
  H 5.090441 -0.036594 -0.420008
  H 4.487105 0.242038 -3.402811
 22
 66.688510
  C 0.998626 0.534117 0.264544
  C 2.368359 0.012132 0.174950
  C 3.230752 0.054253 1.443222
  C 2.475311 -0.172555 2.753340
  C 3.443264 -0.266787 3.927630
  C 3.080927 0.121623 -1.098338
  H 2.464214 0.217030 -1.979641
  C 4.461984 0.043207 -1.290209
  C 5.061936 0.104418 -2.503768
  H 6.128816 0.079617 -2.605715
  H 0.443023 0.431845 1.172927
  H 1.942620 -0.980871 0.078200
  H 0.451180 0.705613 -0.644919
  H 3.732646 1.023466 1.484760
  H 4.001319 -0.711755 1.360345
  H 1.895433 -1.098877 2.692094
  H 1.786197 0.650550 2.933291
  H 4.133341 -1.097640 3.792306
  H 2.903744 -0.419678 4.854565
  H 4.024099 0.648642 4.016163
  H 5.097953 -0.048559 -0.415449
  H 4.486506 0.208913 -3.410875
