 19
 0.000000
  H 1.508512 0.148254 0.420718
  C 2.591010 0.134385 0.385607
  C 3.285560 0.614496 1.578868
  C 2.359809 1.063361 2.697215
  H 2.935711 1.407959 3.554437
  C 3.180644 -0.330902 -0.772165
  C 4.570390 -0.413002 -0.976307
  C 5.178591 -0.872538 -2.122481
  C 4.532475 -1.358150 -3.335150
  H 3.445963 -1.343348 -3.299735
  H 6.262130 -0.877022 -2.133405
  H 3.959063 1.435700 1.302651
  H 3.960037 -0.168754 1.947556
  H 1.719770 0.246531 3.024575
  H 1.718848 1.879166 2.368720
  H 2.518679 -0.648295 -1.563091
  H 5.215327 -0.090428 -0.171148
  H 4.886676 -2.370354 -3.550691
  H 4.887567 -0.775238 -4.189787
 19
 0.350484
  H 1.522950 0.365344 0.321205
  C 2.600514 0.263663 0.330038
  C 3.278585 0.567592 1.588657
  C 2.349742 0.995495 2.711936
  H 2.916321 1.212203 3.613020
  C 3.208634 -0.167135 -0.828222
  C 4.598757 -0.245111 -1.029990
  C 5.181887 -0.778837 -2.154763
  C 4.511399 -1.468570 -3.249786
  H 3.435270 -1.547109 -3.150540
  H 6.255012 -0.700881 -2.274616
  H 4.032329 1.347372 1.411886
  H 3.871279 -0.300991 1.904653
  H 1.633057 0.211068 2.944204
  H 1.792426 1.888118 2.437350
  H 2.570936 -0.431484 -1.660775
  H 5.249784 0.165463 -0.271457
  H 4.938362 -2.470974 -3.346772
  H 4.770579 -0.983148 -4.194406
 19
 2.302247
  H 1.558434 0.538840 0.233415
  C 2.622271 0.346677 0.286604
  C 3.263574 0.501863 1.591863
  C 2.324257 0.925254 2.707411
  H 2.868519 1.033936 3.641244
  C 3.263404 -0.054543 -0.860358
  C 4.654543 -0.090525 -1.076723
  C 5.194923 -0.725987 -2.163666
  C 4.472057 -1.540964 -3.142527
  H 3.426672 -1.726035 -2.926823
  H 6.248454 -0.688362 -2.405939
  H 4.083055 1.228295 1.492471
  H 3.774116 -0.430894 1.862738
  H 1.542186 0.184998 2.859759
  H 1.848324 1.875327 2.476290
  H 2.662308 -0.400523 -1.696094
  H 5.308026 0.443908 -0.402647
  H 4.982064 -2.503889 -3.233669
  H 4.579400 -1.089879 -4.132474
 19
 6.219811
  H 1.617699 0.743299 0.172209
  C 2.657065 0.450241 0.254268
  C 3.252001 0.451360 1.593035
  C 2.294985 0.852567 2.701739
  H 2.806023 0.847918 3.660596
  C 3.320755 0.078630 -0.882920
  C 4.702009 0.045463 -1.146370
  C 5.198073 -0.717477 -2.170216
  C 4.435680 -1.607382 -3.055236
  H 3.456504 -1.916525 -2.704999
  H 6.255080 -0.719219 -2.405712
  H 4.120973 1.125698 1.573769
  H 3.681715 -0.535569 1.799085
  H 1.459871 0.159197 2.765967
  H 1.897164 1.850087 2.531414
  H 2.764223 -0.437579 -1.663346
  H 5.366098 0.691559 -0.590364
  H 5.015965 -2.521338 -3.210018
  H 4.368113 -1.155443 -4.047690
 19
 14.848658
  H 1.713157 0.842712 0.100885
  C 2.742247 0.521418 0.225082
  C 3.251462 0.433770 1.600544
  C 2.221338 0.787118 2.660813
  H 2.664841 0.718864 3.651072
  C 3.459931 0.190343 -0.888764
  C 4.844245 0.149968 -1.204935
  C 5.234727 -0.688356 -2.191671
  C 4.327628 -1.590275 -2.932738
  H 3.400479 -1.893134 -2.448094
  H 6.259794 -0.860100 -2.587687
  H 4.125987 1.098109 1.676587
  H 3.647154 -0.574291 1.772588
  H 1.374137 0.104633 2.625963
  H 1.850774 1.801737 2.523043
  H 2.926673 -0.439488 -1.655262
  H 5.540258 0.832757 -0.739095
  H 4.859322 -2.541484 -3.079548
  H 4.169910 -1.213364 -3.944520
 19
 27.282006
  H 1.859811 1.087904 0.044361
  C 2.848598 0.660573 0.189875
  C 3.246034 0.387367 1.586016
  C 2.145489 0.697062 2.592280
  H 2.496341 0.494134 3.601334
  C 3.610260 0.389590 -0.908660
  C 4.957861 0.261674 -1.303047
  C 5.242410 -0.692474 -2.211589
  C 4.214788 -1.603685 -2.785465
  H 3.418232 -1.981148 -2.136971
  H 6.260569 -0.917210 -2.637130
  H 4.140528 0.988660 1.805109
  H 3.553443 -0.659420 1.673486
  H 1.264374 0.081964 2.413099
  H 1.852783 1.742728 2.540492
  H 3.097468 -0.392156 -1.610933
  H 5.699456 0.972908 -0.975420
  H 4.728317 -2.568170 -2.966633
  H 3.903920 -1.280875 -3.774080
 19
 51.274148
  H 2.039219 1.154960 -0.052426
  C 3.015819 0.715213 0.170475
  C 3.249769 0.371212 1.616372
  C 2.040988 0.669003 2.499282
  H 2.261313 0.426963 3.542499
  C 3.862542 0.463426 -0.796141
  C 5.132922 0.256171 -1.336059
  C 5.263081 -0.704745 -2.256407
  C 4.078509 -1.550465 -2.668271
  H 3.367706 -1.931409 -1.929938
  H 6.180715 -0.909649 -2.787040
  H 4.115038 0.947393 1.955997
  H 3.520987 -0.705796 1.713131
  H 1.181342 0.088442 2.196081
  H 1.788242 1.725078 2.445446
  H 3.267709 -0.512182 -1.646415
  H 5.937298 0.932068 -1.077601
  H 4.497636 -2.535583 -2.869529
  H 3.658849 -1.247550 -3.627159
 19
 59.904476
  H 2.205444 1.276225 -0.058830
  C 3.130047 0.767888 0.193153
  C 3.234052 0.336107 1.637373
  C 1.971476 0.665006 2.420870
  H 2.085152 0.361570 3.459316
  C 4.016995 0.524621 -0.729690
  C 5.203119 0.286681 -1.362215
  C 5.273270 -0.716540 -2.298941
  C 4.009398 -1.508595 -2.558837
  H 3.394519 -1.974663 -1.724042
  H 6.154088 -0.882352 -2.891622
  H 4.092410 0.845198 2.082175
  H 3.435350 -0.735521 1.693283
  H 1.108982 0.144214 2.009503
  H 1.771357 1.734226 2.403698
  H 3.399529 -0.719235 -1.755695
  H 6.033002 0.956495 -1.191734
  H 4.352388 -2.530010 -2.810590
  H 3.495666 -1.198724 -3.477425
 19
 58.179930
  H 2.328216 1.411657 0.003168
  C 3.199319 0.816492 0.258612
  C 3.209913 0.305177 1.684042
  C 1.941048 0.691846 2.431235
  H 1.983283 0.330193 3.456360
  C 4.102931 0.566877 -0.632984
  C 5.190098 0.329443 -1.403112
  C 5.231977 -0.665105 -2.358118
  C 4.017453 -1.546851 -2.570085
  H 3.500787 -2.130882 -1.721885
  H 6.083619 -0.764657 -3.005120
  H 4.081489 0.724112 2.193395
  H 3.324395 -0.780436 1.692711
  H 1.061666 0.261534 1.956742
  H 1.823345 1.773227 2.461647
  H 3.348731 -0.901009 -1.852073
  H 6.029394 1.004191 -1.299901
  H 4.440882 -2.547885 -2.797338
  H 3.475646 -1.328751 -3.501994
 19
 56.902033
  H 2.410115 1.508488 0.067691
  C 3.230812 0.838935 0.309015
  C 3.179299 0.271803 1.713116
  C 1.917310 0.703258 2.448230
  H 1.911487 0.297396 3.457710
  C 4.142859 0.587894 -0.569437
  C 5.168167 0.367966 -1.419276
  C 5.193691 -0.606994 -2.398285
  C 4.026553 -1.551794 -2.589316
  H 3.578078 -2.101699 -1.683277
  H 6.035740 -0.671112 -3.063552
  H 4.060363 0.616472 2.260941
  H 3.227057 -0.818342 1.680045
  H 1.026000 0.347919 1.935048
  H 1.863740 1.787868 2.522336
  H 3.219251 -0.922195 -2.087266
  H 6.015763 1.037527 -1.334981
  H 4.494441 -2.564965 -2.672547
  H 3.582247 -1.520275 -3.597434
 19
 56.932266
  H 2.432146 1.530753 0.113024
  C 3.240958 0.843018 0.340028
  C 3.180715 0.250778 1.732542
  C 1.927642 0.690775 2.476481
  H 1.914024 0.264983 3.477526
  C 4.154770 0.603327 -0.540023
  C 5.162108 0.391632 -1.411106
  C 5.183023 -0.563194 -2.408204
  C 4.036597 -1.530033 -2.616813
  H 3.474709 -1.917380 -1.689615
  H 6.030037 -0.618722 -3.067320
  H 4.067620 0.568024 2.287108
  H 3.207887 -0.839052 1.678450
  H 1.029595 0.362751 1.956196
  H 1.894728 1.775017 2.572257
  H 3.147510 -0.856674 -2.377713
  H 6.014833 1.054349 -1.323015
  H 4.479868 -2.548950 -2.460435
  H 3.762454 -1.679433 -3.673130
 19
 55.093483
  H 2.497263 1.595715 0.130191
  C 3.289000 0.890327 0.364111
  C 3.215908 0.315744 1.764241
  C 1.894725 0.649885 2.441596
  H 1.871244 0.235711 3.448051
  C 4.200261 0.625366 -0.509925
  C 5.187180 0.373597 -1.393282
  C 5.169145 -0.599674 -2.371240
  C 3.988460 -1.521711 -2.567977
  H 3.656905 -1.955542 -1.579901
  H 6.019691 -0.692250 -3.024125
  H 4.042595 0.724216 2.352297
  H 3.347948 -0.767620 1.732963
  H 1.055883 0.236850 1.884858
  H 1.761157 1.727771 2.518374
  H 3.042772 -0.931436 -2.417042
  H 6.062380 1.011335 -1.324193
  H 4.350432 -2.572779 -2.736815
  H 3.688273 -1.563533 -3.645944
