 26
 0.000000
  H 1.383975 0.137746 0.394054
  C 2.453972 0.138831 0.396445
  C 3.235887 0.609601 1.567949
  C 2.454651 1.098519 2.785050
  H 3.117958 1.411577 3.564099
  C 3.074760 -0.323868 -0.755623
  C 4.452396 -0.411652 -0.974602
  C 5.123831 -0.863395 -2.100714
  C 4.621920 -1.386396 -3.404454
  C 3.129954 -1.502980 -3.695876
  C 2.901042 -2.064737 -5.096300
  O 6.448567 -0.861790 -2.097024
  H 3.892013 1.422462 1.236076
  H 3.892206 -0.206765 1.890660
  H 1.816409 0.300727 3.170305
  H 1.816264 1.941012 2.511316
  H 2.419633 -0.642347 -1.548686
  H 5.073532 -0.080521 -0.149771
  H 5.075895 -2.376004 -3.531813
  H 5.076265 -0.759449 -4.180462
  H 2.655656 -0.522022 -3.641480
  H 2.655252 -2.174151 -2.978669
  H 3.338077 -1.417822 -5.854009
  H 1.834884 -2.144599 -5.296051
  H 3.337677 -3.056130 -5.196764
  H 6.820588 -0.526463 -1.260938
 26
 0.000000
  H 1.418818 0.138045 0.394806
  C 2.488779 0.141571 0.403265
  C 3.262962 0.614112 1.579183
  C 2.473723 1.101235 2.791833
  H 3.131887 1.415798 3.574631
  C 3.132166 -0.330731 -0.772728
  C 4.442538 -0.424239 -1.005993
  C 5.079026 -0.858715 -2.089069
  C 4.602262 -1.384972 -3.400917
  C 3.116131 -1.511459 -3.717000
  C 2.914181 -2.074651 -5.120995
  O 6.342503 -0.837484 -2.036462
  H 3.919104 1.428471 1.251034
  H 3.919301 -0.200758 1.905614
  H 1.835128 0.301986 3.173465
  H 1.834979 1.942273 2.514481
  H 2.482275 -0.650697 -1.569492
  H 5.075164 -0.096134 -0.188718
  H 5.064855 -2.371533 -3.520686
  H 5.065217 -0.754976 -4.169330
  H 2.634483 -0.533679 -3.670519
  H 2.634089 -2.185811 -3.007714
  H 3.359394 -1.424803 -5.871400
  H 1.852029 -2.161590 -5.338370
  H 3.359004 -3.063113 -5.214161
  H 6.663268 -0.478761 -1.142036
 26
 0.000000
  H 1.453186 0.138588 0.396156
  C 2.523062 0.144809 0.411320
  C 3.288668 0.619285 1.592066
  C 2.490620 1.104404 2.799745
  H 3.143071 1.420615 3.586651
  C 3.191656 -0.337890 -0.790580
  C 4.436836 -0.436742 -1.037172
  C 5.038683 -0.855081 -2.080029
  C 4.584978 -1.384161 -3.398904
  C 3.104580 -1.519643 -3.737385
  C 2.927271 -2.083986 -5.144246
  O 6.239990 -0.816850 -1.985050
  H 3.944801 1.435298 1.268032
  H 3.945000 -0.193933 1.922606
  H 1.851661 0.303544 3.177371
  H 1.851509 1.943833 2.518392
  H 2.547579 -0.659485 -1.591400
  H 5.081851 -0.111995 -0.228279
  H 5.055302 -2.367893 -3.511631
  H 5.055655 -0.751334 -4.160270
  H 2.616365 -0.544804 -3.698226
  H 2.615982 -2.196937 -3.035426
  H 3.379815 -1.431417 -5.887874
  H 1.869066 -2.177355 -5.377630
  H 3.379436 -3.069729 -5.230641
  H 6.502749 -0.434068 -1.030627
 26
 0.000000
  H 1.486800 0.139481 0.398373
  C 2.556522 0.148714 0.421033
  C 3.312498 0.625327 1.607114
  C 2.504643 1.108180 2.809169
  H 3.150672 1.426215 3.600627
  C 3.253574 -0.345340 -0.809160
  C 4.436058 -0.449074 -1.067924
  C 5.003731 -0.852647 -2.073976
  C 4.570391 -1.384091 -3.398737
  C 3.095355 -1.527449 -3.756825
  C 2.939737 -2.092680 -5.165897
  O 6.142235 -0.800149 -1.943434
  H 3.968585 1.443188 1.287681
  H 3.968784 -0.186045 1.942249
  H 1.865310 0.305518 3.182312
  H 1.865158 1.945810 2.523340
  H 2.616032 -0.668738 -1.614472
  H 5.094342 -0.128037 -0.268289
  H 5.047406 -2.365299 -3.505180
  H 5.047750 -0.748738 -4.153814
  H 2.601474 -0.555226 -3.724181
  H 2.601102 -2.207361 -3.061387
  H 3.398624 -1.437682 -5.903479
  H 1.885233 -2.191678 -5.413298
  H 3.398256 -3.075996 -5.246250
  H 6.339422 -0.392916 -0.928041
 26
 0.000000
  H 1.519148 0.140995 0.402127
  C 2.588625 0.153614 0.433221
  C 3.333714 0.632597 1.625222
  C 2.514882 1.112868 2.820869
  H 3.153641 1.432933 3.617394
  C 3.318286 -0.353056 -0.828407
  C 4.441034 -0.461158 -1.098057
  C 4.975263 -0.851683 -2.071584
  C 4.558883 -1.385006 -3.401022
  C 3.088525 -1.534875 -3.775320
  C 2.950924 -2.100756 -5.186006
  O 6.050604 -0.787755 -1.912550
  H 3.989707 1.452537 1.310967
  H 3.989904 -0.176699 1.965527
  H 1.875171 0.308180 3.188966
  H 1.875021 1.948475 2.530002
  H 2.688138 -0.678458 -1.638718
  H 5.113444 -0.144203 -0.308608
  H 5.041374 -2.364094 -3.502185
  H 5.041710 -0.747532 -4.150816
  H 2.590021 -0.564846 -3.748138
  H 2.589657 -2.216983 -3.085346
  H 3.415002 -1.443718 -5.918509
  H 1.899655 -2.204409 -5.444995
  H 3.414643 -3.082034 -5.261283
  H 6.174002 -0.355898 -0.835751
 26
 0.000000
  H 1.548875 0.143837 0.409182
  C 2.617986 0.160237 0.449694
  C 3.350851 0.641824 1.648208
  C 2.519827 1.119172 2.836595
  H 3.150411 1.441476 3.638713
  C 3.385766 -0.360975 -0.848165
  C 4.452889 -0.472883 -1.127293
  C 4.955162 -0.852844 -2.074486
  C 4.551187 -1.387492 -3.407216
  C 3.084371 -1.542096 -3.793300
  C 2.959923 -2.108400 -5.205038
  O 5.967905 -0.780572 -1.894644
  H 4.006685 1.464086 1.339735
  H 4.006877 -0.165154 1.994286
  H 1.879747 0.312219 3.199050
  H 1.879601 1.952518 2.540096
  H 2.763933 -0.688587 -1.663991
  H 5.140161 -0.160376 -0.348940
  H 5.037629 -2.365017 -3.504489
  H 5.037959 -0.748455 -4.153119
  H 2.582540 -0.573679 -3.770134
  H 2.582184 -2.225816 -3.107343
  H 3.427743 -1.449861 -5.933802
  H 1.911105 -2.215440 -5.472455
  H 3.427392 -3.088177 -5.276578
  H 6.009550 -0.323972 -0.756145
 26
 0.000000
  H 1.575153 0.148830 0.421584
  C 2.643735 0.169505 0.472753
  C 3.362683 0.653989 1.678512
  C 2.517946 1.127977 2.858550
  H 3.139208 1.452779 3.666913
  C 3.457652 -0.369233 -0.868771
  C 4.472582 -0.484283 -1.155718
  C 4.944649 -0.856802 -2.084355
  C 4.547686 -1.392181 -3.418898
  C 3.082916 -1.549452 -3.811620
  C 2.965891 -2.115979 -5.223903
  O 5.895142 -0.779274 -1.891399
  H 4.018266 1.478876 1.376583
  H 4.018449 -0.150368 2.031123
  H 1.877516 0.318459 3.214615
  H 1.877378 1.958763 2.555672
  H 2.845299 -0.699312 -1.690754
  H 5.175457 -0.176625 -0.389456
  H 5.036340 -2.368820 -3.513962
  H 5.036667 -0.752258 -4.162593
  H 2.579224 -0.581950 -3.790730
  H 2.578872 -2.234087 -3.127939
  H 3.435809 -1.456588 -5.950546
  H 1.918491 -2.224925 -5.496066
  H 3.435462 -3.094904 -5.293320
  H 5.845960 -0.297578 -0.690317
 26
 0.000000
  H 1.595948 0.157118 0.442186
  C 2.663797 0.182544 0.505199
  C 3.367171 0.670181 1.718850
  C 2.507301 1.140370 2.889444
  H 3.118113 1.467906 3.704642
  C 3.534135 -0.377791 -0.890123
  C 4.500850 -0.495134 -1.182768
  C 4.945632 -0.864516 -2.103578
  C 4.548988 -1.399931 -3.438204
  C 3.084311 -1.557326 -3.831228
  C 2.967625 -2.123866 -5.243536
  O 5.836024 -0.784965 -1.905565
  H 4.022388 1.497985 1.424195
  H 4.022560 -0.131264 2.078724
  H 1.866568 0.328001 3.238399
  H 1.866442 1.968309 2.579468
  H 2.932406 -0.710565 -1.718839
  H 5.219687 -0.192633 -0.429362
  H 5.037745 -2.376530 -3.533165
  H 5.038070 -0.759969 -4.181800
  H 2.580533 -0.589866 -3.810444
  H 2.580183 -2.242002 -3.147650
  H 3.437638 -1.464438 -5.970083
  H 1.920289 -2.232901 -5.515915
  H 3.437292 -3.102752 -5.312855
  H 5.688458 -0.277841 -0.641076
 26
 0.000000
  H 1.609221 0.169955 0.474107
  C 2.676097 0.200550 0.550019
  C 3.362385 0.691544 1.772072
  C 2.486164 1.157518 2.932182
  H 3.085487 1.487979 3.754696
  C 3.615760 -0.386666 -0.912260
  C 4.538109 -0.505255 -1.207991
  C 4.959491 -0.877015 -2.134718
  C 4.555426 -1.411664 -3.467427
  C 3.088580 -1.566240 -3.853428
  C 2.964038 -2.132552 -5.265160
  O 5.794031 -0.798571 -1.939443
  H 4.017098 1.522524 1.485339
  H 4.017253 -0.106729 2.139856
  H 1.845202 0.342042 3.273387
  H 1.845092 1.982355 2.614468
  H 3.025707 -0.722323 -1.748181
  H 5.272825 -0.208093 -0.467891
  H 5.041844 -2.389201 -3.564723
  H 5.042171 -0.772642 -4.213363
  H 2.586768 -0.597812 -3.830236
  H 2.586415 -2.249946 -3.167436
  H 3.431832 -1.474028 -5.993956
  H 1.915199 -2.239572 -5.532518
  H 3.431484 -3.112340 -5.336722
  H 5.542893 -0.265419 -0.610060
 26
 0.000000
  H 1.612638 0.188408 0.520013
  C 2.678292 0.224443 0.609497
  C 3.346457 0.718881 1.840175
  C 2.453175 1.180333 2.989029
  H 3.040288 1.513813 3.819097
  C 3.701967 -0.395788 -0.935007
  C 4.583823 -0.514377 -1.230713
  C 4.986668 -0.895084 -2.179731
  C 4.566983 -1.428065 -3.508279
  C 3.095689 -1.576679 -3.879429
  C 2.954583 -2.142457 -5.289821
  O 5.772807 -0.820491 -1.994033
  H 4.000520 1.553202 1.561779
  H 4.000655 -0.076057 2.216284
  H 1.812090 0.361583 3.322067
  H 1.812000 2.001902 2.663162
  H 3.124321 -0.734420 -1.778362
  H 5.333613 -0.222488 -0.503747
  H 5.048421 -2.407568 -3.610467
  H 5.048753 -0.791012 -4.259114
  H 2.598072 -0.606222 -3.851186
  H 2.597712 -2.258353 -3.188379
  H 3.417657 -1.485824 -6.023326
  H 1.902666 -2.245213 -5.546560
  H 3.417303 -3.124133 -5.366085
  H 5.417854 -0.260356 -0.597383
 26
 0.000000
  H 1.605872 0.212448 0.579828
  C 2.670051 0.254102 0.683340
  C 3.319329 0.752007 1.922701
  C 2.408569 1.208689 3.059676
  H 2.982930 1.545227 3.897398
  C 3.792771 -0.405007 -0.957983
  C 4.636676 -0.522325 -1.250497
  C 5.025104 -0.918456 -2.237951
  C 4.582374 -1.448849 -3.560047
  C 3.104814 -1.588598 -3.909119
  C 2.939205 -2.153459 -5.317220
  O 5.771263 -0.849734 -2.066865
  H 3.972590 1.589780 1.652921
  H 3.972703 -0.039484 2.307415
  H 1.767482 0.386554 3.384264
  H 1.767414 2.026877 2.725370
  H 3.228078 -0.746648 -1.808864
  H 5.400446 -0.235514 -0.536172
  H 5.056332 -2.431225 -3.669389
  H 5.056671 -0.814672 -4.318043
  H 2.613517 -0.615167 -3.873473
  H 2.613149 -2.267295 -3.210657
  H 3.395186 -1.499591 -6.057609
  H 1.882958 -2.249877 -5.558176
  H 3.394822 -3.137897 -5.400359
  H 5.315242 -0.261480 -0.600124
 26
 0.000000
  H 1.595955 0.224926 0.610882
  C 2.659438 0.268975 0.720376
  C 3.300615 0.768330 1.963366
  C 2.382449 1.222949 3.095202
  H 2.951331 1.560772 3.936139
  C 3.827044 -0.407400 -0.963942
  C 4.656910 -0.523734 -1.253991
  C 5.041441 -0.927982 -2.261677
  C 4.588072 -1.457129 -3.580666
  C 3.107740 -1.592758 -3.919479
  C 2.930793 -2.157143 -5.326394
  O 5.774970 -0.861954 -2.097296
  H 3.953494 1.607574 1.697262
  H 3.953597 -0.021691 2.351751
  H 1.741401 0.399368 3.416182
  H 1.741343 2.039694 2.757293
  H 3.267916 -0.750305 -1.817983
  H 5.425442 -0.238695 -0.544079
  H 5.058522 -2.440820 -3.693284
  H 5.058865 -0.824269 -4.341942
  H 2.619415 -0.617962 -3.880434
  H 2.619042 -2.270088 -3.217615
  H 3.383446 -1.504542 -6.069936
  H 1.872633 -2.250616 -5.560015
  H 3.383078 -3.142847 -5.412683
  H 5.280581 -0.261792 -0.600876
 26
 0.000000
  H 1.558263 0.284363 0.758790
  C 2.617992 0.339534 0.896062
  C 3.221163 0.845389 2.155333
  C 2.268995 1.290190 3.262700
  H 2.812110 1.633826 4.118185
  C 4.022248 -0.425576 -1.009209
  C 4.780157 -0.535739 -1.283825
  C 5.142076 -0.988493 -2.412403
  C 4.624728 -1.509431 -3.710946
  C 3.129379 -1.619904 -3.987110
  C 2.883871 -2.180716 -5.385121
  O 5.823247 -0.937735 -2.286041
  H 3.871948 1.691467 1.906295
  H 3.871999 0.062193 2.560763
  H 1.628435 0.459890 3.566901
  H 1.628429 2.100225 2.908035
  H 3.489279 -0.774193 -1.877537
  H 5.572445 -0.259890 -0.596779
  H 5.073328 -2.500892 -3.842908
  H 5.073691 -0.884347 -4.491582
  H 2.659676 -0.637010 -3.927901
  H 2.659278 -2.289129 -3.265063
  H 3.315793 -1.535593 -6.147283
  H 1.815396 -2.256211 -5.573970
  H 3.315399 -3.173890 -5.490012
  H 5.148762 -0.281462 -0.649788
