 23
 0.000000
  C 0.969744 0.179489 0.498564
  C 2.426311 0.122979 0.357308
  H 3.052483 0.451393 1.173750
  C 3.001464 -0.343915 -0.804614
  C 4.383224 -0.418154 -0.990495
  C 5.097009 -0.864802 -2.104258
  C 4.625462 -1.389396 -3.412151
  C 3.142240 -1.518417 -3.734590
  C 2.962934 -2.082804 -5.141837
  O 6.411416 -0.847201 -2.060903
  H 0.653160 0.566739 1.461786
  H 0.541453 -0.815424 0.361131
  H 0.541026 0.802149 -0.289277
  H 2.344480 -0.661602 -1.594830
  H 4.982155 -0.080621 -0.150626
  H 5.096422 -2.372452 -3.530467
  H 5.096817 -0.760895 -4.177029
  H 2.658046 -0.542304 -3.693280
  H 2.657705 -2.195271 -3.030318
  H 3.415920 -1.430968 -5.885050
  H 1.905870 -2.176792 -5.376794
  H 3.415608 -3.067694 -5.228588
  H 6.785773 -0.512311 -1.223624
 23
 5.337923
  C 0.947496 0.171520 0.478840
  C 2.395801 0.127243 0.368008
  H 2.993374 0.462574 1.201926
  C 3.029643 -0.320487 -0.746607
  C 4.393096 -0.408056 -0.965509
  C 5.099192 -0.863269 -2.100571
  C 4.606374 -1.386138 -3.403930
  C 3.117807 -1.513787 -3.723054
  C 2.943082 -2.078697 -5.131531
  O 6.424107 -0.853013 -2.075612
  H 0.618217 0.557071 1.437974
  H 0.526509 -0.825023 0.319419
  H 0.526261 0.780273 -0.325924
  H 2.603160 -0.680430 -1.642227
  H 5.032566 -0.076641 -0.141019
  H 5.077451 -2.369791 -3.527881
  H 5.077813 -0.761300 -4.173375
  H 2.631052 -0.538103 -3.686864
  H 2.630566 -2.193739 -3.022768
  H 3.398527 -1.426324 -5.872804
  H 1.887332 -2.174449 -5.371153
  H 3.397985 -3.062674 -5.216442
  H 6.828525 -0.521408 -1.246016
 23
 15.546237
  C 0.930671 0.154845 0.435772
  C 2.387002 0.135215 0.389770
  H 2.947394 0.480078 1.249600
  C 3.081363 -0.302728 -0.700801
  C 4.435236 -0.399366 -0.942008
  C 5.088983 -0.858908 -2.089522
  C 4.571630 -1.378258 -3.384101
  C 3.091367 -1.507178 -3.705859
  C 2.929627 -2.072280 -5.115268
  O 6.399724 -0.861872 -2.100084
  H 0.550484 0.533503 1.378609
  H 0.535926 -0.845357 0.253266
  H 0.537374 0.752127 -0.387587
  H 2.847782 -0.682173 -1.646161
  H 5.120099 -0.085478 -0.160075
  H 5.040741 -2.358805 -3.511433
  H 5.041021 -0.757846 -4.153876
  H 2.598747 -0.532874 -3.676637
  H 2.598553 -2.191413 -3.011685
  H 3.388511 -1.418453 -5.853198
  H 1.876043 -2.170873 -5.361755
  H 3.388228 -3.055034 -5.197019
  H 6.826784 -0.533015 -1.280672
 23
 29.065405
  C 0.909873 0.131411 0.376406
  C 2.377922 0.133042 0.385955
  H 2.901183 0.485287 1.268239
  C 3.117128 -0.291967 -0.674338
  C 4.468614 -0.392974 -0.925556
  C 5.112303 -0.855480 -2.081948
  C 4.574319 -1.374053 -3.374262
  C 3.071115 -1.496137 -3.678248
  C 2.885146 -2.062232 -5.088820
  O 6.422247 -0.864003 -2.107153
  H 0.489130 0.502848 1.304927
  H 0.534203 -0.879754 0.175954
  H 0.536641 0.727638 -0.465752
  H 3.052415 -0.679617 -1.642927
  H 5.193900 -0.078744 -0.139988
  H 5.040898 -2.364473 -3.509688
  H 5.041158 -0.752514 -4.156943
  H 2.583065 -0.522271 -3.642416
  H 2.583102 -2.175087 -2.979204
  H 3.336475 -1.411799 -5.833211
  H 1.827545 -2.155128 -5.320348
  H 3.336486 -3.046707 -5.177026
  H 6.855181 -0.539790 -1.300396
 23
 43.869328
  C 0.894496 0.111211 0.326003
  C 2.356107 0.126869 0.370746
  H 2.851071 0.483719 1.265371
  C 3.120509 -0.289641 -0.668829
  C 4.493306 -0.395501 -0.932196
  C 5.131616 -0.857624 -2.087535
  C 4.575108 -1.372651 -3.370889
  C 3.075858 -1.481200 -3.641265
  C 2.859256 -2.045995 -5.048111
  O 6.444925 -0.869612 -2.121220
  H 0.448758 0.479257 1.246971
  H 0.534444 -0.901594 0.116454
  H 0.536678 0.702843 -0.523246
  H 3.202431 -0.678262 -1.640096
  H 5.232497 -0.094237 -0.178909
  H 5.029031 -2.362888 -3.514028
  H 5.029460 -0.756869 -4.159056
  H 2.594412 -0.500140 -3.593910
  H 2.594302 -2.157206 -2.928743
  H 3.302009 -1.398183 -5.802283
  H 1.795838 -2.130723 -5.259306
  H 3.301960 -3.035326 -5.144898
  H 6.880015 -0.548445 -1.321823
 23
 56.766976
  C 0.882297 0.127135 0.359972
  C 2.342537 0.131420 0.392411
  H 2.847360 0.482341 1.291756
  C 3.094224 -0.288310 -0.662009
  C 4.475801 -0.400420 -0.947927
  C 5.124398 -0.861068 -2.099695
  C 4.579694 -1.379668 -3.389050
  C 3.081985 -1.492307 -3.667039
  C 2.871181 -2.055667 -5.068398
  O 6.438024 -0.867752 -2.122774
  H 0.448305 0.490665 1.279592
  H 0.515903 -0.875700 0.148497
  H 0.524184 0.721550 -0.478592
  H 3.279430 -0.675963 -1.637396
  H 5.225425 -0.093064 -0.181594
  H 5.036384 -2.364979 -3.526577
  H 5.035928 -0.763893 -4.170993
  H 2.600521 -0.517234 -3.620627
  H 2.601260 -2.164281 -2.958518
  H 3.314473 -1.408392 -5.820020
  H 1.810434 -2.142018 -5.282226
  H 3.315249 -3.042964 -5.163106
  H 6.871880 -0.541356 -1.310420
 23
 67.926662
  C 0.857558 0.147924 0.325208
  C 2.335436 0.078055 0.368244
  H 2.829022 0.356736 1.300822
  C 3.083667 -0.311486 -0.670728
  C 4.474753 -0.407095 -0.987659
  C 5.152108 -0.856211 -2.119466
  C 4.612135 -1.377865 -3.406041
  C 3.112254 -1.492660 -3.634057
  C 2.848655 -2.057358 -5.031382
  O 6.470208 -0.848050 -2.137600
  H 0.436736 0.480942 1.277016
  H 0.457151 -0.835490 0.070391
  H 0.517410 0.808518 -0.475335
  H 3.344781 -0.670931 -1.644320
  H 5.201372 -0.084466 -0.202168
  H 5.067448 -2.355334 -3.546107
  H 5.047627 -0.765497 -4.192183
  H 2.630046 -0.509016 -3.573533
  H 2.653142 -2.170835 -2.904850
  H 3.267995 -1.407114 -5.801006
  H 1.777726 -2.143091 -5.207796
  H 3.290534 -3.049266 -5.141109
  H 6.897320 -0.520485 -1.320595
 23
 72.289995
  C 0.823830 0.166233 0.281312
  C 2.311416 0.016506 0.339676
  H 2.763207 0.199455 1.314005
  C 3.083911 -0.324479 -0.658523
  C 4.495076 -0.412870 -1.040125
  C 5.194427 -0.849312 -2.137903
  C 4.655183 -1.378653 -3.426344
  C 3.145156 -1.491103 -3.594309
  C 2.814122 -2.054789 -4.972052
  O 6.520668 -0.829008 -2.157313
  H 0.421595 0.443385 1.243374
  H 0.386562 -0.778021 -0.026539
  H 0.529357 0.909456 -0.452292
  H 3.394678 -0.656405 -1.667707
  H 5.165373 -0.063899 -0.241830
  H 5.111602 -2.366009 -3.566856
  H 5.071767 -0.757590 -4.228187
  H 2.672111 -0.507705 -3.519000
  H 2.719366 -2.166356 -2.848575
  H 3.199494 -1.411507 -5.754171
  H 1.741718 -2.135729 -5.098869
  H 3.244261 -3.041225 -5.097248
  H 6.937561 -0.502437 -1.345046
 23
 75.606157
  C 0.813426 0.183216 0.278087
  C 2.297425 -0.013283 0.359015
  H 2.718050 0.092024 1.361771
  C 3.085416 -0.313309 -0.630725
  C 4.503581 -0.405391 -1.066246
  C 5.211232 -0.845220 -2.154224
  C 4.669034 -1.382938 -3.441021
  C 3.156184 -1.499565 -3.590341
  C 2.805728 -2.071147 -4.967058
  O 6.537420 -0.816739 -2.168175
  H 0.399649 0.414882 1.256628
  H 0.347104 -0.727556 -0.095233
  H 0.566484 0.988149 -0.411971
  H 3.429042 -0.599873 -1.656587
  H 5.153751 -0.040947 -0.252472
  H 5.123638 -2.365509 -3.578740
  H 5.073690 -0.764389 -4.242849
  H 2.682438 -0.515631 -3.511754
  H 2.743837 -2.173667 -2.834243
  H 3.181200 -1.426799 -5.761367
  H 1.726820 -2.155311 -5.079777
  H 3.238794 -3.062615 -5.096157
  H 6.950766 -0.486164 -1.351518
 23
 78.539870
  C 0.809730 0.198765 0.258067
  C 2.281604 -0.060994 0.377137
  H 2.668723 -0.059801 1.404608
  C 3.087909 -0.307125 -0.611142
  C 4.513014 -0.390265 -1.082238
  C 5.223660 -0.838835 -2.171431
  C 4.671930 -1.385840 -3.450300
  C 3.164426 -1.504949 -3.575345
  C 2.797729 -2.082833 -4.936746
  O 6.547609 -0.803811 -2.188086
  H 0.366349 0.366616 1.240717
  H 0.319362 -0.659349 -0.208814
  H 0.622688 1.071915 -0.372508
  H 3.467934 -0.527903 -1.653307
  H 5.149602 -0.009897 -0.270248
  H 5.126623 -2.372855 -3.588865
  H 5.065121 -0.768210 -4.264141
  H 2.691581 -0.526802 -3.493571
  H 2.767753 -2.169356 -2.810005
  H 3.157416 -1.447491 -5.735445
  H 1.725169 -2.169707 -5.033101
  H 3.228042 -3.067463 -5.066286
  H 6.962477 -0.466107 -1.376597
 23
 80.872219
  C 0.815257 0.227330 0.257320
  C 2.268419 -0.117070 0.396894
  H 2.621379 -0.230822 1.423341
  C 3.088584 -0.308423 -0.592787
  C 4.514100 -0.373470 -1.091201
  C 5.230676 -0.824290 -2.177995
  C 4.676915 -1.382734 -3.451200
  C 3.164539 -1.516061 -3.566621
  C 2.790557 -2.111555 -4.935433
  O 6.551644 -0.776464 -2.191445
  H 0.352523 0.326506 1.226413
  H 0.299367 -0.550040 -0.297827
  H 0.694210 1.161286 -0.292856
  H 3.501542 -0.456942 -1.656709
  H 5.140079 0.021559 -0.277970
  H 5.136301 -2.365869 -3.587903
  H 5.059438 -0.767731 -4.270718
  H 2.679943 -0.535545 -3.484861
  H 2.778083 -2.180135 -2.786900
  H 3.140901 -1.474848 -5.745964
  H 1.711140 -2.209992 -5.026040
  H 3.230660 -3.098211 -5.063473
  H 6.964872 -0.430266 -1.380479
 23
 80.998892
  C 0.823003 0.255642 0.241332
  C 2.247637 -0.187040 0.384991
  H 2.548928 -0.460078 1.400361
  C 3.095989 -0.306392 -0.588738
  C 4.516624 -0.347908 -1.105447
  C 5.239061 -0.808657 -2.190265
  C 4.682633 -1.382312 -3.453867
  C 3.165468 -1.527293 -3.549641
  C 2.780107 -2.132630 -4.895570
  O 6.559876 -0.748652 -2.204480
  H 0.321468 0.256939 1.207235
  H 0.287523 -0.414654 -0.429481
  H 0.775913 1.254839 -0.183361
  H 3.542416 -0.342303 -1.682674
  H 5.132526 0.050363 -0.292961
  H 5.148503 -2.365630 -3.587878
  H 5.053264 -0.771707 -4.284558
  H 2.676369 -0.552387 -3.469961
  H 2.795575 -2.183597 -2.758805
  H 3.114629 -1.502763 -5.715046
  H 1.702249 -2.238583 -4.970456
  H 3.224169 -3.116427 -5.020110
  H 6.969177 -0.393891 -1.396964
 23
 79.764029
  C 0.832504 0.242390 0.190732
  C 2.233296 -0.268943 0.362625
  H 2.472878 -0.640231 1.360398
  C 3.137503 -0.312901 -0.563373
  C 4.537461 -0.312821 -1.105533
  C 5.254885 -0.789563 -2.198854
  C 4.679967 -1.378973 -3.444734
  C 3.160044 -1.508870 -3.515585
  C 2.746887 -2.141325 -4.841914
  O 6.574637 -0.736360 -2.219861
  H 0.279975 0.166786 1.123738
  H 0.313095 -0.334975 -0.570832
  H 0.843346 1.279848 -0.129781
  H 3.603822 -0.219945 -1.693509
  H 5.148334 0.096153 -0.296882
  H 5.133529 -2.369054 -3.566852
  H 5.046361 -0.788564 -4.291101
  H 2.683477 -0.527693 -3.450484
  H 2.796994 -2.139411 -2.703133
  H 3.076392 -1.532548 -5.682937
  H 1.663259 -2.237534 -4.897677
  H 3.179925 -3.135218 -4.950049
  H 6.988523 -0.368727 -1.419955
 23
 76.768118
  C 0.843136 0.207853 0.105110
  C 2.221365 -0.342706 0.316849
  H 2.394586 -0.811760 1.285013
  C 3.192763 -0.313707 -0.534643
  C 4.576984 -0.260418 -1.100153
  C 5.275537 -0.768018 -2.203253
  C 4.670392 -1.371252 -3.426992
  C 3.144787 -1.483099 -3.462741
  C 2.695043 -2.137534 -4.763234
  O 6.596860 -0.732438 -2.240679
  H 0.228348 0.047972 0.984339
  H 0.374230 -0.282843 -0.742974
  H 0.889501 1.276227 -0.112349
  H 3.680314 -0.070799 -1.693665
  H 5.185737 0.130918 -0.287488
  H 5.108961 -2.366282 -3.541530
  H 5.024861 -0.801760 -4.287335
  H 2.679112 -0.497195 -3.409578
  H 2.789977 -2.092442 -2.627187
  H 3.013906 -1.550517 -5.623353
  H 1.610426 -2.221846 -4.792038
  H 3.112504 -3.138071 -4.859812
  H 7.022536 -0.358505 -1.449082
