 31
 0.000000
  C 0.956649 0.146084 0.415186
  C 2.429759 0.140586 0.400958
  C 3.225513 0.605650 1.558030
  C 2.464694 1.098716 2.785366
  C 3.432021 1.538577 3.879977
  C 3.037511 -0.326449 -0.761697
  C 4.419790 -0.413222 -0.978524
  C 5.090103 -0.859580 -2.091370
  C 4.616825 -1.379666 -3.387912
  C 3.132791 -1.506874 -3.705706
  C 2.934576 -2.070688 -5.111317
  H 6.170963 -0.848335 -2.063621
  H 0.531458 0.517729 1.340054
  H 0.581559 -0.864609 0.248177
  H 0.581193 0.759975 -0.404737
  H 3.883169 1.413491 1.217439
  H 3.883381 -0.213095 1.871036
  H 1.828236 0.304815 3.180551
  H 1.828114 1.945268 2.521463
  H 4.067729 0.713774 4.194189
  H 2.881441 1.888003 4.749861
  H 4.067597 2.351578 3.536136
  H 2.374811 -0.642176 -1.547479
  H 5.037422 -0.081593 -0.152848
  H 5.083457 -2.365876 -3.509128
  H 5.083830 -0.750894 -4.157104
  H 2.651080 -0.529086 -3.659445
  H 2.650777 -2.181478 -2.996610
  H 3.381255 -1.420782 -5.860298
  H 1.873886 -2.159355 -5.332854
  H 3.380999 -3.058164 -5.203480
 31
 7.937348
  C 1.018319 0.130320 0.375848
  C 2.472870 0.150158 0.424066
  C 3.223970 0.619812 1.592779
  C 2.423558 1.103614 2.797852
  C 3.358640 1.552803 3.915884
  C 3.142291 -0.295790 -0.686520
  C 4.473858 -0.412245 -0.976724
  C 5.100549 -0.880390 -2.143244
  C 4.587537 -1.388022 -3.408417
  C 3.089636 -1.501384 -3.692526
  C 2.857973 -2.064365 -5.095258
  H 6.182224 -0.870238 -2.117535
  H 0.553092 0.494486 1.282547
  H 0.671050 -0.885812 0.177031
  H 0.670287 0.726070 -0.470580
  H 3.890918 1.426070 1.263534
  H 3.891381 -0.189862 1.912605
  H 1.786695 0.301654 3.175001
  H 1.786340 1.943511 2.515591
  H 3.994952 0.734214 4.244681
  H 2.785472 1.896920 4.773125
  H 3.994634 2.371668 3.587029
  H 2.715827 -0.655644 -1.582537
  H 5.165722 -0.099091 -0.196502
  H 5.058637 -2.376742 -3.545435
  H 5.059630 -0.769047 -4.190859
  H 2.616464 -0.519575 -3.637187
  H 2.615752 -2.172118 -2.973696
  H 3.296153 -1.418505 -5.852706
  H 1.793097 -2.145744 -5.298948
  H 3.295687 -3.054933 -5.195846
 31
 23.860995
  C 1.030418 0.105934 0.318431
  C 2.513471 0.149857 0.425655
  C 3.234755 0.634081 1.628951
  C 2.396454 1.109475 2.811859
  C 3.295268 1.570208 3.955575
  C 3.247567 -0.285983 -0.659539
  C 4.564437 -0.413721 -0.977330
  C 5.123426 -0.894212 -2.175038
  C 4.550981 -1.396185 -3.427732
  C 3.053003 -1.493915 -3.675205
  C 2.791579 -2.051578 -5.066935
  H 6.203314 -0.899534 -2.187039
  H 0.522888 0.462864 1.206683
  H 0.707291 -0.913103 0.100599
  H 0.706050 0.689876 -0.544215
  H 3.905871 1.444355 1.318303
  H 3.906845 -0.164783 1.965842
  H 1.759971 0.299674 3.170429
  H 1.759158 1.941329 2.510001
  H 3.932040 0.758853 4.301754
  H 2.695372 1.908328 4.796965
  H 3.930914 2.395933 3.643107
  H 3.056874 -0.670943 -1.618273
  H 5.338973 -0.119335 -0.243136
  H 5.007443 -2.380293 -3.583972
  H 5.008568 -0.793744 -4.220665
  H 2.588002 -0.510321 -3.612820
  H 2.586419 -2.161250 -2.950971
  H 3.221328 -1.408682 -5.830999
  H 1.723872 -2.123682 -5.249335
  H 3.219699 -3.044848 -5.175236
 31
 42.969255
  C 1.057459 0.091088 0.288756
  C 2.532363 0.146993 0.421824
  C 3.231863 0.637800 1.637618
  C 2.376175 1.108085 2.807482
  C 3.255463 1.574632 3.960894
  C 3.287114 -0.280500 -0.642489
  C 4.596966 -0.413376 -0.971961
  C 5.150298 -0.903517 -2.193968
  C 4.551968 -1.400324 -3.436111
  C 3.039004 -1.482782 -3.651769
  C 2.742218 -2.039077 -5.041719
  H 6.223787 -0.913354 -2.215220
  H 0.531225 0.445381 1.170786
  H 0.746019 -0.938596 0.064373
  H 0.743353 0.677120 -0.586057
  H 3.903889 1.451404 1.335894
  H 3.906186 -0.156285 1.983390
  H 1.739527 0.294708 3.159506
  H 1.736929 1.936695 2.497496
  H 3.893000 0.767441 4.316354
  H 2.641725 1.909614 4.794241
  H 3.890118 2.404586 3.656157
  H 3.277612 -0.670897 -1.614733
  H 5.392938 -0.138548 -0.284894
  H 4.990292 -2.398573 -3.606935
  H 4.994221 -0.798517 -4.248313
  H 2.583727 -0.497194 -3.577249
  H 2.579388 -2.141957 -2.918189
  H 3.161264 -1.401347 -5.815339
  H 1.669882 -2.100512 -5.202023
  H 3.156882 -3.036466 -5.159953
 31
 62.947374
  C 1.069164 0.081706 0.281413
  C 2.525876 0.139852 0.411992
  C 3.216878 0.634588 1.627250
  C 2.361607 1.105008 2.794919
  C 3.240578 1.576979 3.952836
  C 3.284312 -0.288483 -0.653526
  C 4.597623 -0.428361 -0.994412
  C 5.160221 -0.908447 -2.195228
  C 4.557288 -1.401323 -3.435920
  C 3.035089 -1.472966 -3.632415
  C 2.713912 -2.022282 -5.015125
  H 6.260120 -0.917717 -2.210513
  H 0.549858 0.427660 1.141438
  H 0.765531 -0.928826 0.061908
  H 0.760312 0.653899 -0.577778
  H 3.886754 1.445604 1.328159
  H 3.891745 -0.152736 1.974084
  H 1.723894 0.287594 3.149759
  H 1.719351 1.934593 2.480317
  H 3.880353 0.770494 4.312162
  H 2.624657 1.912241 4.784309
  H 3.875621 2.409181 3.648104
  H 3.431687 -0.676634 -1.620798
  H 5.416206 -0.158239 -0.312622
  H 4.987473 -2.406157 -3.614302
  H 4.995069 -0.798337 -4.254491
  H 2.584580 -0.485390 -3.550144
  H 2.578717 -2.130107 -2.893629
  H 3.126519 -1.385161 -5.793567
  H 1.639363 -2.075051 -5.158264
  H 3.119492 -3.022056 -5.141485
 31
 77.975898
  C 1.066011 0.012088 0.287192
  C 2.547239 0.104441 0.400996
  C 3.230490 0.645851 1.613829
  C 2.345980 1.108145 2.766694
  C 3.202586 1.623144 3.921265
  C 3.305582 -0.315172 -0.637072
  C 4.636248 -0.501114 -1.015820
  C 5.202073 -0.961113 -2.202958
  C 4.579785 -1.422681 -3.455530
  C 3.057703 -1.431509 -3.602888
  C 2.664366 -1.947490 -4.985410
  H 6.279716 -0.988412 -2.206337
  H 0.553728 0.372248 1.162969
  H 0.766920 -1.017447 0.095309
  H 0.734480 0.578233 -0.580024
  H 3.876352 1.476601 1.310490
  H 3.917000 -0.121471 1.984923
  H 1.732099 0.276655 3.123521
  H 1.683217 1.911896 2.434182
  H 3.862862 0.841700 4.295904
  H 2.570563 1.952022 4.744058
  H 3.813354 2.468896 3.607382
  H 3.569333 -0.707513 -1.617479
  H 5.459953 -0.257643 -0.321111
  H 4.976213 -2.429626 -3.652918
  H 5.021619 -0.816674 -4.259093
  H 2.652442 -0.424125 -3.486193
  H 2.595552 -2.085761 -2.858535
  H 3.076390 -1.316421 -5.768158
  H 1.584227 -1.954742 -5.093518
  H 3.024429 -2.960750 -5.139589
 31
 81.206796
  C 1.051298 -0.025905 0.316523
  C 2.544185 0.069382 0.387320
  C 3.236120 0.652495 1.618293
  C 2.329656 1.114815 2.745895
  C 3.174844 1.656350 3.888296
  C 3.286667 -0.334865 -0.607910
  C 4.632406 -0.575011 -1.078100
  C 5.250181 -1.003156 -2.225313
  C 4.635212 -1.444764 -3.506764
  C 3.114936 -1.406847 -3.584713
  C 2.631715 -1.887641 -4.955514
  H 6.326330 -1.040344 -2.216322
  H 0.573775 0.353474 1.222902
  H 0.749499 -1.066863 0.169813
  H 0.686877 0.549003 -0.539623
  H 3.853598 1.502621 1.302289
  H 3.919540 -0.115395 2.001547
  H 1.729727 0.287825 3.116938
  H 1.663826 1.902100 2.401188
  H 3.839620 0.891620 4.274716
  H 2.535729 1.989147 4.698668
  H 3.772975 2.499457 3.562687
  H 3.622959 -0.748436 -1.638611
  H 5.412757 -0.338193 -0.327439
  H 4.994014 -2.460398 -3.715133
  H 5.065057 -0.823640 -4.301759
  H 2.749933 -0.385079 -3.435229
  H 2.672313 -2.063266 -2.827170
  H 3.027812 -1.252279 -5.748785
  H 1.543426 -1.859120 -5.008774
  H 2.953962 -2.911640 -5.142902
 31
 86.305854
  C 1.029011 -0.119369 0.432211
  C 2.521352 0.020764 0.462368
  C 3.223395 0.675968 1.645822
  C 2.329044 1.163177 2.788019
  C 3.188124 1.782913 3.884869
  C 3.245869 -0.402120 -0.539894
  C 4.577252 -0.703303 -1.077465
  C 5.236552 -1.099414 -2.234334
  C 4.651029 -1.471128 -3.550679
  C 3.136190 -1.386358 -3.671210
  C 2.679590 -1.797312 -5.075099
  H 6.307552 -1.162049 -2.187034
  H 0.568242 0.276269 1.326756
  H 0.759389 -1.168452 0.333043
  H 0.627464 0.407395 -0.430851
  H 3.797126 1.524486 1.267619
  H 3.935243 -0.052143 2.041952
  H 1.767743 0.334088 3.215112
  H 1.628593 1.914983 2.430131
  H 3.889988 1.056144 4.285351
  H 2.559984 2.131733 4.700454
  H 3.750907 2.631420 3.504698
  H 3.606694 -0.845941 -1.601110
  H 5.308529 -0.508127 -0.275349
  H 4.979195 -2.489207 -3.788823
  H 5.112396 -0.828178 -4.309865
  H 2.796550 -0.361644 -3.492378
  H 2.658105 -2.059245 -2.952180
  H 3.113636 -1.145294 -5.829062
  H 1.597485 -1.735963 -5.157664
  H 2.978248 -2.819463 -5.296179
 31
 92.653117
  C 1.023934 -0.186704 0.520295
  C 2.501887 -0.020132 0.505351
  C 3.211834 0.688919 1.645619
  C 2.333340 1.188037 2.779338
  C 3.200302 1.867828 3.842503
  C 3.203911 -0.462598 -0.504861
  C 4.528638 -0.799824 -1.078626
  C 5.213853 -1.167166 -2.215868
  C 4.655444 -1.484003 -3.561648
  C 3.147361 -1.357809 -3.711456
  C 2.714825 -1.707799 -5.126736
  H 6.301733 -1.251032 -2.129737
  H 0.584004 0.232452 1.419161
  H 0.768661 -1.255826 0.461625
  H 0.585485 0.310451 -0.354484
  H 3.760412 1.540670 1.225473
  H 3.950914 -0.010020 2.052950
  H 1.799879 0.355327 3.245928
  H 1.599265 1.916181 2.406950
  H 3.930823 1.169120 4.256013
  H 2.576926 2.228072 4.662561
  H 3.737876 2.722681 3.421276
  H 3.610009 -0.939707 -1.592825
  H 5.227245 -0.638753 -0.237317
  H 4.963478 -2.499756 -3.827638
  H 5.146318 -0.830721 -4.288645
  H 2.828599 -0.332581 -3.505869
  H 2.639234 -2.041337 -3.024445
  H 3.179177 -1.043742 -5.847374
  H 1.640351 -1.617686 -5.229893
  H 2.991803 -2.722550 -5.374600
 31
 97.285178
  C 0.955066 -0.266116 0.611241
  C 2.444678 -0.070824 0.540153
  C 3.196132 0.698831 1.633562
  C 2.358107 1.232348 2.797508
  C 3.259350 1.959245 3.790660
  C 3.115334 -0.532609 -0.476223
  C 4.455391 -0.887992 -1.052754
  C 5.194030 -1.225672 -2.182759
  C 4.686123 -1.485411 -3.552072
  C 3.169218 -1.327513 -3.749739
  C 2.773019 -1.621757 -5.208976
  H 6.251812 -1.322845 -2.057326
  H 0.537882 0.167664 1.498303
  H 0.721775 -1.325940 0.595483
  H 0.482226 0.187569 -0.253971
  H 3.712517 1.541848 1.161294
  H 3.963631 0.024313 2.032540
  H 1.859429 0.412684 3.317483
  H 1.604722 1.931420 2.435451
  H 4.010565 1.292978 4.190644
  H 2.674827 2.339584 4.617022
  H 3.758168 2.792849 3.321149
  H 3.587099 -1.046531 -1.591469
  H 5.108713 -0.762052 -0.184599
  H 4.990480 -2.490289 -3.842954
  H 5.213065 -0.816669 -4.232937
  H 2.857397 -0.301886 -3.513920
  H 2.624684 -2.029806 -3.103699
  H 3.276162 -0.931823 -5.896623
  H 1.692308 -1.508800 -5.345335
  H 3.046583 -2.648129 -5.491548
 31
 99.847122
  C 0.951675 -0.425627 0.745322
  C 2.425197 -0.168832 0.595887
  C 3.178704 0.714505 1.590672
  C 2.366645 1.287721 2.737113
  C 3.264899 2.114190 3.634506
  C 3.081166 -0.667672 -0.412855
  C 4.395516 -1.083820 -0.996766
  C 5.161492 -1.394591 -2.135892
  C 4.682387 -1.515469 -3.535478
  C 3.198532 -1.230664 -3.757227
  C 2.829818 -1.388514 -5.224060
  H 6.214372 -1.567354 -1.975328
  H 0.550886 0.056100 1.624898
  H 0.767371 -1.499035 0.816900
  H 0.419001 -0.049823 -0.131419
  H 3.634590 1.541783 1.038681
  H 3.986709 0.108086 2.005065
  H 1.930039 0.496149 3.326030
  H 1.578964 1.919868 2.363174
  H 4.067246 1.502443 4.051008
  H 2.692631 2.526078 4.458620
  H 3.708434 2.938594 3.085479
  H 3.575660 -1.229986 -1.574791
  H 5.033948 -1.041593 -0.102027
  H 4.922278 -2.523734 -3.899009
  H 5.282157 -0.832313 -4.154167
  H 2.961157 -0.209145 -3.455990
  H 2.587565 -1.931588 -3.183264
  H 3.395456 -0.703148 -5.837993
  H 1.778735 -1.185857 -5.376619
  H 3.031395 -2.400176 -5.567100
 31
 104.008696
  C 0.963891 -0.439459 0.798939
  C 2.426025 -0.174600 0.622770
  C 3.182383 0.732184 1.592573
  C 2.364010 1.317923 2.742422
  C 3.268357 2.188820 3.632903
  C 3.073672 -0.689537 -0.382803
  C 4.361618 -1.137491 -0.997035
  C 5.151202 -1.444993 -2.147775
  C 4.689615 -1.534344 -3.554898
  C 3.214807 -1.209766 -3.790257
  C 2.860097 -1.329168 -5.277711
  H 6.192667 -1.651802 -1.968409
  H 0.572478 0.055299 1.675811
  H 0.791116 -1.509837 0.891588
  H 0.417646 -0.087299 -0.071191
  H 3.624587 1.553438 1.023632
  H 4.003408 0.141164 2.010676
  H 1.934950 0.513132 3.359085
  H 1.544019 1.943849 2.350912
  H 4.081976 1.599752 4.056181
  H 2.691093 2.610996 4.459094
  H 3.700221 3.015713 3.063081
  H 3.585137 -1.300358 -1.597996
  H 4.978307 -1.131560 -0.092779
  H 4.911721 -2.536523 -3.932627
  H 5.309665 -0.860708 -4.150527
  H 2.996460 -0.185128 -3.467538
  H 2.575961 -1.910677 -3.236109
  H 3.456515 -0.636097 -5.877555
  H 1.805181 -1.096966 -5.441002
  H 3.043297 -2.339571 -5.641208
 31
 105.326283
  C 0.995929 -0.539958 0.874838
  C 2.444918 -0.211798 0.652328
  C 3.185683 0.766770 1.568731
  C 2.367349 1.367694 2.705150
  C 3.242573 2.307318 3.530076
  C 3.102562 -0.745628 -0.330074
  C 4.327404 -1.257506 -0.978796
  C 5.122253 -1.575473 -2.137266
  C 4.679025 -1.576302 -3.549776
  C 3.236896 -1.129003 -3.786668
  C 2.896461 -1.148049 -5.276079
  H 6.134598 -1.875269 -1.938774
  H 0.597614 -0.027954 1.740949
  H 0.877983 -1.613198 1.015328
  H 0.411308 -0.251456 0.003238
  H 3.586805 1.580572 0.956342
  H 4.037271 0.227347 1.994405
  H 1.987978 0.581820 3.359921
  H 1.524103 1.933388 2.307901
  H 4.090903 1.771145 3.963152
  H 2.664806 2.739929 4.343699
  H 3.625540 3.120542 2.916869
  H 3.603477 -1.438599 -1.618148
  H 4.913273 -1.317979 -0.054119
  H 4.830498 -2.576060 -3.971040
  H 5.358366 -0.925339 -4.110819
  H 3.091277 -0.111033 -3.414585
  H 2.539893 -1.803081 -3.275583
  H 3.549148 -0.474758 -5.832215
  H 1.866633 -0.829697 -5.437413
  H 3.009348 -2.152105 -5.689364
 31
 104.586448
  C 1.046611 -0.621070 0.953178
  C 2.477279 -0.237516 0.690252
  C 3.192067 0.802702 1.553701
  C 2.361431 1.422480 2.672383
  C 3.205783 2.429728 3.442001
  C 3.150433 -0.795922 -0.265398
  C 4.299310 -1.363485 -0.963681
  C 5.087585 -1.707621 -2.152206
  C 4.658593 -1.621698 -3.566699
  C 3.260398 -1.049781 -3.794411
  C 2.938443 -0.971468 -5.279754
  H 6.062056 -2.103834 -1.946799
  H 0.640728 -0.089776 1.801519
  H 0.978585 -1.691040 1.143303
  H 0.434182 -0.396712 0.079507
  H 3.558646 1.602573 0.902985
  H 4.065449 0.315709 1.993048
  H 2.018891 0.651494 3.367973
  H 1.489991 1.937533 2.258801
  H 4.076713 1.948926 3.886309
  H 2.623394 2.873387 4.237609
  H 3.547697 3.224679 2.791762
  H 3.624732 -1.596719 -1.640579
  H 4.843644 -1.488337 -0.020356
  H 4.733997 -2.610588 -4.029511
  H 5.393251 -1.004958 -4.097457
  H 3.190740 -0.044564 -3.373553
  H 2.506075 -1.687702 -3.320959
  H 3.645980 -0.328134 -5.795137
  H 1.942684 -0.566503 -5.433342
  H 2.976814 -1.956845 -5.739015
