20

H 1.3614225625588159 0.14130525175679748 0.40407042118797387
C 2.43139 0.138375 0.396254
H 3.00485793416495 0.47544860683008905 1.2343565665532465
C 3.040241 -0.328066 -0.764349
C 4.417027 -0.409834 -0.969005
C 5.108629 -0.859137 -2.089578
C 4.617715 -1.38221 -3.394256
C 3.130086 -1.502652 -3.695591
C 2.929787 -2.065531 -5.099643
O 6.427962 -0.850409 -2.068213
H 2.370371 -0.642604 -1.546367
H 5.042108 -0.079879 -0.148002
H 5.081501 -2.367461 -3.517593
H 5.082043 -0.755415 -4.164069
H 2.651821 -0.524197 -3.646489
H 2.651421 -2.175999 -2.984287
H 3.377261 -1.415625 -5.847947
H 1.86966 -2.154497 -5.32221
H 3.376933 -3.052521 -5.191658
H 6.8192 -0.519344 -1.240689
