 20
 0.000000
  H 1.381298 0.169046 0.471651
  C 2.452560 0.135635 0.388387
  H 3.067804 0.464874 1.207710
  C 3.003705 -0.330959 -0.773316
  C 4.388503 -0.409292 -0.969464
  C 5.100761 -0.859510 -2.092014
  C 4.615964 -1.381083 -3.391703
  C 3.131137 -1.506525 -3.704559
  C 2.944591 -2.071038 -5.111119
  O 6.408134 -0.842438 -2.050253
  H 2.332901 -0.645043 -1.554861
  H 5.000570 -0.074969 -0.137545
  H 5.087096 -2.364453 -3.515291
  H 5.087363 -0.756234 -4.160862
  H 2.648718 -0.529629 -3.660631
  H 2.648611 -2.181978 -2.997506
  H 3.395382 -1.420254 -5.856394
  H 1.886860 -2.163863 -5.342583
  H 3.395371 -3.056497 -5.199687
  H 6.786812 -0.507250 -1.213325
 20
 17.514291
  H 1.422966 0.234384 0.634544
  C 2.546867 0.153402 0.432803
  H 3.211732 0.469411 1.219714
  C 3.003012 -0.322096 -0.751799
  C 4.434433 -0.428700 -1.018175
  C 5.027703 -0.879043 -2.141265
  C 4.619381 -1.402243 -3.444987
  C 3.143616 -1.527657 -3.757266
  C 2.956132 -2.091189 -5.161017
  O 6.264949 -0.778419 -1.891016
  H 2.302718 -0.628730 -1.515677
  H 5.029699 -0.093831 -0.183274
  H 5.103435 -2.373658 -3.555190
  H 5.103426 -0.776884 -4.196417
  H 2.662719 -0.550343 -3.708371
  H 2.662799 -2.199972 -3.046120
  H 3.406324 -1.440300 -5.907105
  H 1.898498 -2.183556 -5.391053
  H 3.406449 -3.077262 -5.249981
  H 6.563633 -0.433825 -1.029285
 20
 64.767362
  H 1.425804 0.275102 0.740947
  C 2.596646 0.170941 0.477951
  H 3.271465 0.483382 1.255555
  C 2.991059 -0.306745 -0.715137
  C 4.517592 -0.437728 -1.042024
  C 4.994763 -0.890031 -2.169818
  C 4.635485 -1.416763 -3.482524
  C 3.145572 -1.546165 -3.805451
  C 2.955770 -2.111451 -5.210066
  O 6.177154 -0.738797 -1.794082
  H 2.281483 -0.606626 -1.464046
  H 5.042621 -0.090597 -0.174032
  H 5.126260 -2.386228 -3.580297
  H 5.127313 -0.785000 -4.223897
  H 2.664852 -0.568780 -3.752827
  H 2.664411 -2.214550 -3.090741
  H 3.405595 -1.461262 -5.957056
  H 1.897494 -2.203982 -5.440009
  H 3.405686 -3.097908 -5.298309
  H 6.463911 -0.398137 -0.936749
 20
 115.621211
  H 1.384203 0.229218 0.763923
  C 2.538677 0.171687 0.496349
  H 3.177556 0.502597 1.294388
  C 2.872078 -0.255996 -0.672022
  C 4.691864 -0.430930 -1.072716
  C 4.981510 -0.905775 -2.214805
  C 4.653630 -1.434153 -3.529803
  C 3.157830 -1.551511 -3.817241
  C 2.938712 -2.118679 -5.210842
  O 6.229791 -0.694997 -1.760161
  H 2.268637 -0.562511 -1.503846
  H 5.077290 -0.096850 -0.139092
  H 5.133369 -2.416803 -3.606701
  H 5.136201 -0.788240 -4.272689
  H 2.693662 -0.565723 -3.757976
  H 2.691780 -2.213859 -3.084943
  H 3.366774 -1.471190 -5.970504
  H 1.873539 -2.199703 -5.412409
  H 3.366773 -3.112276 -5.303378
  H 6.580893 -0.418541 -0.893955
 20
 140.632884
  H 1.279286 0.295342 0.915299
  C 2.370116 0.195397 0.567919
  H 3.079550 0.513647 1.307538
  C 2.627516 -0.256999 -0.605798
  C 4.898986 -0.451098 -1.108097
  C 5.044199 -0.932571 -2.269772
  C 4.689571 -1.451039 -3.564900
  C 3.180953 -1.540740 -3.809468
  C 2.937233 -2.117784 -5.212404
  O 6.360649 -0.695637 -1.792425
  H 2.030676 -0.559192 -1.437145
  H 5.158896 -0.087200 -0.149293
  H 5.131451 -2.446992 -3.672391
  H 5.149759 -0.824607 -4.336972
  H 2.739178 -0.551789 -3.768971
  H 2.723966 -2.205673 -3.083232
  H 3.385246 -1.491822 -5.968379
  H 1.870766 -2.191968 -5.417798
  H 3.371507 -3.104900 -5.305778
  H 6.799424 -0.443536 -0.958022
 20
 144.636949
  H 1.062321 0.339712 0.984697
  C 2.083571 0.202296 0.600393
  H 2.848389 0.425975 1.343903
  C 2.323783 -0.210793 -0.596908
  C 5.169801 -0.457448 -1.201304
  C 5.181518 -0.940935 -2.363900
  C 4.786414 -1.461751 -3.635324
  C 3.253286 -1.511969 -3.760623
  C 2.896649 -2.110003 -5.129059
  O 6.598016 -0.695412 -1.890937
  H 1.725730 -0.462974 -1.449209
  H 5.249193 -0.185771 -0.168000
  H 5.193650 -2.473843 -3.744082
  H 5.208527 -0.834153 -4.429804
  H 2.840179 -0.507342 -3.716552
  H 2.850612 -2.180946 -3.000840
  H 3.295939 -1.504131 -5.931651
  H 1.819384 -2.162931 -5.249848
  H 3.307092 -3.112740 -5.238034
  H 7.133576 -0.514627 -1.090269
 20
 146.624028
  H 0.885555 0.450203 1.148260
  C 1.901425 0.256128 0.732234
  H 2.688181 0.443977 1.453520
  C 2.096849 -0.201530 -0.454313
  C 5.279832 -0.485370 -1.262433
  C 5.255679 -0.976933 -2.427476
  C 4.855709 -1.499875 -3.690769
  C 3.321948 -1.527273 -3.795958
  C 2.915010 -2.110903 -5.148020
  O 6.652515 -0.716616 -1.955665
  H 1.476351 -0.463953 -1.277082
  H 5.417054 -0.166667 -0.258214
  H 5.252983 -2.518804 -3.802971
  H 5.269015 -0.878541 -4.495584
  H 2.930992 -0.512193 -3.727137
  H 2.905498 -2.152841 -3.007786
  H 3.311303 -1.512616 -5.967657
  H 1.831586 -2.129984 -5.236689
  H 3.286215 -3.130491 -5.263476
  H 7.239582 -0.549661 -1.184314
 20
 139.764876
  H 0.636056 0.330827 1.145619
  C 1.634520 0.243154 0.708877
  H 2.428916 0.365656 1.431454
  C 1.850813 -0.099806 -0.514803
  C 5.601648 -0.467851 -1.368339
  C 5.369183 -0.963038 -2.514102
  C 4.920626 -1.484573 -3.745042
  C 3.379796 -1.500630 -3.714832
  C 2.855895 -2.106871 -5.007446
  O 6.923020 -0.699074 -2.048190
  H 1.255429 -0.318718 -1.369071
  H 5.532903 -0.301454 -0.324191
  H 5.300135 -2.504128 -3.879038
  H 5.272989 -0.878895 -4.584498
  H 2.996892 -0.486254 -3.590228
  H 3.032822 -2.098153 -2.870356
  H 3.179291 -1.515431 -5.864743
  H 1.764852 -2.111596 -5.004106
  H 3.211505 -3.118564 -5.142934
  H 7.565451 -0.676583 -1.305062
 20
 128.219121
  H 0.481936 0.401905 1.106076
  C 1.481156 0.273609 0.684811
  H 2.269390 0.392632 1.414617
  C 1.711766 -0.057548 -0.539474
  C 5.777520 -0.447450 -1.412828
  C 5.421554 -1.066151 -2.477206
  C 4.948927 -1.485471 -3.736519
  C 3.403397 -1.605043 -3.622132
  C 2.832969 -2.064717 -4.956231
  O 7.042181 -0.607420 -2.097180
  H 1.135297 -0.269212 -1.412343
  H 5.624804 -0.247819 -0.377641
  H 5.364371 -2.458308 -4.008662
  H 5.205873 -0.761480 -4.511410
  H 2.985328 -0.637410 -3.351526
  H 3.145706 -2.318568 -2.838176
  H 3.064248 -1.360073 -5.747470
  H 1.754204 -2.140681 -4.881942
  H 3.217284 -3.043069 -5.233477
  H 7.691124 -0.945176 -1.437979
