 20
 0.000000
  H 1.558052 0.047869 0.287344
  C 2.634346 0.053178 0.193264
  C 3.397548 -0.019607 1.483230
  C 2.484403 -0.088540 2.704775
  C 3.283500 -0.161677 4.001001
  C 3.189030 0.121519 -1.017852
  H 2.573447 0.171583 -1.905127
  C 4.609782 0.135782 -1.270542
  C 5.135435 0.204907 -2.495757
  O 6.458684 0.221306 -2.786367
  H 4.048120 0.856722 1.575922
  H 4.048128 -0.900803 1.476745
  H 1.842039 -0.969050 2.630289
  H 1.842031 0.794755 2.729825
  H 3.917098 -1.046293 4.011991
  H 2.615963 -0.210068 4.858524
  H 3.917089 0.716088 4.111438
  H 5.276307 0.087715 -0.418634
  H 4.541413 0.255730 -3.396494
  H 6.971775 0.175203 -1.969212
 20
 12.079155
  H 1.581770 0.047523 0.293508
  C 2.656390 0.052700 0.201769
  C 3.436217 -0.018795 1.468859
  C 2.416938 -0.095391 2.826174
  C 3.225587 -0.167731 4.108271
  C 3.234359 0.125881 -1.095116
  H 2.595067 0.174853 -1.963079
  C 4.646091 0.140586 -1.355651
  C 5.159400 0.210071 -2.587261
  O 6.478939 0.227289 -2.892428
  H 4.078352 0.857380 1.576288
  H 4.078363 -0.901495 1.477037
  H 1.781976 -0.974990 2.733481
  H 1.781968 0.789045 2.833028
  H 3.859883 -1.051907 4.114836
  H 2.562982 -0.216367 4.970140
  H 3.859875 0.710097 4.214259
  H 5.319069 0.092806 -0.508807
  H 4.552668 0.260406 -3.479398
  H 7.001350 0.181515 -2.081099
 20
 35.397683
  H 1.642919 0.048025 0.284545
  C 2.708105 0.052707 0.201649
  C 3.519178 -0.016232 1.423506
  C 2.334562 -0.101980 2.942924
  C 3.166329 -0.172791 4.197842
  C 3.270384 0.128168 -1.135677
  H 2.586785 0.174907 -1.964017
  C 4.672173 0.143947 -1.415291
  C 5.165277 0.213941 -2.655872
  O 6.471136 0.232304 -2.981361
  H 4.118447 0.863281 1.606334
  H 4.118451 -0.910706 1.506228
  H 1.737607 -0.985740 2.768972
  H 1.737586 0.795735 2.869501
  H 3.799139 -1.055397 4.198161
  H 2.515331 -0.222044 5.070509
  H 3.799140 0.704194 4.297457
  H 5.352085 0.096666 -0.577276
  H 4.539328 0.263356 -3.531719
  H 7.007203 0.186935 -2.177195
