17

H 1.4349525679757718 -0.07387657027924989 0.04303080245889822
C 2.50477 -0.082848 0.025419
C 3.217745 -0.596495 -0.982962
C 4.65522 -0.607987 -1.005519
C 5.376238 -1.122852 -2.016285
C 6.81446 -1.131547 -2.033354
C 7.535051 -1.642514 -3.036472
C 9.02508 -1.660429 -3.071633
H 3.007489 0.352037 0.879174
H 2.704477 -1.029422 -1.832859
H 5.159941 -0.173118 -0.151804
H 4.87329 -1.55809 -2.870729
H 7.31932 -0.696605 -1.17949
H 7.037575 -2.079113 -3.893573
H 9.456683 -1.206807 -2.181101
H 9.385471 -1.114083 -3.944676
H 9.385469 -2.687852 -3.143026
