 17
 0.000000
  H 1.434959 -0.075706 0.039441
  C 2.508054 -0.083782 0.023586
  C 3.218161 -0.595395 -0.980802
  C 4.655168 -0.607528 -1.004619
  C 5.377006 -1.122410 -2.015418
  C 6.814356 -1.131763 -2.033780
  C 7.534941 -1.642089 -3.035637
  C 9.024021 -1.660456 -3.071687
  H 3.007821 0.350716 0.876581
  H 2.705436 -1.028238 -1.830535
  H 5.159752 -0.172876 -0.151330
  H 4.874057 -1.557458 -2.869488
  H 7.318680 -0.696973 -1.180215
  H 7.037517 -2.078448 -3.892268
  H 9.454384 -1.206931 -2.181347
  H 9.384460 -1.114914 -3.944655
  H 9.384459 -2.687351 -3.143686
 17
 0.611580
  H 1.423783 -0.313748 0.050875
  C 2.492885 -0.188238 0.047524
  C 3.250143 -0.564194 -0.981646
  C 4.682879 -0.448206 -1.014458
  C 5.425432 -0.849788 -2.059314
  C 6.862508 -0.882453 -2.082077
  C 7.543064 -1.538790 -3.023986
  C 9.016165 -1.742636 -3.062245
  H 2.927146 0.263460 0.925628
  H 2.791842 -1.015372 -1.852898
  H 5.161579 -0.046447 -0.131446
  H 4.927583 -1.250853 -2.934206
  H 7.382862 -0.402609 -1.263849
  H 6.990359 -2.022532 -3.820924
  H 9.505699 -1.249597 -2.224394
  H 9.430184 -1.348484 -3.991759
  H 9.244604 -2.808229 -3.026954
 17
 2.594091
  H 1.436081 -0.548126 0.013338
  C 2.490193 -0.332738 0.036793
  C 3.284749 -0.573233 -1.003778
  C 4.708995 -0.361974 -1.007058
  C 5.469121 -0.647058 -2.075528
  C 6.910032 -0.698579 -2.096855
  C 7.526985 -1.491854 -2.972658
  C 8.969188 -1.845821 -3.051804
  H 2.872953 0.093670 0.949737
  H 2.873277 -1.002707 -1.908925
  H 5.161100 -0.014789 -0.087444
  H 4.979142 -0.994089 -2.978133
  H 7.457168 -0.162444 -1.333737
  H 6.905510 -2.021217 -3.688103
  H 9.554303 -1.307304 -2.309036
  H 9.360844 -1.613990 -4.042573
  H 9.094239 -2.916394 -2.890987
 17
 5.632572
  H 1.458927 -0.740344 -0.059599
  C 2.499250 -0.472504 0.004828
  C 3.322002 -0.583440 -1.034894
  C 4.739118 -0.320333 -0.992295
  C 5.510420 -0.468661 -2.077608
  C 6.958289 -0.552541 -2.104839
  C 7.499047 -1.477859 -2.892514
  C 8.905985 -1.938055 -3.036398
  H 2.842007 -0.105189 0.958378
  H 2.948156 -0.955249 -1.980983
  H 5.171842 -0.068770 -0.033373
  H 5.023371 -0.720193 -3.013576
  H 7.543667 0.051157 -1.426357
  H 6.807984 -2.052231 -3.504177
  H 9.584599 -1.362473 -2.409376
  H 9.224448 -1.846108 -4.074739
  H 8.977432 -2.989723 -2.760895
 17
 8.269684
  H 1.471466 -0.837262 -0.124487
  C 2.517727 -0.606865 -0.025724
  C 3.335976 -0.583914 -1.072072
  C 4.760363 -0.368200 -0.992835
  C 5.528254 -0.355850 -2.084421
  C 6.984958 -0.484828 -2.118036
  C 7.461504 -1.512163 -2.809620
  C 8.847741 -2.018550 -2.999620
  H 2.869246 -0.391418 0.969714
  H 2.954420 -0.802624 -2.061408
  H 5.197090 -0.288718 -0.006753
  H 5.041690 -0.437959 -3.050565
  H 7.608799 0.182883 -1.541974
  H 6.721694 -2.130768 -3.312322
  H 9.579625 -1.387982 -2.498149
  H 9.085361 -2.056496 -4.062230
  H 8.926873 -3.031065 -2.605705
 17
 9.270472
  H 1.461171 -0.746980 -0.198933
  C 2.530048 -0.698519 -0.082645
  C 3.343130 -0.489813 -1.112532
  C 4.784924 -0.469394 -1.019897
  C 5.567949 -0.210476 -2.065287
  C 7.021670 -0.444678 -2.110079
  C 7.424284 -1.539371 -2.736281
  C 8.792234 -2.081904 -2.965762
  H 2.909642 -0.826309 0.918006
  H 2.938907 -0.363349 -2.109184
  H 5.218745 -0.730256 -0.063878
  H 5.108521 0.049243 -3.013594
  H 7.699896 0.242959 -1.624194
  H 6.643696 -2.165176 -3.160561
  H 9.557186 -1.426968 -2.552914
  H 8.968246 -2.199171 -4.034303
  H 8.883946 -3.064547 -2.504189
 17
 9.129830
  H 1.485228 -0.776275 -0.251280
  C 2.555717 -0.804704 -0.157622
  C 3.360972 -0.443697 -1.150334
  C 4.801203 -0.528476 -1.094530
  C 5.606096 -0.064389 -2.049543
  C 7.043024 -0.383234 -2.130785
  C 7.376885 -1.560499 -2.637943
  C 8.726171 -2.129640 -2.909305
  H 2.944919 -1.137500 0.789618
  H 2.946625 -0.109304 -2.092884
  H 5.223114 -1.042196 -0.240917
  H 5.186211 0.467792 -2.896620
  H 7.774223 0.337145 -1.789167
  H 6.561363 -2.205114 -2.951849
  H 9.514967 -1.462901 -2.568897
  H 8.846660 -2.298770 -3.978283
  H 8.834685 -3.089635 -2.407641
 17
 8.463977
  H 1.509516 -0.877970 -0.409333
  C 2.580454 -0.933041 -0.303215
  C 3.406314 -0.379857 -1.184111
  C 4.841736 -0.528523 -1.148052
  C 5.696898 0.111655 -1.957785
  C 7.087984 -0.331746 -2.104148
  C 7.299117 -1.559409 -2.563323
  C 8.605421 -2.213941 -2.865489
  H 2.950890 -1.455508 0.564998
  H 3.003593 0.146907 -2.042866
  H 5.228650 -1.266592 -0.455322
  H 5.344964 0.882213 -2.633003
  H 7.897346 0.339038 -1.853007
  H 6.426076 -2.149414 -2.817827
  H 9.440928 -1.614768 -2.507766
  H 8.711754 -2.354220 -3.941321
  H 8.648897 -3.197617 -2.398772
 17
 8.439800
  H 1.567376 -1.022724 -0.494682
  C 2.638867 -1.081308 -0.430472
  C 3.434893 -0.369999 -1.223738
  C 4.863062 -0.529809 -1.263658
  C 5.723913 0.219287 -1.971276
  C 7.064827 -0.276038 -2.232917
  C 7.229616 -1.570895 -2.480081
  C 8.522804 -2.273188 -2.690772
  H 3.039211 -1.750106 0.312726
  H 2.999604 0.299886 -1.954242
  H 5.259462 -1.335245 -0.659934
  H 5.420105 1.165388 -2.398196
  H 7.901477 0.409196 -2.227743
  H 6.343824 -2.149323 -2.703692
  H 9.361076 -1.659496 -2.373098
  H 8.653449 -2.525579 -3.742884
  H 8.533089 -3.204779 -2.128478
 17
 18.485843
  H 1.755868 -1.411186 -0.655349
  C 2.819861 -1.297650 -0.538279
  C 3.539557 -0.495950 -1.326435
  C 4.963049 -0.432102 -1.297333
  C 5.757117 0.390889 -2.033869
  C 7.052704 -0.149126 -2.332467
  C 7.082331 -1.488240 -2.464332
  C 8.309826 -2.332519 -2.482638
  H 3.282151 -1.874703 0.245578
  H 3.043630 0.067102 -2.108393
  H 5.439493 -1.084273 -0.576079
  H 5.405530 1.333225 -2.428860
  H 7.944371 0.457603 -2.413735
  H 6.176985 -1.977714 -2.792690
  H 9.165847 -1.792742 -2.085990
  H 8.544683 -2.662841 -3.496435
  H 8.144633 -3.226149 -1.881884
 17
 31.679551
  H 1.955519 -1.694885 -0.683758
  C 3.006943 -1.489344 -0.582078
  C 3.646924 -0.633918 -1.386316
  C 5.052787 -0.421226 -1.355135
  C 5.755535 0.485795 -2.125774
  C 7.005463 -0.059071 -2.480483
  C 6.948729 -1.426383 -2.473093
  C 8.124409 -2.326996 -2.284166
  H 3.527406 -2.018107 0.199631
  H 3.096348 -0.128833 -2.171537
  H 5.576567 -0.920860 -0.552599
  H 5.342410 1.422817 -2.466737
  H 7.918472 0.491736 -2.656546
  H 6.086900 -1.895997 -2.920299
  H 8.960539 -1.796535 -1.835001
  H 8.450389 -2.752781 -3.236017
  H 7.846202 -3.159520 -1.639054
 17
 39.481309
  H 2.212523 -1.942495 -0.724771
  C 3.249769 -1.668777 -0.643141
  C 3.812772 -0.766727 -1.448108
  C 5.214992 -0.435439 -1.427580
  C 5.806572 0.600108 -2.209078
  C 6.984706 0.055968 -2.642579
  C 6.796183 -1.339819 -2.495434
  C 7.883413 -2.303225 -2.131715
  H 3.818734 -2.166939 0.124897
  H 3.217521 -0.293509 -2.218985
  H 5.765663 -0.815058 -0.579498
  H 5.329869 1.529079 -2.475708
  H 7.917664 0.533143 -2.897807
  H 5.971090 -1.799094 -3.019273
  H 8.713500 -1.797541 -1.643373
  H 8.255341 -2.809250 -3.025175
  H 7.499277 -3.071991 -1.463385
 17
 28.912056
  H 2.445713 -2.149455 -0.762751
  C 3.459097 -1.797131 -0.672337
  C 3.970033 -0.897560 -1.501211
  C 5.385737 -0.470125 -1.480527
  C 5.850849 0.690088 -2.260726
  C 6.980979 0.148940 -2.724945
  C 6.632454 -1.255471 -2.461207
  C 7.627918 -2.293778 -2.014342
  H 4.050229 -2.237215 0.115610
  H 3.361098 -0.499226 -2.306288
  H 5.905255 -0.682038 -0.545973
  H 5.337742 1.611652 -2.463914
  H 7.917655 0.562187 -3.032863
  H 5.853559 -1.697218 -3.085376
  H 8.467089 -1.837372 -1.490994
  H 8.003385 -2.830304 -2.876198
  H 7.158512 -3.025204 -1.354894
 17
 14.651322
  H 2.471046 -2.139510 -0.747103
  C 3.505905 -1.851652 -0.682163
  C 4.042926 -0.968990 -1.505240
  C 5.465283 -0.541214 -1.478203
  C 5.882642 0.705072 -2.195923
  C 6.893675 0.139594 -2.847966
  C 6.518775 -1.261253 -2.477309
  C 7.534281 -2.230110 -1.910677
  H 4.080301 -2.309120 0.107518
  H 3.452173 -0.520486 -2.294245
  H 5.955546 -0.702345 -0.517123
  H 5.383865 1.652748 -2.276120
  H 7.793574 0.518303 -3.296364
  H 5.830750 -1.755836 -3.166759
  H 8.308798 -1.700289 -1.360216
  H 8.004563 -2.794146 -2.714352
  H 7.052204 -2.938726 -1.239950
 17
 5.800623
  H 2.419460 -2.008412 -0.582118
  C 3.441506 -1.683404 -0.507865
  C 4.069627 -1.101054 -1.515898
  C 5.492958 -0.658824 -1.465352
  C 5.861184 0.593588 -2.227867
  C 6.694817 -0.023628 -3.056437
  C 6.452772 -1.391362 -2.469954
  C 7.633602 -2.120679 -1.853093
  H 3.928033 -1.855775 0.437988
  H 3.561675 -0.938818 -2.457122
  H 5.865674 -0.672832 -0.439776
  H 5.515727 1.606081 -2.116981
  H 7.339488 0.297032 -3.855234
  H 5.908243 -2.056100 -3.146565
  H 8.254003 -1.429424 -1.285942
  H 8.245970 -2.577864 -2.627854
  H 7.282004 -2.903351 -1.184107
