 20
 0.000000
  C 1.007569 -0.072615 0.046013
  C 2.503923 -0.081235 0.026576
  C 3.219585 -0.594101 -0.980208
  C 4.657571 -0.605134 -1.001007
  C 5.377539 -1.120592 -2.012896
  C 6.816206 -1.130603 -2.031599
  C 7.534060 -1.642540 -3.036579
  C 9.024166 -1.662225 -3.074264
  H 0.645631 0.393850 0.961661
  H 0.612372 -1.088373 0.009747
  H 0.610749 0.492340 -0.797418
  H 3.002852 0.353918 0.882550
  H 2.708209 -1.027276 -1.831323
  H 5.162377 -0.170504 -0.147079
  H 4.873231 -1.555308 -2.866998
  H 7.323238 -0.696401 -1.178498
  H 7.035098 -2.078561 -3.893230
  H 9.458504 -1.209313 -2.184471
  H 9.383521 -1.116060 -3.947975
  H 9.383000 -2.690246 -3.146451
 20
 -0.189267
  C 1.001309 -0.076683 0.058572
  C 2.496406 -0.075123 0.029238
  C 3.217338 -0.569264 -0.979062
  C 4.656355 -0.601375 -1.000369
  C 5.381336 -1.098808 -2.015806
  C 6.817425 -1.133739 -2.034251
  C 7.539165 -1.629111 -3.041428
  C 9.028415 -1.673631 -3.075790
  H 0.626504 0.496687 0.896535
  H 0.636450 -1.098322 0.155336
  H 0.595318 0.328823 -0.864598
  H 3.003305 0.337304 0.892328
  H 2.711908 -0.978509 -1.846936
  H 5.162578 -0.194842 -0.133660
  H 4.874448 -1.505301 -2.885130
  H 7.320969 -0.726663 -1.164882
  H 7.037107 -2.036063 -3.910853
  H 9.454618 -1.245030 -2.171750
  H 9.404415 -1.120984 -3.939023
  H 9.373056 -2.701318 -3.173123
 20
 -0.330065
  C 1.004258 -0.071470 0.058461
  C 2.497084 -0.092725 0.034443
  C 3.220514 -0.570658 -0.982581
  C 4.654166 -0.609952 -0.997626
  C 5.381370 -1.092715 -2.021298
  C 6.815082 -1.136398 -2.034115
  C 7.539023 -1.618929 -3.047735
  C 9.026983 -1.671185 -3.077189
  H 0.631307 0.614954 0.813216
  H 0.638478 -1.072326 0.297000
  H 0.602069 0.202427 -0.914445
  H 3.004270 0.284832 0.916405
  H 2.716354 -0.952477 -1.866593
  H 5.158890 -0.224825 -0.119339
  H 4.876149 -1.478683 -2.899774
  H 7.318040 -0.747615 -1.153387
  H 7.039055 -2.008251 -3.925006
  H 9.451937 -1.261396 -2.165058
  H 9.409044 -1.104340 -3.930635
  H 9.367562 -2.702406 -3.191882
 20
 0.368926
  C 1.009280 -0.077529 0.072209
  C 2.492971 -0.099580 0.023765
  C 3.218525 -0.511943 -1.019469
  C 4.651798 -0.565947 -1.025808
  C 5.380989 -1.056500 -2.044751
  C 6.813900 -1.133123 -2.039109
  C 7.539009 -1.635318 -3.042185
  C 9.025169 -1.692925 -3.064778
  H 0.628857 0.654218 0.780349
  H 0.728381 -1.073368 0.445471
  H 0.569223 0.039261 -0.914899
  H 3.001451 0.242987 0.919712
  H 2.715899 -0.867992 -1.915823
  H 5.153779 -0.201952 -0.137828
  H 4.876624 -1.427919 -2.934730
  H 7.315431 -0.750628 -1.153940
  H 7.038614 -2.041542 -3.916723
  H 9.446033 -1.335822 -2.127508
  H 9.414858 -1.085944 -3.881209
  H 9.359670 -2.711270 -3.229900
 20
 3.179486
  C 1.005031 -0.071000 0.085026
  C 2.486373 -0.083365 0.000489
  C 3.215021 -0.470401 -1.049002
  C 4.647588 -0.572488 -1.033341
  C 5.379605 -1.042761 -2.058257
  C 6.810911 -1.149670 -2.036038
  C 7.541428 -1.616080 -3.051920
  C 9.029132 -1.710117 -3.053746
  H 0.605279 0.659488 0.773971
  H 0.845612 -1.064895 0.544950
  H 0.506499 -0.106649 -0.878245
  H 3.013939 0.298453 0.869592
  H 2.719157 -0.810641 -1.946701
  H 5.145793 -0.258797 -0.122298
  H 4.880635 -1.364148 -2.970789
  H 7.305394 -0.813517 -1.132466
  H 7.048584 -1.969447 -3.947142
  H 9.449765 -1.304971 -2.132369
  H 9.440087 -1.152157 -3.893452
  H 9.345675 -2.749185 -3.165950
 20
 10.468281
  C 1.001148 -0.040831 0.114958
  C 2.465908 -0.070714 -0.075841
  C 3.199825 -0.474690 -1.114962
  C 4.631983 -0.558798 -1.086475
  C 5.379904 -1.024537 -2.102383
  C 6.801354 -1.190629 -2.033731
  C 7.556030 -1.610587 -3.053580
  C 9.043508 -1.720404 -3.018999
  H 0.634975 0.671654 0.837230
  H 1.013979 -0.999329 0.698998
  H 0.372021 -0.264834 -0.738285
  H 3.005975 0.395126 0.747305
  H 2.714004 -0.785801 -2.030056
  H 5.109488 -0.312981 -0.145817
  H 4.898695 -1.332847 -3.024455
  H 7.274667 -0.917343 -1.095010
  H 7.088333 -1.890860 -3.986163
  H 9.445237 -1.354215 -2.076034
  H 9.475227 -1.135643 -3.829948
  H 9.358783 -2.753923 -3.163345
 20
 19.561139
  C 1.003735 0.060020 0.060723
  C 2.482763 -0.050479 -0.050661
  C 3.192043 -0.578169 -1.047212
  C 4.620334 -0.710369 -1.016782
  C 5.367512 -1.136024 -2.055172
  C 6.799601 -1.245266 -2.017453
  C 7.550959 -1.633424 -3.045231
  C 9.033221 -1.639318 -3.042740
  H 0.570192 0.711842 0.805717
  H 1.124215 -0.898249 0.640357
  H 0.449418 -0.142389 -0.849317
  H 3.058183 0.487628 0.698688
  H 2.683512 -0.959071 -1.926394
  H 5.119641 -0.400402 -0.100062
  H 4.878518 -1.356814 -2.997163
  H 7.272507 -0.992318 -1.067845
  H 7.074449 -1.955900 -3.959365
  H 9.425292 -1.397176 -2.065528
  H 9.419411 -0.926571 -3.784608
  H 9.403096 -2.629990 -3.327723
 20
 30.736431
  C 1.017278 0.082826 0.036295
  C 2.488499 -0.067297 -0.010551
  C 3.195340 -0.554709 -1.037619
  C 4.613089 -0.727987 -0.999643
  C 5.361567 -1.131041 -2.046159
  C 6.790210 -1.216819 -2.017916
  C 7.541784 -1.612694 -3.049487
  C 9.030326 -1.657936 -3.041611
  H 0.573726 0.687338 0.806520
  H 1.242504 -0.932379 0.547212
  H 0.453999 -0.118109 -0.865044
  H 3.052281 0.456499 0.754146
  H 2.672415 -0.932798 -1.914213
  H 5.114174 -0.417699 -0.092869
  H 4.871858 -1.407404 -2.970859
  H 7.269255 -0.945772 -1.082993
  H 7.064729 -1.911821 -3.974840
  H 9.424994 -1.314095 -2.090272
  H 9.436376 -1.017935 -3.831669
  H 9.379720 -2.669809 -3.232297
 20
 44.763221
  C 1.005449 0.169545 0.044630
  C 2.455815 -0.124058 -0.045057
  C 3.174216 -0.644633 -1.060855
  C 4.597900 -0.772150 -1.021668
  C 5.359724 -1.172689 -2.060887
  C 6.793888 -1.155442 -2.050364
  C 7.561031 -1.565779 -3.062814
  C 9.044211 -1.662774 -3.014968
  H 0.623178 0.735672 0.874933
  H 1.353280 -0.893722 0.556345
  H 0.346955 -0.063221 -0.771897
  H 3.044881 0.317199 0.759231
  H 2.669070 -0.923409 -1.973048
  H 5.092793 -0.406667 -0.124492
  H 4.880976 -1.508115 -2.969545
  H 7.269772 -0.809973 -1.133326
  H 7.101314 -1.875707 -3.993246
  H 9.429683 -1.349209 -2.044757
  H 9.498428 -1.034394 -3.787072
  H 9.360586 -2.692240 -3.200375
 20
 58.794767
  C 0.988189 0.099188 0.058437
  C 2.443545 -0.098925 -0.005394
  C 3.184845 -0.486712 -1.100170
  C 4.596126 -0.573401 -1.081329
  C 5.357880 -1.030182 -2.104023
  C 6.778554 -1.169031 -2.036334
  C 7.541753 -1.634308 -3.031744
  C 9.028120 -1.726391 -2.986994
  H 0.531940 0.493951 0.944218
  H 1.702327 -1.001710 0.479797
  H 0.367241 -0.172195 -0.776885
  H 3.015093 0.390643 0.779058
  H 2.669146 -0.825673 -1.987709
  H 5.091278 -0.298942 -0.154707
  H 4.875557 -1.346255 -3.020460
  H 7.250079 -0.854994 -1.110547
  H 7.075214 -1.963388 -3.955886
  H 9.414239 -1.358617 -2.040308
  H 9.471790 -1.142998 -3.793876
  H 9.353249 -2.760152 -3.118712
 20
 62.504597
  C 0.996035 0.218239 0.005920
  C 2.426393 -0.140671 0.042538
  C 3.187024 -0.574738 -1.065758
  C 4.580936 -0.667313 -1.044638
  C 5.349378 -1.117153 -2.078274
  C 6.771245 -1.178961 -2.037021
  C 7.543062 -1.615454 -3.043004
  C 9.030917 -1.684698 -2.997850
  H 0.518919 0.617361 0.878514
  H 1.836650 -1.030773 0.472530
  H 0.395292 -0.039138 -0.844364
  H 2.995779 0.323070 0.844462
  H 2.661750 -0.905027 -1.950925
  H 5.083176 -0.340979 -0.140138
  H 4.865148 -1.441218 -2.990077
  H 7.242861 -0.847584 -1.118446
  H 7.082932 -1.947468 -3.964577
  H 9.409460 -1.333930 -2.040220
  H 9.465254 -1.074452 -3.790537
  H 9.370635 -2.709794 -3.154663
 20
 61.505360
  C 1.011153 0.269402 -0.025286
  C 2.414279 -0.161286 0.068113
  C 3.190941 -0.602555 -1.053110
  C 4.573273 -0.694632 -1.028772
  C 5.347370 -1.140801 -2.069465
  C 6.766698 -1.182515 -2.033710
  C 7.541768 -1.610000 -3.043900
  C 9.028561 -1.673534 -2.997714
  H 0.517680 0.652264 0.845379
  H 1.941572 -1.088775 0.491630
  H 0.424103 0.011061 -0.882895
  H 2.984029 0.315263 0.863480
  H 2.660778 -0.931389 -1.936364
  H 5.079263 -0.360626 -0.128632
  H 4.861717 -1.463610 -2.980612
  H 7.238613 -0.848953 -1.116064
  H 7.081815 -1.940829 -3.967131
  H 9.405587 -1.325796 -2.037534
  H 9.460060 -1.058547 -3.785913
  H 9.373588 -2.698061 -3.160565
 20
 59.693749
  C 1.024686 0.301103 -0.042660
  C 2.398523 -0.184855 0.088818
  C 3.193389 -0.613755 -1.050667
  C 4.568498 -0.696532 -1.024855
  C 5.348414 -1.141584 -2.070250
  C 6.762708 -1.189886 -2.028221
  C 7.541733 -1.615657 -3.039543
  C 9.028841 -1.670145 -2.992939
  H 0.515204 0.664150 0.827239
  H 2.059158 -1.151503 0.518345
  H 0.443075 0.053239 -0.908340
  H 2.972306 0.318390 0.866987
  H 2.662480 -0.939757 -1.934853
  H 5.074489 -0.374516 -0.122004
  H 4.861429 -1.464313 -2.983750
  H 7.233193 -0.860073 -1.110018
  H 7.083836 -1.947498 -3.961656
  H 9.402767 -1.320616 -2.036084
  H 9.457919 -1.052009 -3.783899
  H 9.379983 -2.692744 -3.155106
 20
 58.732325
  C 1.019424 0.282137 -0.050208
  C 2.394704 -0.182148 0.098135
  C 3.198982 -0.594931 -1.055094
  C 4.569486 -0.700686 -1.019281
  C 5.351923 -1.133895 -2.071483
  C 6.763338 -1.200713 -2.022152
  C 7.544196 -1.612633 -3.039859
  C 9.030196 -1.683725 -2.986153
  H 0.486679 0.625569 0.816883
  H 2.204874 -1.158697 0.581585
  H 0.447252 0.006871 -0.916195
  H 2.966210 0.403804 0.820697
  H 2.668689 -0.896454 -1.947757
  H 5.076276 -0.407097 -0.106155
  H 4.865308 -1.428833 -2.993597
  H 7.232877 -0.898421 -1.094530
  H 7.086787 -1.918365 -3.972844
  H 9.403041 -1.358560 -2.018580
  H 9.469640 -1.054672 -3.760569
  H 9.370679 -2.704261 -3.168562
 20
 58.615547
  C 1.019404 0.279416 -0.052762
  C 2.393568 -0.182618 0.099366
  C 3.198168 -0.598858 -1.053592
  C 4.567778 -0.707576 -1.016658
  C 5.350664 -1.138016 -2.070095
  C 6.762115 -1.201189 -2.021993
  C 7.543313 -1.609212 -3.041145
  C 9.028537 -1.683382 -2.986215
  H 0.481800 0.617593 0.812644
  H 2.222993 -1.155232 0.598745
  H 0.453047 0.014953 -0.925576
  H 2.964742 0.417268 0.811513
  H 2.668206 -0.897077 -1.947569
  H 5.074876 -0.412785 -0.104226
  H 4.864490 -1.428891 -2.992834
  H 7.231862 -0.901348 -1.092973
  H 7.086438 -1.910383 -3.975277
  H 9.401127 -1.363157 -2.016265
  H 9.470239 -1.051262 -3.757876
  H 9.367194 -2.703952 -3.172929
