 20
 0.000000
  C 1.007115 -0.071820 0.047067
  C 2.503326 -0.082291 0.026511
  C 3.219664 -0.594957 -0.979939
  C 4.657445 -0.605569 -1.000771
  C 5.378095 -1.120845 -2.012342
  C 6.816530 -1.130453 -2.031201
  C 7.534042 -1.642749 -3.036932
  C 9.024080 -1.662004 -3.074728
  H 0.644220 0.394334 0.962199
  H 0.611910 -1.086821 0.008140
  H 0.611910 0.493474 -0.796847
  H 3.003143 0.353310 0.881670
  H 2.708811 -1.028519 -1.831084
  H 5.161861 -0.170622 -0.146900
  H 4.874135 -1.555859 -2.866349
  H 7.322683 -0.694949 -1.176234
  H 7.035813 -2.080026 -3.895365
  H 9.457820 -1.208784 -2.184984
  H 9.383398 -1.116028 -3.948507
  H 9.383398 -2.689803 -3.146855
 20
 0.205067
  C 1.003797 -0.056445 0.047571
  C 2.497128 -0.047988 0.009272
  C 3.222692 -0.591010 -0.981190
  C 4.655681 -0.586137 -1.020807
  C 5.382172 -1.132779 -2.012133
  C 6.816209 -1.128574 -2.049809
  C 7.537526 -1.674011 -3.027463
  C 9.026675 -1.662376 -3.082875
  H 0.631450 0.449271 0.932851
  H 0.626240 -1.078739 0.049079
  H 0.595489 0.439444 -0.830615
  H 3.004195 0.428812 0.839620
  H 2.719032 -1.067611 -1.811194
  H 5.161283 -0.106312 -0.190955
  H 4.876174 -1.613326 -2.842617
  H 7.318268 -0.634893 -1.228823
  H 7.032601 -2.178249 -3.846172
  H 9.452733 -1.490070 -2.098807
  H 9.372223 -0.866643 -3.746698
  H 9.404525 -2.603775 -3.476296
 20
 1.724753
  C 1.010797 -0.074055 0.064329
  C 2.504101 -0.041358 0.006015
  C 3.222123 -0.590352 -0.978037
  C 4.655665 -0.560786 -1.040196
  C 5.377453 -1.121018 -2.027730
  C 6.811393 -1.100243 -2.078659
  C 7.539423 -1.655819 -3.052869
  C 9.032407 -1.684080 -3.067445
  H 0.642472 0.458189 0.936931
  H 0.648239 -1.101567 0.104605
  H 0.581298 0.384488 -0.826477
  H 3.012419 0.461074 0.818383
  H 2.713330 -1.094501 -1.790556
  H 5.164770 -0.053078 -0.229914
  H 4.868499 -1.629252 -2.837783
  H 7.312508 -0.537259 -1.302987
  H 7.031693 -2.301534 -3.755386
  H 9.432386 -1.764860 -2.059344
  H 9.427257 -0.765050 -3.506610
  H 9.395623 -2.514901 -3.667170
 20
 7.022748
  C 1.017305 -0.108216 0.085651
  C 2.508264 -0.041044 0.005634
  C 3.225745 -0.582622 -0.984208
  C 4.656543 -0.518508 -1.066301
  C 5.377859 -1.072950 -2.057100
  C 6.807717 -1.022588 -2.130043
  C 7.527883 -1.561626 -3.128679
  C 9.016194 -1.724444 -3.040911
  H 0.646227 0.432227 0.951978
  H 0.682894 -1.143663 0.154813
  H 0.565231 0.319230 -0.809337
  H 3.016813 0.479957 0.805926
  H 2.718325 -1.104994 -1.786175
  H 5.164768 0.011272 -0.269962
  H 4.869356 -1.605157 -2.851764
  H 7.307194 -0.416827 -1.384286
  H 7.025102 -2.370152 -3.644284
  H 9.319245 -1.976092 -2.026605
  H 9.523703 -0.795689 -3.310565
  H 9.362104 -2.499826 -3.718671
 20
 19.280063
  C 1.016892 -0.044393 0.062888
  C 2.510518 -0.042595 0.007985
  C 3.221967 -0.591517 -0.988010
  C 4.654442 -0.572437 -1.054126
  C 5.369203 -1.146716 -2.037973
  C 6.796323 -1.112726 -2.111991
  C 7.514233 -1.595499 -3.170139
  C 9.015925 -1.647468 -3.087923
  H 0.654148 0.537362 0.905738
  H 0.639418 -1.062332 0.161775
  H 0.598074 0.370036 -0.853950
  H 3.028925 0.437038 0.827519
  H 2.705610 -1.074157 -1.809534
  H 5.171779 -0.061154 -0.251966
  H 4.853335 -1.660735 -2.839369
  H 7.301837 -0.528236 -1.361693
  H 7.077929 -2.558455 -3.385910
  H 9.352380 -1.938494 -2.094513
  H 9.439710 -0.664428 -3.303798
  H 9.419778 -2.344401 -3.819102
 20
 39.078284
  C 1.039551 0.065318 0.013868
  C 2.529144 -0.027777 -0.011570
  C 3.224808 -0.600534 -1.004176
  C 4.652310 -0.703885 -1.022631
  C 5.353623 -1.299725 -2.015330
  C 6.774338 -1.347161 -2.062939
  C 7.490901 -1.704744 -3.201295
  C 8.976852 -1.477066 -3.133324
  H 0.700534 0.714292 0.816587
  H 0.599853 -0.921228 0.165098
  H 0.660842 0.449112 -0.932510
  H 3.058865 0.389443 0.834613
  H 2.698079 -1.018091 -1.853670
  H 5.183108 -0.262761 -0.188103
  H 4.825782 -1.735376 -2.855080
  H 7.294693 -0.875661 -1.245290
  H 7.209062 -2.746329 -3.124889
  H 9.390093 -1.679841 -2.144650
  H 9.185868 -0.432807 -3.369249
  H 9.498051 -2.086455 -3.869472
 20
 65.547332
  C 1.041215 -0.023296 0.033721
  C 2.518989 -0.235493 0.037399
  C 3.226077 -0.574092 -1.046979
  C 4.638806 -0.806212 -1.036725
  C 5.353466 -1.153202 -2.128337
  C 6.769031 -1.329140 -2.122247
  C 7.527213 -1.437183 -3.314411
  C 9.014378 -1.391797 -3.087692
  H 0.702168 0.394296 0.977721
  H 0.522017 -0.968899 -0.127802
  H 0.750799 0.649253 -0.772527
  H 3.026614 -0.115767 0.985328
  H 2.724203 -0.688288 -1.999816
  H 5.144066 -0.676828 -0.087132
  H 4.857971 -1.273258 -3.083632
  H 7.251717 -1.160954 -1.168498
  H 7.081807 -2.450385 -3.106138
  H 9.322698 -1.648450 -2.069803
  H 9.347141 -0.371759 -3.286995
  H 9.532793 -2.037627 -3.795255
 20
 76.668578
  C 1.042049 -0.015846 0.021799
  C 2.518289 -0.242794 0.026418
  C 3.223317 -0.578000 -1.056833
  C 4.641261 -0.812619 -1.046875
  C 5.348746 -1.171239 -2.127983
  C 6.790761 -1.355782 -2.119849
  C 7.536680 -1.447462 -3.324693
  C 9.021957 -1.372755 -3.136978
  H 0.704554 0.391653 0.970666
  H 0.514432 -0.954192 -0.154799
  H 0.760572 0.670976 -0.775006
  H 3.024861 -0.132021 0.976207
  H 2.723246 -0.688272 -2.010781
  H 5.144544 -0.678409 -0.096567
  H 4.859476 -1.297701 -3.084486
  H 7.260921 -1.169299 -1.141359
  H 7.019754 -2.453240 -2.710449
  H 9.371370 -1.459175 -2.098501
  H 9.330084 -0.398436 -3.516891
  H 9.522190 -2.123234 -3.748543
 20
 75.079333
  C 1.042944 -0.002674 0.008427
  C 2.517881 -0.241504 0.013225
  C 3.222737 -0.577457 -1.069648
  C 4.641675 -0.822029 -1.057425
  C 5.347168 -1.185632 -2.135483
  C 6.800938 -1.392481 -2.124356
  C 7.547331 -1.444279 -3.342912
  C 9.025386 -1.354984 -3.170390
  H 0.707592 0.401510 0.959530
  H 0.507857 -0.935762 -0.173137
  H 0.766341 0.690071 -0.785185
  H 3.023712 -0.137119 0.964223
  H 2.724203 -0.681452 -2.025127
  H 5.142556 -0.692040 -0.105165
  H 4.863162 -1.308946 -3.094674
  H 7.274198 -1.171813 -1.149192
  H 6.980883 -2.503266 -2.509726
  H 9.392123 -1.394511 -2.134446
  H 9.316087 -0.394536 -3.597851
  H 9.526058 -2.123320 -3.759663
 20
 72.146882
  C 1.044882 0.004607 0.023407
  C 2.514372 -0.261775 0.018536
  C 3.222707 -0.552899 -1.072458
  C 4.641092 -0.814729 -1.056749
  C 5.342464 -1.186855 -2.129658
  C 6.803585 -1.437430 -2.106344
  C 7.559020 -1.490828 -3.338419
  C 9.023063 -1.350573 -3.185837
  H 0.707357 0.331678 1.003134
  H 0.493020 -0.904401 -0.236039
  H 0.782408 0.757575 -0.711333
  H 3.018609 -0.198507 0.974171
  H 2.729634 -0.617387 -2.034226
  H 5.136876 -0.688514 -0.103783
  H 4.869785 -1.311609 -3.095755
  H 7.286317 -1.102596 -1.172108
  H 6.952566 -2.560936 -2.181119
  H 9.414656 -1.309848 -2.155695
  H 9.288053 -0.416094 -3.682549
  H 9.546280 -2.138950 -3.732710
 20
 69.357650
  C 1.110849 0.116787 -0.027986
  C 2.570714 -0.202865 -0.007757
  C 3.253556 -0.631313 -1.069403
  C 4.659843 -0.954881 -1.046034
  C 5.339020 -1.391404 -2.105876
  C 6.796201 -1.709762 -2.088357
  C 7.512418 -1.400700 -3.335377
  C 8.951167 -1.151575 -3.158003
  H 0.809580 0.629034 0.881686
  H 0.522740 -0.798399 -0.114277
  H 0.864968 0.745106 -0.882076
  H 3.080197 -0.081935 0.939109
  H 2.749713 -0.752373 -2.020241
  H 5.164820 -0.823995 -0.095480
  H 4.850262 -1.517828 -3.061072
  H 7.272232 -1.385939 -1.149560
  H 6.908036 -2.808944 -2.148018
  H 9.363222 -1.296000 -2.151175
  H 9.078998 -0.105523 -3.446838
  H 9.518211 -1.727558 -3.888804
