 13
 0.000000
  H 3.589220 -0.601439 -0.992926
  C 4.662936 -0.608358 -1.006025
  C 5.375439 -1.118977 -2.009147
  C 6.817804 -1.130817 -2.031669
  C 7.533131 -1.641351 -3.034683
  C 9.022932 -1.661346 -3.073080
  H 5.162999 -0.174445 -0.153064
  H 4.870671 -1.553227 -2.862774
  H 7.325039 -0.697205 -1.179365
  H 7.033412 -2.077331 -3.890134
  H 9.454915 -1.206627 -2.184277
  H 9.382030 -1.117435 -3.947537
  H 9.383530 -2.688150 -3.144346
 13
 5.404632
  H 3.589522 -0.681320 -1.015561
  C 4.663767 -0.635318 -1.006944
  C 5.399625 -1.130465 -1.995466
  C 6.840457 -1.083011 -2.027592
  C 7.583993 -1.589881 -3.024771
  C 9.036760 -1.626177 -3.081868
  H 5.115898 -0.165457 -0.150521
  H 4.918861 -1.599181 -2.847589
  H 7.328575 -0.631536 -1.172861
  H 7.071730 -2.025986 -3.872366
  H 9.525677 -1.232453 -2.195899
  H 9.452047 -1.178903 -3.980146
  H 9.086476 -2.697368 -3.138133
 13
 17.596129
  H 3.588321 -0.738902 -1.023184
  C 4.660207 -0.659820 -1.011193
  C 5.412903 -1.143355 -1.990442
  C 6.853564 -1.049579 -2.024915
  C 7.613903 -1.556251 -3.019255
  C 9.056824 -1.607626 -3.084547
  H 5.094699 -0.167189 -0.156755
  H 4.948436 -1.633244 -2.835503
  H 7.332738 -0.586781 -1.171105
  H 7.101646 -1.986985 -3.872454
  H 9.583544 -1.257923 -2.206641
  H 9.501554 -1.241367 -4.003193
  H 8.847536 -2.662779 -3.113905
 13
 30.769927
  H 3.592687 -0.772317 -1.019182
  C 4.664906 -0.683433 -1.007996
  C 5.424490 -1.150365 -1.994561
  C 6.858752 -1.039125 -2.033662
  C 7.622993 -1.541110 -3.039224
  C 9.073398 -1.589438 -3.084594
  H 5.096781 -0.197837 -0.151290
  H 4.962770 -1.638017 -2.843816
  H 7.340713 -0.584743 -1.177368
  H 7.106708 -1.954490 -3.900863
  H 9.594938 -1.220449 -2.218966
  H 9.555403 -1.342680 -4.021134
  H 8.670977 -2.601245 -3.025035
 13
 42.151371
  H 3.591441 -0.792894 -1.030391
  C 4.665343 -0.706447 -1.007071
  C 5.431679 -1.156665 -1.996741
  C 6.865081 -1.044314 -2.030883
  C 7.629713 -1.537427 -3.047704
  C 9.087560 -1.574851 -3.093836
  H 5.092113 -0.225681 -0.137397
  H 4.971064 -1.628553 -2.858000
  H 7.347493 -0.604803 -1.170026
  H 7.107825 -1.919136 -3.922886
  H 9.616148 -1.163589 -2.246244
  H 9.577401 -1.452718 -4.040512
  H 8.542002 -2.535502 -2.935716
 13
 50.841418
  H 3.588073 -0.803018 -1.043867
  C 4.659802 -0.715289 -1.010185
  C 5.435815 -1.155054 -1.999652
  C 6.864373 -1.055364 -2.017952
  C 7.635798 -1.547393 -3.045511
  C 9.099422 -1.558253 -3.107396
  H 5.079328 -0.256329 -0.126079
  H 4.979748 -1.612626 -2.870002
  H 7.348051 -0.624592 -1.145479
  H 7.108815 -1.902740 -3.933525
  H 9.638716 -1.117343 -2.284153
  H 9.584111 -1.534154 -4.061479
  H 8.452523 -2.486661 -2.868731
 13
 57.647402
  H 3.583672 -0.803766 -1.049579
  C 4.655020 -0.719415 -1.008846
  C 5.437576 -1.155814 -1.999803
  C 6.864137 -1.067564 -2.010283
  C 7.638943 -1.559814 -3.041404
  C 9.109052 -1.539341 -3.118498
  H 5.068419 -0.276229 -0.124069
  H 4.982057 -1.604438 -2.875023
  H 7.344500 -0.646011 -1.138235
  H 7.110769 -1.896717 -3.930925
  H 9.652171 -1.089491 -2.310389
  H 9.594428 -1.577014 -4.074291
  H 8.376160 -2.459111 -2.828057
 13
 62.584164
  H 3.575562 -0.786185 -1.069437
  C 4.648250 -0.732464 -1.006912
  C 5.438231 -1.167302 -1.995507
  C 6.859968 -1.087007 -1.995151
  C 7.641884 -1.575596 -3.035802
  C 9.112135 -1.509524 -3.137471
  H 5.058212 -0.286155 -0.116813
  H 4.985497 -1.595810 -2.882095
  H 7.342041 -0.679886 -1.119531
  H 7.111528 -1.885617 -3.935273
  H 9.667560 -1.051334 -2.339478
  H 9.589897 -1.623277 -4.087397
  H 8.321069 -2.440334 -2.783945
 13
 66.189804
  H 3.570710 -0.794617 -1.071265
  C 4.642494 -0.736025 -1.005942
  C 5.438147 -1.168338 -1.994671
  C 6.855207 -1.097559 -1.986282
  C 7.644855 -1.588222 -3.035942
  C 9.113864 -1.479572 -3.153865
  H 5.047674 -0.289007 -0.116735
  H 4.986343 -1.585654 -2.887414
  H 7.339802 -0.700219 -1.107747
  H 7.115043 -1.870794 -3.943925
  H 9.674256 -1.026856 -2.361072
  H 9.592746 -1.659877 -4.093344
  H 8.260173 -2.444254 -2.743657
 13
 68.158661
  H 3.563085 -0.798218 -1.075656
  C 4.634994 -0.733743 -1.007493
  C 5.436935 -1.157650 -1.999353
  C 6.848860 -1.099484 -1.977912
  C 7.650299 -1.602127 -3.034082
  C 9.112048 -1.446434 -3.176515
  H 5.037326 -0.318118 -0.103234
  H 4.987324 -1.573874 -2.893092
  H 7.334329 -0.710160 -1.094930
  H 7.122986 -1.865086 -3.949599
  H 9.681461 -0.997776 -2.388992
  H 9.593493 -1.699524 -4.096943
  H 8.201287 -2.462322 -2.699010
 13
 68.741546
  H 3.561337 -0.781876 -1.089357
  C 4.632803 -0.744354 -1.004192
  C 5.438802 -1.168951 -1.995687
  C 6.844641 -1.114634 -1.969040
  C 7.654098 -1.618178 -3.032139
  C 9.102607 -1.404981 -3.198050
  H 5.034090 -0.326284 -0.096529
  H 4.988834 -1.572037 -2.895750
  H 7.331598 -0.732218 -1.084323
  H 7.127908 -1.859793 -3.955661
  H 9.675531 -0.967343 -2.406904
  H 9.592091 -1.719284 -4.096180
  H 8.136854 -2.491867 -2.660737
 13
 68.174210
  H 3.558222 -0.790483 -1.083220
  C 4.630121 -0.746680 -1.001219
  C 5.437961 -1.167504 -1.997955
  C 6.839642 -1.119480 -1.967656
  C 7.657580 -1.633505 -3.033686
  C 9.094641 -1.369701 -3.214085
  H 5.031783 -0.337613 -0.092028
  H 4.985743 -1.569484 -2.897516
  H 7.328102 -0.742628 -1.081700
  H 7.133448 -1.855023 -3.962492
  H 9.669584 -0.942606 -2.418856
  H 9.595425 -1.739853 -4.084585
  H 8.066539 -2.525654 -2.633736
 13
 67.435160
  H 3.554553 -0.789152 -1.083971
  C 4.625916 -0.756254 -0.995034
  C 5.436282 -1.182618 -1.990373
  C 6.833983 -1.131840 -1.959558
  C 7.660604 -1.651122 -3.034318
  C 9.085509 -1.337525 -3.227286
  H 5.027199 -0.332683 -0.090776
  H 4.983155 -1.575949 -2.894368
  H 7.324324 -0.758380 -1.074525
  H 7.134414 -1.849598 -3.969643
  H 9.659578 -0.918921 -2.427033
  H 9.598444 -1.748653 -4.073590
  H 8.000599 -2.561155 -2.621117
 13
 66.637708
  H 3.551333 -0.782714 -1.084165
  C 4.621314 -0.759665 -0.991120
  C 5.431962 -1.201218 -1.982565
  C 6.825627 -1.145506 -1.952433
  C 7.662285 -1.672335 -3.033095
  C 9.072899 -1.312386 -3.235021
  H 5.025469 -0.325369 -0.091152
  H 4.976298 -1.596904 -2.884982
  H 7.319360 -0.770851 -1.070340
  H 7.136088 -1.841382 -3.974801
  H 9.645042 -0.894083 -2.428049
  H 9.603354 -1.743211 -4.062514
  H 7.933592 -2.600561 -2.622528
