 22
 0.000000
  C 0.933583 0.058119 0.300081
  C 2.418032 0.058169 0.062991
  C 3.238920 -0.017010 1.330621
  H 2.591963 -0.062941 2.202163
  C 3.005169 0.123957 -1.152538
  C 2.351826 0.202060 -2.519094
  C 0.838457 0.207379 -2.697630
  H 0.624490 0.268213 -3.763219
  C 4.468018 0.131904 -1.242700
  C 5.210936 0.205518 -2.342715
  H 6.285379 0.204316 -2.275259
  H 0.716399 -0.001499 1.363467
  H 0.454463 -0.790657 -0.180914
  H 0.477619 0.969003 -0.078767
  H 3.879852 0.857251 1.440303
  H 3.871037 -0.904481 1.340434
  H 2.743624 -0.644233 -3.093680
  H 2.738615 1.111006 -2.992295
  H 0.375358 1.064662 -2.220965
  H 0.382066 -0.702846 -2.323331
  H 4.998240 0.070887 -0.305042
  H 4.813549 0.269885 -3.339454
 22
 -0.078532
  C 0.937301 0.148844 0.307762
  C 2.417594 0.061951 0.057122
  C 3.232563 -0.120089 1.316855
  H 2.580176 -0.258089 2.175421
  C 3.004216 0.153227 -1.151518
  C 2.351886 0.234032 -2.518376
  C 0.840118 0.164099 -2.700007
  H 0.627803 0.134009 -3.768305
  C 4.465598 0.159070 -1.238966
  C 5.211724 0.243419 -2.337225
  H 6.286876 0.258125 -2.266572
  H 0.746282 0.339499 1.361431
  H 0.435171 -0.780939 0.044668
  H 0.489525 0.957235 -0.259439
  H 3.858748 0.750010 1.513797
  H 3.877255 -0.995167 1.247211
  H 2.777783 -0.595569 -3.092881
  H 2.703336 1.157989 -2.989343
  H 0.336010 1.035736 -2.295306
  H 0.424012 -0.733447 -2.254086
  H 4.992377 0.109653 -0.298587
  H 4.815597 0.301517 -3.335740
 22
 0.332964
  C 0.954477 0.258370 0.317292
  C 2.417658 0.044351 0.057598
  C 3.212580 -0.252852 1.305500
  H 2.541415 -0.426131 2.143125
  C 3.002186 0.179946 -1.146887
  C 2.347829 0.242392 -2.514795
  C 0.842342 0.090544 -2.704780
  H 0.643850 -0.005934 -3.771986
  C 4.462917 0.197970 -1.238078
  C 5.209785 0.312871 -2.332814
  H 6.283793 0.355955 -2.258636
  H 0.826561 0.693366 1.307884
  H 0.392581 -0.674150 0.287941
  H 0.546782 0.955347 -0.402736
  H 3.868325 0.575975 1.572505
  H 3.826272 -1.142899 1.175463
  H 2.812304 -0.574824 -3.077097
  H 2.660537 1.174525 -2.996301
  H 0.285879 0.954128 -2.353518
  H 0.468803 -0.803208 -2.213669
  H 4.986725 0.152235 -0.294731
  H 4.814645 0.370988 -3.331533
 22
 2.313429
  C 0.984517 0.400252 0.326257
  C 2.413051 0.036361 0.053896
  C 3.172313 -0.400395 1.280021
  H 2.476251 -0.588147 2.094019
  C 3.000364 0.210799 -1.143962
  C 2.345740 0.234822 -2.514339
  C 0.852169 -0.013368 -2.701148
  H 0.663350 -0.158727 -3.764455
  C 4.459239 0.247950 -1.234270
  C 5.205780 0.414537 -2.322238
  H 6.276829 0.498512 -2.242681
  H 0.968512 1.057991 1.197504
  H 0.354828 -0.459105 0.547849
  H 0.601439 0.966703 -0.510566
  H 3.880840 0.355813 1.619174
  H 3.726854 -1.316001 1.081634
  H 2.854449 -0.571074 -3.054258
  H 2.608519 1.169524 -3.019540
  H 0.237543 0.823004 -2.381755
  H 0.535197 -0.910662 -2.176482
  H 4.978202 0.201804 -0.287161
  H 4.810852 0.479389 -3.320660
 22
 8.499619
  C 1.036827 0.600963 0.307259
  C 2.411237 0.056606 0.056710
  C 3.096227 -0.594226 1.224264
  H 2.379049 -0.758324 2.024894
  C 3.002240 0.293360 -1.135816
  C 2.347904 0.176311 -2.503702
  C 0.868963 -0.171662 -2.641870
  H 0.663103 -0.374018 -3.692327
  C 4.456931 0.373902 -1.223956
  C 5.201014 0.560482 -2.311990
  H 6.264773 0.711047 -2.230587
  H 1.140024 1.372002 1.077115
  H 0.300887 -0.120444 0.650478
  H 0.762256 1.141303 -0.593486
  H 3.913082 0.005177 1.629153
  H 3.512680 -1.552622 0.918821
  H 2.901902 -0.646056 -2.968374
  H 2.549686 1.074898 -3.096301
  H 0.207009 0.631323 -2.332728
  H 0.626212 -1.063833 -2.069043
  H 4.968482 0.375395 -0.269805
  H 4.803952 0.588760 -3.311569
 22
 17.093338
  C 1.087500 0.717869 0.285995
  C 2.407742 0.055950 0.051029
  C 3.034548 -0.711492 1.178559
  H 2.333490 -0.797202 2.005788
  C 3.005043 0.332949 -1.137887
  C 2.362299 0.069029 -2.499054
  C 0.883515 -0.264702 -2.588112
  H 0.667208 -0.617423 -3.594918
  C 4.448138 0.471380 -1.218755
  C 5.181368 0.732983 -2.302136
  H 6.242554 0.902861 -2.222181
  H 1.265207 1.532486 0.995374
  H 0.289005 0.090194 0.666967
  H 0.894974 1.263721 -0.648506
  H 3.946251 -0.252079 1.561438
  H 3.300240 -1.707255 0.827016
  H 2.911859 -0.804700 -2.861648
  H 2.565640 0.894328 -3.182555
  H 0.244997 0.595609 -2.397720
  H 0.621668 -1.050215 -1.883573
  H 4.959300 0.449166 -0.264170
  H 4.776569 0.772895 -3.297794
 22
 32.553752
  C 1.133864 0.862808 0.237859
  C 2.426385 0.115978 0.066385
  C 2.958272 -0.824270 1.091266
  H 2.222512 -0.972474 1.874679
  C 2.997233 0.420611 -1.139618
  C 2.351334 0.063708 -2.468236
  C 0.890935 -0.389734 -2.474194
  H 0.647528 -0.783000 -3.460154
  C 4.439016 0.584520 -1.210426
  C 5.181716 0.780975 -2.300584
  H 6.244832 0.935111 -2.226712
  H 1.309616 1.722103 0.897770
  H 0.294005 0.301309 0.617853
  H 1.181560 1.414976 -0.712167
  H 3.871904 -0.457614 1.564732
  H 3.198028 -1.776711 0.624663
  H 2.945416 -0.802523 -2.790529
  H 2.507405 0.839445 -3.229551
  H 0.196551 0.412597 -2.237614
  H 0.744508 -1.190330 -1.749441
  H 4.925438 0.689305 -0.245739
  H 4.785810 0.722248 -3.301176
 22
 54.959236
  C 1.184032 0.886958 0.231575
  C 2.420452 0.076373 0.106534
  C 2.930174 -0.912775 1.084522
  H 2.215206 -1.051907 1.894026
  C 2.982590 0.454469 -1.104650
  C 2.374396 -0.028555 -2.423702
  C 0.901186 -0.399927 -2.447697
  H 0.649142 -0.803936 -3.426863
  C 4.412519 0.649444 -1.208204
  C 5.144879 0.808027 -2.308005
  H 6.194217 1.037630 -2.257466
  H 1.324626 1.902501 0.643154
  H 0.309076 0.433304 0.682833
  H 1.377043 1.350318 -0.816512
  H 3.870168 -0.590877 1.556607
  H 3.139544 -1.857269 0.588156
  H 2.974688 -0.891674 -2.706490
  H 2.523337 0.749859 -3.180379
  H 0.256033 0.457853 -2.278817
  H 0.667883 -1.149221 -1.695147
  H 4.932353 0.738434 -0.259018
  H 4.709876 0.799194 -3.293899
 22
 74.097352
  C 1.244340 0.914494 0.289785
  C 2.363974 0.071327 0.112137
  C 2.865949 -0.982042 1.034350
  H 2.157520 -1.150489 1.842319
  C 2.946397 0.499477 -1.132116
  C 2.346869 -0.021252 -2.448510
  C 0.884896 -0.439325 -2.409191
  H 0.606125 -0.867105 -3.369861
  C 4.391823 0.726209 -1.186193
  C 5.153451 0.857172 -2.269684
  H 6.200161 1.098340 -2.190328
  H 1.408104 1.943975 0.585727
  H 0.340465 0.525306 0.766950
  H 1.775212 1.387904 -0.977232
  H 3.817245 -0.673020 1.470345
  H 3.043189 -1.920596 0.508546
  H 2.942449 -0.897200 -2.728401
  H 2.483987 0.727180 -3.232241
  H 0.230605 0.406941 -2.211211
  H 0.718618 -1.187067 -1.637510
  H 4.850863 0.882765 -0.216603
  H 4.775388 0.735830 -3.270662
 22
 55.611397
  C 1.249839 0.887985 0.386872
  C 2.312339 0.078110 0.127534
  C 2.840769 -1.016616 0.991802
  H 2.174341 -1.201396 1.834944
  C 2.923641 0.535375 -1.167751
  C 2.344476 -0.063009 -2.475684
  C 0.871854 -0.436328 -2.414626
  H 0.578401 -0.920664 -3.342618
  C 4.383267 0.763874 -1.171209
  C 5.164993 0.910255 -2.225277
  H 6.204920 1.171179 -2.118442
  H 1.370414 1.946573 0.537906
  H 0.367399 0.518181 0.913138
  H 2.063025 1.351053 -1.116204
  H 3.818873 -0.715435 1.374186
  H 2.981550 -1.949974 0.438951
  H 2.917140 -0.966402 -2.713940
  H 2.505828 0.648104 -3.286029
  H 0.248149 0.447115 -2.284850
  H 0.675653 -1.111773 -1.586882
  H 4.812450 0.902065 -0.186367
  H 4.804383 0.826092 -3.236153
 22
 30.901269
  C 1.244049 0.897477 0.504757
  C 2.252887 0.113395 0.102844
  C 2.797861 -1.064792 0.829723
  H 2.160862 -1.334045 1.669301
  C 2.880948 0.634691 -1.176648
  C 2.370975 -0.098460 -2.443194
  C 0.894271 -0.463062 -2.397122
  H 0.629082 -1.024696 -3.291977
  C 4.346592 0.868556 -1.145579
  C 5.167181 0.921679 -2.183466
  H 6.214812 1.131614 -2.056858
  H 1.358004 1.965657 0.586004
  H 0.454433 0.549980 1.169003
  H 2.166696 1.493573 -1.206077
  H 3.779131 -0.784575 1.209769
  H 2.931554 -1.937384 0.187327
  H 2.952889 -1.017276 -2.577306
  H 2.566872 0.534950 -3.307065
  H 0.269812 0.426208 -2.351831
  H 0.672700 -1.079473 -1.529820
  H 4.736166 1.095902 -0.162389
  H 4.847534 0.728021 -3.194246
 22
 12.991183
  C 1.221575 0.829587 0.592578
  C 2.237697 0.129481 0.097183
  C 2.846952 -1.062785 0.757475
  H 2.267349 -1.368317 1.625317
  C 2.855307 0.669722 -1.179867
  C 2.379282 -0.126881 -2.415021
  C 0.882978 -0.405326 -2.425616
  H 0.626642 -1.007455 -3.294795
  C 4.327839 0.892195 -1.123619
  C 5.171863 0.864877 -2.132437
  H 6.218844 1.073145 -1.990101
  H 1.147485 1.900815 0.507238
  H 0.535416 0.432818 1.330715
  H 2.244921 1.586596 -1.259994
  H 3.847491 -0.784230 1.083663
  H 2.946917 -1.911748 0.079777
  H 2.919957 -1.077173 -2.460878
  H 2.643443 0.444484 -3.305467
  H 0.316938 0.522906 -2.473730
  H 0.578251 -0.944636 -1.532723
  H 4.698368 1.149452 -0.138174
  H 4.873813 0.632926 -3.139918
 22
 1.685296
  C 1.252404 0.832412 0.706730
  C 2.239724 0.195369 0.096700
  C 2.868432 -1.049650 0.637132
  H 2.335607 -1.406009 1.515265
  C 2.798209 0.747330 -1.197918
  C 2.377570 -0.128912 -2.391589
  C 0.880570 -0.407258 -2.425323
  H 0.638237 -1.040004 -3.276713
  C 4.275810 0.981969 -1.111396
  C 5.174020 0.770180 -2.054987
  H 6.217245 0.982883 -1.890807
  H 0.964629 1.837634 0.448260
  H 0.729454 0.408584 1.549838
  H 2.264693 1.698963 -1.322292
  H 3.897563 -0.828448 0.918552
  H 2.896592 -1.843163 -0.108015
  H 2.925315 -1.073311 -2.364328
  H 2.658466 0.391760 -3.309197
  H 0.319232 0.520082 -2.517336
  H 0.556513 -0.912318 -1.518926
  H 4.595822 1.385031 -0.157065
  H 4.923221 0.377329 -3.024979
 22
 -1.086811
  C 1.388669 0.882671 0.849290
  C 2.247697 0.218639 0.095189
  C 2.840322 -1.088651 0.521854
  H 2.417584 -1.413459 1.469264
  C 2.720228 0.777650 -1.232152
  C 2.384708 -0.145747 -2.408698
  C 0.889599 -0.428865 -2.494085
  H 0.672527 -1.071810 -3.344444
  C 4.182564 1.110599 -1.113504
  C 5.158618 0.715870 -1.907784
  H 6.178626 1.014746 -1.730909
  H 0.980117 1.834058 0.552926
  H 1.052456 0.499588 1.798775
  H 2.178422 1.720258 -1.386385
  H 3.919746 -0.985783 0.634637
  H 2.659379 -1.861405 -0.222680
  H 2.933097 -1.084043 -2.315169
  H 2.708327 0.339587 -3.332002
  H 0.333142 0.498312 -2.614815
  H 0.536066 -0.919662 -1.590218
  H 4.410278 1.741211 -0.261791
  H 4.997155 0.086688 -2.765696
