 28
 0.000000
  C 0.961581 0.146324 0.424298
  C 2.435139 0.138734 0.402092
  C 3.233166 0.603540 1.557757
  C 2.472482 1.100992 2.781004
  H 3.167029 1.410866 3.551664
  C 3.037848 -0.328563 -0.762205
  C 4.419356 -0.415709 -0.980772
  C 5.084803 -0.862479 -2.096548
  C 4.613577 -1.381152 -3.392526
  C 3.130294 -1.509032 -3.713451
  C 2.935992 -2.071800 -5.119845
  H 6.165391 -0.849183 -2.063158
  H 0.546335 0.511797 1.356192
  H 0.584269 -0.863042 0.253257
  H 0.571409 0.764787 -0.385968
  H 3.894413 1.407079 1.213880
  H 3.889208 -0.216697 1.870899
  H 1.837979 0.315855 3.187638
  H 1.842867 1.951075 2.525394
  H 2.371689 -0.644257 -1.547890
  H 5.046583 -0.087206 -0.161511
  H 5.082758 -2.366492 -3.515232
  H 5.083463 -0.753066 -4.161180
  H 2.648125 -0.531451 -3.667160
  H 2.647514 -2.184456 -3.005648
  H 3.384327 -1.420956 -5.867051
  H 1.876164 -2.161500 -5.345006
  H 3.383762 -3.058731 -5.211628
 28
 3.059063
  C 0.961366 0.115262 0.467049
  C 2.409727 0.136432 0.413939
  C 3.219154 0.604100 1.561490
  C 2.462894 1.112983 2.779099
  H 3.172614 1.416724 3.543202
  C 3.016776 -0.326452 -0.758036
  C 4.411186 -0.407920 -0.977965
  C 5.069723 -0.856970 -2.106731
  C 4.607255 -1.376963 -3.398954
  C 3.126079 -1.512972 -3.724018
  C 2.939895 -2.077910 -5.130128
  H 6.151818 -0.828967 -2.049517
  H 0.525169 0.494629 1.374368
  H 0.544268 -0.860001 0.239220
  H 0.775406 0.754528 -0.369157
  H 3.896314 1.392074 1.216288
  H 3.865936 -0.223514 1.872525
  H 1.825763 0.341276 3.203869
  H 1.849299 1.975829 2.531722
  H 2.351909 -0.644418 -1.546637
  H 5.052257 -0.082952 -0.168196
  H 5.089555 -2.356146 -3.525999
  H 5.083442 -0.753901 -4.168651
  H 2.640466 -0.537031 -3.678615
  H 2.646528 -2.189736 -3.015169
  H 3.388700 -1.425394 -5.875733
  H 1.882401 -2.175036 -5.362591
  H 3.394703 -3.061945 -5.219012
 28
 8.137144
  C 0.957783 0.069573 0.473312
  C 2.409926 0.119388 0.417242
  C 3.223740 0.596795 1.551671
  C 2.459067 1.120060 2.764365
  H 3.162694 1.420942 3.527717
  C 3.024416 -0.329098 -0.760310
  C 4.406928 -0.397639 -0.977077
  C 5.062377 -0.837646 -2.100579
  C 4.599624 -1.363542 -3.391355
  C 3.118318 -1.510596 -3.707957
  C 2.929156 -2.080952 -5.110159
  H 6.137577 -0.798590 -2.044594
  H 0.491133 0.434695 1.379584
  H 0.506759 -0.845336 0.124848
  H 0.976211 0.787702 -0.341051
  H 3.920067 1.369733 1.209311
  H 3.850042 -0.247882 1.868395
  H 1.814025 0.355732 3.192404
  H 1.857775 1.990166 2.508099
  H 2.368327 -0.652040 -1.553132
  H 5.046935 -0.073016 -0.168319
  H 5.089504 -2.337931 -3.521075
  H 5.068652 -0.740697 -4.164927
  H 2.627196 -0.537547 -3.663233
  H 2.648248 -2.188472 -2.994058
  H 3.370448 -1.427650 -5.859852
  H 1.871370 -2.186409 -5.337489
  H 3.391147 -3.062011 -5.197888
 28
 15.079245
  C 0.953770 0.051176 0.499589
  C 2.400573 0.113611 0.412993
  C 3.219621 0.599346 1.550066
  C 2.461392 1.127104 2.758476
  H 3.170858 1.430932 3.523450
  C 3.010056 -0.330809 -0.768458
  C 4.391758 -0.396738 -0.983065
  C 5.050432 -0.830903 -2.098619
  C 4.596860 -1.358782 -3.390017
  C 3.117262 -1.513120 -3.714385
  C 2.938120 -2.087089 -5.117540
  H 6.131117 -0.787333 -2.039096
  H 0.487244 0.402605 1.403510
  H 0.469878 -0.823189 0.092166
  H 1.116677 0.798947 -0.272117
  H 3.917654 1.368024 1.208126
  H 3.837291 -0.247993 1.866072
  H 1.817045 0.365302 3.189571
  H 1.862468 1.996666 2.499520
  H 2.353914 -0.654735 -1.561303
  H 5.027969 -0.071777 -0.172416
  H 5.091194 -2.332182 -3.516276
  H 5.066243 -0.733460 -4.162198
  H 2.621607 -0.542381 -3.674547
  H 2.646688 -2.192337 -3.002142
  H 3.380556 -1.433176 -5.865725
  H 1.882194 -2.197914 -5.350504
  H 3.405216 -3.065829 -5.200960
 28
 21.108711
  C 0.944418 0.031880 0.522899
  C 2.400271 0.114319 0.408758
  C 3.216873 0.605033 1.553274
  C 2.454676 1.137083 2.762152
  H 3.163061 1.441357 3.526011
  C 3.008424 -0.328334 -0.773084
  C 4.392311 -0.394725 -0.986280
  C 5.054245 -0.830758 -2.105795
  C 4.600258 -1.360582 -3.399403
  C 3.120255 -1.514241 -3.722333
  C 2.939916 -2.089871 -5.124074
  H 6.133439 -0.787117 -2.045960
  H 0.465122 0.375538 1.424563
  H 0.438882 -0.817637 0.084255
  H 1.234141 0.802751 -0.239268
  H 3.919138 1.372651 1.211847
  H 3.831407 -0.244594 1.873871
  H 1.809736 0.377000 3.195042
  H 1.856661 2.007094 2.501985
  H 2.352057 -0.652346 -1.565097
  H 5.028547 -0.069554 -0.172746
  H 5.093283 -2.333823 -3.524734
  H 5.068908 -0.736352 -4.171833
  H 2.625338 -0.542813 -3.683585
  H 2.649712 -2.192287 -3.008606
  H 3.382616 -1.437132 -5.873510
  H 1.883577 -2.200363 -5.356384
  H 3.406562 -3.069230 -5.206291
 28
 25.202370
  C 0.952083 0.019376 0.548439
  C 2.386606 0.128065 0.412927
  C 3.213334 0.608412 1.547243
  C 2.451089 1.127427 2.756335
  H 3.162321 1.430703 3.523070
  C 3.005790 -0.319067 -0.779830
  C 4.388471 -0.384792 -0.993361
  C 5.050098 -0.819058 -2.101888
  C 4.601232 -1.359585 -3.401563
  C 3.119829 -1.520044 -3.728418
  C 2.944660 -2.106127 -5.128455
  H 6.133296 -0.770926 -2.038813
  H 0.474908 0.336616 1.457594
  H 0.424480 -0.753999 0.019851
  H 1.324743 0.854081 -0.146317
  H 3.910321 1.375736 1.209866
  H 3.819919 -0.246602 1.856441
  H 1.812737 0.361048 3.184759
  H 1.848473 1.994968 2.504985
  H 2.350006 -0.647077 -1.566638
  H 5.022707 -0.057807 -0.183855
  H 5.096376 -2.333992 -3.519940
  H 5.068797 -0.736255 -4.177022
  H 2.622567 -0.549559 -3.697922
  H 2.649794 -2.195196 -3.011455
  H 3.388178 -1.457267 -5.880531
  H 1.889473 -2.221535 -5.363746
  H 3.414869 -3.084159 -5.202565
 28
 27.693552
  C 0.945725 -0.001159 0.546120
  C 2.374095 0.128833 0.396369
  C 3.211657 0.611094 1.544346
  C 2.455334 1.132795 2.775748
  H 3.173018 1.439866 3.530185
  C 2.992381 -0.319176 -0.791736
  C 4.376329 -0.382352 -0.999131
  C 5.049313 -0.820881 -2.115889
  C 4.606317 -1.361762 -3.407142
  C 3.129025 -1.522671 -3.729593
  C 2.952835 -2.111874 -5.124092
  H 6.124709 -0.770875 -2.051982
  H 0.466772 0.290519 1.465398
  H 0.407965 -0.714174 -0.050762
  H 1.391760 0.892460 -0.083957
  H 3.909703 1.388149 1.199163
  H 3.825732 -0.251188 1.849731
  H 1.827428 0.362164 3.218525
  H 1.843460 2.000441 2.532891
  H 2.333557 -0.651420 -1.581385
  H 5.010664 -0.049916 -0.183458
  H 5.099697 -2.334052 -3.521827
  H 5.070946 -0.740327 -4.181608
  H 2.632531 -0.552567 -3.701197
  H 2.661004 -2.195006 -3.010160
  H 3.395684 -1.465223 -5.878446
  H 1.897764 -2.228083 -5.357499
  H 3.423430 -3.090030 -5.195382
 28
 29.641971
  C 0.954879 -0.010722 0.566589
  C 2.376484 0.137397 0.406033
  C 3.211592 0.616732 1.547133
  C 2.449898 1.129166 2.764241
  H 3.160290 1.447123 3.517720
  C 2.996597 -0.314259 -0.787000
  C 4.381628 -0.378968 -0.997200
  C 5.051786 -0.815424 -2.104829
  C 4.609317 -1.363532 -3.409492
  C 3.125229 -1.527594 -3.739927
  C 2.953235 -2.121520 -5.139653
  H 6.131853 -0.763986 -2.036943
  H 0.474909 0.258462 1.500130
  H 0.398590 -0.671273 -0.090401
  H 1.459486 0.924406 -0.007131
  H 3.897047 1.393376 1.204037
  H 3.827210 -0.235060 1.853400
  H 1.833418 0.353336 3.206470
  H 1.829168 1.985244 2.517585
  H 2.338029 -0.644641 -1.567796
  H 5.015178 -0.047089 -0.185361
  H 5.105126 -2.339782 -3.521287
  H 5.077257 -0.739820 -4.186088
  H 2.626746 -0.555657 -3.714879
  H 2.654262 -2.200720 -3.019575
  H 3.398880 -1.475239 -5.894515
  H 1.897450 -2.239277 -5.377478
  H 3.425422 -3.100611 -5.208021
 28
 31.255204
  C 0.959801 -0.032354 0.556850
  C 2.372340 0.137002 0.394943
  C 3.216454 0.619614 1.540977
  C 2.449681 1.134471 2.769884
  H 3.168442 1.466134 3.527624
  C 2.994249 -0.317355 -0.798469
  C 4.373113 -0.380197 -1.002936
  C 5.048551 -0.819128 -2.110925
  C 4.609046 -1.365150 -3.408738
  C 3.131042 -1.525292 -3.734801
  C 2.957066 -2.117573 -5.127819
  H 6.129489 -0.768805 -2.041984
  H 0.475360 0.205481 1.495053
  H 0.399816 -0.633788 -0.144006
  H 1.509245 0.935462 0.034269
  H 3.898119 1.405039 1.189348
  H 3.841872 -0.231938 1.849114
  H 1.839412 0.349349 3.221813
  H 1.815005 1.989152 2.522045
  H 2.336676 -0.648399 -1.579738
  H 5.003608 -0.046579 -0.188440
  H 5.101022 -2.340253 -3.518940
  H 5.075963 -0.744074 -4.184098
  H 2.636620 -0.555311 -3.709871
  H 2.661307 -2.194494 -3.015267
  H 3.402447 -1.474404 -5.881598
  H 1.903606 -2.232754 -5.363474
  H 3.426009 -3.095221 -5.195304
 28
 32.796080
  C 0.948004 -0.041740 0.567208
  C 2.367451 0.147916 0.401332
  C 3.219276 0.627081 1.553043
  C 2.462092 1.130104 2.765209
  H 3.167445 1.461080 3.506516
  C 2.992150 -0.312315 -0.796735
  C 4.374652 -0.374282 -1.000221
  C 5.053456 -0.816436 -2.108288
  C 4.617610 -1.365492 -3.407635
  C 3.133813 -1.527528 -3.738014
  C 2.961205 -2.125226 -5.139075
  H 6.125868 -0.765762 -2.037019
  H 0.461615 0.176874 1.502356
  H 0.389481 -0.594225 -0.160088
  H 1.542216 0.955080 0.076124
  H 3.893152 1.413300 1.203568
  H 3.842032 -0.212945 1.857864
  H 1.864832 0.346866 3.214865
  H 1.826194 1.972685 2.519987
  H 2.329483 -0.645915 -1.583513
  H 5.004602 -0.037353 -0.185838
  H 5.111076 -2.342634 -3.514408
  H 5.086761 -0.743532 -4.184059
  H 2.636664 -0.552481 -3.714805
  H 2.661108 -2.199170 -3.014802
  H 3.409915 -1.480034 -5.896665
  H 1.903158 -2.241692 -5.378028
  H 3.432682 -3.107426 -5.205069
 28
 34.329904
  C 0.952031 -0.046074 0.572892
  C 2.367675 0.158057 0.400157
  C 3.222386 0.627381 1.551438
  C 2.461165 1.126142 2.767137
  H 3.178581 1.465640 3.523106
  C 2.992423 -0.305429 -0.800748
  C 4.373220 -0.368793 -1.006575
  C 5.050850 -0.813842 -2.111843
  C 4.615669 -1.367531 -3.412562
  C 3.137494 -1.531011 -3.744330
  C 2.969679 -2.128535 -5.136265
  H 6.129428 -0.762761 -2.039608
  H 0.464102 0.166728 1.514582
  H 0.389457 -0.566406 -0.175161
  H 1.581538 0.967355 0.101805
  H 3.892936 1.414343 1.204106
  H 3.844255 -0.210596 1.852478
  H 1.858838 0.326739 3.221717
  H 1.811827 1.977561 2.519757
  H 2.332924 -0.636035 -1.579159
  H 5.001772 -0.031408 -0.197689
  H 5.108930 -2.344336 -3.516206
  H 5.084880 -0.747756 -4.189826
  H 2.641561 -0.560623 -3.724667
  H 2.665923 -2.198667 -3.023889
  H 3.417297 -1.488014 -5.889940
  H 1.918230 -2.245772 -5.375897
  H 3.439691 -3.104913 -5.198241
 28
 35.889455
  C 0.955482 -0.051796 0.570149
  C 2.370256 0.169441 0.397250
  C 3.225617 0.627405 1.554295
  C 2.459938 1.121969 2.772341
  H 3.168538 1.457726 3.524208
  C 3.000710 -0.297652 -0.805700
  C 4.376501 -0.358912 -1.006482
  C 5.058456 -0.808058 -2.112991
  C 4.625336 -1.363520 -3.406123
  C 3.138211 -1.529198 -3.735811
  C 2.964653 -2.135706 -5.137162
  H 6.132967 -0.756102 -2.041345
  H 0.471152 0.154888 1.497735
  H 0.389154 -0.550578 -0.198362
  H 1.618624 0.980306 0.112394
  H 3.898632 1.418578 1.210698
  H 3.849877 -0.219459 1.854405
  H 1.862176 0.325190 3.221191
  H 1.812196 1.968295 2.528664
  H 2.340127 -0.631008 -1.590419
  H 5.002057 -0.017092 -0.197605
  H 5.121574 -2.344569 -3.506773
  H 5.095503 -0.742606 -4.188190
  H 2.639763 -0.554008 -3.717009
  H 2.666432 -2.197813 -3.008384
  H 3.412898 -1.493450 -5.899354
  H 1.905283 -2.254535 -5.375406
  H 3.437488 -3.119094 -5.198632
 28
 37.327239
  C 0.946423 -0.060398 0.567680
  C 2.369302 0.181377 0.388350
  C 3.232527 0.625826 1.553480
  C 2.468578 1.116639 2.780213
  H 3.182845 1.449921 3.537827
  C 2.996241 -0.288603 -0.812217
  C 4.370163 -0.350138 -1.012325
  C 5.051649 -0.801946 -2.113396
  C 4.620574 -1.364539 -3.409782
  C 3.144658 -1.532957 -3.742296
  C 2.979400 -2.141026 -5.132731
  H 6.133531 -0.748801 -2.039459
  H 0.453327 0.150287 1.510356
  H 0.381534 -0.534658 -0.206806
  H 1.646119 0.999938 0.112454
  H 3.905088 1.414733 1.215273
  H 3.850761 -0.222713 1.844597
  H 1.876730 0.326687 3.221400
  H 1.827696 1.955476 2.545396
  H 2.334530 -0.621438 -1.595462
  H 4.998846 -0.002953 -0.199132
  H 5.112774 -2.335331 -3.504209
  H 5.087110 -0.752006 -4.185041
  H 2.646233 -0.561849 -3.729320
  H 2.672409 -2.198296 -3.015654
  H 3.428357 -1.502644 -5.892765
  H 1.924942 -2.262101 -5.373642
  H 3.452818 -3.120389 -5.187833
 28
 38.621144
  C 0.958999 -0.068455 0.565910
  C 2.377220 0.194544 0.386987
  C 3.236929 0.626256 1.556170
  C 2.463740 1.112255 2.788629
  H 3.176219 1.443444 3.552718
  C 3.011031 -0.278533 -0.816577
  C 4.380808 -0.338521 -1.012990
  C 5.064274 -0.795224 -2.114120
  C 4.631971 -1.362451 -3.406718
  C 3.142876 -1.531782 -3.738564
  C 2.972619 -2.148534 -5.131505
  H 6.139130 -0.743347 -2.040442
  H 0.468139 0.141247 1.493180
  H 0.391585 -0.530370 -0.224388
  H 1.686517 1.013205 0.115951
  H 3.908787 1.412047 1.227168
  H 3.849263 -0.220500 1.842168
  H 1.865339 0.312173 3.227579
  H 1.817836 1.957437 2.554324
  H 2.346527 -0.614824 -1.606484
  H 5.006056 0.008570 -0.201792
  H 5.124043 -2.334407 -3.497808
  H 5.099195 -0.753781 -4.185304
  H 2.642785 -0.554482 -3.729518
  H 2.667641 -2.197712 -3.003338
  H 3.421371 -1.513688 -5.896766
  H 1.917138 -2.269178 -5.369839
  H 3.444808 -3.130298 -5.183420
