8

H -0.236652 -0.945747 0.797224
C 0.812019 -0.080276 0.109748
C 2.221267 -0.616397 0.345022
H 2.9470989083154446 -0.015009448364906253 -0.22198862918565104
H 0.610108 -0.052561 -0.961156
H 0.752647 0.93958 0.4954
H 2.466249281726431 -0.5501626296642146 1.4153475064821792
H 2.270273 -1.661292 0.032792
