 23
 0.000000
  C 0.958733 0.142238 0.405928
  C 2.435627 0.138812 0.396949
  C 3.229471 0.606512 1.560312
  C 2.462344 1.098650 2.784948
  C 3.425064 1.540000 3.882996
  C 3.047724 -0.326485 -0.761128
  C 4.427680 -0.410350 -0.970580
  C 5.111749 -0.860636 -2.093538
  H 4.760337 -1.236769 -3.031586
  O 6.434575 -0.852273 -2.073085
  H 0.530877 0.513603 1.329858
  H 0.585106 -0.868946 0.237722
  H 0.584800 0.755552 -0.415298
  H 3.886571 1.416144 1.222870
  H 3.886751 -0.211308 1.877002
  H 1.825548 0.303651 3.177702
  H 1.825480 1.944269 2.518350
  H 4.060886 0.715705 4.199537
  H 2.870851 1.888902 4.751281
  H 4.060786 2.354138 3.541037
  H 2.388559 -0.643775 -1.550690
  H 5.047217 -0.079018 -0.145404
  H 6.800018 -0.516405 -1.234749
 23
 0.000000
  C 0.966180 0.144255 0.410937
  C 2.443105 0.145086 0.412590
  C 3.227202 0.615065 1.581632
  C 2.449862 1.104982 2.800706
  C 3.403377 1.549098 3.905651
  C 3.064862 -0.318438 -0.741044
  C 4.446526 -0.398323 -0.940555
  C 5.203910 -0.887981 -2.161678
  H 4.860346 -1.265119 -3.102226
  O 6.381442 -0.890619 -2.168628
  H 0.530615 0.514379 1.331757
  H 0.596690 -0.868001 0.240060
  H 0.596403 0.756493 -0.412969
  H 3.884377 1.426590 1.248917
  H 3.884539 -0.200859 1.903057
  H 1.812550 0.308148 3.188877
  H 1.812499 1.948764 2.529518
  H 4.039277 0.726638 4.226773
  H 2.841923 1.896396 4.769918
  H 4.039195 2.365068 3.568265
  H 2.412315 -0.637621 -1.535326
  H 5.059149 -0.065212 -0.110944
  H 6.690411 -0.556577 -1.334854
 23
 0.000000
  C 0.968956 0.147789 0.419725
  C 2.445837 0.152248 0.430443
  C 3.221588 0.624147 1.604270
  C 2.435580 1.112149 2.818545
  C 3.381202 1.558603 3.929316
  C 3.075799 -0.309744 -0.719348
  C 4.458854 -0.386235 -0.910374
  C 5.295754 -0.919137 -2.239317
  H 4.958896 -1.297115 -3.181952
  O 6.351888 -0.932107 -2.272003
  H 0.526840 0.516839 1.337851
  H 0.603009 -0.865371 0.246596
  H 0.602740 0.759120 -0.406441
  H 3.878798 1.437285 1.275585
  H 3.878943 -0.190161 1.929733
  H 1.797856 0.313751 3.202807
  H 1.797823 1.954364 2.543441
  H 4.017137 0.737705 4.254344
  H 2.813603 1.904517 4.790118
  H 4.017072 2.376132 3.595829
  H 2.428925 -0.630526 -1.517617
  H 5.065554 -0.051622 -0.077024
  H 6.619196 -0.596518 -1.434376
 23
 0.000000
  C 0.967197 0.152845 0.432306
  C 2.443991 0.160322 0.450570
  C 3.212768 0.633804 1.628340
  C 2.419571 1.120198 2.838580
  C 3.358590 1.568582 3.954163
  C 3.080763 -0.300380 -0.695983
  C 4.464930 -0.374044 -0.879940
  C 5.387433 -0.954119 -2.326491
  H 5.056168 -1.332784 -3.270831
  O 6.345453 -0.976553 -2.382750
  H 0.519642 0.520990 1.348157
  H 0.604210 -0.861060 0.257318
  H 0.603958 0.763427 -0.395727
  H 3.869986 1.448284 1.303011
  H 3.870114 -0.179159 1.957166
  H 1.781524 0.320498 3.219585
  H 1.781507 1.961108 2.560212
  H 3.994532 0.748985 4.282444
  H 2.785894 1.913335 4.812050
  H 3.994484 2.387410 3.623923
  H 2.438634 -0.622483 -1.497544
  H 5.066679 -0.038194 -0.043503
  H 6.582705 -0.636054 -1.532882
 23
 0.000000
  C 0.961311 0.159302 0.448377
  C 2.438002 0.169225 0.472762
  C 3.201106 0.643982 1.653706
  C 2.402094 1.129062 2.860643
  C 3.335737 1.579001 3.980106
  C 3.080284 -0.290422 -0.671138
  C 4.465321 -0.361793 -0.849355
  C 5.478223 -0.992290 -2.421613
  H 5.151503 -1.371504 -3.367315
  O 6.359873 -1.023244 -2.499096
  H 0.509354 0.526706 1.362363
  H 0.600732 -0.855203 0.271894
  H 0.600496 0.769281 -0.381159
  H 3.858317 1.459548 1.331097
  H 3.858429 -0.167892 1.985259
  H 1.763799 0.328306 3.239007
  H 1.763798 1.968913 2.579627
  H 3.971671 0.760459 4.311027
  H 2.758921 1.922806 4.835610
  H 3.971638 2.398881 3.652498
  H 2.442016 -0.613589 -1.475351
  H 5.063041 -0.024946 -0.010434
  H 6.576029 -0.674638 -1.629012
 23
 0.000000
  C 0.952031 0.166925 0.467354
  C 2.428619 0.178806 0.496641
  C 3.187168 0.654575 1.680109
  C 2.383512 1.138598 2.884384
  C 3.312837 1.589777 4.006937
  C 3.075303 -0.279992 -0.645118
  C 4.461018 -0.349528 -0.818736
  C 5.567165 -1.032529 -2.521886
  H 5.244090 -1.412176 -3.468666
  O 6.390901 -1.071130 -2.618420
  H 0.496556 0.533732 1.379833
  H 0.593386 -0.848057 0.289681
  H 0.593164 0.776424 -0.363379
  H 3.844365 1.471012 1.359678
  H 3.844463 -0.156425 2.013847
  H 1.745027 0.336998 3.260632
  H 1.745040 1.977602 2.601245
  H 3.948753 0.772079 4.339972
  H 2.732729 1.932818 4.860519
  H 3.948734 2.410498 3.681437
  H 2.440138 -0.604006 -1.451444
  H 5.055503 -0.011887 0.022163
  H 6.592262 -0.711724 -1.721401
 23
 0.000000
  C 0.940157 0.175480 0.488652
  C 2.416647 0.188946 0.521915
  C 3.171495 0.665533 1.707418
  C 2.364080 1.148695 2.909522
  C 3.289894 1.600875 4.034572
  C 3.066895 -0.269159 -0.618097
  C 4.453147 -0.337207 -0.787982
  C 5.653864 -1.073780 -2.624683
  H 5.333747 -1.453776 -3.572327
  O 6.433794 -1.119325 -2.738513
  H 0.481833 0.541799 1.399899
  H 0.583081 -0.839888 0.310020
  H 0.582873 0.784591 -0.343047
  H 3.828676 1.482674 1.388754
  H 3.828760 -0.144760 2.042929
  H 1.725445 0.346411 3.284054
  H 1.725472 1.987013 2.624661
  H 3.925789 0.783861 4.369322
  H 2.707121 1.943295 4.886587
  H 3.925784 2.422278 3.710780
  H 2.434252 -0.593857 -1.426128
  H 5.045002 0.001074 0.054512
  H 6.624070 -0.747157 -1.809669
 23
 0.000000
  C 0.926287 0.184816 0.511899
  C 2.402685 0.199612 0.548496
  C 3.154425 0.676881 1.735699
  C 2.343863 1.159320 2.935974
  C 3.266726 1.612335 4.063109
  C 3.055919 -0.257911 -0.590042
  C 4.442611 -0.324712 -0.756796
  C 5.738525 -1.115358 -2.728293
  H 5.420891 -1.495644 -3.676657
  O 6.484820 -1.167329 -2.858132
  H 0.465577 0.550725 1.422107
  H 0.570530 -0.830873 0.332465
  H 0.570334 0.793604 -0.320608
  H 3.811588 1.494613 1.418516
  H 3.811659 -0.132819 2.072698
  H 1.705106 0.356462 3.309066
  H 1.705145 1.997061 2.649667
  H 3.902598 0.795896 4.399299
  H 2.681722 1.954233 4.913805
  H 3.902606 2.434309 3.740751
  H 2.425394 -0.583181 -1.399498
  H 5.032257 0.014104 0.087032
  H 6.665553 -0.781136 -1.894312
 23
 0.000000
  C 0.910762 0.194876 0.536948
  C 2.387073 0.210833 0.576460
  C 3.136092 0.688696 1.765142
  C 2.322782 1.170501 2.963813
  C 3.243061 1.624245 4.092766
  C 3.042913 -0.246180 -0.560784
  C 4.429984 -0.311891 -0.724800
  C 5.821568 -1.156878 -2.831757
  H 5.506106 -1.537414 -3.780744
  O 6.541579 -1.214924 -2.976733
  H 0.447968 0.560425 1.446242
  H 0.556158 -0.821093 0.356816
  H 0.555975 0.803381 -0.296263
  H 3.793236 1.506944 1.449254
  H 3.793296 -0.120486 2.103442
  H 1.683921 0.367142 3.335646
  H 1.683972 2.007739 2.676242
  H 3.878910 0.808306 4.430214
  H 2.656111 1.965685 4.942303
  H 3.878930 2.446718 3.771660
  H 2.414244 -0.571948 -1.371482
  H 5.017696 0.027392 0.120189
  H 6.712676 -0.813971 -1.976104
 23
 0.000000
  C 0.893715 0.205666 0.563816
  C 2.369941 0.222679 0.605981
  C 3.116480 0.701082 1.796006
  C 2.300673 1.182308 2.993211
  C 3.218597 1.636713 4.123814
  C 3.028150 -0.233867 -0.530081
  C 4.415560 -0.298586 -0.691603
  C 5.903354 -1.198101 -2.934480
  H 5.589871 -1.578864 -3.884032
  O 6.602675 -1.262015 -3.094073
  H 0.429026 0.570887 1.472276
  H 0.540162 -0.810557 0.383052
  H 0.539991 0.813915 -0.270034
  H 3.773606 1.519798 1.481295
  H 3.773654 -0.107629 2.135489
  H 1.661720 0.378493 3.363899
  H 1.661782 2.019088 2.704489
  H 3.854422 0.821231 4.462407
  H 2.629877 1.977736 4.972294
  H 3.854453 2.459640 3.803848
  H 2.401172 -0.560087 -1.341906
  H 5.001510 0.041118 0.154439
  H 6.762834 -0.845925 -2.055700
 23
 0.000000
  C 0.875119 0.217244 0.592647
  C 2.351260 0.235252 0.637313
  C 3.095459 0.714162 1.828599
  C 2.277299 1.194841 3.024419
  C 3.193000 1.649868 4.156574
  C 3.011701 -0.220853 -0.497629
  C 4.399426 -0.284637 -0.656800
  C 5.984084 -1.238829 -3.035967
  H 5.672467 -1.619804 -3.986049
  O 6.667310 -1.308529 -3.209976
  H 0.408645 0.582154 1.500317
  H 0.522559 -0.799218 0.411288
  H 0.522399 0.825252 -0.241804
  H 3.752564 1.533320 1.515000
  H 3.752601 -0.094105 2.169199
  H 1.638261 0.390596 3.394027
  H 1.638335 2.031189 2.734611
  H 3.828800 0.834816 4.496248
  H 2.602612 1.990496 5.004053
  H 3.828842 2.473223 3.837683
  H 2.386320 -0.547498 -1.310515
  H 4.983712 0.055465 0.190232
  H 6.814315 -0.877157 -2.133497
 23
 0.000000
  C 0.854805 0.229716 0.623706
  C 2.330858 0.248693 0.670806
  C 3.072778 0.728094 1.863315
  C 2.252333 1.208239 3.057782
  C 3.165867 1.663871 4.191444
  C 2.993468 -0.206982 -0.463045
  C 4.381496 -0.269856 -0.619928
  C 6.063771 -1.278838 -3.135663
  H 5.753970 -1.660019 -4.086256
  O 6.734992 -1.354366 -3.324193
  H 0.386596 0.594322 1.530604
  H 0.503211 -0.786977 0.441770
  H 0.503062 0.837490 -0.211327
  H 3.729862 1.547682 1.550796
  H 3.729888 -0.079741 2.205001
  H 1.613214 0.403577 3.426339
  H 1.613299 2.044167 2.766918
  H 3.801641 0.849236 4.532168
  H 2.573860 2.004113 5.037947
  H 3.801694 2.487641 3.873598
  H 2.369642 -0.534039 -1.276959
  H 4.964161 0.070632 0.228065
  H 6.865911 -0.907701 -2.209581
 23
 0.000000
  C 0.832426 0.243259 0.657431
  C 2.308387 0.263206 0.706967
  C 3.048022 0.743097 1.900698
  C 2.225291 1.222706 3.093807
  C 3.136652 1.678941 4.228974
  C 2.973167 -0.192037 -0.425786
  C 4.361493 -0.253999 -0.580377
  C 6.142219 -1.317824 -3.232806
  H 5.834239 -1.699208 -4.183909
  O 6.805323 -1.399347 -3.436273
  H 0.362481 0.607560 1.563553
  H 0.481801 -0.773665 0.474918
  H 0.481663 0.850799 -0.178185
  H 3.705082 1.563116 1.589261
  H 3.705097 -0.064305 2.243471
  H 1.586093 0.417625 3.461312
  H 1.586188 2.058214 2.801886
  H 3.772398 0.864725 4.570750
  H 2.543025 2.018797 5.074498
  H 3.772462 2.503128 3.912175
  H 2.350901 -0.519506 -1.240728
  H 4.942534 0.086873 0.268576
  H 6.916641 -0.937442 -2.283669
 23
 0.000000
  C 0.807332 0.258176 0.694576
  C 2.283192 0.279125 0.746632
  C 3.020461 0.759522 1.941623
  C 2.195369 1.238575 3.133324
  C 3.104481 1.695431 4.270043
  C 2.950214 -0.175669 -0.384983
  C 4.338843 -0.236688 -0.537203
  C 6.218940 -1.355312 -3.326213
  H 5.912844 -1.736904 -4.277840
  O 6.877786 -1.443122 -3.545347
  H 0.335593 0.622159 1.599894
  H 0.457710 -0.758988 0.511469
  H 0.457583 0.865475 -0.141639
  H 3.677495 1.579986 1.631305
  H 3.677499 -0.047432 2.285520
  H 1.556092 0.433061 3.499739
  H 1.556198 2.073647 2.840309
  H 3.740195 0.881649 4.612907
  H 2.509180 2.034886 5.114551
  H 3.740270 2.520050 3.954327
  H 2.329562 -0.503562 -1.200985
  H 4.918202 0.104582 0.312739
  H 6.965498 -0.966050 -2.354933
