20

C 0.975546 0.136943 0.392722
C 2.453375 0.139016 0.397217
C 3.234988 0.609841 1.568511
H 2.6875300396204094 0.9525562998508206 2.4215854427452865
C 3.076024 -0.32327 -0.753673
C 4.453249 -0.411403 -0.973692
C 5.122105 -0.863817 -2.10158
C 4.620961 -1.386328 -3.404376
H 3.573883640426639 -1.4681075495090792 -3.608926992055699
O 6.447962 -0.861715 -2.096491
H 0.535465 0.506322 1.312115
H 0.606916 -0.876217 0.225271
H 0.606525 0.752377 -0.429157
H 3.89119 1.422458 1.236305
H 3.8915 -0.20646 1.89089
H 2.423198 -0.642598 -1.548589
H 5.080603 -0.082721 -0.155142
H 5.075054 -2.375873 -3.531538
H 5.075478 -0.75923 -4.180113
H 6.824556 -0.527091 -1.261029
