 13
 0.000000
  H 3.588388 -0.601489 -0.992765
  C 4.662107 -0.607809 -1.005171
  C 5.375985 -1.118332 -2.007410
  C 6.818192 -1.129343 -2.029022
  C 7.534156 -1.639957 -3.031451
  C 9.023882 -1.662087 -3.074890
  H 5.161170 -0.173218 -0.152000
  H 4.872224 -1.553266 -2.861259
  H 7.326082 -0.695467 -1.177252
  H 7.033478 -2.075578 -3.886631
  H 9.463386 -1.210089 -2.187548
  H 9.380417 -1.118309 -3.950432
  H 9.380418 -2.690023 -3.149832
 13
 2.872488
  H 3.651701 -0.588470 -0.958887
  C 4.730414 -0.601030 -0.990736
  C 5.402498 -1.121472 -2.014804
  C 6.837433 -1.160027 -2.094342
  C 7.510808 -1.683099 -3.118831
  C 8.989107 -1.654685 -3.060034
  H 5.240997 -0.166144 -0.141196
  H 4.871145 -1.547145 -2.847190
  H 7.357929 -0.732050 -1.255561
  H 7.007546 -2.118858 -3.974219
  H 9.165174 -1.168846 -2.099086
  H 9.429000 -1.077537 -3.875805
  H 9.425495 -2.656061 -3.075871
 13
 4.791628
  H 3.668042 -0.408784 -0.999248
  C 4.739237 -0.518075 -1.015372
  C 5.368129 -1.130288 -2.013058
  C 6.806100 -1.261896 -2.085839
  C 7.515791 -1.773974 -3.088228
  C 9.001488 -1.619701 -3.059961
  H 5.274499 -0.101999 -0.178351
  H 4.803574 -1.530916 -2.847276
  H 7.297716 -1.026238 -1.153533
  H 7.058837 -2.313383 -3.908235
  H 9.218590 -1.139001 -2.097511
  H 9.308751 -0.899054 -3.824089
  H 9.549474 -2.543149 -3.217129
 13
 11.789062
  H 3.705175 -0.239658 -1.100230
  C 4.756516 -0.462952 -1.045975
  C 5.388257 -1.127695 -2.010522
  C 6.814427 -1.362164 -2.011199
  C 7.516006 -1.844029 -3.043124
  C 8.983961 -1.586871 -3.076060
  H 5.268810 -0.138935 -0.151502
  H 4.841338 -1.472873 -2.877851
  H 7.283915 -1.321606 -1.034378
  H 7.057108 -2.386621 -3.857028
  H 9.193089 -1.090665 -2.128370
  H 9.175311 -0.775752 -3.788103
  H 9.606023 -2.437105 -3.328810
 13
 31.350835
  H 3.748796 -0.273838 -1.026655
  C 4.797110 -0.515601 -1.000371
  C 5.427267 -1.010569 -2.055469
  C 6.843182 -1.314906 -2.067573
  C 7.497001 -1.896002 -3.098366
  C 8.963239 -1.601906 -3.061848
  H 5.327512 -0.187807 -0.135606
  H 4.869847 -1.288258 -2.958284
  H 7.255076 -1.416467 -1.063892
  H 7.040051 -2.587108 -3.804963
  H 8.959854 -1.015404 -2.131931
  H 9.181753 -0.724417 -3.694820
  H 9.643444 -2.391409 -3.307970
 13
 57.188398
  H 3.854081 -0.096634 -1.082825
  C 4.881337 -0.402712 -1.039632
  C 5.479032 -1.022471 -2.058431
  C 6.857177 -1.445538 -2.039511
  C 7.506474 -2.074644 -3.066927
  C 8.887491 -1.533047 -3.107732
  H 5.369233 -0.284454 -0.093306
  H 4.958298 -1.122045 -3.008981
  H 7.215102 -1.633112 -1.048975
  H 7.118855 -2.870291 -3.677494
  H 8.682445 -0.911196 -2.155374
  H 9.003383 -0.595322 -3.648083
  H 9.688456 -2.204999 -3.328906
 13
 81.461523
  H 3.885447 -0.058020 -1.149744
  C 4.901302 -0.400464 -1.054697
  C 5.541074 -1.007543 -2.050123
  C 6.931545 -1.436677 -1.994149
  C 7.565385 -2.132045 -3.061922
  C 8.843560 -1.576371 -3.185716
  H 5.377671 -0.224767 -0.103997
  H 5.046367 -1.149053 -3.003610
  H 7.263146 -1.666850 -0.985928
  H 7.153458 -2.952287 -3.630620
  H 8.281730 -0.804207 -2.025383
  H 8.946896 -0.570635 -3.567793
  H 9.694460 -2.190437 -3.487007
 13
 60.692729
  H 3.920438 0.032603 -1.225079
  C 4.908713 -0.373939 -1.071330
  C 5.589857 -0.980910 -2.036901
  C 6.982750 -1.424048 -1.920939
  C 7.661745 -2.191001 -3.006349
  C 8.834095 -1.594281 -3.288421
  H 5.318514 -0.268474 -0.084690
  H 5.149318 -1.099123 -3.003281
  H 7.246610 -1.751470 -0.915424
  H 7.225533 -3.031530 -3.519939
  H 7.951844 -0.720586 -1.880971
  H 8.853368 -0.570330 -3.627346
  H 9.703928 -2.164996 -3.664506
 13
 34.638125
  H 3.838639 -0.156557 -1.210546
  C 4.882084 -0.403741 -1.077064
  C 5.614304 -0.921036 -2.048121
  C 7.035054 -1.342658 -1.908742
  C 7.666052 -2.149632 -2.988794
  C 8.848486 -1.674032 -3.348150
  H 5.291941 -0.210322 -0.097188
  H 5.189648 -1.059130 -3.025475
  H 7.233319 -1.713368 -0.891780
  H 7.190555 -3.038317 -3.386153
  H 7.846217 -0.577292 -1.850987
  H 8.996167 -0.617086 -3.482793
  H 9.612330 -2.250445 -3.871940
 13
 17.735641
  H 3.855928 -0.084381 -1.292143
  C 4.857509 -0.411492 -1.094843
  C 5.629309 -0.936063 -2.033693
  C 7.050106 -1.320332 -1.839714
  C 7.691120 -2.107330 -2.938615
  C 8.826147 -1.661831 -3.460699
  H 5.231861 -0.223722 -0.096625
  H 5.231636 -1.094907 -3.027876
  H 7.199712 -1.826467 -0.880476
  H 7.257984 -3.061556 -3.203457
  H 7.737980 -0.475765 -1.736238
  H 9.058818 -0.615254 -3.474350
  H 9.496231 -2.268918 -4.055978
 13
 9.717145
  H 3.835416 -0.131237 -1.347972
  C 4.855864 -0.388011 -1.127278
  C 5.641083 -0.952591 -2.024068
  C 7.081370 -1.304939 -1.779636
  C 7.711493 -2.076301 -2.893956
  C 8.796566 -1.656570 -3.517902
  H 5.209523 -0.133341 -0.139169
  H 5.256712 -1.209808 -3.002426
  H 7.167758 -1.884237 -0.852785
  H 7.243924 -3.014044 -3.164319
  H 7.688583 -0.399123 -1.622441
  H 9.209807 -0.677689 -3.336233
  H 9.285317 -2.232990 -4.279889
 13
 10.625803
  H 3.829218 -0.092628 -1.393121
  C 4.834828 -0.385445 -1.144659
  C 5.657870 -0.902973 -2.036999
  C 7.075257 -1.297038 -1.747453
  C 7.737279 -2.072165 -2.840641
  C 8.744224 -1.613414 -3.564385
  H 5.144396 -0.210720 -0.126604
  H 5.325897 -1.073274 -3.052980
  H 7.103741 -1.894815 -0.828500
  H 7.404456 -3.096103 -2.956470
  H 7.704623 -0.428191 -1.540436
  H 9.052216 -0.582589 -3.582772
  H 9.208815 -2.255744 -4.296976
 13
 8.958102
  H 3.834908 -0.125392 -1.430642
  C 4.841199 -0.397120 -1.161525
  C 5.686100 -0.906957 -2.037876
  C 7.106655 -1.286074 -1.717425
  C 7.739936 -2.081079 -2.815480
  C 8.693435 -1.622171 -3.602556
  H 5.122771 -0.227530 -0.134657
  H 5.378880 -1.067299 -3.062957
  H 7.122207 -1.870782 -0.792459
  H 7.367882 -3.090279 -2.937230
  H 7.699522 -0.383960 -1.541404
  H 9.083128 -0.621336 -3.505796
  H 9.146196 -2.225117 -4.371987
