 19
 0.000000
  H 1.435005 0.203209 0.558941
  C 2.498443 0.141745 0.405041
  H 3.149679 0.462123 1.201727
  C 2.996893 -0.329914 -0.769775
  C 4.389755 -0.416109 -0.985373
  C 5.061837 -0.863672 -2.101178
  C 4.601404 -1.377954 -3.383599
  C 3.131133 -1.513695 -3.723579
  C 2.938409 -2.077118 -5.128350
  H 6.143822 -0.836179 -2.032303
  H 2.310520 -0.639099 -1.539310
  H 5.005776 -0.084302 -0.158641
  H 5.094613 -2.355268 -3.515236
  H 5.095558 -0.763152 -4.154083
  H 2.641839 -0.537996 -3.674677
  H 2.641149 -2.184760 -3.014134
  H 3.384950 -1.429056 -5.878656
  H 1.879436 -2.167564 -5.354971
  H 3.384393 -3.064336 -5.222704
 19
 14.077103
  H 1.379450 0.248767 0.672688
  C 2.441867 0.191002 0.528022
  H 3.090247 0.510746 1.323407
  C 2.993746 -0.321986 -0.750164
  C 4.365851 -0.398787 -0.942365
  C 5.105632 -0.890776 -2.168883
  C 4.633159 -1.398512 -3.434907
  C 3.153964 -1.525267 -3.752566
  C 2.939069 -2.087827 -5.154974
  H 6.184045 -0.860490 -2.092934
  H 2.309300 -0.631120 -1.519777
  H 4.983998 -0.068679 -0.119706
  H 5.121731 -2.377500 -3.573946
  H 5.122779 -0.787771 -4.211938
  H 2.672056 -0.547096 -3.695804
  H 2.671308 -2.192619 -3.035644
  H 3.378941 -1.441862 -5.911188
  H 1.876639 -2.172568 -5.367330
  H 3.378416 -3.077625 -5.254936
 19
 43.063267
  H 1.322177 0.254788 0.688500
  C 2.394049 0.215208 0.588739
  H 3.059792 0.530975 1.373777
  C 3.006995 -0.328736 -0.767060
  C 4.337445 -0.371352 -0.874763
  C 5.167772 -0.912877 -2.224125
  C 4.658328 -1.414044 -3.472699
  C 3.157383 -1.529324 -3.762086
  C 2.921338 -2.089982 -5.160538
  H 6.242547 -0.852996 -2.074866
  H 2.296972 -0.628234 -1.512231
  H 4.997835 -0.054223 -0.084929
  H 5.147814 -2.399534 -3.637471
  H 5.148752 -0.816444 -4.273200
  H 2.697435 -0.543469 -3.689977
  H 2.696436 -2.191229 -3.029089
  H 3.354337 -1.445269 -5.920249
  H 1.856407 -2.169324 -5.360317
  H 3.353325 -3.081529 -5.264262
 19
 77.634739
  H 1.269786 0.280619 0.752704
  C 2.330136 0.253157 0.683347
  H 2.997114 0.562259 1.452359
  C 2.997659 -0.324471 -0.756813
  C 4.311011 -0.352410 -0.827750
  C 5.221337 -0.943616 -2.300775
  C 4.693350 -1.435855 -3.526995
  C 3.199665 -1.534070 -3.774472
  C 2.917600 -2.093790 -5.170137
  H 6.272338 -0.870361 -2.118343
  H 2.273442 -0.615239 -1.480472
  H 4.997006 -0.048608 -0.071055
  H 5.168103 -2.418008 -3.694511
  H 5.168625 -0.842655 -4.326601
  H 2.748592 -0.543753 -3.691452
  H 2.747507 -2.192472 -3.030176
  H 3.336585 -1.452732 -5.943406
  H 1.845827 -2.161487 -5.340417
  H 3.335642 -3.091757 -5.285957
 19
 111.598974
  H 1.199157 0.295099 0.787935
  C 2.261294 0.282169 0.755357
  H 2.930056 0.589811 1.521824
  C 2.979919 -0.315758 -0.736174
  C 4.284245 -0.325259 -0.760062
  C 5.291362 -0.977139 -2.383983
  C 4.740397 -1.457979 -3.582144
  C 3.231665 -1.539336 -3.786406
  C 2.901788 -2.093694 -5.169789
  H 6.339942 -0.892630 -2.173367
  H 2.243570 -0.601548 -1.448290
  H 5.000704 -0.032407 -0.029599
  H 5.206382 -2.449725 -3.762876
  H 5.206774 -0.866379 -4.398432
  H 2.795873 -0.545506 -3.688517
  H 2.795362 -2.190312 -3.029407
  H 3.304523 -1.457422 -5.955304
  H 1.824672 -2.148161 -5.306841
  H 3.303803 -3.096580 -5.298337
 19
 141.329497
  H 1.133858 0.323358 0.866564
  C 2.206969 0.319867 0.853891
  H 2.876590 0.630760 1.631445
  C 2.950412 -0.282418 -0.655074
  C 4.233265 -0.282416 -0.657850
  C 5.344745 -1.012959 -2.476215
  C 4.778132 -1.487269 -3.653570
  C 3.269451 -1.553909 -3.825954
  C 2.903743 -2.105934 -5.199972
  H 6.401354 -0.928988 -2.269432
  H 2.206713 -0.569449 -1.370605
  H 4.979117 0.003969 0.054333
  H 5.229342 -2.479754 -3.841931
  H 5.232093 -0.905267 -4.477403
  H 2.847596 -0.554145 -3.718176
  H 2.844764 -2.199479 -3.056685
  H 3.294913 -1.476363 -5.994296
  H 1.824750 -2.148385 -5.312538
  H 3.290648 -3.112101 -5.336015
 19
 146.323895
  H 1.028573 0.210352 0.732766
  C 2.093216 0.263333 0.812376
  H 2.565831 0.588108 1.724148
  C 2.878413 -0.135568 -0.318429
  C 4.201712 -0.114015 -0.281470
  C 5.491918 -1.044701 -2.666294
  C 4.864384 -1.544342 -3.806380
  C 3.332306 -1.539895 -3.886499
  C 2.846904 -2.122393 -5.208515
  H 6.553384 -0.967022 -2.529197
  H 2.319267 -0.458676 -1.181997
  H 5.065445 0.130775 0.294127
  H 5.253035 -2.571823 -3.953625
  H 5.308276 -1.066434 -4.701509
  H 2.969559 -0.514018 -3.783008
  H 2.932832 -2.129729 -3.065603
  H 3.231364 -1.560206 -6.049584
  H 1.766843 -2.091542 -5.258120
  H 3.153574 -3.155833 -5.317875
 19
 153.070085
  H 0.957377 0.191078 0.747927
  C 2.019909 0.285810 0.871882
  H 2.420600 0.600072 1.821035
  C 2.870746 -0.079670 -0.186836
  C 4.182318 -0.038403 -0.108629
  C 5.545098 -1.079858 -2.755366
  C 4.896193 -1.582803 -3.891799
  C 3.370630 -1.551475 -3.929652
  C 2.836631 -2.135188 -5.236939
  H 6.628694 -1.019532 -2.691068
  H 2.378544 -0.414748 -1.101628
  H 5.071574 0.192817 0.408206
  H 5.269036 -2.617880 -4.035172
  H 5.320172 -1.119938 -4.800651
  H 3.033231 -0.522481 -3.827531
  H 2.978269 -2.127286 -3.089288
  H 3.217098 -1.580020 -6.101629
  H 1.742353 -2.081339 -5.259107
  H 3.122145 -3.186229 -5.346802
 19
 156.102786
  H 0.893659 0.156282 0.724854
  C 1.946056 0.288426 0.922337
  H 2.263922 0.591460 1.884090
  C 2.875930 -0.016390 -0.065633
  C 4.181739 0.041060 0.063964
  C 5.599288 -1.112155 -2.839024
  C 4.926676 -1.611543 -3.969273
  C 3.387889 -1.558694 -3.980941
  C 2.818254 -2.155161 -5.274228
  H 6.692432 -1.076380 -2.838389
  H 2.463538 -0.355456 -1.000395
  H 5.123388 0.255277 0.535229
  H 5.277055 -2.652293 -4.095413
  H 5.335642 -1.171171 -4.881665
  H 3.065222 -0.517919 -3.887540
  H 3.000515 -2.123800 -3.119471
  H 3.187865 -1.625250 -6.145606
  H 1.736951 -2.086461 -5.279669
  H 3.085314 -3.199908 -5.373502
 19
 157.128962
  H 0.871136 0.106341 0.659511
  C 1.873911 0.275778 0.947126
  H 2.108883 0.568478 1.969143
  C 2.893356 0.042501 0.041639
  C 4.183055 0.125811 0.231378
  C 5.641626 -1.144795 -2.920252
  C 4.941161 -1.642154 -4.039730
  C 3.410271 -1.560423 -4.024243
  C 2.806218 -2.171412 -5.295113
  H 6.731578 -1.129050 -2.972351
  H 2.560654 -0.305437 -0.936530
  H 5.146741 0.314698 0.642484
  H 5.268055 -2.695687 -4.146907
  H 5.342637 -1.222301 -4.978717
  H 3.107820 -0.508582 -3.943831
  H 3.035202 -2.097877 -3.157570
  H 3.169702 -1.662850 -6.186307
  H 1.714598 -2.080514 -5.281456
  H 3.051089 -3.230555 -5.377404
 19
 156.787012
  H 0.834167 0.040238 0.510811
  C 1.815830 0.240735 0.925918
  H 1.924409 0.497620 1.967880
  C 2.936913 0.090248 0.143596
  C 4.206541 0.211735 0.401544
  C 5.686747 -1.175473 -3.006777
  C 4.951368 -1.670360 -4.108879
  C 3.421558 -1.556099 -4.059096
  C 2.777393 -2.180265 -5.293946
  H 6.767441 -1.171161 -3.105458
  H 2.722562 -0.246384 -0.861853
  H 5.188207 0.381743 0.762439
  H 5.252670 -2.730917 -4.194540
  H 5.337345 -1.282307 -5.063837
  H 3.144031 -0.504922 -3.995703
  H 3.057077 -2.069162 -3.172947
  H 3.131551 -1.701545 -6.203886
  H 1.694054 -2.065076 -5.257813
  H 2.998712 -3.244399 -5.355595
 19
 156.103884
  H 0.846340 -0.075574 0.425525
  C 1.759905 0.168442 0.933002
  H 1.741919 0.440739 1.973814
  C 2.975051 0.113187 0.270268
  C 4.217310 0.344703 0.547044
  C 5.718528 -1.197876 -3.101758
  C 4.956050 -1.702157 -4.189292
  C 3.433348 -1.545588 -4.119129
  C 2.750007 -2.197009 -5.316503
  H 6.800277 -1.197599 -3.241845
  H 2.876955 -0.214286 -0.780322
  H 5.206148 0.473645 0.912460
  H 5.228200 -2.774282 -4.218575
  H 5.333126 -1.353442 -5.163316
  H 3.189273 -0.483616 -4.096397
  H 3.066732 -2.005484 -3.202066
  H 3.108168 -1.769227 -6.250758
  H 1.674612 -2.043330 -5.270283
  H 2.935724 -3.268885 -5.337659
 19
 155.653383
  H 0.835589 -0.057807 0.438983
  C 1.714427 0.192430 0.995928
  H 1.652965 0.453186 2.033721
  C 2.965669 0.165732 0.387739
  C 4.196523 0.389210 0.699009
  C 5.742782 -1.230547 -3.206772
  C 4.966497 -1.721901 -4.291045
  C 3.446951 -1.581920 -4.192414
  C 2.749650 -2.235829 -5.379533
  H 6.824388 -1.262871 -3.341926
  H 2.914553 -0.150863 -0.671343
  H 5.192659 0.490381 1.049759
  H 5.244637 -2.793323 -4.321121
  H 5.325234 -1.370900 -5.272367
  H 3.193248 -0.521811 -4.165930
  H 3.099954 -2.044839 -3.269167
  H 3.086401 -1.800655 -6.318381
  H 1.674058 -2.094690 -5.313322
  H 2.946873 -3.305515 -5.408405
 19
 152.820955
  H 0.977906 -0.195655 0.177341
  C 1.710173 0.126116 0.884537
  H 1.391540 0.402627 1.874688
  C 3.031403 0.208329 0.566359
  C 4.224169 0.516491 0.942917
  C 5.715821 -1.255859 -3.257857
  C 4.930581 -1.736244 -4.347513
  C 3.410237 -1.584200 -4.254233
  C 2.709202 -2.274624 -5.420885
  H 6.796039 -1.276589 -3.413817
  H 3.290209 -0.070152 -0.493732
  H 5.249903 0.529170 1.186754
  H 5.199104 -2.812392 -4.324459
  H 5.293397 -1.421997 -5.340066
  H 3.161150 -0.521438 -4.262517
  H 3.059885 -2.014624 -3.314496
  H 3.046747 -1.869777 -6.373021
  H 1.635228 -2.129183 -5.358617
  H 2.903907 -3.344727 -5.416636
 19
 143.082286
  H 1.449862 -0.321304 -0.566554
  C 1.818511 -0.062593 0.415577
  H 1.115120 -0.008829 1.229450
  C 3.096718 0.190802 0.655813
  C 4.276176 0.462011 1.053717
  C 5.557068 -1.207817 -3.129928
  C 4.809645 -1.663754 -4.250369
  C 3.288917 -1.520119 -4.202649
  C 2.617191 -2.296133 -5.328881
  H 6.637537 -1.154734 -3.289679
  H 4.204462 0.281022 -0.144301
  H 5.294159 0.547241 1.344021
  H 5.083372 -2.734066 -4.101363
  H 5.197195 -1.422158 -5.250007
  H 3.038290 -0.462177 -4.295195
  H 2.921075 -1.878483 -3.241449
  H 2.970507 -1.955210 -6.300302
  H 1.539584 -2.156493 -5.297140
  H 2.821213 -3.361936 -5.246013
