 19
 0.000000
  C 1.031157 0.120363 0.350420
  C 2.502110 0.117605 0.343747
  C 3.237086 0.591912 1.523208
  H 2.565717 0.910696 2.316639
  C 3.148894 -0.341704 -0.798836
  C 4.535794 -0.407079 -0.962680
  C 5.174427 -0.862097 -2.097484
  C 4.564398 -1.355243 -3.327714
  H 3.478321 -1.353210 -3.323719
  H 6.259236 -0.858994 -2.089828
  H 0.618779 0.495078 1.282907
  H 0.651612 -0.888010 0.169610
  H 0.651796 0.723572 -0.477701
  H 3.892395 1.422515 1.256989
  H 3.892909 -0.191392 1.905863
  H 2.522204 -0.670021 -1.615492
  H 5.160370 -0.078733 -0.144417
  H 4.931503 -2.364645 -3.527978
  H 4.932135 -0.764226 -4.169825
 19
 0.743487
  C 1.035592 0.066355 0.364056
  C 2.503474 0.005081 0.379082
  C 3.247793 0.672533 1.460044
  H 2.582083 1.116044 2.195390
  C 3.146587 -0.606656 -0.689076
  C 4.537074 -0.653588 -0.861865
  C 5.171676 -0.949319 -2.042746
  C 4.554703 -1.230617 -3.335643
  H 3.472547 -1.179890 -3.334645
  H 6.254570 -0.934578 -2.042925
  H 0.627168 0.504457 1.270552
  H 0.608317 -0.926599 0.206859
  H 0.702419 0.660265 -0.490175
  H 3.893550 1.450747 1.056818
  H 3.909908 -0.034385 1.962201
  H 2.521168 -1.038382 -1.455344
  H 5.159651 -0.397195 -0.018558
  H 4.876352 -2.221772 -3.670182
  H 4.954931 -0.547394 -4.087042
 19
 3.379295
  C 1.031733 -0.038222 0.397520
  C 2.500332 -0.078433 0.359525
  C 3.269566 0.826445 1.230160
  H 2.622638 1.444167 1.844310
  C 3.130074 -0.868896 -0.588321
  C 4.529151 -0.953541 -0.754217
  C 5.172914 -1.074606 -1.953905
  C 4.547362 -0.981324 -3.273001
  H 3.482592 -0.780710 -3.233673
  H 6.248455 -1.190805 -1.946687
  H 0.658412 0.413785 1.311568
  H 0.598509 -1.027091 0.255633
  H 0.671322 0.571603 -0.435846
  H 3.926125 1.468624 0.643714
  H 3.927035 0.247369 1.881800
  H 2.505318 -1.438693 -1.264242
  H 5.138264 -0.886275 0.138981
  H 4.731762 -1.913736 -3.813802
  H 5.044712 -0.213811 -3.867723
 19
 10.285566
  C 1.040964 -0.027990 0.347974
  C 2.506663 -0.115859 0.280892
  C 3.324610 0.926170 0.927858
  H 2.715111 1.661401 1.442489
  C 3.101461 -1.099224 -0.481008
  C 4.515259 -1.197810 -0.681147
  C 5.160201 -1.043049 -1.859479
  C 4.511971 -0.664612 -3.123854
  H 3.456626 -0.442529 -3.004124
  H 6.234268 -1.161483 -1.890297
  H 0.709975 0.579685 1.185340
  H 0.577987 -1.012806 0.378807
  H 0.667413 0.454911 -0.559855
  H 3.956115 1.435228 0.199549
  H 4.014645 0.468085 1.638840
  H 2.470810 -1.826236 -0.979459
  H 5.106276 -1.376928 0.212373
  H 4.634837 -1.490287 -3.829561
  H 5.019707 0.184718 -3.579582
 19
 15.344389
  C 1.041805 -0.048469 0.310915
  C 2.504270 -0.144663 0.203298
  C 3.350683 0.956390 0.690066
  H 2.766705 1.775817 1.095564
  C 3.092520 -1.245182 -0.383276
  C 4.507118 -1.368452 -0.651607
  C 5.162392 -1.007142 -1.756515
  C 4.495222 -0.459748 -2.961990
  H 3.446111 -0.246753 -2.773972
  H 6.232764 -1.134925 -1.823511
  H 0.737374 0.644988 1.089748
  H 0.578480 -1.021351 0.460565
  H 0.637866 0.334729 -0.631554
  H 3.984860 1.313995 -0.125354
  H 4.048104 0.607011 1.452664
  H 2.481454 -2.105940 -0.632000
  H 5.054096 -1.862084 0.150816
  H 4.565300 -1.170656 -3.785540
  H 5.015767 0.439231 -3.289898
 19
 8.738979
  C 1.054317 -0.072770 0.261754
  C 2.514369 -0.187514 0.119995
  C 3.357549 0.983428 0.429445
  H 2.766800 1.832088 0.757763
  C 3.091830 -1.375597 -0.274196
  C 4.462114 -1.570914 -0.623024
  C 5.136303 -1.010398 -1.653643
  C 4.505682 -0.253752 -2.747207
  H 3.459197 -0.038801 -2.550798
  H 6.200630 -1.174919 -1.748918
  H 0.777631 0.683051 0.991706
  H 0.586236 -1.023464 0.504424
  H 0.633031 0.245002 -0.696450
  H 3.946827 1.264407 -0.443849
  H 4.087166 0.739021 1.201460
  H 2.488704 -2.276449 -0.247676
  H 4.973616 -2.318839 -0.022757
  H 4.569437 -0.833916 -3.670032
  H 5.067641 0.659945 -2.941031
 19
 6.559239
  C 1.043654 -0.094185 0.214346
  C 2.503249 -0.212497 0.070386
  C 3.319799 1.000885 0.275778
  H 2.754931 1.774702 0.786389
  C 3.081092 -1.437736 -0.209484
  C 4.412035 -1.679459 -0.618616
  C 5.137098 -1.010519 -1.559829
  C 4.585038 -0.144744 -2.606409
  H 3.521509 0.036179 -2.490056
  H 6.200108 -1.200918 -1.629958
  H 0.768883 0.656514 0.950833
  H 0.568741 -1.043332 0.447539
  H 0.627522 0.244001 -0.739125
  H 3.643463 1.409594 -0.681030
  H 4.225652 0.778775 0.835263
  H 2.490606 -2.323530 -0.006393
  H 4.873681 -2.554231 -0.170771
  H 4.746441 -0.631673 -3.571854
  H 5.149046 0.786522 -2.666905
 19
 5.120111
  C 1.018271 -0.111418 0.243397
  C 2.472384 -0.212579 0.033366
  C 3.261027 1.031030 0.117014
  H 2.823623 1.716109 0.839828
  C 3.046043 -1.451791 -0.195577
  C 4.358312 -1.742181 -0.618157
  C 5.148475 -1.070097 -1.511024
  C 4.699962 -0.112571 -2.520955
  H 3.628619 0.049077 -2.505641
  H 6.194964 -1.342775 -1.558472
  H 0.773214 0.609830 1.019549
  H 0.559079 -1.070327 0.464514
  H 0.557523 0.267774 -0.673103
  H 3.235109 1.554039 -0.840110
  H 4.300766 0.841636 0.367526
  H 2.452261 -2.316647 0.075335
  H 4.761355 -2.670146 -0.224538
  H 4.991246 -0.484869 -3.505851
  H 5.245137 0.826744 -2.412808
 19
 4.313780
  C 1.019946 -0.064777 0.111538
  C 2.483693 -0.188666 -0.006898
  C 3.274618 1.048281 0.113541
  H 3.042234 1.530413 1.063822
  C 3.063377 -1.436174 -0.155722
  C 4.380798 -1.733733 -0.556010
  C 5.158764 -1.069277 -1.465030
  C 4.689662 -0.127404 -2.481464
  H 3.618123 0.035838 -2.442903
  H 6.209340 -1.324319 -1.513051
  H 0.742445 0.624112 0.907437
  H 0.530324 -1.022187 0.259541
  H 0.625186 0.372134 -0.809233
  H 2.981588 1.768885 -0.650501
  H 4.342668 0.867152 0.066819
  H 2.465061 -2.291377 0.134978
  H 4.792946 -2.644283 -0.133946
  H 4.958582 -0.516006 -3.467038
  H 5.233793 0.815224 -2.402650
 19
 6.684368
  C 1.091986 0.038797 -0.070443
  C 2.546626 -0.191075 -0.009789
  C 3.389024 0.993606 0.244694
  H 3.067249 1.456282 1.178984
  C 3.090017 -1.461433 -0.101050
  C 4.401226 -1.733128 -0.528829
  C 5.099032 -0.969214 -1.428109
  C 4.488406 -0.163433 -2.488699
  H 3.404650 -0.152949 -2.436847
  H 6.181470 -1.005911 -1.457316
  H 0.759396 0.707294 0.720940
  H 0.522762 -0.886173 -0.039049
  H 0.857717 0.547212 -1.007338
  H 3.237179 1.755865 -0.519480
  H 4.443025 0.748643 0.321892
  H 2.490621 -2.297960 0.234086
  H 4.867128 -2.636496 -0.153414
  H 4.790825 -0.590489 -3.448222
  H 4.893998 0.848521 -2.495944
 19
 15.929684
  C 1.214789 0.149464 -0.226232
  C 2.635332 -0.155797 0.011796
  C 3.493774 0.960922 0.448554
  H 3.060683 1.387337 1.353737
  C 3.130669 -1.461631 -0.026302
  C 4.390868 -1.722259 -0.552428
  C 4.980350 -0.841286 -1.444373
  C 4.275974 -0.248127 -2.582866
  H 3.207370 -0.432739 -2.558549
  H 6.047948 -0.658773 -1.425122
  H 0.800543 0.796470 0.545458
  H 0.608248 -0.746290 -0.323523
  H 1.141061 0.716025 -1.155946
  H 3.498082 1.775074 -0.276474
  H 4.512528 0.649694 0.657662
  H 2.542341 -2.257376 0.410621
  H 4.906068 -2.640065 -0.299869
  H 4.690657 -0.705499 -3.486348
  H 4.488985 0.816438 -2.686449
 19
 29.449290
  C 1.387283 0.243042 -0.381553
  C 2.752125 -0.110346 0.028009
  C 3.580456 0.944778 0.634674
  H 3.046742 1.332144 1.506380
  C 3.179135 -1.471885 0.062564
  C 4.348201 -1.726326 -0.581286
  C 4.790024 -0.701287 -1.457493
  C 4.072164 -0.320736 -2.671548
  H 3.052286 -0.693415 -2.695860
  H 5.804045 -0.325374 -1.373643
  H 0.898003 0.887789 0.347400
  H 0.773318 -0.634145 -0.572677
  H 1.440707 0.834690 -1.298235
  H 3.701805 1.803304 -0.027600
  H 4.552083 0.583055 0.954224
  H 2.600449 -2.209757 0.598406
  H 4.915930 -2.640005 -0.473017
  H 4.618620 -0.763479 -3.511697
  H 4.105914 0.754730 -2.851881
 19
 34.262554
  C 1.577868 0.286903 -0.557430
  C 2.888366 -0.096060 -0.007519
  C 3.676026 0.935652 0.699348
  H 3.067183 1.333740 1.516691
  C 3.221424 -1.514072 0.147602
  C 4.300057 -1.760689 -0.592091
  C 4.553548 -0.570181 -1.393187
  C 3.868132 -0.315188 -2.659873
  H 2.925114 -0.846307 -2.749677
  H 5.484478 -0.034759 -1.237772
  H 1.053208 0.948982 0.131479
  H 0.961535 -0.579440 -0.779514
  H 1.697530 0.869135 -1.472592
  H 3.888962 1.793469 0.062406
  H 4.596409 0.542879 1.120499
  H 2.653124 -2.192791 0.761927
  H 4.916509 -2.644576 -0.613353
  H 4.529535 -0.677691 -3.457587
  H 3.749967 0.750036 -2.853605
 19
 28.073748
  C 1.691034 0.325427 -0.643188
  C 3.014685 -0.068642 -0.086111
  C 3.720609 0.964840 0.735748
  H 3.043600 1.285230 1.532211
  C 3.265807 -1.505600 0.187355
  C 4.273965 -1.770908 -0.635866
  C 4.337929 -0.460974 -1.319467
  C 3.792045 -0.332652 -2.687755
  H 2.935536 -0.976783 -2.862741
  H 5.191493 0.173442 -1.105364
  H 1.156529 0.946854 0.074754
  H 1.083736 -0.540871 -0.889614
  H 1.795143 0.941580 -1.533693
  H 3.944548 1.859148 0.158022
  H 4.625004 0.576384 1.194599
  H 2.681162 -2.141520 0.829724
  H 4.879755 -2.643997 -0.787436
  H 4.583479 -0.653392 -3.376598
  H 3.568694 0.699311 -2.945020
 19
 23.706272
  C 1.724067 0.302560 -0.653936
  C 3.123283 0.002437 -0.183753
  C 3.668743 1.032353 0.780540
  H 2.906597 1.316939 1.506368
  C 3.328803 -1.451600 0.164856
  C 4.319449 -1.748085 -0.663419
  C 4.220464 -0.385341 -1.297262
  C 3.803115 -0.361887 -2.733724
  H 2.928836 -0.982048 -2.916404
  H 5.105466 0.222013 -1.099897
  H 1.121164 0.726971 0.143487
  H 1.227308 -0.579208 -1.053672
  H 1.761574 1.049887 -1.448335
  H 3.963209 1.940726 0.255186
  H 4.538858 0.648201 1.308286
  H 2.649396 -2.046028 0.761172
  H 4.927045 -2.603671 -0.880242
  H 4.610492 -0.771348 -3.341531
  H 3.587122 0.654003 -3.062118
