19
 0
 C -3.67821567 -0.56580305 -0.11714074
 C -2.20463343 -0.87453122 -0.35230850
 C -1.96978219 -1.22810366 -1.81995251
 C -1.21582275 0.21438217 0.06761510
 C -1.69286894 1.56359038 0.54096270
 O 0.00000000 0.00000000 0.00000000
 H -4.30050658 -1.42754169 -0.38238045
 H -4.01381645 0.28351485 -0.72210154
 H -3.86969265 -0.33513246 0.93604375
 H -1.95672176 -1.75000757 0.26214886
 H -2.17050931 -0.36982923 -2.47050200
 H -2.61716858 -2.05452944 -2.13206139
 H -0.93250967 -1.53595242 -1.99126526
 H -2.77538205 1.63508457 0.62878141
 H -1.35573568 2.32669500 -0.16562907
 H -1.26411023 1.75906062 1.52817978
 O 3.35285372 -0.16801368 -0.05299077
 H 2.40000000 0.00000000 0.00000000
 H 3.56154846 -0.59992821 0.78894270
