 17
 0.000000
  C 0.996384 0.132972 0.381868
  C 2.475139 0.140018 0.399085
  C 3.241227 0.613797 1.578372
  H 2.683154 0.954049 2.425534
  C 3.096863 -0.322475 -0.752613
  C 4.472906 -0.413204 -0.978851
  C 5.132414 -0.867699 -2.111643
  H 4.763744 -1.241749 -3.043882
  O 6.457488 -0.870547 -2.119086
  H 0.547238 0.500715 1.297563
  H 0.632250 -0.881396 0.212641
  H 0.631990 0.748397 -0.441931
  H 3.897288 1.429656 1.253616
  H 3.897458 -0.199872 1.908184
  H 2.436796 -0.639606 -1.542199
  H 5.100515 -0.083792 -0.158214
  H 6.834017 -0.535875 -1.285013
 17
 0.000000
  C 1.049505 0.119874 0.349236
  C 2.528197 0.128587 0.370610
  C 3.290432 0.603229 1.552044
  H 2.729596 0.942851 2.397633
  C 3.127431 -0.328429 -0.767444
  C 4.433301 -0.414238 -0.981427
  C 5.064079 -0.851008 -2.070056
  H 4.713620 -1.227480 -3.008329
  O 6.321061 -0.835818 -2.032568
  H 0.597372 0.487110 1.263664
  H 0.686992 -0.894904 0.178988
  H 0.686734 0.734888 -0.475586
  H 3.946483 1.419828 1.229132
  H 3.946651 -0.209699 1.883702
  H 2.463402 -0.644410 -1.554164
  H 5.061537 -0.084987 -0.161205
  H 6.650477 -0.482004 -1.150797
 17
 0.000000
  C 1.103250 0.107007 0.317179
  C 2.581845 0.117786 0.343703
  C 3.339297 0.593492 1.527784
  H 2.775045 0.932329 2.371413
  C 3.161265 -0.335371 -0.784736
  C 4.395884 -0.416431 -0.986892
  C 4.999505 -0.835426 -2.031233
  H 4.668816 -1.214375 -2.975672
  O 6.186557 -0.803300 -1.951558
  H 0.647422 0.473609 1.230025
  H 0.742751 -0.908277 0.145673
  H 0.742496 0.721514 -0.508904
  H 3.995327 1.411007 1.207156
  H 3.995492 -0.218519 1.861728
  H 2.493128 -0.650148 -1.568456
  H 5.024518 -0.087281 -0.166934
  H 6.462609 -0.428129 -1.016567
 17
 0.000000
  C 1.157118 0.094527 0.286087
  C 2.635572 0.107753 0.318708
  C 3.387347 0.584708 1.505900
  H 2.819062 0.922609 2.347195
  C 3.198103 -0.343269 -0.804408
  C 4.361348 -0.419649 -0.994910
  C 4.939530 -0.820977 -1.995232
  H 4.629962 -1.202397 -2.945823
  O 6.055626 -0.773378 -1.877018
  H 0.696924 0.460373 1.197044
  H 0.799009 -0.921351 0.113100
  H 0.798757 0.708439 -0.541480
  H 4.043341 1.403308 1.187976
  H 4.043503 -0.226217 1.842551
  H 2.525919 -0.656848 -1.585141
  H 4.989994 -0.090497 -0.174963
  H 6.270991 -0.375211 -0.884725
 17
 0.000000
  C 1.210422 0.082702 0.256623
  C 2.688678 0.098735 0.296241
  C 3.433919 0.577113 1.486977
  H 2.861017 0.913931 2.325571
  C 3.237719 -0.352215 -0.826691
  C 4.330403 -0.423950 -1.005625
  C 4.885119 -0.807900 -1.962648
  H 4.597898 -1.191742 -2.919270
  O 5.930257 -0.746498 -1.810052
  H 0.745227 0.447670 1.165391
  H 0.855065 -0.933854 0.081949
  H 0.854816 0.695935 -0.572634
  H 4.089854 1.396959 1.172157
  H 4.090013 -0.232566 1.826734
  H 2.561700 -0.664648 -1.604567
  H 4.958526 -0.094654 -0.185335
  H 6.076864 -0.323969 -0.757054
 17
 0.000000
  C 1.262912 0.071791 0.229437
  C 2.740896 0.091023 0.277030
  C 3.478665 0.571008 1.471767
  H 2.900519 0.906581 2.307256
  C 3.280529 -0.362617 -0.852599
  C 4.303457 -0.429667 -1.019867
  C 4.836738 -0.796484 -1.934201
  H 4.573376 -1.182698 -2.896728
  O 5.811087 -0.722870 -1.751190
  H 0.792032 0.435747 1.135681
  H 0.910704 -0.945531 0.052856
  H 0.910459 0.684256 -0.601730
  H 4.134513 1.392274 1.160484
  H 4.134669 -0.237250 1.815063
  H 2.600981 -0.673986 -1.627824
  H 4.930326 -0.100032 -0.198753
  H 5.879010 -0.274173 -0.632987
 17
 0.000000
  C 1.313842 0.062208 0.205561
  C 2.791460 0.085043 0.262130
  C 3.520787 0.566817 1.461323
  H 2.936760 0.900974 2.293283
  C 3.326756 -0.374917 -0.883234
  C 4.281302 -0.437188 -1.038603
  C 4.795389 -0.787167 -1.910982
  H 4.557564 -1.175680 -2.879230
  O 5.699841 -0.702928 -1.701512
  H 0.836580 0.425011 1.108925
  H 0.965193 -0.955968 0.026851
  H 0.964952 0.673818 -0.627738
  H 4.176510 1.389681 1.154023
  H 4.176662 -0.239842 1.808604
  H 2.644172 -0.685363 -1.656158
  H 4.905914 -0.106951 -0.216011
  H 5.677402 -0.225927 -0.512780
 17
 0.000000
  C 1.362177 0.054470 0.186276
  C 2.839312 0.081305 0.252815
  C 3.559224 0.565043 1.456898
  H 2.968693 0.897610 2.284895
  C 3.376573 -0.389613 -0.919835
  C 4.264912 -0.446969 -1.062967
  C 4.762294 -0.780465 -1.894277
  H 4.551817 -1.171167 -2.867973
  O 5.598706 -0.687155 -1.662217
  H 0.877848 0.415971 1.086395
  H 1.017499 -0.964645 0.005227
  H 1.017263 0.665140 -0.649365
  H 4.214775 1.389682 1.154022
  H 4.214924 -0.239840 1.808605
  H 2.691700 -0.699359 -1.691013
  H 4.885922 -0.115782 -0.238031
  H 5.472388 -0.179364 -0.396768
 17
 0.000000
  C 1.406922 0.049159 0.173038
  C 2.883439 0.080382 0.250512
  C 3.592975 0.566245 1.459887
  H 2.995344 0.897046 2.283486
  C 3.430365 -0.407315 -0.963924
  C 4.255178 -0.459572 -1.094360
  C 4.738421 -0.776885 -1.885350
  H 4.557355 -1.169633 -2.864132
  O 5.509356 -0.675926 -1.634240
  H 0.914870 0.409211 1.069543
  H 1.066624 -0.970974 -0.010546
  H 1.066391 0.658810 -0.665141
  H 4.248297 1.392832 1.161863
  H 4.248443 -0.236689 1.816447
  H 2.744230 -0.716675 -1.734134
  H 4.870839 -0.126992 -0.265980
  H 5.263005 -0.134290 -0.284465
 17
 0.000000
  C 1.446230 0.046773 0.167083
  C 2.921995 0.082603 0.256038
  C 3.620585 0.570664 1.470889
  H 3.015536 0.899588 2.289812
  C 3.486816 -0.427797 -1.014936
  C 4.252821 -0.474885 -1.132501
  C 4.724684 -0.776639 -1.884725
  H 4.574381 -1.171188 -2.867987
  O 5.435030 -0.669439 -1.618076
  H 0.946099 0.405277 1.059730
  H 1.110555 -0.974416 -0.019129
  H 1.110328 0.655367 -0.673727
  H 4.275620 1.399298 1.177961
  H 4.275763 -0.230223 1.832547
  H 2.800747 -0.737179 -1.785197
  H 4.861196 -0.140439 -0.299500
  H 5.054048 -0.091742 -0.178456
 17
 0.000000
  C 1.479297 0.047570 0.169058
  C 2.954179 0.088145 0.269837
  C 3.641437 0.578436 1.490241
  H 3.028790 0.905401 2.304284
  C 3.545526 -0.450972 -1.072657
  C 4.257778 -0.492857 -1.177264
  C 4.720710 -0.779604 -1.892099
  H 4.602354 -1.175663 -2.879116
  O 5.375985 -0.667310 -1.612767
  H 0.970877 0.404453 1.057663
  H 1.148412 -0.974691 -0.019824
  H 1.148188 0.655091 -0.674425
  H 4.296129 1.409177 1.202561
  H 4.296270 -0.220344 1.857147
  H 2.861047 -0.760846 -1.844134
  H 4.856743 -0.156051 -0.338414
  H 4.845566 -0.051524 -0.078256
 17
 0.000000
  C 1.505800 0.051448 0.178708
  C 2.979683 0.096790 0.291362
  C 3.655499 0.589285 1.517255
  H 3.035262 0.914257 2.326334
  C 3.605441 -0.476042 -1.135097
  C 4.269113 -0.512769 -1.226860
  C 4.725009 -0.785017 -1.905570
  H 4.639337 -1.182243 -2.895485
  O 5.331144 -0.668543 -1.615831
  H 0.989088 0.406674 1.063183
  H 1.179753 -0.971874 -0.012820
  H 1.179534 0.657906 -0.667424
  H 4.309797 1.422143 1.234847
  H 4.309936 -0.207377 1.889435
  H 2.924139 -0.786890 -1.908991
  H 4.856576 -0.173153 -0.381037
  H 4.638376 -0.013692 0.016000
 17
 0.000000
  C 1.514000 0.052452 0.181203
  C 2.987378 0.100027 0.299421
  C 3.657814 0.593543 1.527855
  H 3.034034 0.917573 2.334585
  C 3.626010 -0.481631 -1.149016
  C 4.278330 -0.516580 -1.236351
  C 4.734173 -0.784873 -1.905207
  H 4.659108 -1.182399 -2.895864
  O 5.328058 -0.666986 -1.611950
  H 0.993416 0.406893 1.063720
  H 1.190231 -0.971363 -0.011550
  H 1.190013 0.658416 -0.666157
  H 4.311910 1.427392 1.247916
  H 4.312047 -0.202127 1.902505
  H 2.947379 -0.793290 -1.924927
  H 4.860702 -0.175746 -0.387502
  H 4.588406 -0.002701 0.043381
 17
 0.000000
  C 1.545117 0.064965 0.212355
  C 3.016555 0.120248 0.349775
  C 3.668320 0.617227 1.586828
  H 3.032386 0.937957 2.385342
  C 3.726741 -0.525866 -1.259191
  C 4.300090 -0.551976 -1.324509
  C 4.743173 -0.794279 -1.928611
  H 4.727957 -1.192736 -2.921578
  O 5.260796 -0.671322 -1.622730
  H 1.011220 0.416647 1.087993
  H 1.229253 -0.960524 0.015433
  H 1.229040 0.669253 -0.639178
  H 4.321634 1.454499 1.315413
  H 4.321769 -0.175019 1.970005
  H 3.057173 -0.840241 -2.041851
  H 4.857124 -0.205299 -0.461152
  H 4.201335 0.056675 0.191309
