 24
 0.000000
  C 0.816183 0.046771 0.306835
  C 2.305915 0.057585 0.115133
  C 3.199575 -0.011808 1.345000
  C 2.535571 -0.089226 2.716945
  C 3.585315 -0.151541 3.821330
  C 2.912082 0.124335 -1.067791
  C 2.388783 0.203846 -2.476882
  C 0.891308 0.219916 -2.761625
  H 0.730657 0.280392 -3.833405
  H 3.995277 0.124363 -1.068241
  H 0.536631 -0.012303 1.353692
  H 0.370040 -0.814135 -0.184947
  H 0.370042 0.957538 -0.084973
  H 3.848153 0.869972 1.341688
  H 3.848157 -0.887619 1.242511
  H 1.906957 -0.980130 2.782932
  H 1.906946 0.788600 2.882741
  H 4.218040 -1.028775 3.703645
  H 3.105336 -0.206554 4.796211
  H 4.218039 0.733372 3.803072
  H 2.819825 -0.644216 -3.023146
  H 2.819822 1.107972 -2.924269
  H 0.411721 1.079683 -2.302132
  H 0.411721 -0.686087 -2.401771
 24
 13.882866
  C 0.791540 0.043783 0.359796
  C 2.275001 0.054585 0.168296
  C 3.181248 -0.013765 1.379687
  C 2.533488 -0.091598 2.758980
  C 3.597192 -0.153150 3.849870
  C 2.944449 0.129593 -1.160964
  C 2.407455 0.208247 -2.554878
  C 0.905208 0.222581 -2.808865
  H 0.722875 0.282977 -3.879224
  H 4.024945 0.129798 -1.164571
  H 0.515384 -0.015305 1.406906
  H 0.344480 -0.816864 -0.133914
  H 0.344482 0.954509 -0.033958
  H 3.829900 0.868323 1.367506
  H 3.829903 -0.888885 1.268351
  H 1.906404 -0.983089 2.832446
  H 1.906396 0.785968 2.932272
  H 4.229040 -1.029869 3.723659
  H 3.130035 -0.208513 4.830955
  H 4.229035 0.732204 3.823083
  H 2.831528 -0.639835 -3.107425
  H 2.831528 1.113103 -3.008509
  H 0.434255 1.081652 -2.339342
  H 0.434254 -0.683858 -2.438964
 24
 40.203956
  C 0.741596 0.044295 0.350717
  C 2.225692 0.050604 0.238865
  C 3.167387 -0.015017 1.401845
  C 2.538707 -0.093551 2.793571
  C 3.620826 -0.154123 3.867149
  C 2.988531 0.133003 -1.221381
  C 2.430514 0.211353 -2.609902
  C 0.917284 0.222053 -2.799475
  H 0.687781 0.282033 -3.862461
  H 4.065248 0.129290 -1.155571
  H 0.429179 -0.014472 1.392156
  H 0.310615 -0.807849 -0.172567
  H 0.310619 0.949902 -0.073378
  H 3.821351 0.865790 1.366808
  H 3.821357 -0.886288 1.267944
  H 1.912562 -0.985256 2.871066
  H 1.912562 0.783763 2.970885
  H 4.251666 -1.029417 3.727247
  H 3.172697 -0.209985 4.857204
  H 4.251651 0.731349 3.826599
  H 2.846249 -0.635897 -3.178218
  H 2.846247 1.117151 -3.079297
  H 0.468536 1.078013 -2.309610
  H 0.468528 -0.683587 -2.409009
 24
 70.515281
  C 0.720061 0.040833 0.412074
  C 2.195117 0.047686 0.290580
  C 3.159547 -0.016678 1.431294
  C 2.540197 -0.095309 2.824737
  C 3.625206 -0.155602 3.893347
  C 3.015976 0.138500 -1.318784
  C 2.445987 0.215617 -2.685457
  C 0.933874 0.224966 -2.851101
  H 0.687488 0.284657 -3.908965
  H 4.088093 0.134093 -1.240656
  H 0.424137 -0.018128 1.456938
  H 0.282506 -0.810854 -0.106467
  H 0.282509 0.945451 -0.007360
  H 3.812248 0.862423 1.391594
  H 3.812257 -0.885733 1.292949
  H 1.914355 -0.986761 2.903935
  H 1.914349 0.781570 3.003715
  H 4.255558 -1.030881 3.750555
  H 3.181415 -0.211551 4.884935
  H 4.255542 0.730177 3.849922
  H 2.852908 -0.628551 -3.258222
  H 2.852901 1.118849 -3.159615
  H 0.492541 1.083106 -2.352502
  H 0.492535 -0.683822 -2.452202
 24
 99.840232
  C 0.693727 0.038547 0.452587
  C 2.166820 0.044534 0.346445
  C 3.148845 -0.018361 1.461102
  C 2.541460 -0.097533 2.864148
  C 3.635946 -0.157352 3.924359
  C 3.055022 0.143490 -1.407202
  C 2.462912 0.220054 -2.764090
  C 0.943403 0.227167 -2.890103
  H 0.666219 0.286486 -3.941376
  H 4.126251 0.137917 -1.308411
  H 0.393517 -0.020470 1.498451
  H 0.256667 -0.813304 -0.070929
  H 0.256670 0.943887 0.028228
  H 3.802622 0.862164 1.414202
  H 3.802629 -0.888019 1.315441
  H 1.916186 -0.989464 2.948048
  H 1.916188 0.779286 3.047850
  H 4.265464 -1.032388 3.775966
  H 3.200803 -0.213533 4.920060
  H 4.265458 0.728822 3.875344
  H 2.859221 -0.626912 -3.349270
  H 2.859215 1.127463 -3.250267
  H 0.516440 1.083455 -2.378953
  H 0.516434 -0.681195 -2.478525
 24
 125.684535
  C 0.666823 0.036175 0.494621
  C 2.136312 0.041500 0.400206
  C 3.136077 -0.020143 1.492685
  C 2.543205 -0.099691 2.902404
  C 3.646835 -0.158892 3.951626
  C 3.089546 0.148662 -1.498867
  C 2.479165 0.224359 -2.840390
  C 0.959324 0.229345 -2.928736
  H 0.654364 0.288177 -3.971375
  H 4.157201 0.142152 -1.383466
  H 0.362898 -0.022821 1.540111
  H 0.231034 -0.814010 -0.031508
  H 0.231037 0.940155 0.067478
  H 3.789274 0.859911 1.439024
  H 3.789283 -0.888574 1.340358
  H 1.919189 -0.991369 2.991001
  H 1.919180 0.776360 3.090747
  H 4.275245 -1.033547 3.797193
  H 3.221168 -0.215287 4.951115
  H 4.275236 0.727577 3.896567
  H 2.862309 -0.620807 -3.433909
  H 2.862305 1.130924 -3.335060
  H 0.545761 1.085665 -2.405028
  H 0.545755 -0.680463 -2.504682
 24
 147.645780
  C 0.641758 0.033745 0.537674
  C 2.107923 0.038401 0.455099
  C 3.122413 -0.021945 1.524608
  C 2.543884 -0.101982 2.943013
  C 3.658271 -0.160569 3.981386
  C 3.125780 0.153781 -1.589576
  C 2.496169 0.228806 -2.919176
  C 0.972030 0.231616 -2.968943
  H 0.637818 0.289979 -4.003284
  H 4.191563 0.146425 -1.459183
  H 0.332166 -0.025254 1.583263
  H 0.207095 -0.816741 0.007521
  H 0.207100 0.938476 0.106566
  H 3.775573 0.858988 1.463552
  H 3.775581 -0.890416 1.364837
  H 1.920662 -0.994146 3.036609
  H 1.920667 0.773976 3.136370
  H 4.285651 -1.034994 3.820657
  H 3.242485 -0.217209 4.985244
  H 4.285645 0.726380 3.920043
  H 2.866805 -0.617887 -3.523065
  H 2.866797 1.138049 -3.423975
  H 0.572669 1.086902 -2.433068
  H 0.572662 -0.678538 -2.532681
 24
 165.591402
  C 0.614869 0.031218 0.582418
  C 2.078205 0.035341 0.509295
  C 3.107765 -0.023856 1.558442
  C 2.545291 -0.104338 2.984766
  C 3.670550 -0.162197 4.010229
  C 3.158609 0.158995 -1.681980
  C 2.512518 0.233265 -2.998226
  C 0.988379 0.233988 -3.011022
  H 0.627224 0.291801 -4.035640
  H 4.221938 0.150996 -1.540206
  H 0.299678 -0.027730 1.627108
  H 0.181766 -0.818510 0.049535
  H 0.181771 0.935504 0.148512
  H 3.760195 0.857403 1.490063
  H 3.760202 -0.891828 1.391357
  H 1.923516 -0.996395 3.083732
  H 1.923516 0.770918 3.183448
  H 4.296543 -1.036163 3.842678
  H 3.265658 -0.219077 5.018337
  H 4.296538 0.725065 3.942054
  H 2.869621 -0.612957 -3.610245
  H 2.869618 1.142964 -3.511162
  H 0.602821 1.088667 -2.463641
  H 0.602822 -0.676842 -2.563266
 24
 179.458687
  C 0.592985 0.027750 0.643900
  C 2.050966 0.032380 0.561726
  C 3.084469 -0.025908 1.594791
  C 2.543565 -0.107152 3.034627
  C 3.684179 -0.164119 4.044294
  C 3.185051 0.164555 -1.780412
  C 2.530682 0.238212 -3.085862
  C 1.005062 0.237268 -3.069121
  H 0.621849 0.294662 -4.086296
  H 4.252874 0.156750 -1.642160
  H 0.272293 -0.031349 1.691252
  H 0.161665 -0.821100 0.109471
  H 0.161672 0.931340 0.208361
  H 3.734287 0.854847 1.516080
  H 3.734293 -0.892215 1.417498
  H 1.923597 -0.999849 3.141793
  H 1.923593 0.767821 3.241532
  H 4.308543 -1.037753 3.867848
  H 3.293901 -0.221344 5.058503
  H 4.308533 0.723811 3.967242
  H 2.877677 -0.608527 -3.704097
  H 2.877674 1.149120 -3.604915
  H 0.630653 1.091207 -2.512233
  H 0.630646 -0.673913 -2.611823
 24
 173.523767
  C 0.573891 0.015551 0.861511
  C 2.008750 0.030570 0.594467
  C 2.975059 -0.030689 1.679814
  C 2.521691 -0.114065 3.157979
  C 3.724033 -0.167732 4.108452
  C 3.142352 0.172636 -1.923422
  C 2.580709 0.248618 -3.270943
  C 1.044147 0.249935 -3.292448
  H 0.668188 0.307361 -4.309892
  H 4.248579 0.171612 -1.907155
  H 0.261938 -0.044443 1.917341
  H 0.149777 -0.843558 0.339138
  H 0.149380 0.927671 0.438842
  H 3.613952 0.850391 1.574368
  H 3.613901 -0.894371 1.475932
  H 1.916422 -1.008964 3.311861
  H 1.916471 0.757897 3.411549
  H 4.340501 -1.040312 3.899460
  H 3.394684 -0.226146 5.143998
  H 4.340589 0.722801 3.998933
  H 2.953913 -0.587622 -3.882633
  H 2.953997 1.148316 -3.784694
  H 0.666116 1.097075 -2.721671
  H 0.665987 -0.655940 -2.820540
 24
 168.073453
  C 0.497030 0.001902 1.103034
  C 1.928113 0.021216 0.761066
  C 2.918411 -0.039870 1.843298
  C 2.524838 -0.123458 3.323469
  C 3.757905 -0.173894 4.217832
  C 3.202831 0.188162 -2.191432
  C 2.607349 0.262806 -3.524810
  C 1.082234 0.263069 -3.528620
  H 0.695291 0.320434 -4.544698
  H 4.304911 0.193102 -2.290525
  H 0.204237 -0.057535 2.156432
  H 0.061333 -0.832407 0.549385
  H 0.061407 0.893172 0.646814
  H 3.560447 0.834147 1.672801
  H 3.560553 -0.889094 1.575503
  H 1.921916 -1.019200 3.491407
  H 1.921990 0.747450 3.591089
  H 4.367380 -1.044147 3.980500
  H 3.472501 -0.233095 5.266444
  H 4.367201 0.717454 4.079973
  H 2.993546 -0.573046 -4.127837
  H 2.993649 1.161419 -4.029503
  H 0.709889 1.111796 -2.960974
  H 0.710064 -0.643792 -3.060399
