 32
 0.000000
  C 0.986964 0.138002 0.377890
  C 2.464716 0.142258 0.392920
  C 3.239071 0.610428 1.569499
  C 2.450119 1.095982 2.782766
  C 3.388304 1.540417 3.900261
  C 3.089247 -0.318443 -0.757540
  C 4.468218 -0.406418 -0.972231
  C 5.129709 -0.861254 -2.101753
  C 4.615906 -1.384960 -3.400148
  C 3.123001 -1.502306 -3.685582
  C 2.890082 -2.066402 -5.084408
  O 6.455025 -0.860968 -2.112743
  H 0.538984 0.502146 1.295722
  H 0.620825 -0.874858 0.203927
  H 0.621458 0.757173 -0.442975
  H 3.896692 1.424302 1.243233
  H 3.893971 -0.206319 1.893973
  H 1.810094 0.296847 3.162115
  H 1.812829 1.938549 2.506884
  H 4.022891 0.719297 4.227669
  H 2.814041 1.883637 4.757853
  H 4.025608 2.359520 3.573033
  H 2.434029 -0.635199 -1.550905
  H 5.091005 -0.076457 -0.148876
  H 5.067793 -2.375303 -3.528580
  H 5.065248 -0.759014 -4.179744
  H 2.648348 -0.521538 -3.631928
  H 2.650833 -2.172941 -2.966233
  H 3.324370 -1.420512 -5.844486
  H 1.823431 -2.147048 -5.280593
  H 3.326820 -3.057716 -5.184680
  H 6.841092 -0.527652 -1.281220
 32
 2.789445
  C 1.073618 0.097262 0.301730
  C 2.534799 0.094960 0.429855
  C 3.277344 0.598698 1.630558
  C 2.436341 1.108256 2.796166
  C 3.327443 1.580149 3.938705
  C 3.170053 -0.373165 -0.708814
  C 4.519122 -0.420678 -0.936048
  C 5.109593 -0.853589 -2.104013
  C 4.550114 -1.365050 -3.393916
  C 3.058531 -1.493167 -3.670928
  C 2.845636 -2.041706 -5.079561
  O 6.428558 -0.862634 -2.170635
  H 0.535483 0.549322 1.136691
  H 0.697205 -0.925318 0.147737
  H 0.883072 0.624880 -0.626396
  H 3.951043 1.399889 1.311880
  H 3.925788 -0.203828 1.995701
  H 1.784057 0.313862 3.163535
  H 1.811195 1.942340 2.472185
  H 3.949473 0.768268 4.308288
  H 2.722858 1.942080 4.765954
  H 3.975603 2.391897 3.616923
  H 2.523500 -0.701731 -1.501053
  H 5.187528 -0.093201 -0.142889
  H 5.012333 -2.346963 -3.541485
  H 4.990273 -0.730998 -4.170960
  H 2.572979 -0.518933 -3.608604
  H 2.595445 -2.183071 -2.965208
  H 3.278256 -1.379385 -5.825334
  H 1.784151 -2.137976 -5.290462
  H 3.300869 -3.022976 -5.188402
  H 6.875098 -0.533637 -1.375940
 32
 7.017728
  C 1.200419 0.030470 0.210193
  C 2.644153 0.008385 0.484774
  C 3.305276 0.559811 1.681893
  C 2.382055 1.122566 2.768570
  C 3.192067 1.647873 3.950296
  C 3.322915 -0.480042 -0.614389
  C 4.669139 -0.474057 -0.894857
  C 5.149420 -0.865654 -2.129152
  C 4.502004 -1.336024 -3.387386
  C 2.997416 -1.458002 -3.602263
  C 2.731074 -1.954438 -5.022316
  O 6.467599 -0.894168 -2.303822
  H 0.595140 0.608889 0.896359
  H 0.811093 -0.984288 0.163007
  H 1.182289 0.403409 -0.832861
  H 4.007126 1.344891 1.363810
  H 3.935051 -0.229234 2.121592
  H 1.705361 0.344132 3.121551
  H 1.783202 1.938686 2.363958
  H 3.785583 0.855751 4.397875
  H 2.532025 2.045336 4.716098
  H 3.861847 2.444335 3.638871
  H 2.700959 -0.846486 -1.406040
  H 5.381680 -0.141884 -0.153819
  H 4.957841 -2.312794 -3.594591
  H 4.903278 -0.678133 -4.169547
  H 2.512065 -0.489078 -3.488432
  H 2.561761 -2.179376 -2.912163
  H 3.132241 -1.264130 -5.758973
  H 1.662741 -2.046893 -5.194350
  H 3.183998 -2.928210 -5.185373
  H 6.981249 -0.568440 -1.546297
 32
 14.299388
  C 1.359319 -0.048543 0.098636
  C 2.762534 -0.085800 0.523335
  C 3.334367 0.520365 1.736518
  C 2.337259 1.139555 2.708448
  C 3.050984 1.713791 3.926453
  C 3.490985 -0.612894 -0.520510
  C 4.811796 -0.534882 -0.856927
  C 5.180624 -0.879825 -2.144075
  C 4.451640 -1.308216 -3.372334
  C 2.937343 -1.424831 -3.516240
  C 2.602725 -1.841563 -4.949080
  O 6.485611 -0.905409 -2.411248
  H 0.717782 0.647885 0.625538
  H 0.916636 -1.045178 0.155566
  H 1.492995 0.171563 -0.978370
  H 4.064338 1.278979 1.436067
  H 3.918292 -0.243676 2.260663
  H 1.624819 0.385866 3.036812
  H 1.785545 1.937817 2.216946
  H 3.596253 0.937363 4.460381
  H 2.333004 2.153988 4.614986
  H 3.756013 2.490000 3.634029
  H 2.894222 -1.071065 -1.293404
  H 5.566644 -0.159717 -0.169645
  H 4.896434 -2.272203 -3.645734
  H 4.805682 -0.616859 -4.147300
  H 2.457171 -0.466352 -3.324251
  H 2.532973 -2.186623 -2.852198
  H 2.967176 -1.108355 -5.665236
  H 1.526079 -1.928427 -5.073822
  H 3.048842 -2.804055 -5.188856
  H 7.050276 -0.582175 -1.687704
 32
 24.010710
  C 1.502361 -0.093427 -0.007047
  C 2.854032 -0.201977 0.572272
  C 3.356838 0.446700 1.792709
  C 2.311268 1.160753 2.641642
  C 2.945512 1.770731 3.884029
  C 3.608884 -0.780726 -0.424692
  C 4.902948 -0.611284 -0.821499
  C 5.179288 -0.868921 -2.154413
  C 4.406288 -1.266161 -3.362618
  C 2.890872 -1.412254 -3.440509
  C 2.497050 -1.760597 -4.873226
  O 6.474856 -0.828419 -2.484129
  H 0.871214 0.690281 0.384887
  H 0.973277 -1.045949 0.062332
  H 1.818377 0.041557 -1.061981
  H 4.144307 1.154881 1.514772
  H 3.862683 -0.309116 2.403025
  H 1.536348 0.454652 2.945784
  H 1.838679 1.955465 2.061544
  H 3.406477 1.004988 4.501183
  H 2.195517 2.277044 4.482941
  H 3.706241 2.497470 3.614447
  H 3.038438 -1.303210 -1.175646
  H 5.671304 -0.197213 -0.187510
  H 4.862620 -2.202879 -3.700099
  H 4.706338 -0.532246 -4.119681
  H 2.400732 -0.476040 -3.176860
  H 2.531006 -2.216659 -2.801155
  H 2.811702 -0.983692 -5.565353
  H 1.418865 -1.865317 -4.951479
  H 2.950500 -2.698261 -5.183690
  H 7.055663 -0.489273 -1.787736
 32
 30.982668
  C 1.643044 0.004037 -0.161102
  C 2.873915 -0.352672 0.607607
  C 3.348479 0.282748 1.843081
  C 2.355309 1.210631 2.540243
  C 2.956274 1.778933 3.822701
  C 3.620568 -1.079666 -0.308446
  C 4.885962 -0.756344 -0.740209
  C 5.116211 -0.788572 -2.107115
  C 4.345292 -1.167393 -3.330440
  C 2.859588 -1.507544 -3.369931
  C 2.456152 -1.791257 -4.813682
  O 6.351509 -0.448078 -2.493094
  H 1.149831 0.914620 0.154226
  H 0.923377 -0.822693 -0.167251
  H 2.104024 0.076328 -1.173877
  H 4.272821 0.831586 1.628014
  H 3.651527 -0.510608 2.547315
  H 1.444890 0.657447 2.783917
  H 2.084724 2.040127 1.883294
  H 3.217824 0.983818 4.517518
  H 2.243765 2.436398 4.318545
  H 3.854224 2.356519 3.607977
  H 3.053853 -1.611997 -1.057686
  H 5.615254 -0.282592 -0.103462
  H 4.899074 -2.010838 -3.759695
  H 4.520746 -0.344968 -4.028249
  H 2.256936 -0.665878 -3.016946
  H 2.634454 -2.400188 -2.782619
  H 2.641161 -0.925666 -5.447439
  H 1.396981 -2.030532 -4.869621
  H 3.013522 -2.633233 -5.214986
  H 6.888380 -0.038336 -1.799507
 32
 35.693769
  C 1.830616 0.247304 -0.314209
  C 2.880690 -0.329468 0.567207
  C 3.307895 0.176624 1.870139
  C 2.444262 1.276402 2.482253
  C 2.962371 1.660863 3.865433
  C 3.573918 -1.176179 -0.288588
  C 4.815326 -0.774496 -0.748090
  C 5.008361 -0.622519 -2.108208
  C 4.259664 -1.065922 -3.326185
  C 2.862440 -1.670317 -3.326315
  C 2.458740 -1.982998 -4.762009
  O 6.152495 -0.058961 -2.514853
  H 1.491243 1.219029 0.012872
  H 0.972234 -0.411962 -0.427179
  H 2.383560 0.297244 -1.292367
  H 4.345442 0.522216 1.809517
  H 3.344719 -0.678811 2.562214
  H 1.416427 0.932581 2.570372
  H 2.455722 2.161112 1.847940
  H 2.943789 0.809765 4.539319
  H 2.344969 2.443044 4.297739
  H 3.982292 2.031009 3.809722
  H 2.974721 -1.731696 -0.992104
  H 5.513188 -0.279435 -0.079598
  H 4.928276 -1.789386 -3.806646
  H 4.270566 -0.202998 -3.999922
  H 2.129035 -0.977820 -2.921243
  H 2.837993 -2.601811 -2.765728
  H 2.452785 -1.082434 -5.368133
  H 1.462839 -2.413622 -4.787478
  H 3.143643 -2.692567 -5.213913
  H 6.708550 0.277745 -1.796233
 32
 42.898027
  C 1.994693 0.335787 -0.411125
  C 2.890009 -0.359107 0.550049
  C 3.259929 0.088196 1.887769
  C 2.564458 1.345631 2.401244
  C 2.980380 1.639144 3.839075
  C 3.534127 -1.295960 -0.257841
  C 4.777859 -0.874519 -0.715157
  C 4.886583 -0.530585 -2.056231
  C 4.149108 -0.946181 -3.296243
  C 2.896414 -1.818091 -3.303465
  C 2.471030 -2.067505 -4.748229
  O 5.923412 0.230603 -2.429047
  H 1.733108 1.334362 -0.078584
  H 1.077222 -0.219497 -0.611103
  H 2.624916 0.365003 -1.343503
  H 4.343136 0.213570 1.953801
  H 3.049303 -0.740602 2.572752
  H 1.482924 1.213748 2.363047
  H 2.828713 2.203386 1.778031
  H 2.707779 0.818242 4.500431
  H 2.486367 2.537015 4.200328
  H 4.056612 1.796471 3.909777
  H 2.911142 -1.825921 -0.967854
  H 5.475403 -0.414833 -0.029517
  H 4.911556 -1.473359 -3.889434
  H 3.950937 -0.023668 -3.855108
  H 2.067912 -1.334216 -2.798321
  H 3.098276 -2.783649 -2.842985
  H 2.252740 -1.138489 -5.251719
  H 1.584112 -2.681866 -4.777095
  H 3.247526 -2.576668 -5.300065
  H 6.494489 0.510644 -1.698029
 32
 52.132098
  C 2.130036 0.350218 -0.496311
  C 2.895751 -0.409099 0.521986
  C 3.219990 0.018416 1.879789
  C 2.668691 1.375164 2.327554
  C 3.007142 1.634697 3.789964
  C 3.517427 -1.406729 -0.234544
  C 4.752976 -0.937035 -0.687575
  C 4.770712 -0.456685 -1.987401
  C 4.041504 -0.845786 -3.244884
  C 2.922339 -1.877507 -3.280694
  C 2.492034 -2.103226 -4.733808
  O 5.728060 0.424418 -2.315119
  H 1.901375 1.354116 -0.166137
  H 1.203814 -0.133884 -0.790961
  H 2.846628 0.354307 -1.377062
  H 4.306833 -0.019462 2.036644
  H 2.834819 -0.756316 2.549059
  H 1.586014 1.396001 2.205616
  H 3.098866 2.171534 1.722103
  H 2.569064 0.875822 4.432305
  H 2.619669 2.602879 4.102817
  H 4.082148 1.637296 3.946397
  H 2.895917 -1.940622 -0.948980
  H 5.445072 -0.486395 0.011730
  H 4.840037 -1.214146 -3.902704
  H 3.701046 0.079152 -3.717679
  H 2.044557 -1.536556 -2.729262
  H 3.268875 -2.829125 -2.875821
  H 2.136582 -1.180797 -5.180186
  H 1.693421 -2.829474 -4.780582
  H 3.313636 -2.472793 -5.330218
  H 6.317497 0.660825 -1.585509
 32
 62.522845
  C 2.219590 0.355157 -0.536517
  C 2.893203 -0.432154 0.514245
  C 3.191739 -0.016599 1.876100
  C 2.745101 1.391733 2.294698
  C 3.046894 1.633867 3.768607
  C 3.493571 -1.476777 -0.211550
  C 4.721890 -0.982848 -0.668478
  C 4.665948 -0.404753 -1.938592
  C 3.964275 -0.789098 -3.216550
  C 2.939478 -1.911390 -3.295986
  C 2.538936 -2.129772 -4.761136
  O 5.572779 0.541640 -2.235995
  H 2.010540 1.367836 -0.215329
  H 1.294377 -0.088440 -0.911185
  H 3.025275 0.318576 -1.376435
  H 4.257502 -0.157819 2.083320
  H 2.703661 -0.747775 2.529290
  H 1.673283 1.510525 2.129006
  H 3.269283 2.139580 1.702477
  H 2.516582 0.925763 4.395458
  H 2.737079 2.638442 4.060183
  H 4.109905 1.539406 3.969147
  H 2.866321 -2.000056 -0.927128
  H 5.416671 -0.548097 0.033662
  H 4.791563 -1.057740 -3.895027
  H 3.541376 0.120570 -3.642781
  H 2.031658 -1.661706 -2.740626
  H 3.361995 -2.838746 -2.916709
  H 2.108494 -1.225682 -5.184965
  H 1.805495 -2.919744 -4.836492
  H 3.394969 -2.411138 -5.361222
  H 6.175036 0.758531 -1.509393
 32
 73.055677
  C 2.297088 0.411470 -0.571797
  C 2.875747 -0.426970 0.487517
  C 3.157483 -0.046115 1.864085
  C 2.816865 1.388995 2.283198
  C 3.089738 1.591359 3.771577
  C 3.456361 -1.498342 -0.227995
  C 4.689170 -1.009145 -0.684955
  C 4.570334 -0.335304 -1.920505
  C 3.909515 -0.740762 -3.221689
  C 2.963594 -1.933199 -3.303201
  C 2.601793 -2.196353 -4.767837
  O 5.447642 0.649545 -2.183131
  H 2.115270 1.429121 -0.241048
  H 1.387124 0.021636 -1.026751
  H 3.169740 0.330790 -1.390718
  H 4.197377 -0.284374 2.111263
  H 2.579501 -0.736002 2.487875
  H 1.762639 1.599467 2.084845
  H 3.422205 2.097403 1.714559
  H 2.478076 0.923787 4.374996
  H 2.857997 2.614772 4.063963
  H 4.135652 1.403668 4.005963
  H 2.821949 -2.003605 -0.946100
  H 5.384655 -0.584012 0.028628
  H 4.755847 -0.943129 -3.893901
  H 3.422105 0.141460 -3.642689
  H 2.032506 -1.736922 -2.764119
  H 3.441599 -2.826917 -2.900929
  H 2.122038 -1.331460 -5.209539
  H 1.921456 -3.034873 -4.842162
  H 3.482893 -2.428644 -5.349469
  H 6.054771 0.849174 -1.454783
 32
 83.218517
  C 2.331370 0.446381 -0.569890
  C 2.855129 -0.421103 0.477569
  C 3.146955 -0.060875 1.861630
  C 2.852154 1.376062 2.292624
  C 3.144474 1.558885 3.780347
  C 3.419707 -1.507885 -0.245368
  C 4.656635 -1.043298 -0.705363
  C 4.488139 -0.285525 -1.912975
  C 3.890947 -0.717701 -3.240374
  C 2.970838 -1.929393 -3.329328
  C 2.681287 -2.244061 -4.798597
  O 5.367580 0.707395 -2.147315
  H 2.153493 1.465029 -0.234133
  H 1.458825 0.080320 -1.102157
  H 3.283277 0.334861 -1.401853
  H 4.177649 -0.336334 2.107987
  H 2.544039 -0.734599 2.477805
  H 1.801650 1.617555 2.105557
  H 3.472731 2.072759 1.722465
  H 2.517943 0.903745 4.385467
  H 2.945474 2.586069 4.082023
  H 4.188452 1.338297 4.004142
  H 2.772774 -1.991266 -0.963533
  H 5.341929 -0.614594 0.017138
  H 4.764053 -0.913740 -3.873840
  H 3.399785 0.147249 -3.688463
  H 2.013792 -1.732655 -2.839232
  H 3.444463 -2.801963 -2.875869
  H 2.208585 -1.400593 -5.289513
  H 2.018033 -3.096161 -4.876609
  H 3.592047 -2.479179 -5.331046
  H 5.975538 0.886108 -1.413145
 32
 92.749620
  C 2.349391 0.489691 -0.539885
  C 2.853243 -0.402933 0.473061
  C 3.148045 -0.073020 1.864495
  C 2.861508 1.358765 2.325456
  C 3.162152 1.512435 3.816465
  C 3.407307 -1.487875 -0.266268
  C 4.640343 -1.039810 -0.722479
  C 4.469084 -0.239605 -1.948271
  C 3.913432 -0.715135 -3.292276
  C 2.987547 -1.924300 -3.358908
  C 2.727520 -2.295495 -4.825339
  O 5.376460 0.730484 -2.174677
  H 2.185294 1.505388 -0.200194
  H 1.512400 0.144698 -1.131608
  H 3.409216 0.350287 -1.466725
  H 4.180520 -0.357905 2.103565
  H 2.543507 -0.756105 2.468361
  H 1.810459 1.607727 2.148385
  H 3.482588 2.064985 1.765486
  H 2.540025 0.851199 4.409188
  H 2.968310 2.534006 4.139017
  H 4.200828 1.284822 4.029994
  H 2.748186 -1.949924 -0.990670
  H 5.326740 -0.611066 0.002578
  H 4.803402 -0.937818 -3.893564
  H 3.440202 0.135957 -3.779258
  H 2.023646 -1.702466 -2.897441
  H 3.443435 -2.779722 -2.862016
  H 2.272078 -1.469690 -5.358698
  H 2.058736 -3.146824 -4.884755
  H 3.650816 -2.557528 -5.329541
  H 5.986962 0.886815 -1.432855
 32
 97.160600
  C 2.238887 0.495288 -0.453235
  C 2.792420 -0.397267 0.504467
  C 3.154262 -0.079250 1.890509
  C 2.890600 1.346319 2.369167
  C 3.262680 1.494266 3.842934
  C 3.315556 -1.487585 -0.267636
  C 4.549597 -1.052531 -0.723296
  C 4.418520 -0.196388 -1.988427
  C 3.965990 -0.717028 -3.351755
  C 3.023817 -1.912128 -3.431686
  C 2.853150 -2.339744 -4.894506
  O 5.398590 0.721520 -2.188781
  H 2.062221 1.505557 -0.118088
  H 1.477196 0.144584 -1.125087
  H 3.455446 0.382411 -1.550980
  H 4.193395 -0.360860 2.085460
  H 2.572109 -0.770380 2.514886
  H 1.833170 1.595287 2.245356
  H 3.481849 2.053309 1.783892
  H 2.670946 0.829656 4.461533
  H 3.083994 2.512524 4.178384
  H 4.311057 1.266381 4.005428
  H 2.634518 -1.923084 -0.984541
  H 5.247459 -0.644454 -0.000685
  H 4.893581 -0.975399 -3.882767
  H 3.539119 0.121598 -3.894840
  H 2.038552 -1.655228 -3.042834
  H 3.428784 -2.750635 -2.873791
  H 2.446790 -1.524363 -5.493563
  H 2.172542 -3.183213 -4.963701
  H 3.805449 -2.637214 -5.326262
  H 5.971833 0.864743 -1.412658
