 26
 0.000000
  H 1.375272 0.140283 0.400410
  C 2.445261 0.138532 0.395784
  C 3.234973 0.607589 1.562934
  C 2.461488 1.098287 2.784371
  C 3.414253 1.542424 3.889631
  C 3.056527 -0.326240 -0.761266
  C 4.434557 -0.412807 -0.977341
  C 5.116634 -0.862171 -2.097644
  C 4.626711 -1.386353 -3.404443
  C 3.136043 -1.505154 -3.701248
  H 2.979055 -1.899161 -4.683599
  O 6.441363 -0.854110 -2.077903
  H 3.890881 1.419250 1.227711
  H 3.891049 -0.210235 1.882449
  H 1.823595 0.301943 3.173218
  H 1.823488 1.942218 2.514202
  H 4.050290 0.720083 4.211390
  H 2.851219 1.889353 4.753283
  H 4.050158 2.358871 3.552941
  H 2.395882 -0.642369 -1.548407
  H 5.050449 -0.080233 -0.149165
  H 5.083529 -2.374996 -3.529298
  H 5.083826 -0.758265 -4.177923
  H 2.660333 -0.524837 -3.647836
  H 2.660040 -2.176678 -2.985238
  H 6.799446 -0.516763 -1.236311
 26
 0.000000
  H 1.462948 0.112501 0.331139
  C 2.532607 0.122702 0.356297
  C 3.284242 0.600363 1.544910
  C 2.471624 1.082195 2.744277
  C 3.388239 1.536768 3.875566
  C 3.180997 -0.335028 -0.783225
  C 4.465445 -0.412162 -0.975753
  C 5.090517 -0.851318 -2.070595
  C 4.592027 -1.374380 -3.374600
  C 3.099439 -1.489794 -3.662974
  H 2.936006 -1.883439 -4.644419
  O 6.317788 -0.837048 -2.035337
  H 3.940122 1.419353 1.227953
  H 3.940266 -0.210134 1.882685
  H 1.832087 0.278713 3.115337
  H 1.832002 1.918991 2.456329
  H 4.024222 0.721531 4.215026
  H 2.797543 1.877249 4.723163
  H 4.024113 2.360321 3.556584
  H 2.576095 -0.658293 -1.588176
  H 5.090152 -0.081880 -0.153281
  H 5.045886 -2.364057 -3.502028
  H 5.046187 -0.747327 -4.150657
  H 2.626265 -0.508400 -3.606882
  H 2.625967 -2.160239 -2.944280
  H 6.613538 -0.488728 -1.166357
 26
 0.000000
  H 1.552704 0.085332 0.263393
  C 2.621044 0.107665 0.318785
  C 3.333304 0.593626 1.528107
  C 2.481680 1.066009 2.703947
  C 3.360728 1.530766 3.860636
  C 3.306549 -0.342491 -0.801882
  C 4.496064 -0.411061 -0.973028
  C 5.066682 -0.841218 -2.045422
  C 4.558018 -1.362921 -3.346039
  C 3.063218 -1.474299 -3.624364
  H 2.892123 -1.867493 -4.604684
  O 6.194855 -0.822191 -1.998270
  H 3.988552 1.420058 1.229696
  H 3.988672 -0.209432 1.884421
  H 1.841062 0.255261 3.056899
  H 1.841001 1.895543 2.397900
  H 3.996069 0.722740 4.218069
  H 2.742474 1.864382 4.691143
  H 3.995985 2.361534 3.559635
  H 2.756824 -0.673414 -1.625940
  H 5.130584 -0.083390 -0.157050
  H 5.008334 -2.353820 -3.476507
  H 5.008641 -0.737092 -4.125140
  H 2.593086 -0.491630 -3.565100
  H 2.592781 -2.143468 -2.902494
  H 6.423785 -0.461770 -1.099087
 26
 0.000000
  H 1.644227 0.059067 0.197897
  C 2.710215 0.093686 0.283912
  C 3.381850 0.587608 1.513097
  C 2.491459 1.049957 2.663951
  C 3.331557 1.524605 3.845313
  C 3.432727 -0.348358 -0.816561
  C 4.526688 -0.409291 -0.968631
  C 5.045660 -0.832289 -2.023167
  C 4.524890 -1.352334 -3.319651
  C 3.027550 -1.458887 -3.585962
  H 2.847323 -1.851517 -4.564871
  O 6.073620 -0.809987 -1.967812
  H 4.035835 1.421580 1.233476
  H 4.035929 -0.207913 1.888193
  H 1.850351 0.231828 2.998508
  H 1.850314 1.872114 2.339518
  H 3.965643 0.723885 4.220954
  H 2.685929 1.850942 4.657692
  H 3.965584 2.362682 3.562529
  H 2.938082 -0.687701 -1.661622
  H 5.172205 -0.084617 -0.160113
  H 4.970945 -2.344678 -3.453715
  H 4.971258 -0.727953 -4.102354
  H 2.561081 -0.474708 -3.522939
  H 2.560770 -2.126544 -2.860328
  H 6.229233 -0.436363 -1.035681
 26
 0.000000
  H 1.737004 0.034105 0.135646
  C 2.799572 0.081126 0.252575
  C 3.429431 0.582627 1.500671
  C 2.500666 1.034371 2.625111
  C 3.300520 1.518569 3.830299
  C 3.558841 -0.352279 -0.826384
  C 4.557734 -0.406555 -0.961827
  C 5.028088 -0.825097 -2.005240
  C 4.492909 -1.343110 -3.296660
  C 2.992684 -1.443891 -3.548598
  H 2.801566 -1.835807 -4.525726
  O 5.955471 -0.800979 -1.945325
  H 4.081503 1.424210 1.240023
  H 4.081569 -0.205286 1.894733
  H 1.859687 0.208769 2.941044
  H 1.859675 1.849058 2.282063
  H 3.932720 0.725225 4.224326
  H 2.627813 1.837220 4.623536
  H 3.932686 2.364026 3.565909
  H 3.119814 -0.701039 -1.694933
  H 5.215647 -0.085356 -0.161958
  H 4.933833 -2.337164 -3.434977
  H 4.934152 -0.720440 -4.083621
  H 2.530635 -0.457923 -3.481124
  H 2.530315 -2.109757 -2.818507
  H 6.028810 -0.413270 -0.978042
 26
 0.000000
  H 1.830181 0.011019 0.078069
  C 2.888252 0.070490 0.226033
  C 3.475392 0.579131 1.491947
  C 2.508879 1.019742 2.588658
  C 3.267388 1.513085 3.816659
  C 3.683807 -0.353782 -0.830179
  C 4.589790 -0.402453 -0.951614
  C 5.014709 -0.820420 -1.993581
  C 4.462452 -1.335943 -3.278794
  C 2.959002 -1.429839 -3.513587
  H 2.754946 -1.820851 -4.488459
  O 5.842261 -0.795859 -1.932526
  H 4.124890 1.428357 1.250352
  H 4.124927 -0.201142 1.905054
  H 1.868663 0.186617 2.885836
  H 1.868678 1.826910 2.226865
  H 3.897060 0.727147 4.229149
  H 2.568061 1.823678 4.589823
  H 3.897055 2.365952 3.570741
  H 3.301711 -0.713190 -1.725279
  H 5.261743 -0.085317 -0.161857
  H 4.897206 -2.332005 -3.422107
  H 4.897534 -0.715284 -4.070758
  H 2.502278 -0.441765 -3.440870
  H 2.501949 -2.093596 -2.778246
  H 5.821409 -0.393668 -0.929109
 26
 0.000000
  H 1.922295 -0.009324 0.027324
  C 2.974826 0.062517 0.206129
  C 3.518732 0.577782 1.488577
  C 2.515488 1.006845 2.556514
  C 3.231966 1.508828 3.806075
  C 3.805820 -0.352218 -0.826324
  C 4.623628 -0.396441 -0.936636
  C 5.006370 -0.819353 -1.990919
  C 4.434104 -1.331844 -3.268570
  C 2.927146 -1.417611 -3.483120
  H 2.707891 -1.807483 -4.455145
  O 5.736527 -0.795536 -1.931685
  H 4.165016 1.434604 1.265920
  H 4.165022 -0.194898 1.920614
  H 1.876668 0.166221 2.834999
  H 1.876712 1.806518 2.176037
  H 3.858487 0.730251 4.236915
  H 2.506753 1.811068 4.558428
  H 3.858512 2.369059 3.578517
  H 3.482760 -0.723767 -1.751695
  H 5.311521 -0.084087 -0.158784
  H 4.861507 -2.330234 -3.417678
  H 4.861842 -0.713516 -4.066337
  H 2.476784 -0.427087 -3.404306
  H 2.476446 -2.078914 -2.741674
  H 5.606077 -0.379309 -0.893248
 26
 0.000000
  H 2.008508 -0.025162 -0.012189
  C 3.054774 0.058426 0.195906
  C 3.556882 0.579543 1.492959
  C 2.519486 0.997181 2.532423
  C 3.195155 1.506953 3.801419
  C 3.918848 -0.346818 -0.812896
  C 4.659190 -0.388028 -0.915666
  C 5.004035 -0.823371 -2.000923
  C 4.409475 -1.332332 -3.269776
  C 2.898959 -1.408963 -3.461574
  H 2.662714 -1.797458 -4.430165
  O 5.644150 -0.801121 -1.945567
  H 4.199500 1.443581 1.288293
  H 4.199475 -0.185924 1.942980
  H 1.882590 0.149415 2.793101
  H 1.882663 1.789715 2.134148
  H 3.818088 0.735368 4.249693
  H 2.445891 1.800938 4.533199
  H 3.818143 2.374179 3.591302
  H 3.655833 -0.732160 -1.772650
  H 5.364679 -0.081173 -0.151503
  H 4.828527 -2.333285 -3.425265
  H 4.828871 -0.716572 -4.073933
  H 2.455842 -0.415732 -3.376025
  H 2.455493 -2.067556 -2.713384
  H 5.387830 -0.372721 -0.876771
 26
 0.000000
  H 2.073821 -0.033501 -0.033002
  C 3.114471 0.059310 0.198088
  C 3.583256 0.584715 1.505842
  C 2.519556 0.993066 2.522160
  C 3.162572 1.508664 3.805688
  C 4.004111 -0.338184 -0.791396
  C 4.691211 -0.378273 -0.891344
  C 5.007342 -0.832622 -2.023970
  C 4.392567 -1.338244 -3.284499
  C 2.879153 -1.406517 -3.455485
  H 2.627454 -1.793666 -4.420717
  O 5.579156 -0.811966 -1.972563
  H 4.222567 1.454418 1.315303
  H 4.222518 -0.175089 1.969985
  H 1.884586 0.139679 2.768822
  H 1.884683 1.779982 2.109874
  H 3.782271 0.742569 4.267653
  H 2.394796 1.795944 4.520756
  H 3.782351 2.381382 3.609267
  H 3.792694 -0.737931 -1.787045
  H 5.413157 -0.076780 -0.140532
  H 4.803900 -2.341494 -3.445701
  H 4.804254 -0.724784 -4.094379
  H 2.442753 -0.410855 -3.363885
  H 2.442393 -2.062674 -2.701234
  H 5.197846 -0.374998 -0.882412
 26
 0.000000
  H 2.119075 -0.034973 -0.036694
  C 3.155149 0.064687 0.211478
  C 3.598883 0.593102 1.526739
  C 2.515938 0.994373 2.525402
  C 3.134340 1.514131 3.819308
  C 4.063548 -0.326875 -0.763218
  C 4.719483 -0.367534 -0.864565
  C 5.014568 -0.846423 -2.058351
  C 4.382885 -1.349148 -3.311660
  C 2.867289 -1.410374 -3.465100
  H 2.602626 -1.796324 -4.427341
  O 5.537550 -0.826942 -2.009860
  H 4.235493 1.467014 1.346696
  H 4.235423 -0.162494 2.001376
  H 1.882639 0.136802 2.761632
  H 1.882756 1.777106 2.102687
  H 3.751398 0.752115 4.291445
  H 2.353027 1.796301 4.521636
  H 3.751497 2.390929 3.633062
  H 3.895298 -0.742699 -1.798919
  H 5.456462 -0.071134 -0.126435
  H 4.787651 -2.354297 -3.477587
  H 4.788012 -0.737590 -4.126273
  H 2.436617 -0.412694 -3.368479
  H 2.436248 -2.064511 -2.705820
  H 5.031348 -0.384134 -0.905168
 26
 0.000000
  H 2.144446 -0.029885 -0.024031
  C 3.177304 0.074302 0.235431
  C 3.604343 0.604623 1.555444
  C 2.508818 1.001128 2.542220
  C 3.110783 1.523557 3.842786
  C 4.097992 -0.313259 -0.729285
  C 4.743144 -0.356186 -0.836266
  C 5.024706 -0.864205 -2.102656
  C 4.380573 -1.364737 -3.350494
  C 2.863515 -1.420741 -3.490933
  H 2.589284 -1.805767 -4.450864
  O 5.516573 -0.845228 -2.055410
  H 4.239050 1.481316 1.382338
  H 4.238966 -0.148192 2.037018
  H 1.876737 0.140789 2.771545
  H 1.876867 1.781093 2.112601
  H 3.725980 0.764237 4.321647
  H 2.320623 1.802289 4.536539
  H 3.726093 2.403052 3.663265
  H 3.963918 -0.748467 -1.813270
  H 5.493489 -0.064478 -0.109822
  H 4.780438 -2.371272 -3.519868
  H 4.780805 -0.754569 -4.168562
  H 2.437125 -0.421585 -3.390642
  H 2.436749 -2.073399 -2.727974
  H 4.883139 -0.398074 -0.939909
 26
 0.000000
  H 2.149619 -0.018496 0.004342
  C 3.180886 0.087854 0.269200
  C 3.599904 0.619064 1.591424
  C 2.498405 1.013268 2.572456
  C 3.092465 1.536952 3.876148
  C 4.107416 -0.297772 -0.690686
  C 4.760515 -0.344750 -0.807747
  C 5.037092 -0.885168 -2.154890
  C 4.386157 -1.384482 -3.399684
  C 2.868352 -1.437621 -3.532990
  H 2.588886 -1.822128 -4.491618
  O 5.514170 -0.865850 -2.106789
  H 4.233668 1.497087 1.421633
  H 4.233576 -0.132421 2.076315
  H 1.866938 0.151605 2.798479
  H 1.867075 1.791908 2.139533
  H 3.706740 0.778922 4.358225
  H 2.298106 1.814025 4.565758
  H 3.706861 2.417736 3.699841
  H 3.997267 -0.757432 -1.835571
  H 5.522206 -0.057151 -0.091544
  H 4.783319 -2.391770 -3.570927
  H 4.783691 -0.775070 -4.219628
  H 2.444326 -0.437662 -3.430704
  H 2.443945 -2.089472 -2.768028
  H 4.748437 -0.414643 -0.981206
 26
 0.000000
  H 2.135705 -0.001880 0.045747
  C 3.167037 0.104384 0.310387
  C 3.586379 0.635560 1.632523
  C 2.485120 1.029860 2.613785
  C 3.079499 1.553496 3.917351
  C 4.093332 -0.281324 -0.649693
  C 4.769538 -0.333981 -0.780898
  C 5.050700 -0.907622 -2.210841
  C 4.399424 -1.406879 -3.455479
  C 2.881583 -1.459873 -3.588427
  H 2.601853 -1.844357 -4.546987
  O 5.526846 -0.887035 -2.159575
  H 4.220182 1.513529 1.462596
  H 4.220090 -0.115978 2.117281
  H 1.853628 0.168251 2.839943
  H 1.853766 1.808553 2.180994
  H 3.693811 0.795414 4.399300
  H 2.285309 1.830638 4.607128
  H 3.693933 2.434227 3.740912
  H 3.995656 -0.771011 -1.869363
  H 5.540099 -0.049678 -0.072914
  H 4.796450 -2.414206 -3.626812
  H 4.796822 -0.797508 -4.275519
  H 2.457676 -0.459873 -3.486044
  H 2.457294 -2.111681 -2.823362
  H 4.623621 -0.431596 -1.023463
 26
 0.000000
  H 2.107068 0.017858 0.094933
  C 3.139715 0.122336 0.355120
  C 3.565677 0.652783 1.675431
  C 2.469346 1.048987 2.661434
  C 3.070250 1.571593 3.962420
  C 4.061190 -0.264973 -0.608945
  C 4.769534 -0.324404 -0.757022
  C 5.064131 -0.929491 -2.265336
  C 4.418564 -1.429780 -3.512530
  C 2.901345 -1.485180 -3.651468
  H 2.626010 -1.870107 -4.611122
  O 5.548469 -0.906777 -2.208772
  H 4.200260 1.529654 1.502766
  H 4.200171 -0.099851 2.157455
  H 1.837345 0.188473 2.890319
  H 1.837479 1.828773 2.231366
  H 3.685323 0.812448 4.441718
  H 2.279525 1.850108 4.655615
  H 3.685440 2.451259 3.783327
  H 3.965415 -0.788741 -1.913493
  H 5.546414 -0.042493 -0.055012
  H 4.817858 -2.436477 -3.682288
  H 4.818230 -0.819781 -4.331001
  H 2.475454 -0.485852 -3.550766
  H 2.475073 -2.137657 -2.888079
  H 4.504379 -0.447831 -1.063927
