15

H 1.3624286555278677 0.059947527370613776 0.20689645463666334
C 2.424974 0.069179 0.08115
C 3.248696 -0.004587 1.365158
C 2.512621 -0.092759 2.700807
C 3.494287 -0.161567 3.864747
C 3.017728 0.134968 -1.13073
H 2.5501362052144834 0.18317987886433432 -2.091944610888552
H 4.0854390163490235 0.13741853403514423 -1.2006383718153875
H 3.8896 0.880588 1.418491
H 3.899155 -0.883725 1.300746
H 1.882653 -0.985278 2.727355
H 1.874048 0.783108 2.839158
H 4.134582 -1.038452 3.783177
H 2.95334 -0.223855 4.807431
H 4.125941 0.724818 3.894709
