 12
 0.000000
  C 0.923617 0.052190 0.265590
  C 2.415682 0.061230 0.088181
  C 3.259106 -0.009510 1.334446
  H 2.659548 -0.058453 2.238064
  C 2.995815 0.124745 -1.101879
  H 2.476116 0.169377 -2.042343
  H 4.071108 0.127254 -1.180089
  H 0.650520 -0.023520 1.315545
  H 0.479114 -0.796085 -0.252862
  H 0.474879 0.964710 -0.122755
  H 3.906537 0.864552 1.401127
  H 3.902672 -0.888349 1.303344
 12
 -0.554779
  C 0.941185 0.060913 0.260031
  C 2.436792 0.073772 0.105410
  C 3.266571 -0.060124 1.348280
  H 2.644157 -0.172685 2.231026
  C 2.996779 0.180223 -1.090163
  H 2.403691 0.270870 -1.986615
  H 4.062518 0.188466 -1.229203
  H 0.645965 0.261025 1.287988
  H 0.542997 -0.910403 -0.023443
  H 0.486329 0.810854 -0.385139
  H 3.894406 0.817389 1.479909
  H 3.921901 -0.924923 1.277333
 12
 -0.800307
  C 0.945450 0.053350 0.249892
  C 2.440605 0.064748 0.108450
  C 3.261234 -0.113314 1.354037
  H 2.626555 -0.267215 2.222674
  C 2.986113 0.249178 -1.081438
  H 2.377357 0.349917 -1.965813
  H 4.046007 0.294306 -1.268191
  H 0.639565 0.521708 1.183182
  H 0.565714 -0.967394 0.238587
  H 0.512450 0.609004 -0.579500
  H 3.882016 0.764012 1.529945
  H 3.924876 -0.970929 1.254033
 12
 0.780673
  C 0.946154 0.031304 0.243660
  C 2.440711 0.057929 0.117510
  C 3.262653 -0.163652 1.352208
  H 2.626404 -0.374930 2.207771
  C 2.962996 0.341002 -1.064022
  H 2.372353 0.319905 -1.965572
  H 4.021371 0.487682 -1.246515
  H 0.624089 0.736943 1.010219
  H 0.568276 -0.955184 0.498503
  H 0.568047 0.400069 -0.706919
  H 3.867194 0.713598 1.579868
  H 3.941493 -1.001530 1.205272
 12
 8.988737
  C 0.947486 -0.019909 0.232047
  C 2.441618 0.084395 0.138611
  C 3.272350 -0.196279 1.354523
  H 2.642781 -0.423128 2.207491
  C 2.931253 0.442752 -1.040356
  H 2.436766 0.179949 -1.957071
  H 3.938531 0.797079 -1.206507
  H 0.587674 0.848857 0.791614
  H 0.561576 -0.914760 0.694312
  H 0.604193 0.206931 -0.777173
  H 3.915253 0.646304 1.610960
  H 3.918076 -1.050454 1.155656
 12
 27.527747
  C 0.934795 -0.003601 0.231859
  C 2.430579 0.109894 0.190406
  C 3.297014 -0.217978 1.364129
  H 2.693459 -0.566084 2.199951
  C 2.843448 0.483497 -1.030581
  H 2.521900 -0.054673 -1.910675
  H 3.790720 0.976198 -1.240820
  H 0.515034 0.902132 0.674450
  H 0.547284 -0.870861 0.748289
  H 0.745847 0.202442 -0.834084
  H 3.881512 0.643788 1.690963
  H 4.000136 -0.995305 1.081573
 12
 55.727528
  C 0.941871 -0.062411 0.260143
  C 2.413758 0.045512 0.225381
  C 3.331245 -0.244000 1.363209
  H 2.769803 -0.516100 2.255741
  C 2.765410 0.494900 -1.009997
  H 2.516968 -0.069128 -1.884026
  H 3.649287 1.107123 -1.159995
  H 0.403173 0.872411 0.419008
  H 0.496705 -0.865038 0.819423
  H 0.973302 0.279559 -0.871760
  H 3.946150 0.629755 1.599997
  H 4.009539 -1.058685 1.100769
 12
 77.286094
  C 0.958448 -0.061897 0.308019
  C 2.368887 0.028492 0.274445
  C 3.332255 -0.270651 1.369841
  H 2.811450 -0.600843 2.265932
  C 2.665324 0.508806 -1.023161
  H 2.579128 -0.182970 -1.850767
  H 3.511740 1.180107 -1.178758
  H 0.392334 0.855970 0.385063
  H 0.472049 -0.856199 0.880315
  H 1.207130 0.428743 -1.044652
  H 3.903792 0.626934 1.607367
  H 4.045183 -1.038157 1.069549
 12
 58.014182
  C 0.963436 -0.084755 0.402107
  C 2.317230 0.009820 0.305894
  C 3.330239 -0.280393 1.347037
  H 2.847584 -0.593808 2.273223
  C 2.596397 0.551436 -1.043292
  H 2.663282 -0.216914 -1.817450
  H 3.434365 1.235861 -1.122867
  H 0.350374 0.785590 0.303743
  H 0.437577 -0.855968 0.979805
  H 1.421835 0.538986 -1.195364
  H 3.926779 0.616180 1.525785
  H 4.005526 -1.084504 1.043063
 12
 31.423619
  C 0.926662 -0.105056 0.451177
  C 2.256488 0.003213 0.305224
  C 3.308352 -0.323387 1.319474
  H 2.866689 -0.710697 2.236202
  C 2.601086 0.528702 -1.053274
  H 2.786054 -0.288683 -1.765248
  H 3.378549 1.269370 -1.144901
  H 0.303691 0.757335 0.301098
  H 0.477839 -0.773185 1.179026
  H 1.555214 0.682761 -1.384369
  H 3.833602 0.604838 1.548199
  H 4.063732 -1.021854 0.941770
 12
 13.691002
  C 0.933163 -0.112635 0.522274
  C 2.238242 -0.010130 0.298089
  C 3.314155 -0.332117 1.275146
  H 2.897903 -0.710498 2.202113
  C 2.597171 0.548843 -1.049252
  H 2.826065 -0.290433 -1.714553
  H 3.411334 1.262130 -1.071975
  H 0.236835 0.627888 0.165540
  H 0.488513 -0.719561 1.301793
  H 1.613390 0.823917 -1.443525
  H 3.845237 0.594020 1.485032
  H 4.035391 -1.050786 0.891240
 12
 2.096590
  C 0.898943 -0.100517 0.587438
  C 2.186312 -0.010126 0.283008
  C 3.287144 -0.334555 1.242687
  H 2.891290 -0.717625 2.179521
  C 2.599280 0.543511 -1.048034
  H 2.856047 -0.297136 -1.698980
  H 3.454301 1.209039 -1.002349
  H 0.133510 0.470795 0.092981
  H 0.573915 -0.649604 1.458441
  H 1.727113 0.996627 -1.509057
  H 3.840515 0.581891 1.443684
  H 3.989026 -1.061661 0.832582
 12
 -2.661228
  C 0.888404 -0.060346 0.641245
  C 2.161399 0.033061 0.294560
  C 3.278576 -0.348218 1.218159
  H 2.899762 -0.826140 2.117654
  C 2.592133 0.533453 -1.050459
  H 2.937008 -0.299263 -1.663641
  H 3.418874 1.235191 -0.951396
  H 0.094236 0.239943 -0.020592
  H 0.588753 -0.412901 1.614158
  H 1.769361 1.022094 -1.567161
  H 3.840086 0.540907 1.509087
  H 3.968803 -1.027143 0.720308
