 14
 0.000000
  H 1.405224 0.134920 0.386628
  C 2.475139 0.140018 0.399085
  C 3.241227 0.613797 1.578372
  H 2.683154 0.954049 2.425534
  C 3.096863 -0.322475 -0.752613
  C 4.472906 -0.413204 -0.978851
  C 5.132414 -0.867699 -2.111643
  H 4.763744 -1.241749 -3.043882
  O 6.457488 -0.870547 -2.119086
  H 3.897288 1.429656 1.253616
  H 3.897458 -0.199872 1.908184
  H 2.436796 -0.639606 -1.542199
  H 5.100515 -0.083792 -0.158214
  H 6.834017 -0.535875 -1.285013
 14
 0.000000
  H 1.442347 0.111833 0.329128
  C 2.542207 0.120283 0.349928
  C 3.298314 0.596285 1.534750
  H 2.733105 0.934899 2.377828
  C 3.136210 -0.327206 -0.764404
  C 4.448006 -0.412469 -0.977027
  C 5.082974 -0.850775 -2.069482
  H 4.732319 -1.227222 -3.007691
  O 6.344984 -0.836321 -2.033826
  H 3.954335 1.414059 1.214764
  H 3.954503 -0.215468 1.869334
  H 2.475036 -0.644017 -1.553192
  H 5.074847 -0.082850 -0.155886
  H 6.675046 -0.483411 -1.154307
 14
 0.000000
  H 1.476765 0.088477 0.270959
  C 2.609962 0.100954 0.301780
  C 3.354634 0.579455 1.492825
  H 2.781329 0.916174 2.331185
  C 3.178302 -0.331958 -0.776248
  C 4.425562 -0.412234 -0.976451
  C 5.036814 -0.834915 -2.029972
  H 4.704412 -1.213655 -2.973890
  O 6.234590 -0.804730 -1.955131
  H 4.010561 1.399412 1.178277
  H 4.010725 -0.230114 1.832849
  H 2.515969 -0.648433 -1.564197
  H 5.052003 -0.082506 -0.155049
  H 6.513236 -0.432129 -1.026545
 14
 0.000000
  H 1.508166 0.064834 0.212076
  C 2.678319 0.082097 0.254809
  C 3.410061 0.563362 1.452737
  H 2.827709 0.897920 2.285713
  C 3.223036 -0.336701 -0.788068
  C 4.405812 -0.412385 -0.976834
  C 4.994137 -0.820073 -1.992997
  H 4.680030 -1.200976 -2.942300
  O 6.126789 -0.775869 -1.883238
  H 4.065820 1.385773 1.144303
  H 4.065981 -0.243752 1.798877
  H 2.559559 -0.652844 -1.575189
  H 5.032217 -0.082642 -0.155410
  H 6.348042 -0.382468 -0.902819
 14
 0.000000
  H 1.535141 0.040968 0.152635
  C 2.747122 0.063917 0.209525
  C 3.464333 0.548212 1.415001
  H 2.871944 0.880316 2.241861
  C 3.270409 -0.341410 -0.799805
  C 4.389080 -0.412928 -0.978195
  C 4.955323 -0.806469 -1.959107
  H 4.659285 -1.189377 -2.913402
  O 6.022372 -0.750078 -1.818989
  H 4.119826 1.373365 1.113394
  H 4.119983 -0.256160 1.767970
  H 2.605757 -0.657210 -1.586071
  H 5.015967 -0.083307 -0.157090
  H 6.179302 -0.334602 -0.783560
 14
 0.000000
  H 1.555604 0.016799 0.092444
  C 2.816584 0.046583 0.166345
  C 3.517433 0.534195 1.380085
  H 2.913903 0.863503 2.199982
  C 3.320717 -0.346078 -0.811443
  C 4.375708 -0.413893 -0.980606
  C 4.920655 -0.794337 -1.928884
  H 4.642202 -1.179074 -2.887728
  O 5.921669 -0.727639 -1.763091
  H 4.172531 1.362412 1.086111
  H 4.172684 -0.267112 1.740689
  H 2.654765 -0.661498 -1.596761
  H 5.003822 -0.084591 -0.160311
  H 6.005723 -0.288337 -0.668288
 14
 0.000000
  H 1.568600 -0.007404 0.032167
  C 2.885471 0.030439 0.126131
  C 3.568340 0.521585 1.348672
  H 2.952761 0.847783 2.160823
  C 3.372991 -0.350609 -0.822737
  C 4.366081 -0.415162 -0.983775
  C 4.890857 -0.783831 -1.902711
  H 4.629024 -1.170187 -2.865580
  O 5.826789 -0.708871 -1.716338
  H 4.222890 1.353144 1.063024
  H 4.223037 -0.276379 1.717603
  H 2.705670 -0.665628 -1.607055
  H 4.996174 -0.086378 -0.164789
  H 5.829322 -0.244799 -0.559810
 14
 0.000000
  H 1.571565 -0.031707 -0.028357
  C 2.953567 0.015738 0.089511
  C 3.616677 0.510632 1.321389
  H 2.988087 0.833369 2.124918
  C 3.427193 -0.354975 -0.833622
  C 4.360525 -0.416751 -0.987740
  C 4.866319 -0.775231 -1.881284
  H 4.619787 -1.162984 -2.847626
  O 5.738461 -0.694025 -1.679353
  H 4.270488 1.345833 1.044813
  H 4.270630 -0.283689 1.699394
  H 2.758338 -0.669542 -1.616814
  H 4.993580 -0.088750 -0.170724
  H 5.649369 -0.203904 -0.457912
 14
 0.000000
  H 1.562128 -0.056039 -0.088953
  C 3.020040 0.002831 0.057356
  C 3.661681 0.501641 1.298993
  H 3.019221 0.820565 2.093024
  C 3.482705 -0.359096 -0.843898
  C 4.359265 -0.418620 -0.992405
  C 4.847421 -0.768800 -1.865263
  H 4.614395 -1.157714 -2.834485
  O 5.657867 -0.683343 -1.652740
  H 4.314533 1.340763 1.032184
  H 4.314668 -0.288759 1.686767
  H 2.812063 -0.673136 -1.625773
  H 4.996455 -0.091725 -0.178162
  H 5.466193 -0.165984 -0.363427
 14
 0.000000
  H 1.538258 -0.080291 -0.149346
  C 3.083875 -0.007919 0.030577
  C 3.702554 0.494905 1.282213
  H 3.045560 0.809692 2.065940
  C 3.538634 -0.362843 -0.853240
  C 4.362267 -0.420676 -0.997531
  C 4.834223 -0.764699 -1.855045
  H 4.612427 -1.154528 -2.826531
  O 5.585883 -0.676893 -1.636666
  H 4.354201 1.338181 1.025751
  H 4.354329 -0.291340 1.680336
  H 2.865849 -0.676247 -1.633528
  H 5.004932 -0.095262 -0.187002
  H 5.280270 -0.131392 -0.277229
 14
 0.000000
  H 1.497586 -0.104385 -0.209346
  C 3.143851 -0.016135 0.010107
  C 3.738295 0.490732 1.271817
  H 3.066294 0.801089 2.044510
  C 3.593962 -0.366079 -0.861309
  C 4.369506 -0.422815 -1.002865
  C 4.826820 -0.763087 -1.851026
  H 4.613528 -1.153579 -2.824147
  O 5.523444 -0.674666 -1.631111
  H 4.388476 1.338348 1.026166
  H 4.388597 -0.291173 1.680751
  H 2.918610 -0.678717 -1.639685
  H 5.019090 -0.099305 -0.197101
  H 5.092634 -0.100315 -0.199789
 14
 0.000000
  H 1.436284 -0.127784 -0.267612
  C 3.198449 -0.021184 -0.002473
  C 3.768241 0.489599 1.268992
  H 3.081313 0.795383 2.030296
  C 3.647161 -0.368591 -0.867573
  C 4.380791 -0.425044 -1.008421
  C 4.824788 -0.764432 -1.854373
  H 4.616244 -1.155286 -2.828377
  O 5.471278 -0.677034 -1.637001
  H 4.416729 1.341583 1.034223
  H 4.416842 -0.287938 1.688810
  H 2.968386 -0.680199 -1.643381
  H 5.039244 -0.104022 -0.208882
  H 4.905508 -0.072793 -0.131206
 14
 0.000000
  H 1.405770 -0.137731 -0.292385
  C 3.211803 -0.022980 -0.006948
  C 3.770669 0.489477 1.268687
  H 3.077231 0.793215 2.024892
  C 3.662771 -0.369982 -0.871039
  C 4.384533 -0.426119 -1.011096
  C 4.826087 -0.765808 -1.857795
  H 4.619895 -1.156838 -2.832229
  O 5.456763 -0.678682 -1.641099
  H 4.418345 1.343383 1.038707
  H 4.418454 -0.286137 1.693295
  H 2.984119 -0.681629 -1.646940
  H 5.044985 -0.105663 -0.212977
  H 4.840367 -0.063949 -0.109166
 14
 0.000000
  H 1.247756 -0.178056 -0.392794
  C 3.301412 -0.022326 -0.005329
  C 3.816306 0.496479 1.286126
  H 3.097333 0.791850 2.021492
  C 3.754677 -0.370444 -0.872202
  C 4.411523 -0.428159 -1.016185
  C 4.827656 -0.772970 -1.875631
  H 4.618771 -1.163815 -2.849564
  O 5.375952 -0.691783 -1.673718
  H 4.460320 1.358032 1.075195
  H 4.460416 -0.271487 1.729784
  H 3.065562 -0.678887 -1.640117
  H 5.095094 -0.114491 -0.235024
  H 4.478578 -0.024553 -0.010992
