 29
 0.000000
  C 0.970623 0.140123 0.400938
  C 2.446619 0.138268 0.395546
  C 3.234482 0.606887 1.561015
  C 2.459402 1.096613 2.779880
  H 3.135356 1.410743 3.561150
  C 3.061055 -0.326558 -0.761494
  C 4.438776 -0.411171 -0.972728
  C 5.118191 -0.862460 -2.097988
  C 4.622359 -1.385043 -3.401170
  C 3.132094 -1.503357 -3.697182
  C 2.911635 -2.065446 -5.098912
  O 6.441106 -0.858555 -2.088456
  H 0.538446 0.510736 1.323155
  H 0.598559 -0.871587 0.234555
  H 0.598117 0.755064 -0.419286
  H 3.890541 1.417988 1.225903
  H 3.890912 -0.210240 1.880351
  H 1.823611 0.302549 3.170084
  H 1.823308 1.939654 2.512137
  H 2.402899 -0.644128 -1.551861
  H 5.053078 -0.077820 -0.142091
  H 5.078991 -2.373396 -3.526801
  H 5.079458 -0.757693 -4.174900
  H 2.656360 -0.523261 -3.644741
  H 2.655895 -2.175400 -2.982160
  H 3.351427 -1.417819 -5.853890
  H 1.847290 -2.147641 -5.304633
  H 3.350984 -3.055479 -5.197128
  H 6.803739 -0.521645 -1.247576
 29
 0.930877
  C 0.960105 0.377140 0.334175
  C 2.429350 0.255959 0.351303
  C 3.217908 0.498604 1.582786
  C 2.442754 0.865132 2.842032
  H 3.140281 1.016299 3.662040
  C 3.043934 -0.106422 -0.847116
  C 4.425552 -0.256825 -1.031750
  C 5.114289 -0.730076 -2.147626
  C 4.618879 -1.362169 -3.400537
  C 3.128823 -1.538751 -3.666937
  C 2.923319 -2.257378 -4.997527
  O 6.436351 -0.742583 -2.115396
  H 0.540074 0.642066 1.296466
  H 0.514051 -0.560104 -0.002035
  H 0.660960 1.125721 -0.401801
  H 3.937148 1.298136 1.373522
  H 3.815795 -0.395544 1.789908
  H 1.757511 0.072573 3.131910
  H 1.881806 1.786934 2.710443
  H 2.389863 -0.266449 -1.686293
  H 5.060424 -0.010749 -0.196419
  H 5.106151 -2.344584 -3.451627
  H 5.062975 -0.792563 -4.224240
  H 2.636580 -0.568831 -3.724853
  H 2.670937 -2.134527 -2.876219
  H 3.354375 -1.688115 -5.817961
  H 1.862668 -2.386894 -5.197790
  H 3.386605 -3.241170 -4.984488
  H 6.843509 -0.120463 -1.490079
 29
 5.455021
  C 0.955319 0.480113 0.297395
  C 2.419340 0.309258 0.313677
  C 3.206286 0.417664 1.564812
  C 2.432957 0.667850 2.852469
  H 3.130041 0.723240 3.684923
  C 3.036296 0.031482 -0.901637
  C 4.408427 -0.138723 -1.078961
  C 5.110226 -0.670145 -2.151988
  C 4.635706 -1.391740 -3.358860
  C 3.144089 -1.552026 -3.620675
  C 2.919557 -2.365676 -4.892463
  O 6.436425 -0.703939 -2.049372
  H 0.534240 0.657276 1.279051
  H 0.481281 -0.400138 -0.138564
  H 0.690379 1.313424 -0.355721
  H 3.938252 1.222532 1.433858
  H 3.792048 -0.500150 1.681458
  H 1.733039 -0.137782 3.058901
  H 1.890030 1.609079 2.815574
  H 2.396194 -0.026580 -1.766287
  H 5.085655 0.126579 -0.278565
  H 5.101602 -2.384328 -3.321371
  H 5.102227 -0.897825 -4.218737
  H 2.674766 -0.577055 -3.749413
  H 2.669594 -2.069852 -2.786334
  H 3.370532 -1.876305 -5.752810
  H 1.856449 -2.478732 -5.087650
  H 3.353583 -3.358678 -4.800476
  H 6.913784 0.101169 -1.790408
 29
 12.700098
  C 0.926900 0.505748 0.312380
  C 2.390114 0.330439 0.307914
  C 3.192502 0.391919 1.551192
  C 2.437087 0.597026 2.857057
  H 3.144825 0.614951 3.681759
  C 2.999961 0.103120 -0.920720
  C 4.367480 -0.087526 -1.104881
  C 5.092855 -0.642797 -2.147575
  C 4.667495 -1.413422 -3.337320
  C 3.175645 -1.542497 -3.618675
  C 2.937757 -2.397546 -4.859822
  O 6.417855 -0.642045 -1.938902
  H 0.517711 0.651882 1.304726
  H 0.443419 -0.358390 -0.144500
  H 0.658446 1.364802 -0.305146
  H 3.927421 1.196650 1.436250
  H 3.774180 -0.532977 1.624187
  H 1.732623 -0.209735 3.041046
  H 1.904120 1.544806 2.865027
  H 2.368833 0.117428 -1.795399
  H 5.124503 0.182779 -0.371099
  H 5.105944 -2.413138 -3.238665
  H 5.162850 -0.963922 -4.205133
  H 2.733779 -0.560573 -3.781485
  H 2.677103 -2.011861 -2.769854
  H 3.416009 -1.960142 -5.733635
  H 1.874224 -2.483572 -5.064325
  H 3.337905 -3.399634 -4.722218
  H 6.974109 0.140862 -2.058492
 29
 22.974281
  C 0.891863 0.510874 0.343874
  C 2.359425 0.362708 0.304430
  C 3.190177 0.390215 1.532051
  C 2.461282 0.543737 2.860813
  H 3.188645 0.562813 3.668099
  C 2.952572 0.187075 -0.940375
  C 4.312109 -0.036408 -1.142796
  C 5.057983 -0.617057 -2.152815
  C 4.698353 -1.449407 -3.318351
  C 3.208290 -1.544990 -3.630499
  C 2.964327 -2.421002 -4.853528
  O 6.373531 -0.550278 -1.829662
  H 0.503334 0.626325 1.349219
  H 0.414374 -0.354397 -0.116858
  H 0.590621 1.377878 -0.249053
  H 3.902140 1.217885 1.425501
  H 3.792176 -0.523138 1.557805
  H 1.784457 -0.286235 3.044562
  H 1.902958 1.475697 2.903806
  H 2.321303 0.271365 -1.814588
  H 5.194364 0.209817 -0.503971
  H 5.107581 -2.449086 -3.159778
  H 5.221747 -1.041807 -4.190579
  H 2.797555 -0.553798 -3.817389
  H 2.682239 -1.975402 -2.779597
  H 3.447580 -2.006751 -5.734988
  H 1.901189 -2.499073 -5.059029
  H 3.352330 -3.424109 -4.694109
  H 7.000463 0.108529 -2.164437
 29
 45.200494
  C 0.864386 0.642984 0.403461
  C 2.319832 0.416641 0.315032
  C 3.184607 0.323841 1.517261
  C 2.501285 0.420783 2.875145
  H 3.246312 0.358319 3.663985
  C 2.876221 0.280168 -0.948791
  C 4.216664 0.022133 -1.192078
  C 4.984073 -0.562192 -2.171476
  C 4.721640 -1.427475 -3.336216
  C 3.239078 -1.619210 -3.650044
  C 3.044470 -2.519985 -4.863564
  O 6.285519 -0.409428 -1.768402
  H 0.507540 0.701135 1.424819
  H 0.326983 -0.154902 -0.110717
  H 0.601637 1.568909 -0.113953
  H 3.938909 1.114671 1.445775
  H 3.733825 -0.621816 1.461362
  H 1.785146 -0.384685 3.018699
  H 1.976330 1.368185 2.986298
  H 2.235094 0.470418 -1.801535
  H 5.311618 0.238403 -0.657266
  H 5.193851 -2.398584 -3.170586
  H 5.225620 -1.000693 -4.209860
  H 2.770350 -0.652929 -3.835723
  H 2.743047 -2.069987 -2.791054
  H 3.508241 -2.088450 -5.747189
  H 1.986112 -2.644541 -5.075237
  H 3.473690 -3.503449 -4.692204
  H 6.902672 0.227425 -2.177936
 29
 66.434812
  C 0.829014 0.692242 0.455151
  C 2.281806 0.446739 0.312154
  C 3.181197 0.297413 1.489264
  C 2.534826 0.351825 2.866644
  H 3.301709 0.238930 3.628661
  C 2.801114 0.351765 -0.960631
  C 4.123692 0.065327 -1.255346
  C 4.897076 -0.507332 -2.175790
  C 4.703848 -1.426347 -3.319788
  C 3.235083 -1.644990 -3.673975
  C 3.094117 -2.588494 -4.862724
  O 6.239755 -0.305118 -1.730661
  H 0.508010 0.726548 1.489126
  H 0.262955 -0.084268 -0.059853
  H 0.563179 1.635564 -0.022664
  H 3.942248 1.080972 1.432609
  H 3.710676 -0.654166 1.381184
  H 1.809935 -0.447441 3.000675
  H 2.041158 1.305465 3.036507
  H 2.142575 0.594685 -1.789528
  H 5.527626 0.233946 -0.743953
  H 5.178725 -2.387998 -3.098600
  H 5.229024 -1.013421 -4.187932
  H 2.763272 -0.691296 -3.911683
  H 2.714879 -2.075173 -2.815993
  H 3.579707 -2.178816 -5.745974
  H 2.044861 -2.744851 -5.100906
  H 3.539551 -3.556314 -4.644015
  H 6.851981 0.335099 -2.148312
 29
 61.341683
  C 0.795237 0.735784 0.493388
  C 2.246268 0.470975 0.316464
  C 3.165542 0.291828 1.482080
  C 2.538329 0.322808 2.868739
  H 3.313112 0.179861 3.618491
  C 2.739991 0.386492 -0.958678
  C 4.048346 0.088455 -1.288096
  C 4.828150 -0.475348 -2.173470
  C 4.681827 -1.410661 -3.316731
  C 3.222782 -1.660124 -3.694419
  C 3.120976 -2.622618 -4.872101
  O 6.214161 -0.258434 -1.700444
  H 0.496478 0.762216 1.533860
  H 0.207723 -0.025588 -0.019085
  H 0.534355 1.690717 0.036120
  H 3.937881 1.063007 1.430280
  H 3.675536 -0.669603 1.351106
  H 1.805037 -0.471019 2.991467
  H 2.058671 1.280278 3.068841
  H 2.065565 0.649545 -1.770719
  H 5.731669 0.207224 -0.856310
  H 5.160154 -2.360704 -3.065234
  H 5.213997 -0.999961 -4.178180
  H 2.741360 -0.717198 -3.954604
  H 2.699459 -2.089069 -2.839076
  H 3.615580 -2.215483 -5.751477
  H 2.079181 -2.802071 -5.126678
  H 3.579149 -3.579063 -4.631780
  H 6.846499 0.371483 -2.125125
 29
 54.581274
  C 0.784947 0.839322 0.503014
  C 2.219931 0.511984 0.294348
  C 3.141433 0.199387 1.432235
  C 2.533404 0.191682 2.828283
  H 3.306345 -0.041477 3.557062
  C 2.702809 0.488153 -0.989905
  C 3.989581 0.173011 -1.349389
  C 4.800245 -0.386905 -2.194037
  C 4.683720 -1.380480 -3.292971
  C 3.230902 -1.692059 -3.642886
  C 3.150720 -2.696564 -4.786762
  O 6.231848 -0.136295 -1.789210
  H 0.499376 0.811298 1.547953
  H 0.152983 0.141316 -0.046064
  H 0.568848 1.836394 0.117481
  H 3.958211 0.926868 1.416052
  H 3.586657 -0.781197 1.236831
  H 1.753480 -0.560908 2.918352
  H 2.117455 1.163049 3.086611
  H 2.038868 0.824483 -1.783246
  H 5.937675 0.238854 -0.915611
  H 5.206198 -2.300173 -3.016569
  H 5.185534 -0.975301 -4.176247
  H 2.717848 -0.774330 -3.933061
  H 2.723219 -2.101118 -2.767932
  H 3.628372 -2.304900 -5.682271
  H 2.113801 -2.917633 -5.027224
  H 3.641407 -3.629284 -4.517578
  H 6.812631 0.520292 -2.246278
 29
 50.250144
  C 0.780017 0.882708 0.579083
  C 2.198919 0.527997 0.315667
  C 3.150886 0.164761 1.412213
  C 2.589584 0.134647 2.827653
  H 3.381193 -0.132778 3.523879
  C 2.638985 0.523212 -0.986236
  C 3.897173 0.183755 -1.398300
  C 4.743247 -0.353948 -2.210361
  C 4.696409 -1.362800 -3.299794
  C 3.262876 -1.732610 -3.675246
  C 3.243146 -2.750854 -4.809384
  O 6.202432 -0.069733 -1.812286
  H 0.527660 0.834403 1.631626
  H 0.114955 0.213458 0.032818
  H 0.574562 1.893279 0.223618
  H 3.982408 0.875388 1.387685
  H 3.568557 -0.819308 1.177225
  H 1.797072 -0.603660 2.925518
  H 2.203697 1.107442 3.123594
  H 1.958401 0.888855 -1.751098
  H 5.990647 0.287689 -0.918089
  H 5.247203 -2.258081 -2.999896
  H 5.200105 -0.948350 -4.176953
  H 2.722366 -0.837152 -3.985106
  H 2.752234 -2.149317 -2.805750
  H 3.724047 -2.350218 -5.699067
  H 2.220093 -3.012399 -5.067895
  H 3.762218 -3.662067 -4.520688
  H 6.737613 0.598764 -2.302696
 29
 47.425565
  C 0.812432 1.098664 0.705525
  C 2.166863 0.617527 0.338177
  C 3.118468 0.054230 1.342950
  C 2.613464 -0.069266 2.774538
  H 3.397909 -0.492058 3.397885
  C 2.544966 0.682796 -0.986227
  C 3.729311 0.249341 -1.496850
  C 4.589613 -0.285049 -2.267150
  C 4.681668 -1.333385 -3.299373
  C 3.292906 -1.832387 -3.703858
  C 3.396004 -2.906939 -4.779650
  O 6.141193 0.105556 -1.856255
  H 0.600753 0.982946 1.761534
  H 0.054616 0.558858 0.136735
  H 0.705979 2.152585 0.444906
  H 4.015028 0.681326 1.349032
  H 3.430111 -0.933910 0.989496
  H 1.749506 -0.726732 2.836117
  H 2.349149 0.900917 3.188538
  H 1.868035 1.160626 -1.686971
  H 5.970405 0.457815 -0.960115
  H 5.285705 -2.165518 -2.930586
  H 5.184518 -0.921575 -4.177347
  H 2.700039 -0.997791 -4.080697
  H 2.781614 -2.239694 -2.830505
  H 3.882340 -2.517661 -5.671290
  H 2.406242 -3.257785 -5.060940
  H 3.968134 -3.759911 -4.421869
  H 6.617095 0.782861 -2.383611
 29
 44.244925
  C 0.884576 1.299077 0.773858
  C 2.166741 0.702916 0.331859
  C 3.066641 -0.046891 1.255550
  C 2.572337 -0.250696 2.681729
  H 3.314011 -0.813957 3.243055
  C 2.526806 0.843539 -0.995370
  C 3.633730 0.314692 -1.575916
  C 4.508506 -0.237258 -2.299398
  C 4.670040 -1.321555 -3.276644
  C 3.311536 -1.915021 -3.661938
  C 3.482402 -3.035223 -4.680671
  O 6.118729 0.231449 -1.918214
  H 0.678967 1.119235 1.821989
  H 0.061068 0.898336 0.181504
  H 0.892694 2.376176 0.600457
  H 4.026276 0.477675 1.295580
  H 3.270631 -1.023693 0.804680
  H 1.642149 -0.813494 2.702461
  H 2.422821 0.698212 3.191213
  H 1.888521 1.436497 -1.640378
  H 6.031908 0.620562 -1.028887
  H 5.312117 -2.100407 -2.860320
  H 5.154176 -0.927927 -4.172881
  H 2.676876 -1.133395 -4.081810
  H 2.816729 -2.304497 -2.771096
  H 3.955017 -2.665759 -5.587909
  H 2.515473 -3.452998 -4.949728
  H 4.096387 -3.836450 -4.275913
  H 6.547279 0.872910 -2.518862
 29
 41.734021
  C 0.902810 1.296719 0.637553
  C 2.210175 0.707391 0.252519
  C 3.040431 -0.104920 1.193058
  C 2.449848 -0.372708 2.571280
  H 3.144818 -0.975710 3.151184
  C 2.663094 0.911511 -1.040770
  C 3.807983 0.423606 -1.563849
  C 4.703873 -0.139985 -2.284036
  C 4.723344 -1.295566 -3.221328
  C 3.320675 -1.861216 -3.444796
  C 3.356304 -3.041589 -4.408255
  O 6.176584 0.296130 -2.057752
  H 0.627893 1.068205 1.660143
  H 0.115138 0.931974 -0.023453
  H 0.929553 2.381351 0.519816
  H 4.003181 0.399589 1.322648
  H 3.259110 -1.062930 0.709016
  H 1.512888 -0.920412 2.501203
  H 2.278299 0.552018 3.117275
  H 2.068573 1.540368 -1.693850
  H 6.211665 0.802938 -1.218083
  H 5.374202 -2.075555 -2.820051
  H 5.132068 -0.972708 -4.181404
  H 2.672517 -1.081603 -3.847660
  H 2.899876 -2.182591 -2.490788
  H 3.751616 -2.740680 -5.375877
  H 2.355595 -3.437899 -4.561388
  H 3.980172 -3.841977 -4.016777
  H 6.572859 0.808301 -2.797574
 29
 42.047294
  C 0.853316 1.148831 0.543082
  C 2.212212 0.645979 0.215825
  C 3.068630 -0.075402 1.206031
  C 2.461822 -0.325993 2.580129
  H 3.177645 -0.861100 3.199544
  C 2.690236 0.841072 -1.069025
  C 3.897538 0.449151 -1.531358
  C 4.806613 -0.111009 -2.250687
  C 4.738497 -1.270812 -3.196143
  C 3.308363 -1.772689 -3.386460
  C 3.266718 -2.952535 -4.350207
  O 6.233509 0.265937 -2.035620
  H 0.566979 0.936557 1.565959
  H 0.113485 0.701634 -0.122305
  H 0.803301 2.227564 0.387060
  H 3.994484 0.493682 1.336206
  H 3.356792 -1.036652 0.767265
  H 1.562455 -0.933444 2.511156
  H 2.219664 0.606769 3.083720
  H 2.072091 1.409474 -1.755097
  H 6.312455 0.908277 -1.296426
  H 5.360062 -2.083790 -2.813215
  H 5.134882 -0.966268 -4.167582
  H 2.686299 -0.964796 -3.774458
  H 2.895167 -2.075058 -2.423061
  H 3.651808 -2.669290 -5.327270
  H 2.245871 -3.302870 -4.479358
  H 3.862387 -3.781065 -3.973773
  H 6.691863 0.559901 -2.855931
