 17
 0.000000
  H 1.452559 0.114721 0.336142
  C 2.534353 0.104605 0.310731
  C 3.229585 0.599722 1.543401
  H 2.505579 0.901287 2.294394
  C 3.136354 -0.339446 -0.795126
  C 4.562364 -0.415975 -0.986038
  C 5.195607 -0.857448 -2.086224
  C 4.578345 -1.364765 -3.350357
  H 3.496797 -1.345345 -3.302607
  O 6.563720 -0.887483 -2.161266
  H 3.864839 1.452306 1.314090
  H 3.864958 -0.174544 1.967475
  H 2.518929 -0.669927 -1.617932
  H 5.172406 -0.082585 -0.155434
  H 4.918572 -2.383127 -3.533449
  H 4.918974 -0.755779 -4.186693
  H 6.942860 -0.556831 -1.337226
 17
 0.675523
  H 1.451691 0.144743 0.375893
  C 2.529472 0.104925 0.308742
  C 3.270702 0.587705 1.519222
  H 2.574786 0.900428 2.290058
  C 3.097513 -0.347756 -0.810036
  C 4.520073 -0.427292 -0.999895
  C 5.181398 -0.855422 -2.079463
  C 4.596124 -1.369378 -3.357564
  H 3.518179 -1.360099 -3.326336
  O 6.547130 -0.856298 -2.101494
  H 3.909339 1.436209 1.274213
  H 3.901984 -0.199546 1.930934
  H 2.464731 -0.672465 -1.625941
  H 5.115969 -0.089180 -0.155926
  H 4.942497 -2.379999 -3.533302
  H 4.937963 -0.758499 -4.183552
  H 6.850402 -0.510810 -1.251972
 17
 2.655511
  H 1.467926 0.304151 0.414938
  C 2.525836 0.112216 0.314309
  C 3.335312 0.602299 1.475616
  H 2.679195 1.002238 2.245079
  C 3.022647 -0.442595 -0.792303
  C 4.440831 -0.597495 -0.969715
  C 5.150519 -0.879584 -2.071178
  C 4.638882 -1.342604 -3.391233
  H 3.554065 -1.401935 -3.384285
  O 6.514988 -0.757769 -2.026761
  H 4.015945 1.401120 1.172623
  H 3.923816 -0.203676 1.920599
  H 2.360115 -0.765567 -1.581888
  H 5.021826 -0.324366 -0.091768
  H 5.053427 -2.323474 -3.617193
  H 4.960724 -0.655877 -4.175641
  H 6.712256 -0.376347 -1.158897
 17
 6.352691
  H 1.476039 0.325909 0.482553
  C 2.530830 0.128268 0.312896
  C 3.399588 0.621639 1.437431
  H 2.783383 1.040335 2.222719
  C 2.958219 -0.467101 -0.801785
  C 4.372419 -0.661247 -0.983371
  C 5.127225 -0.898072 -2.061906
  C 4.680098 -1.316264 -3.422720
  H 3.595341 -1.368917 -3.465284
  O 6.486018 -0.785515 -1.908267
  H 4.077580 1.402800 1.099120
  H 3.987460 -0.180627 1.875786
  H 2.262843 -0.772362 -1.568637
  H 4.933429 -0.430030 -0.082105
  H 5.097490 -2.289471 -3.660158
  H 5.038333 -0.606093 -4.168874
  H 6.568374 -0.393225 -1.026755
 17
 13.706056
  H 1.525582 0.404332 0.535715
  C 2.557494 0.177396 0.322229
  C 3.499133 0.649169 1.383173
  H 2.934122 1.107868 2.189867
  C 2.859061 -0.484450 -0.795067
  C 4.245338 -0.798851 -1.013147
  C 5.077686 -0.934032 -2.050775
  C 4.762935 -1.277451 -3.466025
  H 3.687710 -1.386077 -3.594255
  O 6.407103 -0.775862 -1.757839
  H 4.185403 1.403454 0.994988
  H 4.077073 -0.166482 1.815553
  H 2.088760 -0.777339 -1.495250
  H 4.777559 -0.668354 -0.074356
  H 5.252964 -2.216835 -3.729441
  H 5.134775 -0.505435 -4.128524
  H 6.335577 -0.405110 -0.866300
 17
 19.112966
  H 1.547564 0.469945 0.489288
  C 2.582399 0.236198 0.317908
  C 3.544043 0.656436 1.380897
  H 3.013568 1.136287 2.188318
  C 2.839633 -0.465323 -0.787612
  C 4.178142 -0.908345 -1.020443
  C 5.051512 -0.979392 -2.035115
  C 4.792397 -1.273971 -3.478033
  H 3.720329 -1.387225 -3.657939
  O 6.359909 -0.782438 -1.713937
  H 4.267989 1.369960 0.991838
  H 4.079513 -0.189616 1.810031
  H 2.048506 -0.687563 -1.479011
  H 4.716504 -0.788861 -0.076733
  H 5.304604 -2.185381 -3.753486
  H 5.184651 -0.470160 -4.101999
  H 6.264502 -0.412034 -0.824928
 17
 19.432847
  H 1.602220 0.606626 0.547577
  C 2.572562 0.236996 0.239326
  C 3.645040 0.706063 1.190999
  H 3.197916 1.274681 2.002315
  C 2.761808 -0.588956 -0.786050
  C 4.104172 -1.118989 -0.955796
  C 5.016474 -1.029538 -1.930673
  C 4.799135 -1.105741 -3.403740
  H 3.734717 -1.139723 -3.623779
  O 6.327413 -0.928633 -1.534466
  H 4.355704 1.354929 0.680039
  H 4.200548 -0.119391 1.635278
  H 1.960487 -0.845927 -1.463127
  H 4.575731 -1.267020 0.011283
  H 5.277799 -2.009852 -3.785011
  H 5.252085 -0.252678 -3.908993
  H 6.266134 -0.445740 -0.695506
 17
 21.243881
  H 1.726858 0.866518 0.204322
  C 2.652790 0.315514 0.106964
  C 3.685235 0.707716 1.124251
  H 3.221287 1.297826 1.916165
  C 2.782004 -0.636295 -0.803892
  C 4.066462 -1.310804 -0.906587
  C 4.995429 -1.073922 -1.839390
  C 4.778821 -1.029197 -3.311484
  H 3.719898 -1.142406 -3.543709
  O 6.319919 -1.017377 -1.463579
  H 4.461800 1.323476 0.663275
  H 4.161294 -0.158076 1.581854
  H 1.974473 -0.874811 -1.474211
  H 4.492108 -1.513169 0.085113
  H 5.337943 -1.839810 -3.771061
  H 5.152363 -0.084496 -3.730844
  H 6.308654 -0.498733 -0.651962
 17
 31.440837
  H 1.833951 0.960789 0.312760
  C 2.725616 0.387848 0.102731
  C 3.793161 0.616819 1.135989
  H 3.383313 1.195876 1.964305
  C 2.737672 -0.532765 -0.858381
  C 3.960335 -1.316477 -0.977539
  C 4.959435 -1.079553 -1.867660
  C 4.868677 -1.096586 -3.354374
  H 3.863060 -1.354093 -3.667156
  O 6.207696 -0.801085 -1.342464
  H 4.619900 1.194622 0.719915
  H 4.184919 -0.310361 1.547503
  H 1.914455 -0.630895 -1.556173
  H 4.363458 -1.572494 0.000259
  H 5.571041 -1.841066 -3.732665
  H 5.150083 -0.133881 -3.780295
  H 5.964956 -0.280260 -0.572208
 17
 46.992948
  H 1.920797 0.965198 0.287980
  C 2.801651 0.373670 0.089676
  C 3.883760 0.604133 1.104787
  H 3.470980 1.167481 1.939746
  C 2.726122 -0.552979 -0.859892
  C 3.914454 -1.394225 -1.033135
  C 4.923544 -1.040815 -1.882789
  C 4.935318 -1.092029 -3.366106
  H 3.985290 -1.458479 -3.736598
  O 6.083411 -0.604892 -1.266601
  H 4.701554 1.202990 0.703008
  H 4.287473 -0.324231 1.504530
  H 1.851171 -0.637441 -1.490337
  H 4.336953 -1.641145 -0.050782
  H 5.730337 -1.756091 -3.687789
  H 5.143853 -0.115515 -3.789992
  H 5.663506 -0.093385 -0.559167
