 13
 0.000000
  C 1.049466 -0.110709 -0.038605
  C 2.545999 -0.139505 -0.038779
  C 3.258038 -1.266759 -0.045536
  C 4.701169 -1.295091 -0.045703
  C 5.411038 -2.418876 -0.052440
  H 6.486202 -2.430467 -0.052507
  H 0.688375 0.915692 -0.032455
  H 0.653425 -0.611702 0.843449
  H 0.653425 -0.601100 -0.926596
  H 3.049039 0.817624 -0.033045
  H 2.746311 -2.220318 -0.051249
  H 5.206472 -0.337815 -0.039971
  H 4.913156 -3.375578 -0.058174
 13
 7.505433
  C 0.948172 -0.093455 -0.038501
  C 2.603770 -0.136277 -0.038759
  C 3.301659 -1.264842 -0.045524
  C 4.744900 -1.306342 -0.045771
  C 5.445293 -2.436557 -0.052546
  H 6.520537 -2.455834 -0.052659
  H 0.598315 0.934275 -0.032343
  H 0.554505 -0.592620 0.842278
  H 0.554505 -0.582032 -0.925196
  H 3.109678 0.816850 -0.033050
  H 2.782131 -2.214336 -0.051213
  H 5.258004 -0.352948 -0.040061
  H 4.941325 -3.390032 -0.058260
 13
 23.583019
  C 0.848064 -0.080549 -0.038424
  C 2.662926 -0.128485 -0.038713
  C 3.337657 -1.258062 -0.045485
  C 4.783357 -1.316522 -0.045833
  C 5.469756 -2.453000 -0.052644
  H 6.545071 -2.480328 -0.052805
  H 0.519971 0.947674 -0.032262
  H 0.477200 -0.582339 0.841636
  H 0.477199 -0.571758 -0.924432
  H 3.155087 0.825242 -0.032998
  H 2.809128 -2.203441 -0.051149
  H 5.305981 -0.367767 -0.040151
  H 4.960356 -3.403390 -0.058338
 13
 39.655722
  C 0.739526 -0.089736 -0.038478
  C 2.714331 -0.076083 -0.038399
  C 3.356370 -1.229360 -0.045313
  C 4.808714 -1.326008 -0.045890
  C 5.470703 -2.488097 -0.052854
  H 6.547092 -2.530995 -0.053108
  H 0.479243 0.965607 -0.032153
  H 0.492732 -0.623612 0.877072
  H 0.492727 -0.612606 -0.960362
  H 3.108441 0.927957 -0.032383
  H 2.818248 -2.165049 -0.050919
  H 5.348442 -0.388797 -0.040277
  H 4.954089 -3.434568 -0.058525
 13
 57.424652
  C 0.639491 -0.080130 -0.038423
  C 2.773654 -0.067977 -0.038348
  C 3.399630 -1.222861 -0.045270
  C 4.848388 -1.335687 -0.045948
  C 5.490016 -2.499430 -0.052922
  H 6.565190 -2.557012 -0.053270
  H 0.399995 0.965077 -0.032160
  H 0.415828 -0.610088 0.865409
  H 0.415829 -0.599220 -0.948537
  H 3.150543 0.930667 -0.032365
  H 2.850908 -2.155707 -0.050860
  H 5.400626 -0.404150 -0.040369
  H 4.960170 -3.438144 -0.058545
 13
 73.810434
  C 0.532300 -0.067200 -0.038344
  C 2.825827 -0.058785 -0.038293
  C 3.439425 -1.218957 -0.045247
  C 4.892085 -1.348109 -0.046023
  C 5.519835 -2.517854 -0.053032
  H 6.594377 -2.586868 -0.053448
  H 0.311406 0.982503 -0.032055
  H 0.324599 -0.599193 0.869966
  H 0.324598 -0.588273 -0.952965
  H 3.195391 0.944613 -0.032281
  H 2.882553 -2.146340 -0.050804
  H 5.453932 -0.423424 -0.040485
  H 4.980302 -3.450943 -0.058622
 13
 88.079395
  C 0.425206 -0.055814 -0.038276
  C 2.878084 -0.048877 -0.038234
  C 3.479794 -1.213899 -0.045218
  C 4.931570 -1.359187 -0.046089
  C 5.544868 -2.535729 -0.053140
  H 6.618656 -2.616750 -0.053626
  H 0.224452 0.998637 -0.031958
  H 0.237267 -0.589613 0.873627
  H 0.237266 -0.578649 -0.956509
  H 3.237225 0.957830 -0.032202
  H 2.915303 -2.136618 -0.050746
  H 5.503206 -0.440784 -0.040588
  H 4.995142 -3.462869 -0.058694
 13
 99.905009
  C 0.315979 -0.044215 -0.038206
  C 2.928208 -0.039014 -0.038177
  C 3.518283 -1.207924 -0.045184
  C 4.971137 -1.370480 -0.046157
  C 5.569372 -2.553908 -0.053248
  H 6.642175 -2.647519 -0.053808
  H 0.136110 1.013180 -0.031870
  H 0.148402 -0.579336 0.876497
  H 0.148399 -0.568338 -0.959254
  H 3.277486 0.971381 -0.032122
  H 2.945857 -2.125943 -0.050684
  H 5.552985 -0.458893 -0.040696
  H 5.009016 -3.474509 -0.058764
 13
 109.376337
  C 0.205576 -0.032496 -0.038135
  C 2.977154 -0.029576 -0.038121
  C 3.556698 -1.201901 -0.045148
  C 5.008816 -1.381482 -0.046224
  C 5.592097 -2.571861 -0.053356
  H 6.663819 -2.678106 -0.053989
  H 0.045823 1.027679 -0.031782
  H 0.057560 -0.568544 0.878593
  H 0.057556 -0.557522 -0.961221
  H 3.317381 0.983122 -0.032052
  H 2.976714 -2.115325 -0.050621
  H 5.600658 -0.476610 -0.040802
  H 5.020994 -3.485886 -0.058833
 13
 116.746300
  C 0.093249 -0.020038 -0.038060
  C 3.024173 -0.020830 -0.038069
  C 3.593950 -1.196071 -0.045113
  C 5.045521 -1.392722 -0.046291
  C 5.614022 -2.589851 -0.053464
  H 6.684451 -2.708670 -0.054173
  H -0.047246 1.041922 -0.031697
  H -0.036776 -0.556694 0.880174
  H -0.036780 -0.545653 -0.962658
  H 3.357099 0.993977 -0.031988
  H 3.006293 -2.105043 -0.050560
  H 5.647284 -0.494570 -0.040910
  H 5.032311 -3.497063 -0.058900
 13
 122.324084
  C -0.020954 -0.006809 -0.037980
  C 3.069309 -0.012913 -0.038021
  C 3.630195 -1.190841 -0.045082
  C 5.080393 -1.404039 -0.046358
  C 5.634587 -2.607650 -0.053570
  H 6.703640 -2.738715 -0.054353
  H -0.143494 1.056770 -0.031608
  H -0.134902 -0.543835 0.881295
  H -0.134906 -0.532782 -0.963625
  H 3.396478 1.003071 -0.031933
  H 3.035098 -2.095311 -0.050501
  H 5.691691 -0.512491 -0.041017
  H 5.042517 -3.508169 -0.058966
 13
 126.437190
  C -0.137556 0.007507 -0.037894
  C 3.112029 -0.005945 -0.037980
  C 3.664615 -1.186377 -0.045055
  C 5.113257 -1.415597 -0.046427
  C 5.653688 -2.625323 -0.053676
  H 6.721253 -2.768216 -0.054530
  H -0.243393 1.072148 -0.031515
  H -0.237504 -0.529733 0.882129
  H -0.237508 -0.518671 -0.964289
  H 3.435180 1.010930 -0.031886
  H 3.062087 -2.086427 -0.050448
  H 5.733768 -0.530471 -0.041125
  H 5.051678 -3.519184 -0.059032
 13
 129.392062
  C -0.257080 0.023013 -0.037801
  C 3.151800 0.000082 -0.037944
  C 3.696606 -1.182795 -0.045034
  C 5.143304 -1.427314 -0.046497
  C 5.670606 -2.642769 -0.053780
  H 6.736616 -2.796970 -0.054702
  H -0.347525 1.088600 -0.031417
  H -0.345074 -0.514329 0.882712
  H -0.345078 -0.503261 -0.964686
  H 3.472404 1.017247 -0.031849
  H 3.086826 -2.078364 -0.050400
  H 5.772556 -0.548462 -0.041232
  H 5.059099 -3.530186 -0.059098
 13
 131.431287
  C -0.380561 0.039982 -0.037699
  C 3.187571 0.005261 -0.037913
  C 3.724907 -1.180039 -0.045017
  C 5.169493 -1.439213 -0.046569
  C 5.684233 -2.660028 -0.053884
  H 6.748651 -2.825061 -0.054871
  H -0.456809 1.106184 -0.031311
  H -0.458551 -0.497406 0.883157
  H -0.458555 -0.486335 -0.964929
  H 3.507040 1.022461 -0.031818
  H 3.107916 -2.071129 -0.050356
  H 5.807145 -0.566421 -0.041340
  H 5.063695 -3.541121 -0.059163
