 23
 0.000000
  H 1.438339 0.162966 0.460249
  C 2.517230 0.147634 0.420372
  C 3.268761 0.619537 1.591745
  C 2.402760 1.086571 2.754173
  H 3.022205 1.419085 3.579489
  C 3.084202 -0.322555 -0.749504
  C 4.460766 -0.415622 -0.982205
  C 5.129099 -0.871337 -2.119220
  C 4.610554 -1.389288 -3.412216
  C 3.117253 -1.495492 -3.678999
  H 2.963950 -1.894701 -4.675556
  O 6.445056 -0.871401 -2.119261
  H 3.928761 1.439895 1.285751
  H 3.930041 -0.183182 1.938871
  H 1.763991 0.279773 3.107358
  H 1.762768 1.912369 2.450526
  H 2.404034 -0.633759 -1.523248
  H 5.099477 -0.089282 -0.169346
  H 5.065437 -2.377784 -3.544200
  H 5.066254 -0.765954 -4.190228
  H 2.639736 -0.519893 -3.633281
  H 2.638935 -2.169251 -2.972465
  H 6.850943 -0.541746 -1.294378
 23
 13.608806
  H 1.402826 0.194716 0.538648
  C 2.479366 0.175160 0.488470
  C 3.244321 0.637305 1.636007
  C 2.391948 1.107624 2.806825
  H 3.022864 1.437582 3.626213
  C 3.077375 -0.339532 -0.792236
  C 4.443042 -0.430814 -1.020317
  C 5.100821 -0.883808 -2.150404
  C 4.611588 -1.400021 -3.438811
  C 3.123003 -1.512831 -3.721944
  H 2.987299 -1.913535 -4.722046
  O 6.555268 -0.878804 -2.137907
  H 3.907531 1.452921 1.320304
  H 3.908694 -0.168883 1.972646
  H 1.753973 0.304353 3.167909
  H 1.752898 1.936504 2.511502
  H 2.385450 -0.645504 -1.553173
  H 5.083989 -0.104644 -0.207724
  H 5.076177 -2.385688 -3.565029
  H 5.077010 -0.774868 -4.210792
  H 2.639061 -0.540244 -3.684968
  H 2.638315 -2.190400 -3.023753
  H 6.936537 -0.547864 -1.310062
 23
 40.743380
  H 1.364240 0.203653 0.557710
  C 2.436415 0.190339 0.523854
  C 3.227458 0.631392 1.621206
  C 2.419725 1.109083 2.812045
  H 3.081565 1.430856 3.612611
  C 3.038058 -0.352162 -0.826769
  C 4.407062 -0.428563 -1.016552
  C 5.016730 -0.886277 -2.157785
  C 4.619646 -1.403529 -3.447501
  C 3.134749 -1.518676 -3.734785
  H 3.003073 -1.920190 -4.735452
  O 6.660015 -0.866663 -2.108222
  H 3.906453 1.426685 1.286562
  H 3.907252 -0.173949 1.929018
  H 1.784405 0.314540 3.195005
  H 1.783688 1.947384 2.539487
  H 2.309680 -0.642346 -1.549928
  H 5.048775 -0.103148 -0.204701
  H 5.105752 -2.378336 -3.564668
  H 5.106372 -0.780608 -4.206001
  H 2.649647 -0.546406 -3.694651
  H 2.649666 -2.193598 -3.033774
  H 6.923436 -0.526283 -1.256474
 23
 72.646836
  H 1.311282 0.226864 0.614620
  C 2.386618 0.211000 0.573903
  C 3.223888 0.647398 1.660663
  C 2.451718 1.135593 2.879563
  H 3.138334 1.448449 3.659317
  C 2.977629 -0.354655 -0.835718
  C 4.342202 -0.434952 -1.035282
  C 4.931882 -0.889131 -2.166226
  C 4.617163 -1.409687 -3.462757
  C 3.144572 -1.560130 -3.837218
  H 3.087901 -1.964812 -4.843544
  O 6.778574 -0.851179 -2.069041
  H 3.902680 1.436076 1.304613
  H 3.903218 -0.168447 1.947774
  H 1.819902 0.348645 3.281067
  H 1.819197 1.981514 2.626615
  H 2.217786 -0.637433 -1.539689
  H 4.986151 -0.113320 -0.232685
  H 5.134535 -2.376267 -3.556439
  H 5.135831 -0.777954 -4.199418
  H 2.637273 -0.600662 -3.837579
  H 2.637214 -2.252700 -3.173180
  H 6.986305 -0.507041 -1.208577
 23
 97.355445
  H 1.309772 0.214153 0.564659
  C 2.387506 0.196056 0.523006
  C 3.225233 0.629954 1.615745
  C 2.456666 1.113471 2.831866
  H 3.147285 1.420853 3.616971
  C 2.923001 -0.331369 -0.789719
  C 4.301945 -0.423394 -1.016011
  C 4.817834 -0.879890 -2.155386
  C 4.578403 -1.393106 -3.436970
  C 3.108329 -1.554875 -3.811261
  H 3.055207 -1.965574 -4.816719
  O 7.042067 -0.842562 -2.048205
  H 3.909392 1.411872 1.262971
  H 3.898982 -0.188781 1.898928
  H 1.821835 0.324953 3.231632
  H 1.828362 1.966587 2.583272
  H 2.156304 -0.607130 -1.488687
  H 4.973890 -0.107569 -0.231937
  H 5.099675 -2.351555 -3.511318
  H 5.103961 -0.765511 -4.162085
  H 2.598673 -0.596063 -3.804394
  H 2.608796 -2.240163 -3.133532
  H 7.216380 -0.493110 -1.170240
 23
 108.962978
  H 1.309711 0.221340 0.588923
  C 2.385422 0.181222 0.508177
  C 3.230694 0.639914 1.612635
  C 2.459806 1.122177 2.829541
  H 3.143807 1.446135 3.608273
  C 2.840969 -0.319817 -0.702172
  C 4.228065 -0.448068 -1.000286
  C 4.690834 -0.889965 -2.142134
  C 4.540672 -1.392131 -3.445892
  C 3.072856 -1.573736 -3.875291
  H 3.064714 -1.963408 -4.884725
  O 7.299934 -0.817778 -2.013855
  H 3.904027 1.430634 1.250656
  H 3.915979 -0.175204 1.900785
  H 1.838669 0.329406 3.234009
  H 1.816118 1.959097 2.575665
  H 2.079715 -0.596714 -1.401921
  H 4.932870 -0.142919 -0.233356
  H 5.096484 -2.346335 -3.509376
  H 5.091544 -0.728931 -4.143219
  H 2.550095 -0.622336 -3.858935
  H 2.564356 -2.273015 -3.217824
  H 7.494628 -0.506462 -1.127476
 23
 110.267048
  H 1.270985 0.234871 0.687280
  C 2.340405 0.184839 0.532174
  C 3.242235 0.647196 1.602711
  C 2.515478 1.125693 2.851870
  H 3.229301 1.458263 3.605367
  C 2.713185 -0.305143 -0.667077
  C 4.100861 -0.448674 -1.046421
  C 4.540992 -0.896257 -2.165384
  C 4.555387 -1.407483 -3.460199
  C 3.094557 -1.594178 -3.959210
  H 3.144450 -1.992124 -4.970700
  O 7.440812 -0.788947 -1.916446
  H 3.885508 1.445645 1.210940
  H 3.934855 -0.160196 1.868407
  H 1.913863 0.323939 3.282550
  H 1.851171 1.959176 2.621301
  H 1.938518 -0.596643 -1.340642
  H 4.826926 -0.153543 -0.290072
  H 5.094106 -2.367163 -3.469114
  H 5.107659 -0.724845 -4.117003
  H 2.567782 -0.639157 -3.969275
  H 2.556079 -2.291747 -3.318839
  H 7.667536 -0.484193 -1.034492
 23
 108.281664
  H 1.235994 0.287553 0.799602
  C 2.287335 0.201254 0.568999
  C 3.239438 0.650775 1.605176
  C 2.573578 1.137830 2.880972
  H 3.318426 1.461364 3.601163
  C 2.595403 -0.296318 -0.630436
  C 3.959322 -0.475479 -1.084045
  C 4.384727 -0.918304 -2.204716
  C 4.579688 -1.417092 -3.481575
  C 3.127964 -1.620879 -4.034934
  H 3.236984 -2.009151 -5.045177
  O 7.543257 -0.743687 -1.822975
  H 3.870866 1.448647 1.195078
  H 3.926433 -0.159178 1.854134
  H 1.983251 0.345396 3.336030
  H 1.911131 1.976694 2.678780
  H 1.805491 -0.588805 -1.318618
  H 4.721874 -0.195902 -0.349596
  H 5.116081 -2.381445 -3.479527
  H 5.129822 -0.716447 -4.107274
  H 2.585450 -0.677882 -4.065145
  H 2.580253 -2.336676 -3.427136
  H 7.833186 -0.452782 -0.954995
 23
 107.669882
  H 1.199575 0.321825 0.880936
  C 2.241255 0.209563 0.604369
  C 3.233149 0.645140 1.602578
  C 2.609740 1.151645 2.898946
  H 3.384175 1.467004 3.598108
  C 2.505981 -0.300096 -0.615123
  C 3.850621 -0.500987 -1.117368
  C 4.290920 -0.934781 -2.231644
  C 4.584302 -1.423162 -3.495908
  C 3.149383 -1.639410 -4.085469
  H 3.296251 -2.023979 -5.095908
  O 7.682358 -0.708535 -1.746425
  H 3.863106 1.434617 1.174290
  H 3.917155 -0.182375 1.833438
  H 2.015926 0.368413 3.378065
  H 1.952714 2.004241 2.711293
  H 1.703136 -0.580881 -1.283650
  H 4.639206 -0.225783 -0.412459
  H 5.120998 -2.374110 -3.479361
  H 5.141242 -0.705622 -4.108788
  H 2.594458 -0.699473 -4.134359
  H 2.588910 -2.370210 -3.499101
  H 8.050210 -0.428784 -0.903688
 23
 107.400183
  H 1.161734 0.337132 0.902794
  C 2.195070 0.215049 0.604798
  C 3.218622 0.639313 1.584337
  C 2.634925 1.146609 2.893677
  H 3.426091 1.451829 3.571344
  C 2.433110 -0.297315 -0.611320
  C 3.759499 -0.513086 -1.140515
  C 4.210232 -0.947976 -2.252848
  C 4.586513 -1.425727 -3.495732
  C 3.152290 -1.636812 -4.084607
  H 3.303159 -2.019966 -5.089191
  O 7.856711 -0.676685 -1.682216
  H 3.842635 1.424914 1.142320
  H 3.895352 -0.193170 1.792481
  H 2.048401 0.371529 3.384028
  H 1.984677 2.002782 2.723930
  H 1.615224 -0.572136 -1.261587
  H 4.585395 -0.249814 -0.463881
  H 5.130127 -2.378659 -3.461648
  H 5.143066 -0.705084 -4.095087
  H 2.602347 -0.703356 -4.142790
  H 2.591113 -2.365293 -3.510113
  H 8.341841 -0.415108 -0.894155
 23
 107.493982
  H 1.140859 0.359088 0.879687
  C 2.174927 0.225558 0.589559
  C 3.194864 0.627727 1.580855
  C 2.604721 1.127820 2.886802
  H 3.391103 1.417012 3.574681
  C 2.416071 -0.277663 -0.631735
  C 3.739400 -0.494887 -1.160509
  C 4.194661 -0.929108 -2.275110
  C 4.587514 -1.433954 -3.494423
  C 3.123622 -1.634410 -4.037695
  H 3.245537 -2.046111 -5.044876
  O 8.100123 -0.657684 -1.683198
  H 3.830185 1.409294 1.151595
  H 3.862856 -0.217986 1.785616
  H 2.005765 0.356312 3.362112
  H 1.967664 1.990624 2.719121
  H 1.598794 -0.529706 -1.288635
  H 4.571055 -0.261195 -0.491854
  H 5.114265 -2.384991 -3.443301
  H 5.142649 -0.729614 -4.120537
  H 2.581936 -0.689391 -4.111188
  H 2.561111 -2.348527 -3.435089
  H 8.698418 -0.411800 -0.972928
 23
 106.668135
  H 1.146480 0.332634 0.823843
  C 2.187881 0.215056 0.557203
  C 3.176873 0.628411 1.573240
  C 2.545199 1.122022 2.865647
  H 3.311941 1.419205 3.575945
  C 2.465754 -0.289973 -0.664809
  C 3.804691 -0.502029 -1.157752
  C 4.249749 -0.950957 -2.272865
  C 4.632164 -1.441116 -3.504148
  C 3.116815 -1.583557 -3.916394
  H 3.152763 -1.980945 -4.929754
  O 8.059149 -0.700767 -1.766904
  H 3.814465 1.419872 1.160427
  H 3.849973 -0.208113 1.796407
  H 1.940927 0.342308 3.325043
  H 1.902157 1.980236 2.681695
  H 1.663741 -0.559313 -1.334289
  H 4.623100 -0.240218 -0.479862
  H 5.138380 -2.405444 -3.491226
  H 5.160896 -0.738063 -4.147342
  H 2.600063 -0.627835 -3.947603
  H 2.579841 -2.294545 -3.294508
  H 8.725098 -0.470459 -1.113044
