 16
 0.000000
  C 1.010453 0.130483 0.389455
  C 2.474440 0.132517 0.389608
  C 3.211347 0.606416 1.561417
  H 2.547084 0.928864 2.358941
  C 3.131180 -0.328266 -0.758315
  C 4.525705 -0.394965 -0.928875
  C 5.080719 -0.856735 -2.082332
  H 4.471169 -1.188417 -2.908250
  H 6.148921 -0.907709 -2.212316
  H 0.588760 0.494115 1.320681
  H 0.633055 -0.874199 0.184205
  H 0.633685 0.735888 -0.439788
  H 3.874077 1.431111 1.289852
  H 3.873234 -0.175898 1.939644
  H 2.520006 -0.662159 -1.587320
  H 5.173336 -0.072648 -0.126098
 16
 3.249571
  C 1.009650 0.096126 0.423240
  C 2.451183 0.132498 0.392639
  C 3.196290 0.619125 1.556866
  H 2.535642 0.953075 2.350572
  C 3.110177 -0.326935 -0.759890
  C 4.516474 -0.389768 -0.933567
  C 5.075824 -0.854583 -2.090784
  H 4.466645 -1.193017 -2.913764
  H 6.143845 -0.898625 -2.221184
  H 0.562486 0.474426 1.327002
  H 0.593390 -0.874899 0.174417
  H 0.836800 0.728674 -0.427658
  H 3.871151 1.432030 1.285062
  H 3.841876 -0.173149 1.941311
  H 2.498718 -0.665415 -1.589627
  H 5.163611 -0.063141 -0.131294
 16
 7.933834
  C 0.996406 0.045478 0.444052
  C 2.444117 0.122142 0.401890
  C 3.203094 0.639841 1.539322
  H 2.550729 1.001992 2.329626
  C 3.100887 -0.330939 -0.753549
  C 4.499889 -0.383943 -0.930459
  C 5.057000 -0.849044 -2.080622
  H 4.449219 -1.203471 -2.896164
  H 6.123461 -0.878477 -2.215864
  H 0.522771 0.405872 1.350598
  H 0.544053 -0.867948 0.077365
  H 1.016306 0.762770 -0.373482
  H 3.895461 1.429635 1.251374
  H 3.819191 -0.169014 1.940215
  H 2.492565 -0.680266 -1.578965
  H 5.146899 -0.048166 -0.131750
 16
 14.027662
  C 1.001358 0.021934 0.463162
  C 2.436038 0.119185 0.391427
  C 3.189115 0.654406 1.532816
  H 2.531629 1.024186 2.313738
  C 3.093536 -0.334590 -0.766920
  C 4.489760 -0.385794 -0.939430
  C 5.050267 -0.848932 -2.081656
  H 4.446831 -1.205598 -2.899395
  H 6.117257 -0.876662 -2.212120
  H 0.523014 0.367288 1.371549
  H 0.524634 -0.855899 0.044160
  H 1.156454 0.774106 -0.318266
  H 3.885417 1.439698 1.245265
  H 3.793799 -0.155426 1.945313
  H 2.487403 -0.687307 -1.592254
  H 5.132692 -0.048663 -0.139454
 16
 19.472919
  C 0.985543 0.001858 0.480811
  C 2.434663 0.119548 0.381417
  C 3.185768 0.664573 1.530071
  H 2.525918 1.039490 2.303010
  C 3.089746 -0.332854 -0.774215
  C 4.486230 -0.384476 -0.944006
  C 5.051771 -0.849826 -2.088503
  H 4.451216 -1.207324 -2.906942
  H 6.117786 -0.876974 -2.216394
  H 0.496166 0.340638 1.383098
  H 0.488135 -0.850932 0.033321
  H 1.268153 0.776888 -0.290350
  H 3.885934 1.447295 1.241243
  H 3.785018 -0.143826 1.953132
  H 2.484227 -0.686519 -1.598827
  H 5.127277 -0.046692 -0.141842
 16
 22.897851
  C 0.987273 -0.030603 0.495650
  C 2.417497 0.122081 0.373396
  C 3.183692 0.675974 1.516021
  H 2.529730 1.060004 2.291194
  C 3.081620 -0.335322 -0.781646
  C 4.480508 -0.382473 -0.948092
  C 5.051920 -0.852331 -2.081502
  H 4.455100 -1.220991 -2.902988
  H 6.122720 -0.875544 -2.204297
  H 0.493468 0.288018 1.416370
  H 0.472850 -0.815821 -0.037435
  H 1.345472 0.809940 -0.209773
  H 3.881722 1.454005 1.214277
  H 3.774296 -0.135786 1.944194
  H 2.478300 -0.702062 -1.602922
  H 5.117179 -0.037197 -0.148584
 16
 25.120469
  C 0.990570 -0.052242 0.510004
  C 2.409322 0.124351 0.364895
  C 3.176114 0.684852 1.505375
  H 2.519539 1.076598 2.280559
  C 3.080321 -0.339658 -0.793026
  C 4.472105 -0.382338 -0.952296
  C 5.054150 -0.858569 -2.085744
  H 4.473846 -1.226393 -2.895594
  H 6.104318 -0.879176 -2.200205
  H 0.512726 0.243568 1.427438
  H 0.460220 -0.789355 -0.083344
  H 1.409255 0.842421 -0.136197
  H 3.873271 1.464194 1.196457
  H 3.766680 -0.128087 1.941468
  H 2.479735 -0.713461 -1.610006
  H 5.108449 -0.028299 -0.145459
 16
 26.873390
  C 0.986655 -0.076977 0.512230
  C 2.399628 0.125908 0.358491
  C 3.173743 0.696168 1.505813
  H 2.521315 1.089228 2.274368
  C 3.073046 -0.341538 -0.795443
  C 4.475897 -0.382377 -0.955324
  C 5.062598 -0.862819 -2.086981
  H 4.476798 -1.238535 -2.908271
  H 6.125694 -0.885067 -2.198657
  H 0.503754 0.193520 1.446979
  H 0.455975 -0.747751 -0.124348
  H 1.456972 0.866509 -0.077277
  H 3.864411 1.475646 1.190654
  H 3.764213 -0.102088 1.946960
  H 2.468046 -0.720680 -1.612577
  H 5.105435 -0.027765 -0.156819
 16
 28.494260
  C 0.992141 -0.092042 0.516398
  C 2.395124 0.133559 0.355375
  C 3.172120 0.703614 1.500886
  H 2.513231 1.102253 2.275761
  C 3.073305 -0.341094 -0.800597
  C 4.470337 -0.380001 -0.957879
  C 5.058997 -0.865413 -2.085084
  H 4.477843 -1.243064 -2.901849
  H 6.119709 -0.889136 -2.193579
  H 0.512481 0.155421 1.447361
  H 0.450769 -0.725507 -0.161677
  H 1.502331 0.884095 -0.033836
  H 3.862249 1.488449 1.177227
  H 3.770808 -0.096784 1.949478
  H 2.469822 -0.724192 -1.614896
  H 5.101794 -0.018662 -0.155480
 16
 30.030261
  C 0.990219 -0.105900 0.518041
  C 2.396580 0.142332 0.354001
  C 3.176558 0.709813 1.501220
  H 2.526465 1.104557 2.266323
  C 3.077344 -0.338319 -0.802784
  C 4.467751 -0.372678 -0.958916
  C 5.059345 -0.864294 -2.083503
  H 4.478779 -1.251458 -2.898696
  H 6.120893 -0.891410 -2.188252
  H 0.500269 0.131340 1.456661
  H 0.448273 -0.706221 -0.185995
  H 1.539485 0.894786 -0.009620
  H 3.855689 1.485624 1.179802
  H 3.768765 -0.080200 1.944506
  H 2.477740 -0.725412 -1.612277
  H 5.094024 -0.007572 -0.162378
 16
 31.708039
  C 0.996935 -0.113920 0.524831
  C 2.394937 0.152102 0.355576
  C 3.174951 0.710331 1.499995
  H 2.518080 1.108135 2.272310
  C 3.079703 -0.334356 -0.803057
  C 4.466753 -0.369321 -0.955830
  C 5.059033 -0.864701 -2.073970
  H 4.473399 -1.256993 -2.899330
  H 6.124179 -0.884424 -2.179746
  H 0.508270 0.115746 1.454843
  H 0.445900 -0.700338 -0.207028
  H 1.575627 0.903351 0.009429
  H 3.873721 1.507629 1.169541
  H 3.763905 -0.082437 1.940556
  H 2.473685 -0.730376 -1.622199
  H 5.086855 -0.001866 -0.166826
 16
 33.159742
  C 0.988221 -0.129065 0.525120
  C 2.394924 0.164103 0.346229
  C 3.178796 0.718018 1.500682
  H 2.524328 1.111776 2.272206
  C 3.082082 -0.325114 -0.815439
  C 4.467420 -0.356846 -0.969815
  C 5.058456 -0.859969 -2.083341
  H 4.480880 -1.269850 -2.885574
  H 6.125616 -0.901157 -2.180763
  H 0.495696 0.098382 1.459936
  H 0.447840 -0.690657 -0.204225
  H 1.598941 0.918584 0.008207
  H 3.857151 1.497558 1.182623
  H 3.772206 -0.078402 1.940441
  H 2.487816 -0.717730 -1.616509
  H 5.097454 0.013965 -0.167913
 16
 34.453961
  C 0.987812 -0.144299 0.532463
  C 2.393520 0.177267 0.342920
  C 3.183350 0.718214 1.503539
  H 2.529941 1.114417 2.276837
  C 3.082003 -0.321849 -0.812648
  C 4.469895 -0.349899 -0.967087
  C 5.064056 -0.863706 -2.077912
  H 4.484256 -1.279324 -2.884339
  H 6.133033 -0.895485 -2.178164
  H 0.494243 0.088563 1.461815
  H 0.439222 -0.691730 -0.213894
  H 1.630157 0.942626 0.006350
  H 3.867790 1.499216 1.188366
  H 3.770655 -0.082681 1.938778
  H 2.484081 -0.724758 -1.615706
  H 5.095414 0.032494 -0.174507
 16
 35.874332
  C 0.988870 -0.161055 0.538975
  C 2.392201 0.189836 0.339144
  C 3.187074 0.720798 1.505050
  H 2.535575 1.116322 2.277539
  C 3.082481 -0.312234 -0.815097
  C 4.470601 -0.334019 -0.970722
  C 5.067037 -0.856773 -2.079347
  H 4.487337 -1.293778 -2.877003
  H 6.137982 -0.904398 -2.170689
  H 0.493799 0.074748 1.464794
  H 0.436766 -0.699288 -0.217477
  H 1.663930 0.967004 -0.000127
  H 3.874133 1.501291 1.194082
  H 3.771527 -0.087901 1.940065
  H 2.482806 -0.721179 -1.618232
  H 5.095065 0.048700 -0.177936
