 19
 0.000000
  C 0.988093 0.164782 0.442339
  C 2.446793 0.121878 0.353439
  H 3.049105 0.451593 1.187322
  C 3.047501 -0.336938 -0.797958
  C 4.435850 -0.409797 -0.979615
  C 5.097707 -0.858596 -2.099783
  C 4.622291 -1.378301 -3.387027
  C 3.146272 -1.517246 -3.716398
  H 3.042218 -1.921501 -4.718050
  H 6.179618 -0.838668 -2.070460
  H 0.622101 0.542538 1.391422
  H 0.576124 -0.832965 0.272084
  H 0.596655 0.781919 -0.370320
  H 2.396182 -0.653253 -1.595773
  H 5.048418 -0.078070 -0.150258
  H 5.106902 -2.357610 -3.511823
  H 5.100282 -0.755158 -4.156870
  H 2.644839 -0.552202 -3.694448
  H 2.651638 -2.200586 -3.029701
 19
 0.223183
  C 1.002082 0.337340 0.477183
  C 2.419368 0.016515 0.359514
  H 3.071952 0.249996 1.190760
  C 2.968025 -0.497773 -0.791895
  C 4.360264 -0.559879 -0.965427
  C 5.056342 -0.786852 -2.131649
  C 4.639013 -1.271691 -3.444738
  C 3.211132 -1.712786 -3.705511
  H 3.149691 -2.155007 -4.697725
  H 6.119582 -0.578458 -2.081788
  H 0.716236 0.610962 1.486823
  H 0.375082 -0.472517 0.101217
  H 0.791042 1.182605 -0.187692
  H 2.306684 -0.773401 -1.596800
  H 4.953100 -0.278634 -0.102787
  H 5.323963 -2.098822 -3.687059
  H 4.933168 -0.506535 -4.178711
  H 2.525377 -0.869451 -3.684008
  H 2.890965 -2.460516 -2.985600
 19
 3.982579
  C 1.075023 0.453992 0.374490
  C 2.431140 -0.081983 0.394370
  H 3.070123 0.152236 1.235963
  C 2.970052 -0.718538 -0.698801
  C 4.358884 -0.695059 -0.905621
  C 4.985604 -0.690676 -2.129492
  C 4.570675 -1.159796 -3.450518
  C 3.214596 -1.807561 -3.661793
  H 3.158978 -2.196002 -4.675624
  H 5.995913 -0.296855 -2.125282
  H 0.783125 0.899650 1.318428
  H 0.345997 -0.290870 0.052375
  H 1.060937 1.221524 -0.407689
  H 2.308211 -1.058780 -1.478524
  H 4.960327 -0.407942 -0.051029
  H 5.354533 -1.873464 -3.750274
  H 4.712840 -0.336334 -4.163562
  H 2.409579 -1.085397 -3.549329
  H 3.059316 -2.636548 -2.976287
 19
 9.898574
  C 1.178548 0.549383 0.231152
  C 2.449451 -0.149826 0.417545
  H 3.059932 0.099861 1.275985
  C 2.995319 -0.895291 -0.604913
  C 4.374911 -0.764556 -0.853194
  C 4.894742 -0.606234 -2.115502
  C 4.475512 -1.092689 -3.431184
  C 3.192887 -1.884331 -3.601470
  H 3.101763 -2.194349 -4.639895
  H 5.844863 -0.079627 -2.155955
  H 0.895411 1.144127 1.090482
  H 0.373058 -0.125308 -0.058942
  H 1.340494 1.203457 -0.637849
  H 2.342492 -1.330908 -1.343363
  H 4.981259 -0.420087 -0.024014
  H 5.317158 -1.722292 -3.759039
  H 4.500831 -0.252411 -4.137779
  H 2.320325 -1.278094 -3.369903
  H 3.192785 -2.777590 -2.984710
 19
 15.929087
  C 1.270787 0.587779 0.109475
  C 2.487788 -0.162476 0.420714
  H 3.081544 0.129741 1.278617
  C 3.031557 -1.005448 -0.527859
  C 4.397526 -0.810014 -0.820222
  C 4.810236 -0.540457 -2.101122
  C 4.401765 -1.062130 -3.409831
  C 3.139939 -1.895684 -3.557173
  H 3.047548 -2.221811 -4.589738
  H 5.710031 0.065494 -2.167871
  H 0.975214 1.261630 0.904219
  H 0.444016 -0.056004 -0.188238
  H 1.542702 1.159921 -0.787423
  H 2.380336 -1.491277 -1.240066
  H 5.024031 -0.465368 -0.006659
  H 5.260479 -1.676671 -3.723374
  H 4.395577 -0.236829 -4.130075
  H 2.253407 -1.312862 -3.321530
  H 3.174370 -2.783808 -2.932162
 19
 25.218334
  C 1.440433 0.640958 -0.072333
  C 2.518549 -0.216467 0.428608
  H 3.153924 0.169940 1.218179
  C 3.036697 -1.160535 -0.435943
  C 4.390855 -0.907091 -0.757399
  C 4.674949 -0.489119 -2.032934
  C 4.257360 -0.960124 -3.360411
  C 3.092280 -1.926477 -3.499049
  H 3.035722 -2.270167 -4.528878
  H 5.534783 0.171113 -2.100590
  H 1.132742 1.396375 0.638794
  H 0.586123 0.080982 -0.453842
  H 1.916504 1.106270 -0.951039
  H 2.384865 -1.661673 -1.134266
  H 5.042771 -0.586286 0.045307
  H 5.159537 -1.446178 -3.760663
  H 4.108648 -0.092183 -4.013720
  H 2.147217 -1.444258 -3.263815
  H 3.227946 -2.803652 -2.869622
 19
 36.101041
  C 1.610991 0.678074 -0.210536
  C 2.553716 -0.240663 0.429632
  H 3.139908 0.100564 1.277092
  C 3.041358 -1.262910 -0.376475
  C 4.369253 -0.946888 -0.723151
  C 4.525004 -0.416575 -1.979494
  C 4.147984 -0.890199 -3.325910
  C 3.062481 -1.938160 -3.475561
  H 3.018893 -2.259316 -4.511395
  H 5.350489 0.294802 -2.041787
  H 1.367867 1.539268 0.399894
  H 0.716191 0.189941 -0.596041
  H 2.187633 0.976454 -1.098983
  H 2.376882 -1.762059 -1.076771
  H 5.046882 -0.631850 0.061826
  H 5.083028 -1.291728 -3.740204
  H 3.918065 -0.022137 -3.955856
  H 2.090855 -1.539065 -3.218015
  H 3.273758 -2.816149 -2.868110
 19
 45.822422
  C 1.719746 0.669000 -0.309293
  C 2.634310 -0.235489 0.432299
  H 3.195812 0.128860 1.266497
  C 3.042893 -1.333345 -0.317689
  C 4.371025 -0.974614 -0.719087
  C 4.432117 -0.372611 -1.944104
  C 4.090740 -0.843964 -3.293665
  C 3.012542 -1.907841 -3.458738
  H 2.942649 -2.195185 -4.506877
  H 5.204907 0.392276 -1.976594
  H 1.511971 1.599992 0.193868
  H 0.816911 0.192472 -0.695821
  H 2.333907 0.824600 -1.208426
  H 2.363716 -1.770587 -1.036389
  H 5.072736 -0.640849 0.056144
  H 5.035296 -1.260075 -3.679735
  H 3.874420 0.019166 -3.932588
  H 2.042206 -1.528578 -3.159940
  H 3.248977 -2.810703 -2.884404
 19
 61.631814
  C 1.874413 0.637636 -0.432433
  C 2.607296 -0.307008 0.442688
  H 3.116096 0.066189 1.309392
  C 3.089425 -1.409002 -0.288332
  C 4.360776 -0.910102 -0.687131
  C 4.294606 -0.254378 -1.915459
  C 4.012259 -0.786948 -3.264751
  C 2.944905 -1.860015 -3.417383
  H 2.932203 -2.200429 -4.445477
  H 5.064855 0.514321 -1.973614
  H 1.706578 1.615412 0.004174
  H 0.985840 0.244312 -0.911665
  H 2.645603 0.698176 -1.297858
  H 2.444376 -1.966338 -0.949200
  H 5.113976 -0.613915 0.035002
  H 4.974639 -1.176775 -3.651638
  H 3.766519 0.053275 -3.912081
  H 1.956887 -1.465184 -3.192778
  H 3.149480 -2.718814 -2.792824
 19
 78.760223
  C 1.979315 0.590222 -0.449929
  C 2.668316 -0.282179 0.470182
  H 3.239425 0.119662 1.291596
  C 3.010937 -1.446991 -0.235718
  C 4.249867 -0.958914 -0.649527
  C 4.143350 -0.146759 -1.886566
  C 3.942430 -0.699222 -3.260435
  C 2.961269 -1.850978 -3.424706
  H 2.970233 -2.183122 -4.459786
  H 4.907964 0.627105 -1.897207
  H 1.863002 1.619039 -0.143390
  H 1.135619 0.201852 -1.004904
  H 2.999039 0.526803 -1.471427
  H 2.308307 -1.908925 -0.912943
  H 5.028960 -0.695198 0.051286
  H 4.924923 -1.026779 -3.625850
  H 3.653426 0.126934 -3.917038
  H 1.946322 -1.540126 -3.191112
  H 3.237745 -2.700598 -2.806486
 19
 65.082003
  C 1.845577 0.563271 -0.303159
  C 2.584544 -0.267246 0.530306
  H 3.113621 0.104834 1.388506
  C 3.046845 -1.374304 -0.260755
  C 4.290557 -0.914758 -0.698443
  C 4.205064 -0.106382 -1.955880
  C 4.001991 -0.728039 -3.327750
  C 2.958577 -1.791140 -3.432546
  H 2.967800 -2.190088 -4.442416
  H 5.029948 0.602344 -1.991157
  H 1.670865 1.583448 0.026846
  H 1.076269 0.172914 -0.959621
  H 3.254701 0.499941 -1.675184
  H 2.352818 -1.855364 -0.948525
  H 5.084814 -0.661952 0.000371
  H 4.954627 -1.142269 -3.651569
  H 3.779940 0.091375 -4.017494
  H 1.966009 -1.396506 -3.252726
  H 3.160565 -2.611052 -2.750698
 19
 46.044783
  C 1.634667 0.594706 0.043242
  C 2.524469 -0.239665 0.617951
  H 3.102757 0.031612 1.488469
  C 3.013922 -1.190097 -0.338438
  C 4.263934 -0.813263 -0.802898
  C 4.287363 -0.072569 -2.082138
  C 4.137765 -0.805876 -3.430101
  C 3.016758 -1.824405 -3.526181
  H 3.064132 -2.307234 -4.500898
  H 5.178545 0.551510 -2.121527
  H 1.434051 1.551777 0.496634
  H 0.919731 0.269454 -0.693626
  H 3.398952 0.582972 -1.936532
  H 2.293244 -1.661069 -0.999398
  H 5.044084 -0.583859 -0.087925
  H 5.086876 -1.303707 -3.639775
  H 4.001671 -0.035026 -4.189620
  H 2.041020 -1.353603 -3.447909
  H 3.118738 -2.602125 -2.776330
 19
 35.058921
  C 1.446686 0.516264 0.210749
  C 2.493649 -0.224127 0.628441
  H 3.073527 0.028614 1.503001
  C 3.039360 -1.055485 -0.402639
  C 4.292946 -0.674839 -0.841681
  C 4.410338 -0.034186 -2.168071
  C 4.246617 -0.882244 -3.453389
  C 3.016245 -1.763955 -3.546646
  H 3.013715 -2.258495 -4.516020
  H 5.350697 0.509714 -2.237987
  H 1.131437 1.387741 0.760759
  H 0.824834 0.222216 -0.618431
  H 3.578305 0.682991 -2.124392
  H 2.335369 -1.507368 -1.092345
  H 5.101657 -0.542381 -0.132119
  H 5.139232 -1.501387 -3.546273
  H 4.243116 -0.173691 -4.284260
  H 2.100655 -1.181458 -3.484308
  H 3.021938 -2.542195 -2.791395
 19
 26.419563
  C 1.330464 0.532016 0.483894
  C 2.450202 -0.204866 0.642160
  H 3.094133 -0.086223 1.501774
  C 2.938563 -0.857964 -0.527305
  C 4.225733 -0.584373 -0.934542
  C 4.479568 -0.019483 -2.266234
  C 4.370929 -0.935529 -3.515799
  C 3.140378 -1.810990 -3.624815
  H 3.191809 -2.369529 -4.559234
  H 5.458970 0.455166 -2.286375
  H 1.046253 1.280382 1.202758
  H 0.662922 0.373434 -0.346023
  H 3.699145 0.750348 -2.352021
  H 2.208542 -1.238256 -1.231396
  H 5.001514 -0.476227 -0.185299
  H 5.259758 -1.569252 -3.521218
  H 4.421384 -0.270945 -4.378020
  H 2.228892 -1.218034 -3.654965
  H 3.090793 -2.542259 -2.824389
 19
 24.001072
  C 1.265625 0.481596 0.536093
  C 2.404261 -0.237286 0.644811
  H 3.045445 -0.146043 1.510509
  C 2.927410 -0.799352 -0.568743
  C 4.222325 -0.489836 -0.940471
  C 4.583601 -0.056591 -2.300370
  C 4.360373 -0.952664 -3.533892
  C 3.129077 -1.830960 -3.598145
  H 3.134583 -2.368769 -4.546056
  H 5.611032 0.310517 -2.317887
  H 0.939559 1.138589 1.321264
  H 0.656493 0.419390 -0.346432
  H 3.920406 0.822977 -2.396541
  H 2.196324 -1.077307 -1.316830
  H 4.939791 -0.273504 -0.157683
  H 5.235161 -1.605767 -3.565664
  H 4.396149 -0.314623 -4.414823
  H 2.214912 -1.244662 -3.582838
  H 3.117422 -2.568291 -2.803349
