 28
 0.000000
  C 0.958764 0.143827 0.402952
  C 2.432502 0.136488 0.399354
  C 3.222430 0.603209 1.560118
  C 2.457945 1.098010 2.784443
  C 3.423467 1.537704 3.880848
  C 3.051467 -0.328624 -0.757638
  C 4.434895 -0.409846 -0.969424
  C 5.096976 -0.855915 -2.087965
  C 4.627084 -1.375957 -3.383611
  C 3.145500 -1.507534 -3.702723
  H 3.020619 -1.908030 -4.701773
  H 6.177694 -0.840571 -2.057364
  H 0.530203 0.523838 1.323003
  H 0.575287 -0.864777 0.239707
  H 0.590934 0.753003 -0.424216
  H 3.883479 1.409149 1.220989
  H 3.880345 -0.214869 1.875540
  H 1.819836 0.304946 3.178613
  H 1.823310 1.945216 2.517979
  H 4.057497 0.712330 4.197053
  H 2.871892 1.888765 4.749499
  H 4.060893 2.349511 3.537466
  H 2.394036 -0.646686 -1.549651
  H 5.061451 -0.081639 -0.149893
  H 5.100393 -2.359399 -3.504950
  H 5.096375 -0.746250 -4.151190
  H 2.655116 -0.537150 -3.666194
  H 2.659268 -2.186457 -3.005513
 28
 0.071209
  C 0.950746 -0.063046 0.500781
  C 2.417883 0.037148 0.436901
  C 3.209438 0.645592 1.526238
  C 2.461366 1.126333 2.768751
  C 3.434682 1.722441 3.780849
  C 3.030349 -0.452219 -0.715015
  C 4.409392 -0.630984 -0.886946
  C 5.067030 -1.096402 -1.999326
  C 4.625536 -1.384733 -3.370224
  C 3.177989 -1.192116 -3.787956
  H 3.089988 -1.377940 -4.856422
  H 6.130273 -1.260465 -1.869897
  H 0.538648 0.258327 1.450892
  H 0.646772 -1.093470 0.302904
  H 0.503386 0.533470 -0.298955
  H 3.766340 1.492370 1.107589
  H 3.979598 -0.068773 1.840024
  H 1.936580 0.293781 3.237842
  H 1.729433 1.887425 2.500041
  H 4.170965 0.986244 4.094478
  H 2.901120 2.060178 4.665583
  H 3.960323 2.576291 3.360191
  H 2.371053 -0.761584 -1.510507
  H 5.037958 -0.431928 -0.028671
  H 4.938087 -2.413917 -3.593938
  H 5.270749 -0.780459 -4.023577
  H 2.844659 -0.174310 -3.598322
  H 2.521736 -1.896202 -3.280669
 28
 1.482281
  C 0.960847 -0.211001 0.571129
  C 2.406921 0.032407 0.437789
  C 3.187093 0.737148 1.474693
  C 2.481908 1.093577 2.780303
  C 3.438024 1.818186 3.722170
  C 3.015767 -0.438578 -0.724677
  C 4.370464 -0.759372 -0.856543
  C 5.014263 -1.280968 -1.953072
  C 4.612585 -1.428388 -3.355956
  C 3.244060 -0.965984 -3.826037
  H 3.190919 -1.057681 -4.908169
  H 6.026204 -1.625037 -1.774963
  H 0.563503 0.092200 1.531668
  H 0.773094 -1.275756 0.418258
  H 0.413987 0.303724 -0.219740
  H 3.573142 1.661372 1.024775
  H 4.083878 0.154292 1.705652
  H 2.124535 0.187582 3.270850
  H 1.626226 1.742762 2.587520
  H 4.299576 1.196357 3.958967
  H 2.936345 2.064329 4.654368
  H 3.794781 2.744601 3.278531
  H 2.356713 -0.673211 -1.544598
  H 4.975136 -0.682955 0.037545
  H 4.758809 -2.482711 -3.626267
  H 5.386501 -0.908958 -3.939082
  H 3.070514 0.075121 -3.569587
  H 2.452936 -1.583875 -3.411725
 28
 4.118948
  C 0.993172 -0.330200 0.621378
  C 2.397654 0.070348 0.429786
  C 3.161580 0.815321 1.446638
  C 2.503917 1.055437 2.797121
  C 3.428161 1.864990 3.703102
  C 3.007807 -0.348226 -0.755698
  C 4.318287 -0.818943 -0.848154
  C 4.941644 -1.397115 -1.927420
  C 4.579150 -1.483313 -3.348648
  C 3.302067 -0.843438 -3.860081
  H 3.272236 -0.929367 -4.944051
  H 5.889510 -1.875202 -1.712291
  H 0.613144 -0.087886 1.604324
  H 0.939371 -1.406624 0.457688
  H 0.350833 0.120360 -0.134043
  H 3.417359 1.786423 1.007421
  H 4.136392 0.327799 1.597641
  H 2.284052 0.100980 3.278788
  H 1.570876 1.603152 2.674499
  H 4.370079 1.342716 3.868617
  H 2.960797 2.028166 4.670993
  H 3.646774 2.836888 3.268251
  H 2.360235 -0.470117 -1.608836
  H 4.887258 -0.833665 0.072640
  H 4.595460 -2.544945 -3.626482
  H 5.434121 -1.061757 -3.894987
  H 3.261971 0.211688 -3.607005
  H 2.422192 -1.349943 -3.473664
 28
 7.800496
  C 1.069649 -0.423888 0.633830
  C 2.421700 0.116243 0.424300
  C 3.158163 0.887064 1.436327
  C 2.521962 1.046509 2.813842
  C 3.402452 1.911105 3.710776
  C 3.035704 -0.254816 -0.779463
  C 4.288724 -0.854733 -0.845418
  C 4.878106 -1.476013 -1.919784
  C 4.535143 -1.522927 -3.349091
  C 3.336556 -0.752927 -3.880984
  H 3.310528 -0.843363 -4.964613
  H 5.764665 -2.054063 -1.688746
  H 0.692836 -0.256098 1.634286
  H 1.152144 -1.492287 0.423911
  H 0.359633 -0.025866 -0.092173
  H 3.327125 1.885666 1.010816
  H 4.168667 0.473947 1.539611
  H 2.395747 0.068150 3.280628
  H 1.542144 1.517738 2.727920
  H 4.386591 1.465740 3.837886
  H 2.952400 2.016102 4.694747
  H 3.527964 2.906757 3.291189
  H 2.405731 -0.271082 -1.656527
  H 4.829582 -0.938143 0.089379
  H 4.444558 -2.580366 -3.628952
  H 5.438012 -1.188886 -3.878761
  H 3.406552 0.303567 -3.636135
  H 2.402951 -1.160764 -3.502490
 28
 12.451872
  C 1.121622 -0.602320 0.741178
  C 2.413340 0.038483 0.460766
  C 3.134502 0.894678 1.411301
  C 2.547256 1.061858 2.809669
  C 3.400854 2.019200 3.635533
  C 3.013746 -0.306028 -0.771279
  C 4.196756 -1.021317 -0.841658
  C 4.794611 -1.587887 -1.933650
  C 4.518282 -1.486049 -3.374489
  C 3.409284 -0.574041 -3.876404
  H 3.410632 -0.581206 -4.964132
  H 5.620063 -2.253410 -1.714960
  H 0.800904 -0.476635 1.767679
  H 1.270183 -1.657287 0.503252
  H 0.334048 -0.242074 0.077345
  H 3.217155 1.883730 0.940103
  H 4.176970 0.555226 1.477816
  H 2.511114 0.095828 3.316028
  H 1.533569 1.459212 2.750026
  H 4.418380 1.648105 3.734890
  H 2.985505 2.130643 4.634056
  H 3.438127 3.004337 3.175971
  H 2.420811 -0.155741 -1.662507
  H 4.674374 -1.236549 0.106295
  H 4.346373 -2.504343 -3.745498
  H 5.466770 -1.189004 -3.841081
  H 3.564886 0.450898 -3.549928
  H 2.432189 -0.923787 -3.554115
 28
 18.050031
  C 1.199450 -0.777633 0.872118
  C 2.424662 -0.062477 0.516023
  C 3.113476 0.883163 1.396558
  C 2.561935 1.086129 2.806067
  C 3.382634 2.135240 3.551950
  C 3.006163 -0.373596 -0.742556
  C 4.107834 -1.203090 -0.858831
  C 4.716952 -1.697498 -1.987814
  C 4.499335 -1.438063 -3.420935
  C 3.466006 -0.410085 -3.856325
  H 3.490799 -0.320573 -4.939935
  H 5.491164 -2.431856 -1.810660
  H 0.932824 -0.667359 1.915077
  H 1.357045 -1.825560 0.612752
  H 0.355206 -0.443364 0.262158
  H 3.125368 1.849641 0.873632
  H 4.178909 0.609725 1.441648
  H 2.601976 0.147609 3.362165
  H 1.524126 1.418671 2.762127
  H 4.424251 1.830890 3.633370
  H 2.994174 2.273982 4.558256
  H 3.344287 3.095673 3.042452
  H 2.475731 -0.032735 -1.619813
  H 4.524631 -1.558484 0.077927
  H 4.269005 -2.401757 -3.892384
  H 5.477895 -1.162084 -3.834139
  H 3.685808 0.568872 -3.438152
  H 2.461624 -0.719131 -3.580554
 28
 24.596249
  C 1.373967 -0.930227 0.968420
  C 2.502536 -0.105934 0.568509
  C 3.106864 0.919876 1.408849
  C 2.561743 1.107882 2.821367
  C 3.296081 2.244149 3.527804
  C 3.097996 -0.381887 -0.720758
  C 4.064022 -1.346098 -0.898305
  C 4.629367 -1.808209 -2.071376
  C 4.419789 -1.440897 -3.487398
  C 3.467213 -0.307914 -3.844023
  H 3.481643 -0.160203 -4.922431
  H 5.347710 -2.608132 -1.952547
  H 1.130324 -0.847626 2.021699
  H 1.558977 -1.965677 0.675157
  H 0.493477 -0.639605 0.386263
  H 3.030703 1.874475 0.865899
  H 4.191023 0.743198 1.436255
  H 2.695924 0.191216 3.398433
  H 1.497890 1.343724 2.788555
  H 4.361550 2.036858 3.597850
  H 2.913046 2.371523 4.536816
  H 3.163253 3.184962 2.998047
  H 2.668070 0.132522 -1.565850
  H 4.439707 -1.810701 0.005372
  H 4.104865 -2.352726 -4.011376
  H 5.410751 -1.216372 -3.901846
  H 3.776498 0.625554 -3.379991
  H 2.444959 -0.549163 -3.562522
 28
 17.356274
  C 1.564406 -1.088573 1.046064
  C 2.609279 -0.173342 0.591195
  C 3.125177 0.933617 1.405979
  C 2.549004 1.110517 2.807095
  C 3.191206 2.311944 3.496871
  C 3.203861 -0.422021 -0.680120
  C 4.035048 -1.504439 -0.939249
  C 4.558824 -1.901861 -2.147409
  C 4.336149 -1.444509 -3.529834
  C 3.420993 -0.262907 -3.810206
  H 3.418025 -0.066371 -4.879458
  H 5.252613 -2.732491 -2.097103
  H 1.362231 -1.024426 2.106531
  H 1.760047 -2.112176 0.732233
  H 0.647640 -0.822965 0.506758
  H 2.984207 1.870660 0.846126
  H 4.215313 0.830953 1.456691
  H 2.741873 0.218875 3.407159
  H 1.470493 1.267942 2.756326
  H 4.267852 2.182644 3.583833
  H 2.786552 2.433259 4.498320
  H 2.998999 3.229262 2.943976
  H 2.947881 0.261075 -1.474523
  H 4.344946 -2.081535 -0.076623
  H 3.979802 -2.317759 -4.090936
  H 5.326270 -1.235322 -3.954736
  H 3.777015 0.637554 -3.315242
  H 2.396664 -0.477594 -3.513858
 28
 11.358447
  C 1.790632 -1.188597 1.112470
  C 2.747167 -0.192086 0.628299
  C 3.135520 0.999381 1.400616
  C 2.553743 1.141786 2.803543
  C 3.041000 2.433389 3.453089
  C 3.314202 -0.416336 -0.642823
  C 3.995170 -1.587472 -0.976934
  C 4.413730 -1.990063 -2.219484
  C 4.210129 -1.434289 -3.568247
  C 3.472822 -0.117069 -3.757791
  H 3.445087 0.121494 -4.818763
  H 4.986779 -2.909484 -2.237871
  H 1.637966 -1.171408 2.185528
  H 2.045156 -2.180225 0.739852
  H 0.830480 -0.966850 0.634765
  H 2.873959 1.894650 0.819266
  H 4.229946 1.028076 1.445671
  H 2.864150 0.300681 3.425537
  H 1.464217 1.157171 2.760950
  H 4.125996 2.446464 3.528860
  H 2.633693 2.529132 4.456410
  H 2.726570 3.302033 2.879054
  H 3.160253 0.340498 -1.396634
  H 4.276838 -2.224857 -0.148880
  H 3.704059 -2.217594 -4.147987
  H 5.202567 -1.358066 -4.030378
  H 3.986678 0.698824 -3.256598
  H 2.445494 -0.185618 -3.409158
 28
 6.048755
  C 2.010836 -1.278628 1.153227
  C 2.887263 -0.218124 0.647383
  C 3.153869 1.023783 1.398701
  C 2.528771 1.142977 2.784453
  C 2.880363 2.485965 3.417121
  C 3.481093 -0.411512 -0.602368
  C 4.026812 -1.633928 -1.019335
  C 4.361392 -2.019879 -2.291374
  C 4.089871 -1.416143 -3.605526
  C 3.421217 -0.054051 -3.701511
  H 3.296748 0.206052 -4.750307
  H 4.869699 -2.973411 -2.371403
  H 1.920179 -1.298223 2.233433
  H 2.298296 -2.239427 0.729766
  H 1.011020 -1.090829 0.748153
  H 2.824680 1.876605 0.790510
  H 4.239938 1.149301 1.472388
  H 2.897942 0.346713 3.433178
  H 1.443697 1.056659 2.716473
  H 3.957481 2.599234 3.517546
  H 2.441036 2.564215 4.408372
  H 2.503390 3.310882 2.816894
  H 3.512216 0.428209 -1.279629
  H 4.274435 -2.332860 -0.230264
  H 3.490891 -2.152698 -4.158170
  H 5.042970 -1.390981 -4.148971
  H 4.034238 0.720292 -3.248249
  H 2.436286 -0.065048 -3.241828
 28
 5.558370
  C 2.168223 -1.278044 1.044941
  C 3.055018 -0.186213 0.624620
  C 3.220242 1.057525 1.402840
  C 2.451808 1.148502 2.716232
  C 2.714482 2.484298 3.404469
  C 3.759144 -0.373391 -0.557089
  C 4.157278 -1.645591 -1.025599
  C 4.352274 -2.050279 -2.316592
  C 3.920065 -1.434708 -3.581778
  C 3.338249 -0.031128 -3.568010
  H 3.018913 0.234053 -4.573141
  H 4.779487 -3.036722 -2.450131
  H 2.055229 -1.368866 2.119032
  H 2.493140 -2.189873 0.545902
  H 1.173469 -1.081336 0.632601
  H 2.928753 1.902757 0.766027
  H 4.289095 1.209774 1.589513
  H 2.763637 0.346630 3.388130
  H 1.381552 1.044748 2.533408
  H 3.773578 2.610862 3.617932
  H 2.173295 2.538069 4.345807
  H 2.389974 3.315303 2.782140
  H 4.015315 0.493546 -1.147846
  H 4.445697 -2.354727 -0.258118
  H 3.192084 -2.126981 -4.026163
  H 4.773920 -1.471677 -4.269772
  H 4.079618 0.700611 -3.259801
  H 2.472887 0.028258 -2.912423
