 20
 0.000000
  C 1.006879 -0.071652 0.047396
  C 2.503151 -0.082166 0.026756
  C 3.219996 -0.594627 -0.979294
  C 4.657573 -0.605416 -1.000471
  C 5.377957 -1.120658 -2.011978
  C 6.815921 -1.131207 -2.032682
  C 7.534363 -1.642826 -3.037083
  C 9.024363 -1.661940 -3.074603
  H 0.643345 0.394283 0.962098
  H 0.611891 -1.086578 0.007725
  H 0.611893 0.492995 -0.796891
  H 3.002983 0.353347 0.881744
  H 2.709518 -1.028225 -1.830509
  H 5.161273 -0.170338 -0.146343
  H 4.873244 -1.555456 -2.865559
  H 7.322952 -0.696810 -1.179890
  H 7.036920 -2.079397 -3.894126
  H 9.457153 -1.208624 -2.184671
  H 9.384013 -1.116177 -3.948246
  H 9.384012 -2.689507 -3.146820
 20
 0.673345
  C 1.007906 -0.067049 0.068196
  C 2.501865 -0.104268 0.033565
  C 3.210929 -0.586677 -0.991195
  C 4.642633 -0.621756 -1.030135
  C 5.376159 -1.107305 -2.045647
  C 6.811710 -1.083563 -2.044695
  C 7.545682 -1.640153 -3.009660
  C 9.030628 -1.667094 -3.064168
  H 0.647525 0.354064 1.002767
  H 0.596969 -1.071088 -0.041472
  H 0.620287 0.534079 -0.754486
  H 3.023818 0.288287 0.896143
  H 2.701606 -0.999584 -1.853416
  H 5.198106 -0.229167 -0.190822
  H 4.895183 -1.530186 -2.917791
  H 7.290007 -0.614966 -1.194359
  H 7.001341 -2.114937 -3.812700
  H 9.458595 -1.142755 -2.212713
  H 9.388236 -1.200332 -3.982453
  H 9.389299 -2.697290 -3.059900
 20
 0.536669
  C 1.009186 -0.129236 0.081680
  C 2.502095 -0.137044 0.050568
  C 3.221851 -0.544331 -0.998008
  C 4.657711 -0.542990 -1.036058
  C 5.380068 -0.959161 -2.089129
  C 6.818842 -0.993150 -2.109717
  C 7.533489 -1.675814 -3.005010
  C 9.021013 -1.733068 -3.034240
  H 0.638448 0.236572 1.035477
  H 0.616439 -1.132740 -0.080402
  H 0.614360 0.505592 -0.708806
  H 3.010862 0.206889 0.939929
  H 2.716523 -0.902088 -1.888829
  H 5.170117 -0.219214 -0.140931
  H 4.873739 -1.329318 -2.971250
  H 7.324837 -0.437652 -1.329429
  H 7.019878 -2.250184 -3.765220
  H 9.451545 -1.113681 -2.250537
  H 9.394037 -1.389207 -4.000814
  H 9.363334 -2.759100 -2.898783
 20
 1.800203
  C 1.025843 -0.192087 0.109865
  C 2.516968 -0.194219 0.060930
  C 3.224715 -0.492144 -1.031525
  C 4.660724 -0.501182 -1.080459
  C 5.373575 -0.834329 -2.166734
  C 6.816857 -0.871951 -2.192327
  C 7.520100 -1.698506 -2.965254
  C 9.005529 -1.793019 -2.977333
  H 0.666867 0.076800 1.097163
  H 0.631893 -1.176181 -0.145925
  H 0.620735 0.517412 -0.609717
  H 3.036873 0.066805 0.976825
  H 2.712024 -0.746292 -1.944767
  H 5.181407 -0.259133 -0.159213
  H 4.861185 -1.124031 -3.078364
  H 7.330698 -0.207855 -1.505609
  H 6.999095 -2.388668 -3.614646
  H 9.449393 -1.068976 -2.296761
  H 9.386261 -1.612334 -3.981401
  H 9.323675 -2.793458 -2.683095
 20
 3.457864
  C 1.042663 -0.211098 0.125131
  C 2.537624 -0.224825 0.057820
  C 3.229827 -0.455451 -1.059526
  C 4.666088 -0.468829 -1.126329
  C 5.368711 -0.724581 -2.237007
  C 6.819547 -0.771963 -2.260184
  C 7.507301 -1.706638 -2.908736
  C 8.993697 -1.811751 -2.934728
  H 0.696799 -0.007276 1.135079
  H 0.635582 -1.170884 -0.193038
  H 0.636272 0.551004 -0.539269
  H 3.070094 -0.033411 0.981468
  H 2.703107 -0.650389 -1.987555
  H 5.203370 -0.294135 -0.203647
  H 4.856335 -0.949334 -3.163597
  H 7.337516 -0.022167 -1.675110
  H 6.963785 -2.476512 -3.439501
  H 9.451935 -0.997694 -2.376996
  H 9.356735 -1.783366 -3.963173
  H 9.313015 -2.759427 -2.500615
 20
 5.010933
  C 1.063096 -0.237092 0.137645
  C 2.555705 -0.268474 0.052755
  C 3.232593 -0.429057 -1.085413
  C 4.668431 -0.459243 -1.169153
  C 5.358033 -0.648964 -2.300649
  C 6.816061 -0.698699 -2.336693
  C 7.490468 -1.714811 -2.852550
  C 8.975028 -1.830087 -2.888313
  H 0.731297 -0.103418 1.163566
  H 0.637478 -1.164564 -0.245515
  H 0.661996 0.578424 -0.464360
  H 3.099826 -0.153106 0.980636
  H 2.694930 -0.545484 -2.018602
  H 5.222841 -0.363496 -0.244484
  H 4.837475 -0.819965 -3.234895
  H 7.341560 0.122757 -1.864736
  H 6.931378 -2.550415 -3.252906
  H 9.444043 -0.946379 -2.462086
  H 9.319542 -1.951664 -3.915502
  H 9.300330 -2.706648 -2.327675
 20
 6.139567
  C 1.083577 -0.271949 0.150366
  C 2.574389 -0.319899 0.048709
  C 3.234869 -0.419791 -1.097735
  C 4.671631 -0.465668 -1.197150
  C 5.346552 -0.590216 -2.345570
  C 6.809697 -0.654044 -2.403314
  C 7.471264 -1.732992 -2.787326
  C 8.956509 -1.856252 -2.837523
  H 0.763325 -0.201624 1.186247
  H 0.640017 -1.165383 -0.289082
  H 0.689952 0.587882 -0.392005
  H 3.128438 -0.268887 0.976070
  H 2.687407 -0.471385 -2.030738
  H 5.231555 -0.427253 -0.274611
  H 4.813749 -0.679820 -3.285390
  H 7.346422 0.229303 -2.075946
  H 6.908380 -2.612536 -3.061844
  H 9.434363 -0.923800 -2.546286
  H 9.279972 -2.118761 -3.844979
  H 9.292636 -2.648298 -2.168128
 20
 6.845768
  C 1.098465 -0.307612 0.167744
  C 2.587893 -0.374105 0.048570
  C 3.239346 -0.421877 -1.113175
  C 4.675957 -0.485990 -1.228846
  C 5.337098 -0.551708 -2.386985
  C 6.802438 -0.626989 -2.464698
  C 7.458108 -1.750760 -2.716053
  C 8.942671 -1.880919 -2.786829
  H 0.788746 -0.292490 1.209040
  H 0.635811 -1.166397 -0.318518
  H 0.714770 0.588828 -0.319631
  H 3.150933 -0.382931 0.972269
  H 2.683012 -0.413269 -2.042911
  H 5.245742 -0.504721 -0.307602
  H 4.795470 -0.574987 -3.325965
  H 7.343844 0.293638 -2.274782
  H 6.889387 -2.661169 -2.862198
  H 9.425444 -0.918517 -2.634689
  H 9.241549 -2.275837 -3.757757
  H 9.296868 -2.576528 -2.026171
 20
 7.033120
  C 1.112641 -0.317387 0.170624
  C 2.599636 -0.409212 0.040329
  C 3.244509 -0.418936 -1.125899
  C 4.677338 -0.506735 -1.251615
  C 5.325950 -0.525160 -2.415351
  C 6.792198 -0.615555 -2.529943
  C 7.453150 -1.754246 -2.635848
  C 8.935730 -1.873110 -2.745317
  H 0.808009 -0.345563 1.213078
  H 0.629709 -1.141978 -0.353628
  H 0.745943 0.609275 -0.271185
  H 3.166418 -0.469954 0.959865
  H 2.683940 -0.358396 -2.050966
  H 5.244803 -0.571428 -0.331046
  H 4.772136 -0.478321 -3.345791
  H 7.329486 0.326338 -2.513783
  H 6.902613 -2.687125 -2.633159
  H 9.406312 -0.892757 -2.751997
  H 9.206054 -2.400236 -3.660198
  H 9.330215 -2.446849 -1.906679
 20
 6.853862
  C 1.166732 -0.370417 0.196842
  C 2.648243 -0.465760 0.016760
  C 3.258174 -0.402080 -1.164201
  C 4.685947 -0.494336 -1.337966
  C 5.311988 -0.440572 -2.516876
  C 6.772762 -0.551612 -2.634741
  C 7.410442 -1.714837 -2.545968
  C 8.888000 -1.897823 -2.637107
  H 0.891406 -0.474622 1.242727
  H 0.659577 -1.148129 -0.374059
  H 0.798481 0.590621 -0.162718
  H 3.241146 -0.594401 0.912267
  H 2.672807 -0.272664 -2.066174
  H 5.287615 -0.627731 -0.451097
  H 4.750472 -0.340249 -3.438353
  H 7.321631 0.374239 -2.768785
  H 6.822912 -2.606138 -2.382771
  H 9.386672 -0.948938 -2.820505
  H 9.135619 -2.588324 -3.443371
  H 9.272087 -2.323810 -1.710006
 20
 7.023520
  C 1.234937 -0.448757 0.226585
  C 2.709234 -0.535766 -0.008484
  C 3.281663 -0.392858 -1.204419
  C 4.700502 -0.479262 -1.430474
  C 5.302002 -0.360310 -2.617679
  C 6.758660 -0.504696 -2.729450
  C 7.347638 -1.662249 -2.463477
  C 8.814218 -1.922012 -2.493537
  H 0.991922 -0.639837 1.268175
  H 0.703566 -1.172322 -0.391360
  H 0.863652 0.541553 -0.037990
  H 3.331111 -0.731274 0.854898
  H 2.668767 -0.195695 -2.075579
  H 5.347577 -0.671688 -0.582193
  H 4.734390 -0.224859 -3.529321
  H 7.333422 0.382321 -2.965659
  H 6.699722 -2.486570 -2.187514
  H 9.357994 -1.035853 -2.812374
  H 9.040770 -2.740614 -3.176444
  H 9.165199 -2.213082 -1.503296
