 22
 0.000000
  C 1.010536 0.163837 0.444523
  C 2.471656 0.148840 0.381175
  H 3.061104 0.451367 1.233920
  C 3.071459 -0.274635 -0.779335
  C 4.448837 -0.387495 -1.012392
  C 5.092067 -0.864470 -2.131962
  C 4.605206 -1.396506 -3.406346
  C 3.121805 -1.511907 -3.721061
  C 2.913261 -2.099399 -5.115054
  H 6.174189 -0.859308 -2.088674
  H 0.626024 0.492035 1.404500
  H 0.620007 -0.835031 0.218453
  H 0.611133 0.811476 -0.339405
  H 2.396139 -0.568809 -1.569200
  H 5.089160 -0.056887 -0.201804
  H 5.070492 -2.386683 -3.521165
  H 5.089447 -0.797299 -4.191574
  H 2.652578 -0.527244 -3.690445
  H 2.633368 -2.165690 -2.996677
  H 3.366100 -1.470065 -5.877630
  H 1.851859 -2.179967 -5.335076
  H 3.347061 -3.093867 -5.190413
 22
 -0.980425
  C 1.006631 0.204317 0.557990
  C 2.450083 0.155808 0.334706
  H 3.114861 0.441277 1.144481
  C 2.986367 -0.287146 -0.846753
  C 4.372549 -0.402965 -1.033567
  C 5.055665 -0.882159 -2.130815
  C 4.609043 -1.411396 -3.415183
  C 3.136362 -1.507604 -3.779203
  C 2.965048 -2.088113 -5.181024
  H 6.134300 -0.877631 -2.036927
  H 0.736926 0.732966 1.458184
  H 0.651867 -0.830304 0.639604
  H 0.481390 0.606600 -0.303263
  H 2.310271 -0.565537 -1.634231
  H 4.982529 -0.076788 -0.201359
  H 5.072472 -2.404721 -3.519207
  H 5.136169 -0.833152 -4.189529
  H 2.679498 -0.515647 -3.757393
  H 2.616360 -2.156351 -3.069914
  H 3.451131 -1.463641 -5.925753
  H 1.912017 -2.153633 -5.436727
  H 3.386762 -3.086616 -5.245531
 22
 0.763253
  C 1.006420 0.219647 0.566863
  C 2.436379 0.198642 0.315332
  H 3.100399 0.550699 1.094688
  C 2.968547 -0.295276 -0.851298
  C 4.357908 -0.424866 -1.027827
  C 5.046064 -0.925167 -2.109738
  C 4.608722 -1.444560 -3.404358
  C 3.140477 -1.478742 -3.797666
  C 2.976317 -2.035011 -5.209851
  H 6.123830 -0.949979 -1.996285
  H 0.677196 0.928211 1.316437
  H 0.954022 -0.788868 1.021555
  H 0.387492 0.180047 -0.323026
  H 2.291229 -0.592784 -1.634090
  H 4.965893 -0.091296 -0.195015
  H 5.028275 -2.458411 -3.489994
  H 5.172581 -0.887645 -4.167551
  H 2.723126 -0.470620 -3.770976
  H 2.583676 -2.117317 -3.109823
  H 3.514298 -1.428165 -5.934561
  H 1.927534 -2.043650 -5.494027
  H 3.349462 -3.054341 -5.274672
 22
 13.182137
  C 0.995426 0.333395 0.556887
  C 2.405122 0.167997 0.319895
  H 3.095668 0.560708 1.058350
  C 2.938845 -0.313227 -0.862375
  C 4.329860 -0.470213 -1.016898
  C 5.028449 -0.942969 -2.094392
  C 4.608457 -1.449514 -3.407774
  C 3.136668 -1.498883 -3.797736
  C 2.980296 -2.026416 -5.221679
  H 6.105925 -0.953364 -1.977441
  H 0.644526 0.925256 1.387637
  H 1.281846 -0.715958 0.964634
  H 0.313982 0.171104 -0.267509
  H 2.268524 -0.591494 -1.657592
  H 4.932401 -0.160386 -0.169822
  H 5.037708 -2.456228 -3.506249
  H 5.154802 -0.859187 -4.156989
  H 2.704769 -0.498463 -3.750359
  H 2.594050 -2.163145 -3.122667
  H 3.494423 -1.384857 -5.933472
  H 1.930737 -2.063450 -5.500529
  H 3.388362 -3.030362 -5.312299
 22
 26.380364
  C 0.982887 0.382509 0.565421
  C 2.368168 0.146478 0.348404
  H 3.072277 0.519949 1.086227
  C 2.927075 -0.286532 -0.874020
  C 4.308853 -0.431424 -1.028985
  C 5.011546 -0.935945 -2.089757
  C 4.598074 -1.464821 -3.402937
  C 3.129072 -1.484688 -3.809190
  C 2.975470 -2.039512 -5.223128
  H 6.087432 -0.959294 -1.963298
  H 0.627121 0.873704 1.453857
  H 1.628719 -0.756837 0.836254
  H 0.272386 0.182630 -0.222454
  H 2.257732 -0.542533 -1.677905
  H 4.911149 -0.118079 -0.182991
  H 4.998786 -2.485523 -3.471066
  H 5.166039 -0.904984 -4.157607
  H 2.723617 -0.471994 -3.788883
  H 2.562517 -2.119763 -3.127260
  H 3.523843 -1.432748 -5.940746
  H 1.929150 -2.046180 -5.518607
  H 3.349768 -3.059298 -5.283781
 22
 31.417457
  C 0.969214 0.442837 0.536515
  C 2.353922 0.133646 0.382298
  H 3.049765 0.541426 1.110659
  C 2.926416 -0.314887 -0.862130
  C 4.299603 -0.443098 -1.018946
  C 5.004982 -0.934246 -2.090075
  C 4.589721 -1.457592 -3.404002
  C 3.118600 -1.494890 -3.799822
  C 2.962846 -2.042418 -5.216208
  H 6.081452 -0.945403 -1.969445
  H 0.601912 0.949041 1.410495
  H 1.910414 -0.859153 0.760220
  H 0.267184 0.189481 -0.241075
  H 2.247325 -0.572381 -1.656461
  H 4.901273 -0.125358 -0.175252
  H 5.004644 -2.471374 -3.482715
  H 5.144562 -0.884066 -4.158053
  H 2.699552 -0.488316 -3.770217
  H 2.565769 -2.142630 -3.118623
  H 3.499324 -1.424515 -5.933255
  H 1.914878 -2.059714 -5.505375
  H 3.348909 -3.057167 -5.285830
 22
 31.715030
  C 0.965721 0.501654 0.501451
  C 2.330619 0.117366 0.414695
  H 3.016353 0.553550 1.136860
  C 2.925312 -0.366814 -0.834097
  C 4.297106 -0.502019 -0.985686
  C 4.997710 -0.941811 -2.084712
  C 4.578114 -1.428027 -3.408837
  C 3.103452 -1.511700 -3.784510
  C 2.947982 -2.036733 -5.209740
  H 6.075801 -0.932450 -1.977234
  H 0.605334 1.094115 1.321472
  H 2.188294 -0.980896 0.664649
  H 0.263142 0.204046 -0.257964
  H 2.247955 -0.611773 -1.634481
  H 4.901164 -0.204092 -0.136579
  H 5.033089 -2.420075 -3.532138
  H 5.097760 -0.806922 -4.150712
  H 2.648432 -0.521710 -3.731397
  H 2.583274 -2.192471 -3.109401
  H 3.443632 -1.381032 -5.922628
  H 1.896893 -2.095399 -5.481669
  H 3.377030 -3.031609 -5.307406
 22
 33.682989
  C 0.966973 0.504350 0.519792
  C 2.312834 0.169293 0.410246
  H 3.000859 0.579157 1.143586
  C 2.901902 -0.390601 -0.817005
  C 4.288150 -0.520343 -0.971301
  C 4.985148 -0.948400 -2.066645
  C 4.565632 -1.429110 -3.395491
  C 3.090224 -1.514517 -3.769759
  C 2.934021 -2.028745 -5.199081
  H 6.062948 -0.938072 -1.960221
  H 0.607789 1.113639 1.327165
  H 2.366552 -1.012944 0.407583
  H 0.250750 0.171357 -0.211855
  H 2.227506 -0.623130 -1.625189
  H 4.888075 -0.221399 -0.120197
  H 5.023302 -2.418724 -3.525592
  H 5.080299 -0.800483 -4.133930
  H 2.632050 -0.526262 -3.708964
  H 2.572715 -2.203591 -3.100718
  H 3.427243 -1.366196 -5.907479
  H 1.882631 -2.087971 -5.470143
  H 3.365684 -3.021706 -5.305117
 22
 30.035658
  C 0.989811 0.530697 0.517962
  C 2.308086 0.235256 0.399783
  H 3.007158 0.629542 1.126780
  C 2.882942 -0.447190 -0.782221
  C 4.290987 -0.552329 -0.955599
  C 4.985973 -0.956451 -2.055567
  C 4.565355 -1.426481 -3.387559
  C 3.090581 -1.520861 -3.758011
  C 2.933858 -2.016870 -5.193428
  H 6.064289 -0.937629 -1.954728
  H 0.628707 1.131482 1.332762
  H 2.505476 -1.104817 0.174854
  H 0.260709 0.180482 -0.193039
  H 2.211984 -0.649011 -1.603928
  H 4.887391 -0.252789 -0.102400
  H 5.031555 -2.410381 -3.532004
  H 5.073659 -0.785726 -4.120135
  H 2.622940 -0.538244 -3.682879
  H 2.581327 -2.222830 -3.096504
  H 3.417898 -1.340471 -5.894863
  H 1.882074 -2.081745 -5.461343
  H 3.373637 -3.004506 -5.315044
 22
 20.994594
  C 1.020288 0.572001 0.500925
  C 2.324816 0.301034 0.383703
  H 3.039846 0.695134 1.091506
  C 2.857547 -0.523378 -0.739730
  C 4.285558 -0.594334 -0.931155
  C 4.983107 -0.963384 -2.042205
  C 4.560385 -1.413225 -3.375797
  C 3.088562 -1.534261 -3.740312
  C 2.930372 -2.002854 -5.184648
  H 6.061913 -0.927550 -1.946528
  H 0.647476 1.191732 1.297423
  H 2.558834 -1.320720 0.006576
  H 0.290739 0.197998 -0.197901
  H 2.199667 -0.647236 -1.590479
  H 4.876911 -0.299290 -0.072940
  H 5.049271 -2.383474 -3.545235
  H 5.056673 -0.753832 -4.101611
  H 2.598691 -0.563726 -3.641463
  H 2.597282 -2.257702 -3.088409
  H 3.394113 -1.302941 -5.876254
  H 1.877944 -2.083035 -5.444906
  H 3.387126 -2.979075 -5.331308
 22
 14.763563
  C 1.043573 0.588622 0.511421
  C 2.344907 0.321439 0.374557
  H 3.066289 0.692950 1.087703
  C 2.836109 -0.548253 -0.727024
  C 4.279987 -0.621570 -0.908240
  C 4.980984 -0.956413 -2.026265
  C 4.555098 -1.382680 -3.363899
  C 3.087870 -1.549606 -3.715702
  C 2.921296 -2.012842 -5.159974
  H 6.059492 -0.908371 -1.933018
  H 0.672708 1.208955 1.308550
  H 2.502351 -1.504426 -0.274362
  H 0.307344 0.215288 -0.181309
  H 2.247324 -0.469105 -1.639563
  H 4.863686 -0.360578 -0.034007
  H 5.075456 -2.332653 -3.562126
  H 5.030689 -0.701357 -4.084528
  H 2.567691 -0.594282 -3.606321
  H 2.620966 -2.283288 -3.057101
  H 3.355332 -1.297748 -5.855081
  H 1.867565 -2.120091 -5.404342
  H 3.400404 -2.976111 -5.320118
 22
 12.968310
  C 1.033368 0.525247 0.578945
  C 2.336288 0.282340 0.389543
  H 3.060880 0.575307 1.137633
  C 2.826582 -0.435886 -0.804234
  C 4.284726 -0.559679 -0.928879
  C 4.999220 -0.943528 -2.024755
  C 4.569737 -1.392017 -3.355508
  C 3.099531 -1.547538 -3.696001
  C 2.911869 -2.069013 -5.116533
  H 6.077047 -0.925710 -1.916654
  H 0.666028 1.017351 1.461831
  H 2.410466 -1.459542 -0.702702
  H 0.292235 0.244859 -0.152357
  H 2.341827 -0.077802 -1.719513
  H 4.852266 -0.310054 -0.040037
  H 5.079085 -2.353348 -3.535946
  H 5.054152 -0.735928 -4.092159
  H 2.594082 -0.581779 -3.621316
  H 2.618679 -2.237955 -2.999392
  H 3.354773 -1.394612 -5.845715
  H 1.854507 -2.165209 -5.348016
  H 3.369775 -3.047622 -5.238986
 22
 12.052148
  C 1.030738 0.489929 0.606204
  C 2.316889 0.174672 0.426137
  H 3.022640 0.309243 1.234216
  C 2.833639 -0.364914 -0.851518
  C 4.289333 -0.491602 -0.954324
  C 5.004730 -0.918496 -2.030352
  C 4.572182 -1.400376 -3.348032
  C 3.101554 -1.540360 -3.688533
  C 2.906012 -2.129179 -5.080170
  H 6.081607 -0.909809 -1.918857
  H 0.671575 0.882656 1.540530
  H 2.372546 -1.353720 -1.027816
  H 0.296597 0.369310 -0.175819
  H 2.428031 0.213624 -1.695875
  H 4.852574 -0.209674 -0.075562
  H 5.076874 -2.362981 -3.516867
  H 5.059519 -0.755444 -4.096306
  H 2.609073 -0.566229 -3.651481
  H 2.605052 -2.189966 -2.962595
  H 3.362348 -1.501039 -5.840641
  H 1.846853 -2.215645 -5.309645
  H 3.346755 -3.122118 -5.153442
