17

C 1.047947 -0.112011 -0.038947
C 2.54391 -0.135375 -0.038393
C 3.259565 -1.265084 -0.04521
C 4.697646 -1.288341 -0.045708
C 5.417834 -2.423761 -0.052198
C 6.856528 -2.444671 -0.052714
C 7.574589 -3.572325 -0.05916
H 8.644160186271336 -3.6026113417896837 -0.059623679980948814
H 0.686401 0.915696 -0.031476
H 0.651536 -0.613279 0.844088
H 0.652486 -0.59935 -0.930356
H 3.043954 0.824374 -0.031896
H 2.748589 -2.220182 -0.050033
H 5.202273 -0.330045 -0.040549
H 4.913723 -3.382251 -0.05737
H 7.363362 -1.487315 -0.04756
H 7.07582 -4.533663 -0.06434
