 23
 0.000000
  H 1.422101 0.147469 0.419742
  C 2.500794 0.142386 0.405914
  C 3.249571 0.612919 1.575327
  H 2.625492 0.942637 2.396379
  C 3.090660 -0.323798 -0.754808
  C 4.467783 -0.414147 -0.981184
  C 5.130879 -0.871266 -2.120293
  C 4.610913 -1.389610 -3.412168
  C 3.117528 -1.501317 -3.692244
  C 2.891559 -2.063596 -5.093650
  O 6.446214 -0.872329 -2.123306
  H 3.905741 1.436086 1.281910
  H 3.906690 -0.183563 1.933089
  H 2.421032 -0.638216 -1.536615
  H 5.104272 -0.087074 -0.167218
  H 5.065139 -2.378787 -3.544268
  H 5.065953 -0.766689 -4.191410
  H 2.645262 -0.519848 -3.637567
  H 2.644446 -2.172314 -2.974424
  H 3.330467 -1.416989 -5.849762
  H 1.827011 -2.144935 -5.297665
  H 3.329710 -3.053887 -5.192877
  H 6.852378 -0.541987 -1.298615
 23
 -0.164587
  H 1.448084 0.145512 0.490479
  C 2.522919 0.117362 0.419792
  C 3.281968 0.713911 1.523905
  H 2.625004 1.079934 2.306200
  C 3.059501 -0.457556 -0.713424
  C 4.435328 -0.556188 -0.938883
  C 5.121413 -0.931073 -2.096928
  C 4.609378 -1.391815 -3.413529
  C 3.118101 -1.519095 -3.690248
  C 2.897340 -1.999052 -5.126251
  O 6.431062 -0.885174 -2.095514
  H 3.894769 1.541289 1.167238
  H 3.978202 -0.009682 1.952541
  H 2.369933 -0.824816 -1.451964
  H 5.069203 -0.244387 -0.116875
  H 5.089674 -2.362297 -3.601849
  H 5.054326 -0.723079 -4.164304
  H 2.625862 -0.552004 -3.571102
  H 2.665986 -2.245496 -3.012479
  H 3.318234 -1.297502 -5.840932
  H 1.834984 -2.092866 -5.333828
  H 3.358084 -2.969543 -5.288592
  H 6.841527 -0.593864 -1.255986
 23
 0.806651
  H 1.449945 0.167707 0.402454
  C 2.528250 0.087558 0.380708
  C 3.267751 0.825405 1.410106
  H 2.600237 1.208415 2.176878
  C 3.076169 -0.653519 -0.642599
  C 4.455397 -0.700923 -0.884360
  C 5.142872 -1.033034 -2.051433
  C 4.621623 -1.426682 -3.385508
  C 3.125082 -1.520793 -3.652006
  C 2.880357 -1.858983 -5.122283
  O 6.452979 -0.966143 -2.058623
  H 3.790846 1.675873 0.968420
  H 4.035163 0.201852 1.869949
  H 2.399618 -1.160893 -1.304503
  H 5.089060 -0.354412 -0.073236
  H 5.086952 -2.389443 -3.627586
  H 5.066003 -0.724685 -4.101561
  H 2.639748 -0.570135 -3.429752
  H 2.677067 -2.308314 -3.043801
  H 3.295085 -1.093662 -5.773086
  H 1.813444 -1.927053 -5.321619
  H 3.332958 -2.813187 -5.383866
  H 6.866506 -0.722808 -1.207405
 23
 3.576141
  H 1.489293 0.282698 0.175692
  C 2.549838 0.100528 0.286334
  C 3.240767 0.864215 1.328246
  H 2.532671 1.263313 2.048494
  C 3.108544 -0.804240 -0.583182
  C 4.490731 -0.799957 -0.842002
  C 5.168484 -1.092074 -2.021340
  C 4.630016 -1.446684 -3.360909
  C 3.128978 -1.480324 -3.616858
  C 2.861039 -1.775369 -5.091046
  O 6.478210 -1.002345 -2.047799
  H 3.763587 1.720221 0.892971
  H 3.990597 0.261829 1.834501
  H 2.449488 -1.408484 -1.181312
  H 5.121723 -0.455245 -0.030475
  H 5.056029 -2.422419 -3.620310
  H 5.097547 -0.747680 -4.063770
  H 2.682340 -0.519855 -3.365332
  H 2.657187 -2.263775 -3.023627
  H 3.296590 -1.008492 -5.728786
  H 1.791716 -1.803200 -5.282507
  H 3.278745 -2.736627 -5.377918
  H 6.901853 -0.787289 -1.194093
 23
 7.358617
  H 1.534940 0.320634 -0.018298
  C 2.568228 0.090822 0.205598
  C 3.191249 0.913617 1.248503
  H 2.429586 1.403264 1.853480
  C 3.144617 -0.906290 -0.538166
  C 4.527009 -0.855817 -0.810414
  C 5.193819 -1.159727 -1.987188
  C 4.644150 -1.459838 -3.335911
  C 3.139135 -1.491859 -3.575167
  C 2.853866 -1.693473 -5.057369
  O 6.508556 -1.099715 -2.015717
  H 3.788286 1.715734 0.803404
  H 3.851088 0.327542 1.877365
  H 2.504966 -1.535215 -1.134009
  H 5.168958 -0.529286 0.004923
  H 5.069869 -2.421375 -3.635920
  H 5.102859 -0.730505 -4.015455
  H 2.686023 -0.555405 -3.251149
  H 2.683870 -2.315482 -3.029167
  H 3.311417 -0.902739 -5.654203
  H 1.787191 -1.676766 -5.241762
  H 3.241665 -2.646401 -5.402071
  H 6.934614 -0.841588 -1.176089
 23
 16.419403
  H 1.709406 0.562501 -0.346930
  C 2.649581 0.181944 0.037810
  C 3.197560 0.927953 1.175981
  H 2.403957 1.481301 1.668780
  C 3.111997 -0.981018 -0.518044
  C 4.503860 -0.932995 -0.766246
  C 5.187750 -1.137244 -1.948478
  C 4.652609 -1.407010 -3.315435
  C 3.152185 -1.539052 -3.536351
  C 2.854828 -1.676170 -5.029311
  O 6.503398 -1.047376 -1.966040
  H 3.928256 1.676801 0.857397
  H 3.693879 0.263086 1.881252
  H 2.454564 -1.636390 -1.063397
  H 5.131716 -0.702716 0.088656
  H 5.141383 -2.323989 -3.663610
  H 5.047044 -0.621241 -3.959934
  H 2.637416 -0.655695 -3.158096
  H 2.767043 -2.421901 -3.030342
  H 3.212886 -0.809617 -5.578516
  H 1.782737 -1.763095 -5.196121
  H 3.333611 -2.562555 -5.441893
  H 6.921695 -0.916634 -1.094950
 23
 31.539920
  H 1.882917 0.380476 -0.608991
  C 2.752152 0.002606 -0.074452
  C 3.210209 0.921196 0.996690
  H 2.376984 1.553327 1.299662
  C 3.134844 -1.283415 -0.378955
  C 4.507808 -0.988832 -0.689007
  C 5.172844 -1.127922 -1.888674
  C 4.632731 -1.379024 -3.256539
  C 3.132461 -1.361553 -3.495066
  C 2.839597 -1.589437 -4.973734
  O 6.492605 -1.042336 -1.910308
  H 3.998995 1.601612 0.671251
  H 3.581034 0.369023 1.854945
  H 2.523210 -1.980229 -0.927891
  H 5.137557 -0.765444 0.162644
  H 5.036403 -2.337742 -3.602290
  H 5.107332 -0.628732 -3.895548
  H 2.710495 -0.402771 -3.205420
  H 2.648482 -2.154775 -2.922946
  H 3.283720 -0.803530 -5.578651
  H 1.768379 -1.587088 -5.151307
  H 3.234288 -2.541228 -5.309320
  H 6.909437 -0.848163 -1.053900
 23
 40.071899
  H 2.183574 0.386206 -0.943528
  C 2.902099 -0.043827 -0.240539
  C 3.296306 0.916122 0.830619
  H 2.516792 1.667909 0.931164
  C 3.059998 -1.424413 -0.324801
  C 4.419921 -1.004985 -0.602307
  C 5.122081 -1.121428 -1.806126
  C 4.605260 -1.331237 -3.185675
  C 3.103668 -1.348855 -3.448027
  C 2.841460 -1.509156 -4.943179
  O 6.438245 -1.032667 -1.796453
  H 4.210829 1.455910 0.596037
  H 3.430525 0.405519 1.780922
  H 2.459065 -2.141454 -0.842622
  H 5.024453 -0.791898 0.273486
  H 5.043334 -2.267117 -3.549490
  H 5.064243 -0.549585 -3.801150
  H 2.647509 -0.417245 -3.115101
  H 2.632439 -2.181351 -2.929177
  H 3.286308 -0.691977 -5.506270
  H 1.772632 -1.513396 -5.142016
  H 3.257036 -2.443168 -5.312301
  H 6.849280 -0.906757 -0.921496
 23
 36.946391
  H 2.503019 0.385508 -1.164466
  C 3.065105 -0.054996 -0.341166
  C 3.286642 0.908876 0.797096
  H 2.516917 1.677492 0.772734
  C 3.066827 -1.473217 -0.277167
  C 4.403995 -0.945534 -0.592201
  C 5.111103 -1.066392 -1.816551
  C 4.576278 -1.288595 -3.181459
  C 3.073512 -1.278213 -3.446615
  C 2.812637 -1.495095 -4.933867
  O 6.409785 -0.999703 -1.810716
  H 4.244792 1.412656 0.720383
  H 3.236269 0.394649 1.754861
  H 2.482678 -2.228108 -0.755164
  H 5.033272 -0.804443 0.283493
  H 4.990824 -2.247638 -3.517232
  H 5.057593 -0.543573 -3.824966
  H 2.638648 -0.321964 -3.157803
  H 2.576891 -2.073595 -2.891364
  H 3.277818 -0.712026 -5.528824
  H 1.743522 -1.482460 -5.135717
  H 3.206201 -2.452960 -5.262871
  H 6.839626 -0.860333 -0.943429
 23
 36.549710
  H 2.558940 0.281125 -1.229132
  C 3.099626 -0.123856 -0.377107
  C 3.158174 0.846243 0.784085
  H 2.377281 1.592299 0.676245
  C 3.187972 -1.542518 -0.308775
  C 4.467091 -0.869854 -0.637008
  C 5.167383 -0.986030 -1.872251
  C 4.595566 -1.265150 -3.210704
  C 3.109719 -1.052390 -3.466691
  C 2.756792 -1.499007 -4.883766
  O 6.458147 -0.912181 -1.888177
  H 4.112209 1.368765 0.822892
  H 3.009094 0.323604 1.726104
  H 2.646955 -2.389442 -0.653845
  H 5.110378 -0.773548 0.239788
  H 4.844714 -2.311146 -3.429211
  H 5.180839 -0.687576 -3.934925
  H 2.859341 0.005825 -3.363897
  H 2.512562 -1.624832 -2.762687
  H 3.339854 -0.950128 -5.623081
  H 1.703306 -1.319966 -5.084372
  H 2.948677 -2.559498 -5.017372
  H 6.902545 -0.754085 -1.031441
 23
 34.216797
  H 2.577928 0.347405 -1.222027
  C 3.102292 -0.104176 -0.381914
  C 3.130492 0.797764 0.828992
  H 2.165332 1.287050 0.927517
  C 3.195400 -1.522924 -0.331345
  C 4.483596 -0.855955 -0.627065
  C 5.164990 -0.983181 -1.871318
  C 4.579491 -1.349629 -3.181665
  C 3.133532 -0.977057 -3.504714
  C 2.765179 -1.491436 -4.892614
  O 6.453674 -0.866396 -1.916113
  H 3.884767 1.573180 0.720594
  H 3.327255 0.231463 1.735180
  H 2.697815 -2.366052 -0.749639
  H 5.138890 -0.706438 0.228467
  H 4.683408 -2.440324 -3.260191
  H 5.241852 -0.942752 -3.951522
  H 3.020171 0.107780 -3.493339
  H 2.446163 -1.411238 -2.780765
  H 3.419440 -1.069511 -5.650752
  H 1.742400 -1.214590 -5.138601
  H 2.842139 -2.575077 -4.939726
  H 6.910959 -0.671252 -1.072767
