 23
 0.000000
  C 1.005748 0.117219 0.329544
  C 2.480065 0.128407 0.365446
  C 3.230575 0.604778 1.553040
  C 2.412625 1.078674 2.747132
  H 3.084814 1.394970 3.538869
  C 3.142878 -0.328250 -0.768109
  C 4.525654 -0.393546 -0.930025
  C 5.182701 -0.850106 -2.068229
  C 4.531707 -1.346726 -3.300421
  H 3.449316 -1.328708 -3.251727
  O 6.491925 -0.870190 -2.124433
  H 0.553324 0.493578 1.238123
  H 0.645712 -0.897195 0.149683
  H 0.651247 0.709696 -0.515492
  H 3.888322 1.421666 1.235934
  H 3.893477 -0.202229 1.884241
  H 1.787044 0.282667 3.142585
  H 1.784272 1.927037 2.488750
  H 2.517801 -0.656355 -1.585425
  H 5.150039 -0.064013 -0.110694
  H 4.873859 -2.363633 -3.497096
  H 4.871662 -0.748679 -4.146924
  H 6.944447 -0.546331 -1.323993
 23
 5.297035
  C 1.004986 0.178405 0.319687
  C 2.449037 0.134943 0.360988
  C 3.219551 0.604273 1.544429
  C 2.413134 1.062428 2.755760
  H 3.095076 1.381867 3.540881
  C 3.123941 -0.329715 -0.777288
  C 4.506582 -0.399529 -0.928744
  C 5.165319 -0.854602 -2.056544
  C 4.518251 -1.348837 -3.293116
  H 3.436214 -1.326881 -3.249418
  O 6.490417 -0.879009 -2.106497
  H 0.511277 0.514598 1.214484
  H 0.906687 -0.879448 0.149278
  H 0.601321 0.702476 -0.542361
  H 3.859257 1.433829 1.217660
  H 3.901263 -0.193376 1.863064
  H 1.804178 0.255572 3.155969
  H 1.771708 1.906076 2.514014
  H 2.501427 -0.656099 -1.599745
  H 5.126520 -0.071704 -0.107231
  H 4.856883 -2.366474 -3.487744
  H 4.863051 -0.750909 -4.136776
  H 6.942608 -0.554315 -1.296749
 23
 13.566418
  C 0.999989 0.234784 0.316915
  C 2.435821 0.165372 0.369408
  C 3.217367 0.610588 1.550666
  C 2.400659 1.041781 2.761071
  H 3.073624 1.359126 3.556177
  C 3.120294 -0.312905 -0.784426
  C 4.498660 -0.404448 -0.927810
  C 5.159457 -0.865013 -2.059746
  C 4.518068 -1.342806 -3.306223
  H 3.437396 -1.304392 -3.272618
  O 6.474766 -0.911415 -2.103143
  H 0.484592 0.613947 1.176595
  H 1.131088 -0.853648 0.300647
  H 0.553094 0.560832 -0.612107
  H 3.826067 1.459548 1.221150
  H 3.916835 -0.175012 1.856556
  H 1.798678 0.220246 3.144986
  H 1.749748 1.880850 2.524710
  H 2.500556 -0.617306 -1.616004
  H 5.120903 -0.088912 -0.101753
  H 4.841952 -2.364464 -3.502689
  H 4.878604 -0.744078 -4.142251
  H 6.916561 -0.601848 -1.295969
 23
 21.888079
  C 0.988732 0.280206 0.315959
  C 2.424081 0.169850 0.353220
  C 3.206764 0.601000 1.540276
  C 2.394525 1.021106 2.752629
  H 3.070324 1.326600 3.548410
  C 3.103449 -0.308899 -0.794956
  C 4.487832 -0.403853 -0.933639
  C 5.152352 -0.865552 -2.057627
  C 4.520577 -1.343796 -3.304375
  H 3.445411 -1.304032 -3.277710
  O 6.476534 -0.915248 -2.096019
  H 0.480976 0.688866 1.164511
  H 1.290228 -0.793745 0.406787
  H 0.511701 0.487728 -0.620349
  H 3.811261 1.449461 1.211832
  H 3.904831 -0.185955 1.842784
  H 1.791688 0.197309 3.127361
  H 1.748857 1.865608 2.528444
  H 2.496146 -0.610413 -1.629094
  H 5.107295 -0.086956 -0.103001
  H 4.843018 -2.364553 -3.495558
  H 4.885641 -0.746969 -4.136881
  H 6.908851 -0.605373 -1.288602
 23
 27.082197
  C 0.985489 0.307731 0.307435
  C 2.413142 0.165475 0.350177
  C 3.201157 0.592959 1.546411
  C 2.388367 1.019287 2.761918
  H 3.065526 1.303728 3.560424
  C 3.100971 -0.311387 -0.810931
  C 4.481414 -0.411472 -0.940309
  C 5.152669 -0.867572 -2.062558
  C 4.528225 -1.337171 -3.320902
  H 3.448906 -1.292913 -3.300375
  O 6.479036 -0.922015 -2.091619
  H 0.469737 0.770538 1.119476
  H 1.409812 -0.738207 0.546847
  H 0.476303 0.346105 -0.641387
  H 3.811927 1.437644 1.222689
  H 3.882251 -0.196799 1.841537
  H 1.769787 0.212310 3.129288
  H 1.765395 1.876300 2.544607
  H 2.482988 -0.597354 -1.650527
  H 5.093791 -0.104468 -0.107276
  H 4.847827 -2.359872 -3.516357
  H 4.901133 -0.734873 -4.148206
  H 6.902890 -0.617518 -1.279218
 23
 31.886707
  C 0.981199 0.327546 0.291675
  C 2.401346 0.153372 0.332628
  C 3.197684 0.579588 1.532024
  C 2.394030 1.008410 2.754953
  H 3.093213 1.285415 3.571506
  C 3.082811 -0.318263 -0.817275
  C 4.466267 -0.415047 -0.944249
  C 5.140813 -0.864337 -2.055148
  C 4.527273 -1.331018 -3.302979
  H 3.456484 -1.289821 -3.282685
  O 6.485551 -0.914974 -2.081954
  H 0.465369 0.810243 1.109769
  H 1.504951 -0.698554 0.588898
  H 0.451781 0.299464 -0.658989
  H 3.816591 1.421688 1.211582
  H 3.866452 -0.214100 1.818302
  H 1.762561 0.203978 3.121856
  H 1.776284 1.882782 2.543205
  H 2.474036 -0.601374 -1.646812
  H 5.069724 -0.108285 -0.115600
  H 4.850869 -2.355237 -3.497029
  H 4.900137 -0.724511 -4.129837
  H 6.905837 -0.609066 -1.269214
 23
 35.453863
  C 0.975954 0.351662 0.290111
  C 2.394230 0.148422 0.344153
  C 3.198287 0.579361 1.544514
  C 2.384061 1.015434 2.770907
  H 3.075699 1.286237 3.587304
  C 3.084151 -0.324398 -0.816592
  C 4.461044 -0.418495 -0.938642
  C 5.149424 -0.868361 -2.063817
  C 4.541781 -1.340383 -3.334773
  H 3.452429 -1.304025 -3.323344
  O 6.468377 -0.911868 -2.080966
  H 0.464159 0.826934 1.093700
  H 1.570934 -0.669177 0.629712
  H 0.449196 0.267647 -0.642817
  H 3.827061 1.425071 1.222819
  H 3.874256 -0.234506 1.838080
  H 1.743340 0.214559 3.135094
  H 1.774661 1.893070 2.556574
  H 2.466911 -0.612471 -1.664501
  H 5.063015 -0.111437 -0.103758
  H 4.873789 -2.368498 -3.531004
  H 4.920629 -0.726155 -4.162220
  H 6.881673 -0.602702 -1.256016
 23
 38.539080
  C 0.977397 0.372283 0.283497
  C 2.395651 0.135844 0.354381
  C 3.199259 0.576612 1.552979
  C 2.381541 1.010437 2.751554
  H 3.051736 1.278984 3.560647
  C 3.088731 -0.334480 -0.816454
  C 4.468910 -0.427721 -0.940759
  C 5.145803 -0.868011 -2.060216
  C 4.529871 -1.333899 -3.329211
  H 3.450119 -1.298100 -3.311407
  O 6.477655 -0.910687 -2.083763
  H 0.452589 0.849412 1.100427
  H 1.631657 -0.663625 0.652945
  H 0.454999 0.248583 -0.639531
  H 3.822135 1.411787 1.236826
  H 3.865454 -0.227823 1.853999
  H 1.740601 0.214973 3.107375
  H 1.780984 1.880563 2.527158
  H 2.475345 -0.616315 -1.653143
  H 5.087232 -0.118262 -0.089563
  H 4.856964 -2.351266 -3.531222
  H 4.899456 -0.722397 -4.148748
  H 6.892692 -0.605647 -1.262804
 23
 40.930099
  C 0.969966 0.391458 0.266278
  C 2.385315 0.119667 0.359886
  C 3.201594 0.573573 1.557518
  C 2.383074 1.017963 2.769867
  H 3.059311 1.286556 3.577332
  C 3.084467 -0.344092 -0.820061
  C 4.459067 -0.434494 -0.941688
  C 5.142831 -0.870567 -2.064592
  C 4.534688 -1.331379 -3.331557
  H 3.455454 -1.299043 -3.317028
  O 6.473424 -0.909040 -2.085464
  H 0.449380 0.851355 1.065191
  H 1.672761 -0.675413 0.664861
  H 0.450490 0.235120 -0.658321
  H 3.828204 1.414523 1.231188
  H 3.877292 -0.241168 1.864017
  H 1.736809 0.220883 3.133954
  H 1.782298 1.896650 2.545552
  H 2.482167 -0.618102 -1.642170
  H 5.073974 -0.128671 -0.087526
  H 4.865911 -2.347613 -3.536468
  H 4.905437 -0.715115 -4.148335
  H 6.885098 -0.605331 -1.263953
 23
 43.002167
  C 0.971953 0.410705 0.253587
  C 2.380990 0.104868 0.372891
  C 3.203736 0.570765 1.564380
  C 2.391956 1.019044 2.776338
  H 3.071482 1.288279 3.580575
  C 3.086647 -0.353540 -0.819781
  C 4.459821 -0.440615 -0.938630
  C 5.146106 -0.871814 -2.063845
  C 4.538191 -1.328779 -3.331563
  H 3.454583 -1.298844 -3.316468
  O 6.476393 -0.906484 -2.084125
  H 0.435312 0.867686 1.064185
  H 1.712151 -0.692471 0.678494
  H 0.459309 0.227938 -0.671998
  H 3.822901 1.401391 1.234613
  H 3.864896 -0.224132 1.864059
  H 1.739573 0.216361 3.148889
  H 1.784240 1.910935 2.548562
  H 2.464320 -0.632946 -1.665818
  H 5.069945 -0.139931 -0.087381
  H 4.871263 -2.341870 -3.540338
  H 4.907049 -0.709730 -4.145370
  H 6.891335 -0.602275 -1.255823
 23
 44.652003
  C 0.973011 0.432619 0.243812
  C 2.374002 0.090891 0.388016
  C 3.201224 0.571004 1.572678
  C 2.394709 1.022175 2.777755
  H 3.070436 1.295166 3.576313
  C 3.085249 -0.361204 -0.813664
  C 4.458163 -0.446019 -0.932958
  C 5.148615 -0.870267 -2.056971
  C 4.540576 -1.329175 -3.340550
  H 3.462937 -1.304724 -3.329750
  O 6.476657 -0.897528 -2.070325
  H 0.422122 0.886202 1.060611
  H 1.746099 -0.714488 0.692580
  H 0.459932 0.228515 -0.688335
  H 3.817753 1.405884 1.236036
  H 3.878105 -0.237871 1.882808
  H 1.754537 0.235939 3.148183
  H 1.798026 1.891351 2.551527
  H 2.463778 -0.633655 -1.644551
  H 5.043792 -0.159631 -0.114121
  H 4.880235 -2.344935 -3.554663
  H 4.910503 -0.703518 -4.155281
  H 6.887469 -0.594489 -1.239631
 23
 43.653851
  C 0.985007 0.470642 0.230018
  C 2.370136 0.064147 0.396225
  C 3.200987 0.570760 1.572592
  C 2.388943 1.019353 2.778956
  H 3.064801 1.300930 3.579711
  C 3.090078 -0.370897 -0.817814
  C 4.458625 -0.455856 -0.931912
  C 5.148758 -0.875701 -2.062733
  C 4.538564 -1.326633 -3.335889
  H 3.458826 -1.305143 -3.317208
  O 6.473690 -0.898239 -2.082154
  H 0.435393 0.904303 1.043372
  H 1.802011 -0.786742 0.714492
  H 0.467511 0.263288 -0.687972
  H 3.804319 1.415332 1.224045
  H 3.881539 -0.218251 1.885551
  H 1.749571 0.222798 3.151889
  H 1.779851 1.888908 2.547670
  H 2.468506 -0.640054 -1.649517
  H 5.063134 -0.165803 -0.082827
  H 4.879644 -2.337751 -3.555748
  H 4.901717 -0.696948 -4.147539
  H 6.888644 -0.599160 -1.253134
 23
 42.708610
  C 0.995468 0.506714 0.214346
  C 2.363912 0.043427 0.405080
  C 3.198785 0.574283 1.573728
  C 2.388231 1.012939 2.784221
  H 3.065206 1.300494 3.582451
  C 3.090999 -0.378072 -0.815640
  C 4.456131 -0.462577 -0.926896
  C 5.149395 -0.879195 -2.062354
  C 4.538509 -1.329223 -3.332544
  H 3.456796 -1.314383 -3.312077
  O 6.469901 -0.894298 -2.082062
  H 0.441421 0.931382 1.028759
  H 1.861865 -0.847998 0.732959
  H 0.479748 0.305986 -0.706382
  H 3.784700 1.428035 1.216441
  H 3.894487 -0.203081 1.887273
  H 1.758888 0.208065 3.158111
  H 1.769121 1.874176 2.558316
  H 2.468405 -0.644312 -1.650403
  H 5.060326 -0.174883 -0.076308
  H 4.885405 -2.336061 -3.555648
  H 4.897078 -0.697209 -4.142681
  H 6.887726 -0.596139 -1.253476
 23
 41.834936
  C 1.006753 0.535504 0.201164
  C 2.358368 0.024002 0.413592
  C 3.196946 0.581126 1.573390
  C 2.388288 1.004670 2.791705
  H 3.067497 1.295911 3.589338
  C 3.093441 -0.382912 -0.813912
  C 4.455211 -0.472044 -0.921233
  C 5.150797 -0.884965 -2.060835
  C 4.538412 -1.332457 -3.331512
  H 3.458028 -1.324012 -3.309328
  O 6.466200 -0.894313 -2.079729
  H 0.448415 0.955778 1.014486
  H 1.923642 -0.898410 0.749215
  H 0.496956 0.350423 -0.725264
  H 3.758821 1.443621 1.208184
  H 3.910329 -0.180910 1.884293
  H 1.770631 0.190549 3.163256
  H 1.755941 1.861013 2.574663
  H 2.470811 -0.641418 -1.651154
  H 5.059171 -0.190550 -0.069230
  H 4.890618 -2.336627 -3.560193
  H 4.892649 -0.695738 -4.140488
  H 6.886995 -0.598090 -1.250318
