 17
 0.000000
  H 1.439095 0.112299 0.331401
  C 2.520107 0.111446 0.329216
  C 3.196165 0.597137 1.535163
  H 2.484690 0.903220 2.295728
  C 3.145269 -0.347148 -0.810876
  C 4.531831 -0.409237 -0.965570
  C 5.212194 -0.863954 -2.101031
  C 4.572275 -1.357362 -3.333821
  H 3.490927 -1.340262 -3.292239
  O 6.516500 -0.876699 -2.133819
  H 3.848139 1.440421 1.298964
  H 3.848683 -0.174140 1.949074
  H 2.510818 -0.672458 -1.621087
  H 5.139503 -0.076028 -0.134190
  H 4.920813 -2.371139 -3.534070
  H 4.921449 -0.762114 -4.178191
  H 6.963452 -0.553570 -1.326987
 17
 0.135082
  H 1.410159 0.226860 0.191211
  C 2.486782 0.175645 0.252783
  C 3.108063 0.565898 1.520481
  H 2.366406 0.854642 2.256582
  C 3.162004 -0.264856 -0.864542
  C 4.555218 -0.334201 -0.962919
  C 5.258117 -0.824291 -2.066462
  C 4.643676 -1.465445 -3.245791
  H 3.565205 -1.544969 -3.183312
  O 6.559058 -0.745709 -2.127827
  H 3.799359 1.397601 1.370692
  H 3.711150 -0.249935 1.922549
  H 2.572137 -0.552848 -1.721877
  H 5.137507 0.042731 -0.133862
  H 5.074394 -2.460447 -3.368814
  H 4.925639 -0.912147 -4.142725
  H 6.994908 -0.330530 -1.358763
 17
 1.307114
  H 1.388130 0.380650 -0.002304
  C 2.448631 0.238531 0.149176
  C 2.981734 0.460383 1.496102
  H 2.209197 0.773431 2.189840
  C 3.199257 -0.165945 -0.930067
  C 4.596600 -0.195471 -0.978725
  C 5.301268 -0.787497 -2.026331
  C 4.683650 -1.603407 -3.095138
  H 3.651720 -1.868146 -2.910035
  O 6.594698 -0.683116 -2.160842
  H 3.775392 1.210413 1.479133
  H 3.453093 -0.449937 1.871717
  H 2.684269 -0.500411 -1.821567
  H 5.155222 0.317883 -0.208221
  H 5.266122 -2.518530 -3.207653
  H 4.776691 -1.080024 -4.047045
  H 7.050513 -0.160659 -1.471879
 17
 2.996281
  H 1.388370 0.437229 -0.112796
  C 2.441665 0.283910 0.083249
  C 2.906175 0.415726 1.463780
  H 2.115577 0.749957 2.127399
  C 3.245675 -0.074033 -0.972053
  C 4.648983 -0.091707 -0.969202
  C 5.337612 -0.729570 -1.991888
  C 4.655426 -1.565289 -3.021154
  H 3.731834 -2.014769 -2.687256
  O 6.627020 -0.729761 -2.183125
  H 3.751470 1.105866 1.525330
  H 3.291387 -0.542414 1.822585
  H 2.781391 -0.420567 -1.891957
  H 5.192219 0.456192 -0.214003
  H 5.338618 -2.362391 -3.309470
  H 4.493078 -0.978572 -3.922352
  H 7.155138 -0.253172 -1.514905
 17
 12.524065
  H 1.486560 0.728899 -0.173748
  C 2.490803 0.399053 0.051081
  C 2.861869 0.236761 1.459729
  H 2.052518 0.515182 2.123643
  C 3.340910 0.135994 -0.992366
  C 4.742621 0.136513 -1.054568
  C 5.339039 -0.664325 -2.011678
  C 4.541771 -1.601778 -2.861426
  H 3.710552 -2.098160 -2.379755
  O 6.611226 -0.779333 -2.278468
  H 3.750368 0.826425 1.692203
  H 3.136696 -0.799698 1.653358
  H 2.931636 -0.366132 -1.887917
  H 5.320997 0.812447 -0.444595
  H 5.221145 -2.448175 -3.047099
  H 4.376103 -1.211654 -3.861595
  H 7.207363 -0.235773 -1.728032
 17
 30.415885
  H 1.563866 0.710280 -0.302096
  C 2.558179 0.433715 0.024395
  C 2.731336 0.144809 1.461483
  H 1.856556 0.427635 2.034593
  C 3.512737 0.230948 -0.919272
  C 4.907613 0.232555 -1.067363
  C 5.389734 -0.626198 -2.026614
  C 4.438962 -1.564524 -2.717922
  H 3.789245 -2.177320 -2.102982
  O 6.613608 -0.810222 -2.449325
  H 3.608581 0.669714 1.848858
  H 2.929147 -0.916384 1.605859
  H 3.164870 -0.362155 -1.856244
  H 5.533373 0.945500 -0.547797
  H 5.117854 -2.415206 -2.979339
  H 4.158856 -1.257487 -3.717343
  H 7.286150 -0.295945 -1.967002
 17
 66.695243
  H 1.760286 0.959192 -0.351527
  C 2.667944 0.501580 0.025384
  C 2.622488 0.066419 1.454352
  H 1.659533 0.310302 1.897425
  C 3.706106 0.341004 -0.777782
  C 5.051158 0.303207 -1.082765
  C 5.422892 -0.635531 -2.017181
  C 4.326514 -1.511557 -2.575065
  H 3.769464 -2.148193 -1.878360
  O 6.617184 -0.864431 -2.559632
  H 3.411197 0.558986 2.023665
  H 2.783031 -1.014821 1.532578
  H 3.384629 -0.654449 -1.945496
  H 5.729530 1.038685 -0.677622
  H 4.894079 -2.409255 -2.905959
  H 3.990906 -1.228664 -3.579099
  H 7.306885 -0.250539 -2.265125
 17
 66.861223
  H 1.985046 1.277374 -0.288567
  C 2.796071 0.685015 0.126260
  C 2.517181 0.089482 1.484876
  H 1.542121 0.407955 1.845975
  C 3.866623 0.477086 -0.566676
  C 5.108054 0.284155 -1.059357
  C 5.397259 -0.668974 -2.024400
  C 4.283435 -1.536713 -2.573436
  H 3.847797 -2.281256 -1.841170
  O 6.607245 -0.852195 -2.615534
  H 3.272479 0.415926 2.194742
  H 2.539454 -0.998692 1.453750
  H 3.373278 -0.956514 -2.212680
  H 5.880883 0.964001 -0.727405
  H 4.786385 -2.459147 -2.966765
  H 3.979447 -1.272628 -3.617093
  H 7.270440 -0.224997 -2.300765
 17
 66.777860
  H 2.000374 1.407988 -0.181921
  C 2.803694 0.725498 0.168247
  C 2.508115 0.049400 1.496307
  H 1.518107 0.385470 1.888916
  C 3.894209 0.526753 -0.552142
  C 5.127159 0.283933 -1.059045
  C 5.384438 -0.651082 -2.049104
  C 4.269539 -1.510667 -2.621213
  H 3.641213 -2.041624 -1.826026
  O 6.608028 -0.863340 -2.634170
  H 3.301181 0.320504 2.223541
  H 2.495023 -1.063506 1.396877
  H 3.340917 -0.853954 -2.530481
  H 5.939088 0.915573 -0.705276
  H 4.664816 -2.573222 -2.676536
  H 4.229177 -1.462596 -3.731188
  H 7.282686 -0.260474 -2.303987
