 20
 0.000000
  C 1.008458 -0.070951 0.048772
  C 2.504239 -0.083065 0.024991
  C 3.218312 -0.596198 -0.982378
  C 4.656103 -0.607169 -1.003915
  C 5.376265 -1.122394 -2.015386
  C 6.814768 -1.131415 -2.033092
  C 7.534187 -1.642723 -3.036885
  C 9.024420 -1.660578 -3.071928
  H 0.649902 0.395877 0.965233
  H 0.611946 -1.085654 0.011563
  H 0.611945 0.495557 -0.793888
  H 3.005999 0.352191 0.879477
  H 2.706096 -1.029522 -1.833055
  H 5.161017 -0.172227 -0.150054
  H 4.872516 -1.557567 -2.869706
  H 7.320667 -0.696605 -1.179489
  H 7.036570 -2.079378 -3.894091
  H 9.456601 -1.206928 -2.181348
  H 9.384692 -1.114014 -3.945067
  H 9.384697 -2.688217 -3.143204
 20
 7.900972
  C 1.075328 -0.135920 -0.115855
  C 2.549029 -0.086729 0.014364
  C 3.312365 -0.586110 -0.943049
  C 4.719007 -0.557715 -0.863586
  C 5.415174 -1.076767 -1.877802
  C 6.816043 -1.087306 -1.911016
  C 7.397364 -1.618146 -2.970533
  C 8.889914 -1.670319 -3.128891
  H 0.776180 0.327412 0.790841
  H 0.690811 -1.157213 -0.170323
  H 0.706598 0.425380 -0.977727
  H 2.979000 0.361454 0.899543
  H 2.864620 -1.030496 -1.820951
  H 5.194919 -0.117744 0.000354
  H 4.897967 -1.506088 -2.724712
  H 7.376348 -0.669280 -1.087524
  H 6.834535 -2.031588 -3.789645
  H 9.406085 -1.219261 -2.283235
  H 9.210623 -1.162023 -4.035992
  H 9.227061 -2.702703 -3.208045
 20
 21.439297
  C 1.132774 -0.287219 -0.485819
  C 2.509892 -0.090231 0.024500
  C 3.497841 -0.526659 -0.720815
  C 4.881150 -0.421090 -0.453420
  C 5.587066 -0.906188 -1.469861
  C 6.974103 -0.976630 -1.704086
  C 7.242642 -1.527761 -2.877016
  C 8.644070 -1.762682 -3.352547
  H 0.663562 0.155519 0.342224
  H 0.872656 -1.335064 -0.591313
  H 0.938658 0.242653 -1.412683
  H 2.666522 0.401831 0.973001
  H 3.229500 -1.001964 -1.657257
  H 5.273222 0.028828 0.440833
  H 5.011809 -1.313075 -2.290067
  H 7.713238 -0.628996 -1.006084
  H 6.488164 -1.874259 -3.572056
  H 9.377881 -1.375305 -2.629946
  H 8.807397 -1.278928 -4.305119
  H 8.820972 -2.837993 -3.496329
 20
 28.454195
  C 1.330235 -0.370577 -0.819353
  C 2.465842 0.005467 0.077469
  C 3.621528 -0.420515 -0.418066
  C 5.010971 -0.351678 -0.106880
  C 5.697363 -0.900005 -1.130138
  C 7.027221 -1.057319 -1.590691
  C 7.077046 -1.573933 -2.826624
  C 8.394525 -1.747963 -3.524936
  H 0.495143 -0.071298 -0.263088
  H 1.290045 -1.445149 -0.954158
  H 1.382092 0.130528 -1.777253
  H 2.304168 0.546770 0.995970
  H 3.450561 -0.943889 -1.354644
  H 5.408224 0.139763 0.758855
  H 5.049013 -1.316388 -1.891552
  H 7.902985 -0.755355 -1.044742
  H 6.204942 -1.865253 -3.386020
  H 9.214088 -1.401715 -2.911870
  H 8.396575 -1.187988 -4.468428
  H 8.558126 -2.793803 -3.768797
 20
 38.106368
  C 1.535088 -0.362055 -1.010502
  C 2.464660 0.037513 0.099467
  C 3.671108 -0.409953 -0.221457
  C 5.069640 -0.391446 0.076168
  C 5.703257 -0.982946 -0.957557
  C 6.978349 -1.089362 -1.556663
  C 6.936337 -1.601128 -2.794649
  C 8.195746 -1.689006 -3.605213
  H 0.517433 -0.191965 -0.791296
  H 1.615169 -1.435505 -1.186882
  H 1.792874 0.155259 -1.934478
  H 2.143602 0.612994 0.948495
  H 3.556477 -0.978457 -1.135087
  H 5.522995 0.160859 0.881376
  H 5.022566 -1.469948 -1.647550
  H 7.886607 -0.715238 -1.113884
  H 6.047373 -1.965031 -3.275553
  H 9.037840 -1.257996 -3.071183
  H 8.074915 -1.162906 -4.554482
  H 8.426365 -2.727372 -3.844653
 20
 48.795329
  C 1.707059 -0.364077 -1.219771
  C 2.498950 0.053858 0.000488
  C 3.718726 -0.445488 -0.140159
  C 5.120730 -0.442244 0.229328
  C 5.759415 -1.087298 -0.771726
  C 6.979402 -1.149447 -1.459134
  C 6.829834 -1.612897 -2.710705
  C 7.969466 -1.599811 -3.675148
  H 0.661591 -0.237844 -1.158788
  H 1.828613 -1.441648 -1.387925
  H 2.070298 0.167020 -2.105139
  H 2.088960 0.703895 0.760602
  H 3.662356 -1.092131 -1.005922
  H 5.570121 0.189136 0.979078
  H 5.079959 -1.651946 -1.386603
  H 7.907030 -0.722855 -1.111358
  H 5.897633 -1.995216 -3.114444
  H 8.850621 -1.136323 -3.235101
  H 7.697012 -1.052339 -4.584178
  H 8.225295 -2.622303 -3.979314
 20
 58.816064
  C 1.892539 -0.347980 -1.385840
  C 2.551978 0.075158 -0.087659
  C 3.753170 -0.496527 -0.093671
  C 5.124341 -0.517453 0.333725
  C 5.764597 -1.211455 -0.639526
  C 6.955860 -1.203455 -1.397825
  C 6.723524 -1.629973 -2.656323
  C 7.769187 -1.502292 -3.720184
  H 0.854355 -0.246507 -1.481198
  H 2.031328 -1.421281 -1.533363
  H 2.376889 0.159699 -2.223362
  H 2.105379 0.790575 0.581122
  H 3.709544 -1.210815 -0.903907
  H 5.568161 0.202609 1.004808
  H 5.098371 -1.854873 -1.206791
  H 7.877607 -0.719654 -1.117885
  H 5.785253 -2.032180 -2.999474
  H 8.665912 -1.016055 -3.337806
  H 7.384808 -0.922101 -4.562905
  H 8.042827 -2.485526 -4.104617
 20
 59.039555
  C 2.131988 -0.281326 -1.625960
  C 2.733999 0.120871 -0.285834
  C 3.788402 -0.692960 -0.065167
  C 5.119087 -0.679602 0.462004
  C 5.809357 -1.505365 -0.413428
  C 6.905102 -1.263831 -1.300673
  C 6.593978 -1.625827 -2.570197
  C 7.480494 -1.304814 -3.737841
  H 1.096691 -0.117160 -1.829415
  H 2.186917 -1.372775 -1.737521
  H 2.742030 0.150733 -2.431626
  H 2.402889 1.001722 0.234116
  H 3.692648 -1.543520 -0.696500
  H 5.543357 0.226261 0.859762
  H 5.220487 -2.294544 -0.842941
  H 7.748012 -0.631387 -1.088266
  H 5.659116 -2.099140 -2.848386
  H 8.373207 -0.769639 -3.422369
  H 6.938967 -0.693289 -4.469012
  H 7.784494 -2.226986 -4.243977
 20
 56.485084
  C 2.366863 -0.189815 -1.815232
  C 2.895191 0.082436 -0.439187
  C 3.755520 -0.886702 -0.062759
  C 5.099359 -0.821039 0.460436
  C 5.834703 -1.700687 -0.298071
  C 6.822695 -1.306753 -1.269514
  C 6.435826 -1.545758 -2.538868
  C 7.259372 -1.138820 -3.728929
  H 1.347576 0.050107 -2.048916
  H 2.360254 -1.273549 -1.977299
  H 3.053637 0.218651 -2.553495
  H 2.710322 1.030957 0.026598
  H 3.595309 -1.805895 -0.607366
  H 5.514067 0.114929 0.793420
  H 5.304324 -2.583578 -0.628545
  H 7.597742 -0.588605 -1.058347
  H 5.517342 -2.038989 -2.792765
  H 8.158322 -0.614050 -3.426549
  H 6.680881 -0.496260 -4.388270
  H 7.542004 -2.021499 -4.301087
 20
 54.480290
  C 2.608800 -0.149950 -1.967747
  C 3.056695 0.041619 -0.559217
  C 3.682451 -1.023702 -0.025707
  C 5.038011 -0.962797 0.431429
  C 5.768746 -1.861898 -0.290107
  C 6.724971 -1.386956 -1.269614
  C 6.297553 -1.471901 -2.541075
  C 7.078645 -0.938692 -3.711047
  H 1.616252 0.175204 -2.232300
  H 2.612743 -1.216391 -2.216023
  H 3.341529 0.329085 -2.613497
  H 3.074216 1.040421 -0.154723
  H 3.420060 -1.974791 -0.465399
  H 5.461307 -0.025016 0.762948
  H 5.259673 -2.768804 -0.593428
  H 7.529905 -0.730850 -0.997745
  H 5.384088 -1.981613 -2.794519
  H 7.978214 -0.431656 -3.381819
  H 6.472404 -0.242360 -4.285775
  H 7.360506 -1.756318 -4.375765
 20
 57.496871
  C 2.829846 -0.104638 -2.087849
  C 3.192232 0.021433 -0.647546
  C 3.622659 -1.099614 -0.044951
  C 4.977783 -1.120806 0.409761
  C 5.674512 -2.018842 -0.329855
  C 6.622997 -1.475142 -1.284071
  C 6.175123 -1.395344 -2.545044
  C 6.934695 -0.732145 -3.654743
  H 1.902704 0.309419 -2.434478
  H 2.795452 -1.155244 -2.371090
  H 3.640153 0.359214 -2.650505
  H 3.428170 1.010310 -0.283311
  H 3.259706 -2.043152 -0.439348
  H 5.435931 -0.208245 0.763175
  H 5.146686 -2.899061 -0.677625
  H 7.476653 -0.906246 -0.957426
  H 5.264671 -1.894266 -2.842403
  H 7.837153 -0.254183 -3.280935
  H 6.312355 0.020445 -4.138448
  H 7.213722 -1.465840 -4.414072
 20
 63.552911
  C 3.053732 -0.035684 -2.185301
  C 3.294287 0.017694 -0.710154
  C 3.554159 -1.153868 -0.095136
  C 4.900969 -1.283763 0.379421
  C 5.580927 -2.170913 -0.399430
  C 6.528324 -1.544910 -1.319013
  C 6.070248 -1.311323 -2.557009
  C 6.828780 -0.539971 -3.588075
  H 2.240735 0.498958 -2.627659
  H 2.930779 -1.070403 -2.503760
  H 3.962715 0.353512 -2.646110
  H 3.700710 0.942851 -0.333055
  H 3.105383 -2.054746 -0.491926
  H 5.398698 -0.407942 0.777043
  H 5.038006 -3.014407 -0.807008
  H 7.415597 -1.059416 -0.948056
  H 5.160366 -1.785972 -2.906557
  H 7.732344 -0.108807 -3.168157
  H 6.208138 0.265405 -3.986923
  H 7.102859 -1.186886 -4.423795
 20
 72.927535
  C 3.266752 0.051220 -2.224820
  C 3.347928 0.024463 -0.726900
  C 3.475766 -1.198893 -0.166037
  C 4.807924 -1.430617 0.318120
  C 5.471758 -2.283665 -0.512531
  C 6.428633 -1.584191 -1.376621
  C 5.992815 -1.225832 -2.591303
  C 6.789787 -0.382999 -3.535613
  H 2.646670 0.728332 -2.759538
  H 3.029982 -0.943013 -2.604132
  H 4.273111 0.322476 -2.544418
  H 3.855159 0.867026 -0.284084
  H 2.974917 -2.046202 -0.617147
  H 5.336181 -0.606184 0.780521
  H 4.915682 -3.079820 -0.988402
  H 7.323198 -1.154626 -0.955463
  H 5.096899 -1.674698 -3.005635
  H 7.693479 -0.007557 -3.058801
  H 6.197911 0.468028 -3.880196
  H 7.071958 -0.961189 -4.418011
 20
 85.529725
  C 3.461394 0.143653 -2.179658
  C 3.307791 0.060176 -0.686205
  C 3.362671 -1.225131 -0.237400
  C 4.681218 -1.540839 0.222418
  C 5.335902 -2.333502 -0.670976
  C 6.345840 -1.598792 -1.461341
  C 5.984920 -1.139187 -2.665935
  C 6.859522 -0.269720 -3.521592
  H 3.122385 0.924882 -2.814177
  H 3.141696 -0.794166 -2.636590
  H 4.534784 0.251954 -2.277785
  H 3.830455 0.827681 -0.137612
  H 2.845512 -2.002567 -0.787692
  H 5.227448 -0.774325 0.759050
  H 4.772410 -3.066940 -1.226237
  H 7.231172 -1.220424 -0.967564
  H 5.111644 -1.540217 -3.159224
  H 7.758077 0.035918 -2.982685
  H 6.318422 0.630146 -3.837481
  H 7.159192 -0.804152 -4.426990
