 17
 0.000000
  C -0.949351 -0.111829 2.569613
  C -1.886953 -0.276444 1.382448
  H -2.643079 0.511809 1.378558
  C -1.167728 -0.211915 0.053970
  O 0.010032 0.039374 -0.042970
  C -2.035229 -0.460365 -1.153166
  H -1.503499 -0.162748 3.502924
  H -0.439475 0.848896 2.516332
  H -0.195709 -0.896002 2.564600
  H -2.419798 -1.229472 1.436143
  H -3.030762 -0.794001 -0.883351
  H -1.556063 -1.198868 -1.793452
  H -2.106136 0.465589 -1.724537
  O 3.187892 0.355826 -0.203313
  H 2.251354 0.147939 -0.121241
  H 4.207513 -1.125877 0.885853
  H 3.311398 1.202847 0.229078
 17
 -0.927069
  C -0.860731 -0.104034 2.548663
  C -1.813453 -0.301841 1.378747
  H -2.611237 0.447745 1.401683
  C -1.123996 -0.188597 0.040672
  O 0.043162 0.095710 -0.070102
  C -2.001735 -0.437604 -1.159406
  H -1.391049 -0.196817 3.492224
  H -0.403495 0.881418 2.498768
  H -0.067650 -0.846516 2.516714
  H -2.292196 -1.284014 1.431882
  H -2.990737 -0.793887 -0.879027
  H -1.517550 -1.159155 -1.815231
  H -2.097064 0.490924 -1.720225
  O 3.036306 0.294286 -0.229531
  H 2.090965 0.128544 -0.131287
  H 3.829920 -1.086316 1.119976
  H 3.215938 1.124705 0.216562
 17
 -1.402538
  C -0.788654 -0.081012 2.525872
  C -1.750560 -0.320936 1.368960
  H -2.602878 0.362253 1.429245
  C -1.101167 -0.118483 0.022089
  O 0.038860 0.259631 -0.101919
  C -1.977453 -0.408898 -1.169439
  H -1.288374 -0.240125 3.476118
  H -0.409858 0.938493 2.495158
  H 0.058950 -0.758762 2.456768
  H -2.149854 -1.338873 1.402976
  H -2.939942 -0.812932 -0.881414
  H -1.463653 -1.106687 -1.828412
  H -2.123297 0.512345 -1.731097
  O 2.920922 0.196327 -0.239491
  H 1.962789 0.147755 -0.121506
  H 3.470122 -1.055069 1.322213
  H 3.200914 1.027252 0.151563
 17
 -1.532154
  C -0.764533 -0.077347 2.529310
  C -1.721499 -0.340776 1.374301
  H -2.605245 0.298949 1.453272
  C -1.091787 -0.078990 0.028499
  O 0.020696 0.373588 -0.094899
  C -1.948298 -0.410471 -1.166234
  H -1.250354 -0.277974 3.480660
  H -0.434810 0.958471 2.515471
  H 0.113422 -0.712740 2.442212
  H -2.070578 -1.376108 1.390245
  H -2.897776 -0.852619 -0.881207
  H -1.402030 -1.092416 -1.815020
  H -2.125980 0.499596 -1.736992
  O 2.836031 0.115486 -0.232315
  H 1.878497 0.140066 -0.092344
  H 3.329853 -1.079502 1.382323
  H 3.181273 0.943868 0.107939
 17
 -1.609161
  C -0.737145 -0.044512 2.520996
  C -1.684456 -0.337451 1.364962
  H -2.602523 0.249391 1.461666
  C -1.078458 -0.010140 0.023277
  O -0.001969 0.527214 -0.092645
  C -1.905837 -0.390126 -1.176917
  H -1.205721 -0.291266 3.470027
  H -0.465586 1.008188 2.526990
  H 0.174195 -0.628422 2.416852
  H -1.974356 -1.390990 1.360171
  H -2.835036 -0.876633 -0.898047
  H -1.319530 -1.050982 -1.812810
  H -2.120660 0.504666 -1.758747
  O 2.727980 0.041534 -0.221193
  H 1.777176 0.171721 -0.086429
  H 3.200181 -1.110922 1.414481
  H 3.155131 0.854612 0.057287
 17
 -1.118500
  C -0.743053 -0.017186 2.541897
  C -1.659558 -0.354599 1.373048
  H -2.617084 0.164848 1.473593
  C -1.070050 0.041510 0.043675
  O -0.051105 0.687912 -0.050015
  C -1.831297 -0.410322 -1.173891
  H -1.200660 -0.311939 3.482552
  H -0.544327 1.051423 2.567663
  H 0.206431 -0.536203 2.435453
  H -1.875414 -1.425322 1.347859
  H -2.730465 -0.960288 -0.915024
  H -1.179242 -1.036923 -1.780269
  H -2.091728 0.457616 -1.777236
  O 2.546488 -0.042636 -0.142228
  H 1.612789 0.211367 -0.047376
  H 3.201194 -1.261272 1.317945
  H 3.062481 0.744632 0.045033
 17
 0.811891
  C -0.758033 0.012314 2.570529
  C -1.644714 -0.341806 1.383674
  H -2.621032 0.143712 1.477243
  C -1.050710 0.092205 0.069380
  O -0.069578 0.801541 0.002374
  C -1.752464 -0.400618 -1.166641
  H -1.223104 -0.302825 3.500751
  H -0.590418 1.085889 2.607534
  H 0.207195 -0.479199 2.476294
  H -1.824617 -1.418816 1.343925
  H -2.631609 -0.991498 -0.930454
  H -1.053725 -1.000693 -1.747700
  H -2.035731 0.449668 -1.784709
  O 2.363087 -0.120246 -0.037526
  H 1.450659 0.228474 0.000591
  H 3.296717 -1.417283 1.025031
  H 2.947819 0.638172 0.020405
 17
 5.364711
  C -0.768665 0.029646 2.595061
  C -1.639585 -0.325677 1.396277
  H -2.611673 0.172485 1.472428
  C -1.016572 0.086620 0.088571
  O -0.016693 0.792162 0.033012
  C -1.692467 -0.408247 -1.160663
  H -1.254439 -0.269007 3.520310
  H -0.587535 1.100872 2.622956
  H 0.191235 -0.475894 2.523449
  H -1.833354 -1.401318 1.367245
  H -2.580677 -0.991133 -0.938182
  H -0.987851 -1.018355 -1.724998
  H -1.959319 0.438931 -1.790914
  O 2.277769 -0.195192 0.031752
  H 1.338572 0.190271 0.052096
  H 3.240334 -1.331781 0.762287
  H 2.871225 0.560714 0.035029
 17
 10.024344
  C -0.760457 0.014312 2.613037
  C -1.633091 -0.328819 1.412213
  H -2.599126 0.182706 1.495047
  C -0.999982 0.069061 0.106405
  O 0.052331 0.765737 0.061308
  C -1.657285 -0.403849 -1.157469
  H -1.249826 -0.283073 3.537205
  H -0.570565 1.084207 2.644065
  H 0.195408 -0.499330 2.542128
  H -1.844421 -1.402971 1.391183
  H -2.554132 -0.978580 -0.947311
  H -0.957356 -1.019059 -1.725344
  H -1.914024 0.448908 -1.786546
  O 2.251952 -0.233169 0.049231
  H 1.203549 0.197731 0.076242
  H 3.120936 -1.224069 0.602018
  H 2.834247 0.534272 0.049123
 17
 -7.581944
  C -0.737807 -0.009804 2.615956
  C -1.625752 -0.306575 1.417310
  H -2.589211 0.216053 1.516168
  C -0.996415 0.079739 0.108625
  O 0.124608 0.794763 0.034200
  C -1.639865 -0.435013 -1.146481
  H -1.214784 -0.325972 3.539144
  H -0.495705 1.048726 2.661702
  H 0.199616 -0.559980 2.520957
  H -1.872618 -1.375338 1.383703
  H -2.544499 -0.989318 -0.923832
  H -0.939432 -1.060301 -1.707173
  H -1.903033 0.404146 -1.796606
  O 2.339175 -0.284011 0.114155
  H 1.102964 0.257229 0.134001
  H 2.951810 -1.028280 0.532934
  H 2.939615 0.472015 0.087039
 17
 -22.861488
  C -0.758967 0.004095 2.626515
  C -1.639445 -0.334707 1.428621
  H -2.608661 0.172027 1.530114
  C -1.017139 0.056032 0.122285
  O 0.133867 0.774023 0.084485
  C -1.635479 -0.407626 -1.153533
  H -1.239322 -0.297721 3.553356
  H -0.567512 1.074309 2.655458
  H 0.195876 -0.509077 2.548391
  H -1.855471 -1.412743 1.415652
  H -2.531504 -0.986189 -0.956330
  H -0.932048 -1.019849 -1.727780
  H -1.893538 0.446421 -1.787443
  O 2.398377 -0.314319 0.078211
  H 1.002439 0.249054 0.102857
  H 2.950937 -1.018925 0.489020
  H 2.973495 0.457374 0.052924
 17
 -28.033500
  C -0.726249 0.003562 2.595638
  C -1.632377 -0.351143 1.422313
  H -2.607101 0.140254 1.559117
  C -1.052170 0.044130 0.101322
  O 0.080623 0.803785 0.040411
  C -1.680962 -0.403433 -1.172499
  H -1.187479 -0.289357 3.535985
  H -0.539765 1.074156 2.611696
  H 0.229549 -0.508389 2.505387
  H -1.833107 -1.431624 1.422324
  H -2.564528 -1.001582 -0.968745
  H -0.979246 -0.995355 -1.770287
  H -1.969651 0.451952 -1.790554
  O 2.485308 -0.337470 0.109733
  H 0.907540 0.283741 0.094834
  H 2.914941 -1.009372 0.644921
  H 3.059001 0.431563 0.090981
 17
 -29.138119
  C -0.642501 -0.009408 2.530088
  C -1.596152 -0.369271 1.395932
  H -2.557190 0.140912 1.560758
  C -1.061579 -0.006954 0.047408
  O 0.055386 0.775692 -0.079548
  C -1.775455 -0.407797 -1.195469
  H -1.087499 -0.252356 3.492375
  H -0.417181 1.053773 2.505502
  H 0.289706 -0.562552 2.433646
  H -1.811778 -1.446069 1.423830
  H -2.656173 -0.995641 -0.953716
  H -1.122176 -0.996275 -1.847994
  H -2.084740 0.468544 -1.773249
  O 2.556149 -0.344491 0.219957
  H 0.882524 0.271165 0.051426
  H 2.769509 -0.873603 0.992515
  H 3.110072 0.439300 0.231568
 17
 -29.537184
  C -0.567167 -0.085304 2.478077
  C -1.563752 -0.404619 1.368993
  H -2.508145 0.122188 1.575319
  C -1.069493 -0.029460 0.008993
  O 0.042640 0.756461 -0.150340
  C -1.850412 -0.363728 -1.212644
  H -0.994175 -0.319579 3.450501
  H -0.305996 0.969909 2.455035
  H 0.340870 -0.672281 2.353767
  H -1.801031 -1.476673 1.387235
  H -2.733478 -0.939774 -0.951103
  H -1.243692 -0.942132 -1.916361
  H -2.164416 0.541335 -1.741609
  O 2.582514 -0.326999 0.360238
  H 0.867038 0.261388 0.019528
  H 2.626680 -0.722014 1.234333
  H 3.115051 0.471442 0.372477
 17
 -29.726652
  C -0.514081 -0.102270 2.438706
  C -1.534326 -0.415847 1.349966
  H -2.472753 0.117414 1.575280
  C -1.069660 -0.043427 -0.022628
  O 0.041043 0.734824 -0.216233
  C -1.895829 -0.351424 -1.220665
  H -0.926936 -0.325174 3.419670
  H -0.238858 0.949501 2.404790
  H 0.381999 -0.703085 2.302422
  H -1.776470 -1.486155 1.374929
  H -2.780883 -0.911171 -0.935100
  H -1.323313 -0.936802 -1.948514
  H -2.208258 0.565349 -1.730956
  O 2.582045 -0.330915 0.477965
  H 0.864584 0.242878 -0.030593
  H 2.538428 -0.636238 1.385655
  H 3.106305 0.472703 0.467744
