 22
 0.000000
  C 0.954291 0.064694 0.173151
  C 2.455508 0.050921 0.086857
  C 3.252524 -0.023296 1.376317
  C 2.469369 -0.088371 2.683592
  H 3.174083 -0.140677 3.512045
  C 3.081504 0.111190 -1.110720
  C 2.328271 0.183678 -2.412584
  H 1.255389 0.171286 -2.266177
  C 4.535143 0.125927 -1.224448
  C 5.225579 0.221598 -2.357679
  H 6.302919 0.227568 -2.351563
  H 0.608118 0.045725 1.199006
  H 0.526082 -0.800321 -0.334481
  H 0.552593 0.962692 -0.295969
  H 3.908587 0.851074 1.427300
  H 3.894942 -0.908294 1.332376
  H 1.838676 -0.973330 2.727822
  H 1.855242 0.797904 2.826744
  H 2.598895 -0.661866 -3.044302
  H 2.593275 1.096853 -2.944275
  H 5.093895 0.051114 -0.303657
  H 4.765044 0.299004 -3.326664
 22
 -0.005509
  C 0.955009 -0.014361 0.175946
  C 2.455459 0.027025 0.084932
  C 3.253713 -0.008561 1.374154
  C 2.465716 -0.016629 2.680126
  H 3.164916 0.006743 3.514208
  C 3.077235 0.099273 -1.109035
  C 2.329433 0.222041 -2.410049
  H 1.255783 0.259443 -2.271384
  C 4.528813 0.079221 -1.228029
  C 5.223703 0.191598 -2.357158
  H 6.300107 0.151727 -2.350547
  H 0.623781 -0.329689 1.158022
  H 0.546735 -0.715039 -0.549810
  H 0.528443 0.969826 -0.021950
  H 3.909416 0.867288 1.390120
  H 3.897288 -0.893882 1.365801
  H 1.863628 -0.916890 2.781153
  H 1.821039 0.855705 2.758545
  H 2.566701 -0.618917 -3.060761
  H 2.634158 1.136409 -2.917503
  H 5.083753 -0.054167 -0.310971
  H 4.768009 0.327233 -3.322052
 22
 0.517342
  C 0.966246 -0.105325 0.185480
  C 2.459497 0.026031 0.088727
  C 3.255233 0.041775 1.377778
  C 2.448415 0.063693 2.671958
  H 3.130954 0.134319 3.516838
  C 3.072393 0.080660 -1.110253
  C 2.331982 0.288211 -2.405665
  H 1.263019 0.398790 -2.267359
  C 4.521969 0.012683 -1.239661
  C 5.221382 0.145796 -2.363505
  H 6.293747 0.044346 -2.362578
  H 0.691314 -0.692585 1.056417
  H 0.591384 -0.630997 -0.688092
  H 0.477141 0.865215 0.264753
  H 3.893557 0.930479 1.365706
  H 3.918111 -0.828953 1.405940
  H 1.862910 -0.843972 2.796614
  H 1.781229 0.921627 2.703854
  H 2.512462 -0.540203 -3.090186
  H 2.700072 1.199173 -2.875591
  H 5.069197 -0.200527 -0.332387
  H 4.774085 0.357957 -3.318536
 22
 2.042776
  C 0.985900 -0.203853 0.196531
  C 2.464536 0.023035 0.092458
  C 3.251937 0.094789 1.382907
  C 2.421092 0.145154 2.660939
  H 3.084443 0.238911 3.518616
  C 3.072696 0.066746 -1.114581
  C 2.342022 0.364816 -2.399754
  H 1.284956 0.553363 -2.251558
  C 4.516539 -0.050374 -1.256485
  C 5.211070 0.083131 -2.369338
  H 6.274368 -0.084466 -2.380332
  H 0.806769 -1.037646 0.874359
  H 0.606394 -0.503842 -0.775811
  H 0.442070 0.658418 0.575473
  H 3.873452 0.994368 1.343687
  H 3.932906 -0.759661 1.452471
  H 1.832613 -0.759005 2.792694
  H 1.750146 1.000401 2.657386
  H 2.457013 -0.445139 -3.119828
  H 2.776852 1.264286 -2.832871
  H 5.053342 -0.337573 -0.363735
  H 4.773682 0.364276 -3.310244
 22
 7.715847
  C 1.017576 -0.316069 0.172097
  C 2.476668 0.039098 0.112034
  C 3.243051 0.203452 1.402824
  C 2.386237 0.203611 2.663186
  H 3.012081 0.397062 3.531990
  C 3.074648 0.028686 -1.102737
  C 2.362757 0.531227 -2.337267
  H 1.315704 0.744586 -2.158399
  C 4.506838 -0.152120 -1.281220
  C 5.181694 -0.084146 -2.426796
  H 6.227802 -0.333268 -2.468726
  H 0.945932 -1.265379 0.710113
  H 0.704383 -0.552476 -0.843951
  H 0.374746 0.400132 0.670703
  H 3.791898 1.146640 1.344145
  H 3.992617 -0.589131 1.500820
  H 1.896953 -0.755688 2.805659
  H 1.623463 0.976546 2.615907
  H 2.438807 -0.162118 -3.174632
  H 2.846420 1.463121 -2.626133
  H 5.043609 -0.481375 -0.401993
  H 4.739387 0.233650 -3.355209
 22
 19.329636
  C 1.048852 -0.448888 0.143637
  C 2.479750 0.012927 0.126550
  C 3.230920 0.309226 1.396849
  C 2.377802 0.252922 2.658257
  H 2.957704 0.599023 3.511314
  C 3.043623 -0.024616 -1.116583
  C 2.385249 0.711109 -2.260807
  H 1.387416 1.052614 -2.005418
  C 4.452352 -0.316298 -1.306748
  C 5.152063 -0.201404 -2.437857
  H 6.142943 -0.593598 -2.514924
  H 1.033524 -1.462417 0.560004
  H 0.863584 -0.661733 -0.913400
  H 0.334126 0.153913 0.683380
  H 3.636449 1.320836 1.289510
  H 4.097046 -0.351545 1.514266
  H 2.050427 -0.762938 2.863054
  H 1.504280 0.890200 2.563676
  H 2.323844 0.119042 -3.175606
  H 3.003784 1.582002 -2.463691
  H 4.946942 -0.737234 -0.452916
  H 4.748567 0.241836 -3.341018
 22
 34.025108
  C 1.061237 -0.494233 0.129753
  C 2.472364 0.009586 0.141971
  C 3.207402 0.424140 1.388637
  C 2.397542 0.249946 2.667207
  H 2.975804 0.595570 3.521077
  C 3.014369 -0.062428 -1.119952
  C 2.404179 0.803916 -2.214735
  H 1.382103 1.101478 -1.972171
  C 4.413880 -0.395717 -1.325079
  C 5.105671 -0.308160 -2.466628
  H 6.146578 -0.583679 -2.507354
  H 1.027150 -1.523141 0.501691
  H 1.010599 -0.760621 -0.962737
  H 0.313240 0.103350 0.623586
  H 3.550459 1.455975 1.275563
  H 4.102831 -0.202903 1.475281
  H 2.136920 -0.791569 2.822895
  H 1.491819 0.846521 2.631733
  H 2.392868 0.312561 -3.195393
  H 3.026187 1.693646 -2.291941
  H 4.888858 -0.875608 -0.477271
  H 4.691806 0.097191 -3.363951
 22
 58.955213
  C 1.141501 -0.617647 0.095073
  C 2.499826 -0.040343 0.204793
  C 3.196216 0.463673 1.414700
  C 2.353516 0.399047 2.681294
  H 2.883463 0.820797 3.529608
  C 3.009985 -0.118565 -1.077594
  C 2.431298 0.849915 -2.098607
  H 1.462133 1.231225 -1.782431
  C 4.364594 -0.507457 -1.377063
  C 5.043535 -0.298989 -2.512724
  H 6.011477 -0.742310 -2.673304
  H 1.108313 -1.713656 0.194843
  H 1.329091 -0.784344 -1.054611
  H 0.321370 -0.168243 0.646405
  H 3.535694 1.483350 1.228552
  H 4.122157 -0.119093 1.566910
  H 2.090759 -0.635469 2.898997
  H 1.411223 0.923714 2.536083
  H 2.322641 0.414246 -3.090872
  H 3.110847 1.699469 -2.157021
  H 4.837746 -1.105867 -0.604192
  H 4.652208 0.278146 -3.331453
 22
 78.203116
  C 1.153282 -0.657440 0.158958
  C 2.426573 -0.043554 0.211662
  C 3.163812 0.500503 1.387058
  C 2.383474 0.414570 2.693120
  H 2.955469 0.856831 3.505688
  C 2.924577 -0.139708 -1.136839
  C 2.408780 0.908766 -2.126329
  H 1.417647 1.261226 -1.849849
  C 4.306388 -0.563778 -1.367906
  C 5.034794 -0.363226 -2.462076
  H 6.033076 -0.757517 -2.550085
  H 1.098911 -1.736136 0.087673
  H 1.613370 -0.792658 -1.222392
  H 0.331089 -0.279321 0.771118
  H 3.453088 1.541081 1.197395
  H 4.099918 -0.062640 1.478212
  H 2.171091 -0.623013 2.942081
  H 1.440135 0.948010 2.610556
  H 2.368781 0.515942 -3.140047
  H 3.088344 1.763651 -2.119996
  H 4.724457 -1.174421 -0.574883
  H 4.681167 0.209537 -3.300787
 22
 58.544464
  C 1.126543 -0.682971 0.229012
  C 2.339990 -0.073228 0.216095
  C 3.122671 0.519106 1.337350
  C 2.409028 0.470519 2.692989
  H 2.982215 1.010114 3.445617
  C 2.860185 -0.206445 -1.196349
  C 2.416710 0.963491 -2.115114
  H 1.424285 1.313124 -1.847049
  C 4.271251 -0.637545 -1.366632
  C 5.030932 -0.423655 -2.429952
  H 6.040722 -0.802332 -2.480281
  H 1.057283 -1.740154 0.013086
  H 1.859291 -0.800317 -1.399786
  H 0.326780 -0.427569 0.923036
  H 3.378960 1.565413 1.106165
  H 4.084278 -0.017764 1.381520
  H 2.286854 -0.563451 3.015178
  H 1.423487 0.916156 2.629954
  H 2.419114 0.657141 -3.154390
  H 3.106723 1.809225 -2.011698
  H 4.660632 -1.253658 -0.564571
  H 4.702033 0.152560 -3.276525
 22
 35.488244
  C 1.125332 -0.796842 0.344713
  C 2.286673 -0.126826 0.192483
  C 3.088509 0.552867 1.251199
  C 2.436857 0.544311 2.627803
  H 3.086717 1.029127 3.350974
  C 2.826498 -0.227333 -1.227510
  C 2.433073 0.993860 -2.073677
  H 1.420712 1.309484 -1.830066
  C 4.219954 -0.708588 -1.379276
  C 5.051729 -0.406797 -2.357692
  H 6.053364 -0.813438 -2.392106
  H 0.988420 -1.805707 -0.000856
  H 1.967124 -0.880570 -1.512760
  H 0.387455 -0.513446 1.088714
  H 3.311781 1.586630 0.969782
  H 4.045830 0.015962 1.281391
  H 2.258448 -0.473889 2.955005
  H 1.488966 1.078602 2.611844
  H 2.484199 0.739561 -3.122223
  H 3.109318 1.833261 -1.896310
  H 4.528486 -1.424932 -0.625267
  H 4.792583 0.273849 -3.150265
 22
 17.346936
  C 1.096151 -0.814685 0.392551
  C 2.225387 -0.176565 0.159299
  C 3.064259 0.549070 1.168771
  C 2.478441 0.589088 2.574832
  H 3.141585 1.139778 3.240543
  C 2.775912 -0.301470 -1.255430
  C 2.437963 0.985541 -2.026357
  H 1.412902 1.280172 -1.818304
  C 4.195276 -0.738089 -1.362302
  C 5.070923 -0.351521 -2.275101
  H 6.077311 -0.728399 -2.279852
  H 0.851376 -1.743235 -0.092325
  H 2.047595 -1.016613 -1.660153
  H 0.463291 -0.610105 1.242836
  H 3.267514 1.573466 0.837606
  H 4.027247 0.031501 1.181969
  H 2.352805 -0.418929 2.965927
  H 1.510374 1.082650 2.573730
  H 2.545134 0.820660 -3.096851
  H 3.097316 1.801759 -1.735283
  H 4.495802 -1.460579 -0.613536
  H 4.830738 0.355056 -3.049788
 22
 7.498462
  C 1.050725 -0.815271 0.452067
  C 2.204268 -0.244356 0.138533
  C 3.091888 0.488007 1.105122
  C 2.541461 0.627395 2.518048
  H 3.264197 1.141735 3.147807
  C 2.730709 -0.363468 -1.280662
  C 2.396041 0.934525 -2.028786
  H 1.349842 1.186533 -1.873261
  C 4.171369 -0.761131 -1.353170
  C 5.095457 -0.243733 -2.140424
  H 6.109213 -0.607798 -2.129013
  H 0.587339 -1.570805 -0.159882
  H 2.103068 -1.136259 -1.742806
  H 0.542298 -0.613035 1.379966
  H 3.327876 1.481647 0.711429
  H 4.035700 -0.064353 1.139844
  H 2.342135 -0.350081 2.950540
  H 1.618831 1.203030 2.518285
  H 2.567930 0.811485 -3.095192
  H 3.007702 1.759975 -1.671451
  H 4.434337 -1.576981 -0.689318
  H 4.892915 0.561489 -2.824898
 22
 4.194348
  C 1.067348 -0.867334 0.508698
  C 2.192473 -0.289637 0.120825
  C 3.082205 0.521116 1.022483
  C 2.605437 0.657655 2.461809
  H 3.311302 1.262142 3.027064
  C 2.660365 -0.392346 -1.320997
  C 2.386961 0.918580 -2.062318
  H 1.335756 1.179729 -1.964529
  C 4.093509 -0.838935 -1.377756
  C 5.106599 -0.193949 -1.924428
  H 6.102426 -0.604575 -1.916097
  H 0.464216 -1.448482 -0.170150
  H 2.060111 -1.173563 -1.802674
  H 0.694300 -0.790948 1.515430
  H 3.196909 1.519107 0.590964
  H 4.076170 0.062007 1.014543
  H 2.532257 -0.316167 2.939083
  H 1.633140 1.142282 2.502891
  H 2.620565 0.808977 -3.118843
  H 2.981737 1.732609 -1.657832
  H 4.264036 -1.801103 -0.907815
  H 4.997482 0.761386 -2.407573
