17

H 1.3839752214144667 0.13774593390455322 0.39405409051817164
C 2.453972 0.138831 0.396445
C 3.235887 0.609601 1.567949
H 2.6883388202276386 0.9522710266730456 2.420983725933164
C 3.07476 -0.323868 -0.755623
C 4.452396 -0.411652 -0.974602
C 5.123831 -0.863395 -2.100714
C 4.62192 -1.386396 -3.404454
H 3.5748404227491655 -1.4682160451177917 -3.6089774439401388
O 6.448567 -0.86179 -2.097024
H 3.892013 1.422462 1.236076
H 3.892206 -0.206765 1.89066
H 2.419633 -0.642347 -1.548686
H 5.073532 -0.080521 -0.149771
H 5.075895 -2.376004 -3.531813
H 5.076265 -0.759449 -4.180462
H 6.820588 -0.526463 -1.260938
