 23
 0.000000
  H 1.365650 0.141294 0.403454
  C 2.435627 0.138812 0.396949
  C 3.229471 0.606512 1.560312
  H 2.691778 0.951460 2.418681
  C 3.047724 -0.326485 -0.761128
  C 4.427680 -0.410350 -0.970580
  C 5.111749 -0.860636 -2.093538
  C 4.622398 -1.384411 -3.399794
  C 3.132979 -1.504809 -3.700598
  C 2.922534 -2.067455 -5.103799
  O 6.434575 -0.852273 -2.073085
  H 3.886571 1.416144 1.222870
  H 3.886751 -0.211308 1.877002
  H 2.388559 -0.643775 -1.550690
  H 5.047217 -0.079018 -0.145404
  H 5.082172 -2.371786 -3.523346
  H 5.082493 -0.756172 -4.171309
  H 2.655388 -0.525521 -3.650229
  H 2.655156 -2.177872 -2.987664
  H 3.365851 -1.418585 -5.855871
  H 1.859660 -2.152844 -5.317123
  H 3.365674 -3.056276 -5.199167
  H 6.800018 -0.516405 -1.234749
 23
 0.000000
  H 1.356545 0.170188 0.475505
  C 2.426479 0.165880 0.464437
  C 3.226075 0.632225 1.624400
  H 2.692638 0.978092 2.485051
  C 3.032837 -0.300463 -0.696236
  C 4.411742 -0.386684 -0.911571
  C 5.152834 -0.879779 -2.141277
  C 4.657023 -1.402716 -3.445431
  C 3.166131 -1.520567 -3.739881
  C 2.948743 -2.082852 -5.142168
  O 6.330187 -0.887826 -2.161738
  H 3.883111 1.440734 1.284151
  H 3.883303 -0.186715 1.938291
  H 2.369769 -0.616628 -1.482977
  H 5.035357 -0.056409 -0.089047
  H 5.114577 -2.390876 -3.570935
  H 5.114898 -0.775265 -4.218905
  H 2.690434 -0.540464 -3.687483
  H 2.690202 -2.192812 -3.024911
  H 3.389959 -1.434741 -5.896128
  H 1.884825 -2.166424 -5.350958
  H 3.389781 -3.072430 -5.239417
  H 6.650225 -0.555226 -1.331576
 23
 0.000000
  H 1.343946 0.201661 0.553983
  C 2.413805 0.195299 0.537785
  C 3.219847 0.660109 1.693897
  H 2.691207 1.007000 2.557092
  C 3.013694 -0.272208 -0.625777
  C 4.391383 -0.361076 -0.847720
  C 5.193528 -0.901324 -2.195002
  C 4.690467 -1.423306 -3.496761
  C 3.197957 -1.538289 -3.784060
  C 2.972769 -2.100154 -5.185285
  O 6.248513 -0.923765 -2.251352
  H 3.876795 1.467355 1.350494
  H 3.876999 -0.160091 2.004641
  H 2.346257 -0.587101 -1.409327
  H 5.019568 -0.031999 -0.028199
  H 5.145513 -2.412344 -3.624448
  H 5.145836 -0.796736 -4.272426
  H 2.724403 -0.557272 -3.729391
  H 2.724168 -2.209617 -3.066812
  H 3.411612 -1.452892 -5.941356
  H 1.907704 -2.181678 -5.388972
  H 3.411432 -3.090577 -5.284639
  H 6.537510 -0.590666 -1.419965
 23
 0.000000
  H 1.328079 0.235755 0.638993
  C 2.397822 0.227129 0.617145
  C 3.210939 0.690234 1.768978
  H 2.687600 1.038242 2.634950
  C 2.990567 -0.241646 -0.549564
  C 4.366874 -0.333427 -0.778779
  C 5.233814 -0.925243 -2.254645
  C 4.722782 -1.446155 -3.553724
  C 3.228535 -1.557975 -3.833139
  C 2.994763 -2.119359 -5.233150
  O 6.189108 -0.960242 -2.342301
  H 3.867770 1.496088 1.422102
  H 3.867987 -0.131354 2.076257
  H 2.318337 -0.555126 -1.329575
  H 5.000073 -0.005679 0.037410
  H 5.175050 -2.436155 -3.683803
  H 5.175376 -0.820550 -4.331789
  H 2.757356 -0.575957 -3.775980
  H 2.757118 -2.228299 -3.113393
  H 3.430978 -1.473027 -5.991534
  H 1.928466 -2.198626 -5.431211
  H 3.430795 -3.110710 -5.334809
  H 6.458540 -0.623061 -1.500752
 23
 0.000000
  H 1.309545 0.272006 0.729379
  C 2.379125 0.260968 0.701511
  C 3.199755 0.722239 1.848744
  H 2.682084 1.071425 2.717644
  C 2.964237 -0.209141 -0.468510
  C 4.339022 -0.304025 -0.705466
  C 5.273289 -0.951107 -2.319133
  C 4.753781 -1.470860 -3.615312
  C 3.257737 -1.579303 -3.886314
  C 3.014823 -2.140155 -5.284982
  O 6.150204 -0.997053 -2.434079
  H 3.856439 1.526610 1.498167
  H 3.856668 -0.100829 2.152330
  H 2.286922 -0.521104 -1.244721
  H 4.977541 0.022295 0.107142
  H 5.203073 -2.461879 -3.747923
  H 5.203402 -0.846278 -4.395917
  H 2.789106 -0.596224 -3.826515
  H 2.788864 -2.248563 -3.163920
  H 3.448224 -1.494809 -6.045815
  H 1.947253 -2.217013 -5.477039
  H 3.448036 -3.132488 -5.389082
  H 6.409087 -0.652480 -1.574117
 23
 0.000000
  H 1.289234 0.309635 0.823200
  C 2.358607 0.296122 0.789152
  C 3.186918 0.755490 1.931619
  H 2.675086 1.105874 2.803491
  C 2.935858 -0.175340 -0.384225
  C 4.309028 -0.273406 -0.629120
  C 5.311490 -0.978207 -2.386704
  C 4.783299 -1.496751 -3.679854
  C 3.285466 -1.601723 -3.942209
  C 3.033177 -2.162006 -5.339444
  O 6.128188 -1.033784 -2.525657
  H 3.843425 1.558340 1.577242
  H 3.843667 -0.069096 2.231414
  H 2.253349 -0.485734 -1.156506
  H 4.952986 0.051434 0.179781
  H 5.229517 -2.488809 -3.815048
  H 5.229851 -0.873211 -4.463051
  H 2.819471 -0.617559 -3.879714
  H 2.819223 -2.269895 -3.217111
  H 3.463671 -1.517664 -6.102775
  H 1.964339 -2.236387 -5.525331
  H 3.463479 -3.155341 -5.446035
  H 6.382977 -0.679076 -1.640434
 23
 0.000000
  H 1.267956 0.347993 0.918836
  C 2.337082 0.332012 0.878628
  C 3.173019 0.789466 2.016298
  H 2.667029 1.141029 2.891100
  C 2.906474 -0.140780 -0.298050
  C 4.277980 -0.242015 -0.550851
  C 5.348239 -1.005911 -2.455776
  C 4.811411 -1.523229 -3.745858
  C 3.311853 -1.624735 -3.999581
  C 3.050226 -2.184429 -5.395334
  O 6.118626 -1.070125 -2.616259
  H 3.829325 1.590798 1.658135
  H 3.829580 -0.036635 2.312314
  H 2.218812 -0.449597 -1.066382
  H 4.927336 0.081337 0.254323
  H 5.254548 -2.516315 -3.883609
  H 5.254886 -0.900720 -4.531620
  H 2.848502 -0.639496 -3.934413
  H 2.848249 -2.291829 -3.271803
  H 3.477806 -1.541083 -6.161139
  H 1.980166 -2.256337 -5.575061
  H 3.477608 -3.178756 -5.504392
  H 6.373241 -0.703286 -1.700801
 23
 0.000000
  H 1.246224 0.386750 1.015463
  C 2.315067 0.368351 0.969221
  C 3.158446 0.823912 2.102150
  H 2.658197 1.176617 2.979790
  C 2.876738 -0.105726 -0.210646
  C 4.246563 -0.210063 -0.471183
  C 5.383642 -1.033833 -2.525390
  C 4.838372 -1.549928 -3.812417
  C 3.337180 -1.648036 -4.057673
  C 3.066413 -2.207132 -5.451923
  O 6.117727 -1.105976 -2.705639
  H 3.814531 1.623758 1.740279
  H 3.814797 -0.003672 2.394465
  H 2.184053 -0.412986 -0.975081
  H 4.901183 0.111819 0.330308
  H 5.278473 -2.544017 -3.952657
  H 5.278816 -0.928425 -4.600675
  H 2.876438 -0.661750 -3.989902
  H 2.876180 -2.314080 -3.327284
  H 3.491121 -1.564754 -6.220135
  H 1.995196 -2.276615 -5.625608
  H 3.490919 -3.202425 -5.563380
  H 6.373965 -0.725704 -1.756693
 23
 0.000000
  H 1.224288 0.425803 1.112832
  C 2.292819 0.405058 1.060733
  C 3.143392 0.858765 2.189017
  H 2.648737 1.212567 3.069382
  C 2.846973 -0.070250 -0.122190
  C 4.215117 -0.177594 -0.390230
  C 5.417910 -1.061777 -2.595060
  C 4.864462 -1.576669 -3.879076
  C 3.361736 -1.671472 -4.116102
  C 3.082106 -2.229968 -5.508843
  O 6.122896 -1.141372 -2.793884
  H 3.799239 1.657169 1.823547
  H 3.799517 0.029742 2.477740
  H 2.149435 -0.375988 -0.882814
  H 4.874825 0.142849 0.407659
  H 5.301599 -2.571723 -4.021715
  H 5.301947 -0.956134 -4.669741
  H 2.903544 -0.684175 -4.045817
  H 2.903280 -2.336502 -3.383192
  H 3.504011 -1.588524 -6.279376
  H 2.009802 -2.297093 -5.676656
  H 3.503803 -3.226192 -5.622614
  H 6.380947 -0.746868 -1.809463
 23
 0.000000
  H 1.202242 0.465158 1.210949
  C 2.270436 0.442145 1.153192
  C 3.127932 0.894046 2.276952
  H 2.638698 1.248897 3.159920
  C 2.817307 -0.034337 -0.032644
  C 4.183782 -0.144582 -0.307923
  C 5.451236 -1.089639 -2.664522
  C 4.889905 -1.603350 -3.945586
  C 3.385747 -1.694957 -4.174654
  C 3.097561 -2.252854 -5.565889
  O 6.132563 -1.176394 -2.881197
  H 3.783527 1.691058 1.908006
  H 3.783817 0.063633 2.562205
  H 2.115105 -0.338594 -0.789560
  H 4.848385 0.174460 0.486457
  H 5.324164 -2.599331 -4.090528
  H 5.324517 -0.983745 -4.738562
  H 2.930034 -0.706688 -4.101953
  H 2.929764 -2.359012 -3.439321
  H 3.516745 -1.612307 -6.338651
  H 2.024243 -2.317698 -5.728023
  H 3.516531 -3.249973 -5.681883
  H 6.391420 -0.767193 -1.860136
 23
 0.000000
  H 1.180095 0.504853 1.309913
  C 2.247931 0.479657 1.246710
  C 3.112069 0.929805 2.366077
  H 2.628071 1.285654 3.251525
  C 2.787772 0.002059 0.058104
  C 4.152598 -0.110978 -0.224140
  C 5.483757 -1.117338 -2.733577
  C 4.914851 -1.629896 -4.011758
  C 3.409361 -1.718422 -4.233154
  C 3.112942 -2.275725 -5.622897
  O 6.145850 -1.211129 -2.967792
  H 3.767401 1.725475 1.993783
  H 3.767702 0.098053 2.647989
  H 2.081098 -0.300762 -0.695217
  H 4.821894 0.206705 0.566837
  H 5.346325 -2.626764 -4.158904
  H 5.346683 -1.011181 -4.806945
  H 2.956048 -0.729222 -4.158139
  H 2.955773 -2.381543 -3.495500
  H 3.529492 -1.636036 -6.397792
  H 2.038682 -2.338370 -5.779556
  H 3.529273 -3.273699 -5.741017
  H 6.403599 -0.786956 -1.909411
 23
 0.000000
  H 1.157805 0.544939 1.409853
  C 2.225267 0.517648 1.341419
  C 3.095761 0.966099 2.456535
  H 2.616804 1.322897 3.344341
  C 2.758342 0.038992 0.150188
  C 4.121544 -0.076724 -0.138738
  C 5.515548 -1.144784 -2.801999
  C 4.939383 -1.656219 -4.077375
  C 3.432655 -1.741783 -4.291395
  C 3.128340 -2.298499 -5.679667
  O 6.162297 -1.245646 -3.053841
  H 3.750820 1.760482 2.081029
  H 3.751133 0.133062 2.735241
  H 2.047393 -0.262443 -0.599660
  H 4.795329 0.239646 0.648948
  H 5.368169 -2.653934 -4.226624
  H 5.368532 -1.038354 -4.874672
  H 2.981662 -0.751693 -4.214170
  H 2.981381 -2.404011 -3.551524
  H 3.542347 -1.659631 -6.456597
  H 2.053203 -2.359031 -5.831063
  H 3.542122 -3.297291 -5.799815
  H 6.416310 -0.806324 -1.957701
 23
 0.000000
  H 1.135287 0.585480 1.510926
  C 2.202364 0.556184 1.437487
  C 3.078919 1.002999 2.548505
  H 2.604802 1.360697 3.438544
  C 2.728946 0.076527 0.243774
  C 4.090558 -0.041749 -0.051541
  C 5.546621 -1.171851 -2.869477
  C 4.963521 -1.682199 -4.142134
  C 3.455648 -1.764924 -4.349088
  C 3.143780 -2.321064 -5.735914
  O 6.181670 -1.279980 -3.139437
  H 3.733701 1.796150 2.169923
  H 3.734025 0.168733 2.824141
  H 2.013923 -0.223571 -0.502729
  H 4.768624 0.273354 0.732973
  H 5.389723 -2.680719 -4.293384
  H 5.390091 -1.065142 -4.941438
  H 3.006888 -0.773986 -4.269757
  H 3.006600 -2.426302 -3.607104
  H 3.555344 -1.682976 -6.514781
  H 2.067833 -2.379570 -5.882268
  H 3.555113 -3.320633 -5.857993
  H 6.428752 -0.825361 -2.005166
 23
 0.000000
  H 1.112389 0.626577 1.613384
  C 2.179072 0.595370 1.535176
  C 3.061384 1.040616 2.642260
  H 2.591892 1.399163 3.534407
  C 2.699453 0.114770 0.339124
  C 4.059518 -0.005944 0.037726
  C 5.576914 -1.198346 -2.935528
  C 4.987217 -1.707645 -4.205563
  C 3.478288 -1.787662 -4.405777
  C 3.159228 -2.343240 -5.791191
  O 6.203823 -1.314104 -3.224509
  H 3.715887 1.832593 2.260748
  H 3.716221 0.205178 2.914972
  H 1.980564 -0.184047 -0.404172
  H 4.741647 0.307945 0.819199
  H 5.410945 -2.706929 -4.358709
  H 5.411319 -1.091354 -5.006770
  H 3.031667 -0.795920 -4.324448
  H 3.031373 -2.448233 -3.661789
  H 3.568453 -1.705891 -6.571894
  H 2.082535 -2.399814 -5.932735
  H 3.568215 -3.343546 -5.915100
  H 6.440326 -0.844016 -2.051679
