 26
 0.000000
  C 0.944280 0.053204 0.184526
  C 2.446106 0.054833 0.097396
  C 3.266439 -0.013316 1.372772
  C 2.507503 -0.088302 2.695893
  C 3.479881 -0.155808 3.869213
  C 3.051577 0.118977 -1.101866
  C 2.344473 0.205841 -2.424309
  H 1.261982 0.191878 -2.371310
  C 4.504963 0.128898 -1.213739
  C 5.215036 0.194800 -2.341716
  O 6.573284 0.201343 -2.395806
  H 0.587127 -0.000178 1.206549
  H 0.531879 -0.804241 -0.346685
  H 0.535387 0.963591 -0.253020
  H 3.919316 0.869393 1.420715
  H 3.913799 -0.894710 1.318296
  H 1.872639 -0.976620 2.717038
  H 1.873620 0.792555 2.818079
  H 4.115477 -1.035814 3.793227
  H 2.935791 -0.209186 4.809734
  H 4.116436 0.726433 3.893827
  H 2.660750 -0.627418 -3.052212
  H 2.644040 1.125695 -2.927292
  H 5.070001 0.078171 -0.292609
  H 4.804218 0.250483 -3.336437
  H 6.932573 0.151350 -1.500487
 26
 -0.413416
  C 0.961797 -0.115895 0.163180
  C 2.465142 -0.061498 0.088782
  C 3.261033 -0.187426 1.372389
  C 2.501414 0.004849 2.685059
  C 3.463114 -0.020905 3.869086
  C 3.090358 0.104621 -1.095769
  C 2.346125 0.303913 -2.389492
  H 1.271256 0.286582 -2.253865
  C 4.539840 0.088989 -1.217286
  C 5.230326 0.309322 -2.337795
  O 6.585261 0.266745 -2.432237
  H 0.615290 -0.339123 1.164188
  H 0.574369 -0.887446 -0.501634
  H 0.524812 0.837552 -0.134697
  H 4.056413 0.563526 1.351714
  H 3.741255 -1.172706 1.399770
  H 1.765111 -0.789128 2.823607
  H 1.978144 0.963295 2.670469
  H 3.989161 -0.972620 3.914068
  H 2.922234 0.115216 4.803039
  H 4.201307 0.774151 3.782955
  H 2.615898 -0.475421 -3.100737
  H 2.617340 1.265156 -2.823428
  H 5.110054 -0.147931 -0.328632
  H 4.793027 0.548322 -3.293200
  H 6.964678 0.050541 -1.567578
 26
 -0.087084
  C 0.970230 -0.332086 0.148672
  C 2.467026 -0.194404 0.086578
  C 3.250293 -0.340334 1.375221
  C 2.523564 0.127884 2.638738
  C 3.458850 0.093409 3.842577
  C 3.092785 0.103656 -1.068028
  C 2.345036 0.427432 -2.334902
  H 1.272319 0.442615 -2.181442
  C 4.539606 0.053197 -1.211808
  C 5.228491 0.414122 -2.296072
  O 6.576543 0.310064 -2.425564
  H 0.646592 -0.681147 1.122226
  H 0.624886 -1.048840 -0.595655
  H 0.476110 0.620197 -0.045142
  H 4.138260 0.284469 1.274661
  H 3.562183 -1.380477 1.514119
  H 1.664840 -0.510051 2.851630
  H 2.161927 1.147336 2.490736
  H 3.822794 -0.917623 4.014744
  H 2.940646 0.427879 4.738489
  H 4.317174 0.742589 3.681606
  H 2.572914 -0.302753 -3.110298
  H 2.648320 1.409241 -2.694345
  H 5.106497 -0.356039 -0.385168
  H 4.794072 0.828470 -3.190983
  H 6.951826 -0.064491 -1.618159
 26
 0.381595
  C 0.971728 -0.545177 0.132794
  C 2.457806 -0.322981 0.087214
  C 3.220066 -0.494948 1.378537
  C 2.572705 0.250905 2.552078
  C 3.465921 0.204699 3.786287
  C 3.085047 0.094052 -1.027722
  C 2.339049 0.548665 -2.255316
  H 1.270266 0.601041 -2.078833
  C 4.529447 0.016767 -1.195139
  C 5.226166 0.516016 -2.217997
  O 6.564496 0.361406 -2.390746
  H 0.684255 -1.016882 1.067316
  H 0.664093 -1.196899 -0.684012
  H 0.417391 0.389567 0.045043
  H 4.192510 -0.031309 1.217299
  H 3.333503 -1.549600 1.641491
  H 1.606016 -0.187565 2.803187
  H 2.403730 1.290024 2.262424
  H 3.641820 -0.824840 4.091884
  H 3.000150 0.733161 4.615108
  H 4.428387 0.669221 3.581830
  H 2.519979 -0.124235 -3.092524
  H 2.682800 1.541558 -2.537923
  H 5.083276 -0.549660 -0.456359
  H 4.805655 1.094005 -3.024472
  H 6.927421 -0.160657 -1.663527
 26
 4.246788
  C 0.988514 -0.797434 0.068800
  C 2.442917 -0.429322 0.092429
  C 3.189559 -0.621946 1.386970
  C 2.610492 0.324836 2.452114
  C 3.485257 0.352387 3.699222
  C 3.081257 0.150609 -0.941843
  C 2.345591 0.791724 -2.090448
  H 1.294180 0.927271 -1.855559
  C 4.504626 -0.044044 -1.173851
  C 5.232203 0.537337 -2.129175
  O 6.534929 0.252480 -2.390187
  H 0.733819 -1.365447 0.959446
  H 0.777146 -1.408036 -0.807625
  H 0.334203 0.074850 0.030896
  H 4.191123 -0.247295 1.177247
  H 3.162324 -1.644960 1.759291
  H 1.603286 0.007055 2.729573
  H 2.536874 1.329353 2.030886
  H 3.567901 -0.643565 4.129718
  H 3.060573 1.015798 4.449364
  H 4.486106 0.703984 3.457683
  H 2.423683 0.196005 -2.999283
  H 2.777082 1.770243 -2.287998
  H 5.006230 -0.773296 -0.548161
  H 4.862451 1.280687 -2.816127
  H 6.849887 -0.419163 -1.771615
 26
 15.832691
  C 1.014184 -0.997964 -0.052925
  C 2.399512 -0.455955 0.104001
  C 3.147242 -0.634232 1.402169
  C 2.604600 0.372655 2.437965
  C 3.524221 0.458766 3.648902
  C 3.086147 0.220642 -0.848745
  C 2.391701 1.041425 -1.907778
  H 1.356682 1.225762 -1.632387
  C 4.461993 -0.120071 -1.159285
  C 5.214239 0.437528 -2.112183
  O 6.460846 0.016314 -2.456284
  H 0.764409 -1.624121 0.799432
  H 0.959219 -1.591961 -0.963387
  H 0.253634 -0.217228 -0.126139
  H 4.093502 -0.167479 1.112292
  H 3.135774 -1.635025 1.821244
  H 1.607875 0.066559 2.768677
  H 2.508245 1.354052 1.970888
  H 3.647824 -0.521249 4.104871
  H 3.110600 1.134238 4.394493
  H 4.506307 0.826568 3.359136
  H 2.408025 0.556517 -2.883977
  H 2.897341 2.000187 -1.997397
  H 4.895056 -0.938839 -0.595225
  H 4.910182 1.269410 -2.725527
  H 6.713668 -0.731159 -1.899350
 26
 34.887368
  C 1.015397 -1.133901 -0.225554
  C 2.322854 -0.492523 0.097257
  C 3.039728 -0.653575 1.414716
  C 2.592077 0.394096 2.464032
  C 3.647211 0.555205 3.548446
  C 3.077545 0.269214 -0.742271
  C 2.447271 1.215377 -1.739044
  H 1.448087 1.495932 -1.413796
  C 4.400065 -0.185890 -1.112161
  C 5.203467 0.376180 -2.022051
  O 6.388392 -0.154473 -2.432396
  H 0.728987 -1.811930 0.574343
  H 1.101262 -1.688978 -1.158338
  H 0.207982 -0.407266 -0.352916
  H 3.913854 -0.074981 1.046733
  H 3.040658 -1.643257 1.854923
  H 1.653378 0.074403 2.930477
  H 2.402412 1.350609 1.975110
  H 3.855548 -0.401005 4.022968
  H 3.303669 1.249090 4.312276
  H 4.575551 0.936972 3.128716
  H 2.374750 0.781065 -2.737345
  H 3.052858 2.115738 -1.805606
  H 4.750159 -1.083926 -0.614491
  H 4.962621 1.257238 -2.592411
  H 6.566909 -0.964124 -1.935441
 26
 62.396429
  C 1.009793 -1.263147 -0.344582
  C 2.256801 -0.578403 0.095432
  C 2.899666 -0.653234 1.425040
  C 2.615261 0.470538 2.449550
  C 3.746222 0.596704 3.458839
  C 3.068694 0.267628 -0.650495
  C 2.485393 1.307181 -1.589157
  H 1.476336 1.569809 -1.278416
  C 4.364599 -0.244392 -1.079767
  C 5.167258 0.312987 -1.988355
  O 6.351885 -0.221856 -2.402393
  H 0.680709 -1.964520 0.418203
  H 1.176661 -1.797051 -1.279020
  H 0.201011 -0.548152 -0.518217
  H 3.744965 0.071461 0.904509
  H 2.894384 -1.617874 1.927765
  H 1.688961 0.231035 2.988075
  H 2.457570 1.423118 1.940450
  H 3.913035 -0.351533 3.964903
  H 3.504329 1.346966 4.208051
  H 4.671976 0.887644 2.965600
  H 2.448091 0.948899 -2.619062
  H 3.096993 2.205550 -1.566826
  H 4.679631 -1.174133 -0.617794
  H 4.965799 1.238360 -2.500186
  H 6.509630 -1.050219 -1.932830
 26
 77.214408
  C 1.035628 -1.315143 -0.374975
  C 2.244152 -0.610508 0.133525
  C 2.795727 -0.657125 1.436047
  C 2.597889 0.486594 2.432899
  C 3.758408 0.610837 3.413791
  C 3.101553 0.283859 -0.592919
  C 2.496818 1.338477 -1.499376
  H 1.499437 1.602233 -1.154683
  C 4.394822 -0.257880 -1.067390
  C 5.173170 0.287311 -1.998489
  O 6.342349 -0.258602 -2.448702
  H 0.669472 -2.018391 0.369684
  H 1.245645 -1.851098 -1.301385
  H 0.242719 -0.595617 -0.586374
  H 3.721840 0.239836 0.724204
  H 2.763913 -1.609432 1.980727
  H 1.681160 0.278191 2.997711
  H 2.454233 1.435614 1.910744
  H 3.915055 -0.329261 3.938391
  H 3.554288 1.384332 4.150822
  H 4.677996 0.867732 2.890482
  H 2.428855 0.977281 -2.525296
  H 3.107963 2.238365 -1.497217
  H 4.709090 -1.189337 -0.607503
  H 4.959095 1.208472 -2.513398
  H 6.508952 -1.085848 -1.980539
 26
 63.605195
  C 1.077247 -1.352519 -0.383212
  C 2.257672 -0.644087 0.183270
  C 2.719951 -0.673309 1.466586
  C 2.578506 0.488518 2.428126
  C 3.734222 0.601579 3.422350
  C 3.147594 0.315683 -0.545898
  C 2.503856 1.367392 -1.422879
  H 1.509966 1.608979 -1.051851
  C 4.432820 -0.262594 -1.078920
  C 5.153999 0.244714 -2.050876
  O 6.315704 -0.295032 -2.521112
  H 0.666739 -2.050389 0.343909
  H 1.316779 -1.893565 -1.302047
  H 0.312751 -0.614727 -0.626600
  H 3.703310 0.417413 0.528065
  H 2.666318 -1.606772 2.046692
  H 1.650891 0.320038 2.982277
  H 2.476997 1.431318 1.884377
  H 3.856435 -0.330626 3.969387
  H 3.547537 1.397922 4.139407
  H 4.666130 0.818642 2.903742
  H 2.420297 1.004418 -2.443693
  H 3.092249 2.281931 -1.431773
  H 4.762570 -1.179250 -0.602940
  H 4.915389 1.153650 -2.576435
  H 6.512434 -1.103288 -2.032390
 26
 38.670089
  C 1.297363 -1.435025 -0.460513
  C 2.326496 -0.620252 0.238377
  C 2.619335 -0.649946 1.538641
  C 2.532788 0.535771 2.464811
  C 3.674313 0.616523 3.479551
  C 3.216844 0.384004 -0.481508
  C 2.539730 1.452989 -1.311210
  H 1.592501 1.736669 -0.857210
  C 4.414776 -0.276692 -1.121382
  C 5.077565 0.177473 -2.171311
  O 6.156634 -0.433144 -2.740758
  H 0.877777 -2.184107 0.208013
  H 1.684845 -1.931069 -1.352478
  H 0.501775 -0.760767 -0.775906
  H 3.755759 0.620078 0.478555
  H 2.430568 -1.558928 2.119025
  H 1.588013 0.421962 3.001900
  H 2.486994 1.470295 1.901222
  H 3.739305 -0.306773 4.051449
  H 3.515033 1.439465 4.172844
  H 4.625256 0.773140 2.974169
  H 2.349800 1.079246 -2.314249
  H 3.160064 2.342927 -1.385872
  H 4.732957 -1.200863 -0.651509
  H 4.829929 1.083590 -2.699518
  H 6.358611 -1.242993 -2.255852
 26
 21.889654
  C 1.422376 -1.439723 -0.516174
  C 2.356519 -0.569065 0.252993
  C 2.521138 -0.591196 1.577695
  C 2.571409 0.592455 2.506697
  C 3.690797 0.515885 3.545491
  C 3.204716 0.464870 -0.469772
  C 2.481050 1.441270 -1.377530
  H 1.513335 1.700557 -0.953299
  C 4.389049 -0.227078 -1.104349
  C 4.995426 0.140483 -2.221196
  O 6.085472 -0.473501 -2.761426
  H 0.974666 -2.194084 0.126779
  H 1.903164 -1.932725 -1.362414
  H 0.633010 -0.800379 -0.908563
  H 3.711804 0.882791 0.422498
  H 2.286331 -1.487197 2.154209
  H 1.607818 0.595126 3.023747
  H 2.654047 1.530813 1.955148
  H 3.622953 -0.412520 4.108876
  H 3.624490 1.347082 4.244158
  H 4.664244 0.550866 3.060379
  H 2.324834 0.996450 -2.357224
  H 3.055830 2.355974 -1.501210
  H 4.754606 -1.090653 -0.559781
  H 4.699474 0.986921 -2.819602
  H 6.338583 -1.222809 -2.208038
 26
 10.264118
  C 1.586184 -1.449912 -0.538496
  C 2.391484 -0.491695 0.279129
  C 2.409962 -0.496590 1.607732
  C 2.592002 0.666643 2.542499
  C 3.678281 0.425465 3.591026
  C 3.211357 0.546356 -0.463241
  C 2.425182 1.424156 -1.426217
  H 1.463848 1.687069 -0.989224
  C 4.383635 -0.166930 -1.092247
  C 4.929422 0.111769 -2.265259
  O 6.003402 -0.528839 -2.804192
  H 1.129055 -2.210582 0.089775
  H 2.182942 -1.937092 -1.310223
  H 0.797204 -0.887592 -1.035174
  H 3.673122 1.120746 0.354177
  H 2.055282 -1.361717 2.163162
  H 1.631169 0.795660 3.049811
  H 2.805216 1.593319 2.008552
  H 3.466808 -0.479281 4.157165
  H 3.734542 1.260829 4.285536
  H 4.648274 0.309511 3.111826
  H 2.249324 0.901383 -2.362776
  H 2.965795 2.343430 -1.637391
  H 4.796835 -0.969907 -0.491578
  H 4.584955 0.895165 -2.921147
  H 6.300628 -1.221390 -2.200851
 26
 4.146043
  C 1.758892 -1.476042 -0.527349
  C 2.406915 -0.407411 0.300530
  C 2.286255 -0.375895 1.620932
  C 2.632615 0.734767 2.569798
  C 3.625894 0.280210 3.639027
  C 3.219053 0.621585 -0.462920
  C 2.380258 1.433600 -1.444800
  H 1.439162 1.717095 -0.977660
  C 4.381784 -0.097628 -1.095293
  C 4.836752 0.072700 -2.326402
  O 5.899142 -0.582974 -2.869087
  H 1.290058 -2.227457 0.103120
  H 2.480994 -1.962744 -1.182072
  H 0.992775 -1.025474 -1.156581
  H 3.650112 1.279689 0.302121
  H 1.838626 -1.210040 2.150896
  H 1.701762 1.041069 3.058540
  H 3.027842 1.611974 2.058289
  H 3.236503 -0.578921 4.181205
  H 3.816033 1.080213 4.351032
  H 4.570113 -0.005487 3.179968
  H 2.160912 0.853190 -2.336961
  H 2.904715 2.339511 -1.738185
  H 4.876590 -0.807873 -0.441256
  H 4.410538 0.761001 -3.038475
  H 6.271612 -1.188684 -2.216045
 26
 3.185347
  C 1.888511 -1.527552 -0.536153
  C 2.424897 -0.404260 0.299451
  C 2.207792 -0.344293 1.606210
  C 2.550022 0.757497 2.566930
  C 3.570133 0.294523 3.607456
  C 3.277895 0.626233 -0.419961
  C 2.449621 1.516940 -1.339688
  H 1.598812 1.917709 -0.792421
  C 4.409110 -0.087725 -1.106780
  C 4.723620 -0.020344 -2.390530
  O 5.756122 -0.681718 -2.981638
  H 1.427142 -2.289966 0.086366
  H 2.676763 -1.983688 -1.132537
  H 1.135655 -1.142298 -1.223385
  H 3.725232 1.222967 0.382866
  H 1.704997 -1.160374 2.113904
  H 1.626531 1.043552 3.080817
  H 2.921445 1.650239 2.064300
  H 3.205267 -0.584930 4.133716
  H 3.758206 1.079940 4.336059
  H 4.511100 0.037185 3.125471
  H 2.075010 0.951630 -2.188741
  H 3.048301 2.346386 -1.708205
  H 5.003963 -0.713065 -0.448933
  H 4.192408 0.577637 -3.113238
  H 6.227355 -1.202251 -2.318964
