 22
 0.000000
  C 0.931775 0.047166 0.299828
  C 2.417006 0.060734 0.059350
  C 3.238578 -0.010761 1.326441
  H 2.595393 -0.060101 2.200765
  C 3.004746 0.129103 -1.152257
  C 2.353746 0.206263 -2.519710
  C 0.839636 0.216252 -2.696681
  H 0.621278 0.276429 -3.763124
  C 4.466707 0.133987 -1.238771
  C 5.210250 0.196038 -2.338537
  H 6.286556 0.192480 -2.275461
  H 0.719492 -0.012918 1.364584
  H 0.461033 -0.809783 -0.174691
  H 0.461036 0.952060 -0.075270
  H 3.877292 0.865633 1.432158
  H 3.877293 -0.893479 1.332896
  H 2.742704 -0.641462 -3.093956
  H 2.742704 1.113204 -2.994940
  H 0.381582 1.075428 -2.216815
  H 0.381573 -0.691463 -2.316509
  H 4.996960 0.081071 -0.300958
  H 4.815882 0.252432 -3.337978
 22
 7.179083
  C 0.814580 0.045837 0.323372
  C 2.455929 0.061243 0.050329
  C 3.269959 -0.010131 1.315270
  H 2.623218 -0.059335 2.187205
  C 3.032832 0.129398 -1.157491
  C 2.373943 0.206264 -2.519727
  C 0.859669 0.215532 -2.683936
  H 0.632412 0.275575 -3.748018
  C 4.494320 0.134677 -1.251014
  C 5.232803 0.196985 -2.355321
  H 6.309056 0.193703 -2.297137
  H 0.613841 -0.014267 1.388484
  H 0.346987 -0.810565 -0.149148
  H 0.346989 0.949963 -0.049802
  H 3.907703 0.866551 1.423049
  H 3.907707 -0.893368 1.323742
  H 2.759022 -0.641436 -3.096608
  H 2.759023 1.113476 -2.997579
  H 0.405724 1.074385 -2.200265
  H 0.405719 -0.692284 -2.299949
  H 5.029227 0.081888 -0.315436
  H 4.833208 0.253257 -3.352617
 22
 22.378570
  C 0.708275 0.044758 0.342485
  C 2.505464 0.062085 0.035400
  C 3.276395 -0.009762 1.308723
  H 2.604938 -0.057975 2.163094
  C 3.064981 0.130088 -1.169737
  C 2.393723 0.206461 -2.523240
  C 0.879981 0.214105 -2.658663
  H 0.631850 0.273867 -3.717788
  C 4.528222 0.135874 -1.272247
  C 5.257216 0.198406 -2.380503
  H 6.333390 0.195495 -2.328894
  H 0.539919 -0.015416 1.408851
  H 0.257403 -0.812740 -0.129914
  H 0.257404 0.949958 -0.030446
  H 3.910278 0.867710 1.432837
  H 3.910279 -0.895618 1.333335
  H 2.771025 -0.641423 -3.105276
  H 2.771027 1.114442 -3.006198
  H 0.436291 1.072261 -2.165513
  H 0.436290 -0.694078 -2.265183
  H 5.069468 0.083254 -0.339654
  H 4.849601 0.254487 -3.374421
 22
 39.085212
  C 0.593627 0.042526 0.382048
  C 2.544385 0.062483 0.028373
  C 3.291351 -0.010190 1.316336
  H 2.606099 -0.057749 2.159123
  C 3.091153 0.131184 -1.189137
  C 2.412923 0.207412 -2.540073
  C 0.897265 0.213993 -2.656675
  H 0.634360 0.273577 -3.712649
  C 4.556188 0.137083 -1.293648
  C 5.283841 0.199833 -2.405795
  H 6.360496 0.197011 -2.355766
  H 0.465234 -0.017985 1.454384
  H 0.155066 -0.822320 -0.091194
  H 0.155067 0.955121 0.009106
  H 3.923389 0.868523 1.451117
  H 3.923397 -0.898488 1.351409
  H 2.785671 -0.640599 -3.125063
  H 2.785676 1.115853 -3.025955
  H 0.461032 1.071893 -2.156531
  H 0.461029 -0.694726 -2.256213
  H 5.097769 0.084407 -0.360083
  H 4.873136 0.255847 -3.398576
 22
 55.713748
  C 0.485727 0.042411 0.384063
  C 2.592618 0.064171 -0.001563
  C 3.307753 -0.008852 1.292607
  H 2.606611 -0.055656 2.122003
  C 3.118611 0.131726 -1.198747
  C 2.429076 0.207227 -2.536793
  C 0.912183 0.211621 -2.614647
  H 0.620223 0.270746 -3.662522
  C 4.582513 0.137670 -1.304074
  C 5.304347 0.200210 -2.412462
  H 6.380524 0.197460 -2.363717
  H 0.387646 -0.018106 1.456503
  H 0.065200 -0.825262 -0.092789
  H 0.065201 0.958225 0.007851
  H 3.936982 0.869972 1.438292
  H 3.936984 -0.898480 1.338500
  H 2.792156 -0.640654 -3.127449
  H 2.792158 1.116170 -3.028317
  H 0.489932 1.068775 -2.100925
  H 0.489934 -0.697876 -2.200614
  H 5.122956 0.084976 -0.370174
  H 4.890877 0.256138 -3.403703
 22
 69.066829
  C 0.371783 0.039446 0.436680
  C 2.626128 0.065516 -0.025343
  C 3.274485 -0.009362 1.301631
  H 2.544120 -0.054633 2.103881
  C 3.139417 0.134255 -1.243498
  C 2.450972 0.209493 -2.576915
  C 0.930714 0.211028 -2.604064
  H 0.594146 0.269393 -3.638359
  C 4.611406 0.139334 -1.333512
  C 5.333035 0.201434 -2.434124
  H 6.408987 0.198513 -2.382335
  H 0.412855 -0.021124 1.510040
  H 0.009703 -0.847256 -0.050263
  H 0.009707 0.975298 0.052588
  H 3.900730 0.869821 1.471426
  H 3.900739 -0.902069 1.371444
  H 2.806053 -0.639338 -3.171192
  H 2.806046 1.119771 -3.071920
  H 0.532942 1.066999 -2.067644
  H 0.532924 -0.699877 -2.167324
  H 5.133161 0.086090 -0.389857
  H 4.916329 0.257282 -3.423965
 22
 82.071491
  C 0.247315 0.038205 0.458621
  C 2.658697 0.065820 -0.030751
  C 3.289702 -0.009106 1.297085
  H 2.549533 -0.053950 2.091751
  C 3.168698 0.134304 -1.244406
  C 2.464778 0.209379 -2.574945
  C 0.946721 0.209281 -2.573159
  H 0.588805 0.267229 -3.600101
  C 4.644027 0.139827 -1.342269
  C 5.375652 0.203542 -2.471512
  H 6.453306 0.200991 -2.426273
  H 0.300992 -0.022236 1.529716
  H -0.103298 -0.847117 -0.031458
  H -0.103296 0.973042 0.071254
  H 3.914180 0.870289 1.473521
  H 3.914186 -0.902765 1.373472
  H 2.811343 -0.639504 -3.174356
  H 2.811338 1.120296 -3.075052
  H 0.560260 1.063126 -2.028468
  H 0.560256 -0.700420 -2.127973
  H 5.170014 0.086562 -0.398240
  H 4.953122 0.259320 -3.460120
 22
 92.415947
  C 0.130846 0.033805 0.536561
  C 2.684431 0.066842 -0.048902
  C 3.287193 -0.008622 1.288524
  H 2.533868 -0.052676 2.069194
  C 3.192880 0.135405 -1.263964
  C 2.485814 0.211005 -2.603752
  C 0.971640 0.210179 -2.589043
  H 0.598967 0.267830 -3.610714
  C 4.663930 0.140652 -1.356929
  C 5.384748 0.203625 -2.472996
  H 6.462462 0.201180 -2.429665
  H 0.271467 -0.025988 1.596184
  H -0.197296 -0.853105 0.046078
  H -0.197295 0.970264 0.148968
  H 3.909060 0.871446 1.476728
  H 3.909061 -0.904263 1.376525
  H 2.830503 -0.638728 -3.203774
  H 2.830499 1.122830 -3.104365
  H 0.595331 1.059830 -2.038171
  H 0.595329 -0.696048 -2.137250
  H 5.184905 0.087091 -0.407680
  H 4.957654 0.259293 -3.459605
 22
 101.043752
  C 0.005916 0.033777 0.537017
  C 2.718736 0.067845 -0.066703
  C 3.301335 -0.008504 1.286413
  H 2.535732 -0.051932 2.055998
  C 3.226498 0.136223 -1.278505
  C 2.505592 0.210427 -2.593574
  C 0.984455 0.207033 -2.533387
  H 0.580567 0.263940 -3.541958
  C 4.706287 0.142172 -1.383910
  C 5.415330 0.205160 -2.500254
  H 6.491806 0.203192 -2.465346
  H 0.161206 -0.025955 1.595566
  H -0.308459 -0.859701 0.036867
  H -0.308460 0.977854 0.140553
  H 3.919701 0.869342 1.484723
  H 3.919701 -0.903070 1.384707
  H 2.838025 -0.637144 -3.198762
  H 2.838034 1.120722 -3.099591
  H 0.620819 1.062443 -1.966033
  H 0.620827 -0.706750 -2.065870
  H 5.230696 0.089121 -0.443677
  H 4.980674 0.260506 -3.481150
 22
 107.285570
  C -0.116507 0.031909 0.570200
  C 2.751239 0.068080 -0.070811
  C 3.312620 -0.008095 1.279199
  H 2.535749 -0.050942 2.038494
  C 3.257830 0.136464 -1.282706
  C 2.520671 0.210651 -2.597472
  C 1.006752 0.205609 -2.508072
  H 0.581345 0.262026 -3.507910
  C 4.731768 0.142819 -1.395310
  C 5.432217 0.206149 -2.517723
  H 6.509973 0.204667 -2.491453
  H 0.057515 -0.027574 1.624322
  H -0.419859 -0.858788 0.068322
  H -0.419857 0.973409 0.171711
  H 3.929137 0.871047 1.485113
  H 3.929148 -0.904821 1.384907
  H 2.844493 -0.638440 -3.209081
  H 2.844493 1.123157 -3.109685
  H 0.656826 1.054884 -1.935488
  H 0.656822 -0.702689 -2.034655
  H 5.262336 0.089661 -0.453186
  H 4.988145 0.261401 -3.496985
 22
 111.971960
  C -0.241645 0.030799 0.589822
  C 2.782442 0.068718 -0.082153
  C 3.324824 -0.008162 1.280344
  H 2.535882 -0.050340 2.027782
  C 3.288015 0.136997 -1.292197
  C 2.536426 0.210509 -2.595005
  C 1.020450 0.203548 -2.471613
  H 0.570923 0.259388 -3.461278
  C 4.763636 0.143893 -1.414389
  C 5.455081 0.207439 -2.540614
  H 6.532241 0.206435 -2.522740
  H -0.049830 -0.028515 1.640967
  H -0.534299 -0.863335 0.081876
  H -0.534300 0.976407 0.185686
  H 3.938289 0.870469 1.496335
  H 3.938289 -0.905500 1.396120
  H 2.850285 -0.637090 -3.210703
  H 2.850287 1.121998 -3.111452
  H 0.681427 1.056021 -1.887209
  H 0.681434 -0.709236 -1.986823
  H 5.297584 0.091033 -0.477519
  H 5.003781 0.262373 -3.514177
 22
 115.285950
  C -0.368354 0.029086 0.620231
  C 2.811068 0.069005 -0.087210
  C 3.332383 -0.007903 1.275793
  H 2.531845 -0.049401 2.011175
  C 3.315907 0.137260 -1.296815
  C 2.549291 0.210416 -2.593328
  C 1.038649 0.201834 -2.441190
  H 0.568668 0.257082 -3.420349
  C 4.789445 0.144630 -1.427422
  C 5.472294 0.208482 -2.559076
  H 6.550154 0.207964 -2.549843
  H -0.159391 -0.029978 1.666931
  H -0.650673 -0.863468 0.109585
  H -0.650670 0.973420 0.213238
  H 3.942700 0.870543 1.500350
  H 3.942706 -0.906032 1.400101
  H 2.854257 -0.637807 -3.214094
  H 2.854258 1.123091 -3.114737
  H 0.712097 1.050436 -1.850881
  H 0.712097 -0.707784 -1.950090
  H 5.328839 0.091805 -0.491183
  H 5.011856 0.263286 -3.530371
 22
 117.552957
  C -0.497033 0.027655 0.645563
  C 2.838460 0.069390 -0.094039
  C 3.341434 -0.008047 1.278335
  H 2.528906 -0.048876 2.001860
  C 3.342093 0.137583 -1.302562
  C 2.560658 0.210216 -2.589794
  C 1.050416 0.199982 -2.408394
  H 0.559694 0.254702 -3.378216
  C 4.814961 0.145476 -1.442408
  C 5.489178 0.209591 -2.578739
  H 6.566622 0.209559 -2.578130
  H -0.272756 -0.031236 1.689201
  H -0.770032 -0.866964 0.129934
  H -0.770031 0.974607 0.233848
  H 3.948856 0.870523 1.512585
  H 3.948864 -0.907388 1.412262
  H 2.856518 -0.637409 -3.214533
  H 2.856519 1.122751 -3.115224
  H 0.734007 1.050145 -1.809014
  H 0.734011 -0.712200 -1.908459
  H 5.358539 0.092867 -0.510015
  H 5.021162 0.264097 -3.544800
 22
 118.966715
  C -0.629214 0.025935 0.676074
  C 2.862102 0.069546 -0.096802
  C 3.344863 -0.007987 1.277249
  H 2.520730 -0.048083 1.987774
  C 3.364909 0.137727 -1.305097
  C 2.568918 0.209893 -2.584056
  C 1.063466 0.198141 -2.375762
  H 0.554235 0.252263 -3.334945
  C 4.836287 0.146125 -1.453910
  C 5.501979 0.210530 -2.595354
  H 6.579747 0.210983 -2.603346
  H -0.391094 -0.032727 1.715646
  H -0.892879 -0.867525 0.157505
  H -0.892876 0.972061 0.261310
  H 3.948587 0.869946 1.520417
  H 3.948587 -0.907691 1.420107
  H 2.855890 -0.637836 -3.212995
  H 2.855888 1.122995 -3.113640
  H 0.758190 1.045855 -1.770794
  H 0.758192 -0.712240 -1.869999
  H 5.385161 0.093626 -0.523465
  H 5.025243 0.264870 -3.558454
