 15
 0.000000
  C 0.898170 0.051001 0.231876
  C 2.397408 0.056968 0.126105
  C 3.259792 -0.013101 1.367981
  C 2.540498 -0.088788 2.709256
  H 3.272830 -0.134063 3.511722
  C 2.980130 0.123965 -1.061236
  H 2.435219 0.176245 -1.987805
  H 4.053619 0.129604 -1.161155
  H 0.551667 -0.006899 1.257974
  H 0.487100 -0.803148 -0.304065
  H 0.487102 0.960019 -0.204575
  H 3.910467 0.866179 1.377531
  H 3.910474 -0.887878 1.278556
  H 1.916066 -0.977555 2.770237
  H 1.916078 0.787451 2.869828
 15
 -0.096760
  C 0.899578 0.054411 0.229960
  C 2.400416 0.050952 0.128101
  C 3.261862 -0.006442 1.371165
  C 2.538258 -0.086569 2.709420
  H 3.271637 -0.113800 3.514212
  C 2.982230 0.107012 -1.061421
  H 2.409699 0.150605 -1.972925
  H 4.053970 0.110517 -1.171211
  H 0.550173 -0.064139 1.249118
  H 0.483411 -0.753126 -0.370768
  H 0.503301 0.991038 -0.159189
  H 3.903553 0.879689 1.376781
  H 3.924416 -0.872397 1.281786
  H 1.933485 -0.988792 2.777594
  H 1.901364 0.781806 2.866010
 15
 -0.150405
  C 0.900161 0.035174 0.230013
  C 2.398519 0.035953 0.125769
  C 3.262710 -0.015160 1.369242
  C 2.540850 -0.052769 2.709410
  H 3.274849 -0.061654 3.513723
  C 2.978045 0.096602 -1.064655
  H 2.404688 0.134803 -1.973769
  H 4.050040 0.109214 -1.175980
  H 0.552583 -0.147020 1.239892
  H 0.482051 -0.729853 -0.419584
  H 0.505769 0.996441 -0.097161
  H 3.922707 0.858354 1.355886
  H 3.906266 -0.894763 1.296227
  H 1.930785 -0.948342 2.805789
  H 1.908840 0.824546 2.840305
 15
 -0.239818
  C 0.900711 0.012431 0.228834
  C 2.399197 0.031607 0.123816
  C 3.262726 -0.033061 1.367293
  C 2.540732 -0.027882 2.708789
  H 3.273560 -0.038512 3.511858
  C 2.978149 0.115014 -1.065973
  H 2.402642 0.157119 -1.976124
  H 4.048812 0.145269 -1.177244
  H 0.556301 -0.240438 1.224954
  H 0.487090 -0.709061 -0.471651
  H 0.499208 0.990986 -0.031375
  H 3.950206 0.818014 1.342369
  H 3.878070 -0.935017 1.305405
  H 1.910648 -0.905850 2.824254
  H 1.929757 0.865466 2.822178
 15
 -0.345545
  C 0.902563 -0.013813 0.227781
  C 2.400797 0.030176 0.122445
  C 3.262175 -0.054084 1.365470
  C 2.540155 -0.002482 2.704996
  H 3.270389 -0.021608 3.509016
  C 2.979845 0.141276 -1.065550
  H 2.403843 0.196798 -1.974541
  H 4.050050 0.183078 -1.175387
  H 0.564303 -0.329669 1.207458
  H 0.495959 -0.697062 -0.514906
  H 0.486979 0.973121 0.027385
  H 3.982360 0.769264 1.328916
  H 3.841457 -0.980279 1.314989
  H 1.883031 -0.856530 2.838155
  H 1.956431 0.912242 2.799823
 15
 -0.473210
  C 0.903744 -0.046060 0.227634
  C 2.401895 0.022427 0.120128
  C 3.260344 -0.077564 1.362099
  C 2.542550 0.025684 2.700444
  H 3.273297 -0.004491 3.505364
  C 2.979086 0.173379 -1.064744
  H 2.401274 0.237680 -1.974889
  H 4.047489 0.243621 -1.170404
  H 0.577719 -0.430798 1.187400
  H 0.499337 -0.683970 -0.555826
  H 0.476434 0.947249 0.094431
  H 4.011688 0.714036 1.310900
  H 3.801861 -1.030008 1.325185
  H 1.854916 -0.801700 2.848597
  H 1.992189 0.963427 2.777348
 15
 -0.612879
  C 0.904119 -0.079058 0.219035
  C 2.400694 0.012154 0.118848
  C 3.258674 -0.112896 1.359214
  C 2.547654 0.058670 2.697681
  H 3.277144 0.008441 3.503047
  C 2.976996 0.214579 -1.056754
  H 2.401026 0.287555 -1.963978
  H 4.044875 0.304751 -1.157850
  H 0.581728 -0.506775 1.161110
  H 0.507363 -0.688119 -0.591582
  H 0.466560 0.914761 0.129066
  H 4.053435 0.632503 1.292489
  H 3.744464 -1.093181 1.341570
  H 1.816422 -0.724511 2.867968
  H 2.047502 1.024805 2.750257
 15
 -0.581542
  C 0.904884 -0.082978 0.218972
  C 2.401171 0.009858 0.116749
  C 3.256933 -0.119412 1.357701
  C 2.550386 0.063095 2.695380
  H 3.279537 0.002426 3.499490
  C 2.975431 0.230707 -1.056645
  H 2.401789 0.289244 -1.968304
  H 4.043784 0.317694 -1.158547
  H 0.580524 -0.476192 1.175883
  H 0.513037 -0.724386 -0.569067
  H 0.462331 0.905119 0.089927
  H 4.060996 0.615907 1.287272
  H 3.732747 -1.104737 1.342674
  H 1.807669 -0.711442 2.868619
  H 2.063255 1.034957 2.745398
 15
 -0.741492
  C 0.904709 -0.099190 0.218614
  C 2.401019 -0.001840 0.115216
  C 3.256476 -0.139730 1.353469
  C 2.554553 0.087162 2.688749
  H 3.283332 0.037010 3.493593
  C 2.975092 0.228409 -1.057579
  H 2.399500 0.315270 -1.960423
  H 4.041991 0.332597 -1.158372
  H 0.585936 -0.537043 1.157829
  H 0.508737 -0.701680 -0.594148
  H 0.463549 0.892055 0.138157
  H 4.080784 0.572215 1.272737
  H 3.703628 -1.139497 1.354660
  H 1.798785 -0.670294 2.883950
  H 2.083283 1.068985 2.714334
 15
 -0.899465
  C 0.905955 -0.111597 0.220286
  C 2.398723 0.013025 0.115397
  C 3.254066 -0.146287 1.353560
  C 2.557247 0.095530 2.688612
  H 3.286783 0.033144 3.493295
  C 2.972275 0.246572 -1.056070
  H 2.397264 0.336421 -1.962432
  H 4.040775 0.343954 -1.159268
  H 0.598999 -0.606265 1.134095
  H 0.511904 -0.670173 -0.624288
  H 0.452376 0.881012 0.199493
  H 4.093745 0.545956 1.271204
  H 3.678511 -1.157625 1.354964
  H 1.785500 -0.645142 2.885433
  H 2.107253 1.085903 2.706505
 15
 -1.007570
  C 0.907729 -0.118298 0.219843
  C 2.401200 -0.000830 0.115781
  C 3.252723 -0.148598 1.354500
  C 2.557661 0.108402 2.686466
  H 3.281224 0.028699 3.491044
  C 2.972182 0.238324 -1.055857
  H 2.397026 0.324244 -1.964045
  H 4.037604 0.352899 -1.160103
  H 0.600301 -0.667468 1.102037
  H 0.504499 -0.622915 -0.660427
  H 0.462573 0.871385 0.264991
  H 4.096772 0.542954 1.269278
  H 3.672383 -1.157510 1.365113
  H 1.768994 -0.612818 2.881246
  H 2.128504 1.105957 2.710919
