 22
 0.000000
  C 0.972443 0.209477 0.575442
  C 2.410682 0.119723 0.349149
  H 3.079665 0.438966 1.141400
  C 2.953688 -0.352346 -0.825823
  C 4.345389 -0.425176 -1.009062
  C 5.045665 -0.867093 -2.109434
  C 4.619439 -1.387469 -3.405962
  C 3.151546 -1.532565 -3.770528
  C 3.000388 -2.097889 -5.181017
  H 6.127076 -0.827924 -2.011481
  H 0.727712 0.604040 1.556718
  H 0.508159 -0.772375 0.447731
  H 0.506769 0.828634 -0.196390
  H 2.284712 -0.667418 -1.608015
  H 4.943510 -0.088220 -0.170879
  H 5.119899 -2.360095 -3.528333
  H 5.121034 -0.770103 -4.166687
  H 2.658697 -0.559452 -3.733673
  H 2.657283 -2.209895 -3.071918
  H 3.461946 -1.443725 -5.917102
  H 1.949022 -2.199473 -5.437244
  H 3.460227 -3.080191 -5.261120
 22
 14.128765
  C 0.921087 0.244524 0.662974
  C 2.353018 0.163777 0.458888
  H 3.016413 0.481874 1.248366
  C 2.958085 -0.350788 -0.822135
  C 4.327247 -0.413298 -0.979734
  C 5.098403 -0.896297 -2.182237
  C 4.662996 -1.411817 -3.466524
  C 3.187703 -1.548913 -3.811336
  C 3.014644 -2.113217 -5.219256
  H 6.173386 -0.853961 -2.076321
  H 0.662661 0.637467 1.640453
  H 0.463474 -0.739946 0.528110
  H 0.462005 0.860684 -0.115753
  H 2.292906 -0.666361 -1.605629
  H 4.925298 -0.077658 -0.144865
  H 5.158590 -2.387022 -3.593749
  H 5.159814 -0.796097 -4.232577
  H 2.701332 -0.573205 -3.767102
  H 2.699799 -2.222965 -3.105559
  H 3.470026 -1.461355 -5.961399
  H 1.959370 -2.209101 -5.461466
  H 3.468176 -3.098089 -5.305253
 22
 42.737626
  C 0.886424 0.254286 0.687356
  C 2.324068 0.196810 0.541677
  H 3.027707 0.503143 1.303167
  C 2.981318 -0.360322 -0.846776
  C 4.305210 -0.394311 -0.933021
  C 5.156325 -0.917519 -2.235517
  C 4.692068 -1.426440 -3.503492
  C 3.205809 -1.551860 -3.819211
  C 3.001710 -2.116240 -5.226204
  H 6.222842 -0.848087 -2.061398
  H 0.586163 0.644828 1.660503
  H 0.442929 -0.738913 0.528167
  H 0.441727 0.860682 -0.114590
  H 2.277138 -0.660081 -1.591989
  H 4.952136 -0.073992 -0.135610
  H 5.180802 -2.407841 -3.644841
  H 5.182667 -0.816649 -4.284107
  H 2.731189 -0.571281 -3.766878
  H 2.729910 -2.223632 -3.103943
  H 3.447874 -1.467371 -5.977145
  H 1.941173 -2.204584 -5.449103
  H 3.446519 -3.104856 -5.320148
 22
 77.216435
  C 0.826144 0.289604 0.775546
  C 2.250330 0.240470 0.650528
  H 2.954393 0.546182 1.409930
  C 2.970766 -0.359742 -0.844603
  C 4.298820 -0.386493 -0.913340
  C 5.218983 -0.950465 -2.317626
  C 4.742438 -1.453224 -3.570225
  C 3.251215 -1.566613 -3.856295
  C 3.014079 -2.128623 -5.257232
  H 6.283667 -0.877632 -2.135152
  H 0.512154 0.678866 1.744854
  H 0.390991 -0.704898 0.610548
  H 0.389741 0.892579 -0.031730
  H 2.261912 -0.658396 -1.586782
  H 4.955271 -0.068403 -0.121956
  H 5.222779 -2.437678 -3.718193
  H 5.224768 -0.845949 -4.357794
  H 2.786700 -0.582457 -3.792465
  H 2.785257 -2.232873 -3.130196
  H 3.449840 -1.483838 -6.016780
  H 1.949042 -2.207998 -5.458011
  H 3.448342 -3.120420 -5.360045
 22
 110.951005
  C 0.783213 0.293457 0.785590
  C 2.197169 0.268151 0.719510
  H 2.910879 0.568091 1.464550
  C 2.992770 -0.371526 -0.874278
  C 4.294262 -0.375095 -0.885579
  C 5.295938 -0.978527 -2.387636
  C 4.793380 -1.471862 -3.616201
  C 3.290153 -1.562576 -3.846563
  C 2.985233 -2.119856 -5.235368
  H 6.346283 -0.889910 -2.165853
  H 0.426633 0.677938 1.743287
  H 0.369310 -0.708032 0.603331
  H 0.367929 0.889547 -0.038903
  H 2.262199 -0.660777 -1.592890
  H 4.981240 -0.068777 -0.123954
  H 5.255725 -2.463615 -3.775548
  H 5.257858 -0.867656 -4.417293
  H 2.845918 -0.570928 -3.758708
  H 2.844024 -2.217171 -3.097781
  H 3.400025 -1.482237 -6.012983
  H 1.911453 -2.180959 -5.391274
  H 3.397922 -3.119129 -5.355676
 22
 141.302345
  C 0.724134 0.325756 0.865627
  C 2.147893 0.311917 0.829109
  H 2.873576 0.604598 1.558056
  C 2.991636 -0.368691 -0.868164
  C 4.273708 -0.359005 -0.845274
  C 5.351641 -1.005590 -2.455463
  C 4.835168 -1.496887 -3.678975
  C 3.327748 -1.579694 -3.888519
  C 2.999615 -2.135465 -5.273679
  H 6.387606 -0.907374 -2.209847
  H 0.343227 0.705832 1.813692
  H 0.321737 -0.678318 0.674852
  H 0.320765 0.919050 0.033970
  H 2.234698 -0.644563 -1.554857
  H 4.990270 -0.066364 -0.116730
  H 5.287083 -2.489937 -3.844565
  H 5.288710 -0.895735 -4.485595
  H 2.893937 -0.583481 -3.791732
  H 2.892657 -2.231840 -3.130135
  H 3.407408 -1.499051 -6.057971
  H 1.922092 -2.191004 -5.414584
  H 3.405828 -3.138025 -5.399960
 22
 167.194244
  C 0.671169 0.347496 0.918954
  C 2.091721 0.349293 0.922044
  H 2.817906 0.638638 1.642066
  C 2.996862 -0.367642 -0.863239
  C 4.256642 -0.340682 -0.798097
  C 5.416300 -1.032795 -2.523192
  C 4.881280 -1.522933 -3.744036
  C 3.367312 -1.590960 -3.915968
  C 2.998417 -2.141048 -5.288148
  H 6.445172 -0.928025 -2.262165
  H 0.260171 0.723837 1.856403
  H 0.284642 -0.659832 0.721122
  H 0.283852 0.937774 0.079416
  H 2.215366 -0.634581 -1.526860
  H 5.004761 -0.061159 -0.103075
  H 5.319668 -2.522975 -3.920082
  H 5.320681 -0.923081 -4.562829
  H 2.949042 -0.590918 -3.805538
  H 2.948096 -2.237268 -3.145201
  H 3.391641 -1.509054 -6.081547
  H 1.918126 -2.185357 -5.400433
  H 3.390594 -3.146654 -5.424843
 22
 188.041243
  C 0.607139 0.387219 1.017733
  C 2.027556 0.395387 1.036836
  H 2.763053 0.683744 1.754236
  C 2.983935 -0.361601 -0.847530
  C 4.233312 -0.327151 -0.764198
  C 5.465962 -1.064482 -2.602202
  C 4.927182 -1.550018 -3.810613
  C 3.409965 -1.611659 -3.966918
  C 3.022036 -2.161311 -5.338887
  H 6.494335 -0.957091 -2.335489
  H 0.185226 0.762311 1.951724
  H 0.225195 -0.623172 0.817550
  H 0.224499 0.977919 0.174312
  H 2.192705 -0.621586 -1.493497
  H 4.999824 -0.054926 -0.087963
  H 5.358636 -2.549065 -3.990174
  H 5.359044 -0.952485 -4.630941
  H 2.997883 -0.608077 -3.850371
  H 2.996935 -2.256456 -3.189685
  H 3.409833 -1.529915 -6.138092
  H 1.938708 -2.200846 -5.439438
  H 3.408603 -3.170233 -5.480545
 22
 202.120574
  C 0.562567 0.428277 1.117786
  C 1.963671 0.454912 1.148614
  H 2.699932 0.762861 1.856101
  C 2.961822 -0.358772 -0.790103
  C 4.181419 -0.303767 -0.676752
  C 5.496183 -1.098124 -2.662122
  C 4.967585 -1.582419 -3.886044
  C 3.446100 -1.641378 -4.038844
  C 3.053958 -2.180331 -5.409593
  H 6.540828 -0.990572 -2.414837
  H 0.120277 0.814887 2.034747
  H 0.199843 -0.590089 0.936148
  H 0.184399 0.996301 0.259953
  H 2.137702 -0.621839 -1.407987
  H 4.993778 -0.037320 -0.044963
  H 5.400970 -2.582761 -4.074656
  H 5.402300 -0.982121 -4.707374
  H 3.036656 -0.639171 -3.912649
  H 3.035435 -2.288493 -3.263846
  H 3.438978 -1.545651 -6.204303
  H 1.972450 -2.217849 -5.506889
  H 3.437789 -3.186757 -5.558698
 22
 207.204685
  C 0.503309 0.481138 1.245759
  C 1.888802 0.506314 1.261335
  H 2.601722 0.831792 1.991736
  C 2.949631 -0.341867 -0.730506
  C 4.151653 -0.275168 -0.594226
  C 5.519859 -1.134370 -2.741500
  C 5.010649 -1.614216 -3.967638
  C 3.487564 -1.671936 -4.114272
  C 3.093354 -2.207301 -5.485404
  H 6.586156 -1.046204 -2.548898
  H 0.013995 0.869748 2.155430
  H 0.164879 -0.543518 1.051387
  H 0.143415 1.029967 0.367429
  H 2.108659 -0.598629 -1.322925
  H 4.997848 -0.028004 -0.017937
  H 5.451133 -2.611472 -4.159279
  H 5.452845 -1.016105 -4.788418
  H 3.080997 -0.670866 -3.985666
  H 3.080926 -2.321071 -3.341415
  H 3.475971 -1.570726 -6.278262
  H 2.012444 -2.244923 -5.581726
  H 3.476002 -3.212830 -5.637284
 22
 209.669072
  C 0.435986 0.532336 1.370941
  C 1.817848 0.551707 1.382887
  H 2.518940 0.876978 2.130224
  C 2.942193 -0.323706 -0.698211
  C 4.134986 -0.252045 -0.543236
  C 5.561729 -1.162284 -2.819170
  C 5.055012 -1.644972 -4.048740
  C 3.530737 -1.701301 -4.189125
  C 3.127069 -2.238430 -5.556724
  H 6.633420 -1.086278 -2.650707
  H -0.069688 0.910882 2.269697
  H 0.104589 -0.492336 1.157548
  H 0.087548 1.079824 0.485431
  H 2.093056 -0.570873 -1.278310
  H 5.003071 -0.017276 0.011492
  H 5.495928 -2.641123 -4.240536
  H 5.496604 -1.050707 -4.870784
  H 3.126313 -0.699018 -4.058212
  H 3.126978 -2.347162 -3.411243
  H 3.506690 -1.603526 -6.353656
  H 2.045291 -2.274221 -5.646703
  H 3.507392 -3.245657 -5.709087
 22
 211.158550
  C 0.370253 0.579432 1.486391
  C 1.751714 0.593156 1.499082
  H 2.442351 0.913365 2.257635
  C 2.937336 -0.307584 -0.674858
  C 4.121797 -0.229722 -0.495826
  C 5.607630 -1.189795 -2.898629
  C 5.099313 -1.674546 -4.127443
  C 3.573421 -1.728324 -4.257858
  C 3.156535 -2.267559 -5.620482
  H 6.684068 -1.124749 -2.749322
  H -0.150156 0.949389 2.379829
  H 0.042835 -0.444430 1.253408
  H 0.032232 1.128643 0.595421
  H 2.075866 -0.543339 -1.240974
  H 5.006625 -0.010129 0.032907
  H 5.539721 -2.671228 -4.319948
  H 5.539112 -1.083461 -4.952960
  H 3.172625 -0.724900 -4.124088
  H 3.174389 -2.369732 -3.473878
  H 3.531272 -1.635769 -6.421824
  H 2.074062 -2.300639 -5.701252
  H 3.533024 -3.275860 -5.773537
 22
 212.002814
  C 0.306249 0.622726 1.594107
  C 1.687001 0.631444 1.611852
  H 2.371294 0.943938 2.380060
  C 2.933287 -0.291554 -0.657208
  C 4.109099 -0.207348 -0.451236
  C 5.655823 -1.217045 -2.978935
  C 5.142501 -1.703779 -4.204687
  C 3.614858 -1.754263 -4.323744
  C 3.183358 -2.296219 -5.680893
  H 6.734036 -1.161280 -2.843038
  H -0.226277 0.983342 2.482888
  H -0.018541 -0.398352 1.341234
  H -0.021384 1.175766 0.700404
  H 2.060263 -0.513834 -1.206314
  H 5.011760 -0.003329 0.052484
  H 5.580635 -2.701167 -4.397924
  H 5.578907 -1.116419 -5.034240
  H 3.218312 -0.749210 -4.187430
  H 3.220930 -2.390803 -3.532811
  H 3.552943 -1.667760 -6.487760
  H 2.099794 -2.326052 -5.751413
  H 3.555529 -3.306435 -5.834412
 22
 212.369236
  C 0.243526 0.663585 1.697264
  C 1.624063 0.670879 1.720403
  H 2.304567 0.979334 2.493678
  C 2.929482 -0.280893 -0.642636
  C 4.096881 -0.187915 -0.408881
  C 5.705762 -1.247130 -3.059885
  C 5.184667 -1.733810 -4.280910
  C 3.655636 -1.779870 -4.387963
  C 3.209032 -2.322353 -5.739835
  H 6.785162 -1.197091 -2.933935
  H -0.299095 1.018689 2.581941
  H -0.077938 -0.356063 1.430527
  H -0.076864 1.216340 0.799593
  H 2.043028 -0.492118 -1.172257
  H 5.014645 0.002532 0.067910
  H 5.619126 -2.732286 -4.476305
  H 5.616865 -1.149312 -5.114340
  H 3.263964 -0.773276 -4.247763
  H 3.266885 -2.412289 -3.591104
  H 3.573292 -1.696544 -6.551188
  H 2.124698 -2.348205 -5.799663
  H 3.576114 -3.334163 -5.895174
