19

C 0.986964 0.138002 0.37789
C 2.464716 0.142258 0.39292
H 3.0229318337034456 0.47975166487585424 1.2410904481832834
C 3.089247 -0.318443 -0.75754
C 4.468218 -0.406418 -0.972231
C 5.129709 -0.861254 -2.101753
C 4.615906 -1.38496 -3.400148
C 3.123001 -1.502306 -3.685582
H 2.959700270320223 -1.897796657307663 -4.666306228143878
H 6.199672188637636 -0.8610231045215251 -2.1106255220574774
H 0.538984 0.502146 1.295722
H 0.620825 -0.874858 0.203927
H 0.621458 0.757173 -0.442975
H 2.434029 -0.635199 -1.550905
H 5.091005 -0.076457 -0.148876
H 5.067793 -2.375303 -3.52858
H 5.065248 -0.759014 -4.179744
H 2.648348 -0.521538 -3.631928
H 2.650833 -2.172941 -2.966233
