 26
 0.000000
  C 0.965877 0.141080 0.403861
  C 2.441623 0.138113 0.395483
  C 3.232810 0.606037 1.558897
  C 2.460161 1.096122 2.778561
  H 3.141900 1.409448 3.557669
  C 3.054544 -0.327250 -0.762677
  C 4.432021 -0.411401 -0.972891
  C 5.115537 -0.861635 -2.095707
  C 4.625403 -1.384463 -3.399875
  C 3.136770 -1.502435 -3.695146
  H 2.988915 -1.901172 -4.689836
  O 6.437800 -0.854875 -2.078898
  H 0.536942 0.512212 1.327187
  H 0.592714 -0.870148 0.236709
  H 0.592179 0.754961 -0.416679
  H 3.889306 1.416062 1.222017
  H 3.889761 -0.211447 1.876296
  H 1.825925 0.304117 3.173219
  H 1.825556 1.940701 2.515393
  H 2.395585 -0.644658 -1.552315
  H 5.050351 -0.079741 -0.147022
  H 5.084782 -2.371645 -3.523785
  H 5.085270 -0.756627 -4.171435
  H 2.658311 -0.526547 -3.648118
  H 2.657855 -2.175339 -2.987116
  H 6.812991 -0.520362 -1.242733
 26
 9.304137
  C 0.925688 0.167027 0.468144
  C 2.390356 0.166030 0.464976
  C 3.199281 0.624489 1.605039
  C 2.448069 1.118945 2.835601
  H 3.150840 1.427141 3.602180
  C 3.068453 -0.353593 -0.828189
  C 4.435959 -0.430081 -1.019452
  C 5.134600 -0.878175 -2.137142
  C 4.657482 -1.402918 -3.445975
  C 3.171711 -1.524653 -3.750121
  H 3.039493 -1.925380 -4.749753
  O 6.456929 -0.866102 -2.107396
  H 0.497757 0.538289 1.391659
  H 0.553386 -0.844516 0.296592
  H 0.553022 0.778148 -0.355822
  H 3.857671 1.428658 1.255536
  H 3.858035 -0.197586 1.909232
  H 1.817431 0.333112 3.245650
  H 1.817185 1.969833 2.587870
  H 2.404530 -0.667777 -1.609818
  H 5.047874 -0.096254 -0.188332
  H 5.123095 -2.387701 -3.565430
  H 5.123385 -0.773655 -4.212696
  H 2.687396 -0.552102 -3.711764
  H 2.687179 -2.201273 -3.050636
  H 6.827924 -0.531219 -1.269961
 26
 28.015848
  C 0.867987 0.184902 0.508909
  C 2.321504 0.190198 0.523977
  C 3.193160 0.625340 1.609385
  C 2.492687 1.129248 2.863943
  H 3.237817 1.426123 3.605272
  C 3.048899 -0.386205 -0.911315
  C 4.399894 -0.441638 -1.050656
  C 5.132128 -0.878123 -2.139073
  C 4.690748 -1.407121 -3.455857
  C 3.212248 -1.537545 -3.778246
  H 3.109684 -1.943022 -4.788109
  O 6.444755 -0.850444 -2.072700
  H 0.438279 0.556047 1.432916
  H 0.498940 -0.823451 0.320827
  H 0.499758 0.783669 -0.324389
  H 3.852105 1.412420 1.227978
  H 3.851083 -0.207839 1.878231
  H 1.868766 0.355988 3.301817
  H 1.869986 1.991495 2.645617
  H 2.353544 -0.687259 -1.660771
  H 4.989362 -0.103893 -0.210262
  H 5.167631 -2.387200 -3.565011
  H 5.166583 -0.774303 -4.212689
  H 2.717630 -0.571905 -3.757879
  H 2.718732 -2.221717 -3.095562
  H 6.795641 -0.512236 -1.229191
 26
 49.332669
  C 0.812526 0.209683 0.566913
  C 2.250852 0.217685 0.591725
  C 3.176349 0.630189 1.624175
  C 2.523193 1.146207 2.908560
  H 3.290214 1.427818 3.614791
  C 3.018251 -0.417085 -0.989310
  C 4.367253 -0.455154 -1.085707
  C 5.145703 -0.887052 -2.163118
  C 4.735764 -1.420620 -3.488967
  C 3.261160 -1.560377 -3.831090
  H 3.179149 -1.962415 -4.830806
  O 6.463140 -0.844094 -2.061547
  H 0.390401 0.583281 1.497447
  H 0.439032 -0.802428 0.375801
  H 0.441316 0.810431 -0.270725
  H 3.840659 1.404824 1.214805
  H 3.837781 -0.214789 1.863870
  H 1.904313 0.379726 3.371430
  H 1.907337 2.022222 2.713129
  H 2.276092 -0.703347 -1.702795
  H 4.937736 -0.110502 -0.228167
  H 5.226611 -2.395097 -3.592929
  H 5.224271 -0.788121 -4.239164
  H 2.758013 -0.596254 -3.820321
  H 2.760555 -2.250037 -3.155460
  H 6.790963 -0.502234 -1.211753
 26
 70.221668
  C 0.763152 0.236556 0.632637
  C 2.202122 0.245993 0.662315
  C 3.148679 0.649793 1.674113
  C 2.519726 1.168581 2.964871
  H 3.307105 1.448074 3.666741
  C 3.024597 -0.444732 -1.057805
  C 4.370795 -0.476127 -1.137762
  C 5.167633 -0.904113 -2.206125
  C 4.773506 -1.440237 -3.537880
  C 3.303153 -1.583949 -3.888572
  H 3.227733 -1.990568 -4.899382
  O 6.486515 -0.853627 -2.087128
  H 0.340606 0.610062 1.562805
  H 0.390974 -0.771230 0.440497
  H 0.393783 0.833881 -0.202798
  H 3.810107 1.417087 1.254867
  H 3.806609 -0.197234 1.901751
  H 1.904452 0.407169 3.434686
  H 1.908214 2.046124 2.777800
  H 2.270704 -0.722970 -1.751613
  H 4.928739 -0.130284 -0.277137
  H 5.268626 -2.413348 -3.636533
  H 5.265662 -0.804917 -4.283414
  H 2.798668 -0.622859 -3.880697
  H 2.801666 -2.273615 -3.216799
  H 6.802816 -0.508878 -1.230922
 26
 89.460931
  C 0.725339 0.261533 0.694100
  C 2.156400 0.272630 0.729191
  C 3.123644 0.667185 1.718562
  C 2.514896 1.191744 3.022551
  H 3.308868 1.464766 3.708783
  C 3.032079 -0.474551 -1.130630
  C 4.373353 -0.497933 -1.190998
  C 5.189942 -0.921067 -2.248407
  C 4.811910 -1.457767 -3.581774
  C 3.342583 -1.603518 -3.936642
  H 3.270525 -2.007523 -4.941125
  O 6.504130 -0.863101 -2.112233
  H 0.301495 0.635985 1.626090
  H 0.353119 -0.748823 0.500272
  H 0.356556 0.859709 -0.144428
  H 3.785040 1.430501 1.286575
  H 3.780875 -0.186132 1.934722
  H 1.901112 0.432713 3.501472
  H 1.905553 2.074253 2.843211
  H 2.257215 -0.746996 -1.810243
  H 4.919919 -0.148377 -0.320910
  H 5.310150 -2.429558 -3.676124
  H 5.306731 -0.819976 -4.323322
  H 2.836577 -0.642064 -3.929915
  H 2.840019 -2.294481 -3.265485
  H 6.805442 -0.517608 -1.254935
 26
 106.051039
  C 0.677647 0.288442 0.759935
  C 2.108203 0.300730 0.799469
  C 3.096007 0.685943 1.766550
  C 2.514862 1.215249 3.081447
  H 3.326549 1.483224 3.755949
  C 3.035949 -0.503016 -1.200466
  C 4.373264 -0.519346 -1.243609
  C 5.210427 -0.937091 -2.288671
  C 4.850441 -1.476343 -3.628210
  C 3.384543 -1.626737 -3.993366
  H 3.319501 -2.032739 -5.002736
  O 6.526532 -0.870258 -2.132093
  H 0.250891 0.663047 1.691933
  H 0.306536 -0.720789 0.564932
  H 0.310610 0.885350 -0.078742
  H 3.754813 1.442679 1.322305
  H 3.749903 -0.171573 1.969685
  H 1.904508 0.460969 3.569609
  H 1.909759 2.101142 2.911656
  H 2.249604 -0.767738 -1.861125
  H 4.905668 -0.167535 -0.367551
  H 5.353028 -2.446529 -3.717213
  H 5.349002 -0.835694 -4.364869
  H 2.876414 -0.667013 -3.989345
  H 2.880368 -2.318596 -3.325167
  H 6.813542 -0.521369 -1.267426
 26
 119.820240
  C 0.638321 0.315754 0.826824
  C 2.062195 0.328633 0.869320
  C 3.065659 0.705673 1.817054
  C 2.507915 1.240011 3.143507
  H 3.329777 1.501800 3.803416
  C 3.042636 -0.531490 -1.270446
  C 4.377554 -0.541431 -1.297945
  C 5.234521 -0.954806 -2.333221
  C 4.890294 -1.494787 -3.674307
  C 3.426438 -1.647853 -4.044806
  H 3.364769 -2.052850 -5.051485
  O 6.545737 -0.880919 -2.160729
  H 0.208158 0.690542 1.758808
  H 0.268325 -0.694516 0.630746
  H 0.273107 0.912961 -0.013426
  H 3.723058 1.458019 1.361258
  H 3.717380 -0.157128 2.009229
  H 1.899835 0.488867 3.640475
  H 1.905910 2.130190 2.981784
  H 2.240212 -0.791136 -1.918909
  H 4.898258 -0.186410 -0.413311
  H 5.395719 -2.463761 -3.759227
  H 5.391126 -0.851878 -4.407344
  H 2.917072 -0.688496 -4.041870
  H 2.921569 -2.340396 -3.377439
  H 6.817732 -0.531582 -1.296114
 26
 130.456208
  C 0.598695 0.347984 0.906416
  C 2.022449 0.357782 0.942619
  C 3.021531 0.734028 1.888713
  C 2.483762 1.273579 3.226689
  H 3.315963 1.531662 3.877886
  C 3.063404 -0.557953 -1.333672
  C 4.396361 -0.566912 -1.359541
  C 5.265318 -0.978393 -2.392107
  C 4.930057 -1.519395 -3.736390
  C 3.467780 -1.675936 -4.114358
  H 3.409548 -2.081349 -5.122620
  O 6.574209 -0.900106 -2.210281
  H 0.156578 0.722988 1.837969
  H 0.233603 -0.661620 0.707662
  H 0.238996 0.942827 0.064434
  H 3.676408 1.481174 1.425800
  H 3.670030 -0.130288 2.072861
  H 1.877763 0.525568 3.730499
  H 1.884617 2.166576 3.071391
  H 2.260269 -0.815748 -1.977829
  H 4.910428 -0.210830 -0.471637
  H 5.437407 -2.487587 -3.818637
  H 5.432170 -0.874490 -4.466761
  H 2.957145 -0.717253 -4.112417
  H 2.962244 -2.369242 -3.448319
  H 6.838572 -0.547785 -1.338277
 26
 135.830815
  C 0.571348 0.387484 1.004523
  C 1.990116 0.388750 1.020527
  C 2.956259 0.773773 1.988298
  C 2.426144 1.316338 3.332557
  H 3.258474 1.573327 3.981348
  C 3.104350 -0.580645 -1.387207
  C 4.442267 -0.596041 -1.429996
  C 5.311186 -1.011601 -2.474971
  C 4.970986 -1.550474 -3.814903
  C 3.508158 -1.707702 -4.193402
  H 3.447691 -2.111988 -5.199640
  O 6.605969 -0.936099 -2.301297
  H 0.113017 0.761332 1.932103
  H 0.214297 -0.622531 0.801234
  H 0.220225 0.979299 0.158719
  H 3.610899 1.518734 1.524060
  H 3.603975 -0.090095 2.170589
  H 1.820107 0.568983 3.838434
  H 1.827521 2.210635 3.178649
  H 2.310762 -0.845129 -2.048470
  H 4.962137 -0.239918 -0.541199
  H 5.476987 -2.518827 -3.898103
  H 5.471116 -0.905239 -4.545781
  H 2.997814 -0.748610 -4.190068
  H 3.003559 -2.401065 -3.526334
  H 6.872106 -0.585038 -1.431506
 26
 137.994535
  C 0.531690 0.422949 1.092347
  C 1.961451 0.418664 1.095645
  C 2.906058 0.815689 2.093137
  C 2.370931 1.356822 3.432800
  H 3.199167 1.615360 4.085717
  C 3.156216 -0.603296 -1.440516
  C 4.489246 -0.624116 -1.497588
  C 5.352791 -1.041203 -2.548696
  C 5.000579 -1.578958 -3.886925
  C 3.535338 -1.735287 -4.261976
  H 3.470452 -2.139361 -5.268591
  O 6.649429 -0.967413 -2.380859
  H 0.062006 0.794649 2.013620
  H 0.179614 -0.590282 0.884713
  H 0.186039 1.013958 0.240935
  H 3.563795 1.562486 1.631579
  H 3.556408 -0.047874 2.279101
  H 1.763276 0.608246 3.935401
  H 1.771195 2.249969 3.275293
  H 2.380175 -0.874706 -2.119480
  H 5.013589 -0.269320 -0.611285
  H 5.504793 -2.548171 -3.972819
  H 5.498235 -0.934020 -4.619966
  H 3.025597 -0.775654 -4.256295
  H 3.032050 -2.428219 -3.593185
  H 6.925757 -0.614740 -1.506212
 26
 139.575101
  C 0.505952 0.462259 1.189288
  C 1.929006 0.451657 1.178206
  C 2.851277 0.853232 2.187370
  C 2.307735 1.392396 3.521239
  H 3.131507 1.652744 4.179345
  C 3.192831 -0.624536 -1.491037
  C 4.535892 -0.650337 -1.561255
  C 5.394322 -1.069128 -2.618629
  C 5.033024 -1.604129 -3.950479
  C 3.567547 -1.759095 -4.320477
  H 3.499334 -2.162789 -5.326606
  O 6.676793 -0.997996 -2.459138
  H 0.035804 0.833347 2.108309
  H 0.155989 -0.550265 0.980408
  H 0.163072 1.052017 0.337259
  H 3.510295 1.599476 1.728345
  H 3.502327 -0.008642 2.375104
  H 1.697983 0.642538 4.019920
  H 1.706570 2.284197 3.359727
  H 2.425674 -0.900763 -2.182394
  H 5.067262 -0.296478 -0.676751
  H 5.536138 -2.573601 -4.038660
  H 5.528768 -0.959785 -4.685217
  H 3.058231 -0.799341 -4.312989
  H 3.065512 -2.451585 -3.650375
  H 6.959804 -0.648425 -1.592016
 26
 140.858847
  C 0.460270 0.494759 1.268614
  C 1.898651 0.482090 1.254275
  C 2.813823 0.892342 2.286027
  C 2.258361 1.430454 3.616263
  H 3.076058 1.692862 4.280568
  C 3.240405 -0.646750 -1.544445
  C 4.569978 -0.674307 -1.619810
  C 5.424368 -1.091302 -2.674530
  C 5.054726 -1.627225 -4.008647
  C 3.587615 -1.781814 -4.375593
  H 3.516983 -2.185482 -5.381725
  O 6.722296 -1.018978 -2.514363
  H -0.015882 0.865425 2.186058
  H 0.112253 -0.519505 1.056118
  H 0.120145 1.083658 0.412738
  H 3.476362 1.639679 1.830736
  H 3.467464 0.031613 2.477564
  H 1.646290 0.679248 4.110147
  H 1.655830 2.320527 3.450082
  H 2.483107 -0.926864 -2.245791
  H 5.101925 -0.321823 -0.738559
  H 5.557449 -2.597091 -4.098704
  H 5.549130 -0.983232 -4.745035
  H 3.078142 -0.822012 -4.366847
  H 3.086417 -2.474054 -3.704448
  H 7.013861 -0.667514 -1.642567
 26
 141.925773
  C 0.435305 0.536797 1.372273
  C 1.857703 0.519136 1.346900
  C 2.757978 0.927055 2.373205
  C 2.198282 1.463274 3.697600
  H 3.014436 1.726575 4.364844
  C 3.255853 -0.666266 -1.589986
  C 4.602643 -0.696244 -1.672283
  C 5.458471 -1.114623 -2.732891
  C 5.089473 -1.647348 -4.059780
  C 3.624108 -1.802351 -4.425860
  H 3.554724 -2.206025 -5.432672
  O 6.730180 -1.043751 -2.578182
  H -0.033616 0.907614 2.289330
  H 0.086424 -0.475608 1.160287
  H 0.095078 1.124827 0.517804
  H 3.420819 1.672362 1.918009
  H 3.411220 0.067381 2.563814
  H 1.585003 0.711762 4.189226
  H 1.595300 2.352465 3.529188
  H 2.499533 -0.946409 -2.291715
  H 5.140181 -0.343495 -0.789706
  H 5.593466 -2.616350 -4.150080
  H 5.584175 -1.003158 -4.795590
  H 3.113610 -0.843186 -4.417268
  H 3.122847 -2.495118 -3.755374
  H 7.022042 -0.695868 -1.715287
