17

H 1.3752724303217838 0.14028276932186015 0.4004095339958695
C 2.445261 0.138532 0.395784
H 3.0141921844097457 0.47645412169206264 1.2366323496310487
C 3.056527 -0.32624 -0.761266
C 4.434557 -0.412807 -0.977341
C 5.116634 -0.862171 -2.097644
C 4.626711 -1.386353 -3.404443
C 3.136043 -1.505154 -3.701248
H 2.9790545753385804 -1.8991609193429098 -4.683598844674262
O 6.441363 -0.85411 -2.077903
H 2.395882 -0.642369 -1.548407
H 5.050449 -0.080233 -0.149165
H 5.083529 -2.374996 -3.529298
H 5.083826 -0.758265 -4.177923
H 2.660333 -0.524837 -3.647836
H 2.66004 -2.176678 -2.985238
H 6.799446 -0.516763 -1.236311
