 23
 0.000000
  H 1.409653 0.150220 0.428438
  C 2.488306 0.139963 0.400973
  C 3.237877 0.611232 1.570471
  H 2.609363 0.939816 2.388359
  C 3.067172 -0.327844 -0.763002
  C 4.445299 -0.414427 -0.979874
  C 5.124691 -0.868325 -2.112070
  C 4.616430 -1.387882 -3.408126
  C 3.125470 -1.503776 -3.698572
  C 2.910966 -2.066257 -5.101660
  O 6.439963 -0.864490 -2.102942
  H 3.892749 1.436361 1.279900
  H 3.894169 -0.184131 1.932065
  H 2.396331 -0.641833 -1.543455
  H 5.068101 -0.083283 -0.154963
  H 5.074913 -2.375537 -3.537354
  H 5.075631 -0.763525 -4.183846
  H 2.650108 -0.523668 -3.646688
  H 2.649466 -2.176272 -2.984110
  H 3.353324 -1.418134 -5.854472
  H 1.848163 -2.150719 -5.313342
  H 3.352784 -3.055201 -5.198110
  H 6.822674 -0.530408 -1.268461
 23
 1.810632
  H 1.426249 -0.037023 0.543020
  C 2.498646 0.049984 0.438554
  C 3.223851 0.737048 1.511848
  H 2.554551 1.066666 2.299110
  C 3.062361 -0.494208 -0.699079
  C 4.431171 -0.457606 -0.966353
  C 5.120173 -0.895968 -2.095840
  C 4.613489 -1.395378 -3.393134
  C 3.123586 -1.468770 -3.695466
  C 2.909166 -1.960247 -5.125070
  O 6.430747 -0.778844 -2.114621
  H 3.761070 1.603135 1.119851
  H 3.986014 0.086143 1.943466
  H 2.396737 -0.971128 -1.399021
  H 5.052919 0.026415 -0.221462
  H 5.052151 -2.392394 -3.523248
  H 5.105983 -0.787533 -4.162253
  H 2.667215 -0.483028 -3.594430
  H 2.631509 -2.167619 -3.019305
  H 3.367195 -1.284686 -5.843117
  H 1.847037 -2.018287 -5.348731
  H 3.336914 -2.950005 -5.265375
  H 6.874869 -0.837683 -1.246499
 23
 7.636317
  H 1.407306 -0.009595 0.549707
  C 2.480851 0.070183 0.449352
  C 3.208311 0.720065 1.540949
  H 2.539369 1.040689 2.332232
  C 3.040744 -0.450692 -0.698189
  C 4.413935 -0.413547 -0.963557
  C 5.106536 -0.839349 -2.093291
  C 4.613228 -1.359613 -3.385737
  C 3.127935 -1.474579 -3.695548
  C 2.930540 -1.996556 -5.116970
  O 6.428957 -0.646597 -2.102815
  H 3.763967 1.585176 1.172401
  H 3.960513 0.048684 1.959854
  H 2.373742 -0.904136 -1.410142
  H 5.039865 0.060849 -0.217715
  H 5.078836 -2.346229 -3.511626
  H 5.097906 -0.748845 -4.159929
  H 2.647531 -0.498713 -3.614373
  H 2.649513 -2.171475 -3.007166
  H 3.377749 -1.324716 -5.845744
  H 1.870997 -2.080342 -5.344194
  H 3.378554 -2.980003 -5.237687
  H 6.947140 -1.139488 -1.445807
 23
 7.636317
  H 1.407306 -0.009595 0.549707
  C 2.480851 0.070183 0.449352
  C 3.208311 0.720065 1.540949
  H 2.539369 1.040689 2.332232
  C 3.040744 -0.450692 -0.698189
  C 4.413935 -0.413547 -0.963557
  C 5.106536 -0.839349 -2.093291
  C 4.613228 -1.359613 -3.385737
  C 3.127935 -1.474579 -3.695548
  C 2.930540 -1.996556 -5.116970
  O 6.428957 -0.646597 -2.102815
  H 3.763967 1.585176 1.172401
  H 3.960513 0.048684 1.959854
  H 2.373742 -0.904136 -1.410142
  H 5.039865 0.060849 -0.217715
  H 5.078836 -2.346229 -3.511626
  H 5.097906 -0.748845 -4.159929
  H 2.647531 -0.498713 -3.614373
  H 2.649513 -2.171475 -3.007166
  H 3.377749 -1.324716 -5.845744
  H 1.870997 -2.080342 -5.344194
  H 3.378554 -2.980003 -5.237687
  H 6.947140 -1.139488 -1.445807
 23
 10.486899
  H 1.375281 0.159977 0.489019
  C 2.454836 0.159083 0.426975
  C 3.193130 0.612925 1.604845
  H 2.526142 0.890021 2.414029
  C 3.011798 -0.272921 -0.759476
  C 4.392281 -0.312238 -0.984896
  C 5.096776 -0.738255 -2.106644
  C 4.623636 -1.318229 -3.380548
  C 3.141059 -1.480603 -3.684504
  C 2.954995 -2.096214 -5.069639
  O 6.422354 -0.536998 -2.057053
  H 3.825957 1.467829 1.355560
  H 3.880114 -0.160325 1.954776
  H 2.336122 -0.583087 -1.537236
  H 5.031918 0.044323 -0.185908
  H 5.106839 -2.299646 -3.480486
  H 5.090020 -0.718589 -4.174585
  H 2.643478 -0.510314 -3.668421
  H 2.674158 -2.138649 -2.950812
  H 3.394548 -1.466486 -5.839540
  H 1.897362 -2.209214 -5.293010
  H 3.416430 -3.079288 -5.126213
  H 6.994792 -1.271931 -1.792227
 23
 5.524874
  H 1.360873 0.290708 0.429561
  C 2.439073 0.215457 0.400949
  C 3.163833 0.502087 1.639610
  H 2.487347 0.733044 2.455354
  C 3.009085 -0.146325 -0.801905
  C 4.389794 -0.256560 -0.988859
  C 5.108445 -0.685939 -2.104699
  C 4.647015 -1.306842 -3.368806
  C 3.162392 -1.480906 -3.663744
  C 2.977009 -2.175109 -5.011329
  O 6.418537 -0.505640 -1.996628
  H 3.846667 1.342659 1.495920
  H 3.797997 -0.339295 1.924738
  H 2.343247 -0.333774 -1.626363
  H 5.029062 0.013484 -0.155614
  H 5.122477 -2.294195 -3.439006
  H 5.102483 -0.724411 -4.180397
  H 2.669103 -0.509594 -3.706446
  H 2.692251 -2.091822 -2.892401
  H 3.425322 -1.595079 -5.814667
  H 1.919469 -2.291951 -5.232720
  H 3.429875 -3.163859 -5.008002
  H 7.008077 -1.251772 -2.199588
 23
 0.578241
  H 1.361365 0.417251 0.367462
  C 2.431209 0.262455 0.368361
  C 3.125485 0.380400 1.652900
  H 2.430479 0.541945 2.469810
  C 3.023078 -0.039868 -0.839312
  C 4.398917 -0.223664 -0.989356
  C 5.130420 -0.664283 -2.095981
  C 4.671848 -1.302394 -3.353765
  C 3.182470 -1.452936 -3.646052
  C 2.984050 -2.231568 -4.944755
  O 6.428866 -0.520223 -1.944805
  H 3.830794 1.214531 1.622361
  H 3.728507 -0.504558 1.859429
  H 2.380891 -0.106232 -1.701005
  H 5.035093 0.014599 -0.145178
  H 5.118685 -2.304507 -3.386386
  H 5.133312 -0.750155 -4.181827
  H 2.718607 -0.472880 -3.759172
  H 2.690493 -1.993440 -2.836859
  H 3.462565 -1.726284 -5.780579
  H 1.925254 -2.323448 -5.171040
  H 3.398048 -3.234214 -4.867021
  H 6.992771 -1.038684 -2.548895
 23
 5.621653
  H 1.361188 0.459519 0.278883
  C 2.427074 0.279138 0.269802
  C 3.090669 0.069433 1.559552
  H 2.377852 0.025011 2.375877
  C 3.052858 0.239209 -0.952752
  C 4.425148 0.000930 -1.101942
  C 5.159418 -0.529357 -2.161792
  C 4.702703 -1.306977 -3.335717
  C 3.201413 -1.410325 -3.584287
  C 2.921883 -2.317565 -4.778522
  O 6.452932 -0.318891 -2.015365
  H 3.787360 0.891382 1.744139
  H 3.697267 -0.835821 1.558853
  H 2.461245 0.437122 -1.832781
  H 5.138235 0.313327 -0.344618
  H 5.108592 -2.323380 -3.253382
  H 5.177159 -0.861606 -4.218110
  H 2.789726 -0.422952 -3.793164
  H 2.699716 -1.814686 -2.704054
  H 3.419496 -1.949018 -5.672831
  H 1.855237 -2.358132 -4.981256
  H 3.266598 -3.331235 -4.588322
  H 7.066088 -1.002148 -2.343657
 23
 17.335252
  H 1.375586 0.561737 0.272958
  C 2.428855 0.320413 0.224520
  C 3.085704 -0.131896 1.455342
  H 2.369842 -0.315979 2.249829
  C 3.054276 0.439078 -0.987009
  C 4.408060 0.127438 -1.191489
  C 5.146777 -0.467753 -2.205517
  C 4.724431 -1.348688 -3.311238
  C 3.216434 -1.416763 -3.541463
  C 2.885854 -2.370455 -4.682606
  O 6.431777 -0.170473 -2.041500
  H 3.785438 0.640532 1.787131
  H 3.686033 -1.025755 1.289476
  H 2.489594 0.812590 -1.830573
  H 5.256313 0.475094 -0.583301
  H 5.123533 -2.358885 -3.170568
  H 5.212266 -0.956164 -4.212631
  H 2.835447 -0.423572 -3.780132
  H 2.722192 -1.754128 -2.628711
  H 3.381643 -2.065271 -5.600325
  H 1.815733 -2.384834 -4.867856
  H 3.197362 -3.385200 -4.444780
  H 7.091042 -0.883175 -2.112696
 23
 44.020236
  H 1.405178 0.687825 0.481349
  C 2.433505 0.386513 0.333001
  C 3.155434 -0.182423 1.476550
  H 2.489339 -0.382281 2.310969
  C 2.972927 0.553186 -0.913787
  C 4.266700 0.155072 -1.260732
  C 5.023745 -0.449597 -2.225694
  C 4.714949 -1.378244 -3.323352
  C 3.215065 -1.493317 -3.605436
  C 2.955436 -2.448663 -4.762410
  O 6.307776 -0.061894 -1.989273
  H 3.920165 0.523143 1.812071
  H 3.679344 -1.096704 1.197395
  H 2.390942 1.065273 -1.672700
  H 5.354583 0.506302 -0.805420
  H 5.156850 -2.364613 -3.170612
  H 5.214550 -0.952447 -4.206501
  H 2.813909 -0.508299 -3.849677
  H 2.705299 -1.844655 -2.707130
  H 3.473484 -2.119849 -5.657809
  H 1.892472 -2.504945 -4.982731
  H 3.295901 -3.452904 -4.520268
  H 7.003625 -0.739084 -1.922887
 23
 61.215970
  H 1.449635 0.785308 0.631701
  C 2.442587 0.429944 0.400899
  C 3.198231 -0.252671 1.466039
  H 2.576388 -0.445978 2.334008
  C 2.920325 0.632507 -0.863817
  C 4.144537 0.183081 -1.320966
  C 4.902891 -0.384439 -2.231826
  C 4.691375 -1.324589 -3.354224
  C 3.209310 -1.515538 -3.674688
  C 3.020594 -2.540060 -4.786565
  O 6.243916 0.041548 -1.913547
  H 4.042269 0.361016 1.784598
  H 3.615170 -1.190006 1.098285
  H 2.344214 1.251470 -1.544481
  H 5.552600 0.533092 -0.941731
  H 5.138170 -2.296675 -3.123880
  H 5.209904 -0.922523 -4.229470
  H 2.776652 -0.563469 -3.983893
  H 2.682152 -1.849085 -2.779241
  H 3.547854 -2.233740 -5.687296
  H 1.966860 -2.645527 -5.032566
  H 3.396174 -3.515005 -4.484667
  H 6.909562 -0.668137 -1.795973
 23
 47.512882
  H 1.440793 0.831164 0.737034
  C 2.412091 0.450382 0.458187
  C 3.230081 -0.211378 1.505992
  H 2.651758 -0.387750 2.404821
  C 2.824725 0.619534 -0.836840
  C 4.004045 0.160303 -1.351052
  C 4.809486 -0.366909 -2.217078
  C 4.658202 -1.308004 -3.353303
  C 3.190367 -1.516312 -3.732394
  C 3.058615 -2.537222 -4.852533
  O 6.209679 0.056449 -1.904146
  H 4.083590 0.413883 1.773058
  H 3.629232 -1.155955 1.142662
  H 2.204688 1.215830 -1.507241
  H 5.823934 0.575690 -1.069475
  H 5.107195 -2.276720 -3.112449
  H 5.200234 -0.893213 -4.204128
  H 2.760256 -0.571991 -4.053838
  H 2.633756 -1.858336 -2.862158
  H 3.618901 -2.224764 -5.727070
  H 2.016833 -2.651155 -5.143357
  H 3.428664 -3.506673 -4.539165
  H 6.822873 -0.687956 -1.727391
