 19
 0.000000
  H 1.438238 0.173391 0.482870
  C 2.512070 0.145211 0.412377
  H 3.110271 0.478637 1.242934
  C 3.054679 -0.320288 -0.747659
  C 4.445101 -0.416040 -0.986470
  C 5.086723 -0.870436 -2.118959
  C 4.597146 -1.381923 -3.393646
  C 3.120215 -1.509102 -3.711714
  C 2.907121 -2.072189 -5.114194
  H 6.170531 -0.856908 -2.084997
  H 2.372458 -0.631372 -1.522789
  H 5.084856 -0.090090 -0.174100
  H 5.076893 -2.364546 -3.530108
  H 5.077802 -0.766978 -4.171590
  H 2.637051 -0.530729 -3.658799
  H 2.636506 -2.178974 -2.997030
  H 3.347539 -1.426079 -5.869699
  H 1.844796 -2.157245 -5.326734
  H 3.347256 -3.061547 -5.212984
 19
 -0.121773
  H 1.477285 0.412678 0.463336
  C 2.532472 0.230891 0.352064
  H 3.183484 0.655975 1.098933
  C 3.016479 -0.444046 -0.723722
  C 4.410313 -0.517790 -0.957579
  C 5.076777 -0.923596 -2.094221
  C 4.600802 -1.399741 -3.380484
  C 3.126924 -1.561366 -3.692870
  C 2.908737 -2.008570 -5.137044
  H 6.165108 -0.864819 -2.039440
  H 2.324280 -0.888506 -1.415112
  H 5.032053 -0.127844 -0.158800
  H 5.129410 -2.354237 -3.574838
  H 5.067474 -0.757383 -4.142198
  H 2.604122 -0.613156 -3.540365
  H 2.682126 -2.307875 -3.026790
  H 3.302024 -1.279029 -5.841410
  H 1.849563 -2.125218 -5.337817
  H 3.389884 -2.962181 -5.331308
 19
 1.033725
  H 1.434786 0.458411 0.208121
  C 2.503516 0.317186 0.158943
  H 3.106039 1.013547 0.722540
  C 3.049412 -0.616773 -0.660477
  C 4.439722 -0.581200 -0.929569
  C 5.106996 -1.027020 -2.043406
  C 4.621301 -1.483001 -3.336126
  C 3.139612 -1.606858 -3.629301
  C 2.882526 -1.832382 -5.117887
  H 6.186098 -0.977088 -1.985579
  H 2.422000 -1.339770 -1.143523
  H 5.041598 -0.053736 -0.191809
  H 5.123494 -2.443148 -3.542309
  H 5.096107 -0.838776 -4.096514
  H 2.611925 -0.702304 -3.316158
  H 2.721346 -2.450430 -3.075484
  H 3.297070 -1.019615 -5.716256
  H 1.814973 -1.883041 -5.312002
  H 3.323455 -2.764506 -5.459622
 19
 6.737116
  H 1.536292 0.665098 -0.210531
  C 2.539131 0.325398 -0.007661
  H 3.108398 0.958554 0.651750
  C 3.055498 -0.779990 -0.587800
  C 4.446570 -0.666347 -0.859620
  C 5.103037 -1.012514 -2.009004
  C 4.611804 -1.403999 -3.329376
  C 3.124630 -1.535350 -3.606027
  C 2.869716 -1.832343 -5.081671
  H 6.184101 -0.963227 -1.956558
  H 2.440566 -1.545690 -1.031767
  H 5.058497 -0.229416 -0.078277
  H 5.120060 -2.348230 -3.585951
  H 5.054738 -0.699706 -4.051207
  H 2.605781 -0.613130 -3.338292
  H 2.705166 -2.353497 -3.019223
  H 3.259041 -1.035998 -5.718786
  H 1.801794 -1.918846 -5.271358
  H 3.339154 -2.764510 -5.378265
 19
 16.734120
  H 1.697754 0.749761 -0.610606
  C 2.609608 0.323333 -0.209277
  H 3.100489 0.948458 0.520965
  C 3.041517 -0.914798 -0.539765
  C 4.437040 -0.710467 -0.805079
  C 5.095607 -1.001469 -1.969039
  C 4.603082 -1.375879 -3.297149
  C 3.111817 -1.520690 -3.557915
  C 2.849851 -1.802066 -5.035763
  H 6.175414 -0.913142 -1.924005
  H 2.439199 -1.695631 -0.966376
  H 5.056376 -0.381726 0.020347
  H 5.116071 -2.307313 -3.577067
  H 5.022859 -0.646104 -4.005754
  H 2.589095 -0.603564 -3.279311
  H 2.705204 -2.347376 -2.977753
  H 3.208053 -0.986826 -5.659993
  H 1.784333 -1.917958 -5.216106
  H 3.345263 -2.716952 -5.352253
 19
 29.252199
  H 2.006395 0.801942 -1.015023
  C 2.752959 0.301946 -0.400574
  H 3.148145 0.931795 0.382217
  C 2.954374 -1.044282 -0.486083
  C 4.347030 -0.735614 -0.725474
  C 5.041066 -1.019253 -1.881681
  C 4.584175 -1.368580 -3.230650
  C 3.097161 -1.470588 -3.544132
  C 2.884947 -1.743888 -5.031380
  H 6.119380 -0.966137 -1.793355
  H 2.337555 -1.811828 -0.908674
  H 4.954418 -0.469558 0.130219
  H 5.079469 -2.310017 -3.506930
  H 5.045268 -0.640297 -3.914122
  H 2.590010 -0.540349 -3.287247
  H 2.646610 -2.286742 -2.981486
  H 3.291372 -0.937808 -5.638308
  H 1.824380 -1.828849 -5.254112
  H 3.366306 -2.672127 -5.330179
 19
 30.897993
  H 2.333303 0.737867 -1.327554
  C 2.898690 0.248640 -0.538153
  H 3.147493 0.919926 0.271553
  C 2.892168 -1.139855 -0.430790
  C 4.270378 -0.698529 -0.678587
  C 4.995820 -0.975904 -1.843311
  C 4.560519 -1.317992 -3.191704
  C 3.080120 -1.438486 -3.532664
  C 2.902532 -1.722757 -5.022846
  H 6.072514 -0.931763 -1.733633
  H 2.288727 -1.912783 -0.852966
  H 4.873387 -0.474729 0.193626
  H 5.073716 -2.250030 -3.469991
  H 5.027145 -0.579142 -3.860779
  H 2.553879 -0.515889 -3.293201
  H 2.629991 -2.257647 -2.973206
  H 3.314184 -0.916536 -5.625540
  H 1.847405 -1.818789 -5.267440
  H 3.398002 -2.648386 -5.306112
 19
 30.389492
  H 2.284523 0.554879 -1.401424
  C 2.866872 0.151858 -0.577388
  H 2.985851 0.859897 0.231395
  C 2.975923 -1.229901 -0.402032
  C 4.295538 -0.634242 -0.689356
  C 5.011861 -0.912760 -1.863568
  C 4.561503 -1.293464 -3.194480
  C 3.079441 -1.298455 -3.550657
  C 2.887046 -1.721761 -5.004344
  H 6.090157 -0.873068 -1.763898
  H 2.469566 -2.102711 -0.748770
  H 4.903532 -0.365491 0.166867
  H 4.990644 -2.286475 -3.398725
  H 5.100603 -0.651127 -3.905771
  H 2.659279 -0.300957 -3.422640
  H 2.531869 -1.992408 -2.914340
  H 3.394531 -1.036979 -5.680269
  H 1.831047 -1.724938 -5.261392
  H 3.277166 -2.722498 -5.175809
 19
 30.133780
  H 2.274581 0.425978 -1.451351
  C 2.842200 0.058084 -0.602388
  H 2.827583 0.746280 0.233027
  C 3.040483 -1.316141 -0.413062
  C 4.302060 -0.587189 -0.693357
  C 5.019892 -0.865138 -1.871192
  C 4.562144 -1.271554 -3.190295
  C 3.090086 -1.163760 -3.575748
  C 2.865603 -1.727206 -4.975376
  H 6.099199 -0.834967 -1.770227
  H 2.635711 -2.253035 -0.722185
  H 4.909831 -0.308898 0.160365
  H 4.894691 -2.313965 -3.320085
  H 5.172284 -0.734234 -3.928214
  H 2.785266 -0.115819 -3.570632
  H 2.461507 -1.712457 -2.874260
  H 3.449612 -1.182515 -5.713675
  H 1.817809 -1.646806 -5.252703
  H 3.146410 -2.777258 -5.025245
 19
 30.117703
  H 2.267632 0.426731 -1.445999
  C 2.838860 0.058778 -0.599057
  H 2.827827 0.747200 0.235861
  C 3.039511 -1.315069 -0.412172
  C 4.304334 -0.588248 -0.693552
  C 5.020673 -0.865616 -1.871850
  C 4.562453 -1.271565 -3.190922
  C 3.090903 -1.163581 -3.576200
  C 2.866248 -1.728110 -4.976360
  H 6.099891 -0.835101 -1.771866
  H 2.633316 -2.251093 -0.722063
  H 4.912601 -0.309205 0.158486
  H 4.895407 -2.315088 -3.321368
  H 5.172469 -0.733781 -3.928676
  H 2.786718 -0.116334 -3.571466
  H 2.462597 -1.711296 -2.874961
  H 3.451200 -1.184560 -5.714845
  H 1.818538 -1.646827 -5.254143
  H 3.145773 -2.777839 -5.025449
