 22
 0.000000
  C 0.988872 0.155505 0.445765
  C 2.459854 0.138932 0.390513
  C 3.240623 0.604024 1.547552
  H 2.608771 0.930394 2.365613
  C 3.055332 -0.329023 -0.777050
  C 4.437128 -0.415764 -0.988563
  C 5.091263 -0.868549 -2.110423
  C 4.625570 -1.387123 -3.402203
  C 3.144609 -1.511218 -3.719083
  H 3.028357 -1.913832 -4.721469
  H 6.173304 -0.849336 -2.056640
  H 0.608969 0.526032 1.392384
  H 0.596582 -0.848676 0.275566
  H 0.589080 0.770646 -0.362367
  H 3.895142 1.427001 1.256035
  H 3.898545 -0.190115 1.903965
  H 2.388687 -0.644707 -1.561722
  H 5.074716 -0.089328 -0.177782
  H 5.102423 -2.369358 -3.525391
  H 5.106149 -0.765508 -4.170364
  H 2.653324 -0.541799 -3.691636
  H 2.649749 -2.190254 -3.029187
 22
 0.249318
  C 0.995279 0.320562 0.403614
  C 2.454201 0.130438 0.388528
  C 3.235646 0.408959 1.601718
  H 2.601882 0.712977 2.427820
  C 3.041214 -0.312030 -0.793852
  C 4.421550 -0.331522 -1.029985
  C 5.082280 -0.729436 -2.170178
  C 4.628294 -1.346174 -3.417353
  C 3.162721 -1.659779 -3.652146
  H 3.056262 -2.151421 -4.614665
  H 6.156017 -0.582537 -2.153628
  H 0.645757 0.786622 1.323679
  H 0.492748 -0.640140 0.284573
  H 0.686415 0.920827 -0.455005
  H 3.964783 1.197845 1.413541
  H 3.811700 -0.467635 1.897030
  H 2.372566 -0.605640 -1.584475
  H 5.051943 0.057085 -0.241329
  H 5.217363 -2.268337 -3.528698
  H 5.002684 -0.713616 -4.234978
  H 2.564652 -0.754572 -3.681844
  H 2.776452 -2.331927 -2.892616
 22
 1.735765
  C 1.026603 0.473134 0.360913
  C 2.452210 0.109316 0.399672
  C 3.210658 0.242837 1.651669
  H 2.607306 0.665221 2.449675
  C 3.038114 -0.335633 -0.782646
  C 4.404015 -0.253113 -1.066650
  C 5.051788 -0.592161 -2.233753
  C 4.612650 -1.308390 -3.436224
  C 3.189343 -1.823794 -3.561333
  H 3.100524 -2.402197 -4.477906
  H 6.096878 -0.309547 -2.280891
  H 0.686580 0.912182 1.293527
  H 0.411056 -0.397340 0.134282
  H 0.861981 1.174882 -0.459473
  H 4.096832 0.861299 1.509863
  H 3.584033 -0.734611 1.966873
  H 2.365198 -0.638824 -1.568926
  H 5.027022 0.206567 -0.312218
  H 5.311197 -2.150936 -3.552109
  H 4.850817 -0.667642 -4.296924
  H 2.476072 -1.006798 -3.624156
  H 2.931581 -2.474459 -2.729967
 22
 3.842126
  C 1.071793 0.634655 0.338886
  C 2.447611 0.116232 0.395374
  C 3.183342 0.096915 1.664916
  H 2.637132 0.584810 2.464878
  C 3.024589 -0.323894 -0.797303
  C 4.369959 -0.151311 -1.127192
  C 5.011582 -0.480604 -2.298027
  C 4.604142 -1.290346 -3.450966
  C 3.237789 -1.953216 -3.487014
  H 3.165589 -2.567834 -4.380905
  H 6.019465 -0.095862 -2.397688
  H 0.751384 1.053919 1.286011
  H 0.365871 -0.139208 0.033016
  H 1.035628 1.402054 -0.438414
  H 4.170826 0.546162 1.561802
  H 3.373490 -0.939067 1.950949
  H 2.350633 -0.706865 -1.549183
  H 4.968018 0.403977 -0.415766
  H 5.380971 -2.059607 -3.562614
  H 4.732198 -0.666329 -4.345182
  H 2.440275 -1.216630 -3.538562
  H 3.089733 -2.597912 -2.625055
 22
 7.513610
  C 1.140262 0.809861 0.333853
  C 2.438592 0.124948 0.395571
  C 3.152675 -0.026327 1.666805
  H 2.671482 0.506379 2.481408
  C 2.995750 -0.341914 -0.804011
  C 4.308507 -0.076637 -1.185332
  C 4.956559 -0.400963 -2.352784
  C 4.593143 -1.292654 -3.463895
  C 3.289604 -2.074526 -3.421418
  H 3.237323 -2.724973 -4.292315
  H 5.921607 0.071011 -2.494907
  H 0.852559 1.230211 1.291019
  H 0.345484 0.145173 -0.017532
  H 1.228373 1.600413 -0.411843
  H 4.196479 0.282819 1.576450
  H 3.199310 -1.090132 1.917289
  H 2.329022 -0.836101 -1.496289
  H 4.869327 0.559314 -0.511284
  H 5.432072 -1.992603 -3.575938
  H 4.627997 -0.693287 -4.383442
  H 2.427980 -1.411762 -3.462858
  H 3.234598 -2.701486 -2.531302
 22
 12.838738
  C 1.246658 0.973688 0.318849
  C 2.450233 0.140557 0.405829
  C 3.103782 -0.130990 1.688441
  H 2.649004 0.405106 2.514263
  C 2.999878 -0.370235 -0.792189
  C 4.255105 -0.005422 -1.247513
  C 4.901654 -0.351638 -2.412329
  C 4.565884 -1.307722 -3.480024
  C 3.314073 -2.162857 -3.368186
  H 3.266821 -2.834853 -4.222249
  H 5.826715 0.177308 -2.602902
  H 1.005087 1.445200 1.264503
  H 0.381011 0.401053 -0.020477
  H 1.429655 1.727776 -0.448204
  H 4.173637 0.082781 1.637991
  H 3.050183 -1.204236 1.883540
  H 2.352700 -0.979027 -1.408256
  H 4.775855 0.719905 -0.633540
  H 5.440410 -1.960337 -3.590612
  H 4.533753 -0.742736 -4.418762
  H 2.415109 -1.552365 -3.388551
  H 3.333214 -2.771231 -2.468137
 22
 19.200979
  C 1.381746 1.109880 0.288458
  C 2.476664 0.151556 0.423848
  C 3.044228 -0.200314 1.727297
  H 2.613047 0.370266 2.546229
  C 3.034930 -0.404326 -0.766946
  C 4.222066 0.044752 -1.306330
  C 4.847820 -0.315936 -2.482254
  C 4.516973 -1.314664 -3.508717
  C 3.310170 -2.222107 -3.321427
  H 3.253567 -2.911866 -4.159341
  H 5.739827 0.244986 -2.721234
  H 1.145865 1.607687 1.222765
  H 0.476263 0.622367 -0.083100
  H 1.659541 1.828588 -0.481527
  H 4.132928 -0.096829 1.719011
  H 2.881295 -1.267973 1.901911
  H 2.432455 -1.137792 -1.287296
  H 4.724269 0.819762 -0.741631
  H 5.413211 -1.929376 -3.642789
  H 4.415039 -0.776184 -4.454803
  H 2.384913 -1.650841 -3.309032
  H 3.400477 -2.813945 -2.412258
 22
 25.292341
  C 1.538039 1.230796 0.266108
  C 2.515861 0.169366 0.442067
  C 2.961243 -0.266540 1.753341
  H 2.533434 0.317078 2.562693
  C 3.098535 -0.413137 -0.743994
  C 4.203054 0.118162 -1.370279
  C 4.797001 -0.263654 -2.558568
  C 4.458908 -1.308189 -3.547786
  C 3.292897 -2.251807 -3.287131
  H 3.223080 -2.962085 -4.108468
  H 5.664062 0.316196 -2.847339
  H 1.301306 1.748416 1.190529
  H 0.613567 0.806698 -0.141392
  H 1.874580 1.920330 -0.511693
  H 4.053285 -0.256290 1.799065
  H 2.708762 -1.322613 1.895448
  H 2.563874 -1.246190 -1.175718
  H 4.685185 0.943642 -0.860565
  H 5.369188 -1.900598 -3.705900
  H 4.296624 -0.795903 -4.505562
  H 2.350840 -1.711612 -3.243020
  H 3.445582 -2.821290 -2.374183
 22
 17.969165
  C 1.690136 1.333723 0.265801
  C 2.563551 0.173709 0.431443
  C 2.850001 -0.380805 1.753915
  H 2.402654 0.200967 2.553070
  C 3.165045 -0.399346 -0.725517
  C 4.175090 0.211538 -1.454808
  C 4.736432 -0.203939 -2.640524
  C 4.411692 -1.307575 -3.563971
  C 3.307202 -2.296900 -3.220405
  H 3.237435 -3.036775 -4.015037
  H 5.566199 0.396428 -2.992319
  H 1.474059 1.840361 1.201466
  H 0.745686 0.974193 -0.156158
  H 2.063105 2.023475 -0.492619
  H 3.929959 -0.454262 1.890094
  H 2.498987 -1.414989 1.826077
  H 2.760834 -1.345914 -1.054216
  H 4.607734 1.099227 -1.011799
  H 5.343846 -1.859782 -3.738964
  H 4.187833 -0.841677 -4.533017
  H 2.342026 -1.802067 -3.148222
  H 3.528439 -2.830103 -2.299723
 22
 11.048066
  C 1.841297 1.384884 0.256352
  C 2.613000 0.154481 0.440350
  C 2.725564 -0.473099 1.762189
  H 2.254965 0.121020 2.538160
  C 3.248028 -0.421786 -0.674176
  C 4.158148 0.249012 -1.492479
  C 4.674258 -0.168454 -2.693813
  C 4.346120 -1.303331 -3.573429
  C 3.321260 -2.341630 -3.142435
  H 3.224708 -3.088731 -3.927216
  H 5.447386 0.465538 -3.111033
  H 1.649037 1.911575 1.185707
  H 0.874816 1.094706 -0.169649
  H 2.275979 2.033292 -0.503201
  H 3.776606 -0.638370 1.999484
  H 2.278766 -1.470736 1.760157
  H 2.994040 -1.446989 -0.899819
  H 4.546995 1.181484 -1.103731
  H 5.291741 -1.807596 -3.809032
  H 4.033036 -0.863967 -4.530119
  H 2.342756 -1.892408 -2.992399
  H 3.638651 -2.859600 -2.241321
 22
 6.196575
  C 2.032736 1.451596 0.251258
  C 2.688073 0.154665 0.445374
  C 2.599985 -0.541047 1.737391
  H 2.113012 0.065954 2.493286
  C 3.351566 -0.430949 -0.632309
  C 4.169566 0.269491 -1.528805
  C 4.623492 -0.145223 -2.755122
  C 4.260823 -1.294670 -3.597536
  C 3.307366 -2.358390 -3.077476
  H 3.151189 -3.104072 -3.853724
  H 5.340686 0.510519 -3.234331
  H 1.886916 1.999897 1.176812
  H 1.039785 1.250850 -0.165130
  H 2.532734 2.041733 -0.514026
  H 3.596409 -0.825860 2.075121
  H 2.051541 -1.479947 1.633121
  H 3.241410 -1.497830 -0.758002
  H 4.532282 1.232615 -1.191822
  H 5.198470 -1.769367 -3.913788
  H 3.856154 -0.870736 -4.527011
  H 2.339748 -1.931785 -2.825701
  H 3.721799 -2.873250 -2.214874
 22
 6.792499
  C 2.128064 1.365702 0.084471
  C 2.746218 0.083348 0.443437
  C 2.493688 -0.542055 1.750003
  H 1.988183 0.134954 2.430620
  C 3.536743 -0.531019 -0.518402
  C 4.305275 0.207186 -1.446627
  C 4.624851 -0.111040 -2.735468
  C 4.138130 -1.194103 -3.603852
  C 3.279153 -2.298292 -3.011144
  H 3.005266 -2.998816 -3.796530
  H 5.271157 0.587266 -3.253090
  H 1.926820 2.004634 0.938037
  H 1.167531 1.151604 -0.394920
  H 2.714813 1.846625 -0.698292
  H 3.424417 -0.893334 2.193157
  H 1.872565 -1.432714 1.625843
  H 3.552762 -1.609992 -0.558595
  H 4.744218 1.119067 -1.058933
  H 5.020151 -1.637016 -4.084004
  H 3.600159 -0.715644 -4.433180
  H 2.361870 -1.897239 -2.586753
  H 3.821686 -2.854169 -2.251815
