9

C 1.047195 -0.110187 -0.038601
C 2.543128 -0.135676 -0.038755
C 3.259315 -1.264963 -0.045525
H 4.329168461031102 -1.2826706555576204 -0.045629184567264836
H 0.685395 0.916553 -0.032449
H 0.651444 -0.610947 0.844708
H 0.651443 -0.600329 -0.927846
H 3.044049 0.823296 -0.033011
H 2.749657 -2.220545 -0.051251
