 9
 0.000000
  C 1.048004 -0.110367 -0.038602
  C 2.546450 -0.143406 -0.038801
  C 3.251814 -1.259458 -0.045492
  H 4.326055 -1.274049 -0.045578
  H 0.685836 0.916909 -0.032447
  H 0.651694 -0.612306 0.842515
  H 0.651693 -0.601714 -0.925669
  H 3.050541 0.813602 -0.033069
  H 2.748708 -2.214679 -0.051216
 9
 -0.800270
  C 1.058486 -0.104640 -0.067417
  C 2.551138 -0.157889 -0.123799
  C 3.263554 -1.254679 0.051762
  H 4.337930 -1.256822 -0.017974
  H 0.718239 0.864526 0.290189
  H 0.665164 -0.883385 0.581966
  H 0.644950 -0.255130 -1.065532
  H 3.046294 0.777864 -0.348942
  H 2.800926 -2.200097 0.285170
 9
 -1.070019
  C 1.060609 -0.124707 -0.108477
  C 2.547256 -0.182691 -0.218155
  C 3.268363 -1.229125 0.138198
  H 4.344106 -1.230319 0.107644
  H 0.766759 0.700284 0.535431
  H 0.665870 -1.051677 0.300590
  H 0.612387 0.039790 -1.087781
  H 3.016886 0.688949 -0.657370
  H 2.793138 -2.079006 0.596517
 9
 14.159142
  C 1.055324 -0.167664 -0.150616
  C 2.552007 -0.158042 -0.185876
  C 3.210724 -1.283581 0.091633
  H 4.274285 -1.334716 -0.012890
  H 0.684829 0.515664 0.604838
  H 0.702895 -1.160478 0.103491
  H 0.655612 0.115964 -1.109937
  H 3.011188 0.668007 -0.721399
  H 2.814497 -1.680217 1.012400
 9
 68.499670
  C 1.067490 -0.250688 -0.180575
  C 2.553926 -0.231652 -0.159340
  C 3.185666 -1.464132 0.060507
  H 4.273748 -1.454131 -0.066462
  H 0.672627 0.402643 0.579161
  H 0.720215 -1.247421 0.035755
  H 0.692428 0.062353 -1.152801
  H 3.027170 0.645103 -0.626615
  H 2.865063 -1.034225 1.121485
 9
 74.797699
  C 1.042093 -0.323895 -0.176763
  C 2.556116 -0.321497 -0.032711
  C 3.208254 -1.604703 0.075797
  H 4.293626 -1.510183 -0.110217
  H 0.567953 0.331370 0.552754
  H 0.661398 -1.332654 -0.028733
  H 0.768239 0.012712 -1.170242
  H 3.029555 0.511420 -0.571780
  H 2.822840 -0.260265 1.093462
 9
 73.138005
  C 1.048526 -0.329245 -0.171104
  C 2.552065 -0.340784 0.064034
  C 3.231363 -1.598971 -0.161926
  H 4.317864 -1.427812 -0.267100
  H 0.585583 0.522273 0.322763
  H 0.603292 -1.246734 0.202424
  H 0.845833 -0.258805 -1.237990
  H 3.017209 0.595625 -0.278844
  H 2.748340 -0.413241 1.159311
