 29
 0.000000
  C 0.993152 0.133705 0.383584
  C 2.470633 0.139679 0.398055
  C 3.238583 0.612304 1.574521
  C 2.446186 1.098299 2.784705
  C 3.383230 1.547010 3.901648
  C 3.090484 -0.323705 -0.755754
  C 4.466428 -0.411212 -0.973960
  C 5.129639 -0.865618 -2.106636
  C 4.617976 -1.386230 -3.404105
  C 3.125966 -1.499655 -3.687421
  H 2.964317 -1.897286 -4.678424
  O 6.451990 -0.868267 -2.113517
  H 0.546851 0.501744 1.300109
  H 0.628377 -0.879920 0.213497
  H 0.628063 0.748031 -0.440278
  H 3.895029 1.427090 1.248508
  H 3.895233 -0.201459 1.902635
  H 1.807989 0.298549 3.165175
  H 1.807831 1.938946 2.506335
  H 4.019127 0.728013 4.230904
  H 2.808501 1.890943 4.758178
  H 4.018939 2.366346 3.572859
  H 2.431830 -0.640995 -1.545744
  H 5.092124 -0.081520 -0.152653
  H 5.069555 -2.376313 -3.533122
  H 5.069851 -0.760182 -4.181757
  H 2.652514 -0.520726 -3.634456
  H 2.652156 -2.170245 -2.972521
  H 6.839852 -0.535200 -1.282764
 29
 -0.132748
  C 0.953591 -0.012881 0.469594
  C 2.428707 0.024523 0.447235
  C 3.214908 0.596909 1.565658
  C 2.445702 1.115315 2.777790
  C 3.409890 1.653155 3.831162
  C 3.046163 -0.467722 -0.698324
  C 4.422805 -0.515587 -0.912734
  C 5.103836 -0.885885 -2.067940
  C 4.608927 -1.420571 -3.368059
  C 3.152810 -1.253622 -3.777152
  H 3.037320 -1.611791 -4.796815
  O 6.424121 -0.864687 -2.060331
  H 0.527665 0.360326 1.392506
  H 0.604040 -1.032715 0.303501
  H 0.559213 0.576281 -0.360151
  H 3.824147 1.418653 1.172385
  H 3.925201 -0.162711 1.911792
  H 1.855058 0.312632 3.222505
  H 1.768938 1.918402 2.481643
  H 4.088241 0.874449 4.172712
  H 2.860396 2.020744 4.694198
  H 4.001023 2.475757 3.434863
  H 2.391812 -0.833279 -1.470348
  H 5.051800 -0.195033 -0.091176
  H 4.858540 -2.488028 -3.370264
  H 5.250277 -0.972403 -4.133403
  H 2.855006 -0.209047 -3.752531
  H 2.487294 -1.841070 -3.152963
  H 6.822568 -0.556288 -1.224907
 29
 3.137155
  C 0.951514 -0.236244 0.574823
  C 2.422895 -0.144563 0.511248
  C 3.206244 0.585280 1.535871
  C 2.446328 1.161326 2.727492
  C 3.409668 1.848437 3.690650
  C 3.039368 -0.707233 -0.599795
  C 4.416861 -0.739235 -0.827809
  C 5.081892 -0.916238 -2.034953
  C 4.589499 -1.339376 -3.378292
  C 3.203816 -0.903611 -3.839831
  H 3.068790 -1.206584 -4.874865
  O 6.394470 -1.072642 -1.988255
  H 0.535885 0.166315 1.490380
  H 0.634625 -1.273042 0.458001
  H 0.517176 0.304671 -0.268214
  H 3.739823 1.405411 1.043029
  H 3.982482 -0.087002 1.918933
  H 1.927675 0.364468 3.263060
  H 1.708051 1.890662 2.391681
  H 4.150030 1.146731 4.067901
  H 2.868676 2.254220 4.541626
  H 3.930491 2.668949 3.202143
  H 2.391615 -1.155682 -1.334827
  H 5.051370 -0.497605 0.016070
  H 4.659996 -2.431770 -3.398595
  H 5.333017 -0.973461 -4.092897
  H 3.097590 0.176049 -3.787601
  H 2.413113 -1.367489 -3.262565
  H 6.799952 -0.902338 -1.117994
 29
 12.245970
  C 0.981589 -0.482044 0.674158
  C 2.446203 -0.320863 0.575905
  C 3.197356 0.569646 1.484676
  C 2.429569 1.217273 2.629570
  C 3.369336 2.057779 3.487736
  C 3.071756 -0.959129 -0.478102
  C 4.449091 -0.970815 -0.735646
  C 5.060546 -0.956273 -1.982451
  C 4.533319 -1.233471 -3.354705
  C 3.279998 -0.482620 -3.797037
  H 3.054403 -0.742142 -4.829028
  O 6.327927 -1.384821 -1.975498
  H 0.561971 -0.022505 1.558417
  H 0.715067 -1.535973 0.644290
  H 0.506384 -0.027357 -0.198228
  H 3.655680 1.366365 0.889437
  H 4.033144 0.000983 1.905172
  H 1.973310 0.451311 3.258553
  H 1.639683 1.862247 2.240382
  H 4.157324 1.442039 3.919862
  H 2.822090 2.522200 4.305172
  H 3.831137 2.847938 2.901426
  H 2.439105 -1.498178 -1.167414
  H 5.103104 -0.826831 0.120404
  H 4.370422 -2.314704 -3.408587
  H 5.350615 -1.010916 -4.041235
  H 3.434020 0.591464 -3.746750
  H 2.416151 -0.740708 -3.193612
  H 6.756335 -1.410965 -1.099251
 29
 39.922046
  C 0.971070 -0.501067 0.808982
  C 2.435904 -0.338029 0.680386
  C 3.197057 0.590864 1.546447
  C 2.450123 1.244787 2.706733
  C 3.377293 2.189341 3.465742
  C 3.024852 -1.011782 -0.365984
  C 4.397218 -1.012099 -0.695976
  C 4.874075 -0.889877 -1.995835
  C 4.587518 -1.220134 -3.425487
  C 3.400806 -0.492228 -4.059632
  H 3.336689 -0.743468 -5.113228
  O 6.089100 -1.624638 -1.950046
  H 0.577355 -0.083516 1.730966
  H 0.690693 -1.550526 0.718944
  H 0.475925 0.024294 -0.013505
  H 3.617809 1.385466 0.927052
  H 4.057989 0.043883 1.956871
  H 2.071571 0.486504 3.395590
  H 1.607773 1.824864 2.327107
  H 4.238138 1.651171 3.863599
  H 2.853037 2.642645 4.303333
  H 3.735293 2.989615 2.823619
  H 2.364005 -1.492776 -1.072145
  H 5.097021 -0.873769 0.116956
  H 4.492117 -2.305120 -3.516106
  H 5.495288 -0.947319 -3.971038
  H 3.508896 0.584314 -3.966219
  H 2.466907 -0.784987 -3.583439
  H 6.462155 -1.794817 -1.063214
 29
 68.381800
  C 0.921264 -0.459969 0.940046
  C 2.372442 -0.277371 0.724592
  C 3.170126 0.648584 1.556360
  C 2.477831 1.274843 2.761765
  C 3.445186 2.164787 3.520633
  C 2.941500 -0.980588 -0.314709
  C 4.298382 -0.870926 -0.715934
  C 4.607393 -0.897524 -2.056011
  C 4.682268 -1.165571 -3.501019
  C 3.501878 -0.645163 -4.317697
  H 3.704454 -0.763714 -5.369324
  O 5.867018 -1.784830 -1.840536
  H 0.579367 -0.010546 1.864440
  H 0.672309 -1.519669 0.938737
  H 0.374373 -0.003049 0.112010
  H 3.544322 1.460028 0.925928
  H 4.047516 0.103887 1.919472
  H 2.140013 0.485061 3.437717
  H 1.614647 1.860305 2.454424
  H 4.311727 1.596415 3.859953
  H 2.961695 2.589174 4.392108
  H 3.793524 2.980416 2.896899
  H 2.335841 -1.682591 -0.860787
  H 5.030492 -0.565680 0.013297
  H 4.832113 -2.223605 -3.663751
  H 5.596002 -0.656725 -3.832043
  H 3.321211 0.404154 -4.120246
  H 2.601807 -1.198222 -4.091363
  H 6.155018 -1.986559 -0.939606
 29
 93.129848
  C 0.979415 -0.589894 0.888313
  C 2.420587 -0.368332 0.684160
  C 3.175280 0.609048 1.504469
  C 2.457172 1.262233 2.670504
  C 3.403515 2.194960 3.385291
  C 3.071200 -1.048806 -0.304069
  C 4.403454 -0.827025 -0.696598
  C 4.549465 -0.861333 -2.004953
  C 4.593045 -1.059835 -3.386008
  C 3.394218 -0.472318 -4.142642
  H 3.532626 -0.556977 -5.190109
  O 6.000314 -1.962119 -1.806229
  H 0.616115 -0.121327 1.782615
  H 0.770747 -1.656642 0.920766
  H 0.439712 -0.169609 0.036804
  H 3.530016 1.411111 0.851074
  H 4.059077 0.107914 1.900706
  H 2.114273 0.501849 3.369754
  H 1.595118 1.824987 2.325296
  H 4.266418 1.666611 3.764927
  H 2.902993 2.655985 4.227545
  H 3.748848 2.981395 2.716100
  H 2.557539 -1.781847 -0.879229
  H 5.124394 -0.452495 0.000001
  H 4.737573 -2.099425 -3.626892
  H 5.481519 -0.550429 -3.710253
  H 3.245781 0.572687 -3.902431
  H 2.495442 -1.003925 -3.906480
  H 6.335839 -2.226644 -0.922067
 29
 111.635475
  C 1.127824 -0.762890 0.817433
  C 2.554485 -0.402929 0.626376
  C 3.214531 0.643969 1.452421
  C 2.413652 1.222910 2.616337
  C 3.256641 2.238626 3.380457
  C 3.244121 -1.071259 -0.340555
  C 4.632725 -0.707439 -0.684996
  C 4.505574 -0.739054 -1.974445
  C 4.453148 -0.914897 -3.357900
  C 3.200149 -0.367327 -4.075842
  H 3.335893 -0.451381 -5.154847
  O 6.247419 -2.163382 -1.653893
  H 0.709423 -0.324018 1.714874
  H 0.998071 -1.842091 0.854362
  H 0.554092 -0.406518 -0.039382
  H 3.510741 1.475161 0.803777
  H 4.142450 0.225351 1.856770
  H 2.121647 0.427197 3.304907
  H 1.511641 1.715076 2.250455
  H 4.156390 1.774319 3.780732
  H 2.692397 2.648441 4.214470
  H 3.552731 3.063591 2.736473
  H 2.761821 -1.871947 -0.879931
  H 5.346656 -0.306882 0.013913
  H 4.635925 -1.969062 -3.607268
  H 5.344489 -0.358754 -3.712953
  H 3.026267 0.673679 -3.819728
  H 2.322484 -0.948866 -3.793309
  H 6.671599 -2.488230 -0.852918
 29
 100.191438
  C 1.270642 -0.860109 0.660788
  C 2.684620 -0.456263 0.508572
  C 3.301696 0.595546 1.352644
  C 2.458221 1.149286 2.501230
  C 3.248849 2.198236 3.277544
  C 3.437773 -1.130866 -0.441602
  C 4.875261 -0.807417 -0.690898
  C 4.468045 -0.645313 -1.930789
  C 4.292264 -0.781275 -3.315188
  C 2.971959 -0.250204 -3.888870
  H 2.997056 -0.312611 -4.971410
  O 6.113532 -2.044415 -1.101507
  H 0.816599 -0.444973 1.551700
  H 1.169371 -1.943232 0.681151
  H 0.708274 -0.510695 -0.205519
  H 3.581918 1.434341 0.705955
  H 4.231929 0.199348 1.771998
  H 2.165850 0.349338 3.183264
  H 1.554430 1.618499 2.110578
  H 4.151988 1.767784 3.703709
  H 2.651368 2.595759 4.093882
  H 3.533747 3.027394 2.633630
  H 2.979328 -1.947565 -0.981072
  H 5.611920 -0.375269 -0.047381
  H 4.448009 -1.829843 -3.606664
  H 5.137518 -0.217428 -3.739868
  H 2.810526 0.782275 -3.595948
  H 2.138025 -0.848272 -3.532859
  H 6.470442 -2.315301 -0.248270
 29
 62.390311
  C 1.402054 -0.946277 0.527944
  C 2.793115 -0.476281 0.397583
  C 3.354361 0.581702 1.255640
  C 2.483560 1.101722 2.398045
  C 3.229404 2.176218 3.180863
  C 3.605682 -1.125359 -0.555570
  C 5.105221 -0.865914 -0.665446
  C 4.437667 -0.459259 -1.810582
  C 4.172157 -0.640523 -3.202571
  C 2.762923 -0.260212 -3.637494
  H 2.682336 -0.353450 -4.713549
  O 6.028921 -1.940567 -0.945349
  H 0.905189 -0.546826 1.406217
  H 1.350524 -2.033299 0.546145
  H 0.841161 -0.630966 -0.355350
  H 3.629305 1.426843 0.616460
  H 4.297531 0.221111 1.681217
  H 2.223250 0.289981 3.076189
  H 1.561521 1.535683 2.006095
  H 4.147904 1.777889 3.608121
  H 2.614526 2.544803 3.997776
  H 3.484145 3.017765 2.544215
  H 3.173088 -1.978138 -1.070351
  H 5.746635 -0.309562 0.007276
  H 4.404054 -1.674210 -3.503403
  H 4.907928 -0.011915 -3.719861
  H 2.543134 0.765581 -3.365262
  H 2.026164 -0.913177 -3.185908
  H 6.407708 -2.295417 -0.130380
 29
 46.455450
  C 1.340163 -0.845340 0.513103
  C 2.741701 -0.407896 0.353448
  C 3.344850 0.612869 1.242018
  C 2.494746 1.126127 2.405624
  C 3.276573 2.156173 3.216045
  C 3.464709 -1.013766 -0.693444
  C 5.165124 -0.914442 -0.702897
  C 4.384477 -0.383247 -1.718449
  C 4.210531 -0.548063 -3.156783
  C 2.769247 -0.425528 -3.635048
  H 2.740922 -0.469813 -4.718549
  O 6.076916 -1.889723 -0.997528
  H 0.888862 -0.484194 1.427656
  H 1.256106 -1.930219 0.474457
  H 0.756597 -0.464299 -0.328785
  H 3.632672 1.473834 0.622079
  H 4.281122 0.222240 1.657041
  H 2.217007 0.300917 3.063543
  H 1.583875 1.595967 2.032680
  H 4.186024 1.721325 3.627445
  H 2.675340 2.519792 4.045769
  H 3.551313 3.010123 2.600361
  H 2.962755 -1.842822 -1.182958
  H 5.492726 -0.311775 0.130937
  H 4.643868 -1.507962 -3.477883
  H 4.825943 0.220186 -3.637982
  H 2.340615 0.519643 -3.320894
  H 2.153525 -1.232885 -3.250516
  H 6.510060 -2.273894 -0.212488
 29
 30.980955
  C 1.122255 -0.613416 0.524758
  C 2.556575 -0.288016 0.319747
  C 3.273736 0.624007 1.252771
  C 2.499041 1.143952 2.461875
  C 3.386768 2.050596 3.309209
  C 3.123504 -0.792877 -0.821833
  C 5.295784 -0.925649 -0.744168
  C 4.311161 -0.428338 -1.584601
  C 4.276831 -0.651526 -3.051581
  C 2.908459 -0.706359 -3.708025
  H 3.031896 -0.766233 -4.783352
  O 6.271902 -1.670927 -1.212205
  H 0.741174 -0.259641 1.476723
  H 0.954267 -1.688469 0.447753
  H 0.532280 -0.151726 -0.268464
  H 3.628826 1.486611 0.679499
  H 4.169028 0.124526 1.628283
  H 2.159570 0.311943 3.079675
  H 1.628711 1.714762 2.137923
  H 4.259314 1.513233 3.672818
  H 2.837478 2.418908 4.172072
  H 3.726162 2.909488 2.734945
  H 2.496396 -1.483634 -1.372785
  H 5.472140 -0.477222 0.223988
  H 4.852919 -1.551879 -3.291464
  H 4.842331 0.177413 -3.494287
  H 2.334158 0.186028 -3.481105
  H 2.340546 -1.576317 -3.396492
  H 6.859116 -2.045060 -0.535036
 29
 12.937632
  C 1.004578 -0.452538 0.539343
  C 2.445241 -0.197094 0.308296
  C 3.237784 0.614106 1.273776
  C 2.510421 1.167484 2.499135
  C 3.478251 1.961225 3.375889
  C 2.933535 -0.604934 -0.915849
  C 5.302034 -0.907808 -0.754530
  C 4.212774 -0.527930 -1.530035
  C 4.323200 -0.733581 -3.011797
  C 3.031985 -0.929036 -3.790244
  H 3.259092 -0.963437 -4.851655
  O 6.328320 -1.515967 -1.290866
  H 0.666948 -0.133125 1.515670
  H 0.782153 -1.509902 0.413578
  H 0.418342 0.071599 -0.213118
  H 3.679385 1.455852 0.729330
  H 4.075642 0.015397 1.639422
  H 2.091086 0.352911 3.093672
  H 1.696873 1.827408 2.190547
  H 4.294099 1.332362 3.725403
  H 2.962327 2.355344 4.248205
  H 3.900792 2.801379 2.827722
  H 2.192721 -1.096086 -1.536613
  H 5.333412 -0.686766 0.301921
  H 5.008298 -1.567234 -3.203991
  H 4.829500 0.154175 -3.406062
  H 2.339102 -0.109534 -3.623647
  H 2.547695 -1.865785 -3.527939
  H 7.009605 -1.803435 -0.655851
 29
 6.547097
  C 0.921583 -0.161068 0.424814
  C 2.388613 -0.065626 0.244918
  C 3.239692 0.537466 1.300842
  C 2.546474 1.090423 2.546012
  C 3.580178 1.654710 3.517391
  C 2.864029 -0.480117 -0.988849
  C 5.325403 -0.603313 -0.798214
  C 4.154658 -0.567048 -1.549579
  C 4.316937 -0.940987 -2.996599
  C 3.066490 -1.327957 -3.771842
  H 3.341276 -1.530892 -4.803946
  O 6.441867 -0.998672 -1.356861
  H 0.587739 0.154408 1.404909
  H 0.587344 -1.183974 0.247049
  H 0.420513 0.450583 -0.326913
  H 3.823978 1.346613 0.849650
  H 3.955229 -0.218361 1.639041
  H 1.989396 0.301873 3.054138
  H 1.852399 1.886571 2.272738
  H 4.278206 0.883769 3.836099
  H 3.089578 2.048792 4.403969
  H 4.143602 2.464805 3.059642
  H 2.088622 -0.833702 -1.651323
  H 5.353068 -0.341863 0.247307
  H 5.048190 -1.750708 -3.059889
  H 4.783188 -0.084676 -3.496676
  H 2.331771 -0.527097 -3.780241
  H 2.613501 -2.229935 -3.367288
  H 7.216695 -1.004357 -0.767672
 29
 6.379278
  C 0.880127 0.067062 0.332864
  C 2.352137 0.031659 0.191684
  C 3.225776 0.534521 1.278415
  C 2.560641 1.000656 2.573104
  C 3.621073 1.433093 3.583042
  C 2.832723 -0.454411 -1.014302
  C 5.324287 -0.354728 -0.849350
  C 4.132065 -0.553212 -1.543265
  C 4.331606 -1.134038 -2.918810
  C 3.086101 -1.483192 -3.719924
  H 3.389033 -1.840703 -4.701216
  O 6.442029 -0.648830 -1.484882
  H 0.549676 0.441096 1.292943
  H 0.464937 -0.929821 0.179044
  H 0.452973 0.689922 -0.454240
  H 3.821770 1.365926 0.886215
  H 3.931994 -0.259431 1.540144
  H 1.985500 0.183873 3.013204
  H 1.890875 1.840746 2.388345
  H 4.296647 0.613881 3.816761
  H 3.149951 1.754255 4.508959
  H 4.203392 2.269828 3.202910
  H 2.062548 -0.831012 -1.671346
  H 5.433584 -0.007418 0.165759
  H 4.954130 -2.027575 -2.819428
  H 4.930706 -0.420058 -3.492493
  H 2.448758 -0.614937 -3.867207
  H 2.513880 -2.277289 -3.246515
  H 7.264574 -0.500550 -0.983373
