15

C -3.510199 0.975044 -0.136928
C -2.063363 0.600601 -0.023351
C -1.649575 -0.458408 0.64773
C -0.237069 -0.936348 0.807222
C 0.813592 -0.072209 0.114869
H 1.8123452659790633 -0.4952310502786226 0.2980199177542525
H -4.086742 0.134731 -0.525141
H -3.648181 1.834193 -0.786252
H -3.915125 1.22008 0.846535
H -1.362538 1.244738 -0.528438
H -2.38594 -1.084324 1.141583
H -0.007098 -0.999776 1.877525
H -0.188456 -1.955253 0.403735
H 0.604012 -0.042899 -0.957911
H 0.760122 0.94704 0.505161
