 19
 0.000000
  C 0.964140 0.053643 0.185045
  C 2.464296 0.060068 0.071131
  C 3.225660 -0.013075 1.367427
  H 2.561303 -0.061466 2.224939
  C 3.077719 0.127450 -1.122974
  C 2.325033 0.200663 -2.420459
  H 1.247396 0.194297 -2.307709
  C 4.528907 0.133808 -1.235600
  C 5.230944 0.197493 -2.364321
  H 6.308432 0.197374 -2.362172
  H 0.648918 -0.004987 1.224049
  H 0.537441 -0.803982 -0.334380
  H 0.537444 0.964261 -0.234601
  H 3.865751 0.861286 1.486645
  H 3.865748 -0.895289 1.387526
  H 2.607044 -0.643688 -3.050277
  H 2.607047 1.110504 -2.951296
  H 5.080868 0.081462 -0.307906
  H 4.792608 0.252907 -3.346370
 19
 12.714361
  C 0.921483 0.053284 0.191414
  C 2.408894 0.060419 0.064938
  C 3.271660 -0.020404 1.497341
  H 2.591631 -0.067903 2.339075
  C 3.082193 0.131845 -1.200854
  C 2.324514 0.204672 -2.491507
  H 1.249062 0.197120 -2.357721
  C 4.527383 0.136189 -1.277808
  C 5.251698 0.199037 -2.391674
  H 6.328590 0.197416 -2.362923
  H 0.618749 -0.005556 1.234153
  H 0.490510 -0.803350 -0.327528
  H 0.490512 0.962861 -0.227863
  H 3.901159 0.858187 1.598429
  H 3.901166 -0.904792 1.498949
  H 2.597746 -0.640747 -3.123480
  H 2.597749 1.115813 -3.024363
  H 5.054362 0.083075 -0.336487
  H 4.827497 0.254797 -3.379858
 19
 37.968055
  C 0.886984 0.053777 0.182632
  C 2.347099 0.064484 -0.007168
  C 3.360431 -0.027387 1.620871
  H 2.620389 -0.070634 2.387184
  C 3.078050 0.135047 -1.257614
  C 2.314691 0.207618 -2.543613
  H 1.242456 0.198182 -2.376324
  C 4.523486 0.136527 -1.283868
  C 5.269436 0.198535 -2.382791
  H 6.347727 0.195424 -2.327645
  H 0.633069 -0.005482 1.232784
  H 0.437259 -0.802150 -0.322923
  H 0.437271 0.961142 -0.223415
  H 3.945030 0.869462 1.650381
  H 3.944977 -0.921785 1.549305
  H 2.574402 -0.637443 -3.177226
  H 2.574393 1.118556 -3.078104
  H 5.014765 0.082316 -0.323170
  H 4.849549 0.254244 -3.369991
 19
 66.476754
  C 0.834983 0.056474 0.135064
  C 2.297853 0.070258 -0.109189
  C 3.487591 -0.035970 1.773419
  H 2.707149 -0.077521 2.509899
  C 3.034798 0.137371 -1.298530
  C 2.292764 0.211005 -2.603586
  H 1.216161 0.202765 -2.458044
  C 4.484159 0.136569 -1.284245
  C 5.262036 0.197123 -2.357600
  H 6.335909 0.192219 -2.270857
  H 0.619678 -0.003605 1.199691
  H 0.369487 -0.803444 -0.350092
  H 0.369475 0.965520 -0.250284
  H 4.057487 0.876459 1.749167
  H 4.057578 -0.939995 1.646665
  H 2.568444 -0.636413 -3.233249
  H 2.568419 1.123813 -3.133907
  H 4.931761 0.081978 -0.316794
  H 4.869759 0.253609 -3.358883
 19
 88.835727
  C 0.802251 0.058150 0.104990
  C 2.245253 0.074652 -0.187500
  C 3.599386 -0.044994 1.932387
  H 2.777767 -0.083638 2.616574
  C 2.990677 0.139578 -1.337939
  C 2.291513 0.214950 -2.673526
  H 1.218566 0.208306 -2.556351
  C 4.435352 0.137402 -1.299426
  C 5.235894 0.197223 -2.359666
  H 6.305156 0.191076 -2.250981
  H 0.624153 -0.002456 1.178852
  H 0.322010 -0.805839 -0.364910
  H 0.322024 0.969510 -0.264710
  H 4.139630 0.874355 1.870085
  H 4.139417 -0.951232 1.767085
  H 2.584103 -0.634232 -3.291221
  H 2.584117 1.128279 -3.191804
  H 4.865086 0.080210 -0.286098
  H 4.860337 0.253780 -3.361987
