 21
 0.000000
  C 0.887307 0.040361 0.339844
  C 2.369187 0.059834 0.084138
  C 3.262011 -0.006434 1.301169
  H 2.698415 -0.060336 2.225962
  C 2.932788 0.128941 -1.117900
  C 2.353527 0.205675 -2.505632
  C 0.845021 0.221949 -2.732114
  C 0.537514 0.304205 -4.224985
  H 4.015246 0.125294 -1.172386
  H 0.675141 -0.016307 1.404998
  H 0.424327 -0.823325 -0.132325
  H 0.412719 0.943544 -0.035498
  H 3.905359 0.872352 1.346385
  H 3.910440 -0.881036 1.247290
  H 2.764308 -0.642692 -3.067173
  H 2.768504 1.107982 -2.971964
  H 0.395516 1.083172 -2.238509
  H 0.390724 -0.685382 -2.335144
  H 0.958690 1.210192 -4.656270
  H -0.537787 0.316085 -4.390346
  H 0.954015 -0.551742 -4.752357
 21
 -0.303854
  C 0.876546 0.007794 0.377123
  C 2.349063 0.055923 0.078492
  C 3.257499 0.078085 1.283691
  H 2.688930 0.104371 2.207129
  C 2.908364 0.078649 -1.125294
  C 2.362679 0.116833 -2.528673
  C 0.852951 0.178774 -2.754715
  C 0.539585 0.352030 -4.237975
  H 3.998061 0.094179 -1.144144
  H 0.709487 -0.314776 1.402392
  H 0.365781 -0.686296 -0.280899
  H 0.423590 0.993349 0.259267
  H 3.907735 0.953197 1.259488
  H 3.894919 -0.806511 1.300896
  H 2.758739 -0.759204 -3.060449
  H 2.812479 0.994317 -3.011512
  H 0.428992 1.017892 -2.199392
  H 0.382665 -0.742493 -2.404901
  H 0.976051 1.272197 -4.617267
  H -0.533579 0.391359 -4.399410
  H 0.941431 -0.477521 -4.813141
 21
 0.714465
  C 0.891385 -0.080629 0.383835
  C 2.355036 0.071891 0.087950
  C 3.254962 0.219006 1.290552
  H 2.673157 0.278378 2.206398
  C 2.895925 -0.020531 -1.120281
  C 2.337539 0.021912 -2.518149
  C 0.842142 0.212947 -2.755061
  C 0.560641 0.414918 -4.241093
  H 3.981455 -0.039873 -1.179541
  H 0.768949 -0.643703 1.308522
  H 0.428048 -0.649199 -0.412771
  H 0.391514 0.878804 0.504538
  H 3.855889 1.123310 1.206778
  H 3.939093 -0.624802 1.372879
  H 2.661180 -0.885543 -3.042010
  H 2.854890 0.855506 -3.009185
  H 0.489945 1.084510 -2.201580
  H 0.283827 -0.660723 -2.416980
  H 1.091727 1.286664 -4.618287
  H -0.503523 0.562059 -4.411490
  H 0.882176 -0.453585 -4.812704
 21
 4.433871
  C 0.903851 -0.190810 0.392946
  C 2.350969 0.058774 0.088175
  C 3.233379 0.366088 1.270083
  H 2.632210 0.543018 2.158089
  C 2.876135 -0.159000 -1.112122
  C 2.319307 -0.062182 -2.511879
  C 0.847437 0.265358 -2.749651
  C 0.585330 0.480516 -4.237321
  H 3.958491 -0.239874 -1.197780
  H 0.862926 -0.949651 1.178273
  H 0.458155 -0.641954 -0.485003
  H 0.362726 0.683821 0.742658
  H 3.828724 1.254914 1.069567
  H 3.922457 -0.451931 1.481006
  H 2.566303 -0.979539 -3.059532
  H 2.905083 0.739394 -2.978001
  H 0.581674 1.170831 -2.201399
  H 0.204480 -0.545202 -2.405188
  H 1.214765 1.277591 -4.627950
  H -0.454187 0.752834 -4.405632
  H 0.796707 -0.427545 -4.798366
 21
 14.382287
  C 0.906557 -0.342838 0.366519
  C 2.345479 -0.017722 0.078962
  C 3.187854 0.556758 1.179491
  H 2.569582 0.801890 2.038810
  C 2.838043 -0.415858 -1.093066
  C 2.299793 -0.208178 -2.494371
  C 0.880831 0.325982 -2.693179
  C 0.625962 0.625235 -4.170951
  H 3.922298 -0.523321 -1.197715
  H 0.906138 -1.104997 1.152737
  H 0.588859 -0.920161 -0.501844
  H 0.277138 0.477004 0.686324
  H 3.681360 1.460677 0.823600
  H 3.967347 -0.133391 1.506956
  H 2.426367 -1.119581 -3.095085
  H 2.983641 0.539768 -2.919462
  H 0.753405 1.239062 -2.107921
  H 0.136280 -0.396529 -2.354139
  H 1.331363 1.366913 -4.541467
  H -0.382384 1.006217 -4.315876
  H 0.740418 -0.278044 -4.768333
 21
 28.858418
  C 0.918364 -0.407630 0.365228
  C 2.353837 -0.058342 0.108369
  C 3.181402 0.660668 1.122764
  H 2.563674 0.969004 1.958685
  C 2.798152 -0.534581 -1.069581
  C 2.287242 -0.233089 -2.465054
  C 0.878561 0.333179 -2.662964
  C 0.657905 0.701584 -4.128719
  H 3.868179 -0.714813 -1.205070
  H 0.861644 -1.269115 1.037509
  H 0.710005 -0.964237 -0.561181
  H 0.268605 0.381308 0.706171
  H 3.646300 1.524725 0.663383
  H 3.988108 0.035757 1.522539
  H 2.349031 -1.153543 -3.062571
  H 3.015125 0.463079 -2.892962
  H 0.750279 1.222784 -2.039952
  H 0.116678 -0.397166 -2.373223
  H 1.431454 1.384652 -4.473887
  H -0.308975 1.179437 -4.261067
  H 0.687283 -0.186223 -4.756789
 21
 54.960811
  C 0.934724 -0.595625 0.320208
  C 2.316623 -0.077758 0.100973
  C 3.072503 0.827606 1.011627
  H 2.446160 1.141694 1.842899
  C 2.746710 -0.665543 -1.053765
  C 2.278878 -0.325087 -2.456691
  C 0.972919 0.452893 -2.592111
  C 0.685380 0.790075 -4.049882
  H 3.777753 -1.033867 -1.138605
  H 0.940537 -1.527901 0.903654
  H 0.999743 -1.177593 -0.655658
  H 0.197414 0.082463 0.740934
  H 3.386551 1.717143 0.461507
  H 3.969251 0.347926 1.408629
  H 2.243822 -1.222921 -3.086044
  H 3.075991 0.317444 -2.848857
  H 1.048680 1.372049 -2.008575
  H 0.142415 -0.118329 -2.185467
  H 1.499280 1.372962 -4.477711
  H -0.224770 1.375287 -4.130804
  H 0.561206 -0.114834 -4.636528
 21
 77.806800
  C 0.960067 -0.548919 0.373950
  C 2.273763 -0.070280 0.129494
  C 3.070911 0.877854 0.956032
  H 2.465586 1.286733 1.762436
  C 2.685359 -0.767304 -1.035099
  C 2.272751 -0.325465 -2.442357
  C 0.929467 0.383018 -2.575736
  C 0.691794 0.841014 -4.009993
  H 3.733994 -1.094100 -1.084309
  H 0.853500 -1.536162 0.803881
  H 1.337600 -1.280810 -0.803500
  H 0.196813 0.121340 0.780185
  H 3.463421 1.697232 0.351648
  H 3.925695 0.358781 1.393829
  H 2.293035 -1.192497 -3.109475
  H 3.051945 0.361896 -2.794158
  H 0.909792 1.245869 -1.907915
  H 0.119223 -0.285239 -2.275834
  H 1.493606 1.496917 -4.341889
  H -0.247662 1.384085 -4.086265
  H 0.649482 -0.013248 -4.682416
 21
 61.779383
  C 0.957417 -0.449439 0.432002
  C 2.231718 -0.044648 0.160913
  C 3.079679 0.895572 0.946975
  H 2.497241 1.375510 1.732942
  C 2.664055 -0.811006 -1.035857
  C 2.290319 -0.328913 -2.470420
  C 0.899750 0.284849 -2.614298
  C 0.681050 0.869101 -4.005943
  H 3.677540 -1.216371 -1.027112
  H 0.783138 -1.451909 0.769418
  H 1.614078 -1.312782 -0.930045
  H 0.226350 0.211841 0.899424
  H 3.522599 1.677491 0.326539
  H 3.894040 0.325507 1.399205
  H 2.375078 -1.192437 -3.134102
  H 3.022600 0.425028 -2.783468
  H 0.786872 1.078100 -1.875991
  H 0.131449 -0.460585 -2.403918
  H 1.440872 1.615884 -4.228196
  H -0.289685 1.364569 -4.062613
  H 0.715167 0.092248 -4.761572
 21
 38.991005
  C 0.922844 -0.472401 0.533748
  C 2.140829 -0.100111 0.108597
  C 2.999261 0.962113 0.688683
  H 2.501269 1.469673 1.506130
  C 2.602123 -0.999269 -1.005412
  C 2.297545 -0.348716 -2.378033
  C 0.930734 0.303261 -2.524364
  C 0.769345 0.946372 -3.896405
  H 3.660278 -1.234591 -0.999388
  H 0.713166 -1.489081 0.826010
  H 1.691600 -1.624568 -0.918553
  H 0.176151 0.201186 0.949290
  H 3.336267 1.692004 -0.048994
  H 3.892318 0.468452 1.071686
  H 2.436232 -1.100091 -3.156346
  H 3.060045 0.411292 -2.597329
  H 0.787710 1.052178 -1.746008
  H 0.151151 -0.452836 -2.402565
  H 1.582493 1.640304 -4.091300
  H -0.183276 1.457272 -3.982507
  H 0.818520 0.179370 -4.672745
 21
 24.926772
  C 0.905940 -0.526914 0.583261
  C 2.090385 -0.111313 0.091328
  C 2.925726 0.991289 0.636963
  H 2.428814 1.489189 1.469099
  C 2.590340 -1.000478 -1.020597
  C 2.319404 -0.365456 -2.401559
  C 0.997662 0.380895 -2.514532
  C 0.800306 0.943424 -3.916593
  H 3.629227 -1.296408 -0.951911
  H 0.729995 -1.550113 0.865484
  H 1.775354 -1.731178 -0.944720
  H 0.235812 0.163118 1.091538
  H 3.192016 1.734382 -0.115072
  H 3.841254 0.521831 0.998330
  H 2.399028 -1.142585 -3.166917
  H 3.117067 0.349996 -2.622521
  H 0.969328 1.193157 -1.788100
  H 0.175721 -0.302087 -2.283988
  H 1.612351 1.621422 -4.175430
  H -0.142485 1.480697 -3.987959
  H 0.792476 0.138679 -4.648921
 21
 11.227406
  C 0.917599 -0.455551 0.670808
  C 2.051229 -0.067716 0.093440
  C 2.981760 0.955290 0.660588
  H 2.539426 1.455967 1.522059
  C 2.556389 -0.955243 -1.022079
  C 2.345762 -0.288832 -2.393112
  C 0.963447 0.325150 -2.568340
  C 0.788922 0.912585 -3.962973
  H 3.589995 -1.262177 -0.925582
  H 0.611087 -1.487820 0.723914
  H 1.809821 -1.743707 -0.996741
  H 0.327071 0.200459 1.295641
  H 3.282013 1.711029 -0.070035
  H 3.879915 0.425472 0.981601
  H 2.503153 -1.048031 -3.162003
  H 3.099739 0.486891 -2.545246
  H 0.815118 1.109598 -1.823736
  H 0.201140 -0.439886 -2.397428
  H 1.559799 1.654984 -4.164335
  H -0.179852 1.396159 -4.053741
  H 0.855154 0.133496 -4.720036
 21
 3.200645
  C 0.924011 -0.413643 0.717961
  C 2.073287 -0.115230 0.128307
  C 2.995642 0.963868 0.596400
  H 2.545213 1.547329 1.395227
  C 2.532498 -0.994279 -1.006119
  C 2.347291 -0.287232 -2.362941
  C 0.939381 0.257604 -2.578195
  C 0.804093 0.931859 -3.938190
  H 3.572652 -1.295512 -0.910422
  H 0.483304 -1.395768 0.681328
  H 1.801968 -1.804351 -1.000189
  H 0.416188 0.255312 1.399294
  H 3.286564 1.637325 -0.210025
  H 3.900887 0.489981 0.974318
  H 2.575390 -1.008521 -3.152047
  H 3.066637 0.531200 -2.455073
  H 0.701574 0.975682 -1.791538
  H 0.219236 -0.560812 -2.505903
  H 1.517393 1.748110 -4.032729
  H -0.197614 1.335123 -4.067413
  H 0.993091 0.220075 -4.739389
 21
 -3.769160
  C 0.914371 -0.329086 0.788938
  C 2.071125 -0.140892 0.171708
  C 3.047578 0.907236 0.607843
  H 2.636064 1.519350 1.404683
  C 2.490090 -0.979723 -1.002881
  C 2.344844 -0.233898 -2.337404
  C 0.907197 0.187900 -2.621663
  C 0.785946 0.906561 -3.959264
  H 3.536009 -1.279442 -0.884692
  H 0.228324 -1.110378 0.507380
  H 1.865539 -1.871425 -1.037847
  H 0.612997 0.288994 1.624134
  H 3.319807 1.553215 -0.224085
  H 3.959886 0.431981 0.969140
  H 2.691110 -0.889644 -3.141094
  H 2.987160 0.651045 -2.336910
  H 0.558799 0.843322 -1.822340
  H 0.266631 -0.697848 -2.625878
  H 1.410220 1.797544 -3.972035
  H -0.243137 1.207153 -4.140673
  H 1.102197 0.257041 -4.773096
 21
 -3.874449
  C 0.905284 -0.272509 0.769770
  C 2.080800 -0.129863 0.179088
  C 3.092658 0.872593 0.647810
  H 2.691136 1.491875 1.445964
  C 2.488645 -0.961670 -1.006918
  C 2.339653 -0.205264 -2.334229
  C 0.889918 0.157469 -2.642170
  C 0.761542 0.881004 -3.977173
  H 3.535299 -1.260220 -0.893130
  H 0.182745 -1.000682 0.438306
  H 1.879293 -1.865856 -1.049037
  H 0.616511 0.334313 1.611606
  H 3.402373 1.517766 -0.173230
  H 3.981986 0.359634 1.018530
  H 2.730714 -0.833189 -3.139730
  H 2.941442 0.706805 -2.307117
  H 0.500102 0.791701 -1.844216
  H 0.288245 -0.754553 -2.664129
  H 1.344460 1.799594 -3.971255
  H -0.276862 1.136033 -4.176634
  H 1.122744 0.253139 -4.789443
