 25
 0.000000
  C 1.041078 0.117063 0.307329
  C 2.512794 0.148492 0.370560
  C 3.249839 0.614163 1.561176
  C 2.432194 1.079274 2.761905
  C 3.349835 1.523873 3.896947
  C 3.183441 -0.292576 -0.762436
  C 4.564457 -0.376167 -0.954240
  C 5.169401 -0.851537 -2.092771
  C 4.530997 -1.356183 -3.306883
  H 3.448597 -1.352850 -3.306372
  H 6.251045 -0.867283 -2.122785
  H 0.563081 0.465594 1.214991
  H 0.698685 -0.899701 0.098513
  H 0.693452 0.727575 -0.527755
  H 3.911763 1.432682 1.253678
  H 3.916312 -0.193413 1.886982
  H 1.796211 0.269141 3.123277
  H 1.791418 1.917235 2.481539
  H 3.988111 0.706879 4.225827
  H 2.762562 1.854285 4.750045
  H 3.983289 2.351414 3.585518
  H 2.554225 -0.616065 -1.579992
  H 5.207937 -0.044207 -0.151496
  H 4.892237 -2.370850 -3.492530
  H 4.897251 -0.775672 -4.157446
 25
 -0.271055
  C 1.027938 0.134367 0.328374
  C 2.493263 0.180410 0.345800
  C 3.238585 0.622478 1.534766
  C 2.429326 1.073609 2.746626
  C 3.356464 1.505610 3.880216
  C 3.153586 -0.262543 -0.796656
  C 4.544238 -0.386363 -0.950714
  C 5.169894 -0.855450 -2.079317
  C 4.553070 -1.319728 -3.316826
  H 3.475533 -1.257822 -3.329171
  H 6.245733 -0.895258 -2.061566
  H 0.566436 0.704431 1.127091
  H 0.738040 -0.912732 0.446116
  H 0.632232 0.444164 -0.638457
  H 3.910143 1.437689 1.237517
  H 3.905010 -0.192384 1.847134
  H 1.797302 0.260873 3.100503
  H 1.787872 1.917135 2.481672
  H 4.002941 0.686443 4.190379
  H 2.777058 1.819550 4.743930
  H 3.983823 2.342714 3.574782
  H 2.532096 -0.548294 -1.629278
  H 5.179291 -0.093854 -0.123680
  H 4.862105 -2.352692 -3.503320
  H 4.965088 -0.754762 -4.156056
 25
 2.600059
  C 1.033141 0.178445 0.321123
  C 2.495177 0.198391 0.334277
  C 3.244843 0.637550 1.532058
  C 2.426997 1.047008 2.752839
  C 3.344968 1.504496 3.882434
  C 3.156013 -0.211584 -0.818806
  C 4.538737 -0.426834 -0.941799
  C 5.163694 -0.906497 -2.067636
  C 4.549058 -1.304476 -3.331689
  H 3.474721 -1.164972 -3.368513
  H 6.238495 -1.022120 -2.023106
  H 0.534580 0.789587 1.056485
  H 0.946269 -0.870117 0.674496
  H 0.588913 0.192358 -0.664759
  H 3.870057 1.487123 1.232322
  H 3.940626 -0.153224 1.830694
  H 1.830298 0.204129 3.105095
  H 1.752660 1.867477 2.502866
  H 4.020383 0.707436 4.184390
  H 2.760810 1.795485 4.751039
  H 3.941244 2.361665 3.577275
  H 2.546500 -0.370911 -1.696080
  H 5.165044 -0.228199 -0.083490
  H 4.786519 -2.351686 -3.530551
  H 5.018544 -0.751316 -4.147803
 25
 15.558072
  C 1.002694 0.255587 0.317517
  C 2.451370 0.128210 0.350869
  C 3.235872 0.628123 1.509084
  C 2.433872 1.077922 2.730480
  C 3.373999 1.507852 3.854929
  C 3.099966 -0.331955 -0.793935
  C 4.484528 -0.541074 -0.891159
  C 5.146788 -0.919375 -2.032812
  C 4.571697 -1.217818 -3.344426
  H 3.496850 -1.095061 -3.394056
  H 6.218644 -1.034370 -1.967280
  H 0.473230 0.800317 1.079008
  H 1.191014 -0.822814 0.698880
  H 0.505645 0.132304 -0.634550
  H 3.830293 1.476147 1.151552
  H 3.945111 -0.141813 1.828734
  H 1.805959 0.262578 3.094688
  H 1.794160 1.924065 2.474583
  H 4.009082 0.682147 4.170071
  H 2.805276 1.841899 4.719425
  H 4.013333 2.327667 3.535660
  H 2.496316 -0.567519 -1.658228
  H 5.094853 -0.345022 -0.019776
  H 4.832536 -2.239055 -3.624989
  H 5.043293 -0.583532 -4.096647
 25
 34.518298
  C 0.993789 0.333291 0.311632
  C 2.400865 0.116194 0.362392
  C 3.214998 0.579456 1.541864
  C 2.418686 1.074394 2.748058
  C 3.363905 1.511607 3.860740
  C 3.097039 -0.276812 -0.827170
  C 4.468490 -0.481612 -0.924092
  C 5.127190 -0.906568 -2.049161
  C 4.546883 -1.248782 -3.353600
  H 3.471969 -1.118892 -3.404563
  H 6.200720 -1.013839 -1.984679
  H 0.446502 0.761030 1.127344
  H 1.648636 -0.849636 0.619858
  H 0.460982 0.147018 -0.605354
  H 3.857196 1.392263 1.196158
  H 3.867608 -0.229870 1.872216
  H 1.773799 0.281932 3.132283
  H 1.798682 1.926849 2.469783
  H 3.989598 0.683741 4.188764
  H 2.801705 1.868143 4.719422
  H 4.012771 2.318086 3.524683
  H 2.494785 -0.452113 -1.705555
  H 5.077610 -0.287850 -0.054054
  H 4.795911 -2.282259 -3.597452
  H 5.019745 -0.643497 -4.128410
 25
 40.570987
  C 0.974252 0.375615 0.310622
  C 2.368213 0.079619 0.385150
  C 3.204112 0.549437 1.564615
  C 2.413215 1.090247 2.754377
  C 3.362487 1.534647 3.862915
  C 3.084128 -0.301311 -0.828951
  C 4.450054 -0.497892 -0.927245
  C 5.108438 -0.905197 -2.064235
  C 4.527747 -1.234161 -3.369036
  H 3.452211 -1.114400 -3.416994
  H 6.183138 -1.001226 -2.004944
  H 0.438150 0.797245 1.136807
  H 1.979787 -0.985826 0.556910
  H 0.430724 0.171726 -0.594844
  H 3.869429 1.339972 1.211650
  H 3.829204 -0.270519 1.919743
  H 1.749165 0.320909 3.153142
  H 1.812204 1.949050 2.451927
  H 3.969411 0.702101 4.213360
  H 2.802964 1.922808 4.710978
  H 4.029499 2.319488 3.511474
  H 2.474168 -0.453165 -1.705700
  H 5.058000 -0.314325 -0.053975
  H 4.787042 -2.262229 -3.626366
  H 4.994148 -0.615771 -4.137429
 25
 42.393216
  C 0.980286 0.392622 0.322694
  C 2.354880 0.090174 0.401245
  C 3.195501 0.551657 1.584403
  C 2.407296 1.094963 2.775767
  C 3.358447 1.542584 3.880766
  C 3.061213 -0.322303 -0.827893
  C 4.438892 -0.504022 -0.935273
  C 5.086898 -0.898517 -2.076195
  C 4.496198 -1.246743 -3.373895
  H 3.417027 -1.158245 -3.410226
  H 6.165420 -0.962724 -2.033851
  H 0.455198 0.870867 1.124506
  H 2.291699 -1.074699 0.356882
  H 0.416366 0.146529 -0.560164
  H 3.869416 1.337112 1.235532
  H 3.813415 -0.274372 1.937994
  H 1.745114 0.324430 3.173404
  H 1.803611 1.950625 2.473142
  H 3.968207 0.712551 4.230323
  H 2.800143 1.930284 4.729179
  H 4.021048 2.328806 3.526527
  H 2.444668 -0.453389 -1.705291
  H 5.050091 -0.304391 -0.067638
  H 4.782507 -2.267557 -3.632273
  H 4.936542 -0.618245 -4.149281
 25
 40.097984
  C 0.979758 0.369344 0.349736
  C 2.330763 0.113304 0.420936
  C 3.175233 0.553074 1.594353
  C 2.400434 1.120628 2.783954
  C 3.362630 1.552012 3.886120
  C 3.024686 -0.382846 -0.791863
  C 4.423043 -0.548350 -0.909898
  C 5.070212 -0.905704 -2.054980
  C 4.480139 -1.221223 -3.364096
  H 3.400674 -1.133770 -3.399026
  H 6.149346 -0.966886 -2.015516
  H 0.449230 0.835846 1.157190
  H 2.445443 -1.124715 0.136433
  H 0.403241 0.106769 -0.519959
  H 3.869427 1.319501 1.240949
  H 3.774588 -0.285756 1.952647
  H 1.721139 0.366581 3.185311
  H 1.815217 1.987491 2.475241
  H 3.952594 0.709679 4.240524
  H 2.813786 1.958245 4.732142
  H 4.043224 2.320919 3.527348
  H 2.412236 -0.485851 -1.677470
  H 5.030164 -0.363626 -0.036262
  H 4.767763 -2.234385 -3.649913
  H 4.919423 -0.571060 -4.121952
 25
 30.079162
  C 0.985960 0.349981 0.356356
  C 2.314480 0.125738 0.435230
  C 3.166914 0.548058 1.590187
  C 2.415978 1.165638 2.770358
  C 3.395770 1.587257 3.860585
  C 2.984233 -0.478811 -0.761513
  C 4.406576 -0.611416 -0.884967
  C 5.061521 -0.897532 -2.034658
  C 4.481162 -1.148212 -3.358352
  H 3.401058 -1.067314 -3.393989
  H 6.140914 -0.949824 -1.992209
  H 0.440897 0.822654 1.151165
  H 2.561267 -1.316109 -0.076083
  H 0.413500 0.072303 -0.511688
  H 3.894050 1.277092 1.220556
  H 3.733883 -0.307963 1.964062
  H 1.713146 0.442887 3.188039
  H 1.857880 2.043733 2.443236
  H 3.957412 0.732936 4.231998
  H 2.863355 2.030341 4.698681
  H 4.101021 2.324700 3.483947
  H 2.383687 -0.508325 -1.663218
  H 5.001844 -0.462429 0.002670
  H 4.779454 -2.142506 -3.695991
  H 4.920436 -0.457718 -4.080303
 25
 20.341655
  C 0.969061 0.325514 0.371664
  C 2.296694 0.106139 0.452177
  C 3.158397 0.524291 1.589764
  C 2.439954 1.207419 2.753043
  C 3.439274 1.618661 3.829500
  C 2.925025 -0.605686 -0.710856
  C 4.371933 -0.688762 -0.835716
  C 5.047503 -0.881719 -2.001247
  C 4.483570 -1.051986 -3.343438
  H 3.402226 -0.993294 -3.384511
  H 6.127899 -0.917729 -1.951284
  H 0.421340 0.841264 1.139180
  H 2.570142 -1.572547 -0.279489
  H 0.395157 0.009255 -0.482873
  H 3.923580 1.202484 1.197062
  H 3.686720 -0.347858 1.985949
  H 1.706793 0.529128 3.192141
  H 1.918065 2.097623 2.398911
  H 3.964328 0.752349 4.225700
  H 2.927712 2.107841 4.654772
  H 4.174804 2.314078 3.431095
  H 2.372095 -0.494102 -1.639738
  H 4.953600 -0.593414 0.068665
  H 4.810794 -2.012864 -3.746781
  H 4.915122 -0.307149 -4.014974
 25
 17.680886
  C 0.938811 0.248863 0.433360
  C 2.282861 0.113162 0.446368
  C 3.148867 0.528332 1.579097
  C 2.452704 1.216822 2.750646
  C 3.471480 1.642231 3.803503
  C 2.899925 -0.555936 -0.737280
  C 4.355257 -0.692918 -0.817268
  C 5.049836 -0.914141 -1.965379
  C 4.507995 -1.055226 -3.320523
  H 3.429611 -0.965451 -3.381556
  H 6.125791 -1.002442 -1.890567
  H 0.398996 0.674947 1.259112
  H 2.470391 -1.568936 -0.608812
  H 0.344381 -0.048236 -0.413722
  H 3.920488 1.197088 1.180811
  H 3.675876 -0.350484 1.965108
  H 1.733103 0.539342 3.212883
  H 1.917197 2.100408 2.399609
  H 4.006329 0.781177 4.198176
  H 2.974430 2.137951 4.633762
  H 4.197297 2.335699 3.384489
  H 2.454712 -0.205968 -1.671366
  H 4.916472 -0.637560 0.102761
  H 4.818424 -2.020445 -3.726504
  H 4.972592 -0.317235 -3.977908
 25
 17.785628
  C 0.943417 0.198074 0.461263
  C 2.295855 0.156708 0.436343
  C 3.152650 0.559648 1.579349
  C 2.444920 1.194151 2.773453
  C 3.457156 1.631797 3.827608
  C 2.919466 -0.414384 -0.789905
  C 4.373345 -0.611214 -0.840132
  C 5.053793 -0.954263 -1.965383
  C 4.493530 -1.174678 -3.303496
  H 3.413839 -1.090626 -3.350596
  H 6.126795 -1.071355 -1.890478
  H 0.407191 0.417196 1.367291
  H 2.425059 -1.397618 -0.883589
  H 0.335874 0.014897 -0.407928
  H 3.900812 1.263998 1.197650
  H 3.712373 -0.313310 1.932463
  H 1.756369 0.479346 3.227318
  H 1.870354 2.063462 2.449339
  H 4.032642 0.782935 4.190319
  H 2.949923 2.081123 4.677840
  H 4.148080 2.367633 3.422005
  H 2.567915 0.125324 -1.677244
  H 4.937668 -0.497984 0.072076
  H 4.800716 -2.159421 -3.660635
  H 4.944088 -0.470394 -4.006129
 25
 16.560240
  C 0.938626 0.230258 0.454736
  C 2.287182 0.132841 0.445926
  C 3.149216 0.544014 1.582973
  C 2.446077 1.185930 2.777207
  C 3.461146 1.607360 3.834956
  C 2.917722 -0.429417 -0.779479
  C 4.376928 -0.569510 -0.843091
  C 5.055123 -0.917882 -1.969851
  C 4.484018 -1.201026 -3.290752
  H 3.400973 -1.168769 -3.322733
  H 6.132032 -0.995988 -1.905976
  H 0.394255 0.615571 1.295687
  H 2.465242 -1.423115 -0.938619
  H 0.347426 -0.080539 -0.390327
  H 3.904960 1.241494 1.203956
  H 3.696549 -0.337079 1.937817
  H 1.745242 0.480632 3.225541
  H 1.887456 2.065159 2.453874
  H 4.023526 0.750247 4.197767
  H 2.957846 2.061981 4.684349
  H 4.163149 2.333941 3.432749
  H 2.553156 0.128374 -1.652050
  H 4.950663 -0.404190 0.054128
  H 4.835337 -2.175764 -3.633023
  H 4.889975 -0.493479 -4.016963
