 23
 0.000000
  C 0.979737 0.152864 0.426187
  C 2.453678 0.138156 0.389467
  C 3.235579 0.603989 1.549116
  H 2.630067 0.937998 2.382876
  C 3.053878 -0.330303 -0.774010
  C 4.430461 -0.413796 -0.981970
  C 5.118445 -0.864476 -2.104036
  C 4.628589 -1.388209 -3.408027
  C 3.140518 -1.505433 -3.700409
  H 3.004477 -1.906563 -4.699189
  O 6.438839 -0.856265 -2.084050
  H 0.585474 0.534919 1.363042
  H 0.585384 -0.853018 0.270244
  H 0.591225 0.765828 -0.388350
  H 3.888552 1.424088 1.244082
  H 3.889746 -0.198648 1.895108
  H 2.389283 -0.646310 -1.558986
  H 5.052690 -0.082508 -0.158783
  H 5.091734 -2.373871 -3.530320
  H 5.092043 -0.761257 -4.178187
  H 2.657387 -0.532460 -3.662025
  H 2.657173 -2.181424 -2.999746
  H 6.822279 -0.522634 -1.251285
 23
 3.277000
  C 0.981955 0.204129 0.451400
  C 2.432412 0.140598 0.390339
  C 3.228088 0.597414 1.547091
  H 2.593155 0.912486 2.367321
  C 3.022469 -0.332783 -0.776362
  C 4.411358 -0.420145 -0.978963
  C 5.113219 -0.872069 -2.105116
  C 4.630684 -1.392763 -3.415149
  C 3.145186 -1.507747 -3.716045
  H 3.029415 -1.907434 -4.720252
  O 6.433165 -0.865523 -2.076652
  H 0.585378 0.557893 1.390602
  H 0.787874 -0.837312 0.291650
  H 0.539812 0.761890 -0.369099
  H 3.863575 1.434510 1.257329
  H 3.894406 -0.188498 1.901637
  H 2.353992 -0.644708 -1.560447
  H 5.037431 -0.091716 -0.155520
  H 5.098487 -2.376468 -3.535583
  H 5.104079 -0.764649 -4.178251
  H 2.657295 -0.537428 -3.690314
  H 2.651959 -2.191971 -3.031432
  H 6.822809 -0.536439 -1.245144
 23
 8.892083
  C 0.976226 0.239626 0.442135
  C 2.428967 0.156412 0.391243
  C 3.233581 0.592626 1.542252
  H 2.601719 0.880677 2.377749
  C 3.024151 -0.329473 -0.780015
  C 4.398066 -0.428948 -0.973309
  C 5.097656 -0.878191 -2.089929
  C 4.622101 -1.390903 -3.410543
  C 3.138790 -1.496374 -3.724271
  H 3.031748 -1.888523 -4.729735
  O 6.416409 -0.881167 -2.051117
  H 0.555048 0.603815 1.370958
  H 0.987300 -0.841198 0.350059
  H 0.497023 0.669368 -0.415320
  H 3.834320 1.457707 1.254068
  H 3.924384 -0.181010 1.874429
  H 2.362305 -0.631030 -1.568035
  H 5.021154 -0.107819 -0.149453
  H 5.085691 -2.376453 -3.531503
  H 5.105202 -0.760587 -4.165828
  H 2.655548 -0.523283 -3.700684
  H 2.636225 -2.185347 -3.050821
  H 6.797462 -0.559672 -1.218601
 23
 16.081168
  C 0.971984 0.259984 0.431591
  C 2.424521 0.150316 0.376316
  C 3.230064 0.583236 1.544743
  H 2.598378 0.859935 2.382087
  C 3.021330 -0.335391 -0.792263
  C 4.396571 -0.434835 -0.978120
  C 5.094506 -0.880760 -2.086691
  C 4.620238 -1.388430 -3.404357
  C 3.135315 -1.487716 -3.713463
  H 3.022009 -1.878502 -4.722334
  O 6.412036 -0.888280 -2.048854
  H 0.545193 0.627825 1.347639
  H 1.132985 -0.811404 0.382310
  H 0.460850 0.625538 -0.447103
  H 3.815606 1.456070 1.259297
  H 3.929180 -0.182756 1.872946
  H 2.362026 -0.634247 -1.587782
  H 5.016555 -0.114955 -0.150497
  H 5.080410 -2.375524 -3.527887
  H 5.103798 -0.758033 -4.159306
  H 2.657029 -0.513282 -3.685791
  H 2.633415 -2.175455 -3.039650
  H 6.791354 -0.568299 -1.213788
 23
 22.539976
  C 0.961144 0.289291 0.439125
  C 2.421530 0.145305 0.374979
  C 3.221578 0.575610 1.548218
  H 2.584499 0.842795 2.385214
  C 3.015029 -0.339529 -0.793068
  C 4.394732 -0.438869 -0.979607
  C 5.095446 -0.883916 -2.090041
  C 4.622878 -1.391020 -3.410682
  C 3.139029 -1.491706 -3.722548
  H 3.028873 -1.880831 -4.731281
  O 6.419786 -0.890760 -2.050579
  H 0.522315 0.662526 1.353068
  H 1.248556 -0.792775 0.405585
  H 0.427818 0.617426 -0.440411
  H 3.801805 1.456616 1.269985
  H 3.927078 -0.188994 1.873568
  H 2.354155 -0.635678 -1.588666
  H 5.015135 -0.118921 -0.150168
  H 5.083972 -2.376889 -3.534355
  H 5.106525 -0.759120 -4.163423
  H 2.658987 -0.517398 -3.694627
  H 2.636301 -2.181604 -3.050540
  H 6.799283 -0.570748 -1.212918
 23
 26.968356
  C 0.966606 0.321725 0.445145
  C 2.406214 0.142396 0.384741
  C 3.219936 0.570006 1.553890
  H 2.591233 0.833529 2.397315
  C 3.010395 -0.343552 -0.793678
  C 4.381610 -0.444344 -0.976336
  C 5.087050 -0.886073 -2.086206
  C 4.627679 -1.390129 -3.417664
  C 3.145825 -1.492076 -3.744654
  H 3.045816 -1.878666 -4.761034
  O 6.408280 -0.894076 -2.039839
  H 0.533890 0.719988 1.337740
  H 1.339049 -0.761977 0.500218
  H 0.408320 0.538960 -0.454788
  H 3.785207 1.453833 1.269586
  H 3.929270 -0.190359 1.869285
  H 2.351485 -0.630497 -1.592884
  H 4.999747 -0.128134 -0.144764
  H 5.091379 -2.375830 -3.540919
  H 5.116957 -0.753243 -4.163686
  H 2.664957 -0.519347 -3.717255
  H 2.638727 -2.185396 -3.081100
  H 6.772528 -0.579621 -1.206158
 23
 29.414062
  C 0.964901 0.339847 0.423997
  C 2.399923 0.130098 0.374590
  C 3.216865 0.562074 1.546998
  H 2.588590 0.820634 2.394887
  C 3.007408 -0.347480 -0.805293
  C 4.384075 -0.451729 -0.981279
  C 5.088787 -0.889631 -2.085665
  C 4.627612 -1.385707 -3.416492
  C 3.144974 -1.477459 -3.736781
  H 3.038212 -1.858298 -4.748895
  O 6.419019 -0.903598 -2.037751
  H 0.529856 0.783674 1.303400
  H 1.411813 -0.739509 0.593282
  H 0.395973 0.430528 -0.480497
  H 3.775308 1.454678 1.260880
  H 3.932405 -0.198191 1.860042
  H 2.348809 -0.625321 -1.610073
  H 5.000365 -0.142101 -0.145963
  H 5.084826 -2.372475 -3.543755
  H 5.117137 -0.748461 -4.160316
  H 2.670361 -0.500930 -3.703866
  H 2.636656 -2.169871 -3.072089
  H 6.785278 -0.589310 -1.194976
 23
 31.818944
  C 0.971634 0.368432 0.441996
  C 2.393704 0.132554 0.385872
  C 3.209908 0.554734 1.554305
  H 2.583154 0.806889 2.401840
  C 3.000272 -0.345640 -0.801272
  C 4.371586 -0.450742 -0.978668
  C 5.086559 -0.890060 -2.090746
  C 4.638349 -1.389828 -3.430503
  C 3.155751 -1.490813 -3.769175
  H 3.062930 -1.873309 -4.784362
  O 6.409609 -0.899430 -2.034895
  H 0.548016 0.835704 1.315888
  H 1.473083 -0.704734 0.663404
  H 0.375728 0.394920 -0.470451
  H 3.773711 1.445267 1.280577
  H 3.915136 -0.208705 1.856600
  H 2.340048 -0.618229 -1.599274
  H 4.986226 -0.141541 -0.143081
  H 5.103100 -2.376061 -3.552937
  H 5.132951 -0.748107 -4.170389
  H 2.673946 -0.515109 -3.742311
  H 2.642669 -2.187607 -3.108966
  H 6.771472 -0.580856 -1.182444
 23
 33.559095
  C 0.971668 0.377047 0.409522
  C 2.391696 0.123039 0.373166
  C 3.207754 0.544492 1.545456
  H 2.571742 0.797972 2.400406
  C 3.006246 -0.350632 -0.812363
  C 4.383932 -0.454434 -0.981735
  C 5.092785 -0.887147 -2.084293
  C 4.632534 -1.383281 -3.419390
  C 3.151031 -1.477257 -3.735214
  H 3.040312 -1.860527 -4.754922
  O 6.431699 -0.897551 -2.033177
  H 0.534293 0.861630 1.270932
  H 1.519977 -0.690337 0.679508
  H 0.383632 0.342537 -0.489107
  H 3.779049 1.440670 1.275198
  H 3.918828 -0.234797 1.851820
  H 2.339530 -0.625738 -1.628619
  H 5.000165 -0.145352 -0.138936
  H 5.090621 -2.367626 -3.548566
  H 5.118104 -0.744065 -4.161896
  H 2.676847 -0.504199 -3.699277
  H 2.648067 -2.168032 -3.070399
  H 6.789477 -0.586386 -1.198707
 23
 35.364463
  C 0.962574 0.398943 0.416866
  C 2.386019 0.120738 0.385447
  C 3.221402 0.546842 1.568141
  H 2.596644 0.800717 2.419141
  C 2.995939 -0.350230 -0.808141
  C 4.367021 -0.455520 -0.981450
  C 5.085044 -0.889455 -2.093188
  C 4.642342 -1.386655 -3.430449
  C 3.164292 -1.491860 -3.768683
  H 3.072854 -1.874877 -4.784376
  O 6.411080 -0.895392 -2.036319
  H 0.526098 0.887513 1.271490
  H 1.550842 -0.674807 0.710434
  H 0.372715 0.328974 -0.471877
  H 3.790478 1.430879 1.300484
  H 3.924540 -0.230286 1.869293
  H 2.334591 -0.618686 -1.608949
  H 4.981698 -0.150041 -0.140525
  H 5.109796 -2.370876 -3.553506
  H 5.134203 -0.741926 -4.168145
  H 2.681056 -0.519566 -3.741193
  H 2.654832 -2.188031 -3.109012
  H 6.769974 -0.576621 -1.182599
 23
 36.988458
  C 0.966864 0.404255 0.394450
  C 2.391036 0.109569 0.381917
  C 3.215796 0.540288 1.559623
  H 2.585931 0.794666 2.406550
  C 3.011914 -0.356230 -0.812162
  C 4.385656 -0.459442 -0.978797
  C 5.098911 -0.888018 -2.086675
  C 4.642419 -1.381740 -3.421737
  C 3.152784 -1.480015 -3.739041
  H 3.043017 -1.862952 -4.756636
  O 6.432718 -0.895330 -2.035859
  H 0.519972 0.894313 1.244768
  H 1.589122 -0.672725 0.711031
  H 0.380791 0.301674 -0.496887
  H 3.783693 1.422262 1.293934
  H 3.914714 -0.233592 1.864154
  H 2.348844 -0.627673 -1.625976
  H 4.998123 -0.156996 -0.136942
  H 5.106330 -2.370464 -3.553015
  H 5.128754 -0.735487 -4.166600
  H 2.674063 -0.503890 -3.702695
  H 2.649396 -2.174633 -3.070564
  H 6.792590 -0.581015 -1.191005
 23
 38.766850
  C 0.972563 0.416215 0.394796
  C 2.385780 0.104026 0.388843
  C 3.223523 0.544113 1.569410
  H 2.597089 0.798355 2.421407
  C 3.004760 -0.357152 -0.810794
  C 4.372263 -0.459655 -0.977386
  C 5.090884 -0.888143 -2.087471
  C 4.644799 -1.383110 -3.425688
  C 3.163117 -1.486307 -3.756499
  H 3.063360 -1.873985 -4.781729
  O 6.418803 -0.893741 -2.030118
  H 0.524033 0.909110 1.249051
  H 1.622530 -0.670810 0.725604
  H 0.386351 0.289568 -0.489256
  H 3.785097 1.421368 1.302054
  H 3.929134 -0.232376 1.872146
  H 2.341524 -0.627519 -1.619373
  H 4.986776 -0.159747 -0.128439
  H 5.112268 -2.370046 -3.551911
  H 5.134884 -0.735559 -4.165463
  H 2.682936 -0.515006 -3.726076
  H 2.657389 -2.178545 -3.093737
  H 6.775450 -0.577670 -1.179360
 23
 40.022640
  C 0.973523 0.425145 0.373827
  C 2.390189 0.088383 0.388275
  C 3.220715 0.535966 1.563595
  H 2.593908 0.789836 2.408047
  C 3.018059 -0.369153 -0.814633
  C 4.387974 -0.469929 -0.977631
  C 5.103363 -0.890171 -2.085360
  C 4.648923 -1.376405 -3.414659
  C 3.155291 -1.476470 -3.727600
  H 3.043793 -1.853568 -4.735305
  O 6.437208 -0.894861 -2.036036
  H 0.522717 0.907597 1.215803
  H 1.651782 -0.687592 0.725479
  H 0.385557 0.280796 -0.514844
  H 3.792298 1.430032 1.288111
  H 3.915413 -0.229367 1.868858
  H 2.359042 -0.635077 -1.626677
  H 4.992716 -0.175485 -0.139904
  H 5.115851 -2.364066 -3.550050
  H 5.133084 -0.724601 -4.157837
  H 2.671665 -0.495275 -3.688051
  H 2.651941 -2.177398 -3.055706
  H 6.798165 -0.582881 -1.188550
 23
 41.224642
  C 0.967090 0.445559 0.380959
  C 2.388466 0.082744 0.401306
  C 3.225583 0.538161 1.568666
  H 2.601395 0.792793 2.416588
  C 3.012226 -0.370370 -0.808605
  C 4.383028 -0.469918 -0.976620
  C 5.100103 -0.889265 -2.087293
  C 4.651032 -1.377952 -3.420289
  C 3.169455 -1.483745 -3.743869
  H 3.067555 -1.868101 -4.763387
  O 6.434975 -0.892581 -2.033471
  H 0.516627 0.923353 1.229459
  H 1.678189 -0.698281 0.743438
  H 0.374883 0.291579 -0.500141
  H 3.789467 1.426926 1.288805
  H 3.927436 -0.229949 1.875016
  H 2.349904 -0.635057 -1.615615
  H 4.994804 -0.177282 -0.130539
  H 5.118730 -2.358732 -3.551384
  H 5.134545 -0.728921 -4.157121
  H 2.685271 -0.509388 -3.711388
  H 2.666367 -2.181194 -3.078005
  H 6.794083 -0.581590 -1.184702
