 20
 0.000000
  H 1.420204 0.162407 0.461100
  C 2.500416 0.139581 0.401697
  C 3.243028 0.613470 1.574221
  H 2.570832 0.931880 2.365712
  C 3.053257 -0.334143 -0.775308
  C 4.432702 -0.419865 -0.990725
  C 5.124649 -0.870726 -2.116804
  C 4.621115 -1.389292 -3.412856
  C 3.132047 -1.499740 -3.690605
  H 3.001794 -1.901153 -4.694266
  O 6.435549 -0.862240 -2.096031
  H 3.897430 1.445779 1.308777
  H 3.899619 -0.168465 1.959961
  H 2.371900 -0.645610 -1.548083
  H 5.061189 -0.090718 -0.171521
  H 5.086401 -2.373405 -3.541744
  H 5.087269 -0.766402 -4.185131
  H 2.645381 -0.529078 -3.661648
  H 2.644600 -2.182343 -3.000347
  H 6.841974 -0.532762 -1.269924
 20
 13.559735
  H 1.385318 0.196566 0.545474
  C 2.461084 0.171345 0.480375
  C 3.224409 0.634352 1.626404
  H 2.571867 0.957934 2.430780
  C 3.046664 -0.346106 -0.805446
  C 4.414684 -0.430945 -1.018460
  C 5.093686 -0.879884 -2.139683
  C 4.617876 -1.397194 -3.432433
  C 3.132862 -1.514254 -3.726603
  H 3.016110 -1.915690 -4.730270
  O 6.544007 -0.866397 -2.106759
  H 3.882513 1.460698 1.346270
  H 3.884558 -0.153722 1.997242
  H 2.354507 -0.652273 -1.565338
  H 5.045827 -0.101975 -0.199310
  H 5.091285 -2.379302 -3.555932
  H 5.092148 -0.772111 -4.199445
  H 2.641626 -0.545374 -3.703310
  H 2.640916 -2.199448 -3.041706
  H 6.923585 -0.535583 -1.277793
 20
 40.455032
  H 1.354353 0.208043 0.569864
  C 2.424327 0.191921 0.529351
  C 3.236634 0.629892 1.617905
  H 2.627960 0.964975 2.451300
  C 3.020611 -0.355546 -0.832539
  C 4.393002 -0.431031 -1.020258
  C 5.015547 -0.883923 -2.150898
  C 4.621401 -1.399925 -3.439032
  C 3.139656 -1.519766 -3.738444
  H 3.017219 -1.919675 -4.736879
  O 6.645759 -0.859644 -2.091746
  H 3.898440 1.441821 1.310464
  H 3.899957 -0.167717 1.957311
  H 2.292173 -0.646631 -1.557662
  H 5.028814 -0.104041 -0.204008
  H 5.111116 -2.373603 -3.555143
  H 5.111676 -0.776346 -4.195366
  H 2.650614 -0.548524 -3.701950
  H 2.650660 -2.197327 -3.041682
  H 6.915405 -0.517828 -1.236233
 20
 72.399588
  H 1.321951 0.238305 0.645176
  C 2.394066 0.220302 0.599141
  C 3.256493 0.647650 1.662865
  H 2.691153 0.991931 2.520630
  C 2.973104 -0.351491 -0.824586
  C 4.341031 -0.431750 -1.024187
  C 4.932491 -0.884800 -2.153766
  C 4.610623 -1.404410 -3.448908
  C 3.138063 -1.550195 -3.813721
  H 3.073096 -1.953348 -4.819726
  O 6.765929 -0.846725 -2.059913
  H 3.927779 1.443239 1.326374
  H 3.928672 -0.159127 1.969506
  H 2.210154 -0.632592 -1.524160
  H 4.983689 -0.109266 -0.219536
  H 5.125987 -2.370265 -3.547124
  H 5.126434 -0.774137 -4.187099
  H 2.633608 -0.589978 -3.808323
  H 2.633219 -2.240770 -3.146744
  H 6.977149 -0.503205 -1.200956
 20
 96.563973
  H 1.327484 0.221580 0.614034
  C 2.406621 0.198647 0.535851
  C 3.240270 0.626800 1.624634
  H 2.655059 0.967596 2.477586
  C 2.910110 -0.307978 -0.746584
  C 4.278476 -0.410223 -1.005948
  C 4.810347 -0.874424 -2.148741
  C 4.568685 -1.398362 -3.434228
  C 3.093693 -1.558153 -3.825610
  H 3.048069 -1.970763 -4.833258
  O 7.076214 -0.843864 -2.042868
  H 3.925281 1.421308 1.302085
  H 3.914895 -0.179690 1.936996
  H 2.160580 -0.598118 -1.460822
  H 4.960087 -0.086611 -0.227400
  H 5.094577 -2.366314 -3.508339
  H 5.094662 -0.758195 -4.163712
  H 2.583070 -0.599378 -3.816427
  H 2.585343 -2.238640 -3.148736
  H 7.306602 -0.506435 -1.184379
 20
 106.124425
  H 1.332954 0.294934 0.711054
  C 2.399982 0.218693 0.566088
  C 3.288465 0.625930 1.646155
  H 2.736498 0.995893 2.506434
  C 2.792125 -0.272795 -0.666311
  C 4.173437 -0.419057 -1.028258
  C 4.585454 -0.877650 -2.167240
  C 4.567074 -1.402348 -3.458584
  C 3.111163 -1.606156 -3.908277
  H 3.141237 -2.013286 -4.921605
  O 7.192970 -0.817782 -2.003981
  H 3.983687 1.400685 1.308044
  H 3.924085 -0.206238 1.959838
  H 2.030034 -0.541131 -1.385547
  H 4.901188 -0.114082 -0.276220
  H 5.127764 -2.343613 -3.491609
  H 5.104567 -0.737312 -4.143899
  H 2.578600 -0.662548 -3.913592
  H 2.602521 -2.301422 -3.252092
  H 7.446232 -0.488785 -1.141725
 20
 107.577878
  H 1.316320 0.351719 0.860748
  C 2.370661 0.246083 0.625481
  C 3.342406 0.627672 1.656220
  H 2.852761 1.002360 2.551137
  C 2.665275 -0.231294 -0.596508
  C 4.027888 -0.420459 -1.049201
  C 4.423269 -0.879143 -2.179262
  C 4.570766 -1.400877 -3.458612
  C 3.135805 -1.649233 -4.005751
  H 3.249849 -2.057856 -5.011923
  O 7.325301 -0.799402 -1.944614
  H 4.017410 1.395695 1.284160
  H 3.967187 -0.218932 1.927863
  H 1.876676 -0.491872 -1.289182
  H 4.788765 -0.137427 -0.319492
  H 5.153628 -2.333912 -3.461174
  H 5.131886 -0.725878 -4.122682
  H 2.571849 -0.712233 -4.058252
  H 2.598125 -2.368093 -3.379032
  H 7.657875 -0.477473 -1.104457
 20
 107.686906
  H 1.315382 0.413380 0.959110
  C 2.340476 0.271020 0.673761
  C 3.367957 0.632749 1.668483
  H 2.918541 1.028144 2.586089
  C 2.572433 -0.221275 -0.554001
  C 3.905168 -0.440935 -1.070799
  C 4.308442 -0.898211 -2.196107
  C 4.568900 -1.397037 -3.459043
  C 3.161279 -1.679048 -4.069214
  H 3.329845 -2.073002 -5.066059
  O 7.469508 -0.791014 -1.922662
  H 4.048271 1.384346 1.265608
  H 3.978686 -0.237987 1.926877
  H 1.761795 -0.461965 -1.221573
  H 4.693858 -0.163747 -0.380831
  H 5.158882 -2.308162 -3.433223
  H 5.124752 -0.701576 -4.082376
  H 2.581574 -0.771059 -4.139973
  H 2.623135 -2.408591 -3.483145
  H 7.884521 -0.481362 -1.109410
 20
 107.178952
  H 1.282481 0.418826 1.041038
  C 2.304701 0.281727 0.705978
  C 3.376737 0.638376 1.653119
  H 2.972936 1.025504 2.586542
  C 2.489894 -0.209082 -0.532038
  C 3.796511 -0.448671 -1.089998
  C 4.214601 -0.914103 -2.203548
  C 4.576868 -1.395510 -3.448147
  C 3.186411 -1.682569 -4.091437
  H 3.386210 -2.068218 -5.083643
  O 7.633898 -0.803453 -1.912551
  H 4.037268 1.389484 1.226602
  H 3.990651 -0.228561 1.880447
  H 1.654015 -0.458118 -1.166371
  H 4.630267 -0.177097 -0.422086
  H 5.164211 -2.320815 -3.393840
  H 5.131030 -0.662318 -4.049658
  H 2.597073 -0.771266 -4.174345
  H 2.635907 -2.429413 -3.520766
  H 8.156766 -0.513926 -1.158736
 20
 105.948073
  H 1.238682 0.374115 0.956147
  C 2.272306 0.254833 0.662687
  C 3.303191 0.629707 1.646088
  H 2.860493 1.013302 2.559282
  C 2.511974 -0.230154 -0.575667
  C 3.838837 -0.438325 -1.092146
  C 4.284830 -0.888409 -2.202997
  C 4.653574 -1.389389 -3.432267
  C 3.194243 -1.627202 -3.959153
  H 3.313124 -2.035667 -4.959369
  O 7.557087 -0.843829 -2.023432
  H 3.971973 1.389898 1.238866
  H 3.924184 -0.231440 1.900219
  H 1.696994 -0.485112 -1.234338
  H 4.656578 -0.163385 -0.415165
  H 5.212544 -2.325400 -3.382730
  H 5.189514 -0.677507 -4.062215
  H 2.633848 -0.699780 -4.026343
  H 2.657826 -2.347950 -3.349447
  H 8.246637 -0.607511 -1.401458
