 16
 0.000000
  C 1.023062 0.132207 0.382493
  C 2.489264 0.133181 0.383353
  C 3.229729 0.604130 1.554553
  H 2.575175 0.927032 2.359032
  C 3.131898 -0.330790 -0.772193
  C 4.524034 -0.400820 -0.948580
  C 5.115933 -0.855550 -2.082026
  H 4.570553 -1.203161 -2.947737
  H 6.190337 -0.890229 -2.169388
  H 0.606518 0.508340 1.312503
  H 0.643352 -0.876924 0.205139
  H 0.645145 0.740571 -0.442761
  H 3.891000 1.428752 1.277909
  H 3.891923 -0.181947 1.925135
  H 2.506411 -0.660855 -1.592897
  H 5.154240 -0.072947 -0.132653
 16
 0.682670
  C 1.040098 0.163986 0.352450
  C 2.497312 0.038628 0.418712
  C 3.229636 0.571816 1.569431
  H 2.562793 0.943325 2.340635
  C 3.151010 -0.560317 -0.661935
  C 4.540794 -0.510058 -0.884992
  C 5.086164 -0.782420 -2.097821
  H 4.474869 -1.043609 -2.946291
  H 6.147874 -0.718424 -2.261987
  H 0.610564 0.556248 1.268571
  H 0.580536 -0.793367 0.099913
  H 0.764805 0.827307 -0.472621
  H 3.885535 1.387301 1.254597
  H 3.893536 -0.183839 1.992095
  H 2.541487 -0.989518 -1.446874
  H 5.189532 -0.206549 -0.075108
 16
 2.687426
  C 1.068956 0.239790 0.288817
  C 2.505449 -0.004821 0.436044
  C 3.218541 0.548968 1.591715
  H 2.537192 0.886630 2.367030
  C 3.172149 -0.685501 -0.583190
  C 4.528848 -0.467823 -0.900174
  C 5.040457 -0.745964 -2.123245
  H 4.411516 -1.048984 -2.943470
  H 6.086560 -0.612142 -2.335840
  H 0.599108 0.529031 1.224688
  H 0.553803 -0.608029 -0.157791
  H 0.930236 1.070155 -0.411616
  H 3.815969 1.410087 1.277421
  H 3.928999 -0.168844 2.002223
  H 2.589242 -1.270458 -1.283123
  H 5.185137 -0.070842 -0.137674
 16
 9.144068
  C 1.148097 0.322832 0.192459
  C 2.533156 -0.068589 0.462372
  C 3.208370 0.489372 1.640800
  H 2.494942 0.793434 2.401867
  C 3.199890 -0.885821 -0.437522
  C 4.503812 -0.516009 -0.866583
  C 4.941608 -0.667570 -2.137977
  H 4.251844 -0.832454 -2.961295
  H 5.963144 -0.510356 -2.395353
  H 0.633588 0.667918 1.084867
  H 0.569202 -0.460242 -0.284264
  H 1.187822 1.162460 -0.518110
  H 3.761077 1.390098 1.354991
  H 3.943700 -0.198786 2.052207
  H 2.624283 -1.504962 -1.126845
  H 5.207255 -0.171393 -0.128461
 16
 24.036318
  C 1.267840 0.371361 0.082474
  C 2.625803 -0.076425 0.446133
  C 3.221246 0.463629 1.681057
  H 2.447010 0.836877 2.343865
  C 3.230624 -1.058408 -0.313577
  C 4.447564 -0.475459 -0.818609
  C 4.764196 -0.540282 -2.131589
  H 4.011840 -0.570313 -2.901612
  H 5.788893 -0.492512 -2.460988
  H 0.707224 0.707361 0.950352
  H 0.705290 -0.397002 -0.441856
  H 1.367751 1.224531 -0.593033
  H 3.882066 1.309135 1.475143
  H 3.814233 -0.291698 2.190884
  H 2.697354 -1.787049 -0.907680
  H 5.242144 -0.257711 -0.114045
 16
 40.953555
  C 1.435716 0.432244 -0.079946
  C 2.735647 -0.114558 0.404981
  C 3.255391 0.411197 1.693577
  H 2.434092 0.805878 2.283487
  C 3.240116 -1.248527 -0.206591
  C 4.349089 -0.433258 -0.722323
  C 4.523490 -0.414363 -2.071605
  H 3.693405 -0.394388 -2.756460
  H 5.511220 -0.362668 -2.500473
  H 0.838417 0.809763 0.744530
  H 0.862540 -0.309157 -0.632292
  H 1.638767 1.267913 -0.749686
  H 3.956716 1.233900 1.554633
  H 3.760282 -0.370419 2.253756
  H 2.745211 -2.026335 -0.757847
  H 5.203830 -0.260070 -0.081980
 16
 48.372544
  C 1.610868 0.500632 -0.205877
  C 2.858836 -0.134365 0.360973
  C 3.307447 0.334624 1.722644
  H 2.463510 0.764093 2.253144
  C 3.239455 -1.370371 -0.166198
  C 4.242439 -0.364126 -0.612598
  C 4.281496 -0.316416 -1.991048
  H 3.384274 -0.229468 -2.581448
  H 5.219551 -0.351967 -2.521624
  H 0.990033 0.893542 0.592924
  H 1.024462 -0.205442 -0.788500
  H 1.896815 1.327065 -0.854399
  H 4.071156 1.106686 1.658565
  H 3.701832 -0.493715 2.303536
  H 2.764224 -2.168424 -0.698437
  H 5.152703 -0.242673 -0.040163
 16
 51.869037
  C 1.693017 0.531185 -0.274581
  C 2.954689 -0.080033 0.321084
  C 3.274398 0.301098 1.757057
  H 2.374267 0.634111 2.262164
  C 3.332259 -1.353643 -0.219905
  C 4.248432 -0.211155 -0.544275
  C 4.120870 -0.370301 -1.926350
  H 3.178009 -0.244375 -2.430776
  H 4.976511 -0.629681 -2.532759
  H 1.019665 0.843216 0.515861
  H 1.158336 -0.165534 -0.914628
  H 1.974694 1.402126 -0.865127
  H 3.996102 1.111809 1.790678
  H 3.675156 -0.548237 2.303784
  H 2.925239 -2.209232 -0.713310
  H 5.203685 -0.097557 -0.051990
 16
 46.765467
  C 1.724972 0.540460 -0.295654
  C 3.002774 -0.023351 0.295591
  C 3.249250 0.282831 1.759943
  H 2.322453 0.537389 2.263475
  C 3.430504 -1.306677 -0.356647
  C 4.289420 -0.102373 -0.497786
  C 4.013250 -0.471880 -1.834277
  H 3.074749 -0.270284 -2.319682
  H 4.796808 -0.882954 -2.445907
  H 1.022863 0.785328 0.491410
  H 1.228660 -0.146463 -0.976805
  H 1.975298 1.445585 -0.844234
  H 3.929198 1.122706 1.865134
  H 3.681794 -0.575150 2.266866
  H 3.004500 -2.183626 -0.794257
  H 5.252668 0.007626 -0.025750
 16
 39.380231
  C 1.759886 0.603981 -0.296325
  C 3.055130 0.057265 0.258184
  C 3.297930 0.268759 1.736488
  H 2.387514 0.558616 2.248844
  C 3.484269 -1.237835 -0.483042
  C 4.322553 -0.000652 -0.519822
  C 3.976420 -0.500011 -1.811422
  H 3.095916 -0.168850 -2.340407
  H 4.735601 -0.976730 -2.413243
  H 1.073800 0.841056 0.510096
  H 1.251612 -0.081049 -0.969791
  H 1.985874 1.516874 -0.853804
  H 4.037739 1.050599 1.896404
  H 3.666977 -0.643262 2.200314
  H 2.950328 -2.123752 -0.729114
  H 5.293921 0.079897 -0.064187
 16
 37.624367
  C 1.755510 0.586867 -0.275714
  C 3.076204 0.117791 0.269413
  C 3.310008 0.235278 1.750907
  H 2.449737 0.665532 2.254784
  C 3.491046 -1.233864 -0.526354
  C 4.309317 0.026839 -0.519762
  C 3.943135 -0.510884 -1.821271
  H 3.117917 -0.096557 -2.386200
  H 4.716068 -0.966316 -2.421354
  H 1.100891 0.894218 0.534113
  H 1.226627 -0.167636 -0.854678
  H 1.924737 1.436594 -0.940293
  H 4.176302 0.857832 1.959746
  H 3.493811 -0.742292 2.191323
  H 2.854007 -2.082254 -0.630275
  H 5.297900 0.053363 -0.088433
 16
 23.669702
  C 1.763308 0.718008 -0.303573
  C 3.062847 0.078757 0.221318
  C 3.235483 0.115252 1.725791
  H 2.365961 0.526810 2.226234
  C 3.380157 -1.192145 -0.552105
  C 4.289445 0.118644 -0.587226
  C 3.845070 -0.590926 -1.808367
  H 3.102195 -0.088415 -2.427436
  H 4.567412 -1.122005 -2.420636
  H 1.157935 1.047776 0.533413
  H 1.168972 0.023325 -0.888372
  H 2.018426 1.575992 -0.920910
  H 4.097333 0.720620 1.994415
  H 3.394188 -0.890151 2.108910
  H 3.497965 -2.192007 -0.179116
  H 5.296520 0.224976 -0.226387
