 25
 0.000000
  H 1.474678 0.064455 -0.006557
  C 2.553245 0.066319 -0.039629
  C 3.225592 -0.009360 1.301638
  C 2.241627 -0.074936 2.463684
  H 2.772176 -0.128360 3.410508
  C 3.188548 0.132728 -1.216515
  C 2.471146 0.207409 -2.540030
  C 0.946660 0.205664 -2.509042
  C 0.375493 0.285358 -3.921435
  C 4.645309 0.136913 -1.290638
  C 5.383382 0.199156 -2.393808
  H 6.460962 0.197552 -2.365352
  H 3.869400 0.865541 1.438289
  H 3.869403 -0.894081 1.338999
  H 1.604129 -0.952950 2.375535
  H 1.604118 0.807421 2.474870
  H 2.800586 -0.637815 -3.153031
  H 2.800586 1.116228 -3.054053
  H 0.581682 1.060732 -1.936486
  H 0.581681 -0.708387 -2.036312
  H 0.700457 1.197094 -4.418389
  H -0.711945 0.283630 -3.890799
  H 0.700458 -0.564691 -4.517803
  H 5.169478 0.083647 -0.346628
  H 4.984137 0.255538 -3.392997
 25
 10.534740
  H 1.476464 0.067462 -0.059858
  C 2.552811 0.069443 -0.094995
  C 3.282319 -0.012791 1.362435
  C 2.199707 -0.083304 2.611982
  H 2.723853 -0.136802 3.560121
  C 3.186897 0.135335 -1.262714
  C 2.467891 0.209940 -2.584883
  C 0.943274 0.207765 -2.546277
  C 0.364767 0.287291 -3.955690
  C 4.643494 0.139317 -1.333230
  C 5.383504 0.201425 -2.434024
  H 6.460931 0.199551 -2.400783
  H 3.920070 0.859809 1.502183
  H 3.920073 -0.895573 1.403133
  H 1.566250 -0.960143 2.514194
  H 1.566241 0.798968 2.613457
  H 2.795960 -0.635478 -3.198243
  H 2.795961 1.118992 -3.099243
  H 0.581681 1.062638 -1.971026
  H 0.581681 -0.706397 -2.070847
  H 0.687295 1.199112 -4.454132
  H -0.722497 0.285272 -3.919900
  H 0.687295 -0.562673 -4.553544
  H 5.163752 0.085920 -0.386918
  H 4.984704 0.257813 -3.433320
 25
 34.123249
  H 1.478866 0.069373 -0.093721
  C 2.548986 0.072463 -0.148501
  C 3.350745 -0.015903 1.417610
  C 2.153268 -0.090517 2.739810
  H 2.674473 -0.143784 3.683872
  C 3.185626 0.137763 -1.305731
  C 2.463195 0.212354 -2.627664
  C 0.938118 0.209476 -2.576622
  C 0.347796 0.288717 -3.980980
  C 4.644424 0.141252 -1.367536
  C 5.391396 0.203117 -2.463994
  H 6.468294 0.200579 -2.419001
  H 3.969569 0.854389 1.559774
  H 3.969574 -0.896664 1.460968
  H 1.533559 -0.966478 2.616545
  H 1.533553 0.793743 2.715871
  H 2.789558 -0.633577 -3.240899
  H 2.789557 1.121897 -3.141841
  H 0.582450 1.064004 -1.996709
  H 0.582451 -0.704863 -2.096522
  H 0.666573 1.200663 -4.481705
  H -0.739053 0.286239 -3.937068
  H 0.666571 -0.561108 -4.581111
  H 5.153731 0.087508 -0.415045
  H 4.994633 0.259546 -3.464063
 25
 62.424905
  H 1.466560 0.070045 -0.105640
  C 2.535232 0.074648 -0.187232
  C 3.418794 -0.019534 1.481952
  C 2.114272 -0.098634 2.883638
  H 2.644195 -0.151686 3.823859
  C 3.179411 0.140133 -1.347738
  C 2.456655 0.214853 -2.671933
  C 0.931996 0.211773 -2.617332
  C 0.338421 0.290920 -4.020009
  C 4.637655 0.143293 -1.403727
  C 5.387648 0.204941 -2.496338
  H 6.463922 0.201991 -2.444051
  H 4.025737 0.861958 1.624494
  H 4.025736 -0.911458 1.524423
  H 1.506037 -0.979677 2.736950
  H 1.506031 0.793314 2.836996
  H 2.783604 -0.631632 -3.283895
  H 2.783610 1.124813 -3.184788
  H 0.578886 1.065915 -2.035591
  H 0.578884 -0.702394 -2.135369
  H 0.656493 1.202852 -4.521191
  H -0.748284 0.288334 -3.974174
  H 0.656492 -0.558847 -4.620600
  H 5.138108 0.089309 -0.446995
  H 4.990849 0.261358 -3.496191
 25
 92.344638
  H 1.462196 0.071803 -0.136797
  C 2.525006 0.077780 -0.242717
  C 3.491316 -0.022239 1.529886
  C 2.082574 -0.105868 3.011845
  H 2.621287 -0.158417 3.943141
  C 3.164660 0.141862 -1.378371
  C 2.446119 0.216709 -2.704836
  C 0.921378 0.213691 -2.651322
  C 0.328659 0.292859 -4.054382
  C 4.622137 0.144375 -1.422883
  C 5.382809 0.205865 -2.512694
  H 6.458498 0.202300 -2.449494
  H 4.081717 0.863472 1.671332
  H 4.081723 -0.918239 1.570795
  H 1.489000 -0.988340 2.843221
  H 1.488988 0.789972 2.943566
  H 2.775277 -0.630411 -3.314577
  H 2.775276 1.127037 -3.215407
  H 0.568923 1.067731 -2.068878
  H 0.568924 -0.700448 -2.168651
  H 0.647499 1.204769 -4.555197
  H -0.758033 0.290338 -4.009691
  H 0.647498 -0.556922 -4.654601
  H 5.110434 0.089998 -0.459178
  H 4.991063 0.262396 -3.514566
 25
 119.003329
  H 1.430105 0.068109 -0.071177
  C 2.475508 0.079540 -0.273795
  C 3.574168 -0.024555 1.570990
  C 2.046755 -0.112080 3.121785
  H 2.638976 -0.162355 4.012627
  C 3.142202 0.143423 -1.405955
  C 2.437142 0.218733 -2.740712
  C 0.913018 0.215748 -2.687779
  C 0.319359 0.294823 -4.089233
  C 4.604219 0.144794 -1.430229
  C 5.369646 0.205117 -2.499426
  H 6.443144 0.200453 -2.416769
  H 4.130031 0.878000 1.712806
  H 4.130028 -0.937355 1.610364
  H 1.507026 -1.004198 2.879747
  H 1.507003 0.801635 2.981648
  H 2.772723 -0.627892 -3.348931
  H 2.772728 1.128409 -3.249838
  H 0.562706 1.068912 -2.101166
  H 0.562710 -0.697973 -2.200870
  H 0.638562 1.206719 -4.589849
  H -0.767297 0.292292 -4.044334
  H 0.638566 -0.554986 -4.689256
  H 5.064018 0.089755 -0.454755
  H 4.981049 0.261631 -3.501111
 25
 145.647193
  H 1.417700 0.068641 -0.080571
  C 2.459828 0.081227 -0.303653
  C 3.639573 -0.028554 1.641887
  C 2.010577 -0.120882 3.277869
  H 2.612684 -0.171031 4.166520
  C 3.130587 0.145291 -1.439063
  C 2.426312 0.221069 -2.782109
  C 0.902056 0.218161 -2.730546
  C 0.309007 0.297297 -4.133065
  C 4.592772 0.146390 -1.458537
  C 5.380582 0.207972 -2.550038
  H 6.454957 0.203066 -2.463105
  H 4.188514 0.883687 1.784192
  H 4.188503 -0.951018 1.680660
  H 1.479821 -1.018031 3.019694
  H 1.479824 0.799609 3.122269
  H 2.762686 -0.626121 -3.387928
  H 2.762690 1.131028 -3.288783
  H 0.552535 1.070485 -2.144613
  H 0.552529 -0.694670 -2.244205
  H 0.628658 1.209153 -4.633472
  H -0.777589 0.294818 -4.089107
  H 0.628654 -0.552478 -4.732860
  H 5.046817 0.091003 -0.476854
  H 4.994849 0.264671 -3.555002
 25
 168.528980
  H 1.416733 0.065538 -0.025672
  C 2.433261 0.082874 -0.332923
  C 3.739942 -0.029598 1.660292
  C 1.964945 -0.125797 3.364899
  H 2.594385 -0.174224 4.223053
  C 3.107785 0.146282 -1.456664
  C 2.418053 0.222544 -2.808229
  C 0.894053 0.219543 -2.755007
  C 0.297233 0.298561 -4.155421
  C 4.571084 0.146399 -1.458713
  C 5.364101 0.206724 -2.527895
  H 6.435730 0.200975 -2.425997
  H 4.247307 0.898000 1.803319
  H 4.247302 -0.967402 1.698058
  H 1.488754 -1.022197 3.043591
  H 1.488736 0.801083 3.146473
  H 2.758242 -0.627941 -3.405743
  H 2.758241 1.134838 -3.306274
  H 0.547980 1.072093 -2.166414
  H 0.547974 -0.693810 -2.266054
  H 0.615571 1.210326 -4.656553
  H -0.789052 0.295930 -4.108727
  H 0.615573 -0.551058 -4.755949
  H 5.003175 0.090521 -0.468362
  H 4.990496 0.263539 -3.534873
 25
 188.995119
  H 1.408648 0.067217 -0.055419
  C 2.422728 0.085038 -0.371278
  C 3.808267 -0.032856 1.718039
  C 1.936137 -0.134465 3.518542
  H 2.574002 -0.182795 4.375002
  C 3.096222 0.148272 -1.491949
  C 2.408852 0.224669 -2.845910
  C 0.885054 0.221810 -2.795213
  C 0.291421 0.300877 -4.196543
  C 4.559627 0.148144 -1.489661
  C 5.353778 0.208181 -2.553732
  H 6.425383 0.202224 -2.448161
  H 4.314748 0.898243 1.860752
  H 4.314746 -0.974110 1.755100
  H 1.463180 -1.034742 3.190485
  H 1.463171 0.797015 3.293847
  H 2.750278 -0.626343 -3.442562
  H 2.750290 1.137419 -3.343059
  H 0.537954 1.074670 -2.206998
  H 0.537956 -0.691794 -2.306675
  H 0.610984 1.212746 -4.697052
  H -0.795037 0.298368 -4.152044
  H 0.610987 -0.548915 -4.796456
  H 4.988272 0.092159 -0.497434
  H 4.982544 0.265095 -3.562454
 25
 206.264753
  H 1.395251 0.068377 -0.075965
  C 2.404715 0.086980 -0.405670
  C 3.877385 -0.035935 1.772636
  C 1.914004 -0.143398 3.676875
  H 2.564635 -0.191138 4.522868
  C 3.079129 0.150044 -1.523329
  C 2.398202 0.226720 -2.882226
  C 0.874122 0.224236 -2.838178
  C 0.286714 0.303483 -4.242687
  C 4.541552 0.149475 -1.513237
  C 5.341057 0.209240 -2.572488
  H 6.412081 0.202941 -2.460849
  H 4.383574 0.897750 1.913379
  H 4.383570 -0.979533 1.807449
  H 1.449006 -1.043923 3.341126
  H 1.449000 0.789185 3.444566
  H 2.742506 -0.624400 -3.476445
  H 2.742507 1.139276 -3.376930
  H 0.525071 1.076503 -2.251729
  H 0.525068 -0.688591 -2.351323
  H 0.608722 1.215200 -4.741735
  H -0.799922 0.301252 -4.203111
  H 0.608721 -0.546315 -4.841126
  H 4.963658 0.093259 -0.516896
  H 4.974887 0.266281 -3.583455
 25
 220.351714
  H 1.378125 0.069485 -0.095628
  C 2.382228 0.088892 -0.439577
  C 3.945707 -0.038855 1.824375
  C 1.896249 -0.152506 3.838239
  H 2.563009 -0.199528 4.671536
  C 3.058774 0.151731 -1.553248
  C 2.386322 0.228703 -2.917396
  C 0.862342 0.226653 -2.881009
  C 0.282611 0.306066 -4.288441
  C 4.522829 0.150617 -1.533502
  C 5.329426 0.210040 -2.586689
  H 6.399500 0.203306 -2.467341
  H 4.453413 0.895732 1.962146
  H 4.453406 -0.983007 1.856134
  H 1.439195 -1.054142 3.494294
  H 1.439188 0.782106 3.597910
  H 2.734211 -0.622898 -3.508915
  H 2.734213 1.141440 -3.409366
  H 0.510599 1.079263 -2.295979
  H 0.510597 -0.686353 -2.395602
  H 0.607524 1.217710 -4.785753
  H -0.804149 0.304156 -4.254542
  H 0.607525 -0.543861 -4.885152
  H 4.936561 0.094201 -0.533615
  H 4.970213 0.267204 -3.599833
 25
 231.468460
  H 1.358050 0.070529 -0.114128
  C 2.357009 0.090703 -0.471673
  C 4.014053 -0.041749 1.875673
  C 1.884196 -0.161899 4.004702
  H 2.568043 -0.208084 4.823163
  C 3.036665 0.153312 -1.581253
  C 2.374555 0.230622 -2.951403
  C 0.850562 0.229105 -2.924472
  C 0.279839 0.308732 -4.335697
  C 4.500816 0.151587 -1.550671
  C 5.315059 0.210654 -2.597549
  H 6.384215 0.203458 -2.469998
  H 4.526634 0.893580 2.009831
  H 4.526633 -0.986243 1.903760
  H 1.434840 -1.063691 3.653756
  H 1.434830 0.773661 3.757432
  H 2.726646 -0.621318 -3.539647
  H 2.726649 1.143327 -3.440081
  H 0.495751 1.081534 -2.341550
  H 0.495747 -0.683490 -2.441136
  H 0.608193 1.220266 -4.830933
  H -0.807123 0.307207 -4.308630
  H 0.608193 -0.541314 -4.930330
  H 4.905836 0.094936 -0.546622
  H 4.963178 0.267975 -3.613475
 25
 239.912916
  H 1.335880 0.071604 -0.133171
  C 2.329911 0.092457 -0.502759
  C 4.082430 -0.044639 1.926911
  C 1.877976 -0.171551 4.175769
  H 2.579737 -0.216870 4.978894
  C 3.013402 0.154806 -1.607754
  C 2.362486 0.232467 -2.984131
  C 0.838512 0.231524 -2.967359
  C 0.277511 0.311367 -4.382428
  C 4.478624 0.152423 -1.565510
  C 5.300902 0.211098 -2.605445
  H 6.368867 0.203410 -2.469187
  H 4.603157 0.889768 2.056889
  H 4.603150 -0.987737 1.950949
  H 1.434887 -1.074131 3.818688
  H 1.434886 0.765465 3.922496
  H 2.719028 -0.619903 -3.568961
  H 2.719035 1.145223 -3.469374
  H 0.480258 1.084090 -2.386510
  H 0.480257 -0.680966 -2.486101
  H 0.609532 1.222781 -4.875404
  H -0.809552 0.310254 -4.362658
  H 0.609529 -0.538809 -4.974796
  H 4.874651 0.095563 -0.557763
  H 4.957123 0.268559 -3.623867
 25
 245.986953
  H 1.312349 0.072658 -0.151867
  C 2.302066 0.094103 -0.531929
  C 4.151767 -0.047617 1.979683
  C 1.878664 -0.181516 4.352282
  H 2.597903 -0.225932 5.139400
  C 2.989953 0.156193 -1.632324
  C 2.350898 0.234204 -3.014883
  C 0.827026 0.233870 -3.008906
  C 0.276228 0.313941 -4.427993
  C 4.455372 0.153139 -1.578186
  C 5.285498 0.211429 -2.611277
  H 6.352386 0.203258 -2.466455
  H 4.684693 0.885001 2.105257
  H 4.684692 -0.988452 1.999545
  H 1.440764 -1.084269 3.990636
  H 1.440750 0.756212 4.094486
  H 2.712017 -0.618538 -3.596132
  H 2.712018 1.146918 -3.496519
  H 0.465211 1.086357 -2.430409
  H 0.465210 -0.678276 -2.529978
  H 0.612084 1.225225 -4.918571
  H -0.810952 0.313261 -4.415904
  H 0.612086 -0.536390 -5.017976
  H 4.842793 0.096080 -0.566920
  H 4.949622 0.269048 -3.632484
