 14
 0.000000
  H 1.432682 -0.076260 0.038347
  C 2.506552 -0.083182 0.024759
  C 3.218272 -0.594728 -0.979491
  C 4.656330 -0.606187 -1.001982
  C 5.379834 -1.120199 -2.011069
  C 6.818297 -1.130603 -2.031495
  C 7.530798 -1.641606 -3.034688
  H 8.604439 -1.654386 -3.059772
  H 3.003571 0.351775 0.878655
  H 2.704613 -1.027667 -1.829410
  H 5.159305 -0.171134 -0.147906
  H 4.877340 -1.555327 -2.865305
  H 7.326523 -0.696700 -1.179669
  H 7.034083 -2.076976 -3.889378
 14
 -0.010680
  H 1.431254 -0.097036 0.039388
  C 2.507927 -0.070774 0.029172
  C 3.220350 -0.611536 -0.957518
  C 4.658224 -0.606682 -1.000608
  C 5.378626 -1.090287 -2.026285
  C 6.816623 -1.133674 -2.044288
  C 7.527542 -1.642359 -3.048803
  H 8.601011 -1.684318 -3.025973
  H 2.982254 0.422680 0.857404
  H 2.718112 -1.108159 -1.778339
  H 5.165554 -0.187057 -0.141519
  H 4.872758 -1.498199 -2.890107
  H 7.320576 -0.743130 -1.167976
  H 7.051852 -2.032584 -3.932826
 14
 0.351664
  H 1.433681 -0.135060 0.057581
  C 2.507953 -0.078296 0.031196
  C 3.221274 -0.628263 -0.949025
  C 4.659182 -0.596490 -1.006789
  C 5.381666 -1.047771 -2.046084
  C 6.817878 -1.129644 -2.047136
  C 7.525773 -1.640038 -3.052573
  H 8.597138 -1.729214 -3.009332
  H 2.979222 0.462005 0.836434
  H 2.721312 -1.172985 -1.738437
  H 5.165141 -0.192490 -0.139434
  H 4.875298 -1.430822 -2.923530
  H 7.320757 -0.784477 -1.153667
  H 7.051744 -1.984603 -3.957359
 14
 0.708404
  H 1.432357 -0.131445 0.051515
  C 2.506554 -0.064084 0.020748
  C 3.224424 -0.661381 -0.927687
  C 4.662227 -0.609310 -0.996337
  C 5.382307 -1.053991 -2.040379
  C 6.818604 -1.136357 -2.050014
  C 7.524380 -1.611566 -3.073319
  H 8.594359 -1.714797 -3.029405
  H 2.972856 0.531754 0.790163
  H 2.733734 -1.264404 -1.678756
  H 5.171881 -0.202091 -0.132196
  H 4.874497 -1.434761 -2.918433
  H 7.321626 -0.847430 -1.135269
  H 7.051565 -1.899595 -3.999437
 14
 0.891094
  H 1.440306 -0.155109 0.071461
  C 2.511665 -0.088502 0.036297
  C 3.221731 -0.642699 -0.942050
  C 4.661980 -0.609907 -1.004933
  C 5.379365 -1.054046 -2.051053
  C 6.815126 -1.158850 -2.045220
  C 7.530246 -1.591347 -3.081783
  H 8.596344 -1.735275 -3.016983
  H 2.985059 0.482200 0.822013
  H 2.727338 -1.230652 -1.710017
  H 5.173085 -0.215185 -0.138536
  H 4.868811 -1.401305 -2.941861
  H 7.305665 -0.945169 -1.103910
  H 7.074469 -1.800955 -4.034454
 14
 1.009353
  H 1.436992 -0.135982 0.041399
  C 2.511864 -0.089075 0.017724
  C 3.226149 -0.678266 -0.937288
  C 4.666036 -0.652176 -0.992475
  C 5.383279 -1.043035 -2.058555
  C 6.817539 -1.164265 -2.049492
  C 7.529550 -1.602776 -3.087485
  H 8.595700 -1.742682 -3.034373
  H 2.982530 0.485614 0.799583
  H 2.728369 -1.257920 -1.702479
  H 5.177976 -0.309361 -0.099911
  H 4.875219 -1.348417 -2.964566
  H 7.315381 -0.938279 -1.114749
  H 7.064414 -1.827681 -4.035156
 14
 0.761509
  H 1.432939 -0.172304 0.057700
  C 2.506940 -0.112482 0.036204
  C 3.226047 -0.650393 -0.946638
  C 4.664811 -0.624601 -0.995428
  C 5.384931 -1.011237 -2.061235
  C 6.816826 -1.152343 -2.047559
  C 7.520835 -1.626389 -3.073583
  H 8.584209 -1.779562 -3.015177
  H 2.973974 0.422719 0.847126
  H 2.734805 -1.194014 -1.743701
  H 5.173122 -0.289776 -0.099715
  H 4.878741 -1.318248 -2.968278
  H 7.316364 -0.905013 -1.119123
  H 7.051585 -1.874208 -4.012300
 14
 0.599532
  H 1.435899 -0.194333 0.071221
  C 2.506406 -0.136014 0.050960
  C 3.221280 -0.624762 -0.959811
  C 4.663535 -0.600182 -1.008116
  C 5.386927 -1.002456 -2.066881
  C 6.820784 -1.143382 -2.050775
  C 7.521282 -1.650541 -3.062832
  H 8.583704 -1.783118 -3.007048
  H 2.977001 0.342065 0.892785
  H 2.726616 -1.114610 -1.790874
  H 5.170514 -0.261655 -0.114224
  H 4.882937 -1.321455 -2.973400
  H 7.323602 -0.854941 -1.131675
  H 7.045642 -1.942466 -3.991038
