 22
 0.000000
  C 1.030533 0.093540 0.324418
  C 2.500334 0.107788 0.377453
  C 3.241338 0.597236 1.552128
  C 2.422400 1.092693 2.732969
  H 3.092629 1.421752 3.524807
  C 3.168144 -0.361827 -0.747753
  C 4.556469 -0.429177 -0.936192
  C 5.173917 -0.867392 -2.085178
  C 4.547682 -1.337502 -3.318376
  H 3.462449 -1.332965 -3.303537
  H 6.257379 -0.867859 -2.093062
  H 0.563125 0.478112 1.222713
  H 0.678002 -0.923990 0.146430
  H 0.686107 0.673538 -0.535618
  H 3.909504 1.400044 1.221860
  H 3.905976 -0.204467 1.892293
  H 1.790966 0.304988 3.137149
  H 1.795285 1.936687 2.455736
  H 2.540234 -0.696640 -1.562521
  H 5.197228 -0.115318 -0.123886
  H 4.908372 -2.344260 -3.538688
  H 4.906002 -0.731655 -4.153029
 22
 0.075796
  C 1.027097 0.115968 0.326507
  C 2.494553 0.076312 0.383422
  C 3.241259 0.575533 1.555600
  C 2.420540 1.072703 2.739266
  H 3.090137 1.388272 3.535346
  C 3.154056 -0.397932 -0.746987
  C 4.540159 -0.378516 -0.960680
  C 5.165679 -0.827002 -2.098261
  C 4.549430 -1.401577 -3.293147
  H 3.468069 -1.467683 -3.253110
  H 6.244942 -0.751637 -2.128641
  H 0.558767 0.288979 1.284775
  H 0.619807 -0.776653 -0.144491
  H 0.769856 0.947243 -0.337859
  H 3.901709 1.385473 1.220823
  H 3.915398 -0.220128 1.896079
  H 1.781552 0.288943 3.138718
  H 1.803680 1.924822 2.465365
  H 2.532213 -0.801998 -1.533097
  H 5.171513 0.023871 -0.180687
  H 4.972211 -2.393683 -3.469503
  H 4.848649 -0.816853 -4.166494
 22
 4.484416
  C 1.028680 0.068546 0.365645
  C 2.488497 0.083488 0.371839
  C 3.246144 0.583955 1.546144
  C 2.414982 1.074758 2.731177
  H 3.081771 1.409260 3.525308
  C 3.140504 -0.394786 -0.763874
  C 4.520177 -0.325286 -0.993632
  C 5.157664 -0.805188 -2.111149
  C 4.553190 -1.439481 -3.286504
  H 3.474699 -1.553880 -3.226488
  H 6.237200 -0.715911 -2.140482
  H 0.522925 0.121774 1.315443
  H 0.574447 -0.581896 -0.371367
  H 1.001042 1.087488 -0.087581
  H 3.912765 1.392002 1.223984
  H 3.896597 -0.232081 1.883151
  H 1.793183 0.281916 3.138977
  H 1.781810 1.915604 2.453234
  H 2.527290 -0.869788 -1.519260
  H 5.138746 0.152581 -0.246016
  H 5.015210 -2.417185 -3.443066
  H 4.809372 -0.861152 -4.178106
 22
 21.406905
  C 1.014202 0.034384 0.408290
  C 2.452062 0.094839 0.368785
  C 3.236623 0.588226 1.538824
  C 2.413002 1.038385 2.740238
  H 3.084023 1.308441 3.552250
  C 3.121781 -0.433044 -0.750351
  C 4.487664 -0.310791 -0.998354
  C 5.130738 -0.755676 -2.128962
  C 4.548257 -1.470938 -3.271720
  H 3.482865 -1.647951 -3.184753
  H 6.192008 -0.560125 -2.205006
  H 0.457596 0.289064 1.289176
  H 0.502159 -0.528793 -0.356401
  H 1.410609 1.007371 -0.158244
  H 3.876833 1.415703 1.222420
  H 3.895189 -0.227617 1.847800
  H 1.768176 0.241260 3.101023
  H 1.810053 1.912878 2.508281
  H 2.525068 -0.945473 -1.489608
  H 5.097779 0.183538 -0.257368
  H 5.062531 -2.425138 -3.397475
  H 4.747576 -0.910917 -4.186824
 22
 36.620850
  C 0.994170 -0.036373 0.462362
  C 2.407460 0.119370 0.362513
  C 3.223786 0.623342 1.529530
  C 2.411334 1.048508 2.747701
  H 3.089740 1.359536 3.537793
  C 3.094840 -0.425672 -0.774328
  C 4.463562 -0.318340 -1.003864
  C 5.116897 -0.771340 -2.121413
  C 4.536580 -1.457622 -3.285704
  H 3.463193 -1.594330 -3.227459
  H 6.187778 -0.628557 -2.162482
  H 0.440523 0.232809 1.341763
  H 0.458642 -0.532896 -0.331899
  H 1.745718 0.977226 -0.211021
  H 3.837566 1.465867 1.206322
  H 3.900319 -0.181848 1.821430
  H 1.815607 0.225817 3.133577
  H 1.762179 1.890944 2.523194
  H 2.495735 -0.940221 -1.510577
  H 5.069331 0.169136 -0.254366
  H 5.016016 -2.430661 -3.405112
  H 4.779576 -0.899140 -4.191073
 22
 40.811803
  C 0.982642 -0.093630 0.495092
  C 2.368684 0.204451 0.331236
  C 3.209391 0.660236 1.522881
  C 2.409420 1.025879 2.768276
  H 3.094821 1.328436 3.556175
  C 3.076075 -0.361922 -0.818329
  C 4.442580 -0.284568 -1.029331
  C 5.100711 -0.796470 -2.123473
  C 4.519925 -1.495334 -3.277161
  H 3.441602 -1.592930 -3.239491
  H 6.176663 -0.687819 -2.147879
  H 0.455519 0.124215 1.402789
  H 0.427844 -0.536618 -0.314289
  H 2.038789 1.100538 -0.296066
  H 3.810646 1.522696 1.231458
  H 3.896510 -0.148823 1.776543
  H 1.840807 0.177333 3.138672
  H 1.733721 1.856659 2.580570
  H 2.459898 -0.859398 -1.553965
  H 5.049537 0.201646 -0.280913
  H 4.968104 -2.487031 -3.358570
  H 4.804522 -0.973539 -4.192329
 22
 42.536945
  C 0.980500 -0.052442 0.502413
  C 2.354093 0.208482 0.352675
  C 3.199228 0.671091 1.535834
  C 2.407157 1.008519 2.793031
  H 3.096349 1.301562 3.580828
  C 3.055227 -0.336627 -0.830110
  C 4.432317 -0.273453 -1.041511
  C 5.079935 -0.800197 -2.126775
  C 4.493112 -1.513791 -3.268557
  H 3.414420 -1.608678 -3.227705
  H 6.156753 -0.700741 -2.155401
  H 0.459450 0.145904 1.418276
  H 0.408220 -0.461842 -0.311484
  H 2.328063 1.013107 -0.499991
  H 3.778483 1.549172 1.250263
  H 3.905695 -0.125170 1.776381
  H 1.845796 0.150117 3.151841
  H 1.724802 1.837729 2.623085
  H 2.436015 -0.849424 -1.551133
  H 5.041251 0.217765 -0.296188
  H 4.938455 -2.507698 -3.336281
  H 4.776890 -1.005703 -4.191819
 22
 39.049206
  C 0.988699 -0.021460 0.509306
  C 2.337461 0.191073 0.386956
  C 3.191738 0.660840 1.541419
  C 2.419478 0.984733 2.816101
  H 3.120049 1.282463 3.592124
  C 3.021718 -0.272246 -0.848415
  C 4.422802 -0.234781 -1.057509
  C 5.066315 -0.790837 -2.120864
  C 4.476680 -1.527994 -3.247849
  H 3.397485 -1.616820 -3.206848
  H 6.143589 -0.700744 -2.150684
  H 0.460893 0.193335 1.418321
  H 0.406342 -0.408270 -0.308704
  H 2.486092 0.878246 -0.713859
  H 3.751113 1.549906 1.245634
  H 3.915951 -0.126100 1.762651
  H 1.873665 0.118881 3.180554
  H 1.726853 1.808201 2.662127
  H 2.408509 -0.816769 -1.554167
  H 5.029290 0.267644 -0.318558
  H 4.917324 -2.525021 -3.292602
  H 4.762968 -1.042570 -4.182147
 22
 28.345606
  C 0.977805 0.008153 0.504703
  C 2.309112 0.212437 0.407369
  C 3.176005 0.677554 1.532173
  C 2.440428 0.930678 2.844786
  H 3.156259 1.237983 3.603213
  C 2.958044 -0.146573 -0.900150
  C 4.386359 -0.152020 -1.087535
  C 5.038220 -0.777217 -2.103426
  C 4.453625 -1.571527 -3.190023
  H 3.372932 -1.639164 -3.161384
  H 6.117510 -0.699254 -2.125207
  H 0.437020 0.192623 1.414593
  H 0.399233 -0.361340 -0.324820
  H 2.567899 0.923577 -1.015332
  H 3.686192 1.599507 1.243886
  H 3.944379 -0.082529 1.695121
  H 1.946454 0.030425 3.201065
  H 1.705460 1.725376 2.741033
  H 2.354886 -0.753676 -1.564966
  H 4.984664 0.383087 -0.365498
  H 4.879100 -2.576661 -3.168645
  H 4.764961 -1.151596 -4.147919
 22
 19.901006
  C 0.983274 0.017288 0.512459
  C 2.315769 0.199904 0.412000
  C 3.195256 0.640651 1.527186
  C 2.490871 0.890578 2.855669
  H 3.226644 1.158675 3.609601
  C 2.920801 -0.059355 -0.937014
  C 4.368794 -0.085919 -1.100262
  C 5.036644 -0.761410 -2.074755
  C 4.466157 -1.606470 -3.128602
  H 3.386401 -1.694011 -3.096065
  H 6.116301 -0.685680 -2.083955
  H 0.447056 0.167073 1.431922
  H 0.393322 -0.305141 -0.328612
  H 2.560731 0.929886 -1.303779
  H 3.711830 1.559434 1.234750
  H 3.965581 -0.125376 1.663079
  H 1.970697 0.000140 3.199040
  H 1.779916 1.709262 2.779918
  H 2.370312 -0.792915 -1.521524
  H 4.954776 0.492788 -0.402011
  H 4.913037 -2.601483 -3.077035
  H 4.771340 -1.215187 -4.101722
 22
 17.613285
  C 0.966382 0.101619 0.514905
  C 2.311799 0.181292 0.421290
  C 3.198398 0.609500 1.533478
  C 2.508261 0.889620 2.862172
  H 3.253066 1.146406 3.611078
  C 2.904168 -0.132159 -0.912893
  C 4.358696 -0.096128 -1.082929
  C 5.037119 -0.715487 -2.085241
  C 4.480584 -1.562012 -3.145615
  H 3.400836 -1.653781 -3.121800
  H 6.111635 -0.590606 -2.114656
  H 0.431346 0.330539 1.418172
  H 0.363042 -0.215401 -0.319015
  H 2.473360 0.690495 -1.516018
  H 3.738295 1.510935 1.226238
  H 3.955012 -0.170223 1.674326
  H 1.965528 0.016445 3.215149
  H 1.817270 1.724901 2.781998
  H 2.450924 -1.026669 -1.347333
  H 4.930117 0.494433 -0.383415
  H 4.928313 -2.556794 -3.086629
  H 4.796860 -1.173942 -4.115731
 22
 17.792618
  C 0.966554 0.215478 0.482502
  C 2.317112 0.175340 0.429107
  C 3.200767 0.595910 1.545679
  C 2.508124 0.854208 2.877447
  H 3.250109 1.107973 3.630067
  C 2.909949 -0.234334 -0.874545
  C 4.357128 -0.099519 -1.079271
  C 5.037419 -0.664283 -2.110906
  C 4.484669 -1.520495 -3.167041
  H 3.401075 -1.558698 -3.179517
  H 6.102500 -0.483780 -2.170926
  H 0.428436 0.616338 1.322724
  H 0.347804 -0.164221 -0.313063
  H 2.392778 0.428994 -1.591831
  H 3.733522 1.505822 1.248527
  H 3.964872 -0.177335 1.678051
  H 1.970365 -0.027628 3.216466
  H 1.809797 1.684475 2.810220
  H 2.554597 -1.229298 -1.165220
  H 4.911975 0.503585 -0.377718
  H 4.872268 -2.535522 -3.047000
  H 4.859187 -1.190031 -4.136222
 22
 16.770283
  C 0.956121 0.185496 0.501182
  C 2.305238 0.209019 0.412455
  C 3.193509 0.617319 1.531070
  C 2.510568 0.867020 2.869074
  H 3.259000 1.107335 3.619691
  C 2.908323 -0.199392 -0.887140
  C 4.362312 -0.107299 -1.064426
  C 5.039866 -0.679565 -2.095030
  C 4.476842 -1.510660 -3.165693
  H 3.392907 -1.529206 -3.186559
  H 6.110547 -0.528841 -2.140092
  H 0.430632 0.459890 1.397278
  H 0.344206 -0.111362 -0.333820
  H 2.422185 0.413767 -1.665346
  H 3.722323 1.529177 1.234970
  H 3.959264 -0.155032 1.654982
  H 1.969937 -0.014244 3.204135
  H 1.818953 1.703398 2.812892
  H 2.557699 -1.210313 -1.138251
  H 4.929583 0.469418 -0.350947
  H 4.845736 -2.534298 -3.054202
  H 4.865257 -1.178647 -4.128692
