 13
 0.000000
  H 1.434086 0.128977 0.374638
  C 2.516913 0.131026 0.378226
  C 3.191494 0.609150 1.565798
  H 2.498098 0.920207 2.340963
  C 3.148699 -0.329547 -0.768567
  C 4.547387 -0.400354 -0.944762
  C 5.097166 -0.863688 -2.101059
  H 4.482427 -1.193268 -2.924664
  H 6.163696 -0.917250 -2.233570
  H 3.872421 1.434762 1.322059
  H 3.873750 -0.154541 1.960989
  H 2.531015 -0.660211 -1.592870
  H 5.197435 -0.079384 -0.142069
 13
 9.788372
  H 1.395748 0.155862 0.441425
  C 2.474790 0.159544 0.449250
  C 3.159978 0.630361 1.618682
  H 2.476566 0.944181 2.400574
  C 3.176851 -0.354360 -0.830257
  C 4.564183 -0.419524 -0.992479
  C 5.122774 -0.881821 -2.146198
  H 4.514471 -1.212757 -2.973116
  H 6.190681 -0.932519 -2.271673
  H 3.842469 1.451325 1.366503
  H 3.843747 -0.135783 2.004590
  H 2.554585 -0.682275 -1.647772
  H 5.207141 -0.096539 -0.184945
 13
 29.551247
  H 1.340969 0.169788 0.476245
  C 2.413409 0.184626 0.511837
  C 3.161087 0.637027 1.635317
  H 2.527702 0.963994 2.449796
  C 3.176488 -0.384331 -0.904712
  C 4.552424 -0.428030 -1.013589
  C 5.143766 -0.879188 -2.139701
  H 4.564306 -1.215983 -2.981553
  H 6.216634 -0.916827 -2.232496
  H 3.854532 1.432585 1.344980
  H 3.855864 -0.137021 1.976029
  H 2.520919 -0.700530 -1.693128
  H 5.166162 -0.098738 -0.190360
 13
 51.324285
  H 1.293547 0.184876 0.514514
  C 2.355344 0.215293 0.587871
  C 3.158951 0.644164 1.652969
  H 2.575377 0.981437 2.495231
  C 3.169047 -0.410330 -0.970450
  C 4.545839 -0.436859 -1.036071
  C 5.181581 -0.884492 -2.152349
  H 4.630913 -1.227823 -3.010362
  H 6.260481 -0.908831 -2.211126
  H 3.850283 1.423552 1.328510
  H 3.852422 -0.141592 1.956589
  H 2.462633 -0.708124 -1.712813
  H 5.134581 -0.101455 -0.197928
 13
 73.259903
  H 1.244250 0.205963 0.567192
  C 2.312478 0.243910 0.659110
  C 3.136509 0.664184 1.702784
  H 2.568962 1.010855 2.568819
  C 3.188252 -0.436490 -1.035590
  C 4.554049 -0.454968 -1.080948
  C 5.217230 -0.901304 -2.194081
  H 4.683756 -1.248812 -3.062653
  H 6.289650 -0.917341 -2.232157
  H 3.834052 1.444832 1.358223
  H 3.836541 -0.136256 1.992422
  H 2.456961 -0.727138 -1.760476
  H 5.129850 -0.114603 -0.230484
 13
 93.156165
  H 1.207030 0.230848 0.628937
  C 2.269753 0.271656 0.728249
  C 3.108461 0.689881 1.766967
  H 2.555797 1.037971 2.635996
  C 3.211697 -0.462743 -1.101002
  C 4.568574 -0.476061 -1.133726
  C 5.246790 -0.920856 -2.242752
  H 4.723904 -1.270523 -3.116159
  H 6.325291 -0.932137 -2.269131
  H 3.802893 1.462475 1.416866
  H 3.805228 -0.108671 2.047350
  H 2.473844 -0.749067 -1.815097
  H 5.133895 -0.134328 -0.280347
 13
 110.418998
  H 1.164314 0.258801 0.698550
  C 2.229885 0.301499 0.802671
  C 3.078204 0.712662 1.823919
  H 2.539617 1.065943 2.705477
  C 3.232065 -0.487852 -1.163779
  C 4.588758 -0.496650 -1.185374
  C 5.280196 -0.938911 -2.287651
  H 4.768150 -1.290757 -3.165721
  H 6.354892 -0.945096 -2.301469
  H 3.773780 1.482006 1.461805
  H 3.775887 -0.091880 2.093536
  H 2.479512 -0.770096 -1.867667
  H 5.147625 -0.152335 -0.325981
 13
 124.648859
  H 1.126407 0.285491 0.764977
  C 2.188101 0.330007 0.873804
  C 3.049566 0.737112 1.885079
  H 2.529512 1.094016 2.775041
  C 3.251951 -0.513965 -1.229215
  C 4.601229 -0.516977 -1.236547
  C 5.311422 -0.956805 -2.332097
  H 4.813098 -1.311719 -3.216684
  H 6.389370 -0.956478 -2.329917
  H 3.744573 1.500199 1.512374
  H 3.746513 -0.070406 2.143062
  H 2.489165 -0.790349 -1.918420
  H 5.148994 -0.170507 -0.372465
 13
 135.933493
  H 1.085613 0.314745 0.837596
  C 2.150072 0.359476 0.947227
  C 3.018436 0.761968 1.947179
  H 2.514930 1.123481 2.847852
  C 3.272492 -0.539868 -1.293594
  C 4.618042 -0.538086 -1.289165
  C 5.344854 -0.974928 -2.377267
  H 4.859842 -1.332187 -3.267247
  H 6.419929 -0.968257 -2.359743
  H 3.713807 1.519938 1.563311
  H 3.715425 -0.049729 2.193952
  H 2.495218 -0.811310 -1.970512
  H 5.157732 -0.189112 -0.419275
 13
 144.522487
  H 1.048259 0.344648 0.912077
  C 2.111987 0.388251 1.018989
  C 2.985561 0.789090 2.014758
  H 2.498383 1.154180 2.923855
  C 3.293426 -0.566384 -1.359403
  C 4.632494 -0.559877 -1.343240
  C 5.377463 -0.993641 -2.423994
  H 4.906098 -1.353370 -3.320338
  H 6.453624 -0.980359 -2.390079
  H 3.681441 1.541537 1.621101
  H 3.682911 -0.025383 2.250887
  H 2.505484 -0.831872 -2.021634
  H 5.162556 -0.209031 -0.468584
 13
 150.408424
  H 1.008386 0.379320 0.998929
  C 2.078472 0.418190 1.093743
  C 2.944092 0.820025 2.091682
  H 2.466746 1.188473 3.009344
  C 3.318836 -0.591617 -1.422284
  C 4.656505 -0.583778 -1.402575
  C 5.412147 -1.015382 -2.478186
  H 4.948938 -1.376385 -3.378263
  H 6.485995 -0.998272 -2.434218
  H 3.641915 1.568065 1.690496
  H 3.643677 0.003797 2.319191
  H 2.522124 -0.854572 -2.078541
  H 5.182585 -0.231609 -0.524019
 13
 154.162336
  H 0.971945 0.414347 1.086895
  C 2.042342 0.447991 1.168222
  C 2.900678 0.853864 2.175890
  H 2.429219 1.223096 3.096092
  C 3.344793 -0.616253 -1.484157
  C 4.680319 -0.607765 -1.462525
  C 5.445010 -1.038042 -2.534455
  H 4.987734 -1.400362 -3.437935
  H 6.519820 -1.018107 -2.482647
  H 3.600402 1.599432 1.771010
  H 3.602666 0.037226 2.398667
  H 2.545436 -0.877273 -2.135818
  H 5.202232 -0.254633 -0.581196
 13
 156.702839
  H 0.933085 0.451044 1.178605
  C 2.008151 0.479406 1.246775
  C 2.855725 0.888791 2.263085
  H 2.384813 1.258471 3.184162
  C 3.371906 -0.639353 -1.542301
  C 4.707783 -0.631142 -1.521514
  C 5.477389 -1.060694 -2.590669
  H 5.023459 -1.423931 -3.495526
  H 6.550921 -1.039147 -2.534378
  H 3.556985 1.633079 1.857314
  H 3.559217 0.072499 2.484535
  H 2.568101 -0.899626 -2.191980
  H 5.227978 -0.277073 -0.638410
 13
 158.379563
  H 0.895685 0.488110 1.271332
  C 1.971680 0.511769 1.327636
  C 2.809866 0.925171 2.353948
  H 2.337470 1.294428 3.274150
  C 3.397633 -0.661363 -1.597750
  C 4.733035 -0.653357 -1.577654
  C 5.507255 -1.082389 -2.644422
  H 5.056055 -1.446632 -3.550862
  H 6.581491 -1.059492 -2.584093
  H 3.512364 1.669128 1.948905
  H 3.514801 0.109704 2.575650
  H 2.592028 -0.920409 -2.244341
  H 5.250923 -0.298454 -0.693076
