 17
 0.000000
  C 1.007849 -0.071122 0.048436
  C 2.503790 -0.082479 0.026143
  C 3.220123 -0.594500 -0.979043
  C 4.656567 -0.606247 -1.002102
  C 5.378016 -1.121376 -2.013385
  C 6.815253 -1.131957 -2.034154
  C 7.531026 -1.641564 -3.034605
  H 8.603893 -1.654055 -3.059123
  H 0.643901 0.394392 0.962312
  H 0.612957 -1.085544 0.007195
  H 0.612959 0.491958 -0.796370
  H 3.004767 0.352515 0.880110
  H 2.709807 -1.027873 -1.829816
  H 5.161204 -0.171581 -0.148783
  H 4.874083 -1.556106 -2.866833
  H 7.321133 -0.697449 -1.181143
  H 7.035395 -2.077418 -3.890246
 17
 12.878352
  C 0.879600 -0.063881 0.062654
  C 2.544617 -0.072169 0.046384
  C 3.250180 -0.583433 -0.957316
  C 4.685830 -0.598724 -0.987334
  C 5.404609 -1.115183 -2.001229
  C 6.835793 -1.128465 -2.027301
  C 7.588472 -1.676544 -3.103274
  H 8.661449 -1.684306 -3.118505
  H 0.526234 0.401258 0.975791
  H 0.508513 -1.082159 0.014573
  H 0.508512 0.495935 -0.789293
  H 3.028326 0.364973 0.904568
  H 2.737759 -1.016285 -1.807073
  H 5.195257 -0.165057 -0.135975
  H 4.895437 -1.548764 -2.852420
  H 7.356559 -0.698571 -1.183348
  H 7.085978 -2.108897 -3.952046
 17
 38.703265
  C 0.728310 -0.071652 0.047404
  C 2.608443 -0.049963 0.089978
  C 3.277673 -0.557490 -0.906410
  C 4.712918 -0.581438 -0.953425
  C 5.430019 -1.111237 -1.993509
  C 6.863961 -1.135489 -2.041117
  C 7.607704 -1.709782 -3.168493
  H 8.681659 -1.707524 -3.164036
  H 0.423085 0.394242 0.962037
  H 0.470027 -1.110401 -0.016309
  H 0.470038 0.487557 -0.830242
  H 2.999089 0.400869 0.975058
  H 2.760282 -0.987361 -1.750341
  H 5.235575 -0.150991 -0.108378
  H 4.902671 -1.541707 -2.838596
  H 7.427589 -0.718827 -1.223154
  H 7.083626 -2.130485 -3.994371
 17
 67.720748
  C 0.524100 -0.070208 0.050246
  C 2.698207 -0.035887 0.117603
  C 3.358044 -0.553732 -0.899035
  C 4.802252 -0.586684 -0.963722
  C 5.484611 -1.112405 -1.995787
  C 6.906780 -1.146995 -2.063676
  C 7.609676 -1.713970 -3.176703
  H 8.682908 -1.724894 -3.198159
  H 0.264658 0.403276 0.979814
  H 0.317934 -1.124126 -0.007275
  H 0.317903 0.502935 -0.836085
  H 3.043536 0.423251 1.018980
  H 2.827805 -0.982207 -1.740218
  H 5.338472 -0.159643 -0.125356
  H 4.945050 -1.537419 -2.830166
  H 7.484343 -0.733043 -1.251045
  H 7.059171 -2.134684 -4.002651
 17
 92.400040
  C 0.313796 -0.068458 0.053686
  C 2.788495 -0.019560 0.149629
  C 3.431298 -0.540785 -0.873677
  C 4.866625 -0.586742 -0.963888
  C 5.523735 -1.118562 -2.007920
  C 6.956095 -1.167697 -2.104339
  C 7.623445 -1.722220 -3.192865
  H 8.696784 -1.737963 -3.223748
  H 0.099529 0.409999 0.993048
  H 0.167585 -1.130590 -0.000321
  H 0.167552 0.512345 -0.837153
  H 3.095602 0.446469 1.064568
  H 2.893207 -0.966831 -1.710090
  H 5.419805 -0.165235 -0.136350
  H 4.961158 -1.541332 -2.837893
  H 7.544520 -0.752722 -1.289666
  H 7.072231 -2.141164 -4.015310
 17
 109.671074
  C 0.106229 -0.066004 0.058463
  C 2.865270 -0.004346 0.179486
  C 3.492894 -0.526436 -0.845424
  C 4.936650 -0.585425 -0.961203
  C 5.567787 -1.122003 -2.014567
  C 6.999629 -1.184383 -2.137012
  C 7.637789 -1.733074 -3.214268
  H 8.721364 -1.759258 -3.265691
  H -0.064706 0.416612 1.005879
  H 0.017032 -1.134139 0.003775
  H 0.017016 0.517701 -0.837647
  H 3.144307 0.465326 1.101489
  H 2.944884 -0.950978 -1.678876
  H 5.506921 -0.167552 -0.140841
  H 4.988750 -1.539180 -2.833589
  H 7.590976 -0.770628 -1.324773
  H 7.079768 -2.151488 -4.035722
 17
 121.036084
  C -0.097648 -0.063966 0.062364
  C 2.942515 0.010088 0.207851
  C 3.561363 -0.513367 -0.819526
  C 4.995810 -0.582789 -0.955788
  C 5.608246 -1.126054 -2.022267
  C 7.039183 -1.199596 -2.166727
  C 7.650276 -1.743381 -3.234664
  H 8.727896 -1.781493 -3.309673
  H -0.226034 0.419665 1.011562
  H -0.132347 -1.132795 0.008014
  H -0.132319 0.520274 -0.834198
  H 3.202730 0.482184 1.134416
  H 3.007196 -0.934687 -1.646665
  H 5.575491 -0.170065 -0.145705
  H 5.011772 -1.541236 -2.837496
  H 7.635032 -0.786898 -1.356685
  H 7.088446 -2.156159 -4.045197
 17
 127.661361
  C -0.298644 -0.059686 0.070777
  C 2.998695 0.021942 0.231090
  C 3.611067 -0.500877 -0.795248
  C 5.057142 -0.580629 -0.951776
  C 5.650636 -1.126470 -2.023357
  C 7.077135 -1.208858 -2.185103
  C 7.672238 -1.757743 -3.262755
  H 8.740072 -1.805261 -3.355985
  H -0.381725 0.423640 1.019562
  H -0.277599 -1.124167 0.016014
  H -0.277595 0.521724 -0.822251
  H 3.245303 0.488751 1.147484
  H 3.043979 -0.919936 -1.617977
  H 5.651349 -0.170970 -0.147528
  H 5.047793 -1.534732 -2.824891
  H 7.680067 -0.800969 -1.384336
  H 7.093479 -2.172083 -4.076139
 17
 131.633034
  C -0.504444 -0.053671 0.082692
  C 3.056691 0.030393 0.247719
  C 3.661527 -0.492842 -0.779594
  C 5.111422 -0.581692 -0.953987
  C 5.687933 -1.130017 -2.030520
  C 7.112251 -1.219842 -2.206924
  C 7.692565 -1.770366 -3.287608
  H 8.760401 -1.824966 -3.394326
  H -0.548284 0.433722 1.039625
  H -0.431261 -1.120333 0.030998
  H -0.431269 0.531691 -0.810357
  H 3.303931 0.497002 1.163871
  H 3.089202 -0.906094 -1.590946
  H 5.717642 -0.175150 -0.155716
  H 5.067405 -1.539397 -2.834091
  H 7.722689 -0.814523 -1.411049
  H 7.111054 -2.178585 -4.088549
 17
 133.525418
  C -0.708794 -0.045490 0.099294
  C 3.121856 0.037489 0.261825
  C 3.718843 -0.488115 -0.769868
  C 5.158677 -0.582659 -0.955584
  C 5.723217 -1.134566 -2.039044
  C 7.147469 -1.231821 -2.230136
  C 7.711697 -1.781300 -3.309084
  H 8.779292 -1.841459 -3.427473
  H -0.736886 0.438035 1.048422
  H -0.598614 -1.106194 0.052417
  H -0.598518 0.540889 -0.787637
  H 3.382013 0.506748 1.182845
  H 3.134905 -0.901775 -1.581824
  H 5.776804 -0.175971 -0.157392
  H 5.099404 -1.537069 -2.829192
  H 7.765382 -0.829674 -1.440798
  H 7.116683 -2.189433 -4.110420
 17
 134.250048
  C -0.901408 -0.037549 0.117799
  C 3.188557 0.047164 0.281669
  C 3.773655 -0.481547 -0.756215
  C 5.208449 -0.582898 -0.955922
  C 5.759655 -1.138123 -2.045903
  C 7.181286 -1.242681 -2.251920
  C 7.731874 -1.795651 -3.337619
  H 8.793932 -1.860814 -3.466177
  H -0.952867 0.445279 1.066136
  H -0.779471 -1.092009 0.072298
  H -0.778843 0.550219 -0.770050
  H 3.462803 0.514546 1.198725
  H 3.176495 -0.894317 -1.565951
  H 5.837095 -0.178293 -0.162239
  H 5.127721 -1.536736 -2.827879
  H 7.808836 -0.844133 -1.470090
  H 7.126059 -2.200780 -4.132470
 17
 134.489377
  C -1.086172 -0.031773 0.125650
  C 3.261178 0.064201 0.314110
  C 3.824798 -0.467771 -0.730009
  C 5.262010 -0.581086 -0.952501
  C 5.792626 -1.139837 -2.049485
  C 7.210427 -1.254708 -2.275133
  C 7.741660 -1.812414 -3.370452
  H 8.802474 -1.885554 -3.514205
  H -1.212480 0.451851 1.074511
  H -0.952565 -1.085298 0.083167
  H -0.952301 0.553431 -0.751839
  H 3.554217 0.529086 1.226529
  H 3.204790 -0.879575 -1.538472
  H 5.899380 -0.185868 -0.176824
  H 5.140544 -1.537184 -2.829742
  H 7.854598 -0.859825 -1.499946
  H 7.124024 -2.211013 -4.153124
 17
 134.499097
  C -1.269466 -0.035503 0.118676
  C 3.338139 0.088967 0.362873
  C 3.876878 -0.448017 -0.691702
  C 5.310322 -0.576094 -0.943194
  C 5.814554 -1.140416 -2.051317
  C 7.219633 -1.269492 -2.304970
  C 7.723272 -1.831323 -3.407640
  H 8.785535 -1.915779 -3.572367
  H -1.493987 0.435825 1.044649
  H -1.099799 -1.088953 0.084602
  H -1.099469 0.557212 -0.754543
  H 3.649183 0.551561 1.271375
  H 3.243625 -0.849522 -1.480036
  H 5.968322 -0.186469 -0.177972
  H 5.151609 -1.526839 -2.809706
  H 7.877153 -0.883385 -1.546547
  H 7.086821 -2.225070 -4.179458
 17
 134.695134
  C -1.460001 -0.042482 0.104691
  C 3.414332 0.114620 0.413037
  C 3.926189 -0.429127 -0.654095
  C 5.349029 -0.572229 -0.935076
  C 5.822372 -1.140792 -2.051220
  C 7.230956 -1.286234 -2.336771
  C 7.701750 -1.848538 -3.441042
  H 8.755754 -1.944704 -3.630340
  H -1.790950 0.418765 1.009403
  H -1.251379 -1.088907 0.084065
  H -1.250919 0.556025 -0.753894
  H 3.745816 0.574152 1.314870
  H 3.273078 -0.823378 -1.427989
  H 6.026231 -0.190134 -0.185329
  H 5.136185 -1.521307 -2.798474
  H 7.913610 -0.902547 -1.583705
  H 7.043387 -2.236782 -4.203846
