 20
 0.000000
  H 1.381298 0.169046 0.471651
  C 2.452560 0.135635 0.388387
  H 3.067804 0.464874 1.207710
  C 3.003705 -0.330959 -0.773316
  C 4.388503 -0.409292 -0.969464
  C 5.100761 -0.859510 -2.092014
  C 4.615964 -1.381083 -3.391703
  C 3.131137 -1.506525 -3.704559
  C 2.944591 -2.071038 -5.111119
  O 6.408134 -0.842438 -2.050253
  H 2.332901 -0.645043 -1.554861
  H 5.000570 -0.074969 -0.137545
  H 5.087096 -2.364453 -3.515291
  H 5.087363 -0.756234 -4.160862
  H 2.648718 -0.529629 -3.660631
  H 2.648611 -2.181978 -2.997506
  H 3.395382 -1.420254 -5.856394
  H 1.886860 -2.163863 -5.342583
  H 3.395371 -3.056497 -5.199687
  H 6.786812 -0.507250 -1.213325
 20
 0.302700
  H 1.417314 0.201461 0.556649
  C 2.473895 0.224457 0.352065
  H 3.104388 0.716230 1.076096
  C 2.986205 -0.347759 -0.773519
  C 4.366055 -0.331637 -1.024798
  C 5.095143 -0.908889 -2.077327
  C 4.622231 -1.326925 -3.416022
  C 3.142786 -1.562730 -3.693989
  C 2.956832 -2.045419 -5.129947
  O 6.387680 -1.034103 -1.952183
  H 2.314455 -0.831371 -1.462240
  H 4.965217 0.127524 -0.244035
  H 5.197081 -2.217418 -3.692727
  H 4.982783 -0.554706 -4.109881
  H 2.575134 -0.640771 -3.567466
  H 2.751309 -2.326306 -3.018830
  H 3.312416 -1.304603 -5.841350
  H 1.904305 -2.225736 -5.332064
  H 3.495975 -2.974319 -5.303852
  H 6.759808 -0.839441 -1.069211
 20
 7.413574
  H 1.428061 0.161896 0.605955
  C 2.476581 0.229185 0.374080
  H 3.112972 0.683835 1.115997
  C 2.973108 -0.273341 -0.788568
  C 4.349612 -0.197098 -1.080387
  C 5.074953 -0.869740 -2.069587
  C 4.617426 -1.304670 -3.406098
  C 3.149294 -1.601313 -3.684510
  C 2.977050 -2.057067 -5.131593
  O 6.389100 -0.922082 -1.947463
  H 2.293784 -0.729222 -1.489588
  H 4.927579 0.246077 -0.274603
  H 5.235566 -2.164043 -3.689176
  H 4.937847 -0.512913 -4.101557
  H 2.533620 -0.714382 -3.534201
  H 2.801408 -2.396962 -3.023689
  H 3.284760 -1.279928 -5.827225
  H 1.933158 -2.287472 -5.329304
  H 3.562310 -2.950680 -5.334495
  H 6.743571 -1.259494 -1.105497
 20
 19.960643
  H 1.402707 0.092581 0.554004
  C 2.462844 0.198301 0.370360
  H 3.064458 0.482770 1.213255
  C 2.998118 -0.156385 -0.838738
  C 4.405552 -0.029009 -1.075564
  C 5.065903 -0.806232 -2.031396
  C 4.584533 -1.294428 -3.344593
  C 3.132391 -1.616680 -3.646533
  C 2.997227 -2.094983 -5.100640
  O 6.410816 -0.826294 -1.941130
  H 2.338199 -0.540805 -1.597064
  H 4.823974 0.351080 -0.155400
  H 5.224801 -2.141297 -3.627936
  H 4.887132 -0.488915 -4.029568
  H 2.496101 -0.728637 -3.553651
  H 2.765398 -2.401929 -2.987004
  H 3.318409 -1.315368 -5.794232
  H 1.972599 -2.346967 -5.327795
  H 3.623487 -2.968012 -5.284722
  H 6.808846 -1.590130 -1.507418
 20
 62.287482
  H 1.471687 -0.038580 0.504858
  C 2.535564 0.093329 0.374887
  H 3.072773 0.325687 1.280770
  C 3.100763 -0.097324 -0.826212
  C 4.594356 0.118119 -1.086042
  C 4.971674 -0.808926 -2.016611
  C 4.572902 -1.300917 -3.351951
  C 3.108838 -1.613202 -3.667492
  C 2.980053 -2.117935 -5.099229
  O 6.354735 -0.810584 -1.914316
  H 2.557671 -0.481192 -1.671055
  H 4.568074 0.538320 -0.104493
  H 5.187048 -2.179462 -3.577977
  H 4.905344 -0.498905 -4.027863
  H 2.493956 -0.712360 -3.571163
  H 2.743119 -2.378909 -2.982821
  H 3.318824 -1.366472 -5.810728
  H 1.945882 -2.352339 -5.322808
  H 3.567750 -3.021578 -5.251356
  H 6.719478 -1.627281 -1.539337
 20
 100.101210
  H 1.391396 0.095000 0.733415
  C 2.442107 0.215328 0.503868
  H 3.014720 0.643550 1.313551
  C 2.915014 -0.191169 -0.640047
  C 4.603876 0.014105 -1.067447
  C 4.776439 -0.850517 -2.034030
  C 4.617931 -1.377373 -3.389338
  C 3.172019 -1.649281 -3.823953
  C 3.132944 -2.128130 -5.271479
  O 6.243445 -0.695319 -1.753162
  H 2.459023 -0.736948 -1.441875
  H 4.463060 0.595271 -0.188726
  H 5.201170 -2.295895 -3.474006
  H 5.073654 -0.634136 -4.050972
  H 2.580799 -0.734428 -3.737786
  H 2.730264 -2.413828 -3.184644
  H 3.549961 -1.378916 -5.940954
  H 2.107868 -2.318811 -5.579835
  H 3.698816 -3.049013 -5.391260
  H 6.621542 -1.441387 -1.245391
 20
 119.380953
  H 1.304823 0.145787 1.097386
  C 2.323441 0.176025 0.709128
  H 3.023619 0.615440 1.405409
  C 2.636226 -0.278526 -0.455116
  C 4.840159 -0.058530 -1.163079
  C 4.841538 -0.826514 -2.191867
  C 4.675706 -1.406717 -3.502119
  C 3.204822 -1.634262 -3.883117
  C 3.104396 -2.161926 -5.309620
  O 6.259295 -0.450260 -1.794118
  H 2.124582 -0.737438 -1.269219
  H 4.763706 0.456942 -0.245535
  H 5.213494 -2.357775 -3.545918
  H 5.148419 -0.725196 -4.216928
  H 2.655641 -0.694789 -3.805634
  H 2.755265 -2.357028 -3.200630
  H 3.525902 -1.452224 -6.017815
  H 2.064346 -2.325938 -5.578355
  H 3.631344 -3.107245 -5.413735
  H 6.731985 -1.154749 -1.289412
 20
 119.858825
  H 1.219713 0.233112 1.239349
  C 2.215265 0.178603 0.791522
  H 2.987900 0.546739 1.451130
  C 2.440810 -0.276861 -0.393663
  C 5.148083 -0.115035 -1.275477
  C 4.974637 -0.845643 -2.312420
  C 4.732304 -1.487892 -3.563223
  C 3.226857 -1.526786 -3.888219
  C 3.007075 -2.140463 -5.265133
  O 6.448399 -0.447694 -1.848684
  H 1.856656 -0.675811 -1.190894
  H 4.916021 0.330895 -0.339360
  H 5.120693 -2.510343 -3.540692
  H 5.268868 -0.941313 -4.345531
  H 2.820788 -0.515704 -3.869194
  H 2.706879 -2.122703 -3.138419
  H 3.498368 -1.553876 -6.037239
  H 1.945206 -2.173018 -5.493808
  H 3.391123 -3.156725 -5.306243
  H 6.931258 -1.153412 -1.348125
 20
 117.759110
  H 1.486512 -0.010013 0.653350
  C 2.513503 -0.007338 0.284878
  H 3.204724 0.431585 0.991304
  C 2.799684 -0.483085 -0.868191
  C 5.261028 -0.078148 -1.183395
  C 4.919334 -0.836983 -2.167271
  C 4.481469 -1.507438 -3.351822
  C 3.002109 -1.411175 -3.804832
  C 2.845096 -2.107472 -5.152676
  O 6.676893 -0.241799 -1.470814
  H 2.281324 -0.938034 -1.672809
  H 4.991347 0.363333 -0.250776
  H 4.731357 -2.571053 -3.260203
  H 5.080159 -1.091344 -4.175921
  H 2.711190 -0.363848 -3.896231
  H 2.350777 -1.907199 -3.087040
  H 3.462687 -1.637725 -5.916551
  H 1.806315 -2.050442 -5.474987
  H 3.118480 -3.158564 -5.089271
  H 7.137576 -0.756150 -0.782000
 20
 81.656807
  H 1.811711 -0.532488 0.234198
  C 2.824429 -0.294355 -0.054486
  H 3.284328 0.438121 0.583383
  C 3.331248 -0.907973 -1.093828
  C 5.319294 0.056652 -1.127731
  C 4.812348 -0.811806 -2.012589
  C 4.274328 -1.547438 -3.165648
  C 2.910633 -1.199018 -3.817253
  C 2.746616 -2.012401 -5.089550
  O 6.688816 -0.014961 -1.195202
  H 2.820921 -1.655008 -1.659463
  H 4.903462 0.641737 -0.336617
  H 4.288418 -2.607462 -2.907399
  H 4.989922 -1.398656 -3.989509
  H 2.892162 -0.139079 -4.053913
  H 2.069419 -1.427960 -3.168627
  H 3.542974 -1.807870 -5.802599
  H 1.801074 -1.759494 -5.564844
  H 2.741875 -3.080081 -4.875906
  H 7.132413 -0.273968 -0.368039
 20
 36.391825
  H 1.927042 -0.670347 0.504485
  C 2.851706 -0.369963 0.039717
  H 3.293661 0.518563 0.467588
  C 3.315440 -1.102845 -0.979728
  C 5.248305 0.071734 -1.340967
  C 4.546237 -0.995180 -1.851572
  C 4.228012 -1.715743 -3.094647
  C 3.007765 -1.142014 -3.839027
  C 2.817889 -1.878182 -5.154073
  O 6.566179 0.008046 -1.345164
  H 2.756188 -1.996550 -1.230835
  H 4.810874 0.821323 -0.697351
  H 4.104649 -2.777857 -2.905639
  H 5.072600 -1.615856 -3.791978
  H 3.171696 -0.081333 -4.029337
  H 2.099726 -1.254382 -3.236254
  H 3.668116 -1.732433 -5.818963
  H 1.929383 -1.499707 -5.658073
  H 2.685977 -2.943881 -4.991199
  H 7.063743 0.039116 -0.509974
 20
 8.975352
  H 1.954372 -0.701459 0.922717
  C 2.838171 -0.474189 0.351211
  H 3.446066 0.324077 0.735887
  C 3.109355 -1.183106 -0.763214
  C 5.094321 0.027660 -1.447980
  C 4.166993 -0.980747 -1.715650
  C 4.111135 -1.735777 -2.980454
  C 3.040482 -1.120355 -3.914673
  C 3.051021 -1.820197 -5.264251
  O 6.301369 0.007585 -1.916604
  H 2.458813 -2.019457 -1.003926
  H 4.848167 0.780866 -0.705383
  H 3.848998 -2.779598 -2.801393
  H 5.072504 -1.691119 -3.492837
  H 3.251892 -0.059201 -4.051494
  H 2.055755 -1.221547 -3.456074
  H 4.023065 -1.732153 -5.745275
  H 2.309365 -1.366499 -5.919207
  H 2.812435 -2.875662 -5.159787
  H 7.040203 0.259592 -1.329590
 20
 1.349545
  H 1.958515 -0.352266 0.976784
  C 2.845533 -0.221563 0.381300
  H 3.600918 0.421733 0.796807
  C 2.966372 -0.862503 -0.802257
  C 5.140601 0.068664 -1.480073
  C 4.069612 -0.804635 -1.703893
  C 4.079364 -1.698970 -2.883650
  C 3.025311 -1.274404 -3.935184
  C 3.101651 -2.171922 -5.159378
  O 6.244617 -0.036798 -2.139639
  H 2.168376 -1.528679 -1.103287
  H 5.058902 0.809672 -0.690865
  H 3.838211 -2.719210 -2.575451
  H 5.061281 -1.691977 -3.356728
  H 3.215620 -0.240982 -4.227780
  H 2.026171 -1.330076 -3.504008
  H 4.083238 -2.119130 -5.623537
  H 2.364198 -1.857039 -5.894612
  H 2.898166 -3.207739 -4.899262
  H 7.014449 0.452741 -1.783975
 20
 0.826894
  H 1.838458 -0.007355 0.762302
  C 2.794965 -0.023128 0.262277
  H 3.613926 0.419478 0.801859
  C 2.909782 -0.592121 -0.957558
  C 5.284449 -0.083946 -1.335354
  C 4.098478 -0.716889 -1.727471
  C 4.114763 -1.544297 -2.958193
  C 2.870420 -1.467454 -3.849364
  C 3.082936 -2.257861 -5.133529
  O 6.391342 -0.272271 -1.975482
  H 2.022057 -1.027434 -1.394765
  H 5.267868 0.572623 -0.472206
  H 4.231128 -2.592988 -2.652346
  H 4.999927 -1.300065 -3.546510
  H 2.679063 -0.423274 -4.097694
  H 1.992649 -1.860693 -3.340107
  H 3.940050 -1.880993 -5.688229
  H 2.206116 -2.177425 -5.773024
  H 3.246948 -3.310960 -4.921655
  H 7.175783 0.181972 -1.611633
 20
 0.775163
  H 1.768621 0.312424 0.565158
  C 2.747723 0.188018 0.134383
  H 3.572513 0.492844 0.751552
  C 2.878376 -0.339612 -1.101153
  C 5.326694 -0.175679 -1.262139
  C 4.104845 -0.598704 -1.794159
  C 4.144173 -1.358877 -3.063016
  C 2.824398 -1.659444 -3.757248
  C 3.062931 -2.359172 -5.086094
  O 6.449871 -0.590758 -1.755269
  H 1.980956 -0.631984 -1.622378
  H 5.326765 0.473161 -0.391680
  H 4.658348 -2.310901 -2.855716
  H 4.819197 -0.843132 -3.759705
  H 2.283252 -0.728085 -3.940216
  H 2.197070 -2.301196 -3.133287
  H 3.661790 -1.742000 -5.750428
  H 2.115823 -2.563599 -5.580724
  H 3.576927 -3.306297 -4.941232
  H 7.260835 -0.322089 -1.265334
