14

H -0.6410351411576007 -0.8193504501724993 0.7601902093665652
C -0.236228 -0.955588 0.806681
C 0.804865 -0.085217 0.11197
C 2.219883 -0.613466 0.339602
C 3.271259 0.224374 -0.396183
H -0.010102 -1.009399 1.879936
H -0.175248 -1.975417 0.417563
H 0.596019 -0.064558 -0.959829
H 0.738287 0.933862 0.494346
H 2.424727 -0.595632 1.413218
H 2.27003 -1.65384 0.019203
H 3.975477 0.67601 0.297702
H 3.83599 -0.383182 -1.09944
H 2.801077 1.026683 -0.958607
