 15
 0.000000
  C 0.881853 0.043430 0.344230
  C 2.351721 0.059391 0.045119
  H 2.996873 0.012582 0.911557
  C 2.931680 0.128006 -1.146132
  C 2.375777 0.207618 -2.540110
  C 0.866869 0.219130 -2.750206
  H 0.656223 0.279886 -3.815080
  H 4.015905 0.129034 -1.167546
  H 0.707373 -0.018843 1.417029
  H 0.396000 -0.815412 -0.113147
  H 0.400849 0.951144 -0.013829
  H 2.792585 -0.637763 -3.099865
  H 2.792137 1.111564 -2.999653
  H 0.407868 1.076519 -2.266971
  H 0.408590 -0.688064 -2.367688
 15
 3.879255
  C 0.879618 0.015909 0.370736
  C 2.315717 0.053789 0.044346
  H 2.979238 0.001285 0.901729
  C 2.906664 0.135077 -1.141262
  C 2.370693 0.218287 -2.542858
  C 0.862482 0.205537 -2.759077
  H 0.654398 0.269318 -3.825782
  H 3.991817 0.153370 -1.142900
  H 0.698443 -0.016699 1.440024
  H 0.338019 -0.795415 -0.104713
  H 0.608931 0.962630 -0.039575
  H 2.808183 -0.616459 -3.102644
  H 2.779941 1.132151 -2.989261
  H 0.384549 1.051591 -2.274625
  H 0.420600 -0.712672 -2.385434
 15
 12.152121
  C 0.858443 0.000924 0.380338
  C 2.305942 0.045258 0.044851
  H 2.984293 -0.017394 0.898787
  C 2.897798 0.140383 -1.138293
  C 2.364760 0.228553 -2.533673
  C 0.857624 0.187641 -2.753920
  H 0.648684 0.257336 -3.827747
  H 3.988141 0.177926 -1.135513
  H 0.663555 -0.006333 1.439380
  H 0.281076 -0.755962 -0.127428
  H 0.803058 0.967049 -0.062452
  H 2.819141 -0.593387 -3.101515
  H 2.758925 1.155841 -2.969498
  H 0.359212 1.015300 -2.265105
  H 0.437595 -0.741085 -2.391873
 15
 22.585482
  C 0.841714 -0.009020 0.372463
  C 2.298875 0.044353 0.040824
  H 2.974652 -0.021549 0.900615
  C 2.899211 0.147506 -1.139239
  C 2.363776 0.236658 -2.529475
  C 0.857582 0.174885 -2.735960
  H 0.637338 0.246949 -3.810593
  H 3.991433 0.195624 -1.133268
  H 0.626499 -0.000186 1.423646
  H 0.240000 -0.723166 -0.164010
  H 0.962858 0.953883 -0.085562
  H 2.824362 -0.574791 -3.103828
  H 2.741408 1.170494 -2.961414
  H 0.351481 0.989157 -2.238832
  H 0.456921 -0.759452 -2.375894
 15
 32.879180
  C 0.827254 -0.009371 0.394332
  C 2.289719 0.045594 0.044092
  H 2.966178 -0.027350 0.900589
  C 2.899695 0.153038 -1.131890
  C 2.367418 0.243205 -2.540197
  C 0.851818 0.157693 -2.755233
  H 0.633610 0.233135 -3.831969
  H 3.990623 0.211461 -1.113664
  H 0.626075 -0.015646 1.447979
  H 0.196315 -0.655070 -0.180790
  H 1.096565 0.945045 -0.029229
  H 2.845887 -0.562273 -3.122429
  H 2.733609 1.191578 -2.968326
  H 0.326754 0.964723 -2.250482
  H 0.463648 -0.792872 -2.401798
 15
 41.796771
  C 0.815450 -0.010185 0.389295
  C 2.274627 0.053719 0.025205
  H 2.927581 -0.017121 0.880819
  C 2.899487 0.160387 -1.150611
  C 2.373173 0.245875 -2.542596
  C 0.868914 0.143617 -2.738761
  H 0.638840 0.218540 -3.802473
  H 3.977788 0.222741 -1.125890
  H 0.623161 -0.054736 1.448893
  H 0.151290 -0.592000 -0.222774
  H 1.202716 0.950022 0.005108
  H 2.855320 -0.550356 -3.127752
  H 2.723562 1.195705 -2.970217
  H 0.341860 0.945402 -2.223586
  H 0.497216 -0.815450 -2.382588
 15
 48.658665
  C 0.809381 -0.013849 0.405937
  C 2.265481 0.063589 0.023001
  H 2.910240 -0.000906 0.884326
  C 2.903512 0.166969 -1.149074
  C 2.379364 0.247551 -2.553604
  C 0.868500 0.132995 -2.749879
  H 0.632890 0.206630 -3.818930
  H 3.994588 0.232487 -1.111809
  H 0.633054 -0.094089 1.458559
  H 0.115214 -0.530861 -0.233163
  H 1.284269 0.943067 0.065420
  H 2.868400 -0.546449 -3.139338
  H 2.722229 1.200799 -2.983173
  H 0.338237 0.928491 -2.234339
  H 0.506824 -0.826719 -2.393966
 15
 53.584572
  C 0.803011 -0.018259 0.409574
  C 2.261966 0.074197 0.018477
  H 2.916673 0.009667 0.901143
  C 2.904961 0.173354 -1.156346
  C 2.385805 0.248023 -2.560088
  C 0.875129 0.122796 -2.757098
  H 0.639817 0.194235 -3.822230
  H 3.980077 0.241319 -1.114231
  H 0.628052 -0.141598 1.463984
  H 0.097012 -0.460806 -0.245538
  H 1.354038 0.944187 0.109358
  H 2.877296 -0.537065 -3.139835
  H 2.720770 1.198239 -2.989954
  H 0.337199 0.920513 -2.238530
  H 0.518321 -0.845375 -2.398525
 15
 57.655792
  C 0.805712 -0.022005 0.424356
  C 2.262775 0.086568 0.027541
  H 2.906286 0.021264 0.890541
  C 2.908224 0.179732 -1.151212
  C 2.386938 0.247850 -2.563321
  C 0.878616 0.115254 -2.763638
  H 0.644496 0.182955 -3.830483
  H 3.997925 0.251551 -1.105943
  H 0.633091 -0.179096 1.463071
  H 0.072049 -0.407382 -0.263612
  H 1.415073 0.941873 0.159862
  H 2.880108 -0.533285 -3.138191
  H 2.715096 1.193749 -2.996108
  H 0.339924 0.908397 -2.250988
  H 0.527059 -0.849772 -2.404091
 15
 61.107958
  C 0.803200 -0.028957 0.405892
  C 2.261910 0.099492 0.024808
  H 2.913551 0.025931 0.906458
  C 2.915250 0.186629 -1.157116
  C 2.395584 0.248011 -2.560337
  C 0.880975 0.108085 -2.747010
  H 0.641190 0.169594 -3.796158
  H 3.996547 0.260048 -1.110660
  H 0.616697 -0.212862 1.432851
  H 0.071514 -0.355438 -0.307285
  H 1.462075 0.942985 0.177175
  H 2.896237 -0.545906 -3.142181
  H 2.721036 1.205560 -3.003931
  H 0.340330 0.905540 -2.231094
  H 0.534900 -0.857685 -2.380487
 15
 64.035020
  C 0.802709 -0.040346 0.420846
  C 2.264642 0.111464 0.033958
  H 2.919166 0.030906 0.904191
  C 2.915216 0.190359 -1.154382
  C 2.393547 0.247165 -2.565224
  C 0.896889 0.105265 -2.754654
  H 0.657990 0.165045 -3.821733
  H 3.992047 0.265232 -1.108958
  H 0.613624 -0.239673 1.448944
  H 0.061868 -0.316218 -0.302916
  H 1.501920 0.946302 0.208574
  H 2.892439 -0.543165 -3.140301
  H 2.714566 1.200308 -3.010983
  H 0.354636 0.904116 -2.242604
  H 0.551761 -0.862912 -2.386037
 15
 66.946118
  C 0.806711 -0.055985 0.429180
  C 2.267384 0.121701 0.039249
  H 2.922473 0.042330 0.902676
  C 2.918201 0.191860 -1.154440
  C 2.401803 0.247303 -2.562111
  C 0.894966 0.104990 -2.764492
  H 0.666595 0.162326 -3.818475
  H 4.002043 0.268894 -1.107546
  H 0.614145 -0.252404 1.461593
  H 0.060099 -0.297995 -0.295907
  H 1.533499 0.945478 0.218043
  H 2.904963 -0.543653 -3.133367
  H 2.727596 1.198919 -3.009396
  H 0.352473 0.900064 -2.262772
  H 0.547386 -0.855453 -2.399658
 15
 69.403012
  C 0.809491 -0.076964 0.438572
  C 2.270589 0.132127 0.047227
  H 2.932213 0.052082 0.906634
  C 2.921256 0.192471 -1.152222
  C 2.403782 0.247017 -2.564407
  C 0.906735 0.107656 -2.770171
  H 0.679358 0.162935 -3.838613
  H 4.003688 0.272019 -1.104779
  H 0.612412 -0.260661 1.473273
  H 0.058622 -0.287062 -0.287887
  H 1.561498 0.951506 0.226562
  H 2.906206 -0.546105 -3.132863
  H 2.732086 1.198375 -3.015190
  H 0.362912 0.909033 -2.270821
  H 0.554489 -0.856300 -2.400195
 15
 71.638494
  C 0.820641 -0.098682 0.439740
  C 2.278650 0.144419 0.055249
  H 2.937993 0.057440 0.909321
  C 2.929300 0.195432 -1.151462
  C 2.413592 0.248089 -2.561209
  C 0.908909 0.108890 -2.771618
  H 0.685013 0.161434 -3.834966
  H 3.994980 0.277103 -1.104853
  H 0.613394 -0.264948 1.468998
  H 0.056990 -0.276832 -0.294434
  H 1.595637 0.964818 0.228589
  H 2.915469 -0.544188 -3.126976
  H 2.740942 1.192449 -3.010830
  H 0.367565 0.906589 -2.279222
  H 0.558218 -0.843034 -2.404490
