 18
 0.000000
  C 0.984818 0.138178 0.358457
  C 2.458888 0.158839 0.405113
  C 3.223872 0.618315 1.576919
  C 2.450167 1.092494 2.790207
  C 3.376363 1.533494 3.915057
  C 3.113959 -0.281287 -0.717610
  H 4.176916 -0.346172 -0.861201
  H 0.513580 0.492135 1.268462
  H 0.631248 -0.877865 0.158109
  H 0.632569 0.749974 -0.473902
  H 3.894373 1.424106 1.246455
  H 3.895505 -0.196857 1.880941
  H 1.805993 0.290279 3.162389
  H 1.804697 1.933381 2.519274
  H 4.014798 0.716154 4.242525
  H 2.796378 1.868041 4.771173
  H 4.013456 2.356874 3.600322
  H 2.491965 -0.608651 -1.537203
 18
 -0.873637
  C 0.960371 0.118094 0.379849
  C 2.430723 0.137742 0.403690
  C 3.205554 0.591475 1.572587
  C 2.451348 1.095255 2.779491
  C 3.374908 1.565783 3.891729
  C 3.108662 -0.303101 -0.702701
  H 4.177545 -0.425034 -0.732604
  H 0.512026 0.230752 1.357822
  H 0.612453 -0.804011 -0.088417
  H 0.594644 0.926203 -0.260775
  H 3.914840 1.363306 1.235744
  H 3.882254 -0.227136 1.862314
  H 1.801328 0.304420 3.170578
  H 1.791676 1.921077 2.493423
  H 4.019669 0.760422 4.237588
  H 2.795375 1.919294 4.740662
  H 4.011479 2.383669 3.559602
  H 2.573827 -0.550411 -1.602848
 18
 1.534934
  C 0.973853 0.133606 0.381606
  C 2.446760 0.175236 0.401514
  C 3.221960 0.613406 1.572424
  C 2.450094 1.097014 2.781569
  C 3.372016 1.589713 3.887370
  C 3.079885 -0.360563 -0.689120
  H 4.102258 -0.703710 -0.671620
  H 0.536356 0.087098 1.371029
  H 0.699874 -0.742373 -0.206958
  H 0.567283 0.991606 -0.158482
  H 3.911676 1.407169 1.247342
  H 3.909854 -0.198007 1.849785
  H 1.828900 0.285568 3.172611
  H 1.773252 1.908672 2.499413
  H 4.033131 0.796650 4.229248
  H 2.790295 1.933176 4.738645
  H 3.988440 2.420341 3.550669
  H 2.600779 -0.375084 -1.655342
 18
 7.665496
  C 0.987980 0.131088 0.374883
  C 2.469014 0.190309 0.426306
  C 3.242488 0.587981 1.603723
  C 2.450078 1.107331 2.790807
  C 3.371157 1.616704 3.892767
  C 3.017626 -0.371944 -0.696833
  H 3.977159 -0.868638 -0.728837
  H 0.534980 -0.042621 1.341946
  H 0.852500 -0.731844 -0.286045
  H 0.544255 0.979751 -0.143725
  H 3.958949 1.360119 1.286869
  H 3.894597 -0.243994 1.901800
  H 1.821499 0.310940 3.195746
  H 1.793473 1.921085 2.475011
  H 4.040449 0.831862 4.236750
  H 2.787614 1.959034 4.743420
  H 3.974587 2.453627 3.548738
  H 2.594432 -0.172244 -1.670133
 18
 18.744511
  C 0.989030 0.148656 0.360381
  C 2.476670 0.241633 0.437733
  C 3.257627 0.631268 1.604016
  C 2.456967 1.126635 2.802379
  C 3.379883 1.610571 3.915735
  C 2.924355 -0.425456 -0.676744
  H 3.843364 -0.998377 -0.711552
  H 0.512728 -0.114326 1.293303
  H 1.037188 -0.705087 -0.355280
  H 0.494867 0.940746 -0.195306
  H 3.953314 1.420044 1.281729
  H 3.929048 -0.187198 1.893912
  H 1.831314 0.321354 3.191045
  H 1.803354 1.945894 2.497972
  H 4.028068 0.808558 4.261006
  H 2.797771 1.962384 4.763904
  H 4.004090 2.435529 3.578716
  H 2.587860 -0.115601 -1.655756
 18
 36.697079
  C 0.978462 0.158922 0.355093
  C 2.460870 0.246090 0.468275
  C 3.252396 0.617511 1.627269
  C 2.462824 1.143407 2.823324
  C 3.400061 1.619515 3.927610
  C 2.845333 -0.421363 -0.678539
  H 3.758976 -1.005721 -0.726743
  H 0.452336 -0.149495 1.243411
  H 1.287133 -0.742605 -0.449187
  H 0.465440 0.885680 -0.260764
  H 3.968069 1.383539 1.294908
  H 3.900809 -0.216821 1.923852
  H 1.822834 0.355652 3.223094
  H 1.826182 1.971037 2.509819
  H 4.037875 0.809475 4.272043
  H 2.829694 1.985619 4.777858
  H 4.034071 2.433299 3.581014
  H 2.551945 -0.042758 -1.649013
 18
 51.531028
  C 0.964414 0.190172 0.386223
  C 2.414010 0.254179 0.481169
  C 3.219158 0.616161 1.626361
  C 2.456053 1.152710 2.835833
  C 3.417444 1.616110 3.924096
  C 2.808377 -0.444710 -0.685643
  H 3.728850 -1.014351 -0.698841
  H 0.417092 -0.112779 1.265036
  H 1.517302 -0.816182 -0.566055
  H 0.435552 0.871794 -0.262418
  H 3.940244 1.368235 1.273960
  H 3.856961 -0.225670 1.919997
  H 1.812776 0.372031 3.243811
  H 1.823998 1.989064 2.535529
  H 4.050232 0.797800 4.259349
  H 2.866718 1.987305 4.784377
  H 4.056718 2.419411 3.565079
  H 2.585643 -0.011136 -1.656447
 18
 35.638605
  C 0.967539 0.211383 0.438361
  C 2.359808 0.285979 0.482344
  C 3.181369 0.621433 1.621664
  C 2.443601 1.174483 2.837767
  C 3.427851 1.606552 3.918911
  C 2.782166 -0.465832 -0.711503
  H 3.705481 -1.021120 -0.664976
  H 0.435219 -0.091397 1.330061
  H 1.727086 -0.914691 -0.710095
  H 0.404028 0.854431 -0.216066
  H 3.915584 1.355689 1.263654
  H 3.800568 -0.234364 1.909788
  H 1.782199 0.410701 3.249010
  H 1.832279 2.030402 2.546680
  H 4.052919 0.773832 4.231969
  H 2.895224 1.972945 4.792644
  H 4.073923 2.405771 3.562291
  H 2.626840 0.002686 -1.688208
 18
 20.159661
  C 0.913929 0.280458 0.459082
  C 2.295847 0.245009 0.499251
  C 3.146408 0.614104 1.620343
  C 2.431215 1.139855 2.862390
  C 3.437001 1.607303 3.908341
  C 2.758155 -0.482237 -0.704171
  H 3.700843 -0.997783 -0.616730
  H 0.346040 0.072377 1.358674
  H 1.824399 -1.062626 -0.794033
  H 0.372965 0.823462 -0.298765
  H 3.852818 1.366003 1.242974
  H 3.788169 -0.235089 1.888247
  H 1.814211 0.351168 3.295888
  H 1.779088 1.972335 2.594047
  H 4.062121 0.783167 4.243957
  H 2.922309 2.012121 4.775910
  H 4.081416 2.387469 3.509850
  H 2.682490 0.087870 -1.633633
 18
 10.534752
  C 0.884663 0.289841 0.502165
  C 2.258121 0.249358 0.486163
  C 3.121611 0.589211 1.614903
  C 2.440590 1.181798 2.844035
  C 3.471208 1.593613 3.888802
  C 2.779972 -0.461144 -0.701608
  H 3.744396 -0.924364 -0.552551
  H 0.349417 0.081400 1.420584
  H 1.956678 -1.147977 -0.907845
  H 0.288735 0.710655 -0.291953
  H 3.865022 1.305033 1.236161
  H 3.728520 -0.283207 1.888448
  H 1.769047 0.441573 3.284496
  H 1.846442 2.052578 2.564365
  H 4.084114 0.746681 4.188511
  H 2.976949 1.978558 4.777179
  H 4.125868 2.373760 3.507361
  H 2.771875 0.165275 -1.597634
 18
 4.951276
  C 0.855160 0.316291 0.522795
  C 2.222285 0.248761 0.477006
  C 3.099667 0.591589 1.601506
  C 2.443484 1.192196 2.837899
  C 3.489565 1.562656 3.882137
  C 2.789803 -0.446766 -0.697212
  H 3.797923 -0.803807 -0.533244
  H 0.323815 0.217404 1.459321
  H 2.092584 -1.255439 -0.918887
  H 0.253839 0.581109 -0.332932
  H 3.858676 1.292627 1.227386
  H 3.685515 -0.298839 1.866748
  H 1.754090 0.464903 3.274272
  H 1.872294 2.082988 2.574256
  H 4.052559 0.688702 4.201050
  H 3.012003 1.991807 4.759437
  H 4.189331 2.299117 3.493673
  H 2.736457 0.178736 -1.591723
 18
 1.699640
  C 0.825846 0.319073 0.542615
  C 2.186061 0.203377 0.498689
  C 3.074307 0.563160 1.611351
  C 2.451196 1.221338 2.832697
  C 3.504261 1.553449 3.882555
  C 2.788201 -0.417027 -0.707782
  H 3.830709 -0.674703 -0.563139
  H 0.282293 0.322716 1.475783
  H 2.220018 -1.309254 -0.979352
  H 0.233780 0.375153 -0.356774
  H 3.871329 1.218882 1.226496
  H 3.628325 -0.345880 1.897630
  H 1.715253 0.540632 3.274642
  H 1.923815 2.138485 2.554783
  H 4.036882 0.659033 4.204878
  H 3.035750 2.001516 4.758609
  H 4.232637 2.267311 3.500270
  H 2.688387 0.266777 -1.550461
 18
 0.111739
  C 0.801079 0.200674 0.587579
  C 2.166708 0.151482 0.512393
  C 3.050011 0.524805 1.627356
  C 2.473582 1.281898 2.802430
  C 3.507340 1.539315 3.887726
  C 2.798804 -0.330393 -0.734070
  H 3.869783 -0.468182 -0.635899
  H 0.283659 0.372432 1.514928
  H 2.338617 -1.253975 -1.080621
  H 0.190646 0.041231 -0.285647
  H 3.927175 1.061957 1.240212
  H 3.503896 -0.417556 1.979644
  H 1.631618 0.735137 3.239838
  H 2.068260 2.241529 2.467728
  H 3.913727 0.608240 4.277994
  H 3.059671 2.084080 4.714678
  H 4.337205 2.132353 3.511754
  H 2.607270 0.399010 -1.524534
