 29
 0.000000
  H 1.461173 0.162156 0.458554
  C 2.539633 0.146023 0.417060
  C 3.299514 0.615459 1.582959
  C 2.451950 1.088349 2.759658
  C 3.330224 1.554360 3.916688
  C 3.102948 -0.323959 -0.752736
  C 4.477285 -0.419091 -0.990714
  C 5.137647 -0.876128 -2.131227
  C 4.612764 -1.393300 -3.421772
  C 3.117040 -1.500711 -3.691202
  C 2.879050 -2.061673 -5.091088
  O 6.452912 -0.879032 -2.138751
  H 3.959648 1.434392 1.272447
  H 3.960642 -0.189655 1.925774
  H 1.809827 0.277039 3.107073
  H 1.808877 1.913591 2.448716
  H 3.965478 0.747039 4.273950
  H 2.713827 1.888212 4.747535
  H 3.964442 2.384830 3.615019
  H 2.420713 -0.634363 -1.524970
  H 5.118822 -0.093477 -0.178961
  H 5.063499 -2.383592 -3.556273
  H 5.064183 -0.770500 -4.202977
  H 2.648286 -0.517879 -3.632112
  H 2.647614 -2.170356 -2.969814
  H 3.314333 -1.415998 -5.850084
  H 1.812836 -2.139931 -5.287428
  H 3.313735 -3.053107 -5.193955
  H 6.863029 -0.549778 -1.315857
 29
 -0.147619
  H 1.499880 0.083775 0.540969
  C 2.577141 0.081881 0.450259
  C 3.329975 0.609718 1.593423
  C 2.453196 1.087310 2.747629
  C 3.294948 1.624308 3.898260
  C 3.109089 -0.409597 -0.722123
  C 4.481543 -0.476136 -0.980114
  C 5.141144 -0.928401 -2.123809
  C 4.607372 -1.400247 -3.427347
  C 3.110159 -1.495985 -3.689085
  C 2.866196 -1.991209 -5.111664
  O 6.455790 -0.934270 -2.131674
  H 3.969249 1.435982 1.262378
  H 4.023683 -0.153865 1.961761
  H 1.839378 0.261289 3.108933
  H 1.780923 1.871522 2.399089
  H 3.956582 0.855129 4.287482
  H 2.656601 1.959295 4.710639
  H 3.899342 2.469788 3.576827
  H 2.413702 -0.763377 -1.465408
  H 5.133076 -0.121491 -0.189486
  H 5.061398 -2.380996 -3.604672
  H 5.058482 -0.749757 -4.186646
  H 2.642498 -0.516168 -3.581333
  H 2.647616 -2.199918 -2.997306
  H 3.297753 -1.309693 -5.841145
  H 1.800627 -2.063473 -5.308357
  H 3.303834 -2.975143 -5.262618
  H 6.882244 -0.626554 -1.308196
 29
 -0.084989
  H 1.503684 0.013253 0.569407
  C 2.580044 0.035919 0.467578
  C 3.331571 0.602941 1.593839
  C 2.453465 1.092720 2.742807
  C 3.292861 1.674246 3.874165
  C 3.111700 -0.469372 -0.698409
  C 4.483229 -0.515479 -0.966547
  C 5.143966 -0.965035 -2.111773
  C 4.609443 -1.396395 -3.429542
  C 3.111665 -1.493828 -3.687072
  C 2.863201 -1.939416 -5.126120
  O 6.455803 -0.988552 -2.112109
  H 3.955943 1.433483 1.239447
  H 4.040699 -0.141566 1.975894
  H 1.858166 0.264105 3.129421
  H 1.763208 1.855388 2.379325
  H 3.971732 0.927181 4.277960
  H 2.653519 2.017234 4.682414
  H 3.878509 2.522827 3.528281
  H 2.419352 -0.862714 -1.421197
  H 5.132936 -0.137742 -0.185191
  H 5.072040 -2.365256 -3.648041
  H 5.049688 -0.712471 -4.163973
  H 2.639497 -0.522580 -3.541355
  H 2.658054 -2.225912 -3.018017
  H 3.285502 -1.227096 -5.833898
  H 1.796410 -2.013663 -5.319262
  H 3.308105 -2.914674 -5.315341
  H 6.880330 -0.704799 -1.279376
 29
 0.103832
  H 1.510022 -0.083503 0.611333
  C 2.584928 -0.042603 0.498347
  C 3.334235 0.585138 1.595667
  C 2.455085 1.101083 2.731190
  C 3.291943 1.747024 3.832197
  C 3.115737 -0.569525 -0.657148
  C 4.483326 -0.585279 -0.939957
  C 5.144441 -1.018693 -2.094510
  C 4.612599 -1.388451 -3.429947
  C 3.116326 -1.493048 -3.683097
  C 2.861718 -1.857844 -5.144799
  O 6.457063 -1.049894 -2.092354
  H 3.935661 1.416021 1.203140
  H 4.062410 -0.126042 1.999970
  H 1.883204 0.275426 3.155707
  H 1.742780 1.831727 2.343364
  H 3.991944 1.031243 4.260775
  H 2.650520 2.111353 4.633135
  H 3.856457 2.594753 3.445321
  H 2.426740 -1.002731 -1.363132
  H 5.136978 -0.181223 -0.173050
  H 5.087123 -2.337206 -3.702758
  H 5.037821 -0.659100 -4.127514
  H 2.632639 -0.540547 -3.476116
  H 2.681300 -2.270324 -3.053430
  H 3.266093 -1.100903 -5.811970
  H 1.796244 -1.937494 -5.333327
  H 3.318963 -2.812533 -5.393893
  H 6.881184 -0.801184 -1.249219
 29
 0.622417
  H 1.506504 -0.110427 0.624840
  C 2.584954 -0.061722 0.505051
  C 3.336121 0.592864 1.591267
  C 2.459217 1.110045 2.726683
  C 3.294389 1.765975 3.818941
  C 3.117693 -0.607272 -0.638569
  C 4.484586 -0.617520 -0.932154
  C 5.139762 -1.048962 -2.085719
  C 4.621808 -1.387294 -3.436634
  C 3.121662 -1.495722 -3.686117
  C 2.859453 -1.825431 -5.151087
  O 6.451229 -1.075017 -2.075472
  H 3.925683 1.427280 1.184120
  H 4.077072 -0.103429 1.994402
  H 1.896502 0.285322 3.158707
  H 1.737719 1.835665 2.336428
  H 3.996223 1.053555 4.250493
  H 2.657119 2.129111 4.616397
  H 3.854648 2.607724 3.427867
  H 2.436480 -1.066410 -1.334287
  H 5.149349 -0.185534 -0.189415
  H 5.100699 -2.336792 -3.722344
  H 5.052443 -0.647132 -4.114315
  H 2.632066 -0.551519 -3.453359
  H 2.695574 -2.290627 -3.072350
  H 3.255265 -1.050585 -5.800397
  H 1.793879 -1.907579 -5.335372
  H 3.323668 -2.770919 -5.427286
  H 6.870589 -0.843840 -1.227432
 29
 1.210278
  H 1.514214 -0.144740 0.631738
  C 2.587523 -0.078393 0.510479
  C 3.334501 0.590018 1.588054
  C 2.458992 1.097855 2.731838
  C 3.295538 1.770017 3.811735
  C 3.126065 -0.619599 -0.632548
  C 4.488740 -0.621290 -0.927645
  C 5.137624 -1.052239 -2.089937
  C 4.628859 -1.377987 -3.442526
  C 3.127009 -1.506404 -3.680526
  C 2.855434 -1.805617 -5.152797
  O 6.448451 -1.069776 -2.081600
  H 3.906099 1.430927 1.167267
  H 4.094703 -0.092568 1.986436
  H 1.900352 0.265796 3.172263
  H 1.732247 1.815587 2.344036
  H 4.005488 1.067560 4.243122
  H 2.659898 2.133440 4.612656
  H 3.848133 2.612047 3.408762
  H 2.452915 -1.095220 -1.329067
  H 5.172322 -0.191303 -0.205785
  H 5.124237 -2.306919 -3.746132
  H 5.045710 -0.614784 -4.107688
  H 2.624993 -0.574148 -3.417144
  H 2.722098 -2.321920 -3.080317
  H 3.234049 -1.009947 -5.788793
  H 1.786576 -1.906458 -5.329462
  H 3.335971 -2.734161 -5.454449
  H 6.868009 -0.851434 -1.229894
 29
 0.911902
  H 1.530018 -0.221472 0.647446
  C 2.599999 -0.130573 0.519531
  C 3.332707 0.608527 1.557379
  C 2.457708 1.116460 2.697520
  C 3.288206 1.839947 3.754689
  C 3.144959 -0.699907 -0.610416
  C 4.508616 -0.699450 -0.903998
  C 5.161755 -1.128503 -2.064435
  C 4.637046 -1.395610 -3.426177
  C 3.131811 -1.478486 -3.665103
  C 2.849665 -1.710556 -5.146298
  O 6.470530 -1.230466 -2.040629
  H 3.857118 1.460062 1.100743
  H 4.127541 -0.026979 1.968459
  H 1.942716 0.275957 3.164509
  H 1.695678 1.794106 2.308375
  H 4.031694 1.173739 4.189748
  H 2.649419 2.198028 4.558295
  H 3.800485 2.698896 3.327251
  H 2.476227 -1.211712 -1.280275
  H 5.179144 -0.266470 -0.167900
  H 5.108720 -2.324473 -3.761279
  H 5.061299 -0.618597 -4.070263
  H 2.649889 -0.549384 -3.362059
  H 2.708522 -2.305210 -3.099304
  H 3.241270 -0.891628 -5.749171
  H 1.779584 -1.774558 -5.321909
  H 3.306094 -2.635833 -5.489721
  H 6.890375 -1.075381 -1.172452
 29
 0.788278
  H 1.566083 -0.353578 0.700772
  C 2.628136 -0.229051 0.546956
  C 3.344324 0.580017 1.542169
  C 2.456042 1.111647 2.666886
  C 3.258647 1.935643 3.666051
  C 3.178511 -0.822906 -0.566444
  C 4.537663 -0.777625 -0.880800
  C 5.187111 -1.211688 -2.041870
  C 4.637885 -1.423770 -3.405357
  C 3.133264 -1.465161 -3.637235
  C 2.837798 -1.560611 -5.131097
  O 6.493027 -1.335516 -2.032813
  H 3.834124 1.425348 1.043877
  H 4.162056 -0.006304 1.976664
  H 1.984324 0.276361 3.188777
  H 1.659580 1.730330 2.247946
  H 4.042041 1.336975 4.122432
  H 2.612497 2.307709 4.458866
  H 3.719553 2.793434 3.180539
  H 2.520710 -1.395555 -1.197441
  H 5.193190 -0.317925 -0.147937
  H 5.094012 -2.342780 -3.796193
  H 5.070117 -0.622522 -4.019823
  H 2.661639 -0.565888 -3.244512
  H 2.701010 -2.338031 -3.145118
  H 3.229736 -0.693145 -5.662699
  H 1.765473 -1.602233 -5.301428
  H 3.282814 -2.455732 -5.560103
  H 6.922345 -1.205394 -1.165932
 29
 1.310860
  H 1.596352 -0.468621 0.736207
  C 2.655259 -0.314921 0.568508
  C 3.358052 0.535041 1.541840
  C 2.453269 1.102890 2.633198
  C 3.226423 2.025213 3.568394
  C 3.212208 -0.913039 -0.538747
  C 4.567602 -0.833228 -0.871404
  C 5.205532 -1.300244 -2.022794
  C 4.644799 -1.468859 -3.385522
  C 3.135173 -1.442003 -3.608547
  C 2.827875 -1.413345 -5.104801
  O 6.504980 -1.478050 -2.010797
  H 3.844021 1.368346 1.017390
  H 4.175491 -0.029608 2.006102
  H 2.016019 0.290692 3.211073
  H 1.638793 1.663669 2.174176
  H 4.033646 1.489548 4.063584
  H 2.568554 2.424125 4.337026
  H 3.651300 2.864455 3.022843
  H 2.573401 -1.543539 -1.129583
  H 5.210135 -0.303543 -0.172467
  H 5.072447 -2.382699 -3.814292
  H 5.093746 -0.654031 -3.967482
  H 2.694215 -0.557197 -3.143715
  H 2.671819 -2.335145 -3.179706
  H 3.243537 -0.522943 -5.572037
  H 1.754523 -1.410733 -5.269445
  H 3.240760 -2.285608 -5.603267
  H 6.938965 -1.340411 -1.147803
 29
 2.377597
  H 1.597815 -0.494330 0.757420
  C 2.648878 -0.330417 0.574735
  C 3.344183 0.577336 1.501783
  C 2.456798 1.117733 2.615968
  C 3.237051 2.036008 3.549513
  C 3.210038 -0.968459 -0.508249
  C 4.562731 -0.897615 -0.843916
  C 5.198442 -1.341191 -2.009489
  C 4.657036 -1.425247 -3.388339
  C 3.150042 -1.417367 -3.608695
  C 2.838524 -1.391666 -5.103660
  O 6.487916 -1.571265 -1.985823
  H 3.765099 1.421454 0.941811
  H 4.207088 0.063206 1.944438
  H 2.044271 0.287142 3.192434
  H 1.622299 1.668946 2.184756
  H 4.061512 1.504627 4.016449
  H 2.591847 2.411775 4.338296
  H 3.637772 2.890148 3.009516
  H 2.570901 -1.605835 -1.093753
  H 5.217463 -0.328774 -0.191537
  H 5.098179 -2.306672 -3.866283
  H 5.095466 -0.569473 -3.914142
  H 2.704087 -0.540140 -3.140611
  H 2.700235 -2.314057 -3.176606
  H 3.261342 -0.505188 -5.575672
  H 1.763417 -1.378561 -5.265495
  H 3.243882 -2.270214 -5.600894
  H 6.913607 -1.491729 -1.110691
 29
 4.228095
  H 1.605710 -0.561827 0.774245
  C 2.658062 -0.398931 0.588639
  C 3.344554 0.550424 1.477702
  C 2.447802 1.132412 2.565940
  C 3.225257 2.076342 3.479757
  C 3.234060 -1.091335 -0.450275
  C 4.578411 -0.997686 -0.804020
  C 5.203613 -1.361316 -2.002245
  C 4.665494 -1.407903 -3.382133
  C 3.159300 -1.306751 -3.588555
  C 2.829588 -1.321672 -5.079226
  O 6.499967 -1.558224 -1.994482
  H 3.766927 1.370962 0.888023
  H 4.202151 0.054602 1.946346
  H 2.021922 0.324782 3.161402
  H 1.621815 1.678677 2.107653
  H 4.040072 1.554921 3.973476
  H 2.573871 2.483727 4.248176
  H 3.640753 2.909754 2.915018
  H 2.612614 -1.783354 -0.996533
  H 5.230726 -0.344627 -0.225908
  H 5.042997 -2.317401 -3.858290
  H 5.160008 -0.585952 -3.910960
  H 2.781095 -0.384523 -3.148105
  H 2.659444 -2.150078 -3.114941
  H 3.313871 -0.495544 -5.593725
  H 1.757332 -1.230334 -5.230893
  H 3.157486 -2.249875 -5.540550
  H 6.926303 -1.538618 -1.115977
 29
 6.457904
  H 1.623030 -0.678796 0.854893
  C 2.668328 -0.493873 0.636666
  C 3.349514 0.505362 1.475039
  C 2.446771 1.144426 2.526808
  C 3.207852 2.170101 3.359781
  C 3.239507 -1.197925 -0.395055
  C 4.575911 -1.093103 -0.773530
  C 5.196963 -1.379451 -1.994368
  C 4.673595 -1.398121 -3.381403
  C 3.168964 -1.233091 -3.573977
  C 2.827069 -1.183451 -5.057445
  O 6.494602 -1.576222 -1.992486
  H 3.765809 1.296351 0.838342
  H 4.209655 0.042813 1.970859
  H 2.049966 0.374820 3.182666
  H 1.602224 1.633942 2.036943
  H 4.038454 1.703921 3.885486
  H 2.550833 2.620651 4.103241
  H 3.600847 2.967328 2.730528
  H 2.628348 -1.917923 -0.915723
  H 5.261295 -0.432093 -0.238086
  H 5.008276 -2.330528 -3.851225
  H 5.203998 -0.603120 -3.914724
  H 2.831750 -0.307349 -3.099399
  H 2.638998 -2.068904 -3.119172
  H 3.318610 -0.343292 -5.541838
  H 1.754443 -1.072354 -5.196069
  H 3.139545 -2.096555 -5.558892
  H 6.923953 -1.592709 -1.115282
 29
 10.511861
  H 1.573479 -0.618760 0.931023
  C 2.620653 -0.475375 0.696026
  C 3.344660 0.509335 1.516915
  C 2.477213 1.183542 2.576790
  C 3.268064 2.225172 3.359592
  C 3.141873 -1.159872 -0.373215
  C 4.462602 -1.078786 -0.784859
  C 5.118518 -1.326433 -1.995143
  C 4.684790 -1.329167 -3.411948
  C 3.177516 -1.275760 -3.660970
  C 2.884336 -1.193656 -5.154306
  O 6.417816 -1.543659 -1.953618
  H 3.761007 1.282406 0.863489
  H 4.202821 0.029999 2.002680
  H 2.091071 0.434928 3.260837
  H 1.625750 1.665144 2.092876
  H 4.114475 1.767651 3.868776
  H 2.638607 2.696080 4.113088
  H 3.643648 3.005108 2.699176
  H 2.515937 -1.873687 -0.884516
  H 5.258684 -0.497102 -0.296333
  H 5.114719 -2.215494 -3.887507
  H 5.172189 -0.481573 -3.901229
  H 2.755406 -0.395307 -3.170400
  H 2.699503 -2.166232 -3.248868
  H 3.308578 -0.288638 -5.583864
  H 1.812729 -1.180887 -5.331869
  H 3.303714 -2.047901 -5.680918
  H 6.832921 -1.551257 -1.069513
 29
 22.796730
  H 1.601746 -0.704277 1.011804
  C 2.629216 -0.511046 0.710603
  C 3.327711 0.549576 1.464778
  C 2.475208 1.193812 2.568063
  C 3.252513 2.267579 3.308655
  C 3.159481 -1.236312 -0.310415
  C 4.434370 -1.082706 -0.791738
  C 5.116141 -1.290911 -1.992116
  C 4.687418 -1.306511 -3.415161
  C 3.191919 -1.143397 -3.669138
  C 2.903929 -1.126434 -5.161862
  O 6.399716 -1.519772 -1.948064
  H 3.657973 1.331891 0.772684
  H 4.238008 0.134346 1.922901
  H 2.149890 0.432115 3.269961
  H 1.583510 1.641781 2.116111
  H 4.134313 1.848155 3.786166
  H 2.638015 2.718939 4.081554
  H 3.568200 3.051578 2.632952
  H 2.568004 -2.025130 -0.759996
  H 5.242438 -0.376185 -0.452595
  H 5.056125 -2.239185 -3.863628
  H 5.232116 -0.511925 -3.934480
  H 2.840294 -0.205709 -3.228175
  H 2.648940 -1.970489 -3.210931
  H 3.425005 -0.305075 -5.650333
  H 1.839787 -1.004359 -5.343000
  H 3.221582 -2.057301 -5.631010
  H 6.816442 -1.553814 -1.068994
