 26
 0.000000
  H 1.461465 0.064214 -0.002294
  C 2.539209 0.065986 -0.033720
  C 3.212732 -0.009715 1.307928
  C 2.231302 -0.075390 2.471737
  H 2.762854 -0.128782 3.418022
  C 3.178709 0.132254 -1.208123
  C 2.467056 0.207142 -2.535308
  C 0.942105 0.205730 -2.510241
  C 0.375959 0.285526 -3.924427
  C 4.631657 0.136200 -1.277982
  C 5.373462 0.198629 -2.384489
  O 6.730460 0.199703 -2.403470
  H 3.856320 0.865910 1.444289
  H 3.856325 -0.895123 1.344920
  H 1.593919 -0.953456 2.384053
  H 1.593913 0.806960 2.483388
  H 2.797971 -0.638332 -3.146979
  H 2.797974 1.116060 -3.047983
  H 0.576158 1.060838 -1.938756
  H 0.576161 -0.708236 -2.038582
  H 0.702702 1.197168 -4.420263
  H -0.711509 0.283981 -3.897050
  H 0.702700 -0.564547 -4.519665
  H 5.162046 0.083013 -0.335354
  H 4.987345 0.255334 -3.389419
  H 7.066988 0.148682 -1.499185
 26
 13.232795
  H 1.424225 0.059521 0.080894
  C 2.498803 0.061298 0.049361
  C 3.178665 -0.013702 1.378586
  C 2.198563 -0.079409 2.542962
  H 2.732011 -0.132763 3.488551
  C 3.208380 0.135637 -1.268066
  C 2.485089 0.209723 -2.581039
  C 0.960787 0.206891 -2.530811
  C 0.370543 0.286143 -3.935353
  C 4.647347 0.139332 -1.333491
  C 5.392573 0.201863 -2.441796
  O 6.749673 0.202812 -2.458569
  H 3.823246 0.862329 1.511900
  H 3.823251 -0.899170 1.412504
  H 1.561284 -0.957629 2.456429
  H 1.561276 0.802967 2.555776
  H 2.808658 -0.635953 -3.196553
  H 2.808660 1.119271 -3.097507
  H 0.604715 1.061283 -1.952237
  H 0.604717 -0.707162 -2.052028
  H 0.688382 1.198101 -4.436491
  H -0.716349 0.283589 -3.890088
  H 0.688382 -0.563651 -4.535900
  H 5.175095 0.085982 -0.387964
  H 5.007126 0.258588 -3.447074
  H 7.085070 0.151763 -1.553805
 26
 38.023758
  H 1.387961 0.061143 0.052156
  C 2.457502 0.060306 0.066946
  C 3.168229 -0.012885 1.364087
  C 2.184296 -0.078669 2.529853
  H 2.720444 -0.132024 3.475488
  C 3.254210 0.142195 -1.384273
  C 2.482875 0.214239 -2.661064
  C 0.961794 0.206471 -2.523388
  C 0.284755 0.283480 -3.888123
  C 4.673571 0.140354 -1.351602
  C 5.486968 0.200468 -2.417057
  O 6.842386 0.196597 -2.348429
  H 3.821718 0.863027 1.483929
  H 3.821722 -0.896716 1.384632
  H 1.548423 -0.957354 2.445015
  H 1.548423 0.803975 2.544398
  H 2.780651 -0.633076 -3.291375
  H 2.780657 1.127091 -3.192059
  H 0.653189 1.057510 -1.914567
  H 0.653184 -0.707667 -2.014162
  H 0.570168 1.196100 -4.407166
  H -0.797422 0.277304 -3.778667
  H 0.570167 -0.564959 -4.506534
  H 5.139871 0.085132 -0.372925
  H 5.157191 0.258219 -3.440520
  H 7.120560 0.144504 -1.425170
 26
 66.407647
  H 1.333808 0.057107 0.123674
  C 2.403856 0.055663 0.149217
  C 3.137584 -0.016926 1.435689
  C 2.170838 -0.083376 2.613265
  H 2.718845 -0.136316 3.551562
  C 3.271752 0.145590 -1.444452
  C 2.490033 0.216878 -2.707852
  C 0.971713 0.208287 -2.555569
  C 0.282434 0.284778 -3.911125
  C 4.679766 0.142744 -1.393963
  C 5.502876 0.203078 -2.463305
  O 6.860223 0.198991 -2.390835
  H 3.791060 0.856533 1.549526
  H 3.791072 -0.897652 1.450546
  H 1.535211 -0.962711 2.536159
  H 1.535203 0.799051 2.635566
  H 2.782674 -0.629112 -3.341057
  H 2.782675 1.128729 -3.241865
  H 0.668142 1.059484 -1.943895
  H 0.668142 -0.706315 -2.043534
  H 0.562685 1.197707 -4.432647
  H -0.798498 0.278022 -3.791409
  H 0.562685 -0.563690 -4.532034
  H 5.136972 0.087469 -0.414338
  H 5.171478 0.260919 -3.488362
  H 7.135598 0.146804 -1.465900
