 23
 0.000000
  C 0.993073 0.136275 0.384182
  C 2.465479 0.145686 0.416292
  C 3.226373 0.617757 1.592957
  C 2.431803 1.104842 2.801357
  C 3.374641 1.550500 3.915401
  C 3.117203 -0.312980 -0.723900
  C 4.495403 -0.384301 -0.906550
  C 5.074338 -0.848728 -2.066033
  H 4.510468 -1.194896 -2.922666
  O 6.354973 -0.926666 -2.271991
  H 0.538159 0.507025 1.294096
  H 0.634359 -0.876259 0.191361
  H 0.640283 0.734275 -0.458213
  H 3.890146 1.428470 1.270790
  H 3.887331 -0.192357 1.922340
  H 1.793835 0.306049 3.183217
  H 1.797069 1.947934 2.523556
  H 4.008550 0.729118 4.241837
  H 2.807129 1.897103 4.775441
  H 4.011923 2.367121 3.583781
  H 2.485187 -0.640218 -1.537816
  H 5.152195 -0.062728 -0.109942
  H 6.909662 -0.623402 -1.526280
 23
 1.905109
  C 1.050735 0.113371 0.356110
  C 2.519112 0.151164 0.463754
  C 3.253421 0.639482 1.647506
  C 2.418210 1.109011 2.833046
  C 3.317426 1.576443 3.972576
  C 3.152731 -0.290913 -0.682135
  C 4.528486 -0.394029 -0.906893
  C 5.038251 -0.847682 -2.117136
  H 4.380221 -1.136714 -2.929828
  O 6.299043 -0.978497 -2.416916
  H 0.517946 0.549938 1.192633
  H 0.709610 -0.915758 0.217050
  H 0.808084 0.619478 -0.589354
  H 3.910916 1.457561 1.334001
  H 3.926143 -0.155885 1.987435
  H 1.787271 0.295123 3.194085
  H 1.772639 1.936727 2.534358
  H 3.960464 0.769962 4.317946
  H 2.717877 1.910468 4.815585
  H 3.945290 2.407227 3.658159
  H 2.445723 -0.560132 -1.476184
  H 5.216172 -0.116340 -0.119516
  H 6.919249 -0.726116 -1.703324
 23
 5.210383
  C 1.099839 0.112256 0.342701
  C 2.559222 0.158541 0.496955
  C 3.272674 0.652764 1.683797
  C 2.409631 1.107273 2.849389
  C 3.274819 1.584012 4.009051
  C 3.182156 -0.276578 -0.668035
  C 4.539486 -0.405009 -0.926046
  C 5.003617 -0.841246 -2.156908
  H 4.308422 -1.092133 -2.952470
  O 6.246410 -0.996887 -2.495016
  H 0.521323 0.658382 1.075323
  H 0.769998 -0.931907 0.348106
  H 0.954070 0.450497 -0.700468
  H 3.923859 1.475431 1.378422
  H 3.950194 -0.130891 2.032078
  H 1.780743 0.283981 3.190509
  H 1.760322 1.926148 2.536325
  H 3.920709 0.785681 4.367934
  H 2.651425 1.908440 4.838100
  H 3.898562 2.423683 3.710051
  H 2.422987 -0.491952 -1.422579
  H 5.246350 -0.161824 -0.146950
  H 6.890287 -0.777291 -1.791344
 23
 10.978815
  C 1.134668 0.107977 0.328385
  C 2.587413 0.157533 0.517466
  C 3.287207 0.657676 1.708942
  C 2.403156 1.105742 2.860875
  C 3.244568 1.590569 4.033884
  C 3.197024 -0.270607 -0.652961
  C 4.550826 -0.419203 -0.941868
  C 4.978650 -0.829987 -2.181440
  H 4.263346 -1.048474 -2.969915
  O 6.212524 -1.000132 -2.548091
  H 0.533726 0.745542 0.966224
  H 0.788512 -0.929339 0.461514
  H 1.070798 0.298236 -0.756344
  H 3.934756 1.484259 1.408148
  H 3.967767 -0.118652 2.066754
  H 1.775250 0.278417 3.190479
  H 1.752399 1.917973 2.536916
  H 3.891421 0.797852 4.404316
  H 2.604521 1.910676 4.852423
  H 3.866353 2.435355 3.744038
  H 2.381168 -0.425654 -1.385729
  H 5.276297 -0.208895 -0.172471
  H 6.877668 -0.809102 -1.849120
 23
 18.870557
  C 1.161892 0.112764 0.317827
  C 2.610159 0.169135 0.531243
  C 3.296837 0.665570 1.727482
  C 2.393220 1.105532 2.873146
  C 3.217670 1.588408 4.066501
  C 3.215595 -0.260975 -0.644785
  C 4.561212 -0.415170 -0.960897
  C 4.961149 -0.837415 -2.204916
  H 4.228571 -1.061128 -2.975826
  O 6.188676 -1.014919 -2.596978
  H 0.551787 0.822826 0.854736
  H 0.794764 -0.897768 0.564535
  H 1.179776 0.165875 -0.803819
  H 3.943993 1.497062 1.435017
  H 3.979162 -0.108919 2.089659
  H 1.761509 0.273112 3.187820
  H 1.742800 1.917921 2.543130
  H 3.863512 0.793477 4.443703
  H 2.561952 1.902945 4.879677
  H 3.843090 2.439370 3.790298
  H 2.346834 -0.404181 -1.336874
  H 5.303459 -0.197742 -0.209633
  H 6.865525 -0.821733 -1.918521
 23
 29.831921
  C 1.185299 0.115420 0.315878
  C 2.622167 0.177604 0.536206
  C 3.301576 0.672824 1.739204
  C 2.386390 1.106892 2.882939
  C 3.199964 1.584907 4.085557
  C 3.225338 -0.256380 -0.641456
  C 4.562286 -0.412683 -0.975210
  C 4.945962 -0.847690 -2.223862
  H 4.212907 -1.079042 -2.980704
  O 6.168414 -1.026334 -2.627744
  H 0.577990 0.862759 0.794397
  H 0.797408 -0.871005 0.620252
  H 1.274601 0.088794 -0.828214
  H 3.945952 1.505535 1.453742
  H 3.983598 -0.099458 2.103069
  H 1.749177 0.267000 3.190280
  H 1.732939 1.924864 2.550315
  H 3.840682 0.793340 4.462378
  H 2.541789 1.892429 4.889541
  H 3.823382 2.433573 3.820556
  H 2.302593 -0.389531 -1.294489
  H 5.325661 -0.181400 -0.230120
  H 6.859364 -0.823087 -1.951403
 23
 40.326426
  C 1.187940 0.123784 0.310835
  C 2.634434 0.186379 0.545196
  C 3.309323 0.676673 1.756388
  C 2.385148 1.106082 2.886693
  C 3.184542 1.572984 4.103833
  C 3.242676 -0.255516 -0.630002
  C 4.577958 -0.395412 -0.982749
  C 4.945096 -0.863589 -2.225982
  H 4.191664 -1.133541 -2.961560
  O 6.159140 -1.034547 -2.651834
  H 0.583271 0.921602 0.717576
  H 0.782592 -0.813154 0.671951
  H 1.333381 -0.004591 -0.849187
  H 3.961379 1.513904 1.478014
  H 3.986940 -0.100395 2.125173
  H 1.743837 0.271201 3.177458
  H 1.743415 1.923156 2.551686
  H 3.821125 0.769950 4.486502
  H 2.510236 1.881227 4.908037
  H 3.819917 2.426592 3.850259
  H 2.259744 -0.404239 -1.255829
  H 5.338331 -0.123570 -0.273796
  H 6.858298 -0.799423 -2.000143
 23
 51.565722
  C 1.191631 0.138303 0.319031
  C 2.636849 0.193766 0.545012
  C 3.310445 0.676088 1.758084
  C 2.381992 1.107098 2.889320
  C 3.178955 1.559444 4.112691
  C 3.251494 -0.254790 -0.622680
  C 4.584654 -0.377052 -0.987823
  C 4.946190 -0.879833 -2.218434
  H 4.191940 -1.191558 -2.932085
  O 6.160779 -1.038374 -2.655938
  H 0.603343 0.968684 0.679206
  H 0.758415 -0.779075 0.716213
  H 1.369410 -0.063631 -0.868842
  H 3.968223 1.511664 1.484583
  H 3.982133 -0.108285 2.126530
  H 1.732284 0.275251 3.172143
  H 1.747999 1.931812 2.556333
  H 3.803889 0.753012 4.491364
  H 2.507534 1.866683 4.911362
  H 3.819550 2.404788 3.868921
  H 2.211531 -0.419514 -1.234102
  H 5.352348 -0.056533 -0.297920
  H 6.857606 -0.765448 -2.025446
 23
 61.437835
  C 1.190421 0.154388 0.322708
  C 2.633887 0.198791 0.539562
  C 3.311627 0.673709 1.761900
  C 2.383963 1.109302 2.890044
  C 3.180086 1.541135 4.119132
  C 3.254116 -0.258405 -0.614318
  C 4.586151 -0.353223 -0.993782
  C 4.949377 -0.902150 -2.201121
  H 4.199102 -1.277247 -2.888228
  O 6.163789 -1.037720 -2.648454
  H 0.618851 1.017307 0.642759
  H 0.732267 -0.738430 0.740044
  H 1.382586 -0.119850 -0.889943
  H 3.975317 1.499949 1.496691
  H 3.970063 -0.118205 2.128339
  H 1.722214 0.285091 3.163992
  H 1.763562 1.944664 2.559957
  H 3.794206 0.719221 4.496339
  H 2.506121 1.853481 4.919610
  H 3.836741 2.382642 3.883038
  H 2.163464 -0.449169 -1.222875
  H 5.354612 0.038440 -0.330888
  H 6.859998 -0.705176 -2.039349
 23
 69.942938
  C 1.185103 0.179515 0.337219
  C 2.631450 0.208123 0.536686
  C 3.312449 0.670270 1.763853
  C 2.383629 1.112836 2.892855
  C 3.181510 1.520589 4.129685
  C 3.263180 -0.258112 -0.599068
  C 4.590811 -0.321879 -1.000474
  C 4.959973 -0.928688 -2.176703
  H 4.217946 -1.379689 -2.825976
  O 6.174018 -1.039867 -2.638264
  H 0.636350 1.059670 0.619578
  H 0.704531 -0.696989 0.760870
  H 1.379222 -0.170881 -0.922919
  H 3.991030 1.494253 1.503710
  H 3.958435 -0.136163 2.129506
  H 1.705499 0.295980 3.157614
  H 1.778526 1.962846 2.566742
  H 3.774821 0.692148 4.499807
  H 2.515049 1.835564 4.923682
  H 3.848545 2.345534 3.905941
  H 2.119655 -0.486158 -1.230188
  H 5.340233 0.149564 -0.389900
  H 6.858638 -0.643580 -2.067113
 23
 79.234871
  C 1.176973 0.195299 0.359808
  C 2.624170 0.212513 0.531503
  C 3.311648 0.670811 1.766288
  C 2.383755 1.115118 2.898975
  C 3.184420 1.509457 4.134429
  C 3.274565 -0.252483 -0.585851
  C 4.596718 -0.305090 -1.003719
  C 4.969352 -0.944106 -2.159300
  H 4.234707 -1.436120 -2.785828
  O 6.182571 -1.042392 -2.629179
  H 0.639576 1.088362 0.636411
  H 0.685482 -0.681389 0.768346
  H 1.359725 -0.206144 -0.986743
  H 3.990158 1.488998 1.510029
  H 3.952003 -0.142186 2.129144
  H 1.700775 0.302852 3.160399
  H 1.785252 1.971463 2.578390
  H 3.773687 0.671068 4.500283
  H 2.518197 1.826733 4.933696
  H 3.859902 2.333157 3.912658
  H 2.066092 -0.515211 -1.275652
  H 5.342973 0.214070 -0.417177
  H 6.862163 -0.608096 -2.076743
 23
 87.233808
  C 1.166399 0.211045 0.387333
  C 2.615219 0.217990 0.524522
  C 3.310063 0.673091 1.768243
  C 2.384640 1.114536 2.900949
  C 3.190199 1.495827 4.137716
  C 3.289389 -0.240737 -0.564662
  C 4.602379 -0.285015 -1.004974
  C 4.977960 -0.963198 -2.134326
  H 4.251837 -1.501535 -2.729172
  O 6.188399 -1.048900 -2.617132
  H 0.637543 1.115547 0.665599
  H 0.662204 -0.673198 0.762204
  H 1.332940 -0.235021 -1.064558
  H 3.988911 1.490540 1.515629
  H 3.944129 -0.145612 2.126308
  H 1.697918 0.305018 3.157890
  H 1.791424 1.976452 2.586992
  H 3.776402 0.648982 4.497695
  H 2.524857 1.813045 4.942412
  H 3.872143 2.318633 3.919159
  H 2.011350 -0.542437 -1.337235
  H 5.344051 0.289979 -0.451548
  H 6.862849 -0.572448 -2.090347
 23
 93.787562
  C 1.157506 0.229531 0.417150
  C 2.600945 0.225241 0.516786
  C 3.303874 0.676349 1.769621
  C 2.382662 1.112505 2.903026
  C 3.199498 1.481603 4.145274
  C 3.306072 -0.223345 -0.542943
  C 4.606355 -0.262745 -1.007900
  C 4.987761 -0.984325 -2.105660
  H 4.273213 -1.573340 -2.662560
  O 6.195528 -1.056814 -2.603404
  H 0.638742 1.137374 0.704533
  H 0.643010 -0.663580 0.754068
  H 1.295900 -0.265889 -1.168289
  H 3.985980 1.500723 1.516989
  H 3.929527 -0.148153 2.120838
  H 1.692067 0.303978 3.155653
  H 1.794515 1.979560 2.597502
  H 3.780651 0.631428 4.496288
  H 2.541296 1.795667 4.952018
  H 3.883861 2.299842 3.931371
  H 1.956518 -0.574655 -1.428032
  H 5.333771 0.366160 -0.499321
  H 6.860434 -0.536058 -2.110745
 23
 98.214499
  C 1.143966 0.245475 0.442539
  C 2.581946 0.232629 0.503787
  C 3.294379 0.680686 1.767343
  C 2.379816 1.111567 2.912677
  C 3.210151 1.466199 4.146925
  C 3.322937 -0.199420 -0.521443
  C 4.609042 -0.239366 -1.010015
  C 4.996679 -1.004838 -2.073990
  H 4.290956 -1.642525 -2.590448
  O 6.197927 -1.064296 -2.589950
  H 0.636144 1.148346 0.744717
  H 0.620985 -0.655714 0.733998
  H 1.253011 -0.296366 -1.298134
  H 3.975304 1.501697 1.517546
  H 3.919575 -0.146903 2.107116
  H 1.688068 0.306626 3.164907
  H 1.793462 1.981731 2.621859
  H 3.790464 0.610875 4.484898
  H 2.562321 1.776218 4.960382
  H 3.896114 2.282891 3.932133
  H 1.904154 -0.612452 -1.545144
  H 5.322432 0.440339 -0.548520
  H 6.854200 -0.500700 -2.136333
