 15
 0.000000
  C 0.923749 0.051231 0.227767
  C 2.420683 0.059934 0.073506
  C 3.248229 -0.011074 1.332011
  H 2.633514 -0.061480 2.225265
  C 3.015668 0.126821 -1.111859
  C 2.351897 0.202375 -2.450867
  H 1.268372 0.199650 -2.402563
  H 4.096568 0.129770 -1.164105
  H 0.634392 -0.007836 1.274543
  H 0.487629 -0.803267 -0.288563
  H 0.487631 0.958392 -0.189156
  H 3.892502 0.864411 1.411999
  H 3.892520 -0.890009 1.313007
  H 2.674105 -0.640794 -3.064322
  H 2.674108 1.109220 -2.965589
 15
 -0.432266
  C 0.926412 0.013490 0.233971
  C 2.418259 0.067212 0.056501
  C 3.237621 0.046709 1.320348
  H 2.620603 0.254342 2.190655
  C 3.016184 0.131886 -1.126827
  C 2.363459 0.172119 -2.470432
  H 1.281167 0.128282 -2.404369
  H 4.098437 0.170261 -1.159059
  H 0.673400 -0.409127 1.203221
  H 0.453736 -0.592882 -0.534794
  H 0.503243 1.017232 0.181830
  H 4.035746 0.785617 1.278469
  H 3.698512 -0.931706 1.457227
  H 2.712387 -0.662119 -3.080171
  H 2.639446 1.091556 -2.987371
 15
 -0.704488
  C 0.921666 0.029723 0.259296
  C 2.405533 0.089044 0.046722
  C 3.221897 0.103789 1.314016
  H 2.598367 0.334138 2.173620
  C 3.006372 0.123011 -1.136270
  C 2.379040 0.109329 -2.492522
  H 1.296463 0.032282 -2.452864
  H 4.088312 0.174796 -1.159528
  H 0.683509 -0.746609 0.984679
  H 0.381575 -0.183395 -0.655896
  H 0.565144 0.982858 0.655018
  H 4.019732 0.841287 1.256125
  H 3.681516 -0.870800 1.480197
  H 2.765988 -0.729972 -3.070408
  H 2.639057 1.022701 -3.028625
 15
 -0.322397
  C 0.919090 0.051150 0.258096
  C 2.402009 0.119765 0.051887
  C 3.219202 0.164646 1.318948
  H 2.588239 0.353617 2.183427
  C 3.003872 0.109114 -1.130359
  C 2.381931 0.039887 -2.487392
  H 1.303215 -0.071213 -2.448076
  H 4.086086 0.172143 -1.152591
  H 0.660495 -0.955349 0.589576
  H 0.371741 0.248400 -0.659708
  H 0.611124 0.777450 1.006050
  H 3.977693 0.943181 1.266803
  H 3.730240 -0.785597 1.474158
  H 2.795371 -0.805635 -3.036933
  H 2.617486 0.942891 -3.051394
 15
 9.692754
  C 0.897221 0.116319 0.255426
  C 2.411797 0.095786 0.073535
  C 3.203279 0.169599 1.351871
  H 2.546407 0.149254 2.218747
  C 2.996754 0.083694 -1.106988
  C 2.362010 -0.025274 -2.460096
  H 1.288766 -0.197549 -2.400326
  H 4.075714 0.193977 -1.131384
  H 0.793960 -0.963934 0.204557
  H 0.410253 0.486547 -0.643021
  H 0.655681 0.734612 1.097467
  H 3.796175 1.083553 1.379897
  H 3.888021 -0.670548 1.433500
  H 2.813006 -0.852460 -3.009892
  H 2.545880 0.883298 -3.033905
 15
 59.080380
  C 0.725964 0.051855 0.268999
  C 2.444616 0.147823 0.072806
  C 3.158965 0.142825 1.379393
  H 2.451992 0.095440 2.204304
  C 3.025880 0.143738 -1.117723
  C 2.363526 -0.016544 -2.448507
  H 1.293149 -0.181317 -2.351183
  H 4.098954 0.273518 -1.178076
  H 1.292974 -0.837950 0.104911
  H 0.246620 0.345033 -0.654840
  H 0.675383 0.781746 1.053459
  H 3.754542 1.049632 1.494675
  H 3.840625 -0.704824 1.441655
  H 2.783820 -0.872180 -2.972656
  H 2.521729 0.868453 -3.062789
 15
 94.038041
  C 0.559457 -0.057830 0.351715
  C 2.503390 0.080612 0.072318
  C 3.163776 0.094987 1.395213
  H 2.405490 0.084239 2.194592
  C 3.061516 0.159508 -1.123312
  C 2.377734 0.025864 -2.443275
  H 1.323636 -0.163210 -2.330239
  H 4.132040 0.374947 -1.191109
  H 1.465247 -0.682943 0.146791
  H 0.134603 0.103363 -0.642953
  H 0.651598 0.897111 0.830284
  H 3.774879 0.995351 1.508256
  H 3.808793 -0.770423 1.513719
  H 2.814721 -0.800970 -3.005107
  H 2.514338 0.945836 -3.041412
 15
 103.012126
  C 0.313615 -0.125676 0.386658
  C 2.595230 0.031123 0.063447
  C 3.231689 0.058874 1.404536
  H 2.476481 -0.030549 2.180123
  C 3.161637 0.130788 -1.123535
  C 2.480657 0.068883 -2.448564
  H 1.406703 -0.054461 -2.334763
  H 4.237361 0.277696 -1.164886
  H 1.470321 -0.323685 0.094561
  H -0.145838 -0.093227 -0.619288
  H 0.245887 0.903246 0.767304
  H 3.774731 0.990929 1.551420
  H 3.936429 -0.768262 1.511231
  H 2.868916 -0.768463 -3.027962
  H 2.674558 0.979656 -3.013373
 15
 104.834499
  C 0.260835 -0.142037 0.368151
  C 2.643585 0.047814 0.069939
  C 3.282404 0.047995 1.414544
  H 2.523034 -0.060787 2.189488
  C 3.197650 0.106268 -1.122788
  C 2.481379 0.098998 -2.433117
  H 1.401080 0.101335 -2.291630
  H 4.278959 0.166602 -1.188840
  H 1.500864 -0.076300 0.151843
  H -0.131471 -0.297526 -0.656377
  H 0.022575 0.914046 0.601536
  H 3.823772 0.980604 1.582428
  H 3.988597 -0.775687 1.502523
  H 2.757714 -0.791840 -3.006613
  H 2.762670 0.968929 -3.018917
 15
 105.098256
  C 0.277216 -0.144556 0.372589
  C 2.646570 0.070907 0.062550
  C 3.286692 0.061082 1.404113
  H 2.529681 -0.051179 2.174761
  C 3.199926 0.095283 -1.130198
  C 2.478800 0.108096 -2.435574
  H 1.403031 0.161440 -2.289602
  H 4.283093 0.108665 -1.200590
  H 1.501576 -0.009443 0.174584
  H -0.094402 -0.389245 -0.640040
  H -0.016430 0.909387 0.544240
  H 3.825109 0.992941 1.577198
  H 3.994920 -0.761804 1.486570
  H 2.709326 -0.795725 -2.999116
  H 2.797492 0.962081 -3.032499
 15
 101.727997
  C 0.719611 -0.178751 0.413784
  C 2.470773 0.117486 0.066440
  C 3.174062 0.057403 1.384808
  H 2.454318 -0.168628 2.169652
  C 3.081152 0.117296 -1.106045
  C 2.450693 0.127217 -2.454381
  H 1.387919 0.305945 -2.420439
  H 4.154317 -0.014064 -1.093403
  H 1.441724 0.590037 -0.217970
  H 0.233696 -0.633560 -0.450717
  H 0.133961 0.690482 0.706670
  H 3.670925 0.984308 1.618324
  H 3.934485 -0.721681 1.355873
  H 2.626603 -0.836785 -2.944154
  H 2.898332 0.907912 -3.065618
 15
 62.016785
  C 0.869986 -0.109127 0.306422
  C 2.424013 0.092380 0.088123
  C 3.174368 0.093878 1.394428
  H 2.517890 -0.236307 2.203976
  C 3.041266 0.052016 -1.083162
  C 2.472516 0.102615 -2.459252
  H 1.427078 0.374837 -2.460910
  H 4.122320 -0.080875 -1.040633
  H 1.122613 0.742647 -0.447412
  H 0.342630 -0.696837 -0.430488
  H 0.224511 0.595368 0.804428
  H 3.540144 1.081853 1.635673
  H 4.030991 -0.568646 1.349964
  H 2.569761 -0.868212 -2.947891
  H 3.027439 0.835560 -3.054872
 15
 11.343587
  C 0.908129 0.037288 0.157969
  C 2.406689 0.081243 0.080258
  C 3.146761 0.070366 1.392807
  H 2.495940 -0.267476 2.193642
  C 3.049362 0.103154 -1.071004
  C 2.497022 0.058529 -2.456777
  H 1.427493 0.257519 -2.483476
  H 4.135330 0.102946 -1.028698
  H 0.758315 0.853562 -0.593240
  H 0.417178 -0.786725 -0.337528
  H 0.408467 0.521471 0.982882
  H 3.496205 1.070119 1.640764
  H 4.015973 -0.580522 1.345777
  H 2.661544 -0.931684 -2.883519
  H 3.008780 0.783499 -3.089534
 15
 -0.474516
  C 0.889187 0.072264 0.116821
  C 2.384813 0.095724 0.029669
  C 3.105454 0.065672 1.351211
  H 2.424607 -0.189152 2.159377
  C 3.073931 0.116889 -1.105487
  C 2.546823 0.138000 -2.502801
  H 1.480884 0.327357 -2.539298
  H 4.155181 0.110855 -1.043278
  H 0.431216 0.501309 -0.771860
  H 0.536203 -0.952824 0.213863
  H 0.547594 0.642384 0.981197
  H 3.540184 1.039006 1.567395
  H 3.916411 -0.663290 1.337357
  H 2.738438 -0.821961 -2.987380
  H 3.058127 0.907946 -3.081626
 15
 -0.374285
  C 0.892934 0.006554 0.121653
  C 2.385329 0.084625 0.017552
  C 3.112716 0.033565 1.340058
  H 2.413264 -0.096166 2.161283
  C 3.079072 0.129382 -1.113256
  C 2.546455 0.237688 -2.509105
  H 1.480889 0.439298 -2.524438
  H 4.160655 0.115157 -1.059744
  H 0.416497 -0.074841 -0.850476
  H 0.616027 -0.873351 0.701349
  H 0.501863 0.883257 0.636724
  H 3.670734 0.955738 1.502546
  H 3.824538 -0.790224 1.360624
  H 2.729076 -0.688772 -3.054758
  H 3.066776 1.037423 -3.034786
