 22
 0.000000
  C 1.011225 0.115905 0.339244
  C 2.483199 0.127612 0.368161
  C 3.241930 0.600748 1.545586
  C 2.437551 1.082496 2.745281
  H 3.114113 1.399067 3.533292
  C 3.137687 -0.331126 -0.773761
  C 4.525616 -0.401275 -0.948920
  C 5.156094 -0.855769 -2.081977
  C 4.561919 -1.352553 -3.320389
  H 3.478554 -1.362080 -3.344692
  H 6.239164 -0.855390 -2.081215
  H 0.559864 0.482939 1.252947
  H 0.652644 -0.898086 0.152835
  H 0.652550 0.719208 -0.496725
  H 3.904651 1.411152 1.220323
  H 3.904963 -0.209190 1.871286
  H 1.806151 0.290685 3.141358
  H 1.805965 1.928153 2.483740
  H 2.511430 -0.659487 -1.591150
  H 5.155852 -0.074376 -0.134444
  H 4.942336 -2.359326 -3.510556
  H 4.942709 -0.756591 -4.153653
 22
 1.537237
  C 1.019529 0.034173 0.344987
  C 2.487769 0.000114 0.396650
  C 3.247803 0.600760 1.519344
  C 2.446779 1.228026 2.647834
  H 3.129510 1.628190 3.392486
  C 3.148935 -0.604362 -0.668483
  C 4.540912 -0.693542 -0.823277
  C 5.153079 -0.887777 -2.031572
  C 4.528293 -1.137740 -3.330453
  H 3.445184 -1.149558 -3.322795
  H 6.236105 -0.837259 -2.075963
  H 0.571402 0.457650 1.235331
  H 0.623242 -0.972663 0.177523
  H 0.698996 0.626889 -0.518675
  H 3.924522 1.356760 1.107583
  H 3.898164 -0.173220 1.935492
  H 1.811156 0.496017 3.139190
  H 1.827540 2.047941 2.292428
  H 2.527692 -0.985117 -1.467687
  H 5.170774 -0.508863 0.033131
  H 4.899406 -2.090524 -3.715737
  H 4.876381 -0.391831 -4.047517
 22
 3.891002
  C 0.997979 -0.090688 0.372280
  C 2.467153 -0.166292 0.417865
  C 3.257713 0.630205 1.379423
  C 2.498318 1.307206 2.512520
  H 3.205791 1.794089 3.179638
  C 3.104352 -0.911652 -0.563338
  C 4.502732 -1.017993 -0.726290
  C 5.147366 -1.036940 -1.928439
  C 4.528737 -0.845004 -3.241263
  H 3.450280 -0.737850 -3.199719
  H 6.225058 -1.130707 -1.926178
  H 0.575140 0.491403 1.181864
  H 0.569549 -1.093724 0.379229
  H 0.682982 0.349094 -0.575844
  H 3.790452 1.403728 0.811719
  H 4.046651 -0.002901 1.797889
  H 1.933866 0.581714 3.094994
  H 1.817667 2.069956 2.144313
  H 2.477191 -1.415322 -1.289098
  H 5.112082 -1.044256 0.168135
  H 4.798000 -1.685103 -3.885954
  H 4.960567 0.029770 -3.729326
 22
 10.741369
  C 0.980365 -0.210572 0.375406
  C 2.448515 -0.318067 0.388138
  C 3.292022 0.591685 1.193795
  C 2.595489 1.433154 2.252497
  H 3.337535 1.996536 2.812079
  C 3.049499 -1.223749 -0.463252
  C 4.465367 -1.335353 -0.647972
  C 5.126626 -1.025082 -1.781691
  C 4.498198 -0.476033 -2.994679
  H 3.425282 -0.350297 -2.886243
  H 6.202142 -1.132768 -1.812155
  H 0.598338 0.453636 1.140110
  H 0.526483 -1.196743 0.477844
  H 0.647393 0.159389 -0.597032
  H 3.800729 1.272115 0.498332
  H 4.102157 0.012071 1.648315
  H 2.052165 0.805096 2.954952
  H 1.903736 2.146295 1.813053
  H 2.415711 -1.871700 -1.059607
  H 5.036541 -1.667102 0.212889
  H 4.709782 -1.146918 -3.829999
  H 4.951284 0.477353 -3.264717
 22
 14.356001
  C 0.965485 -0.267455 0.378183
  C 2.434147 -0.370649 0.336099
  C 3.309541 0.588180 1.047579
  C 2.651915 1.555758 2.011460
  H 3.413448 2.158039 2.497806
  C 3.025081 -1.371053 -0.401458
  C 4.442524 -1.488052 -0.665766
  C 5.123484 -0.947173 -1.676858
  C 4.492123 -0.176410 -2.776282
  H 3.423517 -0.058743 -2.619414
  H 6.193172 -1.073286 -1.748696
  H 0.613758 0.436233 1.124884
  H 0.520536 -1.246613 0.556595
  H 0.587873 0.046781 -0.598168
  H 3.822382 1.159982 0.256892
  H 4.116000 0.051293 1.554099
  H 2.108138 1.024007 2.789259
  H 1.964644 2.227238 1.504307
  H 2.406766 -2.173157 -0.790994
  H 4.957623 -2.149769 0.027971
  H 4.655714 -0.679422 -3.728697
  H 4.971802 0.798825 -2.858106
 22
 8.344947
  C 0.978952 -0.395360 0.404305
  C 2.446103 -0.463908 0.293672
  C 3.317119 0.599396 0.853896
  C 2.661584 1.628462 1.763077
  H 3.423065 2.299392 2.155445
  C 3.025130 -1.550531 -0.327052
  C 4.391168 -1.692130 -0.707028
  C 5.089632 -0.919064 -1.570421
  C 4.499081 0.098321 -2.457990
  H 3.440234 0.239969 -2.280522
  H 6.148755 -1.083443 -1.697226
  H 0.643752 0.359698 1.105440
  H 0.565268 -1.364928 0.682479
  H 0.552060 -0.165792 -0.575921
  H 3.760719 1.123988 -0.000716
  H 4.165125 0.139748 1.370187
  H 2.175981 1.150428 2.612539
  H 1.928111 2.230431 1.230952
  H 2.413808 -2.434089 -0.478288
  H 4.875567 -2.582073 -0.313852
  H 4.640810 -0.207349 -3.494176
  H 5.039947 1.037098 -2.357791
 22
 6.737317
  C 0.974392 -0.446247 0.343152
  C 2.442907 -0.466510 0.226839
  C 3.248900 0.700584 0.662211
  C 2.634548 1.579493 1.748168
  H 3.370439 2.311976 2.069978
  C 3.052151 -1.614342 -0.254741
  C 4.374760 -1.760393 -0.720431
  C 5.104420 -0.886468 -1.474679
  C 4.569696 0.193701 -2.305368
  H 3.498175 0.317198 -2.204815
  H 6.168687 -1.059134 -1.575487
  H 0.607583 0.384876 0.929853
  H 0.601893 -1.381020 0.758492
  H 0.538646 -0.378768 -0.656293
  H 3.414483 1.338931 -0.211537
  H 4.233399 0.360768 0.984634
  H 2.353440 0.986866 2.615579
  H 1.764332 2.124333 1.393574
  H 2.478830 -2.532082 -0.197715
  H 4.834831 -2.718588 -0.500912
  H 4.795370 -0.041545 -3.347648
  H 5.100559 1.124494 -2.109974
 22
 8.294226
  C 0.992018 -0.297302 0.094691
  C 2.456477 -0.411691 0.139266
  C 3.254218 0.757689 0.603164
  C 2.718879 1.429560 1.868408
  H 3.430976 2.185105 2.194745
  C 3.081783 -1.607411 -0.178992
  C 4.418996 -1.721929 -0.598313
  C 5.083930 -0.797005 -1.357683
  C 4.444016 0.106726 -2.319259
  H 3.359484 0.048505 -2.296489
  H 6.164672 -0.757278 -1.362123
  H 0.625538 0.601453 0.573843
  H 0.514948 -1.172922 0.534432
  H 0.669209 -0.284009 -0.946185
  H 3.248693 1.515653 -0.188616
  H 4.286048 0.458873 0.778653
  H 2.606738 0.701404 2.670914
  H 1.765273 1.925445 1.705004
  H 2.523495 -2.528744 -0.051494
  H 4.940539 -2.631958 -0.327007
  H 4.789822 -0.172751 -3.318849
  H 4.788691 1.130935 -2.183349
 22
 16.129643
  C 1.083230 -0.101930 -0.089901
  C 2.525160 -0.323084 0.106595
  C 3.337485 0.782542 0.678531
  C 2.747990 1.324055 1.995250
  H 3.452151 2.029166 2.429834
  C 3.099450 -1.580302 -0.081918
  C 4.396629 -1.707908 -0.570627
  C 4.978930 -0.702900 -1.321960
  C 4.299917 -0.023209 -2.429338
  H 3.245437 -0.281998 -2.501444
  H 6.028703 -0.459448 -1.219666
  H 0.733496 0.829056 0.345308
  H 0.495370 -0.936287 0.287341
  H 0.882538 -0.068266 -1.162109
  H 3.378820 1.617337 -0.027424
  H 4.353126 0.441709 0.871736
  H 2.593393 0.516532 2.706714
  H 1.806895 1.844766 1.844606
  H 2.537095 -2.463647 0.189526
  H 4.951129 -2.619532 -0.391673
  H 4.803240 -0.334996 -3.349593
  H 4.436178 1.058383 -2.392163
 22
 29.756640
  C 1.251523 0.054458 -0.230668
  C 2.646584 -0.243699 0.110352
  C 3.449859 0.777694 0.833343
  C 2.723187 1.295027 2.087625
  H 3.407785 1.925877 2.648011
  C 3.138869 -1.574719 0.007280
  C 4.357680 -1.714281 -0.588162
  C 4.795721 -0.588403 -1.330065
  C 4.129263 -0.139915 -2.549885
  H 3.149429 -0.588966 -2.687304
  H 5.772819 -0.152924 -1.145905
  H 0.899196 0.991505 0.181453
  H 0.591416 -0.761334 0.062635
  H 1.165574 0.116873 -1.318568
  H 3.642775 1.644815 0.194226
  H 4.405288 0.353234 1.143405
  H 2.422158 0.467894 2.725365
  H 1.848446 1.888027 1.843162
  H 2.551562 -2.404494 0.372679
  H 4.961571 -2.608806 -0.529430
  H 4.767589 -0.446955 -3.385739
  H 4.079654 0.947678 -2.621453
 22
 35.611685
  C 1.448900 0.154869 -0.402755
  C 2.788159 -0.202648 0.082034
  C 3.552271 0.774013 0.908270
  C 2.720490 1.275504 2.106185
  H 3.366010 1.865984 2.750044
  C 3.174631 -1.610812 0.090690
  C 4.309045 -1.761428 -0.596721
  C 4.565191 -0.493032 -1.264807
  C 3.946081 -0.160177 -2.546322
  H 3.058767 -0.750911 -2.756111
  H 5.447279 0.079527 -0.999319
  H 1.105338 1.116350 -0.036073
  H 0.735708 -0.629355 -0.151603
  H 1.448242 0.205924 -1.494279
  H 3.827639 1.654690 0.324042
  H 4.457967 0.308779 1.297925
  H 2.334613 0.439375 2.682683
  H 1.891702 1.903426 1.797312
  H 2.577532 -2.379965 0.554546
  H 4.944986 -2.627560 -0.669697
  H 4.685271 -0.386323 -3.325804
  H 3.750545 0.907197 -2.643158
 22
 31.609679
  C 1.570540 0.207021 -0.489647
  C 2.903920 -0.177801 0.036072
  C 3.613485 0.791884 0.937142
  C 2.702594 1.227319 2.104248
  H 3.300786 1.801637 2.800447
  C 3.206710 -1.624379 0.154208
  C 4.289326 -1.782906 -0.598024
  C 4.387368 -0.431925 -1.186940
  C 3.867108 -0.180680 -2.541811
  H 3.060356 -0.853248 -2.815946
  H 5.210672 0.205596 -0.881578
  H 1.254652 1.187411 -0.144819
  H 0.832940 -0.544611 -0.214069
  H 1.565072 0.234106 -1.579428
  H 3.904913 1.691472 0.396151
  H 4.499912 0.324124 1.359723
  H 2.304503 0.363480 2.624391
  H 1.877514 1.851677 1.775529
  H 2.592397 -2.353078 0.654753
  H 4.937774 -2.621941 -0.757965
  H 4.693891 -0.361161 -3.240895
  H 3.586827 0.861358 -2.682221
 22
 25.501274
  C 1.641868 0.281115 -0.517407
  C 3.010338 -0.106557 -0.037936
  C 3.625971 0.849782 0.980254
  C 2.677279 1.161749 2.138228
  H 3.229616 1.723164 2.888953
  C 3.224472 -1.575507 0.174189
  C 4.289597 -1.779952 -0.613095
  C 4.229272 -0.396490 -1.164298
  C 3.853851 -0.242858 -2.603520
  H 3.093234 -0.953622 -2.913139
  H 5.058429 0.246272 -0.879684
  H 1.364609 1.275491 -0.192435
  H 0.890740 -0.423047 -0.164722
  H 1.592340 0.249910 -1.602286
  H 3.902449 1.788961 0.495987
  H 4.529130 0.391273 1.389830
  H 2.307498 0.246669 2.593121
  H 1.828889 1.768969 1.838940
  H 2.542980 -2.250349 0.665190
  H 4.944530 -2.603945 -0.812470
  H 4.740030 -0.450149 -3.206545
  H 3.539519 0.773159 -2.822570
 22
 23.350768
  C 1.681523 0.279751 -0.524425
  C 3.089852 -0.044345 -0.091534
  C 3.622306 0.850490 1.015718
  C 2.633906 1.109264 2.141221
  H 3.125232 1.663363 2.937741
  C 3.235910 -1.560209 0.172914
  C 4.258761 -1.778129 -0.641907
  C 4.188103 -0.364661 -1.177697
  C 3.855376 -0.206013 -2.638930
  H 3.016099 -0.829430 -2.940951
  H 5.117781 0.165041 -0.930959
  H 1.468652 1.329329 -0.337353
  H 0.948794 -0.291535 0.039003
  H 1.528729 0.064026 -1.574668
  H 3.925095 1.809537 0.582647
  H 4.527356 0.400733 1.439213
  H 2.260187 0.173617 2.550278
  H 1.779170 1.696134 1.812314
  H 2.518670 -2.162051 0.698729
  H 4.957889 -2.568100 -0.840537
  H 4.711660 -0.515080 -3.237549
  H 3.618520 0.831377 -2.862549
 22
 23.604002
  C 1.696488 0.198926 -0.473100
  C 3.123388 -0.081906 -0.075401
  C 3.637749 0.757226 1.082856
  C 2.583051 1.199163 2.084578
  H 3.057932 1.740195 2.896568
  C 3.285349 -1.621429 0.128380
  C 4.281694 -1.781790 -0.723161
  C 4.196974 -0.333121 -1.189043
  C 3.825166 -0.121536 -2.633512
  H 2.943536 -0.688268 -2.922232
  H 5.140698 0.176725 -0.959162
  H 1.520262 1.275012 -0.434171
  H 0.993958 -0.255168 0.223636
  H 1.472717 -0.158210 -1.471071
  H 4.142669 1.642846 0.686955
  H 4.404171 0.193450 1.623203
  H 2.053556 0.347597 2.504987
  H 1.846413 1.858914 1.632445
  H 2.580330 -2.240773 0.650171
  H 5.009462 -2.533869 -0.954019
  H 4.643512 -0.454130 -3.269419
  H 3.630499 0.933254 -2.818771
