 19
 0.000000
  C -1.046734 0.208940 0.071130
  C -1.786600 -0.883469 0.775349
  C -1.581577 -2.251661 0.165292
  C -1.501472 -1.093462 2.313401
  C -0.355121 -0.317643 2.855557
  O -2.163058 -1.857592 2.936281
  H -1.405015 0.268282 -0.958576
  H 0.025086 0.014736 0.002825
  H -1.223640 1.180765 0.524139
  H -2.855075 -0.631529 0.806360
  H -0.536999 -2.560896 0.191595
  H -1.860802 -2.207599 -0.888379
  H -2.179844 -3.004642 0.671305
  H 0.107962 0.349538 2.143655
  H 0.368861 -1.051706 3.215743
  H -0.720924 0.230341 3.725441
  O 2.309795 0.033049 -0.023028
  H 2.838739 -0.410788 -0.690762
  H 2.919995 0.310875 0.665633
 19
 0.143723
  C -0.975491 0.222689 0.070510
  C -1.735921 -0.877189 0.757733
  C -1.522309 -2.235481 0.169080
  C -1.483988 -1.077627 2.303724
  C -0.328171 -0.338830 2.852542
  O -2.180880 -1.815958 2.924426
  H -1.297577 0.272576 -0.960266
  H 0.109130 0.027778 0.013196
  H -1.162473 1.185708 0.507894
  H -2.799269 -0.623291 0.789120
  H -0.476158 -2.533942 0.215444
  H -1.783783 -2.203801 -0.888548
  H -2.127064 -2.986475 0.669095
  H 0.176397 0.294265 2.130574
  H 0.356680 -1.089074 3.250506
  H -0.689408 0.242048 3.701346
  O 2.054562 0.003864 0.001102
  H 2.567897 -0.434893 -0.674061
  H 2.668671 0.284864 0.677901
 19
 2.542141
  C -0.916763 0.221627 0.069894
  C -1.682995 -0.870221 0.748897
  C -1.483102 -2.235367 0.142408
  C -1.461514 -1.057916 2.285934
  C -0.287384 -0.331959 2.881249
  O -2.172517 -1.777376 2.917044
  H -1.198185 0.260630 -0.983153
  H 0.174907 0.018213 0.019339
  H -1.116000 1.194623 0.514599
  H -2.746581 -0.609244 0.759951
  H -0.437150 -2.552991 0.205253
  H -1.736488 -2.211757 -0.924813
  H -2.101135 -2.987046 0.631093
  H 0.239572 0.275202 2.170985
  H 0.370339 -1.090002 3.315150
  H -0.653630 0.267752 3.716674
  O 1.837540 -0.018279 0.017774
  H 2.332878 -0.465887 -0.674382
  H 2.447087 0.272173 0.707165
 19
 6.324133
  C -0.889253 0.218708 0.084724
  C -1.644901 -0.863969 0.749473
  C -1.450924 -2.236303 0.117644
  C -1.430307 -1.049282 2.281071
  C -0.277694 -0.321531 2.893400
  O -2.142906 -1.781465 2.911220
  H -1.129541 0.246108 -0.980170
  H 0.260104 0.013446 0.048501
  H -1.081874 1.190141 0.531794
  H -2.709149 -0.598169 0.739371
  H -0.418729 -2.554719 0.199153
  H -1.701555 -2.202099 -0.937090
  H -2.075500 -2.974340 0.601059
  H 0.253783 0.310843 2.181136
  H 0.384587 -1.065860 3.328109
  H -0.659687 0.266925 3.723093
  O 1.700084 -0.042191 0.031441
  H 2.176492 -0.511122 -0.683023
  H 2.297112 0.232567 0.712445
 19
 9.720057
  C -0.880539 0.229721 0.089470
  C -1.618785 -0.871616 0.763359
  C -1.429994 -2.231368 0.096037
  C -1.403972 -1.056066 2.275713
  C -0.288266 -0.291023 2.928562
  O -2.101186 -1.822880 2.895349
  H -1.055848 0.238760 -0.987773
  H 0.353222 0.026872 0.085521
  H -1.044254 1.202735 0.533572
  H -2.688983 -0.613321 0.729648
  H -0.396564 -2.558849 0.183313
  H -1.688951 -2.180970 -0.955970
  H -2.060581 -2.977811 0.571980
  H 0.213508 0.384272 2.252087
  H 0.407353 -1.010346 3.352214
  H -0.702147 0.258064 3.770993
  O 1.619346 -0.078807 -0.001090
  H 2.030425 -0.570433 -0.724622
  H 2.252488 0.177389 0.686673
 19
 12.415320
  C -0.896324 0.239219 0.085783
  C -1.613350 -0.871604 0.767771
  C -1.423847 -2.229206 0.079423
  C -1.379557 -1.058190 2.289482
  C -0.303087 -0.269277 2.951315
  O -2.049158 -1.856589 2.908520
  H -1.031959 0.235683 -0.989279
  H 0.461944 0.021605 0.078937
  H -1.032393 1.216319 0.531850
  H -2.688040 -0.626323 0.727518
  H -0.393746 -2.557938 0.161280
  H -1.695324 -2.169155 -0.969939
  H -2.049591 -2.977431 0.554811
  H 0.161835 0.456168 2.293323
  H 0.429283 -0.966647 3.346109
  H -0.732004 0.232894 3.812494
  O 1.598502 -0.095924 -0.013600
  H 1.982122 -0.617258 -0.736405
  H 2.227911 0.136438 0.685334
 19
 13.955958
  C -0.929533 0.234599 0.097513
  C -1.622998 -0.873916 0.772146
  C -1.427464 -2.219116 0.077392
  C -1.377017 -1.062741 2.280067
  C -0.305706 -0.253505 2.949710
  O -2.031363 -1.879048 2.895511
  H -1.036494 0.230013 -0.993602
  H 0.574226 -0.001949 0.079516
  H -1.043251 1.205157 0.544883
  H -2.703538 -0.643649 0.733143
  H -0.392647 -2.543941 0.152972
  H -1.704914 -2.152678 -0.959185
  H -2.051001 -2.977794 0.555586
  H 0.133188 0.494161 2.302279
  H 0.453124 -0.944124 3.327948
  H -0.741623 0.230384 3.834187
  O 1.614154 -0.095558 -0.019001
  H 1.984580 -0.631640 -0.742719
  H 2.233476 0.123267 0.693357
 19
 15.415554
  C -0.967372 0.233757 0.111734
  C -1.646659 -0.880430 0.788898
  C -1.443000 -2.221192 0.087516
  C -1.384217 -1.067672 2.290114
  C -0.327839 -0.249876 2.946228
  O -2.024671 -1.892712 2.914298
  H -1.041119 0.223304 -0.972056
  H 0.707724 -0.025065 0.076070
  H -1.057645 1.219266 0.568141
  H -2.730453 -0.662894 0.754971
  H -0.404556 -2.540273 0.157167
  H -1.733494 -2.151464 -0.964709
  H -2.054124 -2.980250 0.563779
  H 0.081094 0.507104 2.303441
  H 0.434859 -0.915752 3.299236
  H -0.749852 0.205923 3.820263
  O 1.684184 -0.071609 -0.050607
  H 2.041284 -0.625526 -0.767550
  H 2.297968 0.131484 0.678200
 19
 18.310883
  C -1.022417 0.240428 0.120864
  C -1.693191 -0.888564 0.802187
  C -1.476846 -2.237517 0.092180
  C -1.414199 -1.070903 2.299529
  C -0.344448 -0.252464 2.947076
  O -2.049467 -1.894912 2.930923
  H -1.064149 0.220728 -0.952658
  H 0.880528 -0.027118 0.071045
  H -1.107223 1.206834 0.577620
  H -2.784429 -0.679849 0.771571
  H -0.439105 -2.548523 0.158559
  H -1.768734 -2.169965 -0.951558
  H -2.083623 -3.006589 0.571222
  H 0.060345 0.513307 2.290775
  H 0.438131 -0.932531 3.293301
  H -0.764554 0.211810 3.848262
  O 1.805261 -0.029527 -0.088841
  H 2.157836 -0.588657 -0.805347
  H 2.415576 0.167335 0.646664
 19
 22.757430
  C -1.072725 0.248918 0.134632
  C -1.741007 -0.902556 0.825862
  C -1.514107 -2.242114 0.110491
  C -1.450233 -1.086053 2.308737
  C -0.377510 -0.267527 2.944288
  O -2.083402 -1.906650 2.949269
  H -1.114906 0.198679 -0.936684
  H 1.086152 -0.017467 0.048312
  H -1.167552 1.213049 0.606870
  H -2.835199 -0.709260 0.811672
  H -0.474433 -2.540716 0.172378
  H -1.811767 -2.176126 -0.929047
  H -2.106716 -3.018000 0.592726
  H 0.010280 0.486542 2.280441
  H 0.409729 -0.939584 3.282249
  H -0.789361 0.210571 3.839988
  O 1.967129 0.013190 -0.136603
  H 2.308895 -0.554470 -0.855600
  H 2.587140 0.210955 0.591497
 19
 20.328070
  C -1.246506 0.224921 0.173745
  C -1.882425 -0.935531 0.864687
  C -1.626043 -2.269030 0.147052
  C -1.542032 -1.113213 2.344192
  C -0.433379 -0.293477 2.933532
  O -2.172393 -1.905402 3.020573
  H -1.245662 0.190874 -0.905064
  H 1.503750 -0.035001 0.064920
  H -1.342266 1.186663 0.642226
  H -2.968867 -0.754251 0.856055
  H -0.577285 -2.537742 0.199562
  H -1.928440 -2.203081 -0.898295
  H -2.196642 -3.059594 0.623878
  H -0.050014 0.433509 2.231687
  H 0.343170 -0.968937 3.268429
  H -0.810031 0.209198 3.827017
  O 2.376994 0.134415 -0.238645
  H 2.704801 -0.432259 -0.965869
  H 3.030466 0.335116 0.464971
 19
 21.589458
  C -1.304194 0.219422 0.185979
  C -1.937785 -0.948542 0.880832
  C -1.665873 -2.278244 0.171589
  C -1.600105 -1.121790 2.363868
  C -0.468993 -0.322211 2.941116
  O -2.244997 -1.902956 3.046010
  H -1.289806 0.178136 -0.888435
  H 1.766238 -0.032270 0.050797
  H -1.406215 1.181167 0.647724
  H -3.032854 -0.786908 0.861328
  H -0.615949 -2.541411 0.231261
  H -1.964245 -2.217376 -0.874296
  H -2.239631 -3.067104 0.649753
  H -0.082615 0.398266 2.230079
  H 0.308864 -1.006576 3.273700
  H -0.829692 0.186859 3.831781
  O 2.581727 0.191986 -0.302723
  H 2.889615 -0.381245 -1.030830
  H 3.253159 0.429461 0.361380
 19
 22.332963
  C -1.380775 0.214740 0.203333
  C -2.013771 -0.963077 0.906411
  C -1.721202 -2.293361 0.196499
  C -1.657456 -1.134333 2.380600
  C -0.498019 -0.356138 2.927260
  O -2.300791 -1.901456 3.077916
  H -1.355531 0.150416 -0.867336
  H 2.062164 -0.004363 0.044670
  H -1.504390 1.177983 0.658432
  H -3.098911 -0.815303 0.882348
  H -0.672092 -2.547360 0.266961
  H -2.013772 -2.236501 -0.851070
  H -2.296007 -3.088458 0.668775
  H -0.116741 0.342110 2.194089
  H 0.272251 -1.051856 3.251797
  H -0.829769 0.179429 3.816702
  O 2.831913 0.262614 -0.355527
  H 3.130232 -0.330932 -1.081529
  H 3.528770 0.531776 0.268183
 19
 20.096848
  C -1.497887 0.185561 0.236495
  C -2.132889 -0.976892 0.938759
  C -1.810068 -2.307967 0.226863
  C -1.718040 -1.163688 2.394558
  C -0.534265 -0.395155 2.892357
  O -2.344508 -1.914155 3.119503
  H -1.443122 0.112249 -0.835065
  H 2.452497 0.028942 0.048079
  H -1.629594 1.153395 0.680652
  H -3.223961 -0.847488 0.914846
  H -0.745840 -2.533868 0.296139
  H -2.105887 -2.258711 -0.816957
  H -2.356705 -3.115319 0.696603
  H -0.150352 0.260245 2.123363
  H 0.222661 -1.097821 3.237336
  H -0.842388 0.184614 3.759643
  O 3.180541 0.354694 -0.424967
  H 3.473800 -0.246307 -1.144335
  H 3.909093 0.647549 0.162444
