15

C -3.505161 0.982968 -0.13108
C -2.06135 0.590605 -0.034549
C -1.648168 -0.472972 0.634315
C -0.236699 -0.94424 0.796387
C 0.81073 -0.079442 0.106714
H 1.8110432184499405 -0.494838608245553 0.2985970968387057
H -4.109186 0.150278 -0.489891
H -3.642636 1.837769 -0.786009
H -3.884575 1.247397 0.860024
H -1.355393 1.230428 -0.543344
H -2.381665 -1.096836 1.132056
H -0.012682 -0.997566 1.867755
H -0.174631 -1.964492 0.403687
H 0.607226 -0.058431 -0.966232
H 0.749585 0.940191 0.489844
