 19
 0.000000
  H 1.487736 0.159147 0.447412
  C 2.569268 0.148834 0.421649
  C 3.305277 0.617733 1.588255
  C 2.456286 1.086844 2.755767
  C 3.307171 1.558025 3.928413
  C 3.151486 -0.317528 -0.739390
  C 4.543612 -0.411107 -0.973127
  C 5.072822 -0.875372 -2.130853
  H 4.498701 -1.214848 -2.977428
  H 6.141754 -0.928681 -2.263784
  H 3.980555 1.429882 1.281518
  H 3.980667 -0.180729 1.928718
  H 1.806860 0.274987 3.093005
  H 1.806798 1.906302 2.437569
  H 3.942369 0.757722 4.300633
  H 2.672056 1.886677 4.746615
  H 3.942216 2.393473 3.643409
  H 2.493363 -0.637794 -1.536693
  H 5.210392 -0.094455 -0.184219
 19
 -0.264836
  H 1.512221 0.229481 0.445508
  C 2.591974 0.157361 0.416019
  C 3.312920 0.593297 1.603714
  C 2.453838 1.088884 2.750026
  C 3.283897 1.542843 3.942941
  C 3.172509 -0.325952 -0.735659
  C 4.563391 -0.340766 -1.005724
  C 5.063609 -0.892058 -2.138445
  H 4.418851 -1.329484 -2.883808
  H 6.122561 -0.919905 -2.330375
  H 4.034366 1.375209 1.313649
  H 3.980712 -0.208385 1.955270
  H 1.773271 0.295722 3.071486
  H 1.823753 1.916199 2.411597
  H 3.897028 0.731727 4.328666
  H 2.635641 1.880485 4.746739
  H 3.939729 2.368171 3.674956
  H 2.523734 -0.721131 -1.506910
  H 5.238043 0.116175 -0.295291
 19
 0.648866
  H 1.475822 0.201444 0.502435
  C 2.552038 0.141734 0.404715
  C 3.298883 0.539985 1.594509
  C 2.464057 1.081367 2.739160
  C 3.317003 1.505096 3.926735
  C 3.128980 -0.289305 -0.765958
  C 4.518474 -0.215003 -1.039007
  C 5.091122 -0.873621 -2.075055
  H 4.517708 -1.529126 -2.710948
  H 6.142908 -0.784343 -2.285659
  H 4.079519 1.266309 1.318776
  H 3.894423 -0.313542 1.954752
  H 1.743209 0.327139 3.069252
  H 1.878184 1.938429 2.391540
  H 3.912181 0.676100 4.302749
  H 2.685326 1.854304 4.738783
  H 3.992160 2.314246 3.656355
  H 2.493301 -0.692693 -1.543015
  H 5.129685 0.408262 -0.396314
 19
 4.124790
  H 1.442680 0.139369 0.619229
  C 2.497133 0.140151 0.377090
  C 3.291380 0.531051 1.547359
  C 2.480524 1.048222 2.725919
  C 3.365769 1.480364 3.885951
  C 3.049842 -0.229165 -0.822323
  C 4.448469 -0.144874 -1.055497
  C 5.127500 -0.879493 -1.966222
  H 4.669781 -1.714259 -2.471888
  H 6.156432 -0.668702 -2.204487
  H 4.055851 1.272158 1.283201
  H 3.872659 -0.339417 1.885899
  H 1.785245 0.281265 3.075055
  H 1.875303 1.899439 2.400772
  H 3.998351 0.665278 4.225940
  H 2.755760 1.798549 4.727746
  H 4.004753 2.312204 3.602459
  H 2.411942 -0.556250 -1.630371
  H 4.998148 0.528158 -0.396475
 19
 9.417721
  H 1.409225 0.184333 0.643583
  C 2.450368 0.180026 0.348481
  C 3.289684 0.558927 1.500148
  C 2.495730 1.035154 2.717604
  C 3.413401 1.423864 3.868170
  C 2.963180 -0.212685 -0.858085
  C 4.358809 -0.136308 -1.092105
  C 5.171354 -0.886282 -1.864737
  H 4.934563 -1.909288 -2.112561
  H 6.110044 -0.505144 -2.234842
  H 3.999257 1.350798 1.239123
  H 3.889541 -0.306602 1.806991
  H 1.813525 0.249343 3.054641
  H 1.890365 1.897929 2.436973
  H 4.065569 0.597538 4.148471
  H 2.827137 1.694828 4.742346
  H 4.031685 2.277107 3.604097
  H 2.309385 -0.530164 -1.657099
  H 4.838135 0.610936 -0.437486
 19
 18.496905
  H 1.344464 0.099973 0.655773
  C 2.375412 0.101040 0.328192
  C 3.265046 0.413490 1.473133
  C 2.518188 1.011900 2.677318
  C 3.485262 1.423862 3.776830
  C 2.847767 -0.158059 -0.923276
  C 4.241073 -0.114342 -1.142485
  C 5.224184 -0.819393 -1.706703
  H 5.096203 -1.846235 -1.997707
  H 6.160476 -0.360829 -2.006337
  H 4.019414 1.171374 1.209953
  H 3.782745 -0.486960 1.813466
  H 1.826919 0.269032 3.079722
  H 1.932480 1.873518 2.354172
  H 4.083964 0.574366 4.102721
  H 2.935169 1.796111 4.638344
  H 4.152327 2.213718 3.445619
  H 2.182039 -0.326589 -1.755169
  H 4.635433 0.550145 -0.307273
 19
 42.320997
  H 1.209818 0.273254 0.545734
  C 2.242465 0.146588 0.282783
  C 3.203054 0.359542 1.388102
  C 2.580353 1.029156 2.624809
  C 3.625576 1.355060 3.681387
  C 2.720575 -0.216668 -0.939707
  C 4.082127 -0.235623 -1.153902
  C 5.270047 -0.688797 -1.490861
  H 5.492946 -1.750953 -1.502617
  H 6.082062 -0.048080 -1.797956
  H 3.989127 1.130085 1.109709
  H 3.681080 -0.566650 1.708865
  H 1.848637 0.334281 3.046948
  H 2.049546 1.936072 2.335104
  H 4.200033 0.468995 3.949450
  H 3.142397 1.722248 4.582232
  H 4.312218 2.128219 3.337692
  H 2.066042 -0.410968 -1.771052
  H 4.433762 0.622384 -0.028861
 19
 54.416467
  H 1.182927 0.264097 0.475619
  C 2.225858 0.127290 0.260462
  C 3.191776 0.324722 1.350235
  C 2.600557 1.026990 2.588347
  C 3.659448 1.337035 3.635890
  C 2.697175 -0.251573 -0.967377
  C 4.035981 -0.327397 -1.201313
  C 5.267556 -0.649259 -1.492697
  H 5.605629 -1.697855 -1.425504
  H 6.023686 0.040500 -1.776416
  H 4.012264 1.124180 1.106648
  H 3.643952 -0.615626 1.687755
  H 1.860114 0.356446 3.013696
  H 2.088922 1.945971 2.295566
  H 4.209367 0.441311 3.917047
  H 3.191114 1.728606 4.533267
  H 4.365419 2.085966 3.280628
  H 2.036722 -0.413104 -1.804434
  H 4.372895 0.658871 0.217193
 19
 58.163414
  H 1.224571 0.281590 0.453772
  C 2.269913 0.132651 0.256331
  C 3.271230 0.367700 1.342579
  C 2.618460 1.041279 2.586394
  C 3.627483 1.348707 3.686690
  C 2.710440 -0.266999 -0.992406
  C 4.017997 -0.439453 -1.274859
  C 5.248622 -0.707339 -1.553015
  H 5.656891 -1.705362 -1.468859
  H 5.946930 0.038124 -1.909383
  H 4.025769 1.302138 1.247685
  H 3.733640 -0.561006 1.702496
  H 1.873757 0.340547 2.964048
  H 2.095963 1.952200 2.293679
  H 4.171969 0.455569 3.982809
  H 3.110835 1.723486 4.565886
  H 4.342478 2.109945 3.382163
  H 1.998294 -0.420634 -1.789791
  H 4.265775 0.611231 0.499421
 19
 58.814019
  H 1.315267 0.299234 0.480071
  C 2.357804 0.151103 0.268083
  C 3.356705 0.432164 1.363606
  C 2.614671 1.053443 2.582701
  C 3.549629 1.353639 3.751839
  C 2.746176 -0.329904 -0.970749
  C 4.020171 -0.547434 -1.343926
  C 5.237322 -0.776652 -1.694683
  H 5.708759 -1.739979 -1.556551
  H 5.858583 -0.033498 -2.175257
  H 4.134574 1.373604 1.452737
  H 3.844142 -0.491899 1.702032
  H 1.864933 0.329536 2.898088
  H 2.090742 1.960734 2.280982
  H 4.091164 0.463210 4.061787
  H 2.973718 1.698715 4.606384
  H 4.268868 2.134697 3.511277
  H 1.976990 -0.545706 -1.703382
  H 4.184429 0.851068 0.547359
 19
 59.077864
  H 1.359459 0.336530 0.476558
  C 2.400312 0.179390 0.266230
  C 3.399919 0.515170 1.382350
  C 2.607108 1.072269 2.590217
  C 3.504242 1.334606 3.796261
  C 2.781574 -0.381606 -0.939290
  C 4.046581 -0.606788 -1.338556
  C 5.244500 -0.834278 -1.747300
  H 5.757788 -1.765933 -1.551312
  H 5.811947 -0.117048 -2.324800
  H 4.261903 1.361394 1.523482
  H 3.927304 -0.406982 1.656327
  H 1.849909 0.337149 2.861851
  H 2.090556 1.988972 2.307469
  H 4.035929 0.433773 4.093122
  H 2.904853 1.653604 4.644536
  H 4.230105 2.121688 3.599407
  H 1.998802 -0.668955 -1.629691
  H 3.961388 1.117804 0.516428
 19
 54.046117
  H 1.468886 0.426087 0.480047
  C 2.500014 0.267660 0.221495
  C 3.519872 0.560684 1.447366
  C 2.649884 1.091138 2.610951
  C 3.491063 1.333220 3.859630
  C 2.821368 -0.398645 -0.963386
  C 4.061462 -0.659045 -1.397619
  C 5.271286 -0.843970 -1.779582
  H 5.861282 -1.692148 -1.456727
  H 5.766517 -0.189680 -2.487997
  H 4.373224 1.298481 1.535010
  H 3.990206 -0.396285 1.704471
  H 1.873480 0.356988 2.844526
  H 2.153940 2.013502 2.318078
  H 4.006706 0.429104 4.164408
  H 2.853462 1.641574 4.684776
  H 4.226611 2.119514 3.702326
  H 2.001125 -0.726758 -1.585050
  H 3.583473 1.052733 0.327048
 19
 32.996855
  H 1.472339 0.599005 0.440684
  C 2.502928 0.474090 0.154656
  C 3.478064 0.660238 1.413814
  C 2.645432 1.094778 2.621474
  C 3.532743 1.222464 3.855927
  C 2.838833 -0.437449 -0.901911
  C 4.098197 -0.713480 -1.260235
  C 5.303931 -0.879543 -1.649230
  H 5.958744 -1.635943 -1.238907
  H 5.747770 -0.284148 -2.434467
  H 4.308440 1.368323 1.392974
  H 3.938945 -0.313929 1.612546
  H 1.858382 0.362788 2.816786
  H 2.169415 2.054364 2.422628
  H 4.068856 0.295156 4.053319
  H 2.920775 1.446744 4.729069
  H 4.254650 2.027066 3.742455
  H 2.041242 -0.954308 -1.411513
  H 3.223455 1.307208 -0.078519
 19
 16.289699
  H 1.566610 0.738828 0.372515
  C 2.619529 0.606623 0.162009
  C 3.472304 0.677917 1.466907
  C 2.609997 1.109198 2.651200
  C 3.447591 1.169982 3.924742
  C 2.932711 -0.455726 -0.790680
  C 4.158204 -0.714113 -1.241890
  C 5.305050 -0.909460 -1.768209
  H 6.119964 -1.404407 -1.256053
  H 5.550888 -0.595037 -2.774680
  H 4.317982 1.363631 1.402264
  H 3.892317 -0.309507 1.666977
  H 1.795601 0.394667 2.788942
  H 2.169159 2.090051 2.468124
  H 3.905615 0.207144 4.134061
  H 2.816973 1.434845 4.769738
  H 4.233930 1.916248 3.844400
  H 2.120836 -1.068438 -1.165333
  H 3.112665 1.468940 -0.318691
 19
 14.958583
  H 1.638188 1.003579 0.310697
  C 2.688119 0.810975 0.118222
  C 3.531780 0.920580 1.418240
  C 2.605652 0.998290 2.635522
  C 3.433690 1.090850 3.911938
  C 2.915617 -0.389371 -0.684996
  C 4.129479 -0.771251 -1.095393
  C 5.234685 -1.122713 -1.635801
  H 6.011386 -1.698068 -1.138848
  H 5.512490 -0.856565 -2.652606
  H 4.154413 1.814741 1.419653
  H 4.190180 0.055845 1.510878
  H 1.979993 0.104800 2.668253
  H 1.954587 1.872790 2.565776
  H 4.076528 0.218842 4.023968
  H 2.769609 1.142460 4.772624
  H 4.054344 1.983584 3.916041
  H 2.066892 -0.974651 -1.025751
  H 3.154706 1.589068 -0.506190
