 20
 0.000000
  H 1.426288 0.148697 0.421587
  C 2.505304 0.141702 0.403607
  C 3.252082 0.612511 1.574506
  H 2.620355 0.940186 2.390436
  C 3.086184 -0.326030 -0.760700
  C 4.463027 -0.415063 -0.982841
  C 5.133797 -0.870460 -2.118471
  C 4.615193 -1.389056 -3.411302
  C 3.123188 -1.498196 -3.684200
  H 2.975568 -1.898158 -4.681261
  O 6.448294 -0.871197 -2.120784
  H 3.908362 1.437172 1.285919
  H 3.908940 -0.182033 1.936688
  H 2.413959 -0.639172 -1.540231
  H 5.096691 -0.087510 -0.166793
  H 5.070813 -2.377482 -3.541890
  H 5.071231 -0.765254 -4.188834
  H 2.643130 -0.523664 -3.641763
  H 2.642699 -2.172966 -2.980097
  H 6.855833 -0.541019 -1.296748
 20
 -0.180017
  H 1.458965 -0.032950 0.531818
  C 2.535081 0.015053 0.443494
  C 3.246434 0.744005 1.495446
  H 2.634882 0.841299 2.388318
  C 3.096378 -0.562133 -0.677198
  C 4.470648 -0.595078 -0.924385
  C 5.148026 -1.003859 -2.074934
  C 4.621699 -1.380187 -3.412698
  C 3.126926 -1.396816 -3.690621
  H 2.977412 -1.621357 -4.745888
  O 6.461016 -1.029832 -2.062878
  H 3.464383 1.757075 1.143702
  H 4.203950 0.293695 1.745873
  H 2.421924 -1.012630 -1.385139
  H 5.107870 -0.254288 -0.116981
  H 5.046639 -2.364174 -3.644359
  H 5.111123 -0.701083 -4.121555
  H 2.671704 -0.429695 -3.491512
  H 2.620522 -2.172803 -3.120211
  H 6.876478 -0.802940 -1.209295
 20
 0.633580
  H 1.484086 -0.216299 0.585167
  C 2.545386 -0.076932 0.431154
  C 3.187478 0.941484 1.261803
  H 2.754117 0.950312 2.260212
  C 3.136201 -0.784995 -0.586952
  C 4.515410 -0.805321 -0.837839
  C 5.181413 -1.103588 -2.024724
  C 4.627512 -1.253116 -3.395120
  C 3.126783 -1.219517 -3.626130
  H 2.942599 -1.258476 -4.696764
  O 6.493667 -1.166765 -2.031934
  H 2.970132 1.926342 0.837254
  H 4.267493 0.843186 1.310078
  H 2.489617 -1.379838 -1.211278
  H 5.155561 -0.547361 -0.001256
  H 5.041057 -2.183352 -3.800512
  H 5.101861 -0.463290 -3.990026
  H 2.684106 -0.304028 -3.244176
  H 2.633480 -2.079288 -3.182266
  H 6.921089 -1.095079 -1.157358
 20
 5.101004
  H 1.479063 -0.336387 0.524709
  C 2.533543 -0.200739 0.329689
  C 3.148369 1.023243 0.855948
  H 2.774711 1.230678 1.857561
  C 3.166478 -1.096608 -0.472843
  C 4.566837 -1.111265 -0.711895
  C 5.222969 -1.140576 -1.930202
  C 4.621451 -1.049647 -3.285692
  C 3.111076 -1.038560 -3.431348
  H 2.863861 -0.942172 -4.485234
  O 6.537897 -1.133827 -1.977149
  H 2.847605 1.877281 0.244465
  H 4.233889 0.977037 0.845310
  H 2.570383 -1.867884 -0.942341
  H 5.193394 -1.047768 0.172601
  H 5.035971 -1.882030 -3.866490
  H 5.048749 -0.154387 -3.751731
  H 2.665676 -0.199890 -2.902640
  H 2.667009 -1.962045 -3.074623
  H 6.986885 -1.226955 -1.115971
 20
 12.183157
  H 1.455278 -0.420528 0.379242
  C 2.508125 -0.295033 0.172434
  C 3.083898 1.039604 0.437237
  H 2.727046 1.406751 1.398197
  C 3.195331 -1.310946 -0.371527
  C 4.614329 -1.335511 -0.619184
  C 5.260993 -1.127436 -1.821454
  C 4.630238 -0.860557 -3.137657
  C 3.117761 -0.872282 -3.237448
  H 2.833266 -0.715103 -4.274518
  O 6.575883 -1.101453 -1.878125
  H 2.741787 1.759300 -0.307776
  H 4.170367 1.014867 0.413447
  H 2.665184 -2.228320 -0.615342
  H 5.232511 -1.519125 0.255426
  H 5.042564 -1.607010 -3.828442
  H 5.031147 0.092104 -3.502158
  H 2.671583 -0.077836 -2.644864
  H 2.702198 -1.822282 -2.918338
  H 7.034922 -1.305327 -1.042445
 20
 10.044700
  H 1.433225 -0.467565 0.258045
  C 2.488270 -0.343183 0.045929
  C 3.017688 1.028069 0.170706
  H 2.653564 1.500610 1.077799
  C 3.227240 -1.419419 -0.289901
  C 4.630058 -1.457055 -0.589600
  C 5.282692 -1.090551 -1.748619
  C 4.647696 -0.738960 -3.049507
  C 3.134883 -0.716555 -3.144616
  H 2.851597 -0.529321 -4.176509
  O 6.596720 -1.089688 -1.822281
  H 2.624322 1.628575 -0.654684
  H 4.101540 1.058344 0.150081
  H 2.769700 -2.404082 -0.203777
  H 5.231842 -1.909581 0.193323
  H 5.055466 -1.442986 -3.784579
  H 5.052438 0.234260 -3.347930
  H 2.704961 0.065029 -2.534606
  H 2.704856 -1.670568 -2.851214
  H 7.060658 -1.325274 -0.997673
 20
 5.012257
  H 1.463493 -0.414589 0.222323
  C 2.512021 -0.337753 -0.030124
  C 3.066465 1.021870 -0.073180
  H 2.768294 1.571106 0.820258
  C 3.228500 -1.484810 -0.193803
  C 4.584451 -1.596997 -0.576619
  C 5.245235 -1.038372 -1.662438
  C 4.629041 -0.554654 -2.929229
  C 3.133000 -0.724424 -3.134686
  H 2.892181 -0.460743 -4.161255
  O 6.557546 -1.029759 -1.720493
  H 2.620780 1.576415 -0.902473
  H 4.147288 1.030658 -0.166438
  H 2.767707 -2.411786 0.132265
  H 5.169163 -2.273513 0.039393
  H 5.158185 -1.091253 -3.723580
  H 4.917043 0.493572 -3.060273
  H 2.546676 -0.089356 -2.483712
  H 2.833636 -1.757981 -2.977355
  H 7.014002 -1.338710 -0.915824
 20
 2.966048
  H 1.491357 -0.273821 0.151637
  C 2.548688 -0.267051 -0.078745
  C 3.153768 1.061348 -0.209863
  H 2.896690 1.653074 0.671726
  C 3.220357 -1.463928 -0.105976
  C 4.518923 -1.687965 -0.579462
  C 5.192773 -1.017333 -1.603018
  C 4.561532 -0.388869 -2.799669
  C 3.163420 -0.868888 -3.171370
  H 2.908363 -0.480656 -4.153871
  O 6.498904 -1.007356 -1.664325
  H 2.705522 1.602908 -1.044419
  H 4.232750 1.025454 -0.315680
  H 2.733870 -2.314038 0.357898
  H 5.051444 -2.513241 -0.119360
  H 5.246020 -0.592286 -3.628029
  H 4.567396 0.697947 -2.679069
  H 2.407879 -0.531583 -2.470395
  H 3.129036 -1.953772 -3.218869
  H 6.960105 -1.432848 -0.916334
 20
 5.600996
  H 1.489535 -0.231816 -0.077402
  C 2.566789 -0.289034 -0.174047
  C 3.251065 1.010821 -0.166943
  H 2.836526 1.623645 0.632399
  C 3.199659 -1.508785 -0.172079
  C 4.509048 -1.716624 -0.612007
  C 5.166724 -0.949155 -1.583744
  C 4.536197 -0.435904 -2.832482
  C 3.096532 -0.833340 -3.133884
  H 2.871709 -0.575414 -4.165676
  O 6.457729 -0.745572 -1.561526
  H 3.039482 1.568712 -1.081891
  H 4.324429 0.919785 -0.037694
  H 2.680599 -2.351767 0.264055
  H 5.048979 -2.559660 -0.199127
  H 5.179794 -0.816094 -3.632917
  H 4.656176 0.649240 -2.871952
  H 2.379765 -0.321809 -2.500838
  H 2.954626 -1.903595 -3.015016
  H 6.933787 -1.136928 -0.803757
 20
 13.452860
  H 1.557593 -0.064629 -0.395960
  C 2.622438 -0.212251 -0.266474
  C 3.379264 1.017261 0.010687
  H 2.820123 1.614606 0.731918
  C 3.162770 -1.486926 -0.194111
  C 4.444033 -1.753317 -0.641090
  C 5.088780 -0.894916 -1.564724
  C 4.492623 -0.502114 -2.868758
  C 3.078045 -0.957368 -3.183231
  H 2.881661 -0.794859 -4.239556
  O 6.325638 -0.504058 -1.440378
  H 3.454983 1.651321 -0.876474
  H 4.373718 0.817426 0.394001
  H 2.580245 -2.276554 0.262227
  H 4.954057 -2.657145 -0.337351
  H 5.181112 -0.928694 -3.607867
  H 4.584572 0.580029 -2.998699
  H 2.340376 -0.395923 -2.617960
  H 2.944456 -2.014707 -2.969865
  H 6.806445 -0.850385 -0.663362
 20
 25.394956
  H 1.777651 0.184572 -0.695261
  C 2.778713 -0.071808 -0.350428
  C 3.549804 1.040538 0.226121
  H 2.889632 1.615282 0.876572
  C 3.147114 -1.428672 -0.219957
  C 4.361440 -1.783271 -0.712126
  C 4.962830 -0.816044 -1.598653
  C 4.422880 -0.538146 -2.951851
  C 3.084445 -1.159106 -3.321993
  H 2.937113 -1.070687 -4.394491
  O 6.117066 -0.271519 -1.374703
  H 3.876793 1.755233 -0.536809
  H 4.406282 0.700106 0.792441
  H 2.477859 -2.128906 0.263313
  H 4.850474 -2.730081 -0.528302
  H 5.192255 -0.927024 -3.624705
  H 4.415915 0.540637 -3.133491
  H 2.258947 -0.656081 -2.832172
  H 3.051120 -2.214224 -3.059733
  H 6.575973 -0.562490 -0.560933
 20
 30.216146
  H 2.121586 0.325646 -1.007458
  C 2.998567 -0.008175 -0.466389
  C 3.703706 1.025868 0.304102
  H 2.961619 1.639886 0.822147
  C 3.156601 -1.429500 -0.208159
  C 4.302409 -1.849336 -0.744744
  C 4.819039 -0.748942 -1.576333
  C 4.334764 -0.529444 -2.966995
  C 3.076169 -1.271561 -3.392668
  H 2.981606 -1.215835 -4.473358
  O 5.905182 -0.097997 -1.280287
  H 4.233086 1.726670 -0.346467
  H 4.392510 0.607622 1.031727
  H 2.415325 -2.021780 0.306084
  H 4.785405 -2.807431 -0.655527
  H 5.165985 -0.869988 -3.600082
  H 4.252244 0.542093 -3.163738
  H 2.179386 -0.839849 -2.961767
  H 3.123286 -2.319465 -3.111465
  H 6.349837 -0.370482 -0.454332
 20
 25.663068
  H 2.484633 0.330262 -1.275035
  C 3.238557 -0.013297 -0.576272
  C 3.737412 1.022600 0.358517
  H 2.878390 1.586094 0.732185
  C 3.192977 -1.430799 -0.152445
  C 4.267398 -1.894113 -0.779813
  C 4.687914 -0.680103 -1.539341
  C 4.270176 -0.504312 -2.980150
  C 3.052870 -1.289506 -3.435978
  H 2.996275 -1.251373 -4.518841
  O 5.818203 -0.047963 -1.258563
  H 4.362082 1.753211 -0.153829
  H 4.272943 0.600289 1.204084
  H 2.455473 -1.912610 0.462227
  H 4.762484 -2.847943 -0.762841
  H 5.142839 -0.842119 -3.556559
  H 4.167598 0.558440 -3.207474
  H 2.123111 -0.879461 -3.050526
  H 3.118685 -2.330566 -3.132423
  H 6.276161 -0.370600 -0.461981
 20
 23.765483
  H 2.591523 0.133326 -1.332802
  C 3.356277 -0.118334 -0.593257
  C 3.628587 0.992975 0.362536
  H 2.675074 1.446045 0.643490
  C 3.301307 -1.514555 -0.090895
  C 4.356805 -1.931314 -0.794301
  C 4.656411 -0.656344 -1.543435
  C 4.338173 -0.598005 -3.026712
  C 2.974710 -1.102559 -3.452471
  H 2.950075 -1.185852 -4.535445
  O 5.830004 -0.035457 -1.308514
  H 4.223748 1.773773 -0.105684
  H 4.113636 0.650165 1.274957
  H 2.665247 -1.974788 0.638573
  H 4.967297 -2.817723 -0.763639
  H 5.109429 -1.220815 -3.494104
  H 4.510942 0.417586 -3.382911
  H 2.175476 -0.412995 -3.179104
  H 2.755747 -2.076868 -3.018864
  H 6.246874 -0.284088 -0.466574
 20
 26.744489
  H 2.599836 0.259764 -1.327625
  C 3.377166 -0.092735 -0.643893
  C 3.682917 0.921905 0.424626
  H 2.812193 1.561819 0.571803
  C 3.236700 -1.512242 -0.197936
  C 4.384836 -1.864727 -0.785311
  C 4.654538 -0.576536 -1.553357
  C 4.313882 -0.622814 -3.035869
  C 2.948468 -1.162756 -3.409040
  H 2.888347 -1.258609 -4.489739
  O 5.849028 0.037988 -1.397194
  H 4.498755 1.572683 0.118269
  H 3.920215 0.459094 1.378264
  H 2.436944 -2.027519 0.292224
  H 5.125495 -2.620807 -0.587545
  H 5.088556 -1.243995 -3.498203
  H 4.456134 0.379598 -3.447161
  H 2.143045 -0.494888 -3.104359
  H 2.767206 -2.136014 -2.957954
  H 6.243081 -0.095035 -0.519158
