 28
 0.000000
  C 0.950085 0.143270 0.414643
  C 2.422771 0.139861 0.399849
  C 3.220895 0.605350 1.554798
  C 2.462949 1.098907 2.784226
  C 3.438353 1.537610 3.872353
  C 3.030301 -0.328084 -0.764812
  C 4.413780 -0.412986 -0.974142
  C 5.092330 -0.858576 -2.084879
  C 4.619656 -1.377663 -3.381895
  C 3.137535 -1.503228 -3.699559
  H 3.013463 -1.903464 -4.699198
  H 6.172448 -0.846801 -2.053089
  H 0.529724 0.515178 1.341064
  H 0.576947 -0.867480 0.241140
  H 0.571419 0.750283 -0.409200
  H 3.879374 1.412205 1.213374
  H 3.881364 -0.211797 1.866622
  H 1.828374 0.305269 3.182440
  H 1.826482 1.946012 2.522602
  H 4.074668 0.711491 4.181718
  H 2.896451 1.888673 4.746967
  H 4.072811 2.349123 3.523107
  H 2.359652 -0.641589 -1.546394
  H 5.043839 -0.085435 -0.156396
  H 5.091242 -2.361884 -3.501951
  H 5.093219 -0.749573 -4.147905
  H 2.652899 -0.530328 -3.660191
  H 2.651078 -2.179085 -2.999912
 28
 1.749790
  C 1.009617 0.156136 0.358954
  C 2.480956 0.179820 0.417241
  C 3.253592 0.625692 1.594834
  C 2.458083 1.106630 2.803166
  C 3.394610 1.533215 3.928257
  C 3.069393 -0.293356 -0.742549
  C 4.444363 -0.381096 -0.996118
  C 5.081539 -0.853995 -2.133356
  C 4.583692 -1.400688 -3.407253
  C 3.094919 -1.537365 -3.677154
  H 2.951248 -1.958824 -4.669402
  H 6.165444 -0.825498 -2.102911
  H 0.509253 0.423910 1.282776
  H 0.738758 -0.860083 0.031559
  H 0.652861 0.814269 -0.438041
  H 3.929117 1.428629 1.278702
  H 3.909590 -0.193687 1.908436
  H 1.811234 0.307722 3.170231
  H 1.830751 1.955898 2.526713
  H 4.020563 0.703776 4.249987
  H 2.823412 1.874879 4.787758
  H 4.040816 2.348200 3.609782
  H 2.326754 -0.624774 -1.470293
  H 5.098560 -0.034104 -0.206168
  H 5.064005 -2.381537 -3.527586
  H 5.040342 -0.792441 -4.200190
  H 2.600750 -0.569830 -3.652462
  H 2.625910 -2.206896 -2.961202
 28
 5.821493
  C 1.071118 0.149323 0.317001
  C 2.534478 0.195502 0.426650
  C 3.278652 0.631746 1.612012
  C 2.444775 1.108379 2.804227
  C 3.347306 1.537067 3.960235
  C 3.112080 -0.287045 -0.742480
  C 4.477831 -0.377416 -1.031016
  C 5.083881 -0.855545 -2.166786
  C 4.551294 -1.410004 -3.412934
  C 3.053061 -1.547235 -3.632178
  H 2.876605 -1.972939 -4.609162
  H 6.159570 -0.825455 -2.161854
  H 0.510860 0.303436 1.230621
  H 0.900849 -0.818406 -0.164507
  H 0.743131 0.882942 -0.415994
  H 3.965636 1.439326 1.312976
  H 3.932229 -0.191928 1.934048
  H 1.790703 0.304178 3.149425
  H 1.820576 1.955033 2.509129
  H 3.967886 0.709445 4.297690
  H 2.749437 1.873474 4.804014
  H 3.999104 2.356355 3.663427
  H 2.300537 -0.620667 -1.411377
  H 5.150048 -0.017839 -0.253950
  H 5.028070 -2.388937 -3.542673
  H 4.983875 -0.812323 -4.224077
  H 2.560670 -0.576736 -3.599062
  H 2.608737 -2.214179 -2.895392
 28
 12.031459
  C 1.112763 0.140559 0.291370
  C 2.569058 0.204951 0.441237
  C 3.298268 0.642545 1.642462
  C 2.441260 1.112666 2.807400
  C 3.309620 1.545747 3.978639
  C 3.139877 -0.283060 -0.731751
  C 4.497232 -0.378520 -1.046590
  C 5.081870 -0.862286 -2.190649
  C 4.523190 -1.421517 -3.427874
  C 3.024493 -1.556582 -3.615006
  H 2.824978 -1.987942 -4.597690
  H 6.167817 -0.833839 -2.206362
  H 0.512537 0.174274 1.193429
  H 1.036363 -0.770068 -0.329195
  H 0.788518 0.955049 -0.365564
  H 3.986056 1.445698 1.361603
  H 3.943907 -0.175639 1.973072
  H 1.785243 0.307157 3.136117
  H 1.819882 1.951726 2.495978
  H 3.926715 0.722435 4.330601
  H 2.690143 1.878551 4.806871
  H 3.962578 2.368168 3.696504
  H 2.289785 -0.611863 -1.345581
  H 5.178494 -0.020315 -0.288432
  H 4.996015 -2.403101 -3.565175
  H 4.940047 -0.824893 -4.250205
  H 2.536881 -0.588435 -3.571749
  H 2.597491 -2.219570 -2.869557
 28
 20.601183
  C 1.145892 0.136516 0.266880
  C 2.593280 0.214166 0.440418
  C 3.305432 0.647407 1.645701
  C 2.427536 1.113506 2.806195
  C 3.283571 1.549969 3.999128
  C 3.166673 -0.276313 -0.735047
  C 4.520002 -0.376475 -1.065332
  C 5.088578 -0.869491 -2.214825
  C 4.505532 -1.431401 -3.433050
  C 3.002509 -1.556808 -3.585163
  H 2.778241 -1.989727 -4.555329
  H 6.166618 -0.846791 -2.251189
  H 0.528020 0.082780 1.151856
  H 1.151133 -0.729647 -0.454513
  H 0.812221 0.991830 -0.323458
  H 3.996937 1.454094 1.376490
  H 3.949609 -0.173261 1.980605
  H 1.765679 0.298825 3.125184
  H 1.802411 1.956027 2.485147
  H 3.901433 0.725797 4.358882
  H 2.649668 1.878925 4.822444
  H 3.939386 2.378706 3.728081
  H 2.264298 -0.614288 -1.309260
  H 5.216017 -0.016187 -0.311202
  H 4.969099 -2.417106 -3.574485
  H 4.908229 -0.841175 -4.267454
  H 2.523120 -0.582979 -3.535203
  H 2.588571 -2.213775 -2.824673
 28
 29.551479
  C 1.156372 0.128357 0.260442
  C 2.604005 0.217948 0.440682
  C 3.313538 0.655449 1.652152
  C 2.426283 1.115550 2.806152
  C 3.266612 1.557909 3.998435
  C 3.177685 -0.273646 -0.736134
  C 4.525202 -0.385760 -1.069363
  C 5.087308 -0.882656 -2.220547
  C 4.497159 -1.439154 -3.435303
  C 2.991501 -1.551805 -3.579132
  H 2.758179 -1.981776 -4.549654
  H 6.172237 -0.866101 -2.258704
  H 0.534301 -0.023128 1.139522
  H 1.229875 -0.675788 -0.558723
  H 0.797758 1.022426 -0.251287
  H 4.003676 1.466996 1.386370
  H 3.959862 -0.163796 1.990234
  H 1.772861 0.302085 3.119723
  H 1.799992 1.946515 2.482949
  H 3.887439 0.740756 4.361479
  H 2.625630 1.881661 4.815932
  H 3.915863 2.389810 3.731023
  H 2.230348 -0.613711 -1.275181
  H 5.223851 -0.037646 -0.315954
  H 4.952506 -2.426453 -3.579090
  H 4.899513 -0.851259 -4.269158
  H 2.521233 -0.574780 -3.524696
  H 2.576870 -2.206345 -2.818000
 28
 39.900215
  C 1.163464 0.096108 0.266527
  C 2.609405 0.197988 0.446111
  C 3.316583 0.658114 1.654849
  C 2.423284 1.118257 2.802603
  C 3.256555 1.590668 3.987590
  C 3.188545 -0.291687 -0.727869
  C 4.535896 -0.426996 -1.056250
  C 5.092286 -0.912469 -2.214092
  C 4.489981 -1.436443 -3.441947
  C 2.984415 -1.513835 -3.579402
  H 2.737252 -1.918897 -4.556196
  H 6.171825 -0.913839 -2.249612
  H 0.557185 -0.132923 1.129548
  H 1.287612 -0.654629 -0.635252
  H 0.771532 1.010662 -0.186716
  H 3.993900 1.474999 1.380886
  H 3.973134 -0.149430 2.001869
  H 1.782064 0.295626 3.128312
  H 1.780872 1.936320 2.467639
  H 3.890405 0.791066 4.359916
  H 2.612595 1.913342 4.799353
  H 3.889851 2.428048 3.709111
  H 2.190715 -0.618555 -1.251023
  H 5.237335 -0.118039 -0.288191
  H 4.924928 -2.431385 -3.606573
  H 4.901978 -0.838682 -4.266612
  H 2.536450 -0.528431 -3.502346
  H 2.560743 -2.174491 -2.829256
 28
 51.722993
  C 1.174611 0.084559 0.280479
  C 2.605323 0.183546 0.446955
  C 3.313980 0.657929 1.659264
  C 2.419885 1.121727 2.802120
  C 3.250685 1.609729 3.978905
  C 3.190463 -0.304010 -0.717602
  C 4.536785 -0.452627 -1.049273
  C 5.092679 -0.930215 -2.213359
  C 4.488089 -1.433016 -3.447545
  C 2.986693 -1.492139 -3.584771
  H 2.736903 -1.878896 -4.559895
  H 6.160301 -0.942028 -2.248680
  H 0.589522 -0.170962 1.139649
  H 1.318364 -0.661730 -0.677576
  H 0.758209 1.000439 -0.155395
  H 3.983903 1.475514 1.380341
  H 3.973232 -0.141964 2.013187
  H 1.782978 0.295071 3.137596
  H 1.770047 1.935198 2.459620
  H 3.887794 0.821415 4.355687
  H 2.609570 1.933860 4.784661
  H 3.875028 2.444958 3.692760
  H 2.133855 -0.626836 -1.240432
  H 5.240530 -0.166061 -0.272610
  H 4.911853 -2.430377 -3.624873
  H 4.905896 -0.828501 -4.264342
  H 2.551014 -0.503686 -3.494437
  H 2.557931 -2.158024 -2.843892
 28
 60.589379
  C 1.159303 0.051329 0.311705
  C 2.597379 0.156525 0.454501
  C 3.311477 0.654403 1.645774
  C 2.419881 1.127071 2.792589
  C 3.257606 1.650445 3.954188
  C 3.187471 -0.334366 -0.701739
  C 4.529982 -0.510054 -1.023731
  C 5.092498 -0.961866 -2.186380
  C 4.496419 -1.417257 -3.445105
  C 2.985485 -1.438433 -3.602191
  H 2.735713 -1.793532 -4.602907
  H 6.181302 -0.992978 -2.204371
  H 0.581274 -0.240565 1.183369
  H 1.327638 -0.683897 -0.717520
  H 0.719321 0.949413 -0.117704
  H 3.970062 1.481528 1.344329
  H 3.986228 -0.137014 2.006780
  H 1.802507 0.302557 3.148523
  H 1.757968 1.920190 2.444348
  H 3.915552 0.872504 4.340728
  H 2.613945 1.982980 4.768789
  H 3.871015 2.495822 3.643084
  H 2.082603 -0.644515 -1.240187
  H 5.226054 -0.273321 -0.222377
  H 4.901268 -2.416820 -3.645891
  H 4.937266 -0.796349 -4.235085
  H 2.568247 -0.437720 -3.485684
  H 2.530898 -2.122024 -2.883117
 28
 68.890251
  C 1.143844 0.033977 0.349843
  C 2.583622 0.133880 0.463501
  C 3.307797 0.654905 1.645615
  C 2.423486 1.134667 2.790801
  C 3.267248 1.686453 3.936135
  C 3.181650 -0.356517 -0.681837
  C 4.524503 -0.556622 -1.003692
  C 5.094307 -0.989056 -2.168252
  C 4.508024 -1.405915 -3.452215
  C 2.994745 -1.397365 -3.629627
  H 2.753481 -1.719449 -4.634897
  H 6.173944 -1.035317 -2.171756
  H 0.580526 -0.277473 1.237553
  H 1.305491 -0.722327 -0.758941
  H 0.685618 0.919436 -0.080959
  H 3.950983 1.480130 1.327592
  H 3.984822 -0.118502 2.009279
  H 1.819731 0.310403 3.165394
  H 1.750411 1.913339 2.436769
  H 3.939066 0.920724 4.328932
  H 2.627641 2.024849 4.752013
  H 3.868997 2.534967 3.604652
  H 2.022164 -0.677152 -1.259207
  H 5.212128 -0.360468 -0.186937
  H 4.898370 -2.404734 -3.672116
  H 4.968440 -0.772881 -4.218017
  H 2.594067 -0.397854 -3.493279
  H 2.521607 -2.089174 -2.938943
 28
 76.864759
  C 1.134473 0.028653 0.377149
  C 2.576302 0.118278 0.462313
  C 3.306677 0.654699 1.640869
  C 2.422859 1.140420 2.785413
  C 3.268918 1.711220 3.918708
  C 3.191671 -0.367546 -0.665682
  C 4.527119 -0.585244 -0.992936
  C 5.095776 -1.006622 -2.157278
  C 4.506191 -1.395840 -3.453538
  C 3.002099 -1.357272 -3.625303
  H 2.752995 -1.657034 -4.634974
  H 6.175554 -1.069603 -2.156359
  H 0.591331 -0.286068 1.266596
  H 1.286930 -0.769302 -0.812224
  H 0.657685 0.894145 -0.073841
  H 3.941267 1.483088 1.309745
  H 3.994006 -0.117467 2.012734
  H 1.827588 0.315661 3.173367
  H 1.741727 1.910428 2.426458
  H 3.947757 0.956220 4.315121
  H 2.631976 2.053708 4.734024
  H 3.861359 2.558901 3.574449
  H 1.969936 -0.717673 -1.294151
  H 5.210712 -0.424703 -0.161780
  H 4.878893 -2.401751 -3.690402
  H 4.977476 -0.753732 -4.211435
  H 2.622233 -0.357492 -3.470975
  H 2.520713 -2.050623 -2.948418
 28
 84.035421
  C 1.104132 0.020490 0.433347
  C 2.544331 0.092795 0.470991
  C 3.296791 0.652993 1.634177
  C 2.429671 1.154158 2.788395
  C 3.296127 1.749342 3.892578
  C 3.173184 -0.392170 -0.639287
  C 4.497573 -0.633718 -0.974074
  C 5.083440 -1.031473 -2.135007
  C 4.526843 -1.375264 -3.452829
  C 3.029058 -1.313291 -3.663824
  H 2.803369 -1.579911 -4.692523
  H 6.169999 -1.108942 -2.111113
  H 0.588271 -0.293493 1.328399
  H 1.221929 -0.834516 -0.858755
  H 0.607205 0.857071 -0.038659
  H 3.920037 1.481234 1.275652
  H 3.991544 -0.111265 2.006457
  H 1.847613 0.331965 3.205173
  H 1.735404 1.915502 2.429564
  H 3.986475 1.006062 4.286658
  H 2.675491 2.101791 4.713704
  H 3.875101 2.592208 3.521831
  H 1.876830 -0.779968 -1.330806
  H 5.170214 -0.515870 -0.123037
  H 4.892406 -2.377658 -3.706872
  H 5.024286 -0.716338 -4.176156
  H 2.655857 -0.315029 -3.488954
  H 2.523011 -2.023320 -3.022631
 28
 89.964085
  C 1.086289 -0.000832 0.480230
  C 2.521043 0.057192 0.473974
  C 3.289901 0.648377 1.626052
  C 2.434464 1.171850 2.777271
  C 3.315874 1.798060 3.851484
  C 3.174964 -0.435567 -0.606041
  C 4.488753 -0.699176 -0.947149
  C 5.087524 -1.069480 -2.110550
  C 4.544321 -1.348917 -3.452170
  C 3.043602 -1.237071 -3.676137
  H 2.820270 -1.453147 -4.721632
  H 6.165865 -1.174408 -2.070082
  H 0.592938 -0.307909 1.389068
  H 1.165842 -0.932562 -0.925622
  H 0.565912 0.799968 -0.020252
  H 3.900169 1.469920 1.239642
  H 3.985467 -0.101026 2.005774
  H 1.863022 0.356601 3.224340
  H 1.730667 1.921976 2.409858
  H 4.015217 1.069059 4.252267
  H 2.707997 2.166901 4.671199
  H 3.883631 2.632610 3.450834
  H 1.801655 -0.868431 -1.389850
  H 5.146994 -0.627893 -0.081965
  H 4.885461 -2.346237 -3.739691
  H 5.065721 -0.676199 -4.138073
  H 2.691701 -0.229583 -3.459275
  H 2.508149 -1.966211 -3.067404
 28
 94.068826
  C 1.056360 0.003224 0.525202
  C 2.484438 0.034222 0.475771
  C 3.274439 0.645466 1.613334
  C 2.440674 1.185391 2.768171
  C 3.347365 1.832641 3.807965
  C 3.162634 -0.450077 -0.584926
  C 4.467284 -0.728415 -0.930706
  C 5.083503 -1.086272 -2.086797
  C 4.564350 -1.324849 -3.448675
  C 3.070347 -1.177038 -3.698534
  H 2.863257 -1.360022 -4.752467
  H 6.152820 -1.213295 -2.024522
  H 0.581802 -0.274554 1.457415
  H 1.085245 -1.039842 -0.984242
  H 0.516308 0.768357 -0.016354
  H 3.872176 1.459891 1.200933
  H 3.980005 -0.100178 1.994932
  H 1.883891 0.377929 3.243634
  H 1.729486 1.926976 2.402891
  H 4.057451 1.112169 4.205313
  H 2.757791 2.216281 4.635518
  H 3.904279 2.661198 3.377150
  H 1.706356 -0.976889 -1.447654
  H 5.106903 -0.714532 -0.044622
  H 4.893344 -2.326012 -3.756510
  H 5.116442 -0.643540 -4.112036
  H 2.731884 -0.166761 -3.459704
  H 2.508997 -1.912731 -3.120604
