 25
 0.000000
  C 0.904470 0.048970 0.271605
  C 2.395638 0.061355 0.085430
  C 3.242349 -0.010789 1.349160
  C 2.522730 -0.088812 2.692698
  H 3.254421 -0.134598 3.493860
  C 2.990995 0.128447 -1.122684
  C 2.350938 0.205263 -2.496243
  C 0.840413 0.217963 -2.709913
  H 0.636203 0.277088 -3.776026
  C 4.453122 0.133190 -1.213343
  C 5.193959 0.194394 -2.317261
  H 6.271277 0.192384 -2.286964
  H 0.620849 -0.003364 1.316344
  H 0.458636 -0.815861 -0.213085
  H 0.455902 0.955879 -0.125317
  H 3.888573 0.871875 1.379955
  H 3.889824 -0.890182 1.278414
  H 1.898660 -0.978895 2.752676
  H 1.897547 0.787639 2.854812
  H 2.744730 -0.643520 -3.065923
  H 2.745654 1.111473 -2.968469
  H 0.377622 1.077922 -2.235192
  H 0.376617 -0.688537 -2.332794
  H 4.994186 0.081284 -0.281331
  H 4.808216 0.250329 -3.321401
 25
 3.832268
  C 0.908961 0.075815 0.285284
  C 2.376534 0.067466 0.092075
  C 3.239569 0.002155 1.350250
  C 2.530861 -0.096996 2.694495
  H 3.280768 -0.135143 3.481246
  C 2.974219 0.129552 -1.117524
  C 2.335155 0.204409 -2.496458
  C 0.825619 0.230529 -2.723659
  H 0.648515 0.285798 -3.797288
  C 4.433948 0.122610 -1.207127
  C 5.179258 0.176080 -2.305216
  H 6.254359 0.167977 -2.235915
  H 0.601308 -0.009125 1.315421
  H 0.681343 -0.807539 -0.245814
  H 0.420917 0.938965 -0.144902
  H 3.870019 0.894269 1.382192
  H 3.902441 -0.862617 1.271587
  H 1.928992 -1.000690 2.764502
  H 1.898993 0.768737 2.880249
  H 2.728271 -0.651044 -3.056985
  H 2.742525 1.104824 -2.968878
  H 0.360909 1.099125 -2.270741
  H 0.337494 -0.666789 -2.358176
  H 4.968631 0.071649 -0.272264
  H 4.789256 0.230695 -3.306178
 25
 11.035786
  C 0.925461 0.072291 0.280461
  C 2.391388 0.074824 0.096753
  C 3.232020 0.028198 1.350842
  C 2.487009 -0.096423 2.669419
  H 3.215759 -0.119615 3.482742
  C 2.989953 0.132111 -1.111600
  C 2.328414 0.204049 -2.478055
  C 0.814411 0.266495 -2.665090
  H 0.610011 0.311697 -3.739647
  C 4.453565 0.110040 -1.219926
  C 5.190075 0.149932 -2.330146
  H 6.267827 0.133250 -2.268232
  H 0.593094 -0.040347 1.284710
  H 0.925872 -0.851388 -0.272638
  H 0.405513 0.865163 -0.199485
  H 3.831131 0.939230 1.396730
  H 3.919497 -0.813508 1.286568
  H 1.909533 -1.015078 2.716098
  H 1.829789 0.751117 2.838855
  H 2.688724 -0.666540 -3.035818
  H 2.743324 1.090446 -2.967402
  H 0.388273 1.155646 -2.216905
  H 0.309827 -0.607778 -2.274408
  H 4.999408 0.064411 -0.292537
  H 4.788555 0.198881 -3.325127
 25
 21.492760
  C 0.886490 0.078733 0.293370
  C 2.375384 0.078500 0.096471
  C 3.235723 0.031884 1.354587
  C 2.511281 -0.104497 2.682372
  H 3.247738 -0.124867 3.480014
  C 2.976340 0.133860 -1.115091
  C 2.327199 0.201516 -2.485411
  C 0.818386 0.279677 -2.692697
  H 0.630437 0.314541 -3.764062
  C 4.438610 0.108671 -1.213918
  C 5.178720 0.139612 -2.319922
  H 6.253870 0.119406 -2.254252
  H 0.538833 -0.055276 1.302998
  H 1.062289 -0.819194 -0.253363
  H 0.333814 0.843906 -0.214912
  H 3.826474 0.948343 1.395240
  H 3.933343 -0.803468 1.280441
  H 1.942186 -1.030043 2.733803
  H 1.849419 0.738457 2.865868
  H 2.685123 -0.678085 -3.033129
  H 2.757195 1.078840 -2.979232
  H 0.397769 1.183304 -2.261380
  H 0.294309 -0.586580 -2.297638
  H 4.978189 0.067975 -0.284200
  H 4.778685 0.182969 -3.317555
 25
 31.361885
  C 0.885798 0.099502 0.305843
  C 2.378099 0.080401 0.089606
  C 3.231036 0.032626 1.353949
  C 2.499848 -0.114652 2.687115
  H 3.239087 -0.134043 3.490882
  C 2.982406 0.134459 -1.123154
  C 2.327538 0.198811 -2.496318
  C 0.814930 0.280808 -2.690150
  H 0.615488 0.310485 -3.764088
  C 4.436322 0.106760 -1.218258
  C 5.178942 0.133083 -2.324722
  H 6.254902 0.114052 -2.257230
  H 0.529792 -0.040909 1.301093
  H 1.192155 -0.798512 -0.249307
  H 0.311375 0.841579 -0.212001
  H 3.817168 0.956231 1.399970
  H 3.937322 -0.799981 1.278475
  H 1.935967 -1.043507 2.734243
  H 1.832798 0.722857 2.873219
  H 2.679146 -0.684040 -3.043192
  H 2.757488 1.072579 -2.997378
  H 0.402307 1.186820 -2.259959
  H 0.293055 -0.580020 -2.284987
  H 4.976094 0.069220 -0.282470
  H 4.781245 0.172871 -3.322359
 25
 40.020206
  C 0.880345 0.114868 0.317882
  C 2.366383 0.078845 0.089696
  C 3.224628 0.023098 1.354256
  C 2.491494 -0.121636 2.671542
  H 3.221048 -0.145118 3.472834
  C 2.984428 0.137257 -1.120828
  C 2.330335 0.198166 -2.493057
  C 0.819867 0.285443 -2.683786
  H 0.617125 0.304741 -3.754138
  C 4.440747 0.113901 -1.219806
  C 5.178150 0.132354 -2.332709
  H 6.254965 0.117502 -2.270876
  H 0.540124 -0.024422 1.326742
  H 1.282688 -0.779258 -0.192848
  H 0.294133 0.810571 -0.245398
  H 3.804783 0.940265 1.399384
  H 3.925643 -0.806247 1.283841
  H 1.925581 -1.043344 2.713297
  H 1.830128 0.714147 2.853253
  H 2.676875 -0.688778 -3.035639
  H 2.763127 1.065251 -3.001781
  H 0.416197 1.199535 -2.264062
  H 0.295178 -0.569434 -2.266782
  H 4.989585 0.087850 -0.290187
  H 4.774264 0.159672 -3.329098
 25
 46.307147
  C 0.870448 0.128836 0.319471
  C 2.354726 0.081272 0.082508
  C 3.216229 0.018032 1.353175
  C 2.497074 -0.133822 2.691437
  H 3.244390 -0.163853 3.486109
  C 2.980640 0.143550 -1.127540
  C 2.334363 0.199401 -2.502447
  C 0.823650 0.292599 -2.696257
  H 0.621308 0.297536 -3.768250
  C 4.432850 0.120739 -1.220017
  C 5.171767 0.130076 -2.333173
  H 6.248049 0.116275 -2.270382
  H 0.542437 0.010777 1.320293
  H 1.355930 -0.778210 -0.144899
  H 0.273564 0.771048 -0.284180
  H 3.798110 0.941930 1.396329
  H 3.921143 -0.813701 1.272371
  H 1.927209 -1.060551 2.738712
  H 1.837599 0.707600 2.892017
  H 2.677583 -0.694378 -3.037599
  H 2.774181 1.059766 -3.017645
  H 0.424425 1.217023 -2.290341
  H 0.294969 -0.554059 -2.267191
  H 4.981725 0.106064 -0.288934
  H 4.768066 0.145729 -3.329328
 25
 50.821037
  C 0.871572 0.146259 0.334674
  C 2.353953 0.084455 0.084991
  C 3.211985 0.012587 1.344075
  C 2.492898 -0.145412 2.674145
  H 3.234664 -0.186830 3.463427
  C 2.985334 0.150537 -1.130024
  C 2.337240 0.200345 -2.503247
  C 0.826929 0.293261 -2.692069
  H 0.619365 0.285235 -3.762593
  C 4.433582 0.128041 -1.219303
  C 5.176663 0.128069 -2.330807
  H 6.252894 0.116070 -2.263790
  H 0.547702 0.054481 1.347117
  H 1.421780 -0.775511 -0.084992
  H 0.250177 0.737198 -0.311825
  H 3.795126 0.933928 1.390859
  H 3.912476 -0.816435 1.257079
  H 1.920607 -1.062229 2.713396
  H 1.843471 0.692848 2.880845
  H 2.676312 -0.696959 -3.033472
  H 2.776558 1.055866 -3.024984
  H 0.431178 1.222707 -2.296353
  H 0.300806 -0.546931 -2.251025
  H 4.980962 0.124755 -0.287002
  H 4.775288 0.131890 -3.329093
 25
 54.233106
  C 0.865999 0.170043 0.328824
  C 2.347189 0.086444 0.077281
  C 3.214915 0.005181 1.345077
  C 2.503961 -0.157874 2.686193
  H 3.255612 -0.212061 3.470382
  C 2.981955 0.156231 -1.139294
  C 2.331241 0.202427 -2.516438
  C 0.820858 0.291099 -2.701944
  H 0.610986 0.275767 -3.768615
  C 4.433427 0.134357 -1.218205
  C 5.190275 0.125602 -2.321919
  H 6.263897 0.120552 -2.241353
  H 0.534855 0.110490 1.342739
  H 1.466896 -0.769072 -0.047211
  H 0.247946 0.696483 -0.339065
  H 3.802953 0.924392 1.393790
  H 3.912957 -0.828331 1.248664
  H 1.918720 -1.078942 2.724353
  H 1.858073 0.692922 2.909110
  H 2.669866 -0.695456 -3.045700
  H 2.767700 1.057235 -3.041298
  H 0.423414 1.224448 -2.310357
  H 0.297330 -0.550193 -2.253516
  H 4.968137 0.140376 -0.289303
  H 4.800806 0.117677 -3.325493
 25
 57.092655
  C 0.877242 0.190092 0.349421
  C 2.351551 0.084891 0.087212
  C 3.214058 -0.003763 1.339236
  C 2.498913 -0.169971 2.677885
  H 3.244964 -0.238523 3.459315
  C 2.987629 0.157797 -1.136850
  C 2.339728 0.199974 -2.513519
  C 0.831460 0.283255 -2.702858
  H 0.624384 0.261482 -3.769914
  C 4.426722 0.137481 -1.216540
  C 5.180171 0.125312 -2.323297
  H 6.254203 0.132114 -2.246703
  H 0.553380 0.157875 1.349901
  H 1.514203 -0.763440 0.004409
  H 0.228780 0.682056 -0.360746
  H 3.812162 0.917647 1.391762
  H 3.904042 -0.838896 1.235976
  H 1.904730 -1.081731 2.707802
  H 1.863439 0.684441 2.906606
  H 2.680825 -0.695930 -3.040161
  H 2.775008 1.052874 -3.038693
  H 0.429143 1.218440 -2.316529
  H 0.312773 -0.554815 -2.254312
  H 4.962984 0.152895 -0.289550
  H 4.784908 0.111723 -3.329627
 25
 59.405651
  C 0.869272 0.215665 0.343372
  C 2.349436 0.086620 0.080821
  C 3.217682 -0.008248 1.340891
  C 2.500488 -0.181016 2.686382
  H 3.245886 -0.262001 3.466914
  C 2.987996 0.166695 -1.144686
  C 2.340088 0.205599 -2.519317
  C 0.831191 0.276424 -2.707818
  H 0.622653 0.251169 -3.777522
  C 4.430690 0.152335 -1.222153
  C 5.186742 0.130573 -2.326928
  H 6.260294 0.111308 -2.247612
  H 0.532241 0.203015 1.362009
  H 1.543680 -0.757763 0.023305
  H 0.232238 0.651112 -0.372065
  H 3.818132 0.911466 1.397989
  H 3.908933 -0.850084 1.231282
  H 1.903385 -1.080211 2.709774
  H 1.878593 0.666464 2.921661
  H 2.687694 -0.686887 -3.047248
  H 2.768800 1.062419 -3.044133
  H 0.423134 1.206170 -2.323755
  H 0.318126 -0.569080 -2.255414
  H 4.972884 0.167796 -0.283305
  H 4.797024 0.095481 -3.326009
 25
 61.636520
  C 0.878907 0.242619 0.350775
  C 2.357037 0.082411 0.089598
  C 3.219818 -0.018448 1.351865
  C 2.496547 -0.189173 2.675921
  H 3.241492 -0.283877 3.468221
  C 3.000908 0.164632 -1.140777
  C 2.352770 0.200240 -2.514972
  C 0.843350 0.264591 -2.700572
  H 0.631175 0.233645 -3.774733
  C 4.425976 0.149043 -1.223333
  C 5.176819 0.130501 -2.337263
  H 6.256523 0.132813 -2.266097
  H 0.535328 0.238352 1.366980
  H 1.576654 -0.750482 0.048050
  H 0.235018 0.648975 -0.389463
  H 3.819756 0.887731 1.417187
  H 3.905763 -0.865260 1.244668
  H 1.882792 -1.090892 2.686591
  H 1.875619 0.673971 2.911413
  H 2.703393 -0.693675 -3.043302
  H 2.778583 1.058217 -3.042396
  H 0.432560 1.193878 -2.319449
  H 0.335995 -0.580151 -2.243630
  H 4.965233 0.172695 -0.302523
  H 4.777579 0.100782 -3.337387
 25
 63.569703
  C 0.876911 0.277198 0.355973
  C 2.353186 0.077930 0.086640
  C 3.223953 -0.031437 1.343185
  C 2.504364 -0.199097 2.675050
  H 3.249677 -0.307898 3.460514
  C 2.997091 0.158978 -1.145912
  C 2.344271 0.191041 -2.521898
  C 0.833468 0.251810 -2.704998
  H 0.618838 0.213841 -3.776418
  C 4.438155 0.138442 -1.220211
  C 5.198132 0.126821 -2.322821
  H 6.271725 0.166393 -2.240756
  H 0.532201 0.273298 1.369684
  H 1.588793 -0.742039 0.058592
  H 0.227440 0.656678 -0.396310
  H 3.835709 0.872343 1.407550
  H 3.901785 -0.887491 1.227477
  H 1.879584 -1.088386 2.685605
  H 1.899580 0.667289 2.917331
  H 2.694771 -0.705365 -3.049198
  H 2.768682 1.049047 -3.053953
  H 0.422136 1.180781 -2.329525
  H 0.330194 -0.589264 -2.242783
  H 4.976184 0.173995 -0.284583
  H 4.811345 0.114101 -3.323586
 25
 65.473444
  C 0.873666 0.310194 0.366379
  C 2.342440 0.082138 0.087824
  C 3.225160 -0.035732 1.337499
  C 2.516068 -0.213512 2.682341
  H 3.272348 -0.336124 3.464048
  C 2.986377 0.169604 -1.149185
  C 2.346703 0.193923 -2.515639
  C 0.844129 0.237116 -2.717727
  H 0.644104 0.190380 -3.797145
  C 4.428679 0.152912 -1.219483
  C 5.194879 0.130736 -2.317523
  H 6.274781 0.149930 -2.228611
  H 0.531323 0.296893 1.374262
  H 1.599723 -0.729683 0.068009
  H 0.215400 0.662998 -0.392666
  H 3.839881 0.865174 1.401903
  H 3.901155 -0.892154 1.206233
  H 1.886695 -1.096018 2.690718
  H 1.921368 0.651158 2.939377
  H 2.710590 -0.696566 -3.036113
  H 2.766079 1.053101 -3.042775
  H 0.417703 1.163109 -2.353612
  H 0.345978 -0.604683 -2.259244
  H 4.959085 0.182326 -0.291163
  H 4.812892 0.096260 -3.319373
