 19
 0.000000
  C -1.779973 1.169078 -0.104615
  C -1.099681 -0.153224 0.075285
  C -1.425301 -0.826850 1.390246
  C -1.323611 -1.262695 -1.012744
  C -2.355401 -0.942112 -2.037974
  O -0.720837 -2.284072 -0.956514
  H -1.429950 1.840782 0.682875
  H -2.860236 1.106973 0.015717
  H -1.523682 1.638156 -1.050330
  H -0.008787 0.001855 -0.001828
  H -2.486300 -1.055177 1.494437
  H -1.177848 -0.139252 2.200471
  H -0.861204 -1.748846 1.505889
  H -2.768521 0.052864 -1.965524
  H -3.142752 -1.691683 -1.930877
  H -1.890385 -1.097200 -3.013636
  O 2.234069 -0.004006 -0.051265
  H 2.759831 -0.474518 -0.702611
  H 2.833593 0.252397 0.653911
 19
 -0.842607
  C -1.738761 1.171159 -0.104889
  C -1.073657 -0.156398 0.088381
  C -1.409348 -0.824439 1.400540
  C -1.290944 -1.267025 -1.003553
  C -2.315493 -0.945393 -2.032560
  O -0.693344 -2.292493 -0.943900
  H -1.369711 1.848405 0.668582
  H -2.817303 1.125417 0.035188
  H -1.486585 1.624846 -1.058859
  H 0.024101 -0.028460 -0.016627
  H -2.474379 -1.035753 1.498813
  H -1.163368 -0.140260 2.213021
  H -0.857238 -1.753027 1.521971
  H -2.729500 0.050026 -1.961265
  H -3.103921 -1.693727 -1.931112
  H -1.849276 -1.101598 -3.006464
  O 2.051070 0.010428 -0.079335
  H 2.575635 -0.474476 -0.723518
  H 2.639702 0.264921 0.637535
 19
 -1.458473
  C -1.682777 1.166238 -0.100405
  C -1.052333 -0.178991 0.091138
  C -1.367936 -0.826677 1.416671
  C -1.272293 -1.275463 -0.995019
  C -2.273952 -0.940707 -2.046923
  O -0.705745 -2.322809 -0.929055
  H -1.299537 1.838167 0.669804
  H -2.762025 1.143695 0.045898
  H -1.431325 1.607242 -1.060032
  H 0.058834 -0.059313 -0.021747
  H -2.432586 -1.037977 1.525984
  H -1.116227 -0.139119 2.223316
  H -0.822124 -1.759700 1.535980
  H -2.668947 0.062997 -1.985835
  H -3.079951 -1.670747 -1.958260
  H -1.795901 -1.109434 -3.012482
  O 1.869499 0.072403 -0.120738
  H 2.373457 -0.476557 -0.728953
  H 2.430054 0.285870 0.632122
 19
 -1.733613
  C -1.629069 1.161345 -0.094818
  C -1.047184 -0.205858 0.090658
  C -1.314957 -0.826824 1.437620
  C -1.264589 -1.281093 -0.988615
  C -2.237759 -0.936042 -2.070164
  O -0.727259 -2.355891 -0.916425
  H -1.233855 1.822975 0.676131
  H -2.710119 1.164201 0.049208
  H -1.378199 1.589193 -1.060288
  H 0.096591 -0.094676 -0.016753
  H -2.376317 -1.046015 1.571555
  H -1.049127 -0.133789 2.233097
  H -0.772171 -1.763383 1.548160
  H -2.615596 0.075146 -2.021257
  H -3.060812 -1.647608 -2.000712
  H -1.744300 -1.116097 -3.025047
  O 1.678625 0.139070 -0.156046
  H 2.160169 -0.470430 -0.726141
  H 2.198956 0.303697 0.639428
