 29
 0.000000
  H 1.468810 0.162114 0.458477
  C 2.547807 0.147296 0.420354
  C 3.301846 0.617850 1.589067
  C 2.447078 1.088927 2.761099
  C 3.317682 1.556990 3.923162
  C 3.117285 -0.321623 -0.746640
  C 4.489935 -0.419413 -0.991449
  C 5.142869 -0.878349 -2.136549
  C 4.608727 -1.394174 -3.423792
  C 3.112171 -1.499561 -3.688376
  C 2.870378 -2.060291 -5.087787
  O 6.457696 -0.884071 -2.151383
  H 3.962651 1.437302 1.281272
  H 3.963575 -0.185765 1.934253
  H 1.804731 0.276108 3.104625
  H 1.803817 1.912582 2.446236
  H 3.952714 0.751092 4.284006
  H 2.695945 1.889506 4.750580
  H 3.951705 2.388883 3.625008
  H 2.439374 -0.633561 -1.522550
  H 5.140522 -0.096925 -0.188591
  H 5.058166 -2.384835 -3.560884
  H 5.058932 -0.772920 -4.207100
  H 2.644589 -0.516207 -3.628423
  H 2.643832 -2.168955 -2.966050
  H 3.304586 -1.415048 -5.847733
  H 1.803687 -2.137535 -5.281768
  H 3.303877 -3.052108 -5.191650
  H 6.874659 -0.555970 -1.331279
 29
 5.076036
  H 1.487986 0.185552 0.517057
  C 2.564375 0.153711 0.436971
  C 3.334329 0.618929 1.592345
  C 2.475698 1.089310 2.761721
  C 3.339061 1.558991 3.927692
  C 3.080951 -0.319970 -0.741652
  C 4.412308 -0.439469 -1.040483
  C 5.128772 -0.883453 -2.149091
  C 4.628515 -1.401802 -3.442818
  C 3.133311 -1.507589 -3.708155
  C 2.892662 -2.068060 -5.107543
  O 6.429866 -0.866139 -2.107830
  H 3.997943 1.437132 1.285705
  H 3.998632 -0.183135 1.937720
  H 1.832381 0.274710 3.099244
  H 1.831839 1.910227 2.440926
  H 3.973652 0.754006 4.291471
  H 2.713532 1.890701 4.752355
  H 3.972993 2.391951 3.632097
  H 2.360724 -0.620900 -1.490439
  H 4.881018 -0.088183 -0.165335
  H 5.086363 -2.388932 -3.576814
  H 5.086962 -0.780761 -4.221346
  H 2.666733 -0.524081 -3.646111
  H 2.666078 -2.175963 -2.984362
  H 3.327887 -1.422393 -5.866611
  H 1.826590 -2.146303 -5.303972
  H 3.327275 -3.059450 -5.210835
  H 6.812744 -0.532364 -1.274315
 29
 14.144553
  H 1.476238 0.211197 0.575922
  C 2.548652 0.161335 0.454366
  C 3.347656 0.620296 1.598158
  C 2.502756 1.097674 2.780620
  C 3.381884 1.561757 3.937583
  C 3.009651 -0.326140 -0.758760
  C 4.342912 -0.461427 -1.095539
  C 5.110574 -0.884641 -2.155012
  C 4.653118 -1.408312 -3.459236
  C 3.155585 -1.521130 -3.740637
  C 2.924179 -2.082612 -5.140672
  O 6.429758 -0.842013 -2.056158
  H 4.014124 1.440511 1.290714
  H 4.011475 -0.186342 1.945144
  H 1.857289 0.287169 3.123145
  H 1.860406 1.921601 2.465325
  H 4.015000 0.752626 4.294550
  H 2.767568 1.897599 4.769049
  H 4.017974 2.390483 3.635214
  H 2.226398 -0.605508 -1.456926
  H 4.625536 -0.084550 -0.153726
  H 5.122170 -2.393243 -3.584352
  H 5.122147 -0.783406 -4.230845
  H 2.687250 -0.538421 -3.677347
  H 2.686833 -2.187438 -3.015753
  H 3.363108 -1.436305 -5.896961
  H 1.859760 -2.163976 -5.344626
  H 3.362528 -3.072717 -5.240669
  H 6.770987 -0.501055 -1.209129
 29
 27.559612
  H 1.487914 0.213843 0.581418
  C 2.558606 0.160072 0.450490
  C 3.354002 0.612168 1.578062
  C 2.505170 1.088943 2.758815
  C 3.382637 1.553135 3.917163
  C 3.001140 -0.327796 -0.763940
  C 4.345051 -0.474939 -1.130224
  C 5.142959 -0.887199 -2.162156
  C 4.688089 -1.410826 -3.465403
  C 3.177479 -1.510625 -3.714388
  C 2.904625 -2.070639 -5.109772
  O 6.459269 -0.834203 -2.038198
  H 4.020368 1.435049 1.272616
  H 4.017170 -0.195600 1.928148
  H 1.858926 0.277634 3.100066
  H 1.862593 1.912955 2.442133
  H 4.015630 0.743982 4.275251
  H 2.766577 1.888634 4.747601
  H 4.019138 2.382433 3.615921
  H 2.181017 -0.596951 -1.437126
  H 4.465891 -0.084513 -0.154495
  H 5.151760 -2.397476 -3.596548
  H 5.151789 -0.789442 -4.242864
  H 2.720420 -0.522533 -3.637854
  H 2.719867 -2.171350 -2.975838
  H 3.331270 -1.428786 -5.877264
  H 1.834537 -2.141472 -5.287579
  H 3.330431 -3.065229 -5.220326
  H 6.782516 -0.487368 -1.177436
 29
 42.274788
  H 1.498384 0.207903 0.566757
  C 2.569180 0.158255 0.445733
  C 3.365662 0.620378 1.598083
  C 2.505814 1.090097 2.762204
  C 3.365455 1.557854 3.929341
  C 3.019652 -0.326252 -0.760649
  C 4.358171 -0.482720 -1.149850
  C 5.168092 -0.896154 -2.184753
  C 4.702530 -1.422563 -3.494365
  C 3.201277 -1.507667 -3.707129
  C 2.890605 -2.064723 -5.094735
  O 6.463818 -0.843746 -2.062101
  H 4.025044 1.439812 1.304250
  H 4.021994 -0.176502 1.953856
  H 1.860020 0.274945 3.095141
  H 1.863251 1.910999 2.437216
  H 3.998128 0.751771 4.295000
  H 2.737514 1.889938 4.751993
  H 4.001276 2.390608 3.635803
  H 2.190394 -0.593438 -1.429556
  H 4.357819 -0.091312 -0.171369
  H 5.155793 -2.410504 -3.632375
  H 5.156044 -0.805378 -4.277736
  H 2.756203 -0.515141 -3.617042
  H 2.755532 -2.161773 -2.955737
  H 3.305509 -1.426873 -5.872349
  H 1.815601 -2.125290 -5.247316
  H 3.304441 -3.063669 -5.215022
  H 6.784635 -0.495067 -1.196132
 29
 54.750090
  H 1.475309 0.223299 0.601700
  C 2.545906 0.170753 0.473186
  C 3.356631 0.630125 1.620463
  C 2.509238 1.106860 2.805149
  C 3.388972 1.570892 3.964779
  C 2.990417 -0.314892 -0.737592
  C 4.344768 -0.483125 -1.154036
  C 5.141967 -0.898857 -2.193303
  C 4.695628 -1.424825 -3.499881
  C 3.195927 -1.525532 -3.751405
  C 2.926706 -2.085730 -5.144228
  O 6.450770 -0.847163 -2.071101
  H 4.021882 1.452033 1.316157
  H 4.019036 -0.176134 1.969336
  H 1.862713 0.293207 3.147251
  H 1.865391 1.933087 2.489265
  H 4.022836 0.761260 4.321577
  H 2.773749 1.905738 4.796697
  H 4.025250 2.400855 3.663488
  H 2.155541 -0.578176 -1.398528
  H 4.243815 -0.090038 -0.171558
  H 5.158482 -2.409523 -3.628157
  H 5.159090 -0.804248 -4.274605
  H 2.738535 -0.537192 -3.674203
  H 2.737840 -2.184814 -3.011379
  H 3.354619 -1.444568 -5.910621
  H 1.857902 -2.157470 -5.324200
  H 3.353614 -3.079483 -5.252872
  H 6.765960 -0.506258 -1.222157
 29
 66.009643
  H 1.491149 0.225642 0.579279
  C 2.566559 0.176572 0.466324
  C 3.362445 0.636686 1.630742
  C 2.495388 1.107090 2.807711
  C 3.353301 1.568235 3.977531
  C 3.031750 -0.303352 -0.737181
  C 4.397336 -0.479049 -1.155451
  C 5.169482 -0.902742 -2.210827
  C 4.699103 -1.430323 -3.510390
  C 3.190715 -1.523769 -3.739432
  C 2.897601 -2.083735 -5.121884
  O 6.474144 -0.859196 -2.113011
  H 4.035680 1.465497 1.330967
  H 4.029290 -0.177255 1.982353
  H 1.850844 0.297448 3.136900
  H 1.857093 1.926344 2.490414
  H 3.983136 0.761547 4.338872
  H 2.726181 1.897139 4.800158
  H 3.989074 2.398955 3.688826
  H 2.216094 -0.564374 -1.409372
  H 4.210010 -0.091805 -0.185887
  H 5.153012 -2.417202 -3.644505
  H 5.152286 -0.814024 -4.293693
  H 2.740568 -0.539793 -3.659902
  H 2.741306 -2.175165 -2.997743
  H 3.317334 -1.446425 -5.895906
  H 1.826241 -2.149758 -5.284621
  H 3.317686 -3.080205 -5.234386
  H 6.813608 -0.508291 -1.246775
 29
 74.526085
  H 1.513965 0.300832 0.538584
  C 2.590499 0.235900 0.450409
  C 3.361863 0.657031 1.639639
  C 2.477614 1.100615 2.794776
  C 3.310302 1.517111 3.998848
  C 3.085318 -0.220607 -0.742661
  C 4.460532 -0.454269 -1.168367
  C 5.204141 -0.886048 -2.224125
  C 4.696771 -1.444089 -3.514700
  C 3.188229 -1.538766 -3.706844
  C 2.861074 -2.119213 -5.081549
  O 6.521402 -0.842900 -2.178237
  H 4.043425 1.477094 1.388043
  H 3.998057 -0.168636 1.980374
  H 1.813337 0.287810 3.083336
  H 1.857611 1.939352 2.482620
  H 3.923012 0.688208 4.354357
  H 2.663260 1.831992 4.816622
  H 3.967133 2.351011 3.748830
  H 2.276884 -0.444562 -1.464347
  H 4.214696 -0.065847 -0.185067
  H 5.149252 -2.431945 -3.645378
  H 5.131319 -0.829844 -4.309453
  H 2.739177 -0.548051 -3.630796
  H 2.753781 -2.184981 -2.943230
  H 3.264703 -1.490185 -5.876580
  H 1.781652 -2.186446 -5.218728
  H 3.279368 -3.120899 -5.191169
  H 6.882615 -0.479864 -1.355006
 29
 78.985307
  H 1.566310 0.400351 0.451137
  C 2.636325 0.311072 0.404522
  C 3.371283 0.678889 1.647052
  C 2.436515 1.095087 2.789431
  C 3.228876 1.446906 4.055033
  C 3.181744 -0.108709 -0.762283
  C 4.546113 -0.426130 -1.220919
  C 5.248879 -0.859359 -2.262492
  C 4.680024 -1.462263 -3.525875
  C 3.175494 -1.558713 -3.660938
  C 2.804901 -2.172000 -5.006753
  O 6.578558 -0.829463 -2.308829
  H 4.075104 1.497138 1.460320
  H 3.969795 -0.180556 1.971940
  H 1.738247 0.276045 3.016342
  H 1.842614 1.968849 2.482937
  H 3.809052 0.592856 4.401332
  H 2.554279 1.740989 4.856164
  H 3.911519 2.275010 3.869913
  H 2.424377 -0.268826 -1.541100
  H 4.277502 -0.031495 -0.213435
  H 5.127129 -2.450407 -3.639883
  H 5.083698 -0.851926 -4.334749
  H 2.729535 -0.565834 -3.602178
  H 2.766978 -2.187087 -2.869562
  H 3.180472 -1.568399 -5.823436
  H 1.729505 -2.240921 -5.105655
  H 3.217208 -3.168417 -5.102354
  H 6.998248 -0.433197 -1.516135
 29
 81.974397
  H 1.584382 0.506147 0.413999
  C 2.661085 0.383478 0.396191
  C 3.372751 0.690074 1.672671
  C 2.415349 1.090048 2.795394
  C 3.170232 1.380177 4.082765
  C 3.232874 -0.011640 -0.763244
  C 4.590586 -0.393161 -1.261435
  C 5.273936 -0.835326 -2.300287
  C 4.678038 -1.470155 -3.537450
  C 3.165679 -1.569683 -3.637298
  C 2.766276 -2.231675 -4.959287
  O 6.607848 -0.813513 -2.377880
  H 4.096245 1.500632 1.534829
  H 3.939042 -0.192543 1.996493
  H 1.700881 0.289350 2.973860
  H 1.856799 1.977164 2.503859
  H 3.719372 0.503923 4.415876
  H 2.479750 1.663600 4.871219
  H 3.874724 2.195435 3.943766
  H 2.508257 -0.116465 -1.585180
  H 4.303333 0.013854 -0.234977
  H 5.125752 -2.463164 -3.619605
  H 5.065272 -0.880595 -4.373204
  H 2.720546 -0.575352 -3.610031
  H 2.772035 -2.170050 -2.817088
  H 3.129391 -1.653362 -5.809806
  H 1.681225 -2.302829 -5.034939
  H 3.179075 -3.238784 -5.028585
  H 7.040042 -0.401710 -1.614475
 29
 85.071468
  H 1.624030 0.633001 0.362236
  C 2.685339 0.468828 0.375364
  C 3.367489 0.695324 1.684052
  C 2.388477 1.082719 2.797416
  C 3.117272 1.295170 4.124788
  C 3.276692 0.100167 -0.782965
  C 4.623752 -0.345691 -1.304735
  C 5.289870 -0.807607 -2.342962
  C 4.675078 -1.484511 -3.548361
  C 3.159995 -1.585873 -3.610194
  C 2.731247 -2.301544 -4.890068
  O 6.622603 -0.787145 -2.442982
  H 4.120610 1.484594 1.595897
  H 3.894699 -0.216962 1.984127
  H 1.641603 0.298005 2.921158
  H 1.866895 2.001615 2.526981
  H 3.630778 0.382339 4.438766
  H 2.408878 1.571099 4.909908
  H 3.856833 2.096159 4.040093
  H 2.586742 0.064691 -1.638801
  H 4.318555 0.079182 -0.277129
  H 5.120940 -2.477535 -3.598915
  H 5.043505 -0.929530 -4.412150
  H 2.719065 -0.592404 -3.617077
  H 2.786511 -2.145242 -2.757268
  H 3.076462 -1.761659 -5.772634
  H 1.644755 -2.373190 -4.938914
  H 3.140610 -3.311742 -4.925403
  H 7.068230 -0.347775 -1.698706
 29
 87.797585
  H 1.639719 0.754054 0.327337
  C 2.700124 0.548489 0.359424
  C 3.359717 0.696440 1.687990
  C 2.369728 1.069893 2.797181
  C 3.075095 1.202282 4.144219
  C 3.303008 0.206149 -0.803871
  C 4.645390 -0.294200 -1.336388
  C 5.298043 -0.779521 -2.368192
  C 4.668323 -1.498136 -3.542697
  C 3.153725 -1.598770 -3.576025
  C 2.703097 -2.369732 -4.817680
  O 6.630654 -0.761809 -2.485747
  H 4.140063 1.463694 1.647303
  H 3.852751 -0.245155 1.958885
  H 1.595474 0.305608 2.872533
  H 1.883782 2.015968 2.555108
  H 3.550631 0.263837 4.428277
  H 2.361801 1.467386 4.923469
  H 3.838842 1.978320 4.108718
  H 2.645143 0.240431 -1.680348
  H 4.317839 0.154808 -0.316341
  H 5.112460 -2.495215 -3.560924
  H 5.025420 -0.976705 -4.433174
  H 2.715223 -0.606242 -3.619098
  H 2.793327 -2.117021 -2.692195
  H 3.035721 -1.869996 -5.728600
  H 1.614758 -2.440943 -4.846849
  H 3.110242 -3.382127 -4.815124
  H 7.084445 -0.301149 -1.762715
 29
 89.910892
  H 1.668079 0.881602 0.286508
  C 2.712502 0.634641 0.332748
  C 3.346225 0.692468 1.679329
  C 2.347830 1.044937 2.784177
  C 3.028120 1.085837 4.149436
  C 3.327618 0.324329 -0.836287
  C 4.668572 -0.232307 -1.372877
  C 5.311527 -0.749212 -2.397611
  C 4.664644 -1.514322 -3.526482
  C 3.149534 -1.607792 -3.521108
  C 2.668550 -2.439555 -4.712971
  O 6.641540 -0.737924 -2.534431
  H 4.152772 1.432728 1.693009
  H 3.802556 -0.276738 1.911930
  H 1.546901 0.306001 2.805852
  H 1.900398 2.017563 2.580001
  H 3.464466 0.120654 4.395013
  H 2.308746 1.336666 4.925997
  H 3.816548 1.833715 4.167989
  H 2.705386 0.426483 -1.724108
  H 4.318210 0.252465 -0.354655
  H 5.106539 -2.517834 -3.507643
  H 5.007104 -1.033040 -4.446835
  H 2.712803 -0.612249 -3.603732
  H 2.805498 -2.077680 -2.599424
  H 2.983605 -1.988570 -5.654943
  H 1.578840 -2.506417 -4.715320
  H 3.071254 -3.452479 -4.667920
  H 7.106404 -0.250285 -1.834422
 29
 91.718412
  H 1.693121 0.994006 0.253854
  C 2.731820 0.710129 0.312297
  C 3.335958 0.683200 1.669068
  C 2.323758 1.010863 2.770633
  C 2.975833 0.965305 4.149171
  C 3.363503 0.435111 -0.861392
  C 4.689948 -0.172705 -1.403308
  C 5.321006 -0.719421 -2.417621
  C 4.652215 -1.534121 -3.504625
  C 3.140009 -1.620130 -3.462814
  C 2.630539 -2.509712 -4.600178
  O 6.648447 -0.715674 -2.572754
  H 4.162871 1.397646 1.735402
  H 3.761557 -0.308324 1.862421
  H 1.500378 0.293769 2.740114
  H 1.907567 2.007046 2.605295
  H 3.379002 -0.020457 4.354781
  H 2.249324 1.197774 4.921133
  H 3.782272 1.686693 4.220503
  H 2.776692 0.606876 -1.762093
  H 4.328312 0.349778 -0.383426
  H 5.090642 -2.537194 -3.449249
  H 4.977744 -1.095036 -4.450460
  H 2.706204 -0.629873 -3.584491
  H 2.815207 -2.038637 -2.511855
  H 2.926993 -2.108394 -5.571283
  H 1.539174 -2.571980 -4.575954
  H 3.031116 -3.521558 -4.512077
  H 7.123277 -0.203415 -1.896347
