 23
 0.000000
  H 1.405224 0.134920 0.386628
  C 2.475139 0.140018 0.399085
  C 3.241227 0.613797 1.578372
  C 2.445071 1.099206 2.786946
  C 3.376873 1.549401 3.907489
  C 3.096863 -0.322475 -0.752613
  C 4.472906 -0.413204 -0.978851
  C 5.132414 -0.867699 -2.111643
  C 4.618673 -1.388937 -3.410716
  H 3.569972 -1.467842 -3.607948
  O 6.457488 -0.870547 -2.119086
  H 3.897288 1.429656 1.253616
  H 3.897458 -0.199872 1.908184
  H 1.806291 0.298662 3.165430
  H 1.806160 1.939037 2.506526
  H 4.012896 0.731247 4.239516
  H 2.797657 1.892484 4.761770
  H 4.012720 2.370011 3.581218
  H 2.436796 -0.639606 -1.542199
  H 5.100515 -0.083792 -0.158214
  H 5.068655 -2.379864 -3.541239
  H 5.069011 -0.763340 -4.190016
  H 6.834017 -0.535875 -1.285013
 23
 0.000000
  H 1.434052 0.112503 0.330799
  C 2.533856 0.122101 0.354458
  C 3.286383 0.598890 1.541242
  C 2.476418 1.081116 2.741890
  C 3.395323 1.534979 3.871569
  C 3.131224 -0.324767 -0.758330
  C 4.443656 -0.408660 -0.967545
  C 5.081921 -0.846302 -2.058349
  C 4.597230 -1.371389 -3.367007
  H 3.553142 -1.458362 -3.584319
  O 6.343821 -0.830532 -2.019413
  H 3.942380 1.417349 1.222962
  H 3.942547 -0.212179 1.877531
  H 1.837110 0.278040 3.114066
  H 1.836982 1.918414 2.455161
  H 4.031276 0.719345 4.209874
  H 2.806347 1.875747 4.720085
  H 4.031103 2.358109 3.551575
  H 2.472431 -0.642265 -1.548832
  H 5.068018 -0.078390 -0.144779
  H 5.057262 -2.358809 -3.488803
  H 5.057602 -0.742281 -4.137571
  H 6.671229 -0.477272 -1.139019
 23
 0.000000
  H 1.460891 0.090176 0.275192
  C 2.593979 0.104829 0.311433
  C 3.332025 0.584752 1.506026
  C 2.507507 1.063542 2.698117
  C 3.412616 1.521240 3.837350
  C 3.168312 -0.326995 -0.763890
  C 4.416664 -0.404883 -0.958149
  C 5.033762 -0.826394 -2.008763
  C 4.577855 -1.355050 -3.326306
  H 3.538739 -1.449925 -3.563283
  O 6.231113 -0.793914 -1.928203
  H 3.987874 1.405969 1.194616
  H 3.988037 -0.223558 1.849186
  H 1.867717 0.257776 3.063594
  H 1.867593 1.898150 2.404688
  H 4.048415 0.708280 4.182315
  H 2.813356 1.859510 4.679646
  H 4.048247 2.347043 3.524015
  H 2.510351 -0.644733 -1.554989
  H 5.038551 -0.073962 -0.133772
  H 5.047583 -2.338943 -3.439330
  H 5.047907 -0.722412 -4.088089
  H 6.504607 -0.420742 -0.998188
 23
 0.000000
  H 1.485329 0.067920 0.219762
  C 2.655414 0.088250 0.270137
  C 3.378066 0.571416 1.472810
  C 2.538295 1.046512 2.655700
  C 3.428709 1.508197 3.804866
  C 3.208055 -0.329150 -0.769269
  C 4.392225 -0.401770 -0.950406
  C 4.988237 -0.807949 -1.962823
  C 4.560497 -1.339865 -3.288482
  H 3.526629 -1.442387 -3.544483
  O 6.120056 -0.760800 -1.845719
  H 4.033668 1.395545 1.168653
  H 4.033826 -0.233981 1.823224
  H 1.898084 0.237904 3.014098
  H 1.897964 1.878278 2.355192
  H 4.064259 0.698059 4.156861
  H 2.818672 1.843782 4.640476
  H 4.064095 2.336822 3.498560
  H 2.550512 -0.647008 -1.560666
  H 5.012454 -0.070412 -0.124955
  H 5.039467 -2.320260 -3.392801
  H 5.039773 -0.703726 -4.041553
  H 6.333887 -0.366680 -0.863500
 23
 0.000000
  H 1.506204 0.045656 0.164312
  C 2.718411 0.072433 0.230736
  C 3.424630 0.558963 1.441791
  C 2.568815 1.030068 2.614743
  C 3.443512 1.495908 3.774262
  C 3.250725 -0.331236 -0.774475
  C 4.370599 -0.399294 -0.944250
  C 4.945549 -0.791046 -1.920723
  C 4.545071 -1.325903 -3.253701
  H 3.516635 -1.435745 -3.527914
  O 6.010949 -0.731294 -1.772222
  H 4.079867 1.386178 1.145321
  H 4.080022 -0.243349 1.799892
  H 1.928259 0.218445 2.965631
  H 1.928143 1.858819 2.306725
  H 4.078700 0.688761 4.133707
  H 2.822145 1.828595 4.602654
  H 4.078541 2.327524 3.475405
  H 2.593115 -0.649073 -1.565825
  H 4.990156 -0.067757 -0.118366
  H 5.032757 -2.302867 -3.349487
  H 5.033045 -0.686330 -3.998232
  H 6.158118 -0.314963 -0.734651
 23
 0.000000
  H 1.521782 0.023651 0.109507
  C 2.782123 0.057716 0.194073
  C 3.471028 0.547682 1.413691
  C 2.598574 1.014531 2.576045
  C 3.456676 1.484639 3.746198
  C 3.295854 -0.333231 -0.779459
  C 4.352463 -0.397474 -0.939732
  C 4.906700 -0.776068 -1.883417
  C 4.531777 -1.313493 -3.222784
  H 3.508743 -1.430127 -3.513892
  O 5.906059 -0.705987 -1.709183
  H 4.125773 1.378124 1.125259
  H 4.125922 -0.251403 1.779831
  H 1.957763 0.199752 2.919071
  H 1.957652 1.840127 2.260165
  H 4.091376 0.680620 4.113433
  H 2.823559 1.814238 4.566897
  H 4.091222 2.319382 3.455131
  H 2.637620 -0.650889 -1.570363
  H 4.972527 -0.066064 -0.114176
  H 5.027433 -2.287202 -3.310474
  H 5.027702 -0.670663 -3.959214
  H 5.979339 -0.266355 -0.613544
 23
 0.000000
  H 1.530548 0.001835 0.055171
  C 2.846502 0.044217 0.160444
  C 3.517153 0.537688 1.388798
  C 2.627444 0.999995 2.539839
  C 3.468015 1.474483 3.720906
  C 3.343471 -0.335138 -0.784223
  C 4.338123 -0.396270 -0.936746
  C 4.872039 -0.763119 -1.851166
  C 4.520546 -1.302741 -3.195996
  H 3.502726 -1.425543 -3.502444
  O 5.806078 -0.684947 -1.656773
  H 4.171262 1.371504 1.108772
  H 4.171405 -0.258022 1.763344
  H 1.986488 0.181912 2.874633
  H 1.986382 1.822286 2.215728
  H 4.102084 0.673734 4.096289
  H 2.822716 1.800786 4.533399
  H 4.101937 2.312496 3.437986
  H 2.683987 -0.652436 -1.574231
  H 4.960041 -0.065337 -0.112394
  H 5.023342 -2.273432 -3.276181
  H 5.023592 -0.656892 -3.924918
  H 5.797059 -0.220858 -0.500187
 23
 0.000000
  H 1.530141 -0.019738 0.001443
  C 2.911052 0.032207 0.130523
  C 3.562537 0.529232 1.367734
  C 2.655020 0.986710 2.506748
  C 3.477143 1.465666 3.698952
  C 3.393360 -0.336952 -0.788758
  C 4.328110 -0.395692 -0.935319
  C 4.842297 -0.752515 -1.824756
  C 4.511428 -1.293947 -3.174083
  H 3.498400 -1.422133 -3.493917
  O 5.712509 -0.668486 -1.615769
  H 4.215847 1.366562 1.096463
  H 4.215984 -0.262964 1.751035
  H 2.014042 0.165180 2.832958
  H 2.013943 1.805555 2.174053
  H 4.110426 0.668322 4.082818
  H 2.819276 1.788467 4.502723
  H 4.110285 2.307084 3.424516
  H 2.731895 -0.653677 -1.577339
  H 4.953463 -0.065651 -0.113207
  H 5.020377 -2.261956 -3.247600
  H 5.020607 -0.645415 -3.896334
  H 5.611894 -0.178653 -0.395026
 23
 0.000000
  H 1.518347 -0.041026 -0.051579
  C 2.975061 0.021951 0.104970
  C 3.606564 0.522545 1.351077
  C 2.680816 0.974923 2.477391
  C 3.483663 1.458399 3.680860
  C 3.445060 -0.338659 -0.793025
  C 4.322803 -0.395715 -0.935388
  C 4.818055 -0.744507 -1.804814
  C 4.504336 -1.287358 -3.157662
  H 3.495439 -1.419991 -3.488544
  O 5.626748 -0.656783 -1.586616
  H 4.258906 1.363507 1.088854
  H 4.259036 -0.266019 1.743426
  H 2.039957 0.149828 2.794717
  H 2.039864 1.790203 2.135813
  H 4.115994 0.664575 4.073496
  H 2.812933 1.777505 4.475428
  H 4.115860 2.303338 3.415194
  H 2.780802 -0.654571 -1.579583
  H 4.953350 -0.067041 -0.116700
  H 5.018311 -2.253117 -3.225588
  H 5.018520 -0.636576 -3.874322
  H 5.424544 -0.139977 -0.298657
 23
 0.000000
  H 1.493146 -0.061980 -0.103768
  C 3.037622 0.013719 0.084456
  C 3.648495 0.517854 1.339392
  C 2.704272 0.964900 2.452425
  C 3.487172 1.452896 3.667163
  C 3.497876 -0.340214 -0.796914
  C 4.322389 -0.396274 -0.936793
  C 4.799673 -0.739269 -1.791772
  C 4.499028 -1.283150 -3.147170
  H 3.493366 -1.419156 -3.486423
  O 5.549960 -0.649861 -1.569372
  H 4.299691 1.362533 1.086431
  H 4.299814 -0.266993 1.741002
  H 2.063683 0.136151 2.760647
  H 2.063597 1.776526 2.101744
  H 4.118379 0.662675 4.068774
  H 2.803411 1.768139 4.452110
  H 4.118253 2.301437 3.410472
  H 2.829956 -0.655052 -1.580797
  H 4.960003 -0.069490 -0.122831
  H 5.016779 -2.247183 -3.210806
  H 5.016969 -0.630642 -3.859542
  H 5.235849 -0.105043 -0.211608
 23
 0.000000
  H 1.452239 -0.082555 -0.155013
  C 3.097676 0.007794 0.069689
  C 3.687461 0.515402 1.333284
  C 2.724714 0.956928 2.432568
  C 3.487179 1.449394 3.658450
  C 3.550998 -0.341565 -0.800294
  C 4.327053 -0.397313 -0.939390
  C 4.787491 -0.736990 -1.786098
  C 4.495270 -1.281513 -3.143079
  H 3.491733 -1.419687 -3.487702
  O 5.483298 -0.647696 -1.563977
  H 4.337338 1.363847 1.089706
  H 4.337453 -0.265680 1.744276
  H 2.084554 0.124471 2.731554
  H 2.084476 1.764847 2.072653
  H 4.117092 0.662822 4.069153
  H 2.790357 1.760641 4.433444
  H 4.116974 2.301585 3.410853
  H 2.878518 -0.655052 -1.580814
  H 4.973666 -0.072984 -0.131566
  H 5.015431 -2.244426 -3.203937
  H 5.015603 -0.627887 -3.852676
  H 5.047168 -0.073925 -0.134066
 23
 0.000000
  H 1.391889 -0.102564 -0.204850
  C 3.153808 0.004604 0.061734
  C 3.722405 0.515555 1.333664
  C 2.741407 0.951464 2.418961
  C 3.483293 1.448272 3.655667
  C 3.603333 -0.342648 -0.803007
  C 4.337093 -0.398864 -0.943267
  C 4.781884 -0.738099 -1.788868
  C 4.492549 -1.282843 -3.146377
  H 3.489747 -1.421764 -3.492832
  O 5.428171 -0.650506 -1.570976
  H 4.370809 1.367749 1.099429
  H 4.370915 -0.261778 1.753998
  H 2.101829 0.115311 2.708736
  H 2.101759 1.755688 2.049837
  H 4.111762 0.665333 4.075423
  H 2.773605 1.755455 4.420539
  H 4.111653 2.304097 3.417124
  H 2.925283 -0.654465 -1.579367
  H 4.994799 -0.077639 -0.143192
  H 5.013536 -2.245370 -3.206280
  H 5.013690 -0.628832 -3.855025
  H 4.860953 -0.046472 -0.065657
 23
 0.000000
  H 1.363278 -0.110204 -0.223877
  C 3.169721 0.003639 0.059328
  C 3.730434 0.515797 1.334269
  C 2.742730 0.949599 2.414318
  C 3.476947 1.447987 3.654961
  C 3.619438 -0.343580 -0.805329
  C 4.340997 -0.400078 -0.946290
  C 4.781325 -0.739978 -1.793547
  C 4.492029 -1.284728 -3.151062
  H 3.489237 -1.423662 -3.497541
  O 5.412318 -0.653182 -1.577638
  H 4.378252 1.369379 1.103492
  H 4.378355 -0.260149 1.758060
  H 2.103407 0.112078 2.700683
  H 2.103340 1.752455 2.041784
  H 4.104842 0.666391 4.078067
  H 2.762534 1.753645 4.416037
  H 4.104737 2.305155 3.419768
  H 2.939661 -0.654874 -1.580388
  H 5.002607 -0.079965 -0.148991
  H 5.013030 -2.247247 -3.210952
  H 5.013180 -0.630711 -3.859698
  H 4.798113 -0.038167 -0.044957
 23
 0.000000
  H 1.209509 -0.146421 -0.314087
  C 3.265064 0.005766 0.064604
  C 3.786363 0.523661 1.353853
  C 2.765883 0.946787 2.407314
  C 3.461668 1.452759 3.666870
  C 3.714024 -0.343115 -0.804200
  C 4.370148 -0.401957 -0.950988
  C 4.782014 -0.747464 -1.812208
  C 4.484200 -1.291593 -3.168130
  H 3.479250 -1.428367 -3.509174
  O 5.331308 -0.667232 -1.612633
  H 4.430952 1.384107 1.140181
  H 4.431040 -0.245422 1.794746
  H 2.128144 0.102481 2.676775
  H 2.128091 1.742861 2.017881
  H 4.086406 0.677816 4.106550
  H 2.724166 1.750700 4.408723
  H 4.086315 2.316581 3.448255
  H 3.021104 -0.650357 -1.569168
  H 5.057589 -0.089480 -0.172751
  H 5.002794 -2.255233 -3.230825
  H 5.002915 -0.638703 -3.879586
  H 4.442190 0.001511 0.053911
