8

H      1.620938   -0.200183    1.262966
C      2.905336    0.512600    1.487856
C      4.143225    0.785783   -1.187813
H      4.220232   -0.480275   -1.686050
H      2.833125    1.538467    1.814805
H      3.658312   -0.044646    2.026197
H      3.444282    1.392885   -1.741859
H      5.078537    1.271140   -0.936885
