 25
 0.000000
  C 0.963993 0.142763 0.412211
  C 2.436217 0.142577 0.396475
  C 3.231515 0.607109 1.554009
  C 2.465984 1.095129 2.777222
  H 3.161853 1.405303 3.548339
  C 3.049952 -0.322761 -0.764072
  C 4.433801 -0.410535 -0.975260
  C 5.092826 -0.862201 -2.093846
  C 4.625117 -1.382095 -3.388486
  C 3.143631 -1.507179 -3.708316
  H 3.022648 -1.909205 -4.708632
  H 6.174220 -0.848365 -2.053064
  H 0.542389 0.505078 1.342240
  H 0.593029 -0.867777 0.233921
  H 0.578438 0.757517 -0.402739
  H 3.890325 1.413601 1.212514
  H 3.893744 -0.209838 1.862239
  H 1.836983 0.306167 3.184420
  H 1.833360 1.944693 2.528384
  H 2.389764 -0.640330 -1.554057
  H 5.064622 -0.081846 -0.159521
  H 5.097216 -2.366411 -3.508743
  H 5.101196 -0.757397 -4.156150
  H 2.655316 -0.535794 -3.677036
  H 2.651397 -2.184464 -3.014023
 25
 0.213827
  C 0.977623 0.500496 0.313522
  C 2.429005 0.265924 0.334080
  C 3.215779 0.413215 1.576079
  C 2.454020 0.796281 2.835461
  H 3.142258 0.833088 3.675508
  C 3.029411 -0.147413 -0.852078
  C 4.406555 -0.139115 -1.104439
  C 5.066841 -0.588544 -2.223049
  C 4.628992 -1.379519 -3.376084
  C 3.183995 -1.822507 -3.513728
  H 3.091958 -2.465166 -4.385062
  H 6.126008 -0.362631 -2.257421
  H 0.640593 1.104231 1.148709
  H 0.453381 -0.457825 0.363775
  H 0.680501 0.964609 -0.624344
  H 4.003840 1.154249 1.398474
  H 3.748299 -0.527387 1.755161
  H 1.682114 0.067609 3.068837
  H 1.994784 1.777549 2.742385
  H 2.363378 -0.436707 -1.649274
  H 5.028370 0.340731 -0.359017
  H 5.279140 -2.265114 -3.392286
  H 4.932334 -0.828862 -4.275934
  H 2.522857 -0.974439 -3.665863
  H 2.861368 -2.389203 -2.645476
 25
 4.419777
  C 1.037406 0.797906 0.264396
  C 2.401029 0.258940 0.332885
  C 3.150921 0.171613 1.601117
  C 2.455854 0.683895 2.853329
  H 3.098373 0.521643 3.714747
  C 2.981628 -0.191127 -0.855344
  C 4.308044 0.032823 -1.216416
  C 4.973249 -0.360847 -2.351341
  C 4.627650 -1.323946 -3.406256
  C 3.298327 -2.060341 -3.365239
  H 3.263190 -2.775790 -4.183616
  H 5.949583 0.084776 -2.497453
  H 0.816378 1.444574 1.106865
  H 0.302789 -0.011231 0.271037
  H 0.910762 1.342046 -0.668752
  H 4.110002 0.689408 1.473314
  H 3.431262 -0.878021 1.746623
  H 1.521766 0.157866 3.031473
  H 2.252847 1.750131 2.788050
  H 2.315247 -0.649622 -1.571722
  H 4.863008 0.693105 -0.560378
  H 5.445845 -2.057179 -3.420501
  H 4.728534 -0.803705 -4.367576
  H 2.463459 -1.377551 -3.498579
  H 3.181626 -2.610132 -2.435035
 25
 13.362732
  C 1.175551 1.054386 0.245078
  C 2.411625 0.275114 0.349461
  C 3.073190 -0.000437 1.633004
  C 2.415742 0.562017 2.883713
  H 2.977513 0.247334 3.758990
  C 2.980330 -0.232451 -0.842284
  C 4.201079 0.183813 -1.346813
  C 4.855623 -0.206905 -2.490082
  C 4.606377 -1.306355 -3.438768
  C 3.417875 -2.232949 -3.229559
  H 3.431280 -3.005046 -3.995685
  H 5.730352 0.376801 -2.747322
  H 1.069723 1.741014 1.079078
  H 0.299557 0.399628 0.263101
  H 1.167280 1.592710 -0.700054
  H 4.113425 0.347854 1.563270
  H 3.169029 -1.088470 1.724453
  H 1.397413 0.199423 2.992234
  H 2.403367 1.649109 2.873126
  H 2.368971 -0.921807 -1.407517
  H 4.672751 0.991864 -0.799552
  H 5.528491 -1.902108 -3.462617
  H 4.547971 -0.863343 -4.441077
  H 2.477669 -1.697320 -3.328362
  H 3.468471 -2.724757 -2.261521
 25
 23.360432
  C 1.390527 1.283565 0.235452
  C 2.479888 0.330372 0.370718
  C 2.990008 -0.107309 1.667677
  C 2.318122 0.459778 2.908853
  H 2.773228 0.027731 3.795796
  C 3.065046 -0.232929 -0.820759
  C 4.111102 0.337962 -1.512074
  C 4.732692 -0.114798 -2.657867
  C 4.544117 -1.328637 -3.480251
  C 3.474970 -2.344867 -3.105002
  H 3.517648 -3.176836 -3.804901
  H 5.532634 0.514183 -3.026934
  H 1.327343 1.970643 1.076111
  H 0.455096 0.713882 0.231812
  H 1.429024 1.813384 -0.714553
  H 4.065451 0.111371 1.679791
  H 2.956064 -1.205651 1.696484
  H 1.257890 0.223842 2.928011
  H 2.439137 1.538371 2.969280
  H 2.605354 -1.140898 -1.181249
  H 4.499508 1.263135 -1.104133
  H 5.517491 -1.835288 -3.516252
  H 4.374557 -0.991388 -4.511006
  H 2.479529 -1.913026 -3.173930
  H 3.645228 -2.744703 -2.109245
 25
 11.694975
  C 1.651832 1.476487 0.238430
  C 2.592025 0.365898 0.373538
  C 2.910299 -0.215886 1.690787
  C 2.195209 0.379571 2.894430
  H 2.496042 -0.153486 3.792372
  C 3.170045 -0.216941 -0.776855
  C 4.024865 0.439784 -1.658687
  C 4.584679 -0.061620 -2.808719
  C 4.442653 -1.346589 -3.516349
  C 3.529736 -2.436155 -2.973867
  H 3.574997 -3.296013 -3.638790
  H 5.276870 0.604545 -3.309712
  H 1.673823 2.156510 1.086513
  H 0.650836 1.031976 0.229566
  H 1.755155 2.006436 -0.705174
  H 3.995300 -0.136783 1.825099
  H 2.724259 -1.296627 1.652501
  H 1.116757 0.291889 2.796791
  H 2.450714 1.426814 3.034303
  H 2.935650 -1.256681 -0.952025
  H 4.311997 1.446955 -1.384930
  H 5.455464 -1.753920 -3.631333
  H 4.136505 -1.098577 -4.541127
  H 2.495489 -2.103240 -2.938094
  H 3.852587 -2.769772 -1.991326
 25
 2.928944
  C 1.949438 1.629869 0.259914
  C 2.723893 0.393786 0.387521
  C 2.810141 -0.300049 1.691559
  C 2.057007 0.332444 2.852077
  H 2.174866 -0.284701 3.740000
  C 3.320300 -0.204127 -0.722819
  C 3.964057 0.482367 -1.762836
  C 4.444710 -0.046754 -2.932586
  C 4.315139 -1.373544 -3.554242
  C 3.567286 -2.494894 -2.855511
  H 3.554085 -3.367016 -3.504033
  H 5.007581 0.639726 -3.551303
  H 2.082973 2.291966 1.112253
  H 0.895063 1.345377 0.268923
  H 2.123550 2.146244 -0.678878
  H 3.874030 -0.388486 1.951019
  H 2.472409 -1.334540 1.560620
  H 0.995579 0.414157 2.636387
  H 2.440620 1.320803 3.088019
  H 3.339546 -1.280871 -0.740554
  H 4.145875 1.540040 -1.603746
  H 5.331207 -1.711220 -3.797178
  H 3.858481 -1.197354 -4.539062
  H 2.537088 -2.215380 -2.652524
  H 4.060947 -2.787299 -1.934445
 25
 0.563828
  C 2.190504 1.676349 0.218568
  C 2.887883 0.395581 0.388285
  C 2.727193 -0.373766 1.644084
  C 1.925065 0.288736 2.751093
  H 1.857383 -0.380421 3.604311
  C 3.634372 -0.174043 -0.631553
  C 4.078438 0.496958 -1.788538
  C 4.389469 -0.044363 -3.005512
  C 4.111392 -1.375320 -3.562004
  C 3.510954 -2.455525 -2.678522
  H 3.247013 -3.314597 -3.290789
  H 4.819893 0.633531 -3.731445
  H 2.294057 2.305309 1.100494
  H 1.119645 1.476662 0.119866
  H 2.504323 2.201494 -0.676417
  H 3.722967 -0.639980 2.016361
  H 2.261197 -1.334670 1.394470
  H 0.914978 0.521917 2.424952
  H 2.399618 1.207429 3.089015
  H 3.941169 -1.200949 -0.499897
  H 4.237717 1.566532 -1.696655
  H 5.045332 -1.738525 -4.010894
  H 3.456987 -1.211602 -4.429686
  H 2.607925 -2.100470 -2.186779
  H 4.221218 -2.793554 -1.928575
 25
 5.108791
  C 2.221467 1.458696 0.000976
  C 2.981510 0.268105 0.400103
  C 2.811627 -0.358804 1.730459
  C 1.894483 0.366480 2.701716
  H 1.819107 -0.199952 3.626451
  C 3.839596 -0.301627 -0.520363
  C 4.349775 0.403984 -1.650168
  C 4.513718 -0.048612 -2.919814
  C 3.930934 -1.245979 -3.550599
  C 3.253110 -2.271256 -2.660722
  H 2.753534 -3.015217 -3.275582
  H 5.006151 0.614908 -3.618216
  H 2.026988 2.139773 0.821471
  H 1.254816 1.153390 -0.411336
  H 2.726069 1.920528 -0.847791
  H 3.799536 -0.498825 2.181524
  H 2.427104 -1.374379 1.572415
  H 0.893976 0.479113 2.292938
  H 2.283434 1.351239 2.949914
  H 4.203253 -1.303862 -0.342674
  H 4.783614 1.371489 -1.421483
  H 4.726278 -1.727018 -4.132408
  H 3.224146 -0.891676 -4.312312
  H 2.507753 -1.799353 -2.023230
  H 3.975392 -2.787834 -2.035683
 25
 13.328244
  C 2.217127 1.294224 -0.106696
  C 2.969895 0.141767 0.413281
  C 2.814322 -0.370705 1.791219
  C 1.939122 0.469252 2.707712
  H 1.839738 -0.021381 3.669356
  C 3.860375 -0.430344 -0.467336
  C 4.372091 0.355320 -1.561686
  C 4.518892 -0.010257 -2.857364
  C 3.871491 -1.134647 -3.550884
  C 3.176889 -2.181066 -2.697365
  H 2.646095 -2.884706 -3.336575
  H 5.051318 0.666511 -3.510651
  H 1.964712 2.047773 0.629518
  H 1.315086 0.990096 -0.648294
  H 2.814836 1.607635 -0.990171
  H 3.801200 -0.500216 2.235785
  H 2.391112 -1.377880 1.719959
  H 0.943003 0.600534 2.289449
  H 2.377900 1.449073 2.882459
  H 4.288820 -1.404164 -0.275278
  H 4.976689 1.189407 -1.227019
  H 4.642870 -1.617270 -4.164576
  H 3.172600 -0.719984 -4.291239
  H 2.456515 -1.721037 -2.026093
  H 3.893291 -2.743242 -2.107158
 25
 32.140857
  C 2.340169 1.165767 -0.167746
  C 3.043441 0.067114 0.453130
  C 2.828533 -0.364914 1.856871
  C 1.864652 0.486548 2.642159
  H 1.738197 0.069367 3.636763
  C 3.961489 -0.519299 -0.376722
  C 4.386256 0.348200 -1.473198
  C 4.485397 0.020527 -2.807732
  C 3.797548 -1.053078 -3.494234
  C 3.104654 -2.100063 -2.663341
  H 2.499850 -2.733191 -3.303995
  H 4.924123 0.740917 -3.452467
  H 1.979424 1.953612 0.458534
  H 1.636531 0.929041 -0.979945
  H 3.180236 1.300064 -1.079252
  H 3.782333 -0.415290 2.367429
  H 2.449564 -1.408029 1.807937
  H 0.879168 0.518477 2.175226
  H 2.242941 1.489388 2.743489
  H 4.380067 -1.492923 -0.214077
  H 5.112818 1.085781 -1.156439
  H 4.507540 -1.530225 -4.191770
  H 3.069317 -0.563137 -4.154551
  H 2.446819 -1.644809 -1.914929
  H 3.820798 -2.737492 -2.161121
 25
 41.551851
  C 2.308828 1.178435 -0.121027
  C 3.004400 0.084703 0.451820
  C 2.805978 -0.376537 1.868093
  C 1.833932 0.462608 2.687188
  H 1.713766 0.021424 3.673681
  C 3.934738 -0.489025 -0.373786
  C 4.351151 0.411258 -1.473842
  C 4.451006 0.035454 -2.828264
  C 3.797681 -1.080100 -3.508600
  C 3.075130 -2.118120 -2.664301
  H 2.549810 -2.813319 -3.314121
  H 4.986886 0.712191 -3.481656
  H 1.916805 1.953360 0.518585
  H 1.747009 1.051634 -1.035602
  H 3.481247 1.251030 -1.261010
  H 3.772284 -0.411431 2.375711
  H 2.437536 -1.405411 1.817639
  H 0.855297 0.503037 2.214262
  H 2.205217 1.475596 2.822297
  H 4.426659 -1.425489 -0.183451
  H 5.177640 1.055774 -1.156682
  H 4.542531 -1.571480 -4.147620
  H 3.098413 -0.636723 -4.233053
  H 2.345629 -1.657915 -2.003640
  H 3.775883 -2.693180 -2.067512
 25
 39.222703
  C 2.180807 1.196768 -0.068394
  C 2.957674 0.155478 0.430967
  C 2.826602 -0.359381 1.843697
  C 1.830794 0.390879 2.717543
  H 1.770359 -0.087828 3.692074
  C 3.916458 -0.386644 -0.400224
  C 4.352981 0.472195 -1.523284
  C 4.506900 -0.010297 -2.857954
  C 3.863505 -1.154434 -3.484660
  C 3.045207 -2.098655 -2.617632
  H 2.532516 -2.819477 -3.249407
  H 5.103724 0.599165 -3.524214
  H 1.706763 1.894388 0.601293
  H 1.737368 1.152291 -1.048881
  H 3.576673 1.307282 -1.453014
  H 3.806671 -0.348359 2.325376
  H 2.519490 -1.406017 1.767709
  H 0.836815 0.383518 2.276105
  H 2.141903 1.420831 2.874244
  H 4.422535 -1.310575 -0.182058
  H 5.220482 1.073036 -1.218084
  H 4.623794 -1.717981 -4.041846
  H 3.228831 -0.740478 -4.283357
  H 2.295338 -1.563318 -2.042487
  H 3.680552 -2.655221 -1.936273
 25
 35.054748
  C 2.039692 1.199447 -0.026474
  C 2.906464 0.226095 0.407459
  C 2.857890 -0.339167 1.809668
  C 1.837649 0.305372 2.737684
  H 1.852936 -0.200494 3.700258
  C 3.894231 -0.266520 -0.438816
  C 4.340793 0.539553 -1.590235
  C 4.562277 -0.065552 -2.878863
  C 3.939802 -1.253880 -3.431852
  C 3.004515 -2.071346 -2.555063
  H 2.517984 -2.834637 -3.157015
  H 5.222908 0.464831 -3.552128
  H 1.456258 1.775764 0.668208
  H 1.747147 1.289526 -1.057871
  H 3.616289 1.381700 -1.664445
  H 3.848989 -0.262398 2.261975
  H 2.629582 -1.403915 1.713789
  H 0.831566 0.226225 2.332427
  H 2.069399 1.353614 2.910557
  H 4.432474 -1.165247 -0.188378
  H 5.238128 1.102539 -1.292364
  H 4.719910 -1.896480 -3.862549
  H 3.395223 -0.905596 -4.324347
  H 2.230921 -1.451139 -2.112050
  H 3.546067 -2.578136 -1.763036
 25
 32.829514
  C 1.881881 1.007538 -0.055488
  C 2.891183 0.208876 0.383456
  C 2.960852 -0.313560 1.803121
  C 1.886015 0.211456 2.740359
  H 2.030802 -0.212479 3.730750
  C 3.930314 -0.185998 -0.466779
  C 4.339636 0.600252 -1.644629
  C 4.630951 -0.115460 -2.873769
  C 4.015250 -1.344183 -3.328122
  C 2.834724 -1.891806 -2.539638
  H 2.433518 -2.765855 -3.043064
  H 5.387316 0.303848 -3.523089
  H 1.159406 1.430795 0.614746
  H 1.700175 1.166821 -1.100869
  H 3.615459 1.412059 -1.819039
  H 3.942488 -0.072976 2.219816
  H 2.888693 -1.403547 1.755042
  H 0.894162 -0.068402 2.397432
  H 1.938433 1.294043 2.831230
  H 4.572318 -1.000125 -0.170940
  H 5.238504 1.164859 -1.353043
  H 4.794906 -2.109195 -3.441551
  H 3.709100 -1.164099 -4.370042
  H 2.038874 -1.153933 -2.464358
  H 3.122274 -2.191545 -1.539100
