 19
 0.000000
  H 1.540295 0.048163 0.282146
  C 2.615514 0.054663 0.166923
  C 3.396489 -0.017486 1.445645
  C 2.512373 -0.087600 2.688127
  C 3.346102 -0.159491 3.962253
  C 3.152567 0.123402 -1.051244
  H 2.540548 0.173641 -1.941620
  C 4.575035 0.138547 -1.319602
  C 5.097471 0.207335 -2.538774
  H 6.159340 0.217542 -2.719631
  H 4.045682 0.860337 1.526648
  H 4.045685 -0.898847 1.427382
  H 1.869517 -0.969248 2.632430
  H 1.869509 0.794713 2.731966
  H 3.981113 -1.043055 3.957254
  H 2.700710 -0.208828 4.836532
  H 3.981108 0.719027 4.056680
  H 5.243911 0.090675 -0.471157
  H 4.498229 0.257884 -3.434621
 19
 6.974468
  H 1.574055 0.049530 0.257918
  C 2.648670 0.056534 0.133773
  C 3.438707 -0.014985 1.401321
  C 2.465488 -0.092545 2.775748
  C 3.304491 -0.163951 4.041275
  C 3.173283 0.125551 -1.089330
  H 2.547598 0.175266 -1.970414
  C 4.592180 0.141713 -1.375712
  C 5.097127 0.210928 -2.602447
  H 6.156699 0.221923 -2.797264
  H 4.084809 0.861597 1.483462
  H 4.084811 -0.895239 1.384328
  H 1.825384 -0.972748 2.717040
  H 1.825377 0.788670 2.816432
  H 3.939742 -1.047305 4.032801
  H 2.663244 -0.213453 4.918500
  H 3.939737 0.714751 4.132225
  H 5.271592 0.094311 -0.535595
  H 4.482895 0.260901 -3.488101
 19
 21.896769
  H 1.617588 0.049874 0.251826
  C 2.691720 0.057505 0.116577
  C 3.492762 -0.012779 1.362198
  C 2.416106 -0.097209 2.858386
  C 3.257414 -0.167649 4.106820
  C 3.199368 0.126986 -1.114747
  H 2.550821 0.175782 -1.979527
  C 4.612214 0.144710 -1.428816
  C 5.088764 0.214563 -2.666847
  H 6.144175 0.226765 -2.883074
  H 4.127902 0.861803 1.463145
  H 4.127908 -0.893166 1.364116
  H 1.785417 -0.974709 2.777164
  H 1.785413 0.783852 2.876394
  H 3.892938 -1.050997 4.095934
  H 2.617371 -0.217255 4.985943
  H 3.892935 0.711321 4.195371
  H 5.307407 0.098018 -0.601304
  H 4.449359 0.263509 -3.534291
 19
 38.325491
  H 1.653758 0.050944 0.232837
  C 2.726622 0.059082 0.088626
  C 3.544354 -0.010622 1.323968
  C 2.364978 -0.101945 2.942327
  C 3.216423 -0.171921 4.182527
  C 3.219353 0.128965 -1.149827
  H 2.553349 0.177025 -2.001570
  C 4.626386 0.147836 -1.484223
  C 5.082670 0.218156 -2.730510
  H 6.134519 0.231211 -2.961859
  H 4.171788 0.868708 1.446829
  H 4.171795 -0.898190 1.347126
  H 1.740750 -0.983567 2.836721
  H 1.740740 0.785960 2.936570
  H 3.852334 -1.055214 4.169349
  H 2.579357 -0.221775 5.066033
  H 3.852327 0.707249 4.268793
  H 5.332413 0.101661 -0.665856
  H 4.425344 0.266323 -3.584171
 19
 54.746087
  H 1.689842 0.051564 0.221867
  C 2.760941 0.060359 0.066007
  C 3.592150 -0.008234 1.281656
  C 2.315034 -0.106652 3.025752
  C 3.175835 -0.175653 4.248673
  C 3.236973 0.130593 -1.178675
  H 2.554983 0.177948 -2.017911
  C 4.639042 0.150569 -1.532654
  C 5.076506 0.221232 -2.785020
  H 6.125088 0.235076 -3.030345
  H 4.208196 0.871633 1.423639
  H 4.208203 -0.898488 1.323754
  H 1.701119 -0.988274 2.899195
  H 1.701116 0.783604 2.999176
  H 3.811417 -1.058528 4.230502
  H 2.545820 -0.225838 5.138087
  H 3.811410 0.703663 4.329931
  H 5.355041 0.104879 -0.722903
  H 4.403599 0.268706 -3.626401
