 20
 0.000000
  C 1.007431 -0.072007 0.047239
  C 2.503566 -0.082548 0.026385
  C 3.219628 -0.594741 -0.980036
  C 4.657430 -0.605452 -1.001209
  C 5.377905 -1.120468 -2.012869
  C 6.816132 -1.130266 -2.032067
  C 7.534194 -1.642340 -3.036254
  C 9.023904 -1.662065 -3.074182
  H 0.644564 0.393833 0.962544
  H 0.612208 -1.087028 0.007850
  H 0.612131 0.493454 -0.796567
  H 3.003611 0.352743 0.881594
  H 2.708648 -1.028028 -1.831294
  H 5.162032 -0.170909 -0.147219
  H 4.873733 -1.555447 -2.866901
  H 7.322889 -0.695645 -1.179063
  H 7.035334 -2.079068 -3.892548
  H 9.457977 -1.208258 -2.184848
  H 9.383314 -1.116926 -3.948439
  H 9.382771 -2.689814 -3.145565
 20
 1.406861
  C 1.058494 -0.072925 0.148831
  C 2.547646 -0.109982 0.030126
  C 3.194968 -0.595002 -1.029425
  C 4.623732 -0.630072 -1.147713
  C 5.309625 -1.109061 -2.194129
  C 6.739148 -1.090913 -2.174586
  C 7.544136 -1.625658 -3.089710
  C 9.019262 -1.641480 -2.935646
  H 0.752223 0.364185 1.095638
  H 0.643221 -1.078663 0.083557
  H 0.623714 0.515939 -0.658890
  H 3.113816 0.284987 0.862920
  H 2.630721 -0.991633 -1.865375
  H 5.219619 -0.240467 -0.326481
  H 4.811711 -1.536596 -3.050949
  H 7.185978 -0.622766 -1.306473
  H 7.143158 -2.127780 -3.956854
  H 9.331550 -1.083228 -2.059899
  H 9.511677 -1.229729 -3.813401
  H 9.334086 -2.680984 -2.816336
 20
 3.632673
  C 1.105167 -0.115537 0.226686
  C 2.589930 -0.147138 0.041587
  C 3.191969 -0.574385 -1.072207
  C 4.608951 -0.604685 -1.252688
  C 5.265296 -1.032131 -2.345515
  C 6.700453 -1.014600 -2.313664
  C 7.548771 -1.627404 -3.135255
  C 8.995059 -1.660238 -2.819220
  H 0.840412 0.267729 1.205664
  H 0.685240 -1.113099 0.122404
  H 0.638923 0.514305 -0.527197
  H 3.191824 0.199430 0.866896
  H 2.594343 -0.923131 -1.901947
  H 5.247585 -0.271181 -0.451690
  H 4.755857 -1.435627 -3.209458
  H 7.124805 -0.492327 -1.461781
  H 7.211462 -2.201297 -3.981421
  H 9.234014 -0.948202 -2.036973
  H 9.619827 -1.467912 -3.687425
  H 9.202687 -2.660292 -2.425075
 20
 6.021327
  C 1.155437 -0.186785 0.267754
  C 2.637564 -0.194868 0.044998
  C 3.215054 -0.546824 -1.109038
  C 4.627763 -0.552823 -1.325179
  C 5.254182 -0.918819 -2.447248
  C 6.684379 -0.913018 -2.418675
  C 7.520868 -1.634694 -3.140467
  C 8.939823 -1.703643 -2.723941
  H 0.912073 0.133479 1.277983
  H 0.738425 -1.181580 0.111403
  H 0.665614 0.487026 -0.435087
  H 3.258595 0.105245 0.878654
  H 2.597667 -0.848822 -1.946217
  H 5.286741 -0.265950 -0.505560
  H 4.728458 -1.290897 -3.311368
  H 7.108394 -0.329489 -1.609691
  H 7.187013 -2.286697 -3.935027
  H 9.199944 -0.841547 -2.117364
  H 9.638140 -1.786096 -3.549802
  H 9.016330 -2.572669 -2.071479
 20
 7.661022
  C 1.199350 -0.310650 0.288572
  C 2.676212 -0.263152 0.048192
  C 3.244777 -0.497219 -1.137706
  C 4.658858 -0.452394 -1.371506
  C 5.266483 -0.722865 -2.528827
  C 6.702942 -0.728866 -2.523430
  C 7.471406 -1.646561 -3.079411
  C 8.877672 -1.793111 -2.631275
  H 0.962603 -0.085846 1.328658
  H 0.803173 -1.297894 0.049709
  H 0.684108 0.410189 -0.346628
  H 3.301535 -0.023714 0.897368
  H 2.622080 -0.738725 -1.993908
  H 5.317283 -0.225862 -0.530238
  H 4.726781 -1.050198 -3.402542
  H 7.162340 -0.037819 -1.829062
  H 7.062292 -2.408288 -3.730495
  H 9.313236 -0.827735 -2.373885
  H 9.509396 -2.291535 -3.358564
  H 8.826173 -2.381575 -1.710374
 20
 11.004693
  C 1.274786 -0.360789 0.336797
  C 2.732031 -0.325531 0.044727
  C 3.248736 -0.472883 -1.178604
  C 4.655052 -0.444626 -1.464578
  C 5.229037 -0.638435 -2.658457
  C 6.675208 -0.680191 -2.632074
  C 7.442988 -1.669801 -3.062775
  C 8.813052 -1.808549 -2.490883
  H 1.085328 -0.218903 1.395426
  H 0.843902 -1.321340 0.031890
  H 0.751441 0.426495 -0.219324
  H 3.398342 -0.171472 0.889658
  H 2.590902 -0.627013 -2.023704
  H 5.364373 -0.307856 -0.640319
  H 4.677874 -0.893821 -3.539248
  H 7.134453 0.053031 -1.972453
  H 7.052971 -2.476269 -3.665400
  H 9.285066 -0.839222 -2.364247
  H 9.469096 -2.453802 -3.078958
  H 8.669921 -2.234240 -1.487752
 20
 14.597068
  C 1.337625 -0.388580 0.373950
  C 2.798019 -0.384218 0.038268
  C 3.275977 -0.468207 -1.206712
  C 4.669711 -0.469038 -1.529431
  C 5.209546 -0.609541 -2.746013
  C 6.654723 -0.666037 -2.702323
  C 7.417208 -1.687214 -3.048360
  C 8.739723 -1.795328 -2.375354
  H 1.180412 -0.309190 1.451727
  H 0.867071 -1.304203 0.023774
  H 0.831626 0.442760 -0.109962
  H 3.486426 -0.310043 0.863093
  H 2.590250 -0.543603 -2.041888
  H 5.407289 -0.413139 -0.725501
  H 4.639780 -0.793839 -3.645383
  H 7.107569 0.092738 -2.073523
  H 7.048617 -2.527579 -3.622487
  H 9.253022 -0.834756 -2.358580
  H 9.395277 -2.542349 -2.805959
  H 8.496481 -2.055533 -1.337252
 20
 18.194814
  C 1.431259 -0.462890 0.400292
  C 2.877712 -0.454120 0.021369
  C 3.316141 -0.457206 -1.239180
  C 4.702864 -0.464291 -1.605538
  C 5.198008 -0.519007 -2.845548
  C 6.650343 -0.590828 -2.826962
  C 7.343592 -1.703243 -2.963969
  C 8.629915 -1.807437 -2.223988
  H 1.308749 -0.457404 1.480332
  H 0.936125 -1.346861 0.001170
  H 0.922599 0.407944 -0.009155
  H 3.594765 -0.449942 0.831108
  H 2.605129 -0.461538 -2.056693
  H 5.464509 -0.477402 -0.813598
  H 4.600400 -0.616654 -3.737632
  H 7.138274 0.249365 -2.342457
  H 6.924559 -2.593617 -3.407596
  H 9.242675 -0.918260 -2.351916
  H 9.213345 -2.686646 -2.477503
  H 8.311091 -1.852515 -1.169423
 20
 21.301197
  C 1.539299 -0.525740 0.424517
  C 2.973894 -0.554455 -0.006893
  C 3.370493 -0.468071 -1.276722
  C 4.747163 -0.505496 -1.692752
  C 5.192438 -0.442847 -2.951685
  C 6.656429 -0.529480 -2.989855
  C 7.252789 -1.698857 -2.846850
  C 8.500299 -1.795551 -2.045572
  H 1.451639 -0.628068 1.501642
  H 0.980432 -1.334361 -0.045432
  H 1.069322 0.411121 0.126898
  H 3.717119 -0.652464 0.773417
  H 2.634956 -0.370078 -2.065445
  H 5.525140 -0.603577 -0.924137
  H 4.556977 -0.424746 -3.819486
  H 7.195848 0.375249 -2.736633
  H 6.724256 -2.619170 -3.062603
  H 9.183636 -0.973329 -2.246991
  H 9.021809 -2.742240 -2.148551
  H 8.112372 -1.688094 -1.015948
 20
 24.595101
  C 1.661548 -0.574151 0.446279
  C 3.075312 -0.637377 -0.037385
  C 3.433050 -0.482792 -1.312400
  C 4.792902 -0.548576 -1.777599
  C 5.197726 -0.398811 -3.044187
  C 6.650406 -0.529659 -3.142265
  C 7.153643 -1.679083 -2.729052
  C 8.348155 -1.760571 -1.860440
  H 1.603345 -0.769702 1.509979
  H 1.045472 -1.303702 -0.074449
  H 1.233642 0.410735 0.252714
  H 3.840160 -0.820620 0.709176
  H 2.676345 -0.302690 -2.064827
  H 5.593581 -0.729907 -1.039611
  H 4.529491 -0.268570 -3.881199
  H 7.247659 0.368216 -3.135365
  H 6.523246 -2.560471 -2.725677
  H 9.051081 -0.955647 -2.037492
  H 8.860954 -2.720017 -1.878281
  H 7.858072 -1.609215 -0.876020
 20
 30.263716
  C 1.762756 -0.597069 0.479964
  C 3.157854 -0.687994 -0.047898
  C 3.482673 -0.510837 -1.330074
  C 4.825620 -0.604602 -1.836982
  C 5.202667 -0.405626 -3.109840
  C 6.644382 -0.578795 -3.242840
  C 7.107185 -1.693825 -2.683994
  C 8.204230 -1.711704 -1.693097
  H 1.727891 -0.829611 1.537703
  H 1.106804 -1.283675 -0.045376
  H 1.365212 0.413917 0.332796
  H 3.936575 -0.910376 0.667866
  H 2.709590 -0.287707 -2.054611
  H 5.647866 -0.815146 -1.123344
  H 4.523610 -0.134931 -3.908040
  H 7.266508 0.283499 -3.402230
  H 6.429433 -2.535006 -2.603232
  H 8.931923 -0.923428 -1.838761
  H 8.700765 -2.670897 -1.569224
  H 7.580483 -1.474349 -0.804159
 20
 38.170787
  C 1.833237 -0.589517 0.511710
  C 3.220041 -0.681834 -0.037161
  C 3.523441 -0.522088 -1.326934
  C 4.853391 -0.645276 -1.858979
  C 5.207251 -0.455695 -3.147297
  C 6.637800 -0.646248 -3.296292
  C 7.081200 -1.730952 -2.658519
  C 8.080292 -1.657528 -1.573861
  H 1.814421 -0.819077 1.571592
  H 1.169824 -1.277514 -0.002235
  H 1.433555 0.419067 0.368602
  H 4.008724 -0.897617 0.667019
  H 2.739344 -0.298168 -2.038642
  H 5.693785 -0.864941 -1.142812
  H 4.525678 -0.133020 -3.923900
  H 7.269998 0.191813 -3.534776
  H 6.398576 -2.566037 -2.564461
  H 8.804891 -0.860735 -1.702793
  H 8.578051 -2.591559 -1.320801
  H 7.338355 -1.357708 -0.770177
 20
 46.688836
  C 1.888768 -0.544173 0.548783
  C 3.265222 -0.667227 -0.022142
  C 3.545720 -0.552258 -1.322114
  C 4.864795 -0.704630 -1.871985
  C 5.199835 -0.550794 -3.169941
  C 6.630268 -0.714835 -3.321658
  C 7.098995 -1.771330 -2.642240
  C 7.975162 -1.589950 -1.466497
  H 1.886552 -0.749130 1.612389
  H 1.209171 -1.234989 0.062348
  H 1.496227 0.470359 0.389560
  H 4.066458 -0.864340 0.676225
  H 2.747549 -0.338525 -2.027288
  H 5.711573 -0.912542 -1.164177
  H 4.520360 -0.208340 -3.938983
  H 7.243891 0.136773 -3.571023
  H 6.442619 -2.631110 -2.555997
  H 8.676752 -0.766159 -1.562231
  H 8.472769 -2.481858 -1.097345
  H 7.121150 -1.270910 -0.780496
 20
 56.105371
  C 1.920153 -0.486304 0.578686
  C 3.289561 -0.633488 -0.003098
  C 3.553390 -0.578166 -1.311215
  C 4.864119 -0.745466 -1.870710
  C 5.189415 -0.635386 -3.179388
  C 6.621409 -0.787529 -3.328123
  C 7.108757 -1.804904 -2.590220
  C 7.903835 -1.519140 -1.378147
  H 1.930687 -0.648131 1.652107
  H 1.231550 -1.198897 0.125469
  H 1.528370 0.513120 0.385729
  H 4.100514 -0.795282 0.694237
  H 2.746137 -0.406164 -2.013022
  H 5.734765 -0.910983 -1.148151
  H 4.502138 -0.326488 -3.954002
  H 7.223445 0.067107 -3.609025
  H 6.463094 -2.671346 -2.474454
  H 8.592049 -0.684409 -1.482473
  H 8.386000 -2.366687 -0.904326
  H 6.964512 -1.165673 -0.789067
