13

C 1.04862 -0.110625 -0.038582
C 2.544411 -0.136755 -0.038082
C 3.258405 -1.267572 -0.045706
C 4.696509 -1.289951 -0.046235
C 5.417444 -2.42494 -0.052342
H 6.487340624046832 -2.439807917523044 -0.052740599699512405
H 0.689314 0.917862 -0.030728
H 0.651022 -0.611368 0.844192
H 0.652171 -0.59655 -0.930179
H 3.046034 0.822146 -0.031255
H 2.746201 -2.222091 -0.051477
H 5.200496 -0.331365 -0.041416
H 4.913957 -3.383736 -0.057168
