 13
 0.000000
  C 1.048840 -0.108292 -0.038495
  C 2.545230 -0.141604 -0.038235
  C 3.256167 -1.269387 -0.046035
  C 4.699193 -1.296586 -0.046700
  C 5.411316 -2.418962 -0.051933
  H 6.486431 -2.429945 -0.052413
  H 0.691060 0.919172 -0.029514
  H 0.650215 -0.611426 0.841220
  H 0.650991 -0.594419 -0.928314
  H 3.050762 0.814283 -0.031096
  H 2.743913 -2.222673 -0.051559
  H 5.203167 -0.338494 -0.042680
  H 4.914639 -3.376420 -0.055966
 13
 -0.291907
  C 1.047772 -0.102126 -0.038604
  C 2.541400 -0.126496 -0.000803
  C 3.258881 -1.247063 -0.056136
  C 4.702032 -1.297714 -0.022690
  C 5.403950 -2.424589 -0.087963
  H 6.478517 -2.430709 -0.062797
  H 0.677764 0.892726 -0.273766
  H 0.638780 -0.395624 0.929196
  H 0.674435 -0.802727 -0.784488
  H 3.042721 0.827982 0.090830
  H 2.751470 -2.200921 -0.138833
  H 5.210871 -0.344932 0.059174
  H 4.921513 -3.383835 -0.169356
 13
 -0.669461
  C 1.047842 -0.110267 -0.035416
  C 2.537010 -0.127780 0.064300
  C 3.261922 -1.237450 -0.062035
  C 4.704044 -1.296276 -0.011918
  C 5.401515 -2.421685 -0.127294
  H 6.477209 -2.434037 -0.093130
  H 0.707541 0.806310 -0.513693
  H 0.591952 -0.161310 0.953798
  H 0.705453 -0.960526 -0.622784
  H 3.024838 0.822034 0.239734
  H 2.759909 -2.186855 -0.206608
  H 5.216390 -0.351324 0.120486
  H 4.915437 -3.374392 -0.261061
 13
 -0.885672
  C 1.049609 -0.111294 -0.031774
  C 2.530280 -0.156161 0.121012
  C 3.251470 -1.261222 -0.056648
  C 4.694010 -1.303947 0.008677
  C 5.410001 -2.407176 -0.179503
  H 6.485452 -2.405070 -0.139343
  H 0.773517 0.658965 -0.752465
  H 0.559076 0.127620 0.911034
  H 0.695873 -1.070095 -0.400274
  H 3.017738 0.775158 0.378352
  H 2.754939 -2.202311 -0.256977
  H 5.190298 -0.362944 0.209657
  H 4.940356 -3.355529 -0.383400
 13
 2.675880
  C 1.061203 -0.127679 -0.042989
  C 2.524898 -0.130992 0.232732
  C 3.258223 -1.227525 0.001032
  C 4.701665 -1.290812 -0.010892
  C 5.386451 -2.402262 -0.243836
  H 6.461423 -2.410645 -0.301800
  H 0.871973 0.527632 -0.897414
  H 0.456989 0.221014 0.788406
  H 0.793467 -1.129677 -0.378077
  H 2.969924 0.774007 0.624355
  H 2.762289 -2.188652 -0.076200
  H 5.223371 -0.349379 0.106746
  H 4.892030 -3.350890 -0.376231
 13
 13.915446
  C 1.092151 -0.138691 -0.057257
  C 2.535535 -0.100434 0.315548
  C 3.250968 -1.213324 0.081613
  C 4.673915 -1.267785 -0.077781
  C 5.350469 -2.394600 -0.291781
  H 6.408425 -2.399004 -0.478814
  H 0.968406 0.407911 -0.999539
  H 0.396248 0.258484 0.670668
  H 0.946525 -1.166773 -0.388231
  H 2.931805 0.752077 0.843150
  H 2.776088 -2.179589 0.178978
  H 5.196051 -0.318141 -0.062383
  H 4.856074 -3.353215 -0.309796
 13
 32.822423
  C 1.132574 -0.171580 -0.067003
  C 2.527422 -0.064666 0.453896
  C 3.236409 -1.191470 0.196448
  C 4.641810 -1.253830 -0.070928
  C 5.276971 -2.385412 -0.395324
  H 6.326332 -2.402957 -0.637295
  H 1.103883 0.201008 -1.105830
  H 0.337223 0.325763 0.477520
  H 1.174927 -1.239251 -0.359309
  H 2.907461 0.807315 0.949075
  H 2.821929 -2.131724 0.529851
  H 5.157265 -0.305317 -0.154800
  H 4.768286 -3.336764 -0.392789
 13
 58.763279
  C 1.182617 -0.113153 -0.105078
  C 2.532400 0.000813 0.485355
  C 3.206268 -1.171123 0.198296
  C 4.589186 -1.260132 -0.167718
  C 5.252985 -2.400720 -0.354939
  H 6.267564 -2.425874 -0.725720
  H 1.079830 0.122959 -1.163991
  H 0.346754 0.236193 0.491994
  H 1.457322 -1.200059 -0.431496
  H 2.860901 0.791697 1.145362
  H 2.824644 -2.102022 0.601009
  H 5.088305 -0.312791 -0.330331
  H 4.767546 -3.357036 -0.223641
 13
 80.251232
  C 1.210442 -0.052041 -0.060377
  C 2.469503 -0.007662 0.550796
  C 3.130478 -1.213361 0.180962
  C 4.534687 -1.261551 -0.198426
  C 5.220494 -2.383987 -0.396338
  H 6.248178 -2.379978 -0.719120
  H 1.142870 0.056934 -1.134352
  H 0.337902 0.388040 0.424429
  H 1.803723 -1.360938 -0.482736
  H 2.849554 0.759493 1.207800
  H 2.793287 -2.128950 0.659198
  H 5.004481 -0.302694 -0.381767
  H 4.770593 -3.353320 -0.244187
 13
 64.752572
  C 1.187766 0.025542 -0.030362
  C 2.408599 0.011473 0.550503
  C 3.070310 -1.243116 0.136915
  C 4.497460 -1.273414 -0.242429
  C 5.204967 -2.383680 -0.411755
  H 6.247317 -2.359316 -0.693946
  H 1.115156 0.053322 -1.099692
  H 0.303117 0.487851 0.414978
  H 2.089026 -1.469601 -0.516742
  H 2.819383 0.742845 1.235003
  H 2.779823 -2.140982 0.697501
  H 4.952913 -0.304176 -0.395765
  H 4.770678 -3.358947 -0.282835
 13
 43.167821
  C 1.209201 0.123040 -0.036692
  C 2.354153 -0.070242 0.618540
  C 3.043767 -1.318194 0.150896
  C 4.472226 -1.284983 -0.242881
  C 5.236311 -2.351698 -0.397253
  H 6.224219 -2.291454 -0.805358
  H 1.173991 0.029137 -1.113616
  H 0.370308 0.714768 0.326202
  H 2.193713 -1.582320 -0.550919
  H 2.777399 0.583079 1.359178
  H 2.794002 -2.212129 0.736645
  H 4.866743 -0.296685 -0.472215
  H 4.874512 -3.336444 -0.180423
 13
 26.694779
  C 1.220754 0.188276 -0.040605
  C 2.337628 -0.142107 0.605703
  C 3.011057 -1.396196 0.124962
  C 4.435497 -1.295544 -0.273891
  C 5.241656 -2.328808 -0.431406
  H 6.276426 -2.209126 -0.695603
  H 1.104938 0.041691 -1.109633
  H 0.470838 0.872562 0.366446
  H 2.284861 -1.650482 -0.673384
  H 2.782787 0.451538 1.391283
  H 2.807294 -2.248008 0.789879
  H 4.779897 -0.304919 -0.498004
  H 4.927332 -3.331276 -0.189080
 13
 15.280353
  C 1.204235 0.236102 0.005947
  C 2.335097 -0.176426 0.565963
  C 2.993607 -1.402728 0.014132
  C 4.436509 -1.305384 -0.336441
  C 5.271850 -2.324498 -0.340387
  H 6.320802 -2.202724 -0.553344
  H 0.941826 -0.037578 -1.005867
  H 0.550812 0.995984 0.416151
  H 2.334660 -1.693520 -0.820815
  H 2.841640 0.374485 1.350373
  H 2.817077 -2.245816 0.696686
  H 4.790617 -0.311450 -0.570414
  H 4.950594 -3.319954 -0.084861
 13
 8.454383
  C 1.220707 0.298794 -0.009586
  C 2.321039 -0.209276 0.514339
  C 2.957955 -1.455552 -0.015186
  C 4.414936 -1.308912 -0.327471
  C 5.286005 -2.298092 -0.294796
  H 6.322702 -2.154808 -0.547052
  H 0.820160 -0.061418 -0.943594
  H 0.706317 1.138285 0.428156
  H 2.390785 -1.749965 -0.904479
  H 2.811077 0.262039 1.355589
  H 2.811842 -2.262449 0.711590
  H 4.728800 -0.313416 -0.614119
  H 4.997000 -3.298737 -0.016266
 13
 7.064715
  C 1.328061 0.375463 -0.051390
  C 2.293610 -0.285208 0.558192
  C 2.908793 -1.534591 0.007663
  C 4.337913 -1.324346 -0.398521
  C 5.288354 -2.228513 -0.273433
  H 6.298583 -2.043064 -0.595965
  H 0.934515 0.040380 -0.997859
  H 0.880139 1.260661 0.366692
  H 2.323777 -1.846157 -0.862931
  H 2.689758 0.058043 1.504694
  H 2.854496 -2.332008 0.753673
  H 4.555005 -0.356668 -0.832043
  H 5.096320 -3.197499 0.158355
