 16
 0.000000
  C 0.989384 0.138953 0.397290
  C 2.437524 0.086417 0.267815
  H 3.044183 0.420140 1.097862
  C 3.069231 -0.369721 -0.867223
  C 4.466615 -0.413339 -0.978931
  C 5.164999 -0.855805 -2.082414
  C 4.615793 -1.357014 -3.331515
  H 3.534367 -1.374192 -3.375033
  H 6.245236 -0.831189 -2.021870
  H 0.668418 0.524545 1.356827
  H 0.559362 -0.852925 0.234312
  H 0.560397 0.743236 -0.406584
  H 2.462094 -0.703652 -1.696353
  H 5.041025 -0.070752 -0.127255
  H 5.014076 -2.359505 -3.521095
  H 5.014421 -0.763907 -4.161454
 16
 4.751988
  C 0.992838 0.157121 0.442251
  C 2.450233 0.090846 0.278910
  H 3.077748 0.421564 1.101305
  C 3.058021 -0.375993 -0.882239
  C 4.435144 -0.438874 -1.042236
  C 5.188813 -0.862761 -2.099846
  C 4.670250 -1.372300 -3.369683
  H 3.586874 -1.395728 -3.428046
  H 6.266770 -0.819201 -1.992686
  H 0.695983 0.546238 1.410506
  H 0.548797 -0.831752 0.287704
  H 0.549875 0.765141 -0.353518
  H 2.407152 -0.700317 -1.687005
  H 4.792778 -0.064634 -0.111491
  H 5.079688 -2.372317 -3.553010
  H 5.079690 -0.776307 -4.193330
 16
 14.990040
  C 1.019376 0.165987 0.464599
  C 2.459900 0.090263 0.276436
  H 3.095337 0.418923 1.093882
  C 3.032712 -0.377065 -0.886381
  C 4.404303 -0.454224 -1.080488
  C 5.197652 -0.867736 -2.112271
  C 4.710560 -1.378418 -3.384437
  H 3.628625 -1.407799 -3.456547
  H 6.270777 -0.812314 -1.975933
  H 0.744526 0.557404 1.439767
  H 0.566474 -0.818949 0.319058
  H 0.567005 0.777577 -0.321419
  H 2.335465 -0.687434 -1.658062
  H 4.577076 -0.067650 -0.117170
  H 5.128549 -2.372850 -3.559904
  H 5.128010 -0.780868 -4.198744
 16
 28.992169
  C 1.026801 0.173874 0.484862
  C 2.465693 0.095883 0.290334
  H 3.097514 0.424503 1.108839
  C 3.027957 -0.372526 -0.876910
  C 4.402875 -0.463571 -1.105201
  C 5.212392 -0.871896 -2.123121
  C 4.736833 -1.384125 -3.398144
  H 3.656317 -1.414860 -3.474197
  H 6.283208 -0.811757 -1.974288
  H 0.759464 0.563478 1.457328
  H 0.571693 -0.808888 0.342161
  H 0.572160 0.786814 -0.296779
  H 2.294894 -0.677876 -1.636425
  H 4.421202 -0.071237 -0.127621
  H 5.158733 -2.379857 -3.571279
  H 5.158608 -0.784950 -4.212028
 16
 44.138294
  C 1.022690 0.177442 0.493978
  C 2.473395 0.100751 0.302055
  H 3.099840 0.433195 1.129543
  C 3.033849 -0.366508 -0.862084
  C 4.421911 -0.467595 -1.115064
  C 5.229241 -0.876122 -2.133399
  C 4.748917 -1.386414 -3.403936
  H 3.671515 -1.414323 -3.473404
  H 6.300956 -0.817927 -1.989008
  H 0.750687 0.569846 1.473430
  H 0.567482 -0.808466 0.351001
  H 0.567648 0.792220 -0.290061
  H 2.285952 -0.665282 -1.605635
  H 4.309140 -0.078460 -0.145157
  H 5.166505 -2.379588 -3.578480
  H 5.166692 -0.790170 -4.217073
 16
 57.713974
  C 1.012753 0.178295 0.495979
  C 2.470378 0.112772 0.330222
  H 3.067366 0.453482 1.170890
  C 3.049422 -0.351479 -0.819335
  C 4.446500 -0.473570 -1.128072
  C 5.235305 -0.879168 -2.137781
  C 4.755802 -1.393201 -3.424865
  H 3.673914 -1.417153 -3.490011
  H 6.309746 -0.828413 -2.006690
  H 0.727703 0.570930 1.469336
  H 0.567595 -0.810672 0.359119
  H 0.566351 0.794748 -0.288698
  H 2.307614 -0.657569 -1.575350
  H 4.250154 -0.077448 -0.142232
  H 5.164722 -2.389468 -3.591841
  H 5.167790 -0.789231 -4.233094
 16
 63.491467
  C 0.981058 0.176721 0.493011
  C 2.470108 0.134328 0.368411
  H 3.006833 0.500542 1.223680
  C 3.080109 -0.328398 -0.731023
  C 4.474069 -0.488846 -1.160208
  C 5.220167 -0.887988 -2.138230
  C 4.765212 -1.397826 -3.469025
  H 3.674339 -1.400757 -3.534715
  H 6.301872 -0.865377 -2.026007
  H 0.679998 0.576963 1.440771
  H 0.555313 -0.822708 0.385170
  H 0.543331 0.786689 -0.299137
  H 2.374354 -0.665297 -1.501828
  H 4.261796 -0.075959 -0.149262
  H 5.148970 -2.400646 -3.612386
  H 5.180197 -0.779294 -4.254097
 16
 68.027990
  C 0.970517 0.179262 0.499848
  C 2.450060 0.151715 0.399180
  H 2.982359 0.536417 1.267403
  C 3.080388 -0.317772 -0.688192
  C 4.479760 -0.494815 -1.168429
  C 5.223015 -0.897909 -2.150106
  C 4.765683 -1.397414 -3.484819
  H 3.686160 -1.392348 -3.559226
  H 6.298086 -0.885378 -2.038042
  H 0.648360 0.592415 1.449948
  H 0.560822 -0.824321 0.396886
  H 0.542873 0.774910 -0.304572
  H 2.400546 -0.681064 -1.479330
  H 4.221132 -0.082289 -0.162591
  H 5.147267 -2.411187 -3.632171
  H 5.195466 -0.770474 -4.270013
 16
 72.422636
  C 0.957663 0.180200 0.500969
  C 2.442511 0.166283 0.412518
  H 2.970831 0.572324 1.276899
  C 3.084442 -0.316781 -0.659312
  C 4.497888 -0.502304 -1.169973
  C 5.230294 -0.908989 -2.157564
  C 4.759455 -1.387036 -3.488725
  H 3.681042 -1.364124 -3.557511
  H 6.326051 -0.912456 -2.047184
  H 0.632427 0.603419 1.429041
  H 0.554887 -0.835654 0.420922
  H 0.525882 0.763327 -0.318599
  H 2.426031 -0.706581 -1.451925
  H 4.187921 -0.093193 -0.169329
  H 5.119498 -2.402090 -3.645621
  H 5.189591 -0.761267 -4.266032
 16
 76.500175
  C 0.951633 0.175886 0.489070
  C 2.438149 0.180959 0.419563
  H 2.952123 0.615297 1.278281
  C 3.100470 -0.321289 -0.634179
  C 4.529898 -0.505602 -1.150986
  C 5.240889 -0.917769 -2.151890
  C 4.746697 -1.373534 -3.493463
  H 3.652096 -1.328005 -3.556502
  H 6.304086 -0.942206 -2.053494
  H 0.603721 0.623927 1.412621
  H 0.567094 -0.841323 0.431410
  H 0.525977 0.727031 -0.344547
  H 2.467268 -0.739851 -1.420015
  H 4.162218 -0.102390 -0.157735
  H 5.085770 -2.394925 -3.664681
  H 5.183791 -0.746584 -4.267628
 16
 79.916015
  C 0.949144 0.169311 0.469710
  C 2.435168 0.196039 0.419880
  H 2.928658 0.665582 1.266511
  C 3.118552 -0.330973 -0.608770
  C 4.569677 -0.510527 -1.127472
  C 5.244800 -0.929278 -2.148700
  C 4.711195 -1.349128 -3.483940
  H 3.631778 -1.272912 -3.524324
  H 6.325115 -0.985216 -2.073835
  H 0.582717 0.642507 1.370742
  H 0.580447 -0.859008 0.442430
  H 0.523806 0.686856 -0.393306
  H 2.501765 -0.791046 -1.389088
  H 4.144374 -0.111124 -0.135878
  H 5.017509 -2.373889 -3.675521
  H 5.149985 -0.723676 -4.256073
 16
 82.430678
  C 0.946196 0.156014 0.449484
  C 2.425014 0.234669 0.403995
  H 2.892533 0.802473 1.201714
  C 3.135546 -0.368800 -0.572377
  C 4.615213 -0.558430 -1.088419
  C 5.251469 -0.974348 -2.133564
  C 4.678657 -1.290212 -3.490600
  H 3.605757 -1.132339 -3.521566
  H 6.327239 -1.113353 -2.069384
  H 0.553315 0.705911 1.305834
  H 0.615881 -0.891298 0.522095
  H 0.505171 0.572291 -0.469462
  H 2.540323 -0.931664 -1.299953
  H 4.133953 -0.089359 -0.117869
  H 4.908300 -2.323137 -3.732845
  H 5.158395 -0.661683 -4.233772
 16
 85.668854
  C 0.932231 0.156283 0.434684
  C 2.421258 0.241261 0.404927
  H 2.881856 0.814741 1.207691
  C 3.142176 -0.359342 -0.554673
  C 4.618519 -0.552230 -1.089267
  C 5.239894 -0.972946 -2.144145
  C 4.657594 -1.284452 -3.483756
  H 3.585638 -1.126183 -3.502815
  H 6.314762 -1.108734 -2.095434
  H 0.529672 0.703276 1.272707
  H 0.609355 -0.872949 0.508395
  H 0.506567 0.555562 -0.473982
  H 2.565421 -0.925845 -1.289215
  H 4.110331 -0.118060 -0.103827
  H 4.886801 -2.321062 -3.729439
  H 5.132081 -0.651772 -4.233027
 16
 88.048252
  C 0.924207 0.155808 0.425910
  C 2.402852 0.266052 0.401512
  H 2.851546 0.880219 1.171024
  C 3.144334 -0.370384 -0.527514
  C 4.632369 -0.571849 -1.083107
  C 5.235428 -0.988945 -2.144469
  C 4.635723 -1.259158 -3.496076
  H 3.568561 -1.076874 -3.508041
  H 6.309576 -1.142821 -2.098445
  H 0.503303 0.741217 1.239011
  H 0.616008 -0.884578 0.550358
  H 0.494895 0.504812 -0.515941
  H 2.592754 -0.981814 -1.244030
  H 4.093119 -0.146901 -0.074354
  H 4.838132 -2.292658 -3.763489
  H 5.118875 -0.624036 -4.234033
