9

C -3.511922 0.981264 -0.128315
C -2.067256 0.589094 -0.028933
C -1.648132 -0.472032 0.639442
H -1.2461288156621955 -0.6053347294664778 0.684564419994721
H -4.111668 0.156102 -0.514948
H -3.638651 1.84294 -0.779093
H -3.905924 1.236009 0.857157
H -1.365257 1.230803 -0.5397
H -2.37923 -1.098299 1.140795
