 17
 0.000000
  C 1.009075 -0.071376 0.047938
  C 2.505234 -0.083411 0.024311
  C 3.219414 -0.596226 -0.982431
  C 4.656692 -0.606695 -1.002983
  C 5.376931 -1.122224 -2.015050
  C 6.814968 -1.131432 -2.033124
  C 7.530533 -1.641881 -3.035228
  H 8.602666 -1.653967 -3.058950
  H 0.649096 0.395250 0.963999
  H 0.612720 -1.085527 0.010570
  H 0.612720 0.494677 -0.794371
  H 3.006441 0.351639 0.878390
  H 2.709027 -1.029691 -1.833387
  H 5.160997 -0.171940 -0.149490
  H 4.873409 -1.557079 -2.868745
  H 7.321295 -0.697029 -1.180316
  H 7.034638 -2.077954 -3.891296
 17
 2.264095
  C 1.028249 -0.046387 0.026449
  C 2.519902 0.046519 -0.012533
  C 3.241737 -0.688293 -0.862142
  C 4.675981 -0.761714 -0.902529
  C 5.384258 -1.099631 -1.992397
  C 6.819488 -1.193530 -2.015669
  C 7.523096 -1.538502 -3.091963
  H 8.597198 -1.602659 -3.076424
  H 0.604193 0.681360 0.706411
  H 0.728683 -1.041559 0.354991
  H 0.597652 0.116963 -0.961422
  H 2.998138 0.667361 0.732598
  H 2.675960 -1.162288 -1.654383
  H 5.192759 -0.539756 0.023339
  H 4.868141 -1.319210 -2.918597
  H 7.328404 -0.968752 -1.086497
  H 7.042372 -1.765772 -4.029508
 17
 6.268788
  C 1.046327 0.016598 -0.005425
  C 2.539513 0.034690 -0.065115
  C 3.228590 -0.873145 -0.764119
  C 4.667410 -0.913146 -0.831207
  C 5.364436 -1.160106 -1.951127
  C 6.802849 -1.189671 -2.003901
  C 7.496681 -1.426284 -3.115520
  H 8.571098 -1.452741 -3.125697
  H 0.664481 0.883293 0.517418
  H 0.710607 -0.876708 0.504668
  H 0.610990 0.006470 -1.008230
  H 3.044898 0.714699 0.598634
  H 2.692096 -1.304970 -1.594384
  H 5.200677 -0.774611 0.098651
  H 4.846688 -1.292351 -2.893976
  H 7.318930 -1.040769 -1.066012
  H 7.004139 -1.577125 -4.063968
 17
 21.119516
  C 1.042090 -0.052836 0.017549
  C 2.531975 0.038037 -0.089114
  C 3.239591 -0.910234 -0.731884
  C 4.675052 -0.892833 -0.822023
  C 5.378449 -1.009583 -1.961204
  C 6.799415 -1.255886 -1.997274
  C 7.488750 -1.455873 -3.116115
  H 8.550415 -1.636031 -3.109776
  H 0.609968 0.905158 0.291942
  H 0.779408 -0.774365 0.775440
  H 0.584556 -0.369435 -0.912868
  H 2.997166 0.814776 0.485557
  H 2.703079 -1.059367 -1.666360
  H 5.210511 -0.898171 0.117465
  H 4.865752 -1.038545 -2.918701
  H 7.315953 -1.233284 -1.042351
  H 7.013033 -1.418793 -4.085799
 17
 51.977889
  C 1.107332 0.022044 0.034161
  C 2.562932 0.041224 -0.269609
  C 3.191652 -1.119503 -0.673722
  C 4.630487 -1.184620 -0.780675
  C 5.335227 -1.205600 -1.924648
  C 6.775345 -1.248878 -1.974352
  C 7.484990 -1.253055 -3.102613
  H 8.555804 -1.261333 -3.099590
  H 0.735019 1.021541 0.180063
  H 0.936481 -0.575461 0.929553
  H 0.536737 -0.446806 -0.763492
  H 3.105061 0.922655 0.086903
  H 2.624593 -0.924947 -1.615436
  H 5.155233 -1.231851 0.167551
  H 4.821508 -1.124229 -2.868703
  H 7.284323 -1.287713 -1.018707
  H 7.009990 -1.274646 -4.065587
 17
 74.483836
  C 1.066716 -0.047729 0.063723
  C 2.517392 0.014691 -0.335571
  C 3.269648 -1.132304 -0.583588
  C 4.683427 -1.160128 -0.749470
  C 5.375955 -1.110345 -1.903259
  C 6.792045 -1.329580 -1.990648
  C 7.496080 -1.269851 -3.120537
  H 8.559392 -1.434246 -3.140511
  H 0.612961 0.940533 0.069247
  H 0.999033 -0.458308 1.070420
  H 0.491288 -0.698283 -0.589774
  H 2.972539 1.002236 -0.177830
  H 2.617979 -0.572698 -1.494085
  H 5.208390 -1.399605 0.169220
  H 4.857527 -0.898438 -2.832054
  H 7.297152 -1.545371 -1.056027
  H 7.026264 -1.055761 -4.066778
 17
 69.933526
  C 1.064890 -0.134853 0.147526
  C 2.454976 0.060731 -0.446958
  C 3.283257 -1.062652 -0.661532
  C 4.664321 -1.160351 -0.853862
  C 5.412162 -1.064061 -1.970246
  C 6.798562 -1.407685 -2.022239
  C 7.559219 -1.312973 -3.113356
  H 8.603701 -1.569790 -3.104556
  H 0.508337 0.802235 0.213199
  H 1.164044 -0.527110 1.159000
  H 0.487292 -0.854941 -0.425840
  H 2.860129 1.066377 -0.283224
  H 2.361552 -0.123609 -1.578369
  H 5.126079 -1.542836 0.055114
  H 4.952074 -0.727453 -2.889205
  H 7.238707 -1.753167 -1.093228
  H 7.156828 -0.972633 -4.052200
 17
 65.417088
  C 1.101743 -0.208269 0.199042
  C 2.374992 0.140670 -0.578352
  C 3.326049 -0.922678 -0.707636
  C 4.666456 -1.078776 -0.865151
  C 5.459766 -0.977380 -1.972553
  C 6.802968 -1.452083 -2.017476
  C 7.590038 -1.393732 -3.097321
  H 8.612177 -1.728054 -3.075462
  H 0.463497 0.663744 0.323930
  H 1.363617 -0.582792 1.186071
  H 0.537502 -0.982162 -0.313966
  H 2.735366 1.158266 -0.372078
  H 2.111015 0.141840 -1.658981
  H 5.092057 -1.574376 0.007884
  H 5.034696 -0.584304 -2.885815
  H 7.199328 -1.859299 -1.094047
  H 7.231631 -0.999789 -4.033867
 17
 60.861062
  C 1.152849 -0.161751 0.084990
  C 2.459851 -0.002457 -0.697455
  C 3.385807 -1.106621 -0.485049
  C 4.737530 -1.174106 -0.590574
  C 5.429285 -0.943109 -1.764707
  C 6.742951 -1.428905 -2.001551
  C 7.402969 -1.272109 -3.157668
  H 8.424321 -1.588166 -3.276617
  H 0.540600 0.730166 -0.011375
  H 1.366272 -0.320485 1.139561
  H 0.589923 -1.015882 -0.280534
  H 2.890160 0.996119 -0.549999
  H 2.224913 -0.075968 -1.769351
  H 5.253070 -1.730877 0.187507
  H 4.906242 -0.487482 -2.595039
  H 7.237883 -1.912039 -1.167950
  H 6.939193 -0.804394 -4.010265
 17
 60.468536
  C 1.159857 -0.320753 -0.118749
  C 2.547034 0.061072 -0.649818
  C 3.599318 -0.825300 -0.157575
  C 4.934484 -0.906174 -0.326294
  C 5.478785 -0.788400 -1.614514
  C 6.668988 -1.442374 -2.000955
  C 7.154927 -1.429889 -3.245652
  H 8.121423 -1.837354 -3.481334
  H 0.426087 0.443011 -0.368749
  H 1.189921 -0.427598 0.962810
  H 0.836167 -1.266994 -0.544494
  H 2.757942 1.115024 -0.432404
  H 2.550895 -0.015954 -1.726451
  H 5.540828 -1.399736 0.425029
  H 4.865934 -0.361630 -2.396374
  H 7.244090 -1.913920 -1.213847
  H 6.607137 -0.981097 -4.056704
 17
 59.410188
  C 1.166048 -0.341172 -0.207416
  C 2.593864 0.093094 -0.533535
  C 3.612086 -0.847386 -0.070657
  C 4.941000 -0.871093 -0.323725
  C 5.417750 -0.853342 -1.629761
  C 6.661956 -1.418739 -2.007578
  C 7.107112 -1.467280 -3.273034
  H 8.093133 -1.823043 -3.515297
  H 0.450614 0.406961 -0.544680
  H 1.048901 -0.472687 0.866373
  H 0.937721 -1.286076 -0.692870
  H 2.794233 1.082345 -0.101606
  H 2.705449 0.218980 -1.619349
  H 5.603324 -1.276484 0.434326
  H 4.754476 -0.538027 -2.423978
  H 7.296930 -1.775958 -1.207340
  H 6.499223 -1.128156 -4.095948
