 15
 0.000000
  H 1.365720 0.171210 0.478317
  C 2.444491 0.143805 0.409647
  C 3.258345 0.598786 1.540753
  C 2.509808 1.085865 2.752802
  C 3.405398 1.541546 3.886370
  C 2.989760 -0.319163 -0.741993
  H 4.051919 -0.384189 -0.904291
  H 3.945043 1.383424 1.182971
  H 3.945262 -0.214994 1.825371
  H 1.848350 0.291939 3.122442
  H 1.848066 1.914660 2.470357
  H 4.049635 0.736169 4.234978
  H 2.808839 1.880012 4.729130
  H 4.049325 2.364456 3.580599
  H 2.334361 -0.637378 -1.533234
 15
 5.558075
  H 1.410749 0.178562 0.496267
  C 2.480995 0.135937 0.389878
  C 3.279128 0.595861 1.532987
  C 2.522488 1.077932 2.732815
  C 3.382223 1.541482 3.886330
  C 3.029740 -0.319000 -0.741160
  H 4.056568 -0.419876 -0.991933
  H 3.982859 1.367567 1.180151
  H 3.983098 -0.205194 1.812076
  H 1.843680 0.286737 3.084526
  H 1.843307 1.892271 2.439582
  H 4.031205 0.745430 4.249846
  H 2.762492 1.873819 4.714456
  H 4.030724 2.368280 3.598139
  H 2.212061 -0.563751 -1.349926
 15
 16.080773
  H 1.426042 0.172736 0.481382
  C 2.508208 0.126868 0.367209
  C 3.291061 0.594841 1.529661
  C 2.522298 1.076348 2.728453
  C 3.366803 1.543803 3.892457
  C 3.059618 -0.328639 -0.764170
  H 4.068856 -0.456594 -1.081569
  H 4.011459 1.364052 1.186195
  H 4.012058 -0.197698 1.813602
  H 1.837509 0.289690 3.070163
  H 1.837073 1.880707 2.431403
  H 4.015139 0.750470 4.261308
  H 2.737094 1.873089 4.713907
  H 4.014276 2.372560 3.610548
  H 2.126283 -0.503132 -1.198843
 15
 29.497696
  H 1.452026 0.172152 0.480499
  C 2.519271 0.121296 0.353061
  C 3.293210 0.593602 1.525860
  C 2.516946 1.073829 2.722015
  C 3.359045 1.544095 3.893361
  C 3.085551 -0.336386 -0.782735
  H 4.078075 -0.480330 -1.138612
  H 4.011877 1.358608 1.189455
  H 4.012568 -0.191127 1.811268
  H 1.828067 0.280332 3.063028
  H 1.827767 1.882770 2.420180
  H 4.006110 0.751236 4.264803
  H 2.724939 1.872445 4.712936
  H 4.005104 2.374592 3.613994
  H 2.084948 -0.451346 -1.070719
 15
 41.528000
  H 1.460044 0.190428 0.528534
  C 2.535001 0.113326 0.332763
  C 3.331538 0.605102 1.552928
  C 2.486250 1.067904 2.707616
  C 3.350400 1.531718 3.862404
  C 3.108639 -0.327347 -0.759342
  H 4.064457 -0.499592 -1.184053
  H 4.027278 1.391158 1.227989
  H 4.027573 -0.188437 1.858711
  H 1.811324 0.272556 3.041130
  H 1.811687 1.874039 2.400316
  H 3.992231 0.733153 4.222634
  H 2.716451 1.859185 4.679993
  H 3.991133 2.359050 3.571693
  H 2.056274 -0.406084 -0.958899
 15
 46.731494
  H 1.482007 0.204301 0.561790
  C 2.538928 0.105947 0.314652
  C 3.336396 0.610424 1.567558
  C 2.445543 1.068088 2.708439
  C 3.352840 1.527228 3.851228
  C 3.151579 -0.323744 -0.751108
  H 4.078787 -0.520085 -1.237651
  H 3.999893 1.406656 1.237890
  H 4.000189 -0.193065 1.878884
  H 1.794718 0.263013 3.052847
  H 1.794725 1.888218 2.401024
  H 3.985888 0.717727 4.200660
  H 2.730663 1.858808 4.678136
  H 3.984561 2.354395 3.544025
  H 2.047740 -0.379392 -0.892826
 15
 51.691706
  H 1.492406 0.221123 0.601829
  C 2.547089 0.104486 0.311308
  C 3.350429 0.611813 1.571609
  C 2.450462 1.064467 2.699711
  C 3.336793 1.526994 3.850265
  C 3.169050 -0.322766 -0.748191
  H 4.052968 -0.542897 -1.293284
  H 3.992733 1.424802 1.233750
  H 3.993241 -0.208641 1.890262
  H 1.806972 0.242221 3.047228
  H 1.806295 1.898179 2.382645
  H 3.961232 0.731758 4.201756
  H 2.711408 1.855928 4.671386
  H 3.959515 2.345462 3.554039
  H 2.041274 -0.350434 -0.823875
 15
 55.646098
  H 1.492175 0.222663 0.602524
  C 2.546810 0.104898 0.310798
  C 3.348637 0.611877 1.572193
  C 2.444925 1.063475 2.697391
  C 3.325418 1.529832 3.857492
  C 3.178243 -0.325736 -0.756616
  H 4.044689 -0.554450 -1.323327
  H 3.982145 1.427994 1.231138
  H 3.982800 -0.212927 1.890550
  H 1.811720 0.243805 3.041074
  H 1.810982 1.892633 2.378945
  H 3.958021 0.725936 4.217166
  H 2.692005 1.860799 4.683344
  H 3.956458 2.360065 3.561195
  H 2.032211 -0.332398 -0.773914
 15
 59.465351
  H 1.493055 0.224243 0.604139
  C 2.544587 0.103520 0.307016
  C 3.345529 0.611477 1.570916
  C 2.439959 1.064344 2.699692
  C 3.315341 1.531903 3.863007
  C 3.182305 -0.327664 -0.761367
  H 4.039291 -0.562007 -1.341540
  H 3.981227 1.430480 1.230364
  H 3.981868 -0.214741 1.891502
  H 1.807892 0.245539 3.042214
  H 1.807020 1.891999 2.381105
  H 3.949355 0.727006 4.225235
  H 2.682896 1.861364 4.685420
  H 3.947928 2.364900 3.567938
  H 2.020898 -0.316173 -0.731283
 15
 62.827126
  H 1.488655 0.230182 0.617556
  C 2.547093 0.103318 0.306745
  C 3.343543 0.612083 1.572465
  C 2.437249 1.064050 2.699308
  C 3.305923 1.532454 3.863974
  C 3.188836 -0.326912 -0.759692
  H 4.031120 -0.567772 -1.355101
  H 3.976470 1.427673 1.235861
  H 3.978902 -0.210054 1.894320
  H 1.802964 0.242124 3.041619
  H 1.801381 1.893826 2.378247
  H 3.940925 0.727808 4.228277
  H 2.675117 1.859872 4.681523
  H 3.938918 2.366658 3.570419
  H 2.011820 -0.299153 -0.691113
 15
 65.735294
  H 1.485177 0.235166 0.628490
  C 2.545070 0.103550 0.304897
  C 3.339885 0.612728 1.573138
  C 2.433489 1.063523 2.697635
  C 3.298103 1.533095 3.867040
  C 3.189860 -0.326901 -0.758961
  H 4.030566 -0.568410 -1.354363
  H 3.975632 1.432008 1.238073
  H 3.972132 -0.206020 1.895339
  H 1.798595 0.240254 3.037874
  H 1.799124 1.891964 2.375215
  H 3.932858 0.729048 4.232997
  H 2.666986 1.859047 4.680946
  H 3.931503 2.367726 3.575837
  H 1.992511 -0.288597 -0.654542
 15
 67.961789
  H 1.386104 0.228003 0.571166
  C 2.457684 0.121419 0.307983
  C 3.295771 0.608105 1.558529
  C 2.420585 1.073089 2.710015
  C 3.320256 1.527149 3.861736
  C 3.214513 -0.301424 -0.720331
  H 4.126141 -0.497484 -1.225455
  H 3.940216 1.423781 1.206482
  H 3.923465 -0.217126 1.865720
  H 1.781598 0.260837 3.064414
  H 1.794212 1.909387 2.404451
  H 3.949747 0.713087 4.210603
  H 2.710120 1.864561 4.696722
  H 3.960608 2.350948 3.556732
  H 2.028542 -0.361144 -0.665729
 15
 65.260552
  H 1.400656 0.226496 0.589308
  C 2.468159 0.105627 0.323547
  C 3.314210 0.609041 1.576160
  C 2.421879 1.066626 2.723679
  C 3.310923 1.527439 3.864623
  C 3.194769 -0.300575 -0.726243
  H 4.126076 -0.478210 -1.213850
  H 3.947284 1.423872 1.226758
  H 3.951801 -0.219902 1.890273
  H 1.794315 0.248449 3.073582
  H 1.783494 1.903964 2.408959
  H 3.948355 0.716246 4.217780
  H 2.688038 1.861583 4.701580
  H 3.942770 2.358644 3.557306
  H 1.976254 -0.341107 -0.754675
 15
 63.285672
  H 1.467535 0.262450 0.627411
  C 2.520099 0.114924 0.315228
  C 3.327214 0.614034 1.582221
  C 2.418930 1.064595 2.711678
  C 3.288779 1.528494 3.871410
  C 3.166801 -0.311207 -0.759160
  H 4.061184 -0.512084 -1.291734
  H 3.958684 1.433024 1.243042
  H 3.962478 -0.212911 1.902453
  H 1.787232 0.242915 3.053330
  H 1.785178 1.896377 2.393290
  H 3.919394 0.725086 4.231101
  H 2.655391 1.856586 4.694453
  H 3.925328 2.365794 3.575662
  H 1.972681 -0.337748 -0.655657
