 32
 0.000000
  C 0.966881 0.140951 0.402175
  C 2.445261 0.138532 0.395784
  C 3.234973 0.607589 1.562934
  C 2.461488 1.098287 2.784371
  C 3.414253 1.542424 3.889631
  C 3.056527 -0.326240 -0.761266
  C 4.434557 -0.412807 -0.977341
  C 5.116634 -0.862171 -2.097644
  C 4.626711 -1.386353 -3.404443
  C 3.136043 -1.505154 -3.701248
  C 2.912140 -2.067102 -5.102315
  O 6.441363 -0.854110 -2.077903
  H 0.534203 0.511600 1.324625
  H 0.594015 -0.871193 0.237377
  H 0.593750 0.757524 -0.417125
  H 3.890881 1.419250 1.227711
  H 3.891049 -0.210235 1.882449
  H 1.823595 0.301943 3.173218
  H 1.823488 1.942218 2.514202
  H 4.050290 0.720083 4.211390
  H 2.851219 1.889353 4.753283
  H 4.050158 2.358871 3.552941
  H 2.395882 -0.642369 -1.548407
  H 5.050449 -0.080233 -0.149165
  H 5.083529 -2.374996 -3.529298
  H 5.083826 -0.758265 -4.177923
  H 2.660333 -0.524837 -3.647836
  H 2.660040 -2.176678 -2.985238
  H 3.350661 -1.419589 -5.858660
  H 1.846690 -2.148343 -5.305348
  H 3.350382 -3.057936 -5.201501
  H 6.799446 -0.516763 -1.236311
 32
 -0.026550
  C 0.981463 -0.298432 0.590514
  C 2.444531 -0.125640 0.489112
  C 3.219471 0.607160 1.515397
  C 2.450276 1.202496 2.688410
  C 3.402710 1.920089 3.639353
  C 3.066245 -0.671559 -0.631136
  C 4.439042 -0.666331 -0.870966
  C 5.118652 -1.133907 -1.990887
  C 4.610585 -1.481924 -3.339801
  C 3.131080 -1.337723 -3.684546
  C 2.925552 -1.547785 -5.183918
  O 6.433183 -1.244131 -1.943818
  H 0.555720 0.156580 1.476317
  H 0.734603 -1.361541 0.582719
  H 0.496251 0.120695 -0.292472
  H 3.769617 1.415093 1.021289
  H 3.982612 -0.068415 1.917762
  H 1.933133 0.416262 3.239809
  H 1.709609 1.918197 2.330215
  H 4.144308 1.232625 4.040784
  H 2.853301 2.346039 4.475686
  H 3.922178 2.729778 3.132427
  H 2.432026 -1.174235 -1.328296
  H 5.072462 -0.285292 -0.079446
  H 4.934886 -2.509907 -3.548697
  H 5.194559 -0.863062 -4.034827
  H 2.776514 -0.340803 -3.417833
  H 2.539872 -2.087469 -3.154282
  H 3.480330 -0.810765 -5.761305
  H 1.872135 -1.452152 -5.438976
  H 3.257402 -2.538714 -5.486591
  H 6.821752 -1.061254 -1.064945
 32
 1.873244
  C 1.058018 -0.666237 0.761786
  C 2.476217 -0.323478 0.555126
  C 3.204600 0.599660 1.460779
  C 2.424301 1.214183 2.620985
  C 3.324155 2.136145 3.438617
  C 3.108511 -0.896570 -0.542758
  C 4.456836 -0.774434 -0.855696
  C 5.114451 -1.326543 -1.958859
  C 4.580012 -1.570134 -3.325899
  C 3.186849 -1.063824 -3.684776
  C 2.940464 -1.234434 -5.180890
  O 6.392979 -1.621870 -1.859746
  H 0.619010 -0.170817 1.615030
  H 0.954753 -1.745339 0.886653
  H 0.481684 -0.416197 -0.130176
  H 3.621627 1.414677 0.859721
  H 4.065811 0.066091 1.876620
  H 2.040896 0.429923 3.276247
  H 1.579731 1.793575 2.244369
  H 4.165399 1.588723 3.857048
  H 2.767370 2.576172 4.262657
  H 3.711255 2.946275 2.825309
  H 2.518092 -1.568418 -1.149736
  H 5.090134 -0.236087 -0.161582
  H 4.650959 -2.642064 -3.536339
  H 5.308812 -1.107345 -4.000476
  H 3.096891 -0.009077 -3.425704
  H 2.421310 -1.617418 -3.151405
  H 3.667185 -0.673939 -5.762939
  H 1.949296 -0.875412 -5.444867
  H 3.008037 -2.281291 -5.467794
  H 6.729847 -1.534569 -0.951425
 32
 6.194598
  C 1.111676 -0.799976 0.847867
  C 2.503783 -0.384799 0.584983
  C 3.199895 0.622154 1.422871
  C 2.415243 1.243428 2.576061
  C 3.277076 2.257364 3.322418
  C 3.143785 -0.971663 -0.500856
  C 4.465254 -0.787373 -0.866863
  C 5.104771 -1.370553 -1.975383
  C 4.578093 -1.543467 -3.345977
  C 3.238704 -0.897706 -3.689149
  C 2.942422 -1.064261 -5.176335
  O 6.334449 -1.809780 -1.800019
  H 0.664089 -0.285543 1.688719
  H 1.076066 -1.875003 1.031765
  H 0.499110 -0.629936 -0.038478
  H 3.546679 1.432795 0.772500
  H 4.104580 0.162879 1.836913
  H 2.101118 0.468941 3.278086
  H 1.524135 1.748546 2.200132
  H 4.162901 1.783479 3.739475
  H 2.716593 2.700863 4.141712
  H 3.594965 3.060182 2.660701
  H 2.594206 -1.709138 -1.058911
  H 5.078806 -0.109033 -0.285886
  H 4.548470 -2.615807 -3.572060
  H 5.353537 -1.143565 -4.010206
  H 3.268709 0.165389 -3.447049
  H 2.430022 -1.353900 -3.123655
  H 3.713721 -0.595273 -5.782902
  H 1.990338 -0.604155 -5.427308
  H 2.889681 -2.116620 -5.445404
  H 6.523225 -1.753116 -0.844961
 32
 12.001935
  C 1.180399 -0.929738 0.901290
  C 2.539286 -0.433369 0.592460
  C 3.193845 0.636368 1.386009
  C 2.407925 1.226225 2.553806
  C 3.224990 2.304586 3.258964
  C 3.203768 -1.014753 -0.482603
  C 4.504706 -0.787422 -0.874063
  C 5.107274 -1.392638 -1.995074
  C 4.575890 -1.528468 -3.357362
  C 3.256088 -0.823226 -3.671036
  C 2.921591 -0.968567 -5.150520
  O 6.317982 -1.883221 -1.765788
  H 0.721405 -0.434379 1.748901
  H 1.226547 -2.001920 1.094147
  H 0.528906 -0.826612 0.030224
  H 3.471982 1.457527 0.712840
  H 4.136649 0.242607 1.776956
  H 2.160806 0.450500 3.281028
  H 1.477037 1.669612 2.196813
  H 4.152948 1.894847 3.658087
  H 2.658947 2.731123 4.082868
  H 3.464471 3.114001 2.575357
  H 2.701434 -1.786705 -1.039560
  H 5.142214 -0.104446 -0.321943
  H 4.468730 -2.590598 -3.591646
  H 5.358575 -1.177322 -4.047085
  H 3.349079 0.230189 -3.405061
  H 2.440064 -1.249710 -3.091782
  H 3.700033 -0.528524 -5.766183
  H 1.995191 -0.447564 -5.370454
  H 2.808867 -2.013968 -5.443097
  H 6.354090 -1.818939 -0.789384
 32
 31.591663
  C 1.223186 -1.020835 0.978540
  C 2.569867 -0.511725 0.645799
  C 3.212229 0.583436 1.414343
  C 2.424641 1.197170 2.569362
  C 3.232790 2.309193 3.231495
  C 3.216584 -1.093365 -0.439632
  C 4.481559 -0.797130 -0.888211
  C 5.105825 -1.366229 -2.046780
  C 4.606143 -1.496197 -3.416545
  C 3.277242 -0.805809 -3.716467
  C 2.935311 -0.929727 -5.197277
  O 6.282800 -1.835980 -1.698462
  H 0.763554 -0.499193 1.808403
  H 1.280678 -2.083606 1.219773
  H 0.568836 -0.948518 0.108779
  H 3.469036 1.390938 0.719085
  H 4.171932 0.228243 1.805771
  H 2.200754 0.436617 3.319665
  H 1.482791 1.614436 2.209405
  H 4.167956 1.926124 3.633894
  H 2.669957 2.746793 4.052723
  H 3.458610 3.102959 2.522666
  H 2.708099 -1.889340 -0.945626
  H 4.966181 0.107550 -0.537342
  H 4.542787 -2.565202 -3.655782
  H 5.389195 -1.109202 -4.080397
  H 3.342169 0.249508 -3.449507
  H 2.476227 -1.256614 -3.133677
  H 3.699679 -0.462730 -5.814215
  H 1.989348 -0.438395 -5.409427
  H 2.844488 -1.973033 -5.489972
  H 6.026219 -1.606168 -0.663503
 32
 48.369037
  C 1.243020 -1.066888 1.014028
  C 2.581270 -0.548613 0.660595
  C 3.220266 0.563309 1.408353
  C 2.436441 1.172685 2.568401
  C 3.235919 2.299625 3.216237
  C 3.220578 -1.133965 -0.421187
  C 4.503763 -0.804752 -0.892824
  C 5.139038 -1.354249 -2.090679
  C 4.632520 -1.477916 -3.458661
  C 3.287920 -0.804535 -3.731701
  C 2.929153 -0.907525 -5.209907
  O 6.277154 -1.764211 -1.724247
  H 0.786006 -0.538471 1.841285
  H 1.314232 -2.125950 1.267623
  H 0.578606 -1.012588 0.150454
  H 3.457331 1.367127 0.702555
  H 4.181747 0.212315 1.798867
  H 2.227859 0.413923 3.324173
  H 1.487753 1.578254 2.213221
  H 4.179960 1.930928 3.610979
  H 2.676469 2.735848 4.040020
  H 3.446986 3.089991 2.499435
  H 2.703609 -1.946568 -0.912162
  H 4.930450 0.150984 -0.593778
  H 4.591789 -2.542746 -3.714313
  H 5.399329 -1.067429 -4.127309
  H 3.339396 0.246926 -3.448326
  H 2.501994 -1.278747 -3.146607
  H 3.679598 -0.420166 -5.828288
  H 1.972685 -0.428730 -5.402418
  H 2.854937 -1.947249 -5.519940
  H 5.754901 -1.389413 -0.465377
 32
 35.192967
  C 1.288620 -1.088389 0.958790
  C 2.622050 -0.564628 0.628528
  C 3.236897 0.547530 1.376872
  C 2.440379 1.155960 2.525466
  C 3.226886 2.285480 3.183232
  C 3.285378 -1.156739 -0.427102
  C 4.601714 -0.789912 -0.900031
  C 5.243706 -1.363358 -2.128317
  C 4.662343 -1.473912 -3.479579
  C 3.311960 -0.787819 -3.679380
  C 2.883134 -0.866290 -5.140266
  O 6.368929 -1.749140 -1.817643
  H 0.802338 -0.543795 1.758139
  H 1.366246 -2.140039 1.242170
  H 0.646656 -1.069703 0.076572
  H 3.498000 1.348671 0.677423
  H 4.193754 0.194684 1.782505
  H 2.210101 0.399914 3.277242
  H 1.500112 1.565990 2.151609
  H 4.163019 1.920267 3.599282
  H 2.650913 2.724728 3.993609
  H 3.450973 3.073711 2.468496
  H 2.781182 -1.995871 -0.908582
  H 4.960176 0.217270 -0.654155
  H 4.609183 -2.532970 -3.749086
  H 5.395368 -1.049089 -4.174722
  H 3.395478 0.262332 -3.396924
  H 2.546802 -1.252707 -3.060545
  H 3.608421 -0.376117 -5.785808
  H 1.923634 -0.375490 -5.281939
  H 2.785443 -1.900852 -5.461676
  H 5.503639 -1.230780 -0.298588
 32
 23.896022
  C 1.315523 -1.128848 0.829095
  C 2.677310 -0.629306 0.579394
  C 3.254249 0.494233 1.342113
  C 2.385370 1.151617 2.406295
  C 3.132757 2.296445 3.083342
  C 3.405905 -1.253048 -0.423003
  C 4.765996 -0.910022 -0.812636
  C 5.383502 -1.353416 -2.128706
  C 4.652693 -1.373960 -3.428600
  C 3.252200 -0.772982 -3.476899
  C 2.722931 -0.774755 -4.909051
  O 6.539692 -1.709826 -2.020893
  H 0.788654 -0.575224 1.595705
  H 1.353709 -2.182181 1.115924
  H 0.733495 -1.107795 -0.094215
  H 3.574498 1.266887 0.632141
  H 4.179039 0.148754 1.821386
  H 2.100525 0.422756 3.167319
  H 1.473951 1.549330 1.955338
  H 4.034518 1.939391 3.575496
  H 2.504764 2.764087 3.837375
  H 3.414551 3.061147 2.363091
  H 2.908318 -2.060497 -0.950911
  H 5.094791 0.097938 -0.539369
  H 4.642066 -2.410493 -3.779109
  H 5.296220 -0.840062 -4.137253
  H 3.277391 0.253556 -3.109682
  H 2.562400 -1.346748 -2.861782
  H 3.365805 -0.188744 -5.561789
  H 1.724770 -0.346454 -4.945374
  H 2.672476 -1.787584 -5.302012
  H 5.520922 -1.465882 -0.209898
 32
 16.740188
  C 1.421215 -1.317244 0.699423
  C 2.779496 -0.789662 0.477945
  C 3.272194 0.421542 1.165967
  C 2.314904 1.148984 2.100203
  C 2.982042 2.377987 2.709808
  C 3.597919 -1.482178 -0.393800
  C 4.984984 -1.160184 -0.715786
  C 5.517219 -1.424594 -2.128907
  C 4.603783 -1.254849 -3.310143
  C 3.243820 -0.607194 -3.100942
  C 2.528047 -0.427740 -4.440178
  O 6.675626 -1.754763 -2.256545
  H 0.831318 -0.711244 1.374678
  H 1.479404 -2.332638 1.097055
  H 0.894529 -1.414859 -0.251081
  H 3.625100 1.129326 0.404903
  H 4.171921 0.156891 1.735242
  H 1.997977 0.487490 2.908523
  H 1.425530 1.469046 1.553602
  H 3.857213 2.100377 3.292933
  H 2.291008 2.893924 3.371553
  H 3.292248 3.079169 1.938411
  H 3.193835 -2.366714 -0.864568
  H 5.312992 -0.160262 -0.424203
  H 4.507458 -2.239461 -3.777109
  H 5.175044 -0.647242 -4.020704
  H 3.366553 0.369321 -2.632041
  H 2.606371 -1.223729 -2.469396
  H 3.110023 0.204745 -5.105965
  H 1.558277 0.038501 -4.290664
  H 2.374240 -1.386336 -4.929486
  H 5.626952 -1.864945 -0.151573
 32
 16.190378
  C 1.422727 -1.394952 0.688393
  C 2.778039 -0.871125 0.429880
  C 3.263983 0.384837 1.042739
  C 2.286617 1.187630 1.889397
  C 2.943231 2.459617 2.412578
  C 3.613158 -1.618742 -0.380230
  C 5.023003 -1.383102 -0.654391
  C 5.550274 -1.422755 -2.101606
  C 4.601270 -1.116824 -3.227282
  C 3.265441 -0.471925 -2.899645
  C 2.450962 -0.232434 -4.171907
  O 6.709762 -1.681856 -2.298930
  H 0.809763 -0.721538 1.269979
  H 1.496771 -2.344931 1.222310
  H 0.916130 -1.631393 -0.246672
  H 3.656221 1.030854 0.245736
  H 4.143036 0.152823 1.659137
  H 1.947921 0.595686 2.738699
  H 1.413575 1.462481 1.297618
  H 3.800161 2.227873 3.040357
  H 2.237611 3.031549 3.009943
  H 3.279004 3.092523 1.593649
  H 3.256181 -2.549705 -0.801913
  H 5.490947 -0.529215 -0.164107
  H 4.470119 -2.047562 -3.785402
  H 5.159754 -0.446698 -3.889116
  H 3.429609 0.482409 -2.396083
  H 2.671613 -1.116277 -2.246764
  H 2.992380 0.421382 -4.853534
  H 1.500338 0.238611 -3.930143
  H 2.248246 -1.168868 -4.688368
  H 5.534372 -2.276190 -0.243970
 32
 12.700625
  C 1.443865 -1.485682 0.666347
  C 2.792654 -0.953159 0.398364
  C 3.255076 0.327701 0.976137
  C 2.247459 1.154224 1.766685
  C 2.885733 2.448188 2.262389
  C 3.632154 -1.710434 -0.400093
  C 5.054980 -1.459914 -0.659893
  C 5.561640 -1.480253 -2.111963
  C 4.600662 -1.100067 -3.202873
  C 3.407331 -0.251994 -2.813008
  C 2.415627 -0.096083 -3.957300
  O 6.702711 -1.794213 -2.337782
  H 0.803242 -0.781502 1.181497
  H 1.527123 -2.385066 1.281009
  H 0.962808 -1.811087 -0.255792
  H 3.663222 0.950074 0.170991
  H 4.110330 0.117830 1.630745
  H 1.886538 0.591416 2.628761
  H 1.391449 1.405553 1.137810
  H 3.726656 2.242469 2.920931
  H 2.162137 3.037412 2.819965
  H 3.240676 3.053588 1.431451
  H 3.275037 -2.676433 -0.732991
  H 5.407669 -0.510023 -0.252220
  H 4.263366 -2.046736 -3.639726
  H 5.191642 -0.598122 -3.974029
  H 3.736987 0.728426 -2.466193
  H 2.885437 -0.748670 -1.979796
  H 2.889385 0.402780 -4.800019
  H 1.563672 0.501122 -3.645056
  H 2.053661 -1.062633 -4.299329
  H 5.621288 -2.266527 -0.184667
