 19
 0.000000
  C 0.997327 0.127453 0.369157
  C 2.464094 0.141201 0.402426
  C 3.219265 0.613654 1.576516
  C 2.423029 1.095391 2.778098
  H 3.105885 1.410405 3.561999
  C 3.131062 -0.317056 -0.737611
  C 4.525842 -0.389283 -0.918306
  C 5.066422 -0.853015 -2.073206
  H 4.446059 -1.182274 -2.892581
  H 6.132434 -0.908931 -2.212886
  H 0.539408 0.493694 1.279880
  H 0.641301 -0.885387 0.165247
  H 0.641024 0.717085 -0.479086
  H 3.892990 1.415545 1.249077
  H 3.894595 -0.190642 1.894330
  H 1.794677 0.304844 3.183123
  H 1.793562 1.945952 2.524640
  H 2.521713 -0.650878 -1.567867
  H 5.183433 -0.069945 -0.123253
 19
 9.225185
  C 0.971109 0.141849 0.404923
  C 2.424863 0.160783 0.451126
  C 3.187315 0.625959 1.607139
  C 2.402557 1.110564 2.815947
  H 3.094042 1.422978 3.593401
  C 3.170382 -0.349190 -0.817567
  C 4.556952 -0.413271 -0.978139
  C 5.115431 -0.875597 -2.129366
  H 4.507766 -1.207671 -2.955502
  H 6.182623 -0.926031 -2.255418
  H 0.506499 0.506813 1.312450
  H 0.620007 -0.872371 0.197328
  H 0.619741 0.729923 -0.446949
  H 3.861992 1.424903 1.271948
  H 3.863702 -0.181576 1.917243
  H 1.775727 0.322553 3.226570
  H 1.774644 1.963154 2.568333
  H 2.560252 -0.681305 -1.643512
  H 5.202848 -0.090194 -0.173943
 19
 27.616921
  C 0.930521 0.150295 0.425944
  C 2.361083 0.182473 0.505073
  C 3.168911 0.626274 1.608272
  C 2.424134 1.118392 2.835357
  H 3.139613 1.423146 3.594029
  C 3.175995 -0.380991 -0.896921
  C 4.557161 -0.422864 -1.002811
  C 5.164788 -0.877541 -2.134275
  H 4.594679 -1.217115 -2.978449
  H 6.234713 -0.911727 -2.219556
  H 0.451858 0.511997 1.325963
  H 0.591112 -0.863165 0.208111
  H 0.590791 0.730920 -0.432715
  H 3.842517 1.412341 1.245916
  H 3.844395 -0.191016 1.889865
  H 1.800878 0.338093 3.258786
  H 1.800004 1.974547 2.602194
  H 2.539568 -0.703362 -1.698152
  H 5.170045 -0.091209 -0.177434
 19
 48.707617
  C 0.892978 0.161257 0.453306
  C 2.323260 0.199906 0.548529
  C 3.149605 0.640313 1.643367
  C 2.411154 1.137811 2.883608
  H 3.132492 1.440613 3.637585
  C 3.215256 -0.415550 -0.982875
  C 4.583615 -0.447113 -1.063208
  C 5.217944 -0.899463 -2.188860
  H 4.663584 -1.244438 -3.046531
  H 6.291221 -0.925559 -2.254087
  H 0.403108 0.523171 1.354040
  H 0.558132 -0.856793 0.229901
  H 0.557821 0.741381 -0.412443
  H 3.825496 1.423967 1.272490
  H 3.827054 -0.181009 1.917064
  H 1.787056 0.356748 3.312151
  H 1.786476 1.998049 2.653536
  H 2.567436 -0.734808 -1.776275
  H 5.180116 -0.111105 -0.227090
 19
 69.376569
  C 0.860592 0.176629 0.491682
  C 2.276347 0.220628 0.600196
  C 3.119051 0.649566 1.666719
  C 2.401914 1.150014 2.913808
  H 3.134606 1.448594 3.657494
  C 3.240118 -0.447851 -1.063290
  C 4.614118 -0.468908 -1.117699
  C 5.275726 -0.916521 -2.231433
  H 4.743316 -1.264770 -3.097016
  H 6.348612 -0.933351 -2.273744
  H 0.363877 0.536622 1.388055
  H 0.532241 -0.840083 0.264018
  H 0.531861 0.753032 -0.376108
  H 3.793662 1.425830 1.283899
  H 3.795057 -0.174979 1.926764
  H 1.780922 0.373189 3.348012
  H 1.780553 2.011382 2.690549
  H 2.575822 -0.761771 -1.843127
  H 5.193820 -0.128706 -0.271417
 19
 87.826601
  C 0.822232 0.187187 0.518010
  C 2.238344 0.237735 0.642787
  C 3.098251 0.663218 1.700854
  C 2.393457 1.169177 2.961337
  H 3.135340 1.464971 3.698286
  C 3.281216 -0.482375 -1.149085
  C 4.636088 -0.492909 -1.177455
  C 5.324074 -0.935200 -2.278027
  H 4.811245 -1.288422 -3.155929
  H 6.398628 -0.942627 -2.297156
  H 0.311516 0.546034 1.411891
  H 0.500638 -0.832694 0.284294
  H 0.500179 0.761811 -0.356201
  H 3.774438 1.436089 1.308344
  H 3.775561 -0.165679 1.951572
  H 1.772646 0.393052 3.401526
  H 1.772578 2.034228 2.742788
  H 2.607297 -0.792541 -1.919366
  H 5.197225 -0.148564 -0.321032
 19
 103.681003
  C 0.790960 0.204830 0.561971
  C 2.191330 0.258788 0.695400
  C 3.061178 0.673756 1.727518
  C 2.379368 1.183772 2.997537
  H 3.133594 1.474612 3.722329
  C 3.305465 -0.514404 -1.228827
  C 4.670528 -0.515814 -1.234889
  C 5.390625 -0.956849 -2.332026
  H 4.899130 -1.313734 -3.218338
  H 6.464526 -0.955052 -2.328520
  H 0.271376 0.561924 1.451827
  H 0.476086 -0.814883 0.323936
  H 0.475626 0.776580 -0.315121
  H 3.735891 1.439602 1.322752
  H 3.736780 -0.158760 1.964776
  H 1.761331 0.411675 3.444927
  H 1.761511 2.051084 2.786771
  H 2.615713 -0.819606 -1.986322
  H 5.216516 -0.167136 -0.368347
 19
 115.810528
  C 0.722946 0.211022 0.577693
  C 2.113160 0.270985 0.726954
  C 3.033179 0.664270 1.705571
  C 2.455447 1.191637 3.016357
  H 3.262788 1.460330 3.686039
  C 3.287668 -0.557365 -1.335022
  C 4.639074 -0.524172 -1.255632
  C 5.452900 -0.935190 -2.278869
  H 5.049078 -1.305462 -3.197975
  H 6.518035 -0.893853 -2.178583
  H 0.168522 0.560309 1.448222
  H 0.428664 -0.811729 0.325851
  H 0.428492 0.776037 -0.311231
  H 3.703319 1.407268 1.252176
  H 3.703337 -0.185727 1.892847
  H 1.847506 0.435268 3.498994
  H 1.848570 2.072393 2.840777
  H 2.543233 -0.842337 -2.041832
  H 5.118017 -0.161621 -0.355625
 19
 126.113193
  C 0.684324 0.228191 0.620664
  C 2.080581 0.283233 0.758296
  C 3.009228 0.676989 1.737924
  C 2.443082 1.211634 3.065460
  H 3.259501 1.478305 3.729939
  C 3.329061 -0.597606 -1.434689
  C 4.658427 -0.552497 -1.325350
  C 5.522526 -0.956621 -2.332951
  H 5.153383 -1.333271 -3.269197
  H 6.585168 -0.899648 -2.194410
  H 0.123962 0.579853 1.496539
  H 0.390105 -0.796805 0.366748
  H 0.390276 0.793193 -0.271449
  H 3.679858 1.416260 1.275180
  H 3.679455 -0.176986 1.916551
  H 1.834296 0.455951 3.555645
  H 1.835850 2.097141 2.895124
  H 2.566503 -0.874487 -2.122001
  H 5.106510 -0.184419 -0.410964
 19
 133.839004
  C 0.650826 0.246796 0.667240
  C 2.048410 0.301178 0.803220
  C 2.978687 0.695325 1.783751
  C 2.419176 1.229758 3.110337
  H 3.237860 1.495160 3.771607
  C 3.374546 -0.631321 -1.519006
  C 4.701280 -0.581283 -1.397188
  C 5.580977 -0.981275 -2.394505
  H 5.225438 -1.359617 -3.335044
  H 6.641977 -0.918592 -2.241619
  H 0.089847 0.596990 1.539579
  H 0.358010 -0.777247 0.412872
  H 0.358171 0.810896 -0.224479
  H 3.649024 1.433602 1.319195
  H 3.648525 -0.159242 1.960569
  H 1.811663 0.475703 3.601450
  H 1.813276 2.114836 2.941582
  H 2.608230 -0.905549 -2.199867
  H 5.138164 -0.210835 -0.476649
 19
 139.730332
  C 0.619814 0.266605 0.716773
  C 2.018892 0.319438 0.848706
  C 2.946752 0.714387 1.831121
  C 2.388967 1.250058 3.160751
  H 3.209214 1.515188 3.821287
  C 3.423142 -0.664618 -1.602535
  C 4.749021 -0.611186 -1.471895
  C 5.639976 -1.007636 -2.460064
  H 5.294555 -1.387373 -3.404039
  H 6.699103 -0.940718 -2.296388
  H 0.056776 0.617288 1.590439
  H 0.327477 -0.757974 0.462280
  H 0.327525 0.830992 -0.175388
  H 3.616705 1.452133 1.365916
  H 3.616220 -0.140248 2.007061
  H 1.780956 0.495599 3.653220
  H 1.782594 2.136310 2.992669
  H 2.652347 -0.938138 -2.281692
  H 5.176646 -0.239240 -0.547522
 19
 143.970255
  C 0.588293 0.287290 0.768396
  C 1.988867 0.338719 0.896774
  C 2.913579 0.735550 1.883690
  C 2.355042 1.271019 3.212908
  H 3.174413 1.536269 3.873672
  C 3.472823 -0.696706 -1.682636
  C 4.798218 -0.641195 -1.546548
  C 5.696960 -1.035206 -2.528739
  H 5.358090 -1.415777 -3.475059
  H 6.755391 -0.965487 -2.358097
  H 0.024975 0.637734 1.641341
  H 0.296258 -0.737053 0.514310
  H 0.296343 0.851732 -0.123364
  H 3.583626 1.473761 1.419550
  H 3.583174 -0.118605 2.060661
  H 1.747243 0.516831 3.704506
  H 1.748787 2.156436 3.044429
  H 2.702561 -0.969867 -2.360995
  H 5.219252 -0.268020 -0.618929
 19
 146.954476
  C 0.557257 0.309165 0.822955
  C 1.959577 0.359018 0.947377
  C 2.879149 0.757965 1.939407
  C 2.316876 1.293127 3.267868
  H 3.134745 1.559272 3.930769
  C 3.523591 -0.727720 -1.760010
  C 4.849298 -0.671188 -1.621115
  C 5.752799 -1.063426 -2.599061
  H 5.417897 -1.444495 -3.546902
  H 6.810617 -0.991997 -2.424249
  H -0.006264 0.659821 1.696414
  H 0.265088 -0.715382 0.569354
  H 0.265184 0.874100 -0.068585
  H 3.549465 1.497061 1.477421
  H 3.549079 -0.095319 2.118522
  H 1.708274 0.537982 3.758213
  H 1.709767 2.178321 3.097825
  H 2.753745 -1.001633 -2.440354
  H 5.265609 -0.297251 -0.691418
 19
 148.971895
  C 0.525447 0.332184 0.880359
  C 1.929273 0.380372 1.000883
  C 2.842939 0.781891 1.999238
  C 2.275260 1.316480 3.325694
  H 3.090285 1.583692 3.991311
  C 3.573893 -0.757603 -1.834184
  C 4.900184 -0.700783 -1.694514
  C 5.806476 -1.091706 -2.669851
  H 5.473632 -1.472948 -3.618605
  H 6.864169 -1.019205 -2.492887
  H -0.037654 0.682934 1.753940
  H 0.233011 -0.692269 0.627408
  H 0.233234 0.897559 -0.010667
  H 3.513856 1.522116 1.540215
  H 3.513214 -0.070248 2.181519
  H 1.665962 0.560767 3.813755
  H 1.667660 2.200600 3.153386
  H 2.806221 -1.032246 -2.516411
  H 5.313353 -0.326319 -0.763285
