 19
 0.000000
  C 1.016031 0.121034 0.354025
  C 2.483664 0.117516 0.344924
  C 3.219076 0.592543 1.524574
  H 2.544776 0.909547 2.312952
  C 3.130630 -0.341888 -0.797411
  C 4.524113 -0.406476 -0.959553
  C 5.163517 -0.859468 -2.089791
  C 4.555614 -1.352697 -3.321572
  H 3.472494 -1.349274 -3.314633
  H 6.245204 -0.854575 -2.077115
  H 0.607289 0.496067 1.286047
  H 0.635821 -0.885853 0.173381
  H 0.635742 0.722293 -0.473544
  H 3.873405 1.424272 1.260887
  H 3.874189 -0.189373 1.910393
  H 2.504004 -0.670488 -1.614210
  H 5.147558 -0.077970 -0.140669
  H 4.920845 -2.362163 -3.523273
  H 4.921782 -0.762169 -4.164378
 19
 -0.117474
  C 1.017136 0.044581 0.390855
  C 2.485430 0.120828 0.348582
  C 3.202253 0.668075 1.508158
  H 2.549987 1.286243 2.118875
  C 3.132602 -0.332247 -0.797068
  C 4.521237 -0.418338 -0.958440
  C 5.156435 -0.868346 -2.092949
  C 4.544644 -1.319827 -3.338795
  H 3.461594 -1.285567 -3.344722
  H 6.238517 -0.891645 -2.074285
  H 0.616316 0.310195 1.363667
  H 0.670574 -0.949698 0.107010
  H 0.595859 0.721317 -0.356592
  H 4.087516 1.231524 1.225422
  H 3.540001 -0.160194 2.137692
  H 2.503040 -0.662023 -1.611295
  H 5.148372 -0.124295 -0.129238
  H 4.882120 -2.336566 -3.554702
  H 4.936757 -0.723445 -4.166122
 19
 0.341335
  C 1.056347 -0.070813 0.442020
  C 2.519996 0.076271 0.360264
  C 3.207538 0.750611 1.467324
  H 2.621706 1.607900 1.796346
  C 3.157786 -0.335955 -0.804810
  C 4.540110 -0.512510 -0.945708
  C 5.169260 -0.926973 -2.096447
  C 4.555406 -1.251169 -3.380780
  H 3.476668 -1.148859 -3.399491
  H 6.246824 -1.023283 -2.061023
  H 0.676761 0.162244 1.431956
  H 0.746829 -1.075948 0.156215
  H 0.584891 0.601418 -0.278370
  H 4.214959 1.067569 1.220134
  H 3.256030 0.078714 2.328595
  H 2.523452 -0.588159 -1.643260
  H 5.162988 -0.333374 -0.080981
  H 4.831441 -2.270093 -3.662950
  H 4.999206 -0.623452 -4.157047
 19
 2.830445
  C 1.075851 -0.172685 0.488991
  C 2.533449 0.049353 0.386067
  C 3.168080 0.876932 1.416846
  H 2.676005 1.852093 1.413856
  C 3.159634 -0.297121 -0.807353
  C 4.518356 -0.607718 -0.929335
  C 5.141840 -0.986047 -2.093928
  C 4.540202 -1.139523 -3.416913
  H 3.477858 -0.926958 -3.450452
  H 6.203593 -1.188697 -2.041739
  H 0.710411 0.017483 1.493887
  H 0.810657 -1.185800 0.189839
  H 0.557066 0.496042 -0.200034
  H 4.232342 1.017375 1.258374
  H 2.995226 0.465030 2.411769
  H 2.529576 -0.397495 -1.682566
  H 5.118924 -0.576346 -0.031218
  H 4.717675 -2.154347 -3.778443
  H 5.068680 -0.495787 -4.124524
 19
 12.562989
  C 1.191286 -0.346276 0.588928
  C 2.644661 -0.038843 0.486039
  C 3.117375 1.040390 1.356774
  H 2.577371 1.946728 1.065148
  C 3.215786 -0.392170 -0.741349
  C 4.506690 -0.899829 -0.894126
  C 5.118674 -1.153571 -2.098027
  C 4.553057 -0.982171 -3.437461
  H 3.534083 -0.616055 -3.443838
  H 6.132186 -1.521604 -2.067705
  H 0.795799 -0.047743 1.552520
  H 1.009732 -1.411585 0.452124
  H 0.643598 0.181805 -0.192298
  H 4.185172 1.222471 1.263696
  H 2.870405 0.850748 2.402663
  H 2.600098 -0.275461 -1.632316
  H 5.060213 -1.114289 0.005408
  H 4.593758 -1.938772 -3.967124
  H 5.189491 -0.308473 -4.015453
 19
 34.216232
  C 1.434701 -0.407878 0.494202
  C 2.933838 0.031252 0.597991
  C 2.915255 1.155245 1.529491
  H 2.218583 1.900446 1.157005
  C 3.407771 -0.264896 -0.677447
  C 4.628512 -0.904872 -0.945834
  C 5.062717 -1.259945 -2.195834
  C 4.401706 -1.010343 -3.474560
  H 3.439410 -0.515657 -3.388924
  H 6.033367 -1.743381 -2.265280
  H 0.914898 -0.149393 1.408218
  H 1.371617 -1.490132 0.360592
  H 0.960095 0.082818 -0.350407
  H 3.892162 1.620153 1.640680
  H 2.568749 0.841476 2.512373
  H 2.738910 -0.143724 -1.522848
  H 5.248424 -1.170047 -0.096617
  H 4.282022 -1.948041 -4.012826
  H 5.060284 -0.398755 -4.094422
 19
 60.015725
  C 1.516289 -0.270130 0.285112
  C 3.145351 0.220459 0.588383
  C 2.813629 1.064930 1.739055
  H 1.883765 1.605724 1.589410
  C 3.489130 -0.170554 -0.677586
  C 4.740567 -0.769973 -0.995702
  C 5.089238 -1.189739 -2.240671
  C 4.266954 -1.195915 -3.455188
  H 3.283905 -0.763754 -3.320667
  H 6.080931 -1.606340 -2.362545
  H 1.002484 -0.158757 1.226709
  H 1.512759 -1.318037 -0.002243
  H 1.105161 0.379832 -0.464836
  H 3.600400 1.811224 1.921401
  H 2.689357 0.450023 2.634792
  H 2.824056 -0.068466 -1.519140
  H 5.460882 -0.854599 -0.193352
  H 4.149485 -2.223814 -3.804005
  H 4.790082 -0.666772 -4.247251
 19
 83.791594
  C 1.232895 -0.328267 0.095454
  C 3.307216 0.328779 0.617966
  C 2.936164 1.021118 1.810411
  H 1.928320 1.431719 1.746078
  C 3.608471 -0.135210 -0.583644
  C 4.884860 -0.690746 -1.011095
  C 5.127895 -1.140654 -2.254587
  C 4.198363 -1.194529 -3.401125
  H 3.200274 -0.847393 -3.160395
  H 6.126127 -1.488110 -2.473051
  H 0.876517 -0.096968 1.077455
  H 1.322187 -1.381395 -0.112272
  H 0.883439 0.317130 -0.693257
  H 3.603438 1.874019 1.974123
  H 2.949952 0.357294 2.677111
  H 2.838127 -0.188229 -1.350022
  H 5.652532 -0.742663 -0.259331
  H 4.126266 -2.218973 -3.772822
  H 4.601664 -0.595973 -4.211716
 19
 93.722766
  C 1.003589 -0.471771 -0.150106
  C 3.446964 0.339971 0.701964
  C 3.152880 0.996584 1.895786
  H 2.137623 1.396786 1.863562
  C 3.750186 -0.107150 -0.461911
  C 4.983584 -0.638609 -1.009842
  C 5.106960 -1.065026 -2.269291
  C 4.057841 -1.114171 -3.315145
  H 3.083727 -0.788708 -2.959255
  H 6.084630 -1.395986 -2.592984
  H 0.737049 -0.211216 0.852083
  H 1.135160 -1.517259 -0.352173
  H 0.631876 0.153409 -0.939798
  H 3.804806 1.865135 2.025087
  H 3.212052 0.324651 2.753979
  H 2.891311 -0.183514 -1.131738
  H 5.818237 -0.676265 -0.327681
  H 3.970151 -2.131438 -3.693058
  H 4.350789 -0.487458 -4.156856
 19
 74.726396
  C 1.416781 -0.534513 -0.581890
  C 3.658912 0.342736 0.906711
  C 3.311121 1.027413 2.083574
  H 2.301751 1.486150 1.998535
  C 3.855308 -0.089261 -0.271005
  C 4.927880 -0.637199 -1.047202
  C 4.867146 -1.052754 -2.311574
  C 3.718729 -1.063785 -3.250136
  H 2.796520 -0.701267 -2.803502
  H 5.793753 -1.423747 -2.745709
  H 0.943202 -0.301704 0.373798
  H 1.551459 -1.591675 -0.768674
  H 1.091707 0.065764 -1.428179
  H 4.003436 1.863654 2.250783
  H 3.290002 0.360768 2.964330
  H 2.632191 -0.189833 -0.709268
  H 5.863236 -0.719352 -0.500036
  H 3.549807 -2.082652 -3.642025
  H 3.965675 -0.450067 -4.113546
 19
 56.028352
  C 1.358318 -0.608138 -0.829349
  C 3.579826 0.437412 0.973788
  C 3.107334 1.151013 2.091842
  H 2.123117 1.585196 1.895858
  C 3.908407 -0.050063 -0.117239
  C 4.927146 -0.640042 -0.877369
  C 4.929835 -1.091481 -2.152415
  C 3.837330 -1.109483 -3.133138
  H 2.902850 -0.709342 -2.762887
  H 5.869748 -1.484658 -2.517060
  H 0.805798 -0.340928 0.057101
  H 1.414875 -1.679762 -0.962170
  H 0.977426 -0.113292 -1.714421
  H 3.775031 1.993943 2.290812
  H 3.056499 0.509928 2.970582
  H 2.412154 -0.221982 -0.738584
  H 5.840099 -0.748964 -0.301778
  H 3.682549 -2.127941 -3.490298
  H 4.145597 -0.528991 -4.005221
 19
 47.364553
  C 1.250320 -0.712534 -0.670973
  C 3.846440 0.389651 0.959813
  C 3.346037 1.119137 2.056306
  H 2.316588 1.442612 1.893077
  C 4.199208 -0.128925 -0.102840
  C 5.089191 -0.723121 -0.977240
  C 4.918194 -1.062836 -2.293309
  C 3.747708 -0.849531 -3.126604
  H 2.921569 -0.370546 -2.613771
  H 5.760750 -1.541401 -2.776947
  H 0.748546 -0.411122 0.238609
  H 1.214286 -1.789895 -0.768990
  H 0.764695 -0.253094 -1.523184
  H 3.957358 2.017714 2.185001
  H 3.418545 0.528910 2.970488
  H 2.287969 -0.371898 -0.630346
  H 6.046546 -0.947607 -0.517765
  H 3.425688 -1.798350 -3.562748
  H 4.039775 -0.242262 -3.989054
 19
 42.997078
  C 1.040220 -0.433221 -0.609889
  C 4.037006 0.283287 0.930489
  C 3.451625 0.975204 2.008673
  H 2.392158 1.165623 1.844845
  C 4.444679 -0.224926 -0.113439
  C 5.265654 -0.801677 -1.057616
  C 4.969045 -1.114546 -2.365875
  C 3.705546 -0.923901 -3.044905
  H 2.933224 -0.485600 -2.424276
  H 5.770899 -1.550516 -2.948402
  H 0.573289 -0.057096 0.291222
  H 0.750923 -1.468236 -0.741318
  H 0.684145 0.145986 -1.452866
  H 3.970489 1.930875 2.130871
  H 3.605425 0.420204 2.936320
  H 2.118152 -0.351185 -0.519961
  H 6.264511 -1.024256 -0.696192
  H 3.368419 -1.875787 -3.466781
  H 3.867358 -0.306798 -3.935645
 19
 41.007075
  C 0.846798 -0.235310 -0.586371
  C 4.087424 0.307730 0.838761
  C 3.381695 0.769911 1.967941
  H 2.305635 0.765368 1.810548
  C 4.630933 -0.091603 -0.187047
  C 5.480375 -0.487487 -1.201841
  C 5.108039 -0.944919 -2.447705
  C 3.758391 -1.245929 -2.877241
  H 3.009948 -1.087281 -2.107953
  H 5.901704 -1.110912 -3.165088
  H 0.374654 0.086754 0.332748
  H 0.514049 -1.241556 -0.810458
  H 0.542956 0.429420 -1.384615
  H 3.724572 1.777907 2.216455
  H 3.639463 0.152380 2.833148
  H 1.924401 -0.210716 -0.465585
  H 6.538047 -0.407028 -0.970410
  H 3.713331 -2.275349 -3.246742
  H 3.521262 -0.661065 -3.772185
 19
 41.787785
  C 1.084202 0.119527 -1.102836
  C 4.089049 0.236923 1.017900
  C 3.448956 0.514598 2.245987
  H 2.364928 0.437468 2.164035
  C 4.483738 -0.006608 -0.119461
  C 5.214497 -0.165122 -1.274510
  C 4.790447 -0.788246 -2.427364
  C 3.665630 -1.696596 -2.531840
  H 3.166903 -1.876780 -1.584941
  H 5.375813 -0.622414 -3.323306
  H 0.444712 0.388025 -0.271604
  H 0.694880 -0.778925 -1.565163
  H 1.078342 0.926931 -1.823051
  H 3.745995 1.506787 2.596807
  H 3.796642 -0.195309 3.003626
  H 2.078976 -0.037371 -0.735523
  H 6.206114 0.275954 -1.254850
  H 4.002229 -2.643720 -2.965570
  H 2.959805 -1.321009 -3.280530
