 21
 0.000000
  C 0.875829 0.043293 0.365116
  C 2.351120 0.061480 0.076642
  C 3.259045 -0.006881 1.279902
  H 2.690456 -0.058467 2.206995
  C 2.915690 0.128485 -1.125732
  C 2.370160 0.206850 -2.523785
  C 0.861970 0.220118 -2.741058
  C 0.535114 0.302647 -4.228561
  H 4.002802 0.129338 -1.140434
  H 0.697092 -0.011208 1.437717
  H 0.396924 -0.818176 -0.096888
  H 0.391037 0.941751 -0.007664
  H 3.903624 0.869275 1.323877
  H 3.902052 -0.883594 1.225367
  H 2.789100 -0.638614 -3.079235
  H 2.790364 1.108025 -2.982163
  H 0.420667 1.078090 -2.235320
  H 0.419058 -0.687533 -2.332790
  H 0.951102 1.209475 -4.662963
  H -0.541237 0.312166 -4.383295
  H 0.949517 -0.551510 -4.760303
 21
 6.387222
  C 0.892337 0.084235 0.366856
  C 2.323432 0.055870 0.078347
  C 3.243375 -0.004290 1.269932
  H 2.680867 -0.076614 2.199248
  C 2.892566 0.113472 -1.106585
  C 2.353756 0.191581 -2.503763
  C 0.849688 0.227414 -2.728907
  C 0.534363 0.308384 -4.218181
  H 3.976083 0.095831 -1.112634
  H 0.660468 -0.007866 1.412510
  H 0.675502 -0.818600 -0.181684
  H 0.370779 0.931258 -0.027714
  H 3.866779 0.885223 1.318672
  H 3.905325 -0.864200 1.204616
  H 2.761520 -0.661171 -3.053003
  H 2.787509 1.082975 -2.963848
  H 0.420296 1.095017 -2.229215
  H 0.386515 -0.670478 -2.320784
  H 0.969202 1.205951 -4.653758
  H -0.540516 0.335550 -4.380061
  H 0.938001 -0.555370 -4.743070
 21
 18.261838
  C 0.873424 0.069561 0.400897
  C 2.303986 0.057668 0.113443
  C 3.257239 0.018735 1.300184
  H 2.711694 -0.095660 2.234793
  C 2.882660 0.097370 -1.107242
  C 2.339799 0.167552 -2.512833
  C 0.833616 0.261697 -2.749045
  C 0.531906 0.326309 -4.240891
  H 3.968744 0.043317 -1.115960
  H 0.614539 -0.069070 1.442036
  H 0.907933 -0.828780 -0.168992
  H 0.293364 0.865421 -0.047255
  H 3.834811 0.941879 1.357140
  H 3.962884 -0.807534 1.212304
  H 2.716707 -0.715743 -3.048948
  H 2.810087 1.037497 -2.992576
  H 0.439137 1.156470 -2.273507
  H 0.325781 -0.603967 -2.327699
  H 1.008464 1.194062 -4.690731
  H -0.539932 0.397284 -4.411185
  H 0.900455 -0.564198 -4.744864
 21
 32.144798
  C 0.864002 0.070238 0.405421
  C 2.294238 0.051568 0.104106
  C 3.236082 0.020201 1.286002
  H 2.693011 -0.131703 2.213856
  C 2.884049 0.086574 -1.112363
  C 2.343941 0.154685 -2.514691
  C 0.843306 0.283561 -2.740454
  C 0.530411 0.336002 -4.231300
  H 3.964797 0.029870 -1.112239
  H 0.604085 -0.043880 1.446522
  H 1.101443 -0.839293 -0.125492
  H 0.243582 0.786179 -0.106689
  H 3.770623 0.961693 1.361428
  H 3.972017 -0.770275 1.187039
  H 2.694855 -0.740918 -3.042009
  H 2.830099 1.005150 -3.005340
  H 0.477773 1.198460 -2.273167
  H 0.315609 -0.563701 -2.300817
  H 1.026277 1.184516 -4.697043
  H -0.540431 0.433316 -4.393882
  H 0.870866 -0.570959 -4.726069
 21
 44.015843
  C 0.848731 0.073231 0.406171
  C 2.290573 0.043340 0.090236
  C 3.219158 0.013457 1.288794
  H 2.668398 -0.168579 2.213738
  C 2.900933 0.080195 -1.128883
  C 2.360114 0.148917 -2.532064
  C 0.857408 0.301459 -2.737454
  C 0.519412 0.345680 -4.225211
  H 3.976853 0.019549 -1.119033
  H 0.596727 0.025398 1.449942
  H 1.254475 -0.850324 -0.039283
  H 0.186096 0.682719 -0.184746
  H 3.724509 0.972700 1.382447
  H 3.980983 -0.753816 1.187708
  H 2.689053 -0.753447 -3.057479
  H 2.854184 0.985526 -3.032955
  H 0.515588 1.232318 -2.270080
  H 0.323244 -0.536540 -2.279188
  H 1.021085 1.180699 -4.706851
  H -0.551532 0.459572 -4.371191
  H 0.836032 -0.570688 -4.716931
 21
 52.683168
  C 0.843549 0.085683 0.417953
  C 2.287608 0.038698 0.084173
  C 3.205743 0.000438 1.287695
  H 2.653704 -0.211743 2.204769
  C 2.907573 0.080795 -1.136649
  C 2.368338 0.147454 -2.544683
  C 0.860494 0.313651 -2.744793
  C 0.515498 0.351796 -4.224802
  H 3.983145 0.018782 -1.120780
  H 0.600484 0.114877 1.466979
  H 1.375085 -0.846657 0.057832
  H 0.150179 0.574965 -0.232722
  H 3.690766 0.969827 1.403490
  H 3.983040 -0.749117 1.175042
  H 2.686541 -0.762763 -3.069275
  H 2.869932 0.978213 -3.052486
  H 0.531492 1.247212 -2.283016
  H 0.324560 -0.515495 -2.280773
  H 1.020265 1.177173 -4.712386
  H -0.551619 0.473709 -4.364911
  H 0.820636 -0.567497 -4.710953
 21
 59.785558
  C 0.833299 0.100634 0.430952
  C 2.278036 0.029285 0.082444
  C 3.205744 -0.005066 1.288315
  H 2.663643 -0.238155 2.202993
  C 2.898217 0.077084 -1.141474
  C 2.363422 0.144211 -2.543837
  C 0.868463 0.318289 -2.744121
  C 0.521784 0.357352 -4.235129
  H 3.977790 0.011926 -1.126787
  H 0.598329 0.171284 1.481448
  H 1.457214 -0.839488 0.114236
  H 0.121262 0.506167 -0.248375
  H 3.669817 0.967814 1.414044
  H 4.001929 -0.742916 1.163034
  H 2.676081 -0.772792 -3.070780
  H 2.873196 0.975924 -3.055124
  H 0.545390 1.252815 -2.282001
  H 0.327142 -0.510108 -2.277669
  H 1.033200 1.182693 -4.725460
  H -0.549067 0.485597 -4.376652
  H 0.823196 -0.567686 -4.722832
 21
 65.005787
  C 0.830634 0.123574 0.460027
  C 2.270474 0.014155 0.090540
  C 3.209283 -0.007386 1.287236
  H 2.678163 -0.254780 2.202893
  C 2.893465 0.069764 -1.144238
  C 2.361824 0.138051 -2.547449
  C 0.866653 0.317345 -2.756861
  C 0.530953 0.365207 -4.244863
  H 3.974289 -0.000534 -1.124547
  H 0.600439 0.214852 1.501924
  H 1.516808 -0.842599 0.161633
  H 0.094953 0.453818 -0.238157
  H 3.657431 0.973195 1.414619
  H 4.018374 -0.732215 1.148860
  H 2.672767 -0.778720 -3.076379
  H 2.875469 0.966881 -3.053631
  H 0.542717 1.248992 -2.292291
  H 0.321229 -0.512647 -2.300318
  H 1.046304 1.190864 -4.726051
  H -0.536060 0.495934 -4.392431
  H 0.833503 -0.556196 -4.734663
 21
 69.591312
  C 0.833393 0.150311 0.455418
  C 2.270469 -0.002003 0.093108
  C 3.209054 -0.006291 1.290023
  H 2.682176 -0.271248 2.204300
  C 2.902048 0.062689 -1.148228
  C 2.369569 0.128931 -2.547243
  C 0.872380 0.316071 -2.751304
  C 0.529770 0.372715 -4.242182
  H 3.983390 -0.016209 -1.126166
  H 0.588155 0.236923 1.494681
  H 1.568476 -0.851875 0.166850
  H 0.091014 0.421164 -0.261681
  H 3.636481 0.984524 1.422765
  H 4.027782 -0.708225 1.148291
  H 2.675052 -0.790033 -3.077683
  H 2.885606 0.952926 -3.055232
  H 0.555101 1.243948 -2.281448
  H 0.324206 -0.515683 -2.295662
  H 1.046815 1.199367 -4.722185
  H -0.537653 0.508357 -4.385257
  H 0.826658 -0.547495 -4.737970
 21
 73.746379
  C 0.835640 0.175529 0.485374
  C 2.263749 -0.012923 0.102793
  C 3.224295 -0.009775 1.288102
  H 2.713911 -0.284402 2.210610
  C 2.882903 0.059866 -1.139113
  C 2.360120 0.125060 -2.538861
  C 0.859299 0.312638 -2.770903
  C 0.546289 0.369649 -4.254854
  H 3.958396 -0.021159 -1.118220
  H 0.602103 0.241480 1.525698
  H 1.605695 -0.854135 0.173095
  H 0.079600 0.420951 -0.226181
  H 3.637878 0.974463 1.417894
  H 4.052335 -0.704078 1.128389
  H 2.669921 -0.786283 -3.059740
  H 2.885392 0.952408 -3.043641
  H 0.530387 1.246798 -2.302884
  H 0.312000 -0.507881 -2.334327
  H 1.073677 1.200889 -4.725341
  H -0.528079 0.505856 -4.418495
  H 0.855837 -0.557445 -4.749779
 21
 75.564403
  C 0.843158 0.219119 0.453406
  C 2.267592 -0.029473 0.102226
  C 3.210984 -0.007000 1.296833
  H 2.695946 -0.298619 2.207816
  C 2.915062 0.057551 -1.154408
  C 2.381435 0.117555 -2.549736
  C 0.882330 0.313727 -2.747949
  C 0.533840 0.374728 -4.236909
  H 3.994977 -0.035174 -1.127841
  H 0.570033 0.242988 1.487174
  H 1.651787 -0.898639 0.148076
  H 0.092627 0.414020 -0.279345
  H 3.600410 0.996279 1.436840
  H 4.052335 -0.678738 1.145298
  H 2.678190 -0.802156 -3.077733
  H 2.900437 0.935348 -3.062598
  H 0.570357 1.246853 -2.271289
  H 0.334225 -0.513992 -2.293664
  H 1.052551 1.200307 -4.717138
  H -0.533781 0.515381 -4.375288
  H 0.824538 -0.545780 -4.735897
 21
 76.764598
  C 0.852647 0.265002 0.463394
  C 2.262564 -0.044148 0.108512
  C 3.212133 -0.009415 1.298681
  H 2.706578 -0.316245 2.210675
  C 2.915048 0.058235 -1.153770
  C 2.382481 0.112921 -2.549514
  C 0.885106 0.313617 -2.751184
  C 0.540287 0.373408 -4.239118
  H 3.990358 -0.043610 -1.125224
  H 0.568551 0.231315 1.493943
  H 1.690213 -0.935230 0.133794
  H 0.091539 0.419192 -0.268722
  H 3.583193 1.003302 1.441601
  H 4.064584 -0.664272 1.137760
  H 2.676326 -0.809124 -3.074222
  H 2.905745 0.927215 -3.065423
  H 0.575440 1.247198 -2.276364
  H 0.334819 -0.509653 -2.297643
  H 1.063471 1.198785 -4.720037
  H -0.528363 0.517212 -4.379776
  H 0.830098 -0.550596 -4.737231
 21
 77.031593
  C 0.864783 0.317808 0.469860
  C 2.256724 -0.056665 0.114336
  C 3.211388 -0.019024 1.301876
  H 2.713509 -0.344012 2.211588
  C 2.918204 0.064690 -1.155467
  C 2.386197 0.111972 -2.548907
  C 0.888822 0.312233 -2.751760
  C 0.544374 0.366009 -4.239563
  H 3.993708 -0.044052 -1.124743
  H 0.566389 0.222337 1.493710
  H 1.729454 -0.976109 0.106410
  H 0.099605 0.445034 -0.264796
  H 3.564882 0.997789 1.453952
  H 4.073529 -0.658646 1.130149
  H 2.679742 -0.812268 -3.068991
  H 2.911371 0.922475 -3.069327
  H 0.578783 1.247061 -2.280861
  H 0.337945 -0.510257 -2.294954
  H 1.066353 1.188181 -4.722460
  H -0.527050 0.509119 -4.381311
  H 0.834988 -0.559199 -4.733873
 21
 76.724475
  C 0.881293 0.376922 0.479552
  C 2.249475 -0.065300 0.118355
  C 3.210171 -0.041438 1.303675
  H 2.717337 -0.386685 2.208709
  C 2.921034 0.077822 -1.156212
  C 2.390005 0.114509 -2.548457
  C 0.891731 0.304415 -2.752828
  C 0.547681 0.349925 -4.240940
  H 3.996840 -0.031765 -1.122131
  H 0.568500 0.221012 1.493552
  H 1.764361 -1.007772 0.068795
  H 0.114042 0.495244 -0.256434
  H 3.555458 0.974828 1.472025
  H 4.076134 -0.672047 1.117384
  H 2.689381 -0.808973 -3.063440
  H 2.912510 0.926090 -3.074423
  H 0.575854 1.238319 -2.285586
  H 0.345958 -0.520639 -2.291643
  H 1.063174 1.174260 -4.727058
  H -0.522469 0.484737 -4.382649
  H 0.844005 -0.576972 -4.732509
