 26
 0.000000
  C 0.980165 0.152243 0.431210
  C 2.454134 0.136292 0.390780
  C 3.234750 0.603257 1.551431
  H 2.631425 0.938565 2.385787
  C 3.056644 -0.330915 -0.771662
  C 4.433475 -0.414136 -0.979631
  C 5.116786 -0.865324 -2.104931
  C 4.620146 -1.387481 -3.407283
  C 3.130794 -1.506804 -3.705822
  C 2.922866 -2.069627 -5.109625
  O 6.437688 -0.860010 -2.092111
  H 0.587336 0.529845 1.370236
  H 0.590317 -0.854026 0.271698
  H 0.589879 0.767704 -0.380529
  H 3.887555 1.423138 1.244992
  H 3.888068 -0.200128 1.897798
  H 2.393360 -0.647012 -1.557917
  H 5.050896 -0.081699 -0.151465
  H 5.080752 -2.374288 -3.532460
  H 5.081286 -0.760880 -4.179546
  H 2.653816 -0.527446 -3.656154
  H 2.653411 -2.180351 -2.993426
  H 3.367465 -1.420704 -5.860511
  H 1.861012 -2.155951 -5.325585
  H 3.367120 -3.057723 -5.204125
  H 6.810101 -0.524684 -1.254652
 26
 1.662931
  C 0.976283 0.217781 0.439030
  C 2.447926 0.140633 0.390448
  C 3.233745 0.506382 1.584224
  H 2.595101 0.806335 2.408401
  C 3.036739 -0.278365 -0.796405
  C 4.410412 -0.401812 -0.984964
  C 5.104145 -0.851676 -2.103265
  C 4.616863 -1.401787 -3.394800
  C 3.130188 -1.545313 -3.691691
  C 2.935732 -2.122772 -5.091701
  O 6.425651 -0.900114 -2.047972
  H 0.609395 0.551289 1.404065
  H 0.539877 -0.755333 0.208307
  H 0.608913 0.893991 -0.334602
  H 3.917225 1.325102 1.357423
  H 3.849679 -0.333003 1.908767
  H 2.369695 -0.517253 -1.606380
  H 5.039685 -0.162421 -0.135929
  H 5.099072 -2.380647 -3.506527
  H 5.075285 -0.783012 -4.175636
  H 2.640542 -0.572318 -3.652800
  H 2.663847 -2.219454 -2.972629
  H 3.371597 -1.471573 -5.845748
  H 1.876973 -2.231544 -5.312130
  H 3.399918 -3.102543 -5.177082
  H 6.848016 -0.250174 -1.457722
 26
 7.158664
  C 0.958574 0.189822 0.471635
  C 2.429075 0.126157 0.412298
  C 3.222126 0.554503 1.578025
  H 2.588387 0.891246 2.391932
  C 3.012891 -0.338896 -0.761207
  C 4.388713 -0.458147 -0.952659
  C 5.090932 -0.915467 -2.059779
  C 4.623565 -1.442565 -3.363190
  C 3.140286 -1.547340 -3.691104
  C 2.957073 -2.074630 -5.112321
  O 6.422403 -1.003738 -1.934341
  H 0.596546 0.562034 1.424208
  H 0.531118 -0.796954 0.286169
  H 0.576683 0.826012 -0.328609
  H 3.901469 1.362478 1.305734
  H 3.845957 -0.265069 1.936551
  H 2.343832 -0.624538 -1.554384
  H 5.034529 -0.215358 -0.119077
  H 5.088064 -2.430968 -3.475565
  H 5.112319 -0.829394 -4.130368
  H 2.670018 -0.566073 -3.625074
  H 2.648596 -2.234974 -3.002310
  H 3.416154 -1.407284 -5.838023
  H 1.900126 -2.156464 -5.352228
  H 3.404575 -3.059583 -5.223229
  H 6.911871 -0.181837 -1.772381
 26
 10.156370
  C 0.939467 0.114552 0.507985
  C 2.409270 0.106094 0.426927
  C 3.201612 0.689851 1.521696
  H 2.568256 1.098199 2.302488
  C 2.996026 -0.459199 -0.701481
  C 4.372884 -0.542967 -0.903682
  C 5.085968 -1.005277 -2.000394
  C 4.637469 -1.469263 -3.332937
  C 3.156617 -1.509866 -3.687697
  C 2.976808 -1.958473 -5.136064
  O 6.416283 -1.090657 -1.807807
  H 0.575826 0.571830 1.422130
  H 0.552568 -0.903431 0.436815
  H 0.518449 0.644128 -0.348401
  H 3.854161 1.479149 1.148282
  H 3.855687 -0.065304 1.959702
  H 2.329863 -0.860429 -1.446263
  H 5.035336 -0.219212 -0.110696
  H 5.067554 -2.470445 -3.467616
  H 5.155655 -0.849419 -4.075173
  H 2.716500 -0.518735 -3.573435
  H 2.633595 -2.215728 -3.042273
  H 3.466842 -1.270882 -5.821579
  H 1.921354 -1.993883 -5.393110
  H 3.394050 -2.950787 -5.291013
  H 6.977773 -0.353965 -2.088506
 26
 5.787357
  C 0.932391 0.014690 0.528799
  C 2.399437 0.091570 0.414755
  C 3.166473 0.863995 1.407363
  H 2.517050 1.339970 2.134683
  C 3.006806 -0.573316 -0.644357
  C 4.383946 -0.606218 -0.856201
  C 5.105830 -1.078002 -1.946451
  C 4.658267 -1.469221 -3.307399
  C 3.177469 -1.438901 -3.668160
  C 2.989712 -1.796993 -5.140383
  O 6.416080 -1.156694 -1.722974
  H 0.553105 0.563778 1.384259
  H 0.614628 -1.026709 0.601887
  H 0.463185 0.398602 -0.378322
  H 3.772237 1.628374 0.920798
  H 3.863836 0.211769 1.934974
  H 2.358110 -1.107845 -1.317968
  H 5.033033 -0.190749 -0.092689
  H 5.046328 -2.480769 -3.481817
  H 5.193940 -0.833039 -4.022995
  H 2.769853 -0.442777 -3.494277
  H 2.628062 -2.163391 -3.067694
  H 3.507632 -1.089857 -5.784111
  H 1.935161 -1.780573 -5.402095
  H 3.372175 -2.793572 -5.350248
  H 7.018212 -0.750066 -2.367562
 26
 6.062303
  C 0.925983 -0.085215 0.507899
  C 2.389162 0.028842 0.344531
  C 3.132452 1.069152 1.084767
  H 2.468690 1.715457 1.649379
  C 3.026956 -0.835698 -0.527928
  C 4.405725 -0.825203 -0.760133
  C 5.140732 -1.205579 -1.875693
  C 4.694213 -1.428844 -3.274671
  C 3.199415 -1.391100 -3.568634
  C 2.947604 -1.558999 -5.063031
  O 6.436370 -1.327673 -1.621676
  H 0.532795 0.634643 1.217643
  H 0.665009 -1.092703 0.838414
  H 0.422239 0.048361 -0.451490
  H 3.731923 1.679416 0.410785
  H 3.835375 0.597950 1.774158
  H 2.421898 -1.574972 -1.024190
  H 5.092364 -0.536836 0.030704
  H 5.086075 -2.407076 -3.577442
  H 5.194111 -0.690253 -3.911335
  H 2.781635 -0.436599 -3.242267
  H 2.688087 -2.190445 -3.037031
  H 3.432534 -0.769292 -5.632009
  H 1.882924 -1.520636 -5.274216
  H 3.326764 -2.516166 -5.415477
  H 7.051460 -1.047602 -2.322913
 26
 17.025857
  C 0.928782 -0.175277 0.553811
  C 2.370147 -0.037636 0.266727
  C 3.104110 1.153450 0.726023
  H 2.448310 1.876075 1.190865
  C 3.009328 -1.032901 -0.441168
  C 4.391880 -1.038446 -0.692116
  C 5.133891 -1.299130 -1.827302
  C 4.715794 -1.388686 -3.244270
  C 3.226332 -1.183086 -3.512660
  C 2.929956 -1.409855 -4.993691
  O 6.414135 -1.505766 -1.526154
  H 0.527152 0.692584 1.064936
  H 0.753793 -1.062471 1.163656
  H 0.366304 -0.335540 -0.368062
  H 3.623834 1.633709 -0.094719
  H 3.870303 0.855396 1.439959
  H 2.433307 -1.899817 -0.729893
  H 5.185928 -0.911402 0.052321
  H 4.990151 -2.407354 -3.557054
  H 5.310545 -0.706903 -3.856637
  H 2.959787 -0.156769 -3.264063
  H 2.648196 -1.886943 -2.924293
  H 3.500807 -0.723909 -5.612520
  H 1.872704 -1.260798 -5.198598
  H 3.187469 -2.424411 -5.288762
  H 7.082503 -1.037387 -2.064441
 26
 36.066968
  C 0.925321 -0.060431 0.582553
  C 2.367835 0.002201 0.334894
  C 3.140974 1.146885 0.808859
  H 2.510081 1.917537 1.241064
  C 2.972255 -1.036207 -0.364955
  C 4.313941 -1.025844 -0.749370
  C 5.062843 -1.375090 -1.866374
  C 4.739599 -1.486389 -3.296575
  C 3.247317 -1.328876 -3.588370
  C 2.959027 -1.432458 -5.085568
  O 6.342386 -1.473218 -1.457720
  H 0.552232 0.853437 1.028280
  H 0.692300 -0.906644 1.229756
  H 0.384266 -0.230396 -0.349137
  H 3.745465 1.577150 0.012841
  H 3.841238 0.819244 1.575358
  H 2.377346 -1.901631 -0.613134
  H 5.287291 -0.879232 -0.166874
  H 5.114309 -2.425815 -3.712823
  H 5.262296 -0.675478 -3.817382
  H 2.873000 -0.377498 -3.197164
  H 2.690917 -2.114027 -3.080158
  H 3.483961 -0.649485 -5.631221
  H 1.895859 -1.311952 -5.270416
  H 3.268808 -2.396809 -5.477757
  H 7.039923 -0.913737 -1.855300
 26
 63.898294
  C 0.909012 -0.009820 0.854711
  C 2.320544 0.031596 0.408914
  C 3.167647 1.197809 0.750321
  H 2.595638 1.976402 1.245020
  C 2.820910 -1.013727 -0.335192
  C 4.107166 -1.074115 -0.838692
  C 4.889901 -1.351251 -1.860444
  C 4.727592 -1.472786 -3.326395
  C 3.268126 -1.347288 -3.757035
  C 3.123406 -1.481825 -5.266648
  O 6.215235 -1.486580 -1.299238
  H 0.629439 0.883105 1.405114
  H 0.738757 -0.881333 1.488663
  H 0.240888 -0.119439 -0.000352
  H 3.624397 1.608940 -0.149243
  H 3.978271 0.895999 1.412379
  H 2.189824 -1.886125 -0.475775
  H 5.523957 -1.069485 -0.293491
  H 5.117844 -2.449407 -3.627987
  H 5.319681 -0.706910 -3.834634
  H 2.873475 -0.381795 -3.436825
  H 2.673838 -2.118500 -3.266125
  H 3.695889 -0.713300 -5.781249
  H 2.081992 -1.377801 -5.559301
  H 3.473898 -2.454175 -5.604369
  H 6.909335 -0.902095 -1.664816
 26
 55.161517
  C 0.859738 -0.011168 0.683807
  C 2.295142 0.013420 0.302793
  C 3.113316 1.210987 0.620974
  H 2.509656 2.013670 1.031508
  C 2.836729 -1.075927 -0.362087
  C 4.152425 -1.137761 -0.760854
  C 4.921644 -1.403432 -1.780780
  C 4.693784 -1.460472 -3.248423
  C 3.215435 -1.305982 -3.616993
  C 2.990354 -1.377482 -5.123925
  O 6.314130 -1.563537 -1.261064
  H 0.558006 0.916803 1.162049
  H 0.662902 -0.841569 1.359952
  H 0.242881 -0.167908 -0.201865
  H 3.611730 1.590579 -0.267658
  H 3.884377 0.957989 1.347444
  H 2.230582 -1.964447 -0.484347
  H 5.933966 -1.256729 -0.350744
  H 5.056019 -2.433458 -3.593381
  H 5.262172 -0.673874 -3.749501
  H 2.839483 -0.352825 -3.244631
  H 2.643787 -2.093127 -3.121550
  H 3.534872 -0.589237 -5.638546
  H 1.933978 -1.258144 -5.356555
  H 3.313316 -2.336633 -5.524251
  H 7.033926 -0.990803 -1.615605
 26
 47.291632
  C 0.872805 0.038763 0.998963
  C 2.238352 0.043589 0.418641
  C 3.094120 1.255562 0.547705
  H 2.553231 2.079292 1.001813
  C 2.706720 -1.078408 -0.244146
  C 3.927518 -1.175528 -0.835821
  C 4.771011 -1.413037 -1.798057
  C 4.700539 -1.469986 -3.289807
  C 3.258626 -1.307078 -3.797791
  C 3.198692 -1.403208 -5.328002
  O 6.179622 -1.629908 -1.226724
  H 0.631972 0.989584 1.465475
  H 0.777282 -0.747076 1.744328
  H 0.126388 -0.170533 0.227516
  H 3.469589 1.574225 -0.419037
  H 3.960902 1.028904 1.179635
  H 2.090340 -1.974772 -0.229929
  H 5.913635 -1.352950 -0.318256
  H 5.087428 -2.450130 -3.610283
  H 5.326319 -0.701399 -3.734663
  H 2.867914 -0.344287 -3.479206
  H 2.624391 -2.090121 -3.358933
  H 3.812069 -0.632937 -5.787650
  H 2.176122 -1.275619 -5.680085
  H 3.553492 -2.374666 -5.673664
  H 6.890537 -1.060750 -1.631253
 26
 43.934670
  C 0.933876 0.140326 1.189549
  C 2.231047 0.098799 0.469510
  C 3.116346 1.291643 0.460704
  H 2.637957 2.143800 0.933471
  C 2.592325 -1.055327 -0.196098
  C 3.724053 -1.227851 -0.911039
  C 4.610782 -1.460811 -1.795650
  C 4.692195 -1.528819 -3.271970
  C 3.313960 -1.337624 -3.908675
  C 3.400673 -1.427316 -5.427678
  O 6.052345 -1.735684 -1.194815
  H 0.759212 1.108359 1.648980
  H 0.902949 -0.624206 1.967530
  H 0.110003 -0.077662 0.508866
  H 3.387065 1.558363 -0.560537
  H 4.042371 1.083730 0.996228
  H 1.944293 -1.920130 -0.112599
  H 5.907572 -1.488448 -0.258254
  H 5.087555 -2.508538 -3.551152
  H 5.370729 -0.764215 -3.656686
  H 2.911299 -0.364523 -3.623515
  H 2.631180 -2.102756 -3.536968
  H 4.069549 -0.666581 -5.823987
  H 2.420274 -1.279904 -5.873510
  H 3.768995 -2.402820 -5.737255
  H 6.749005 -1.176646 -1.603761
 26
 43.914765
  C 0.993249 0.269565 1.385028
  C 2.204702 0.150407 0.541900
  C 3.111481 1.317987 0.368140
  H 2.704137 2.222525 0.822328
  C 2.467529 -1.065006 -0.083118
  C 3.511996 -1.295004 -0.933907
  C 4.340441 -1.471349 -1.861712
  C 4.617289 -1.544725 -3.290826
  C 3.314088 -1.367731 -4.086107
  C 3.591750 -1.462583 -5.586908
  O 6.037638 -1.846320 -1.070421
  H 0.887263 1.271513 1.808272
  H 1.018699 -0.461070 2.206353
  H 0.102146 0.028113 0.795323
  H 3.300907 1.498577 -0.698453
  H 4.078774 1.116008 0.832629
  H 1.802839 -1.910134 0.097926
  H 5.812373 -1.582292 -0.157464
  H 5.050668 -2.527001 -3.518656
  H 5.332185 -0.770006 -3.590719
  H 2.872022 -0.392142 -3.853195
  H 2.597809 -2.142602 -3.791837
  H 4.297929 -0.692089 -5.904973
  H 2.669361 -1.326070 -6.146362
  H 4.005534 -2.439968 -5.847119
  H 6.807890 -1.330886 -1.373639
 26
 44.648031
  C 1.033796 0.391876 1.486725
  C 2.200131 0.197766 0.611551
  C 3.260255 1.216382 0.547553
  H 3.011097 2.098507 1.125436
  C 2.279235 -0.960790 -0.144865
  C 3.267385 -1.238855 -1.047900
  C 4.068429 -1.389118 -1.970737
  C 4.509551 -1.517036 -3.327205
  C 3.300507 -1.479872 -4.282519
  C 3.762027 -1.654454 -5.720639
  O 5.986938 -1.647945 -1.010890
  H 1.074927 1.332884 2.020880
  H 0.958031 -0.420642 2.208147
  H 0.116116 0.345773 0.900230
  H 3.449747 1.496130 -0.486225
  H 4.195002 0.810513 0.932821
  H 1.508259 -1.711806 -0.041336
  H 5.670982 -1.335381 -0.159416
  H 5.015096 -2.477916 -3.437312
  H 5.214792 -0.728728 -3.583912
  H 2.786663 -0.526239 -4.174228
  H 2.602384 -2.273013 -4.021100
  H 4.453823 -0.868013 -6.005346
  H 2.907510 -1.613944 -6.391574
  H 4.253826 -2.612188 -5.858461
  H 6.835390 -1.219255 -1.182239
