 25
 0.000000
  H 1.475709 0.178256 0.494977
  C 2.554804 0.150630 0.425984
  C 3.321958 0.615504 1.582363
  C 2.470028 1.086941 2.755506
  C 3.337385 1.554538 3.919278
  C 3.089831 -0.322578 -0.751617
  C 4.465484 -0.424893 -1.007185
  C 5.084441 -0.881027 -2.144563
  C 4.578400 -1.391796 -3.418056
  C 3.090754 -1.502916 -3.695545
  H 2.943898 -1.903841 -4.695239
  H 6.168356 -0.869675 -2.116517
  H 3.991170 1.428548 1.272144
  H 3.991278 -0.185979 1.921049
  H 1.826209 0.273808 3.095737
  H 1.826206 1.909474 2.438520
  H 3.971984 0.748954 4.280949
  H 2.715282 1.886694 4.746012
  H 3.971965 2.386340 3.623008
  H 2.394484 -0.628985 -1.513804
  H 5.128307 -0.106379 -0.214155
  H 5.047705 -2.376732 -3.558326
  H 5.048083 -0.777141 -4.200159
  H 2.607240 -0.530187 -3.653209
  H 2.607017 -2.176799 -2.992813
 25
 0.025640
  H 1.496270 0.064294 0.567289
  C 2.572355 0.061279 0.464804
  C 3.329689 0.611682 1.589599
  C 2.468791 1.082995 2.755721
  C 3.323401 1.627111 3.893364
  C 3.093922 -0.415224 -0.718327
  C 4.470624 -0.548717 -0.969404
  C 5.090364 -0.942666 -2.132615
  C 4.576684 -1.358334 -3.436638
  C 3.085893 -1.429140 -3.717602
  H 2.930369 -1.771496 -4.738615
  H 6.174428 -0.942261 -2.092403
  H 3.952008 1.444953 1.238166
  H 4.050714 -0.137340 1.943528
  H 1.862605 0.254173 3.124042
  H 1.786853 1.863994 2.415451
  H 3.998319 0.863934 4.273370
  H 2.695607 1.957959 4.714217
  H 3.917061 2.475953 3.563093
  H 2.381145 -0.689171 -1.485518
  H 5.128101 -0.303964 -0.147235
  H 5.034791 -2.335376 -3.651212
  H 5.060658 -0.704882 -4.178159
  H 2.617524 -0.451504 -3.620425
  H 2.589288 -2.135584 -3.055112
 25
 0.261435
  H 1.500023 -0.023240 0.595427
  C 2.571381 0.008622 0.484500
  C 3.324540 0.604211 1.589439
  C 2.465902 1.077424 2.756172
  C 3.319352 1.664249 3.877364
  C 3.096274 -0.464336 -0.699356
  C 4.470617 -0.590741 -0.952334
  C 5.089857 -0.954725 -2.128448
  C 4.571112 -1.337666 -3.441454
  C 3.080162 -1.389977 -3.721653
  H 2.921101 -1.705090 -4.746933
  H 6.177503 -0.962341 -2.091843
  H 3.926369 1.446871 1.211954
  H 4.069022 -0.122018 1.952787
  H 1.883719 0.242008 3.148457
  H 1.763455 1.834571 2.410188
  H 4.015050 0.923262 4.266158
  H 2.690249 1.996649 4.699380
  H 3.889558 2.519802 3.525235
  H 2.394460 -0.730455 -1.476367
  H 5.128603 -0.387049 -0.117150
  H 5.025098 -2.309389 -3.677362
  H 5.061361 -0.667410 -4.167619
  H 2.621525 -0.413306 -3.600941
  H 2.579886 -2.109778 -3.077192
 25
 0.309703
  H 1.507381 -0.106488 0.640085
  C 2.581394 -0.047528 0.513781
  C 3.326268 0.591408 1.597701
  C 2.461346 1.071321 2.759050
  C 3.307693 1.694513 3.862957
  C 3.101102 -0.501797 -0.677812
  C 4.476260 -0.620390 -0.947920
  C 5.088683 -0.960906 -2.130765
  C 4.566975 -1.314114 -3.450016
  C 3.076518 -1.364325 -3.723632
  H 2.914350 -1.647580 -4.760427
  H 6.172714 -0.967801 -2.098653
  H 3.906763 1.433730 1.199385
  H 4.087846 -0.106863 1.970690
  H 1.894584 0.232703 3.172035
  H 1.741478 1.812110 2.400231
  H 4.017608 0.974733 4.262787
  H 2.675610 2.032177 4.680372
  H 3.860773 2.552306 3.491519
  H 2.385763 -0.762267 -1.443150
  H 5.138517 -0.427122 -0.113446
  H 5.020027 -2.280062 -3.715131
  H 5.046116 -0.623412 -4.162538
  H 2.612717 -0.393611 -3.568348
  H 2.584769 -2.106028 -3.103529
 25
 0.846422
  H 1.544938 -0.284661 0.718215
  C 2.605934 -0.149077 0.554544
  C 3.333485 0.564707 1.607905
  C 2.456076 1.055547 2.755307
  C 3.278789 1.746317 3.817577
  C 3.112766 -0.589151 -0.647709
  C 4.486845 -0.665588 -0.931277
  C 5.094261 -0.958987 -2.132007
  C 4.560943 -1.273812 -3.451045
  C 3.057993 -1.296450 -3.708084
  H 2.877554 -1.542053 -4.752344
  H 6.175059 -0.954801 -2.117068
  H 3.893851 1.411341 1.172010
  H 4.114388 -0.101377 2.005788
  H 1.924015 0.214594 3.194641
  H 1.709371 1.755414 2.372975
  H 4.017640 1.065243 4.242987
  H 2.641300 2.091285 4.623155
  H 3.801232 2.610911 3.404914
  H 2.394199 -0.827211 -1.411509
  H 5.151364 -0.500128 -0.097500
  H 5.002969 -2.240623 -3.748113
  H 5.039538 -0.560021 -4.147963
  H 2.612974 -0.328831 -3.516613
  H 2.560632 -2.056876 -3.101615
 25
 1.091599
  H 1.547711 -0.262323 0.707658
  C 2.617981 -0.163429 0.571575
  C 3.333782 0.552037 1.627707
  C 2.444228 1.084787 2.744739
  C 3.265361 1.771113 3.829677
  C 3.121670 -0.570779 -0.640994
  C 4.491951 -0.710010 -0.924906
  C 5.088047 -1.019190 -2.124163
  C 4.548688 -1.293894 -3.455581
  C 3.056518 -1.269861 -3.723377
  H 2.879641 -1.493003 -4.772394
  H 6.171984 -1.057230 -2.100958
  H 3.925539 1.369656 1.196333
  H 4.086536 -0.125091 2.059401
  H 1.872475 0.266040 3.187417
  H 1.731097 1.800700 2.332260
  H 3.973915 1.079402 4.278492
  H 2.616348 2.144020 4.617733
  H 3.818252 2.614215 3.424019
  H 2.390717 -0.748539 -1.418603
  H 5.160164 -0.594425 -0.082221
  H 4.965075 -2.261776 -3.772150
  H 5.047842 -0.585369 -4.134321
  H 2.634168 -0.290425 -3.516800
  H 2.535441 -2.024089 -3.137580
 25
 1.400216
  H 1.580977 -0.424115 0.781552
  C 2.635866 -0.250547 0.611746
  C 3.335519 0.530061 1.635219
  C 2.438008 1.077591 2.738107
  C 3.249715 1.803414 3.804288
  C 3.136884 -0.661827 -0.602207
  C 4.504378 -0.725802 -0.920096
  C 5.088181 -0.972196 -2.139346
  C 4.531784 -1.213894 -3.470056
  C 3.033927 -1.272125 -3.699727
  H 2.841859 -1.457972 -4.758039
  H 6.172501 -0.963088 -2.139804
  H 3.903585 1.343590 1.173437
  H 4.109649 -0.110732 2.086391
  H 1.876752 0.262205 3.202329
  H 1.714944 1.774837 2.306761
  H 3.979621 1.138798 4.258085
  H 2.597741 2.171032 4.590970
  H 3.776139 2.654396 3.380175
  H 2.400356 -0.886402 -1.357537
  H 5.184415 -0.585411 -0.088106
  H 5.001280 -2.132080 -3.848354
  H 4.966607 -0.437694 -4.120255
  H 2.556277 -0.329965 -3.435971
  H 2.577627 -2.085928 -3.137951
 25
 1.813073
  H 1.623556 -0.615853 0.883047
  C 2.656455 -0.371958 0.663987
  C 3.337686 0.490765 1.629346
  C 2.426671 1.096512 2.691625
  C 3.229215 1.857937 3.743040
  C 3.157352 -0.793697 -0.544014
  C 4.522617 -0.812621 -0.884820
  C 5.088229 -0.969898 -2.125486
  C 4.510015 -1.123162 -3.461471
  C 3.006875 -1.199253 -3.660915
  H 2.795107 -1.320191 -4.717398
  H 6.174026 -0.932560 -2.145329
  H 3.899121 1.276016 1.112409
  H 4.117884 -0.105811 2.126917
  H 1.845970 0.311665 3.177187
  H 1.723874 1.779976 2.217742
  H 3.947706 1.204051 4.235438
  H 2.567925 2.260855 4.504278
  H 3.770550 2.688599 3.294404
  H 2.422227 -1.058701 -1.291496
  H 5.212328 -0.713615 -0.058145
  H 4.983326 -2.012563 -3.905925
  H 4.918393 -0.302953 -4.069421
  H 2.518170 -0.289248 -3.329393
  H 2.581579 -2.054792 -3.143559
 25
 2.470066
  H 1.698889 -0.786835 0.965903
  C 2.707580 -0.473618 0.712572
  C 3.351128 0.458244 1.637148
  C 2.413556 1.085832 2.660232
  C 3.181300 1.910240 3.687887
  C 3.207051 -0.894989 -0.494653
  C 4.560822 -0.868575 -0.873553
  C 5.093979 -0.973461 -2.132932
  C 4.478951 -1.064921 -3.456646
  C 2.970780 -1.127329 -3.617629
  H 2.727675 -1.169068 -4.675378
  H 6.177719 -0.915151 -2.181733
  H 3.896367 1.230500 1.092760
  H 4.135170 -0.100700 2.174184
  H 1.844183 0.307836 3.172231
  H 1.700934 1.735671 2.146204
  H 3.902828 1.294995 4.222498
  H 2.498655 2.335901 4.419024
  H 3.714251 2.729784 3.211056
  H 2.456384 -1.173137 -1.227506
  H 5.270657 -0.776334 -0.061419
  H 4.935386 -1.932252 -3.953271
  H 4.872379 -0.217206 -4.036737
  H 2.493008 -0.244851 -3.203064
  H 2.558971 -2.020123 -3.154996
 25
 4.567453
  H 1.762002 -0.856291 1.004603
  C 2.767208 -0.541821 0.744181
  C 3.349801 0.477573 1.619077
  C 2.404277 0.999244 2.692990
  C 3.103256 2.006672 3.599256
  C 3.250729 -1.003247 -0.452928
  C 4.597090 -1.031234 -0.854786
  C 5.108054 -1.074372 -2.126415
  C 4.466260 -1.046084 -3.443523
  C 2.957389 -0.939010 -3.570057
  H 2.688656 -0.906078 -4.626226
  H 6.189645 -1.108106 -2.190012
  H 3.747605 1.305697 1.024405
  H 4.238456 0.037563 2.101229
  H 2.030941 0.170516 3.297070
  H 1.547217 1.482473 2.221592
  H 3.947657 1.548748 4.114235
  H 2.414720 2.379971 4.350562
  H 3.468268 2.855864 3.027591
  H 2.463543 -1.193538 -1.173427
  H 5.318919 -1.051653 -0.047529
  H 4.813295 -1.942877 -3.977271
  H 4.939588 -0.227815 -3.998591
  H 2.587690 -0.031877 -3.103322
  H 2.460173 -1.805543 -3.137158
 25
 6.417417
  H 1.770331 -0.791934 0.984077
  C 2.788864 -0.502592 0.736982
  C 3.345996 0.527120 1.616771
  C 2.396690 0.997529 2.710418
  C 3.070084 2.023434 3.615159
  C 3.259966 -0.992636 -0.453234
  C 4.598108 -1.097246 -0.861745
  C 5.102848 -1.136034 -2.136084
  C 4.461221 -1.048032 -3.451493
  C 2.953294 -0.919477 -3.570451
  H 2.681527 -0.865727 -4.621918
  H 6.183763 -1.182255 -2.203663
  H 3.691611 1.378389 1.020498
  H 4.263352 0.123578 2.072754
  H 2.070876 0.148739 3.311664
  H 1.513766 1.449416 2.260286
  H 3.951538 1.601923 4.095009
  H 2.385935 2.347474 4.393673
  H 3.373530 2.901432 3.049020
  H 2.441210 -1.100753 -1.165184
  H 5.319672 -1.171346 -0.056818
  H 4.798365 -1.927559 -4.019573
  H 4.944278 -0.209193 -3.972015
  H 2.597372 -0.015145 -3.085629
  H 2.447853 -1.786127 -3.150732
 25
 9.497213
  H 1.886251 -0.895357 1.062709
  C 2.873113 -0.543543 0.756270
  C 3.367676 0.553770 1.590904
  C 2.363132 1.052616 2.622747
  C 3.007154 2.062872 3.565766
  C 3.334578 -1.095975 -0.408562
  C 4.651131 -1.225442 -0.871156
  C 5.107862 -1.226150 -2.162541
  C 4.424950 -0.990297 -3.440900
  C 2.919955 -0.798955 -3.478176
  H 2.598693 -0.687671 -4.511511
  H 6.182423 -1.294120 -2.273708
  H 3.704969 1.379086 0.956633
  H 4.275855 0.198467 2.100161
  H 1.978451 0.216277 3.207901
  H 1.522991 1.528350 2.117192
  H 3.877557 1.633816 4.061665
  H 2.299390 2.370166 4.330714
  H 3.322789 2.953425 3.025938
  H 2.465951 -1.191666 -1.063145
  H 5.396575 -1.346011 -0.094773
  H 4.699338 -1.826592 -4.097039
  H 4.922814 -0.126794 -3.898524
  H 2.625357 0.093024 -2.934036
  H 2.402913 -1.666233 -3.071915
 25
 16.007381
  H 1.917680 -0.883839 1.067218
  C 2.890008 -0.545657 0.739634
  C 3.346362 0.599255 1.548741
  C 2.365781 1.014720 2.637997
  C 2.955626 2.123840 3.502159
  C 3.366727 -1.139915 -0.388799
  C 4.662848 -1.331077 -0.877072
  C 5.102943 -1.294301 -2.174014
  C 4.416817 -0.970678 -3.431440
  C 2.929312 -0.658707 -3.420064
  H 2.598023 -0.462749 -4.431507
  H 6.170005 -1.430624 -2.316262
  H 3.572563 1.449463 0.894649
  H 4.305483 0.305663 2.003482
  H 2.126421 0.170446 3.276528
  H 1.441533 1.375585 2.183637
  H 3.878929 1.800345 3.969704
  H 2.251314 2.406644 4.290760
  H 3.163792 3.015546 2.905724
  H 2.448799 -1.153541 -0.989433
  H 5.412797 -1.513389 -0.110373
  H 4.607476 -1.807974 -4.107812
  H 4.978084 -0.135436 -3.876695
  H 2.717826 0.220227 -2.814181
  H 2.357719 -1.507603 -3.052266
