 32
 0.000000
  C 0.950143 0.144471 0.410089
  C 2.426505 0.138948 0.396446
  C 3.224704 0.604818 1.556184
  C 2.464586 1.098462 2.784862
  C 3.438693 1.535892 3.874351
  C 3.036559 -0.327353 -0.764451
  C 4.413311 -0.408344 -0.967067
  C 5.105469 -0.857666 -2.087272
  C 4.617433 -1.381514 -3.392759
  C 3.128625 -1.504474 -3.699306
  C 2.934785 -2.068529 -5.104891
  O 6.422702 -0.847627 -2.062849
  H 0.531187 0.516956 1.336984
  H 0.574387 -0.865348 0.236324
  H 0.574314 0.753264 -0.414092
  H 3.882893 1.412994 1.217299
  H 3.882752 -0.213286 1.870614
  H 1.828896 0.305429 3.181785
  H 1.829194 1.945920 2.522885
  H 4.073796 0.708963 4.184244
  H 2.895905 1.887005 4.748331
  H 4.074119 2.347211 3.526193
  H 2.375357 -0.643774 -1.551902
  H 5.035818 -0.077782 -0.144299
  H 5.083948 -2.367182 -3.514534
  H 5.084181 -0.753590 -4.162117
  H 2.648468 -0.527067 -3.652446
  H 2.648488 -2.178389 -2.989859
  H 3.384062 -1.418024 -5.851553
  H 1.875651 -2.159676 -5.332009
  H 3.384170 -3.054692 -5.194752
  H 6.799618 -0.512767 -1.227314
 32
 16.463542
  C 0.925016 0.163097 0.457585
  C 2.404561 0.144253 0.410352
  C 3.233861 0.604651 1.555814
  C 2.507236 1.105279 2.801343
  C 3.511603 1.533725 3.867920
  C 2.987248 -0.323524 -0.754031
  C 4.410907 -0.420758 -0.997325
  C 5.002015 -0.865151 -2.105604
  C 4.617647 -1.395662 -3.428101
  C 3.150942 -1.534950 -3.775478
  C 3.004067 -2.099523 -5.183220
  O 6.245673 -0.768085 -1.864170
  H 0.529699 0.539101 1.392801
  H 0.537336 -0.842309 0.287972
  H 0.537036 0.771120 -0.360742
  H 3.892394 1.405445 1.203314
  H 3.892461 -0.217355 1.855595
  H 1.874834 0.316931 3.213478
  H 1.875117 1.959808 2.553263
  H 4.145807 0.700831 4.162754
  H 2.993444 1.890189 4.754661
  H 4.146203 2.338763 3.504425
  H 2.317634 -0.641722 -1.545752
  H 5.013743 -0.088950 -0.170605
  H 5.106008 -2.364489 -3.524866
  H 5.105996 -0.762498 -4.167643
  H 2.661337 -0.561111 -3.739275
  H 2.661304 -2.213865 -3.076478
  H 3.468383 -1.443238 -5.916340
  H 1.953831 -2.202883 -5.441093
  H 3.468317 -3.080483 -5.259715
  H 6.527906 -0.423612 -1.003430
 32
 60.735844
  C 0.918850 0.173063 0.492751
  C 2.392512 0.146567 0.422304
  C 3.233996 0.603622 1.553119
  C 2.526314 1.108257 2.804411
  C 3.546270 1.533563 3.856327
  C 2.951225 -0.320928 -0.739368
  C 4.466776 -0.433767 -1.020756
  C 4.954393 -0.880642 -2.137196
  C 4.642406 -1.406390 -3.453491
  C 3.166922 -1.550326 -3.817861
  C 3.032284 -2.114662 -5.232181
  O 6.140179 -0.725890 -1.748879
  H 0.538725 0.552824 1.434959
  H 0.525131 -0.830208 0.329328
  H 0.522885 0.780885 -0.320899
  H 3.889252 1.401820 1.191182
  H 3.890205 -0.222425 1.844032
  H 1.896184 0.323340 3.225801
  H 1.895606 1.965263 2.562446
  H 4.180371 0.697960 4.144248
  H 3.041506 1.893927 4.748969
  H 4.179677 2.335230 3.482888
  H 2.290802 -0.641878 -1.536249
  H 4.989163 -0.088856 -0.160465
  H 5.139532 -2.379975 -3.537138
  H 5.145356 -0.758205 -4.180761
  H 2.673264 -0.574455 -3.778516
  H 2.672676 -2.230545 -3.117584
  H 3.501174 -1.455843 -5.961324
  H 1.983329 -2.220498 -5.498977
  H 3.500076 -3.094962 -5.307084
  H 6.394209 -0.379670 -0.878985
 32
 118.446561
  C 0.903776 0.191850 0.547177
  C 2.366938 0.155570 0.447601
  C 3.217886 0.608499 1.564770
  C 2.519220 1.114092 2.817424
  C 3.542009 1.538351 3.860997
  C 2.911413 -0.314843 -0.721525
  C 4.596267 -0.446008 -1.046700
  C 4.957436 -0.899660 -2.180861
  C 4.671707 -1.428769 -3.508441
  C 3.192895 -1.565141 -3.860282
  C 3.034841 -2.131664 -5.279319
  O 6.131373 -0.716121 -1.720661
  H 0.551824 0.571703 1.490165
  H 0.499784 -0.814034 0.393624
  H 0.495832 0.807180 -0.261120
  H 3.869596 1.405889 1.199473
  H 3.871409 -0.217577 1.854616
  H 1.891477 0.332475 3.240668
  H 1.889487 1.968788 2.580314
  H 4.176148 0.702722 4.146059
  H 3.042137 1.898701 4.754144
  H 4.173450 2.339282 3.484287
  H 2.269336 -0.633167 -1.514381
  H 5.013239 -0.078692 -0.125967
  H 5.171164 -2.389786 -3.582061
  H 5.176775 -0.785068 -4.222149
  H 2.706397 -0.581613 -3.809668
  H 2.700278 -2.241215 -3.148989
  H 3.501885 -1.472860 -6.018293
  H 1.979889 -2.229628 -5.533909
  H 3.496117 -3.121150 -5.360470
  H 6.428657 -0.380494 -0.872249
 32
 148.150855
  C 0.757639 0.222655 0.619799
  C 2.262355 0.153132 0.439199
  C 3.182705 0.600579 1.545782
  C 2.532897 1.120765 2.828851
  C 3.597129 1.524951 3.830454
  C 2.673413 -0.308429 -0.708406
  C 4.754466 -0.460039 -1.084292
  C 4.997743 -0.921137 -2.238235
  C 4.734087 -1.447944 -3.559680
  C 3.252003 -1.577720 -3.887169
  C 3.074887 -2.137597 -5.295808
  O 6.259163 -0.697912 -1.677016
  H 0.512240 0.610379 1.595904
  H 0.321448 -0.774567 0.526308
  H 0.312352 0.869832 -0.139400
  H 3.811514 1.402417 1.154053
  H 3.810856 -0.250296 1.816613
  H 1.910054 0.349322 3.273881
  H 1.912174 1.984031 2.604537
  H 4.223804 0.676706 4.091021
  H 3.137640 1.896215 4.741312
  H 4.228363 2.312546 3.428368
  H 2.120935 -0.648171 -1.551824
  H 5.003354 -0.074325 -0.118509
  H 5.218343 -2.422591 -3.632097
  H 5.226032 -0.791135 -4.278308
  H 2.775043 -0.592137 -3.819495
  H 2.780893 -2.245941 -3.156083
  H 3.529123 -1.481192 -6.033988
  H 2.021829 -2.233819 -5.533615
  H 3.530467 -3.120864 -5.384508
  H 6.611518 -0.365966 -0.829064
 32
 159.204995
  C 0.589783 0.267188 0.729403
  C 2.086715 0.156354 0.466893
  C 3.085778 0.587822 1.531167
  C 2.510136 1.123279 2.837134
  C 3.637414 1.511641 3.795574
  C 2.461957 -0.306705 -0.687137
  C 4.997040 -0.481651 -1.141653
  C 5.135288 -0.947687 -2.309750
  C 4.842070 -1.466645 -3.611170
  C 3.334871 -1.575180 -3.879871
  C 3.095508 -2.130132 -5.279076
  O 6.466801 -0.715957 -1.738138
  H 0.392708 0.669708 1.715343
  H 0.124861 -0.713834 0.652297
  H 0.134372 0.919633 -0.007328
  H 3.697952 1.383420 1.098963
  H 3.692807 -0.287944 1.775654
  H 1.893567 0.371152 3.332116
  H 1.896758 2.007712 2.655852
  H 4.260361 0.652353 4.029135
  H 3.228444 1.896338 4.725504
  H 4.265648 2.285124 3.361032
  H 1.935387 -0.651773 -1.542585
  H 5.110805 -0.090740 -0.165420
  H 5.304897 -2.451092 -3.696510
  H 5.309047 -0.808530 -4.345941
  H 2.865708 -0.591684 -3.806083
  H 2.873414 -2.239634 -3.145706
  H 3.519605 -1.476754 -6.039099
  H 2.025254 -2.209217 -5.467666
  H 3.522385 -3.125678 -5.386102
  H 6.899162 -0.400798 -0.920009
 32
 161.052650
  C 0.428917 0.284066 0.864941
  C 1.910292 0.123848 0.526819
  C 2.972481 0.563111 1.524875
  C 2.480406 1.153988 2.843772
  C 3.662527 1.545783 3.732965
  C 2.249069 -0.373536 -0.624985
  C 5.212525 -0.568351 -1.186039
  C 5.282669 -1.012372 -2.371726
  C 4.949395 -1.494159 -3.672936
  C 3.430789 -1.554873 -3.880552
  C 3.115875 -2.067432 -5.283635
  O 6.654265 -0.800562 -1.798424
  H 0.294667 0.709092 1.853670
  H -0.057281 -0.690156 0.853622
  H -0.056334 0.926118 0.136598
  H 3.580084 1.326961 1.035703
  H 3.572451 -0.319133 1.761083
  H 1.871593 0.435611 3.400968
  H 1.875309 2.049474 2.672737
  H 4.273045 0.675944 3.971232
  H 3.303781 1.966327 4.671068
  H 4.284086 2.296855 3.247325
  H 1.702068 -0.743550 -1.466047
  H 5.300813 -0.077546 -0.232567
  H 5.381223 -2.491217 -3.803393
  H 5.404391 -0.826975 -4.411427
  H 2.988488 -0.566449 -3.765536
  H 2.978467 -2.222136 -3.148744
  H 3.527740 -1.406175 -6.044056
  H 2.038306 -2.111446 -5.430606
  H 3.511742 -3.070621 -5.435088
  H 7.152143 -0.501384 -1.013540
 32
 156.974961
  C 0.291156 0.372234 0.936026
  C 1.757679 0.202249 0.527127
  C 2.867659 0.574978 1.499091
  C 2.453089 1.135164 2.853329
  C 3.686284 1.455144 3.695774
  C 2.054202 -0.302649 -0.631263
  C 5.458800 -0.527745 -1.249355
  C 5.376635 -0.997609 -2.426768
  C 5.033215 -1.512761 -3.696870
  C 3.499360 -1.557367 -3.838236
  C 3.128237 -2.109158 -5.207480
  O 6.844607 -0.773840 -1.872994
  H 0.203487 0.788191 1.935936
  H -0.210988 -0.590424 0.920264
  H -0.215770 1.041150 0.237244
  H 3.494666 1.325990 1.014019
  H 3.461404 -0.322142 1.679919
  H 1.843177 0.410512 3.398119
  H 1.875041 2.052608 2.726161
  H 4.277088 0.558460 3.871498
  H 3.388961 1.855260 4.662379
  H 4.310785 2.198411 3.201692
  H 1.511275 -0.681355 -1.463426
  H 5.330141 -0.031125 -0.331126
  H 5.449531 -2.519492 -3.827383
  H 5.457571 -0.870190 -4.477062
  H 3.089863 -0.558575 -3.725688
  H 3.080705 -2.191435 -3.064262
  H 3.524555 -1.482235 -6.002597
  H 2.046934 -2.142106 -5.313004
  H 3.508736 -3.119218 -5.339792
  H 7.444127 -0.463960 -1.158742
 32
 152.528446
  C 0.303700 0.358582 0.949522
  C 1.756312 0.185701 0.513961
  C 2.882380 0.565541 1.464532
  C 2.493013 1.107498 2.836467
  C 3.739944 1.435923 3.653913
  C 2.028466 -0.295010 -0.659455
  C 5.429085 -0.509564 -1.219908
  C 5.247896 -0.925256 -2.411438
  C 5.008940 -1.505069 -3.663978
  C 3.469752 -1.517020 -3.869046
  C 3.153449 -2.139517 -5.220703
  O 6.810584 -0.698773 -1.709999
  H 0.233400 0.768438 1.949124
  H -0.203765 -0.603620 0.927991
  H -0.210163 1.025736 0.260435
  H 3.493319 1.323829 0.967221
  H 3.499149 -0.323801 1.618012
  H 1.902452 0.368103 3.381907
  H 1.895875 2.015779 2.730170
  H 4.348459 0.546635 3.802550
  H 3.460652 1.821322 4.631668
  H 4.341547 2.191074 3.152764
  H 1.486660 -0.643775 -1.506882
  H 5.183033 -0.032928 -0.302973
  H 5.398778 -2.525679 -3.704736
  H 5.484382 -0.920595 -4.456011
  H 3.085060 -0.499798 -3.830214
  H 3.001399 -2.094308 -3.074329
  H 3.601381 -1.571018 -6.030135
  H 2.077541 -2.149517 -5.371552
  H 3.513477 -3.162317 -5.275276
  H 7.406056 -0.379636 -1.001074
