12

H -2.437242160605284 0.6967155115968084 -0.05061167318082363
C -2.030069 0.566433 -0.015824
C -1.653845 -0.516936 0.650947
C -0.243575 -0.998565 0.813996
C 0.784508 -0.119984 0.106001
H 1.213328862579323 -0.2635487221494249 0.177770324965562
H -1.28151 1.173003 -0.507114
H -2.401958 -1.127481 1.144293
H -0.015422 -1.03862 1.885335
H -0.176008 -2.022973 0.432307
H 0.57527 -0.127258 -0.966994
H 0.667569 0.903073 0.473096
