 20
 0.000000
  C 0.965342 0.169087 0.472242
  C 2.424312 0.118196 0.345658
  H 3.042066 0.448322 1.166901
  C 3.008799 -0.346833 -0.811769
  C 4.391510 -0.418230 -0.990409
  C 5.111202 -0.863031 -2.099944
  C 4.648297 -1.388751 -3.410912
  C 3.167033 -1.517039 -3.730771
  H 3.054611 -1.918134 -4.731138
  O 6.426383 -0.842569 -2.049582
  H 0.636866 0.554879 1.432028
  H 0.542443 -0.827632 0.331042
  H 0.542361 0.790823 -0.319465
  H 2.357015 -0.665813 -1.605572
  H 4.985271 -0.079571 -0.147433
  H 5.122384 -2.370374 -3.525917
  H 5.122408 -0.758637 -4.172328
  H 2.674843 -0.548008 -3.702164
  H 2.674908 -2.197947 -3.040632
  H 6.793714 -0.506783 -1.209864
 20
 5.298233
  C 0.944634 0.164305 0.459993
  C 2.393027 0.122471 0.356606
  H 2.985775 0.458818 1.194142
  C 3.033300 -0.323914 -0.754901
  C 4.397539 -0.408370 -0.965722
  C 5.109874 -0.862129 -2.097956
  C 4.623579 -1.385663 -3.403588
  C 3.136451 -1.510312 -3.713412
  H 3.032927 -1.913731 -4.719671
  O 6.434655 -0.849509 -2.067248
  H 0.610280 0.549156 1.417798
  H 0.525987 -0.832889 0.298810
  H 0.526403 0.773081 -0.346267
  H 2.612680 -0.684450 -1.652729
  H 5.033128 -0.075929 -0.138085
  H 5.097608 -2.367729 -3.523496
  H 5.097256 -0.758371 -4.168885
  H 2.637656 -0.545208 -3.698417
  H 2.638181 -2.198087 -3.035791
  H 6.834196 -0.517270 -1.235409
 20
 15.460345
  C 0.929820 0.149174 0.419884
  C 2.384556 0.131221 0.380666
  H 2.940917 0.476776 1.244452
  C 3.083467 -0.305121 -0.706351
  C 4.439197 -0.399558 -0.941377
  C 5.097751 -0.857441 -2.086217
  C 4.585385 -1.376437 -3.381039
  C 3.103351 -1.502250 -3.691183
  H 3.008615 -1.906484 -4.700203
  O 6.410758 -0.858634 -2.092779
  H 0.544971 0.527015 1.361696
  H 0.537101 -0.851305 0.235189
  H 0.539745 0.746752 -0.404650
  H 2.855591 -0.684494 -1.652994
  H 5.120993 -0.085000 -0.156524
  H 5.056006 -2.355831 -3.505031
  H 5.054519 -0.752801 -4.147239
  H 2.598824 -0.538813 -3.685222
  H 2.600744 -2.196198 -3.021451
  H 6.835389 -0.528713 -1.269742
 20
 28.872655
  C 0.911743 0.132483 0.376701
  C 2.377564 0.132695 0.386260
  H 2.900099 0.483509 1.267940
  C 3.116345 -0.292473 -0.675026
  C 4.470422 -0.393917 -0.926752
  C 5.111076 -0.855883 -2.083248
  C 4.566880 -1.375107 -3.377882
  C 3.066305 -1.489544 -3.657577
  H 2.947707 -1.891315 -4.659177
  O 6.419261 -0.864692 -2.110051
  H 0.492267 0.502853 1.303767
  H 0.535829 -0.875941 0.176167
  H 0.539846 0.728768 -0.462853
  H 3.053635 -0.679944 -1.644848
  H 5.195722 -0.081405 -0.144181
  H 5.031657 -2.363474 -3.512568
  H 5.029569 -0.752269 -4.158416
  H 2.567354 -0.523834 -3.641399
  H 2.569883 -2.177960 -2.978088
  H 6.855679 -0.537902 -1.297000
 20
 43.151192
  C 0.900603 0.124253 0.355360
  C 2.358258 0.131352 0.384360
  H 2.863005 0.483670 1.273327
  C 3.110203 -0.289184 -0.666962
  C 4.480106 -0.396591 -0.934273
  C 5.114657 -0.859335 -2.092575
  C 4.557201 -1.373979 -3.374952
  C 3.057185 -1.478403 -3.628991
  H 2.920370 -1.879602 -4.627960
  O 6.430981 -0.872170 -2.129578
  H 0.469366 0.491063 1.276003
  H 0.533491 -0.883485 0.148955
  H 0.538109 0.718157 -0.486682
  H 3.188074 -0.676697 -1.638142
  H 5.230710 -0.091058 -0.168968
  H 5.014146 -2.361535 -3.514656
  H 5.011889 -0.755566 -4.158920
  H 2.564759 -0.511172 -3.604063
  H 2.567421 -2.161343 -2.941519
  H 6.880208 -0.543132 -1.311360
 20
 56.355888
  C 0.886384 0.135463 0.360042
  C 2.346858 0.119589 0.390418
  H 2.856125 0.450590 1.292929
  C 3.091472 -0.295279 -0.667700
  C 4.475068 -0.398785 -0.950989
  C 5.125211 -0.859079 -2.102965
  C 4.566753 -1.380219 -3.390002
  C 3.064591 -1.484593 -3.624058
  H 2.911550 -1.888137 -4.621930
  O 6.438411 -0.863523 -2.131750
  H 0.457185 0.493880 1.289879
  H 0.506344 -0.862390 0.135714
  H 0.533319 0.747315 -0.471751
  H 3.280817 -0.676106 -1.642418
  H 5.221486 -0.087656 -0.183404
  H 5.022485 -2.366460 -3.530886
  H 5.012693 -0.762930 -4.177630
  H 2.573188 -0.514676 -3.591181
  H 2.584115 -2.165345 -2.925017
  H 6.875633 -0.534675 -1.319174
 20
 66.674473
  C 0.854617 0.169639 0.330285
  C 2.341668 0.057561 0.374358
  H 2.834099 0.290913 1.318139
  C 3.087519 -0.312427 -0.661333
  C 4.478841 -0.398819 -0.996702
  C 5.149227 -0.850052 -2.130957
  C 4.585289 -1.381674 -3.401612
  C 3.079718 -1.493094 -3.562183
  H 2.875685 -1.910344 -4.544909
  O 6.468149 -0.839795 -2.170500
  H 0.447653 0.469542 1.282152
  H 0.438118 -0.799676 0.045950
  H 0.523177 0.867266 -0.440095
  H 3.341591 -0.658975 -1.648204
  H 5.199535 -0.075884 -0.212953
  H 5.036199 -2.365254 -3.539099
  H 5.000174 -0.776013 -4.206603
  H 2.589398 -0.522074 -3.523516
  H 2.635282 -2.166042 -2.831306
  H 6.908194 -0.504944 -1.358800
 20
 70.653149
  C 0.845718 0.192748 0.313469
  C 2.315621 0.009003 0.381601
  H 2.758539 0.151521 1.364352
  C 3.092123 -0.317875 -0.624682
  C 4.493973 -0.397262 -1.042447
  C 5.173856 -0.839196 -2.142814
  C 4.604256 -1.392020 -3.416760
  C 3.080269 -1.512120 -3.527869
  H 2.836919 -1.938990 -4.503300
  O 6.500579 -0.810712 -2.186294
  H 0.438859 0.448361 1.283327
  H 0.387578 -0.723023 -0.031075
  H 0.587229 0.965450 -0.393413
  H 3.381141 -0.638760 -1.648603
  H 5.169275 -0.043027 -0.255756
  H 5.067531 -2.384617 -3.551220
  H 5.000431 -0.775622 -4.240846
  H 2.583545 -0.536820 -3.484593
  H 2.664293 -2.189582 -2.777111
  H 6.927583 -0.472411 -1.386117
 20
 74.463348
  C 0.830769 0.207519 0.300757
  C 2.306876 -0.025556 0.396101
  H 2.724278 0.053847 1.410260
  C 3.096394 -0.314189 -0.595284
  C 4.503046 -0.391170 -1.063431
  C 5.186579 -0.839945 -2.167569
  C 4.606885 -1.401622 -3.426113
  C 3.092855 -1.525116 -3.503357
  H 2.830981 -1.955014 -4.463693
  O 6.510132 -0.803865 -2.221257
  H 0.405568 0.429574 1.291350
  H 0.341740 -0.683395 -0.105961
  H 0.616062 1.037498 -0.372443
  H 3.419037 -0.593410 -1.628200
  H 5.163973 -0.017607 -0.273788
  H 5.068361 -2.389374 -3.560287
  H 4.982711 -0.788631 -4.254339
  H 2.598385 -0.555315 -3.453733
  H 2.699027 -2.195661 -2.741682
  H 6.946519 -0.456802 -1.420883
 20
 77.695280
  C 0.833353 0.225005 0.297792
  C 2.297740 -0.062008 0.410517
  H 2.690519 -0.069487 1.434029
  C 3.094771 -0.306649 -0.586265
  C 4.503515 -0.375777 -1.081972
  C 5.192227 -0.833883 -2.177108
  C 4.609731 -1.413278 -3.426781
  C 3.088996 -1.546713 -3.490042
  H 2.821320 -1.991444 -4.446412
  O 6.517127 -0.786284 -2.227364
  H 0.397356 0.391122 1.277788
  H 0.327545 -0.607704 -0.174697
  H 0.666269 1.097722 -0.314996
  H 3.453517 -0.527177 -1.630887
  H 5.154971 0.019696 -0.282884
  H 5.075105 -2.400807 -3.553938
  H 4.975132 -0.805808 -4.265133
  H 2.587473 -0.575678 -3.444686
  H 2.706182 -2.210043 -2.710520
  H 6.952059 -0.425972 -1.428272
 20
 79.836179
  C 0.830075 0.239452 0.305210
  C 2.284920 -0.094114 0.421714
  H 2.659631 -0.177886 1.447200
  C 3.092265 -0.294093 -0.576752
  C 4.505535 -0.358063 -1.093208
  C 5.200325 -0.829645 -2.186704
  C 4.616042 -1.427200 -3.428635
  C 3.097451 -1.562125 -3.478067
  H 2.820867 -2.021360 -4.422622
  O 6.521100 -0.777285 -2.235594
  H 0.380769 0.356430 1.293866
  H 0.303949 -0.557389 -0.231400
  H 0.695640 1.162355 -0.257595
  H 3.486837 -0.454282 -1.642773
  H 5.139098 0.045928 -0.305490
  H 5.080602 -2.414788 -3.546082
  H 4.974655 -0.831187 -4.276305
  H 2.596709 -0.591592 -3.441622
  H 2.723042 -2.209518 -2.683274
  H 6.950022 -0.405557 -1.446562
 20
 81.309254
  C 0.825670 0.262044 0.313133
  C 2.269472 -0.143397 0.430526
  H 2.620157 -0.309872 1.444505
  C 3.089663 -0.295661 -0.563109
  C 4.505667 -0.343374 -1.103811
  C 5.203593 -0.821761 -2.198384
  C 4.620053 -1.438088 -3.426801
  C 3.105582 -1.585111 -3.466448
  H 2.825422 -2.064565 -4.409861
  O 6.523594 -0.759660 -2.248019
  H 0.361346 0.330722 1.301656
  H 0.278614 -0.466509 -0.282637
  H 0.741671 1.222958 -0.183467
  H 3.515338 -0.390379 -1.657376
  H 5.138201 0.086263 -0.317872
  H 5.089759 -2.419462 -3.535784
  H 4.968180 -0.850187 -4.281907
  H 2.596906 -0.617040 -3.439774
  H 2.741371 -2.223671 -2.655871
  H 6.951717 -0.371302 -1.462604
 20
 82.028639
  C 0.831158 0.261720 0.293995
  C 2.260520 -0.177658 0.435809
  H 2.573011 -0.412860 1.451374
  C 3.113550 -0.284425 -0.533813
  C 4.519535 -0.326986 -1.106785
  C 5.211581 -0.814715 -2.205703
  C 4.612160 -1.445289 -3.419627
  C 3.097334 -1.590414 -3.432450
  H 2.802418 -2.080849 -4.355027
  O 6.529748 -0.749177 -2.266215
  H 0.338278 0.281462 1.261994
  H 0.291094 -0.422932 -0.361794
  H 0.780487 1.254834 -0.149061
  H 3.556506 -0.304336 -1.662622
  H 5.146642 0.102681 -0.323566
  H 5.079196 -2.429868 -3.525315
  H 4.946399 -0.869202 -4.285893
  H 2.590154 -0.621143 -3.412135
  H 2.747804 -2.211484 -2.607191
  H 6.961119 -0.345123 -1.492987
 20
 80.135182
  C 0.843494 0.244490 0.241863
  C 2.262196 -0.220240 0.421447
  H 2.515937 -0.548424 1.427032
  C 3.164857 -0.265417 -0.502523
  C 4.543906 -0.281724 -1.108483
  C 5.218608 -0.803035 -2.210868
  C 4.587466 -1.453266 -3.396993
  C 3.071480 -1.585649 -3.364674
  H 2.744364 -2.092159 -4.269082
  O 6.535638 -0.743485 -2.293797
  H 0.300431 0.187341 1.181138
  H 0.338010 -0.376826 -0.493181
  H 0.820438 1.269287 -0.115458
  H 3.617758 -0.160868 -1.668878
  H 5.177040 0.137650 -0.324265
  H 5.044235 -2.443449 -3.495033
  H 4.903136 -0.897427 -4.285580
  H 2.574358 -0.615912 -3.347708
  H 2.742572 -2.184616 -2.517526
  H 6.981481 -0.337609 -1.528808
