 29
 0.000000
  C 0.971701 0.140018 0.399773
  C 2.447675 0.138698 0.396073
  C 3.234274 0.607358 1.562258
  C 2.458033 1.096740 2.780503
  H 3.133256 1.410936 3.562380
  C 3.063897 -0.325677 -0.760091
  C 4.441005 -0.410558 -0.971836
  C 5.116660 -0.862101 -2.097571
  C 4.620177 -1.384718 -3.400465
  C 3.129941 -1.503471 -3.696955
  C 2.910606 -2.065747 -5.098794
  O 6.439051 -0.858568 -2.089108
  H 0.538360 0.510359 1.321553
  H 0.600205 -0.871802 0.232841
  H 0.599923 0.754927 -0.420790
  H 3.890453 1.418604 1.227752
  H 3.890664 -0.209639 1.881975
  H 1.822112 0.302476 3.170066
  H 1.821966 1.939650 2.512321
  H 2.409509 -0.643882 -1.552596
  H 5.060102 -0.079188 -0.146410
  H 5.076249 -2.373324 -3.525861
  H 5.076466 -0.756979 -4.174320
  H 2.653760 -0.523547 -3.645042
  H 2.653537 -2.175770 -2.982283
  H 3.350604 -1.418016 -5.853545
  H 1.846430 -2.148376 -5.305161
  H 3.350416 -3.055619 -5.196673
  H 6.816246 -0.523996 -1.253952
 29
 -0.201509
  C 0.970556 -0.105697 0.516347
  C 2.436410 0.019097 0.436664
  C 3.221527 0.686918 1.502187
  C 2.443910 1.271435 2.673491
  H 3.138385 1.733628 3.369943
  C 3.051803 -0.512461 -0.693827
  C 4.425206 -0.531081 -0.923953
  C 5.108325 -1.009451 -2.036177
  C 4.606861 -1.455339 -3.363552
  C 3.119855 -1.475361 -3.690095
  C 2.918479 -1.865795 -5.152201
  O 6.426360 -1.083376 -1.997676
  H 0.552872 0.319805 1.419707
  H 0.685348 -1.156672 0.451471
  H 0.510561 0.375739 -0.347792
  H 3.812851 1.486228 1.043370
  H 3.946118 -0.035288 1.894501
  H 1.898084 0.502499 3.213650
  H 1.746243 2.037352 2.345049
  H 2.401443 -0.967982 -1.421656
  H 5.056962 -0.156427 -0.128910
  H 5.026072 -2.452477 -3.534989
  H 5.114662 -0.815564 -4.094901
  H 2.684452 -0.488668 -3.532191
  H 2.604151 -2.208090 -3.069097
  H 3.398015 -1.150416 -5.816392
  H 1.859337 -1.892358 -5.394051
  H 3.335110 -2.850405 -5.353070
  H 6.828709 -0.795515 -1.160018
 29
 0.566714
  C 1.028309 -0.394975 0.640713
  C 2.461630 -0.097415 0.464484
  C 3.192265 0.819280 1.373354
  C 2.378684 1.516036 2.455897
  H 3.032589 2.160621 3.037995
  C 3.104960 -0.691357 -0.614564
  C 4.474143 -0.651166 -0.870922
  C 5.125351 -1.186566 -1.978856
  C 4.599614 -1.493940 -3.335982
  C 3.115185 -1.367908 -3.655733
  C 2.893474 -1.542680 -5.156126
  O 6.425223 -1.399966 -1.920267
  H 0.588781 0.110297 1.491321
  H 0.886307 -1.471040 0.752230
  H 0.478088 -0.117321 -0.259494
  H 3.694785 1.578803 0.766028
  H 3.992322 0.247267 1.857642
  H 1.926918 0.801423 3.139237
  H 1.597472 2.137635 2.025662
  H 2.513120 -1.308496 -1.267878
  H 5.115960 -0.239133 -0.101858
  H 4.948242 -2.497379 -3.601841
  H 5.153479 -0.822230 -4.004355
  H 2.745693 -0.386139 -3.358478
  H 2.545170 -2.139327 -3.138092
  H 3.412547 -0.770966 -5.719768
  H 1.834559 -1.477319 -5.392124
  H 3.254663 -2.511874 -5.492031
  H 6.842341 -1.161376 -1.071466
 29
 3.352061
  C 1.155301 -0.694011 0.808790
  C 2.509853 -0.211510 0.480722
  C 3.130168 0.944230 1.175233
  C 2.249005 1.724084 2.142099
  H 2.819861 2.547164 2.564793
  C 3.192667 -0.854197 -0.541215
  C 4.546134 -0.724311 -0.843739
  C 5.142252 -1.364904 -1.930214
  C 4.583823 -1.515878 -3.301329
  C 3.122942 -1.180448 -3.580661
  C 2.872104 -1.166582 -5.086168
  O 6.379134 -1.805466 -1.863467
  H 0.684251 -0.128874 1.603155
  H 1.198515 -1.745516 1.096132
  H 0.520664 -0.654224 -0.077429
  H 3.524858 1.630266 0.420094
  H 4.003355 0.574319 1.726330
  H 1.908706 1.102568 2.966356
  H 1.384464 2.144931 1.634914
  H 2.687092 -1.628751 -1.096630
  H 5.200319 -0.236666 -0.132690
  H 4.810704 -2.525492 -3.656889
  H 5.210432 -0.853116 -3.912685
  H 2.874227 -0.201501 -3.169707
  H 2.465410 -1.925310 -3.134499
  H 3.472866 -0.403290 -5.575262
  H 1.826291 -0.955852 -5.293584
  H 3.116691 -2.129096 -5.529172
  H 6.834192 -1.633739 -1.017169
 29
 9.386383
  C 1.323103 -0.940710 1.058204
  C 2.548859 -0.308453 0.534534
  C 3.034980 1.008271 1.016344
  C 2.106197 1.786806 1.937309
  H 2.564943 2.739471 2.188426
  C 3.242898 -0.970830 -0.463396
  C 4.542472 -0.718300 -0.879997
  C 5.105289 -1.482721 -1.922258
  C 4.592047 -1.513877 -3.314931
  C 3.178775 -1.001685 -3.577759
  C 2.912925 -0.938571 -5.078069
  O 6.229515 -2.135267 -1.768980
  H 0.852145 -0.361538 1.842023
  H 1.554380 -1.935542 1.440540
  H 0.604302 -1.087554 0.251440
  H 3.273789 1.625595 0.146636
  H 3.984855 0.848360 1.539951
  H 1.922730 1.255050 2.867314
  H 1.155929 1.991949 1.453218
  H 2.771137 -1.803005 -0.968518
  H 5.194745 -0.079571 -0.296886
  H 4.718231 -2.518448 -3.727469
  H 5.299393 -0.878853 -3.864322
  H 3.054558 -0.007009 -3.149375
  H 2.443691 -1.663948 -3.123592
  H 3.610006 -0.264112 -5.569727
  H 1.905635 -0.579302 -5.269209
  H 3.012352 -1.921920 -5.531361
  H 6.678687 -2.006150 -0.910771
 29
 18.588357
  C 1.541226 -1.138908 1.260526
  C 2.629721 -0.375649 0.611751
  C 2.962406 1.031614 0.976905
  C 1.951395 1.762773 1.854714
  H 2.297123 2.779810 2.030894
  C 3.318046 -0.981355 -0.432317
  C 4.546206 -0.622124 -0.960746
  C 5.014823 -1.544417 -1.940584
  C 4.529118 -1.558244 -3.336032
  C 3.202246 -0.854569 -3.614657
  C 2.954159 -0.757091 -5.117449
  O 6.032781 -2.317344 -1.721241
  H 1.014632 -0.559671 2.008975
  H 1.945075 -2.034805 1.733358
  H 0.824225 -1.482309 0.513550
  H 3.106775 1.595689 0.050130
  H 3.931151 1.037493 1.492668
  H 1.837592 1.281424 2.824385
  H 0.979652 1.819238 1.370317
  H 2.933586 -1.890871 -0.881718
  H 5.178758 0.150604 -0.555026
  H 4.539454 -2.570799 -3.745668
  H 5.322683 -1.013783 -3.869257
  H 3.213453 0.147370 -3.181811
  H 2.381480 -1.408542 -3.156814
  H 3.737547 -0.181116 -5.606034
  H 2.004104 -0.265218 -5.313248
  H 2.922375 -1.746489 -5.570759
  H 6.536534 -2.144876 -0.896268
 29
 29.838472
  C 1.769965 -1.279044 1.336099
  C 2.718039 -0.439143 0.574236
  C 2.844814 1.030294 0.773781
  C 1.759855 1.695274 1.615793
  H 1.950365 2.765168 1.667703
  C 3.519377 -1.041410 -0.378907
  C 4.735472 -0.642253 -0.918423
  C 5.011201 -1.616496 -1.927180
  C 4.492722 -1.475066 -3.313537
  C 3.179712 -0.706117 -3.465002
  C 2.834645 -0.517084 -4.941261
  O 5.978037 -2.472205 -1.815118
  H 1.183707 -0.703612 2.043122
  H 2.315662 -2.051963 1.882987
  H 1.091373 -1.799274 0.659454
  H 2.886661 1.507629 -0.207184
  H 3.815391 1.229861 1.244669
  H 1.749732 1.314696 2.634771
  H 0.776830 1.551248 1.170910
  H 3.233834 -2.000314 -0.830067
  H 5.434138 0.066298 -0.513509
  H 4.388514 -2.467910 -3.759291
  H 5.297099 -0.959374 -3.846865
  H 3.268753 0.272838 -2.989287
  H 2.370400 -1.253506 -2.979233
  H 3.611254 0.046650 -5.455853
  H 1.898135 0.026968 -5.044574
  H 2.724395 -1.478363 -5.439275
  H 6.503893 -2.424939 -0.993057
 29
 49.237854
  C 2.165114 -1.426270 1.460690
  C 2.902614 -0.410562 0.651162
  C 2.673439 1.069391 0.760707
  C 1.518024 1.495945 1.656482
  H 1.433360 2.582295 1.634947
  C 3.747460 -0.836246 -0.363053
  C 4.884231 -0.466424 -1.036554
  C 4.842289 -1.633041 -1.906704
  C 4.344107 -1.508331 -3.307958
  C 3.216306 -0.495045 -3.519981
  C 2.881467 -0.363728 -5.005061
  O 5.550004 -2.697964 -1.683268
  H 1.530165 -0.965138 2.208161
  H 2.870823 -2.088758 1.963431
  H 1.542166 -2.058247 0.825428
  H 2.519793 1.470713 -0.245265
  H 3.596748 1.534258 1.132098
  H 1.681154 1.199903 2.690583
  H 0.574011 1.077670 1.309333
  H 3.458038 -1.807375 -0.938694
  H 5.674969 0.201214 -0.809170
  H 4.039549 -2.496483 -3.668627
  H 5.221940 -1.202428 -3.886655
  H 3.510357 0.478173 -3.126736
  H 2.323346 -0.822694 -2.985616
  H 3.738319 0.006713 -5.564433
  H 2.059689 0.334181 -5.148544
  H 2.589531 -1.324647 -5.424640
  H 6.189218 -2.646273 -0.943525
 29
 59.246912
  C 2.373031 -1.436490 1.437777
  C 3.015370 -0.368708 0.636713
  C 2.612389 1.074690 0.705737
  C 1.350862 1.369105 1.504984
  H 1.151970 2.437114 1.465591
  C 3.949326 -0.678407 -0.303045
  C 5.039840 -0.480524 -1.036645
  C 4.756489 -1.701488 -1.852878
  C 4.226229 -1.521378 -3.262430
  C 3.182562 -0.416528 -3.401836
  C 2.799747 -0.220141 -4.864528
  O 5.508323 -2.801251 -1.695302
  H 1.628034 -1.039418 2.116254
  H 3.124749 -1.973532 2.017793
  H 1.894983 -2.172282 0.789961
  H 2.496051 1.454394 -0.312329
  H 3.447866 1.633714 1.140814
  H 1.462448 1.095095 2.550709
  H 0.490467 0.851235 1.089150
  H 3.706307 -1.847469 -1.086675
  H 5.914010 0.125870 -0.928507
  H 3.824605 -2.475610 -3.607669
  H 5.095033 -1.284145 -3.884106
  H 3.579261 0.519900 -3.005720
  H 2.288139 -0.677692 -2.833881
  H 3.662932 0.079219 -5.453705
  H 2.041671 0.552645 -4.958139
  H 2.401608 -1.139553 -5.286362
  H 6.194561 -2.727574 -1.010021
 29
 51.176321
  C 2.466889 -1.358446 1.559984
  C 3.017939 -0.290602 0.697071
  C 2.522410 1.122819 0.736186
  C 1.266174 1.362577 1.556174
  H 1.007074 2.414607 1.493702
  C 3.954927 -0.565735 -0.216420
  C 4.975965 -0.569555 -1.032857
  C 4.664090 -1.796444 -1.864079
  C 4.239253 -1.536927 -3.317989
  C 3.175877 -0.458333 -3.462190
  C 2.879668 -0.190520 -4.930890
  O 5.490199 -2.881776 -1.728496
  H 1.707868 -0.982281 2.233318
  H 3.266883 -1.814235 2.144909
  H 2.036464 -2.153284 0.954248
  H 2.364414 1.462406 -0.291319
  H 3.330281 1.741907 1.134047
  H 1.414088 1.126363 2.604594
  H 0.430867 0.785833 1.174204
  H 3.681410 -2.028555 -1.293698
  H 5.909764 -0.039436 -0.975655
  H 3.892443 -2.479601 -3.735702
  H 5.136344 -1.239908 -3.862182
  H 3.516582 0.463054 -2.992433
  H 2.258444 -0.776232 -2.969121
  H 3.767481 0.165954 -5.444958
  H 2.104834 0.563323 -5.029966
  H 2.539436 -1.095033 -5.426537
  H 6.162989 -2.774788 -1.033947
 29
 42.026963
  C 2.610338 -1.223127 1.736948
  C 3.043978 -0.253005 0.709032
  C 2.434569 1.105640 0.571125
  C 1.183170 1.363875 1.393944
  H 0.832593 2.372099 1.186626
  C 3.988968 -0.593005 -0.170628
  C 4.969917 -0.793577 -0.994434
  C 4.619553 -1.957719 -1.898091
  C 4.228255 -1.525181 -3.322201
  C 3.159219 -0.444194 -3.367017
  C 2.881952 -0.027230 -4.805869
  O 5.495474 -3.029509 -1.895733
  H 1.842816 -0.814369 2.379819
  H 3.467501 -1.521975 2.341388
  H 2.234446 -2.133198 1.272419
  H 2.228390 1.277330 -0.490181
  H 3.197649 1.844034 0.845652
  H 1.374859 1.301331 2.462309
  H 0.389866 0.666779 1.132441
  H 3.664280 -2.286307 -1.402070
  H 5.943620 -0.332512 -0.978369
  H 3.893668 -2.420606 -3.844034
  H 5.134376 -1.166803 -3.815640
  H 3.485777 0.427035 -2.800290
  H 2.236721 -0.819168 -2.922792
  H 3.775668 0.384842 -5.267031
  H 2.103011 0.728421 -4.837870
  H 2.555145 -0.877532 -5.397520
  H 6.178089 -2.957660 -1.219055
 29
 36.777618
  C 2.480895 -1.190964 1.678242
  C 2.959341 -0.199465 0.693357
  C 2.400538 1.177210 0.600982
  C 1.164132 1.460744 1.434856
  H 0.851003 2.486807 1.258881
  C 3.915688 -0.558687 -0.171850
  C 4.891520 -0.907749 -0.941554
  C 4.681948 -2.041629 -1.932617
  C 4.359792 -1.457980 -3.321386
  C 3.099859 -0.603727 -3.367131
  C 2.879232 -0.044381 -4.769464
  O 5.778081 -2.898432 -2.040450
  H 1.714693 -0.782296 2.325298
  H 3.323166 -1.542704 2.276482
  H 2.087123 -2.074346 1.174332
  H 2.201056 1.386891 -0.454995
  H 3.189927 1.883439 0.886104
  H 1.357180 1.362055 2.500305
  H 0.345179 0.801236 1.159574
  H 3.804674 -2.597817 -1.568000
  H 5.889671 -0.497169 -0.866969
  H 4.246067 -2.323928 -3.977353
  H 5.222108 -0.887332 -3.670310
  H 3.184555 0.226862 -2.666098
  H 2.236221 -1.207877 -3.083782
  H 3.709536 0.592096 -5.065125
  H 1.966657 0.544907 -4.804354
  H 2.792000 -0.848586 -5.496185
  H 6.353043 -2.856582 -1.265740
 29
 36.446198
  C 2.130885 -1.223833 1.411116
  C 2.893248 -0.253314 0.596204
  C 2.582398 1.206793 0.581376
  C 1.317865 1.628959 1.309431
  H 1.204897 2.706078 1.211553
  C 3.888989 -0.696355 -0.179304
  C 4.948579 -1.026231 -0.837060
  C 4.927787 -2.022798 -1.976428
  C 4.432353 -1.332560 -3.266880
  C 3.007229 -0.807547 -3.191470
  C 2.607927 -0.128223 -4.499076
  O 6.162959 -2.620727 -2.233159
  H 1.364951 -0.742977 2.006914
  H 2.818271 -1.770360 2.059675
  H 1.661594 -1.974014 0.773343
  H 2.540517 1.533919 -0.462956
  H 3.439398 1.738575 1.012726
  H 1.364236 1.402776 2.372235
  H 0.437727 1.154057 0.882442
  H 4.190721 -2.791914 -1.695791
  H 5.925488 -0.667111 -0.531937
  H 4.500148 -2.101313 -4.039844
  H 5.128534 -0.534657 -3.531121
  H 2.915043 -0.083494 -2.381778
  H 2.322473 -1.633809 -2.991528
  H 3.253096 0.722427 -4.705425
  H 1.581450 0.224959 -4.444864
  H 2.685582 -0.822979 -5.331787
  H 6.773848 -2.535582 -1.489898
 29
 35.529778
  C 1.916573 -1.189932 1.221354
  C 2.847295 -0.256818 0.546994
  C 2.683186 1.227519 0.607191
  C 1.390099 1.734348 1.223509
  H 1.398301 2.821449 1.204550
  C 3.858564 -0.755097 -0.166948
  C 4.940998 -1.151784 -0.751464
  C 4.990769 -2.056653 -1.956694
  C 4.465021 -1.301596 -3.207898
  C 3.013244 -0.866205 -3.109637
  C 2.563747 -0.179153 -4.397559
  O 6.245764 -2.596924 -2.222298
  H 1.157251 -0.666861 1.789053
  H 2.480543 -1.854906 1.877049
  H 1.427619 -1.834433 0.490120
  H 2.792312 1.622044 -0.407815
  H 3.529938 1.638028 1.169689
  H 1.285298 1.430897 2.262213
  H 0.524669 1.390465 0.662573
  H 4.293517 -2.884243 -1.756581
  H 5.900152 -0.904974 -0.305568
  H 4.579336 -2.010439 -4.030319
  H 5.114937 -0.447968 -3.407474
  H 2.883479 -0.167373 -2.282798
  H 2.381147 -1.736807 -2.925755
  H 3.159782 0.709730 -4.589370
  H 1.520741 0.116798 -4.323881
  H 2.668759 -0.849077 -5.247214
  H 6.935252 -2.225608 -1.655487
 29
 33.153473
  C 1.903700 -1.184601 1.218456
  C 2.863455 -0.275580 0.553979
  C 2.740891 1.211772 0.616874
  C 1.429427 1.753077 1.163056
  H 1.472667 2.839348 1.157675
  C 3.872359 -0.799914 -0.148947
  C 4.946468 -1.218822 -0.724709
  C 5.010172 -2.069911 -1.975418
  C 4.451368 -1.266258 -3.182989
  C 2.987923 -0.884156 -3.050051
  C 2.485148 -0.210649 -4.326105
  O 6.270396 -2.576387 -2.249698
  H 1.159334 -0.643999 1.789594
  H 2.444404 -1.874277 1.867526
  H 1.394960 -1.804359 0.479224
  H 2.920722 1.613323 -0.384576
  H 3.564226 1.589963 1.234043
  H 1.252625 1.442077 2.189275
  H 0.589164 1.442034 0.547736
  H 4.352235 -2.931673 -1.813417
  H 5.901656 -1.039235 -0.240548
  H 4.578000 -1.930159 -4.040585
  H 5.069213 -0.381400 -3.345533
  H 2.850868 -0.190433 -2.220205
  H 2.392146 -1.777245 -2.854164
  H 3.047754 0.696715 -4.531489
  H 1.435784 0.052526 -4.225168
  H 2.589838 -0.876628 -5.178810
  H 6.971392 -1.950720 -2.015492
