 20
 0.000000
  C 1.008776 0.120357 0.340911
  C 2.483313 0.120046 0.342955
  C 3.212152 0.596786 1.533781
  H 2.533117 0.913252 2.318745
  C 3.136679 -0.338197 -0.793625
  C 4.520843 -0.399165 -0.944684
  C 5.189792 -0.854380 -2.078927
  C 4.548710 -1.351167 -3.314519
  H 3.467326 -1.336202 -3.276191
  O 6.500431 -0.871521 -2.124810
  H 0.593799 0.499972 1.268914
  H 0.632486 -0.889772 0.171076
  H 0.631923 0.721166 -0.488200
  H 3.863360 1.432362 1.274651
  H 3.860388 -0.188028 1.925227
  H 2.512937 -0.666763 -1.611536
  H 5.133861 -0.066783 -0.117875
  H 4.896511 -2.366011 -3.510099
  H 4.895932 -0.753716 -4.158068
  H 6.946115 -0.547185 -1.319659
 20
 3.550552
  C 1.006666 0.164988 0.347198
  C 2.458454 0.123113 0.346022
  C 3.197486 0.590121 1.535861
  H 2.522211 0.893134 2.328246
  C 3.111706 -0.337457 -0.790904
  C 4.507930 -0.405020 -0.940624
  C 5.185494 -0.861224 -2.080876
  C 4.549887 -1.352573 -3.322391
  H 3.469437 -1.333594 -3.287103
  O 6.496984 -0.882295 -2.121282
  H 0.567115 0.512947 1.269195
  H 0.837307 -0.879389 0.179608
  H 0.589807 0.713476 -0.492612
  H 3.830326 1.438560 1.275559
  H 3.859359 -0.186115 1.918310
  H 2.486707 -0.661422 -1.611210
  H 5.120442 -0.076155 -0.110068
  H 4.893229 -2.368289 -3.518642
  H 4.900265 -0.752049 -4.161875
  H 6.939719 -0.561749 -1.312996
 20
 8.956797
  C 0.999784 0.196784 0.324734
  C 2.450577 0.141483 0.340876
  C 3.205190 0.585075 1.541442
  H 2.537057 0.851049 2.351503
  C 3.104064 -0.326007 -0.792693
  C 4.495426 -0.413466 -0.934781
  C 5.167092 -0.865893 -2.069314
  C 4.532631 -1.335136 -3.317925
  H 3.454939 -1.299185 -3.288087
  O 6.479242 -0.907370 -2.103626
  H 0.533341 0.569716 1.218290
  H 1.036734 -0.887842 0.260428
  H 0.543746 0.601052 -0.576452
  H 3.799123 1.464499 1.288974
  H 3.897844 -0.178504 1.892666
  H 2.481825 -0.632370 -1.621863
  H 5.109344 -0.098754 -0.100162
  H 4.859788 -2.353704 -3.520995
  H 4.895492 -0.731281 -4.148341
  H 6.922096 -0.599053 -1.285911
 20
 15.945660
  C 0.988061 0.223640 0.326895
  C 2.444344 0.141743 0.335405
  C 3.198112 0.572355 1.536711
  H 2.528108 0.826156 2.354378
  C 3.100003 -0.328423 -0.803509
  C 4.486068 -0.418506 -0.938227
  C 5.160095 -0.867673 -2.065431
  C 4.531394 -1.332215 -3.320766
  H 3.451622 -1.292858 -3.297172
  O 6.477816 -0.913703 -2.093870
  H 0.513612 0.607477 1.212774
  H 1.174695 -0.846335 0.312848
  H 0.507363 0.554495 -0.582575
  H 3.779768 1.461551 1.284586
  H 3.900314 -0.187478 1.880186
  H 2.480883 -0.628514 -1.636697
  H 5.094985 -0.107501 -0.100214
  H 4.856483 -2.351362 -3.524399
  H 4.900680 -0.726663 -4.147038
  H 6.917281 -0.606913 -1.268518
 20
 22.507038
  C 0.978482 0.250785 0.328149
  C 2.442338 0.135422 0.332361
  C 3.188590 0.565859 1.545316
  H 2.515375 0.809419 2.357309
  C 3.098075 -0.333729 -0.806597
  C 4.481949 -0.421821 -0.939284
  C 5.159050 -0.869293 -2.065947
  C 4.533015 -1.334701 -3.326441
  H 3.453220 -1.296676 -3.305692
  O 6.478027 -0.913959 -2.091721
  H 0.492593 0.637690 1.205637
  H 1.291140 -0.828283 0.337019
  H 0.478005 0.543442 -0.584747
  H 3.762148 1.458785 1.303148
  H 3.893702 -0.188834 1.887305
  H 2.479841 -0.631984 -1.640658
  H 5.088916 -0.110520 -0.099783
  H 4.859928 -2.354406 -3.530426
  H 4.903796 -0.727249 -4.152120
  H 6.906861 -0.612525 -1.279101
 20
 25.728711
  C 0.977454 0.284907 0.320913
  C 2.428369 0.130221 0.331796
  C 3.183070 0.549525 1.538622
  H 2.517056 0.788944 2.356901
  C 3.090236 -0.331544 -0.812547
  C 4.476332 -0.429623 -0.939815
  C 5.156299 -0.870941 -2.066483
  C 4.538255 -1.321057 -3.335851
  H 3.458014 -1.275139 -3.321476
  O 6.479014 -0.925323 -2.086422
  H 0.492446 0.739988 1.177547
  H 1.372041 -0.779569 0.489158
  H 0.446993 0.390620 -0.622317
  H 3.745917 1.446926 1.293554
  H 3.886663 -0.205174 1.868427
  H 2.474252 -0.607969 -1.653324
  H 5.082446 -0.130521 -0.095472
  H 4.858019 -2.341440 -3.545463
  H 4.917895 -0.707249 -4.152504
  H 6.901841 -0.630375 -1.262433
 20
 28.944504
  C 0.977540 0.309580 0.323730
  C 2.415299 0.124850 0.330261
  C 3.174599 0.538449 1.535559
  H 2.509038 0.772874 2.360664
  C 3.085005 -0.336392 -0.823286
  C 4.467211 -0.434114 -0.944275
  C 5.151536 -0.870423 -2.065445
  C 4.542058 -1.318931 -3.339194
  H 3.466755 -1.274919 -3.330091
  O 6.477180 -0.923034 -2.079211
  H 0.509465 0.780607 1.158880
  H 1.437210 -0.748014 0.554819
  H 0.432740 0.342685 -0.617823
  H 3.743748 1.444830 1.293230
  H 3.875930 -0.221347 1.856559
  H 2.468287 -0.609363 -1.669105
  H 5.068234 -0.137721 -0.097991
  H 4.864085 -2.338528 -3.548789
  H 4.924978 -0.702130 -4.152849
  H 6.894987 -0.626829 -1.248352
 20
 31.656873
  C 0.975134 0.323669 0.306445
  C 2.403642 0.118902 0.320099
  C 3.174231 0.538607 1.547360
  H 2.506240 0.772834 2.373769
  C 3.075892 -0.337923 -0.827477
  C 4.461010 -0.435454 -0.943553
  C 5.153660 -0.872184 -2.070864
  C 4.548492 -1.322687 -3.351537
  H 3.469574 -1.280906 -3.345836
  O 6.474425 -0.921809 -2.080306
  H 0.490175 0.816483 1.155595
  H 1.486087 -0.721063 0.580602
  H 0.435830 0.302461 -0.611685
  H 3.741548 1.435925 1.314637
  H 3.882091 -0.233721 1.872703
  H 2.463284 -0.608453 -1.670858
  H 5.063651 -0.137030 -0.087925
  H 4.872684 -2.340759 -3.560953
  H 4.931279 -0.706018 -4.161804
  H 6.889088 -0.623116 -1.243259
 20
 33.753181
  C 0.978998 0.339131 0.306679
  C 2.403812 0.111676 0.327817
  C 3.167999 0.529416 1.540160
  H 2.509666 0.760074 2.353207
  C 3.079161 -0.343768 -0.827478
  C 4.472200 -0.442234 -0.943722
  C 5.152362 -0.867585 -2.054951
  C 4.539477 -1.314381 -3.336471
  H 3.457955 -1.272121 -3.325172
  O 6.486156 -0.916772 -2.066956
  H 0.502420 0.826934 1.134227
  H 1.531947 -0.706891 0.610711
  H 0.429018 0.280197 -0.617495
  H 3.739769 1.429636 1.307529
  H 3.860546 -0.233480 1.859337
  H 2.454356 -0.616908 -1.687177
  H 5.072422 -0.149492 -0.094530
  H 4.862664 -2.334218 -3.550957
  H 4.919746 -0.692782 -4.149576
  H 6.896832 -0.623884 -1.240925
 20
 35.575422
  C 0.967152 0.353636 0.297068
  C 2.402036 0.101494 0.334147
  C 3.173422 0.533625 1.550973
  H 2.509379 0.774233 2.371493
  C 3.080793 -0.349973 -0.826895
  C 4.460835 -0.449233 -0.940480
  C 5.152932 -0.873348 -2.066325
  C 4.550183 -1.314117 -3.348461
  H 3.466360 -1.274642 -3.342016
  O 6.476824 -0.920054 -2.075844
  H 0.480247 0.846558 1.125077
  H 1.559940 -0.700116 0.632474
  H 0.418531 0.255484 -0.617875
  H 3.744086 1.427080 1.311953
  H 3.868056 -0.232265 1.878186
  H 2.467723 -0.615683 -1.672160
  H 5.059103 -0.161271 -0.086935
  H 4.876988 -2.330925 -3.565642
  H 4.932274 -0.688464 -4.155035
  H 6.887389 -0.627024 -1.240874
 20
 37.367512
  C 0.968856 0.365941 0.289923
  C 2.395463 0.091979 0.336659
  C 3.170655 0.530808 1.548604
  H 2.507754 0.773097 2.368064
  C 3.075576 -0.355394 -0.826624
  C 4.462044 -0.453402 -0.940655
  C 5.151680 -0.871873 -2.061146
  C 4.548037 -1.311529 -3.343805
  H 3.471570 -1.274446 -3.336901
  O 6.482558 -0.915978 -2.070253
  H 0.482820 0.859303 1.118234
  H 1.590943 -0.697001 0.641901
  H 0.420171 0.245063 -0.622520
  H 3.742207 1.427049 1.304652
  H 3.874541 -0.245276 1.880762
  H 2.465865 -0.617454 -1.665869
  H 5.061075 -0.166655 -0.085933
  H 4.873386 -2.318474 -3.561651
  H 4.924434 -0.690104 -4.142292
  H 6.889991 -0.624456 -1.239327
 20
 38.906261
  C 0.969844 0.383174 0.286678
  C 2.394699 0.082595 0.345660
  C 3.173315 0.529173 1.555761
  H 2.509100 0.773558 2.376533
  C 3.081053 -0.360641 -0.823843
  C 4.458631 -0.455241 -0.935475
  C 5.153255 -0.872194 -2.060135
  C 4.551306 -1.313043 -3.347194
  H 3.462302 -1.278747 -3.341351
  O 6.476402 -0.912107 -2.067185
  H 0.484190 0.868246 1.112059
  H 1.621925 -0.705675 0.654556
  H 0.419734 0.244661 -0.627661
  H 3.742463 1.423388 1.309292
  H 3.870250 -0.238549 1.886225
  H 2.468006 -0.622492 -1.669452
  H 5.056014 -0.168449 -0.079792
  H 4.883990 -2.330858 -3.568572
  H 4.931818 -0.681585 -4.154872
  H 6.883700 -0.618436 -1.229793
 20
 40.425916
  C 0.971168 0.395098 0.279736
  C 2.392959 0.072313 0.350567
  C 3.173252 0.526954 1.558086
  H 2.517917 0.770879 2.370907
  C 3.081485 -0.366571 -0.825069
  C 4.454163 -0.459550 -0.935599
  C 5.151004 -0.874383 -2.063076
  C 4.555071 -1.308622 -3.335598
  H 3.481178 -1.276070 -3.327646
  O 6.479369 -0.913720 -2.074199
  H 0.479133 0.873112 1.109422
  H 1.649064 -0.710791 0.658260
  H 0.425022 0.245710 -0.624372
  H 3.742231 1.420463 1.307375
  H 3.863458 -0.231714 1.888547
  H 2.466315 -0.628358 -1.675140
  H 5.045576 -0.176411 -0.086244
  H 4.884831 -2.312835 -3.555462
  H 4.929580 -0.682104 -4.132381
  H 6.887542 -0.623211 -1.242112
 20
 41.714493
  C 0.973215 0.412985 0.273687
  C 2.391808 0.061829 0.358549
  C 3.173253 0.524970 1.561606
  H 2.516059 0.770309 2.375866
  C 3.083081 -0.371126 -0.821062
  C 4.457881 -0.461039 -0.931571
  C 5.153937 -0.872022 -2.056930
  C 4.554708 -1.311083 -3.340663
  H 3.468421 -1.282054 -3.333007
  O 6.479210 -0.906380 -2.065846
  H 0.481256 0.883555 1.101000
  H 1.678505 -0.727861 0.668593
  H 0.421910 0.254347 -0.635211
  H 3.742441 1.424427 1.304758
  H 3.874374 -0.240919 1.899888
  H 2.470697 -0.630781 -1.667546
  H 5.050223 -0.176753 -0.079149
  H 4.890655 -2.320795 -3.561945
  H 4.930167 -0.678235 -4.141796
  H 6.886635 -0.614521 -1.230653
