 14
 0.000000
  C 0.984600 0.129648 0.373348
  C 2.442852 0.119066 0.348213
  H 2.982992 0.467506 1.217017
  C 3.118616 -0.328452 -0.765841
  C 4.510719 -0.375936 -0.883782
  C 5.144200 -0.833695 -2.024636
  H 4.595466 -1.183521 -2.893871
  O 6.422542 -0.899968 -2.193612
  H 0.578482 0.504200 1.306535
  H 0.599403 -0.875844 0.184371
  H 0.600295 0.726723 -0.457909
  H 2.530075 -0.666909 -1.609612
  H 5.113360 -0.041893 -0.051109
  H 6.960972 -0.592494 -1.433170
 14
 -0.140152
  C 0.932790 0.150458 0.240110
  C 2.381234 0.000141 0.318558
  H 2.866119 0.110877 1.278652
  C 3.134581 -0.256225 -0.806791
  C 4.517564 -0.460822 -0.788928
  C 5.240079 -0.699182 -1.945695
  H 4.753337 -0.723993 -2.916202
  O 6.512527 -0.904817 -2.014379
  H 0.464621 0.215600 1.216984
  H 0.489568 -0.660986 -0.340181
  H 0.688113 1.055511 -0.326073
  H 2.626793 -0.309389 -1.761047
  H 5.029819 -0.449327 0.162334
  H 6.987629 -0.888657 -1.156666
 14
 -0.133670
  C 0.975788 0.096682 0.369173
  C 2.430839 0.159985 0.298397
  H 2.973816 0.614845 1.115264
  C 3.118927 -0.315835 -0.796759
  C 4.514287 -0.368251 -0.868787
  C 5.173244 -0.830233 -1.993703
  H 4.615536 -1.149517 -2.868744
  O 6.450599 -0.926036 -2.140128
  H 0.600327 0.278393 1.371242
  H 0.600351 -0.848953 -0.022513
  H 0.550182 0.860679 -0.291255
  H 2.551015 -0.683451 -1.641442
  H 5.083259 -0.066793 -0.000389
  H 6.984387 -0.644618 -1.367706
 14
 0.226565
  C 0.974036 0.069898 0.369867
  C 2.423862 0.190054 0.261791
  H 2.957644 0.709996 1.046512
  C 3.118096 -0.284069 -0.832095
  C 4.512609 -0.361853 -0.874295
  C 5.189787 -0.828263 -1.987025
  H 4.645377 -1.121178 -2.878639
  O 6.467388 -0.955559 -2.102248
  H 0.629871 0.164444 1.396113
  H 0.609498 -0.850873 -0.086768
  H 0.506738 0.882675 -0.200458
  H 2.558480 -0.640886 -1.684608
  H 5.056423 -0.103558 0.019761
  H 6.989471 -0.698886 -1.309243
 14
 2.633931
  C 0.985693 0.018643 0.405523
  C 2.409499 0.247409 0.183929
  H 2.923917 0.882131 0.897857
  C 3.099997 -0.196969 -0.922880
  C 4.487572 -0.367555 -0.893197
  C 5.209638 -0.814576 -1.984040
  H 4.711419 -1.033493 -2.920394
  O 6.483997 -1.013996 -2.023236
  H 0.718755 0.130038 1.444671
  H 0.665592 -0.949583 0.017693
  H 0.410747 0.766556 -0.152126
  H 2.551909 -0.467833 -1.817790
  H 4.963000 -0.231116 0.067120
  H 6.963408 -0.821048 -1.187177
 14
 9.828696
  C 1.074112 -0.042963 0.502141
  C 2.415895 0.362720 0.101433
  H 2.849404 1.196448 0.638136
  C 3.064566 -0.088711 -1.032643
  C 4.434442 -0.351460 -0.952557
  C 5.185905 -0.885335 -1.986983
  H 4.712351 -1.185129 -2.916663
  O 6.459243 -1.125231 -1.958238
  H 0.912992 0.117851 1.564286
  H 0.865115 -1.074280 0.225803
  H 0.332940 0.569703 -0.025943
  H 2.516385 -0.264728 -1.948069
  H 4.839810 -0.219153 0.040082
  H 6.908130 -0.857956 -1.131963
 14
 21.597427
  C 1.179074 -0.106772 0.549637
  C 2.444510 0.411774 0.034876
  H 2.816238 1.313848 0.505840
  C 3.020829 0.027599 -1.186489
  C 4.343335 -0.357163 -1.025400
  C 5.170875 -0.919793 -1.967505
  H 4.775280 -1.254310 -2.920534
  O 6.427023 -1.188186 -1.806702
  H 1.105395 0.026647 1.624748
  H 1.028433 -1.148701 0.276088
  H 0.347132 0.450911 0.100349
  H 2.494307 0.042946 -2.128142
  H 4.612580 -0.269812 0.021480
  H 6.806278 -0.877215 -0.959423
 14
 37.054691
  C 1.336459 -0.155926 0.601238
  C 2.496832 0.444018 -0.058807
  H 2.793723 1.415527 0.314014
  C 2.924732 0.116120 -1.377007
  C 4.211398 -0.336618 -1.137433
  C 5.163325 -0.939979 -1.933116
  H 4.897956 -1.296255 -2.923700
  O 6.375560 -1.239467 -1.580401
  H 1.346824 0.021926 1.672001
  H 1.256704 -1.221370 0.395036
  H 0.429933 0.307996 0.193549
  H 2.371110 0.179931 -2.293838
  H 4.333700 -0.232205 -0.043108
  H 6.640337 -0.911214 -0.698327
 14
 51.560182
  C 1.511584 -0.194777 0.613189
  C 2.565460 0.476094 -0.163579
  H 2.825125 1.478409 0.158074
  C 2.822127 0.161489 -1.554460
  C 4.072970 -0.317322 -1.255397
  C 5.104383 -1.005916 -1.842916
  H 4.925025 -1.515863 -2.784251
  O 6.293810 -1.233959 -1.341264
  H 1.620457 -0.027305 1.680450
  H 1.469412 -1.262191 0.410345
  H 0.555642 0.228676 0.289182
  H 2.233405 0.251080 -2.440565
  H 4.082778 -0.108600 -0.109670
  H 6.483161 -0.769919 -0.502223
 14
 55.195283
  C 1.681744 -0.247305 0.608921
  C 2.676173 0.481554 -0.243263
  H 2.886139 1.512537 0.036324
  C 2.734068 0.189553 -1.697203
  C 3.938065 -0.326597 -1.404527
  C 5.039006 -1.032506 -1.765835
  H 4.960225 -1.631489 -2.668349
  O 6.187923 -1.183939 -1.132023
  H 1.846361 -0.059889 1.665631
  H 1.698685 -1.317947 0.424890
  H 0.690889 0.114955 0.336609
  H 2.079673 0.307605 -2.526944
  H 3.827635 0.006375 -0.113648
  H 6.296086 -0.642031 -0.330073
 14
 49.116195
  C 1.631755 -0.258656 0.600997
  C 2.702989 0.487636 -0.153572
  H 2.791550 1.551477 0.075809
  C 2.806623 0.200357 -1.632146
  C 3.983036 -0.365222 -1.532368
  C 5.077879 -1.091882 -1.822103
  H 4.975660 -1.772470 -2.671628
  O 6.230647 -1.195273 -1.217470
  H 1.743785 -0.105420 1.670492
  H 1.665103 -1.323454 0.386940
  H 0.656118 0.111736 0.291256
  H 2.137446 0.434776 -2.428007
  H 3.733497 0.101277 0.125289
  H 6.373064 -0.589190 -0.461366
 14
 48.150108
  C 1.572912 -0.238574 0.593729
  C 2.706883 0.463936 -0.113798
  H 2.872300 1.502818 0.165759
  C 2.839906 0.215315 -1.592693
  C 4.006716 -0.378459 -1.501572
  C 5.095312 -1.093312 -1.842380
  H 4.957104 -1.819708 -2.647685
  O 6.277521 -1.153764 -1.296792
  H 1.599187 -0.026627 1.658083
  H 1.613985 -1.313648 0.443175
  H 0.627846 0.115001 0.184495
  H 2.149906 0.409943 -2.387194
  H 3.734149 0.005728 0.159302
  H 6.455425 -0.502957 -0.590308
 14
 24.396711
  C 1.343810 -0.184023 0.480270
  C 2.730463 0.400746 0.252976
  H 2.706303 1.480028 0.397601
  C 3.164174 0.124022 -1.167080
  C 4.184207 -0.543834 -1.560599
  C 5.230366 -1.279741 -1.988595
  H 5.028697 -2.243273 -2.459627
  O 6.486098 -0.979126 -1.932527
  H 1.030886 0.054737 1.495051
  H 1.351236 -1.266516 0.370812
  H 0.609652 0.234658 -0.203253
  H 2.481454 0.554811 -1.899271
  H 3.452123 -0.036258 0.942112
  H 6.709683 -0.130539 -1.495746
