 14
 0.000000
  H 1.434851 0.130061 0.371544
  C 2.515582 0.136135 0.388257
  C 3.198080 0.616603 1.585802
  H 2.508078 0.928679 2.361902
  C 3.148372 -0.322348 -0.752632
  C 4.535494 -0.389007 -0.917677
  C 5.150487 -0.850239 -2.065924
  H 4.596863 -1.198602 -2.931892
  O 6.427432 -0.920339 -2.243214
  H 3.856710 1.452254 1.336590
  H 3.855666 -0.160078 1.984002
  H 2.527423 -0.651748 -1.574367
  H 5.161011 -0.060099 -0.097382
  H 6.970777 -0.613827 -1.486123
 14
 -0.039043
  H 1.453862 0.270368 0.309628
  C 2.528971 0.161438 0.369775
  C 3.181929 0.616862 1.594025
  H 2.462792 0.817921 2.379310
  C 3.171891 -0.364029 -0.732191
  C 4.562604 -0.454844 -0.867852
  C 5.148593 -0.846504 -2.059063
  H 4.533736 -1.133629 -2.908061
  O 6.412758 -0.904876 -2.298782
  H 3.729007 1.546201 1.398108
  H 3.927313 -0.096635 1.941767
  H 2.568216 -0.690462 -1.567066
  H 5.196494 -0.168140 -0.040761
  H 6.996104 -0.652516 -1.551055
 14
 0.246080
  H 1.491914 0.411842 0.260181
  C 2.551611 0.209118 0.353876
  C 3.192962 0.618959 1.597466
  H 2.472081 0.658027 2.413709
  C 3.171487 -0.390186 -0.722064
  C 4.559606 -0.512136 -0.858689
  C 5.143865 -0.842907 -2.068733
  H 4.529475 -1.055652 -2.937012
  O 6.408921 -0.910075 -2.306939
  H 3.567250 1.642684 1.482837
  H 4.041886 -0.002812 1.862776
  H 2.556575 -0.708665 -1.553802
  H 5.194985 -0.289444 -0.014115
  H 6.992992 -0.726666 -1.539586
 14
 3.878860
  H 1.572287 0.580975 0.166634
  C 2.594757 0.254756 0.319995
  C 3.197693 0.623384 1.597345
  H 2.428846 0.774583 2.352616
  C 3.155648 -0.509785 -0.675324
  C 4.547740 -0.554325 -0.856938
  C 5.132870 -0.777640 -2.085754
  H 4.526442 -0.876508 -2.982272
  O 6.402671 -0.833467 -2.321115
  H 3.693877 1.594310 1.502029
  H 3.941321 -0.093852 1.935207
  H 2.526615 -0.906556 -1.458752
  H 5.191325 -0.424846 0.004550
  H 6.978230 -0.750222 -1.531946
 14
 10.736218
  H 1.719836 0.758059 0.049232
  C 2.659725 0.265538 0.285889
  C 3.218446 0.627794 1.583392
  H 2.406600 0.791208 2.297622
  C 3.126637 -0.649244 -0.629313
  C 4.519597 -0.615166 -0.843154
  C 5.109923 -0.719518 -2.073190
  H 4.520927 -0.747817 -2.986911
  O 6.387528 -0.762785 -2.300598
  H 3.725796 1.584057 1.532961
  H 3.933231 -0.113711 1.942862
  H 2.465781 -0.987840 -1.421116
  H 5.170437 -0.581056 0.018989
  H 6.950889 -0.750568 -1.495294
 14
 17.628728
  H 1.868427 0.859806 -0.085989
  C 2.714673 0.263276 0.245050
  C 3.246438 0.638015 1.549198
  H 2.407889 0.806879 2.220023
  C 3.102045 -0.760675 -0.583953
  C 4.507422 -0.740181 -0.786803
  C 5.066818 -0.668394 -2.033711
  H 4.459253 -0.558839 -2.922034
  O 6.344589 -0.644386 -2.288745
  H 3.780264 1.598228 1.504163
  H 3.897646 -0.119145 1.968746
  H 2.477034 -1.067598 -1.411062
  H 5.157339 -0.780722 0.080181
  H 6.917366 -0.730864 -1.503301
 14
 30.081541
  H 2.101683 0.974128 -0.242810
  C 2.810320 0.248254 0.163212
  C 3.294916 0.622335 1.493425
  H 2.426510 0.930718 2.079681
  C 3.036114 -0.890043 -0.560369
  C 4.452396 -0.756670 -0.746686
  C 5.021326 -0.551684 -1.972550
  H 4.427592 -0.313862 -2.844556
  O 6.307665 -0.520522 -2.214117
  H 3.953250 1.489894 1.449176
  H 3.800485 -0.194103 2.002044
  H 2.373479 -1.289204 -1.314780
  H 5.094849 -0.895091 0.109668
  H 6.875041 -0.757136 -1.455602
 14
 38.980225
  H 2.406908 1.019379 -0.447022
  C 2.958887 0.222306 0.059330
  C 3.385141 0.599777 1.427310
  H 2.526612 1.052581 1.923854
  C 2.929237 -1.028004 -0.550034
  C 4.351733 -0.737752 -0.653253
  C 4.940845 -0.468620 -1.879310
  H 4.339681 -0.266048 -2.758568
  O 6.218304 -0.455156 -2.119866
  H 4.163333 1.361319 1.408117
  H 3.719434 -0.255185 2.007741
  H 2.288681 -1.376227 -1.336569
  H 4.985804 -0.925821 0.203664
  H 6.793496 -0.640812 -1.350373
 14
 37.422368
  H 2.644810 1.018974 -0.573448
  C 3.085053 0.205206 0.004856
  C 3.382890 0.601481 1.419941
  H 2.497642 1.082185 1.833652
  C 2.919006 -1.099860 -0.504188
  C 4.335440 -0.697301 -0.602253
  C 4.898381 -0.397866 -1.849892
  H 4.258468 -0.144341 -2.692495
  O 6.146915 -0.417034 -2.143537
  H 4.192223 1.326325 1.459650
  H 3.630285 -0.258226 2.034075
  H 2.279120 -1.499363 -1.263919
  H 4.996208 -0.954631 0.216963
  H 6.764849 -0.650737 -1.417516
 14
 37.084284
  H 2.684247 0.986646 -0.598375
  C 3.144825 0.200736 -0.001789
  C 3.320616 0.615758 1.434825
  H 2.388835 1.043766 1.792398
  C 3.000476 -1.130102 -0.459035
  C 4.397811 -0.611980 -0.569780
  C 4.895432 -0.364467 -1.862450
  H 4.214469 -0.059533 -2.654143
  O 6.106121 -0.491331 -2.248034
  H 4.092999 1.376199 1.522221
  H 3.578160 -0.232983 2.063465
  H 2.382784 -1.643287 -1.160305
  H 5.105885 -0.888072 0.205081
  H 6.763243 -0.764648 -1.570329
 14
 36.940674
  H 2.693975 0.991509 -0.604516
  C 3.144394 0.200620 -0.002017
  C 3.328045 0.617111 1.432446
  H 2.388959 1.024826 1.799445
  C 2.992268 -1.129528 -0.460596
  C 4.391200 -0.626067 -0.571316
  C 4.893775 -0.368901 -1.859767
  H 4.215131 -0.067886 -2.654258
  O 6.108614 -0.480554 -2.238296
  H 4.083649 1.394427 1.513414
  H 3.608730 -0.226434 2.056854
  H 2.370241 -1.635232 -1.165997
  H 5.094063 -0.906558 0.205813
  H 6.762856 -0.750632 -1.557457
