 20
 0.000000
  H 1.506019 0.145556 0.413359
  C 2.587574 0.134001 0.386136
  C 3.277252 0.618376 1.589985
  C 2.333993 1.063424 2.695413
  H 2.896880 1.410701 3.559627
  C 3.188408 -0.329032 -0.764649
  C 4.571963 -0.406221 -0.954926
  C 5.208885 -0.867443 -2.108793
  C 4.524801 -1.352920 -3.321876
  H 3.447100 -1.323444 -3.247833
  O 6.511431 -0.897306 -2.186004
  H 3.940045 1.445900 1.321302
  H 3.939689 -0.164772 1.969488
  H 1.695276 0.242060 3.014962
  H 1.696002 1.877892 2.357048
  H 2.536072 -0.648965 -1.563344
  H 5.207095 -0.081926 -0.142165
  H 4.851493 -2.371005 -3.530630
  H 4.851347 -0.759889 -4.175219
  H 6.990999 -0.577261 -1.391691
 20
 12.727457
  H 1.450757 0.158882 0.446635
  C 2.531618 0.140124 0.401110
  C 3.244548 0.619179 1.591632
  C 2.324563 1.071291 2.715162
  H 2.904715 1.413862 3.567652
  C 3.101162 -0.323022 -0.750047
  C 4.611589 -0.413695 -0.973839
  C 5.209441 -0.872656 -2.121660
  C 4.529136 -1.354205 -3.325004
  H 3.451629 -1.321926 -3.244394
  O 6.640313 -0.910415 -2.218255
  H 3.910555 1.443335 1.309875
  H 3.910463 -0.170506 1.959199
  H 1.686057 0.255539 3.046368
  H 1.686611 1.889626 2.389281
  H 2.445512 -0.640569 -1.542360
  H 5.251327 -0.091615 -0.166900
  H 4.854395 -2.374151 -3.535892
  H 4.854520 -0.761376 -4.181244
  H 7.106715 -0.592533 -1.429433
 20
 37.932965
  H 1.409800 0.165918 0.474787
  C 2.496140 0.143235 0.413181
  C 3.228277 0.621680 1.593816
  C 2.342688 1.076194 2.726704
  H 2.942936 1.418318 3.570755
  C 3.020759 -0.318748 -0.734720
  C 4.640445 -0.410731 -0.965789
  C 5.136160 -0.876320 -2.130589
  C 4.533717 -1.361864 -3.350269
  H 3.453483 -1.339301 -3.302162
  O 6.718186 -0.918977 -2.233106
  H 3.897620 1.434190 1.301053
  H 3.902108 -0.163218 1.945224
  H 1.698633 0.263975 3.068045
  H 1.694453 1.895539 2.410197
  H 2.419356 -0.651055 -1.558067
  H 5.243758 -0.080970 -0.140984
  H 4.883485 -2.376524 -3.552155
  H 4.888278 -0.767201 -4.194562
  H 7.094496 -0.580077 -1.382094
 20
 68.282799
  H 1.376309 0.178952 0.503690
  C 2.454056 0.149716 0.427500
  C 3.198886 0.619360 1.588316
  C 2.329302 1.085306 2.748808
  H 2.943920 1.417650 3.572418
  C 2.954560 -0.314706 -0.726173
  C 4.663855 -0.415299 -0.977539
  C 5.100258 -0.876444 -2.131326
  C 4.529710 -1.364464 -3.355151
  H 3.444632 -1.348049 -3.320074
  O 6.849555 -0.926857 -2.254260
  H 3.880261 1.432891 1.282103
  H 3.883781 -0.176660 1.930746
  H 1.690520 0.283246 3.107587
  H 1.686980 1.909615 2.452766
  H 2.375097 -0.650729 -1.559969
  H 5.256313 -0.084892 -0.150306
  H 4.888854 -2.375742 -3.550717
  H 4.892413 -0.767912 -4.193554
  H 7.188039 -0.590673 -1.412083
 20
 96.858854
  H 1.335241 0.190173 0.527278
  C 2.415138 0.154836 0.439267
  C 3.180152 0.622831 1.598576
  C 2.336511 1.091145 2.762967
  H 2.963943 1.421860 3.583975
  C 2.892067 -0.312271 -0.719479
  C 4.646173 -0.418719 -0.983104
  C 5.031847 -0.878992 -2.135585
  C 4.522391 -1.369964 -3.367760
  H 3.434293 -1.365349 -3.361712
  O 6.995356 -0.928492 -2.263601
  H 3.862057 1.426185 1.286530
  H 3.863558 -0.171297 1.930042
  H 1.692032 0.292392 3.125823
  H 1.690945 1.917639 2.471589
  H 2.330014 -0.651833 -1.562044
  H 5.229483 -0.087399 -0.154111
  H 4.897760 -2.379030 -3.552184
  H 4.900944 -0.766578 -4.195837
  H 7.304121 -0.591763 -1.421623
 20
 105.499611
  H 1.349129 0.252080 0.595674
  C 2.416325 0.166153 0.479018
  C 3.225304 0.597181 1.607624
  C 2.413919 1.115730 2.776279
  H 3.062592 1.430100 3.580713
  C 2.858051 -0.333341 -0.702677
  C 4.298426 -0.464406 -1.029536
  C 4.664776 -0.916995 -2.183875
  C 4.553630 -1.411447 -3.460512
  H 3.483563 -1.514797 -3.693778
  O 7.182196 -0.775602 -2.094897
  H 3.932598 1.369291 1.278735
  H 3.860915 -0.234218 1.939137
  H 1.737977 0.352854 3.153962
  H 1.812610 1.971416 2.478271
  H 2.175783 -0.654875 -1.461977
  H 4.964512 -0.139138 -0.256653
  H 5.032827 -2.386735 -3.561477
  H 5.014105 -0.744032 -4.192816
  H 7.418165 -0.472522 -1.215403
 20
 108.987400
  H 1.295625 0.247104 0.635904
  C 2.363379 0.146592 0.485560
  C 3.221323 0.591234 1.591985
  C 2.463932 1.132024 2.779442
  H 3.144917 1.449024 3.555478
  C 2.761029 -0.359553 -0.699112
  C 4.172505 -0.492881 -1.054202
  C 4.543847 -0.926958 -2.199682
  C 4.555338 -1.406310 -3.486780
  H 3.512439 -1.535053 -3.806518
  O 7.334740 -0.729209 -2.005898
  H 3.927463 1.353485 1.234563
  H 3.863586 -0.239405 1.918274
  H 1.795327 0.380491 3.188450
  H 1.852932 1.984055 2.490910
  H 2.058181 -0.672541 -1.445257
  H 4.861434 -0.174037 -0.288195
  H 5.064767 -2.366066 -3.558533
  H 5.052384 -0.716903 -4.169854
  H 7.606724 -0.460335 -1.125520
 20
 109.135365
  H 1.259909 0.258170 0.697086
  C 2.319876 0.144467 0.510441
  C 3.212297 0.583526 1.576122
  C 2.497648 1.147643 2.792483
  H 3.213147 1.468524 3.552334
  C 2.675594 -0.371409 -0.685736
  C 4.056404 -0.517307 -1.090055
  C 4.431896 -0.942171 -2.235524
  C 4.566429 -1.408326 -3.516545
  H 3.556701 -1.561117 -3.925633
  O 7.486910 -0.686234 -1.935465
  H 3.920448 1.327864 1.194921
  H 3.857038 -0.245983 1.888187
  H 1.822525 0.401110 3.229643
  H 1.878006 2.004092 2.512353
  H 1.933775 -0.686308 -1.417856
  H 4.778166 -0.204229 -0.341390
  H 5.101185 -2.354890 -3.553012
  H 5.093235 -0.697914 -4.151917
  H 7.815430 -0.455663 -1.065115
 20
 108.489153
  H 1.209570 0.242204 0.754008
  C 2.263717 0.150669 0.519832
  C 3.206454 0.598511 1.561481
  C 2.537141 1.144795 2.808363
  H 3.273629 1.466719 3.532762
  C 2.578498 -0.355705 -0.688093
  C 3.948134 -0.512739 -1.141755
  C 4.339462 -0.947196 -2.278885
  C 4.579954 -1.420696 -3.543629
  H 3.607703 -1.589075 -4.031427
  O 7.634703 -0.665361 -1.844080
  H 3.888050 1.356711 1.156924
  H 3.871435 -0.227494 1.842976
  H 1.900058 0.393526 3.265620
  H 1.900721 1.989960 2.563262
  H 1.814557 -0.675948 -1.379948
  H 4.698875 -0.225174 -0.406675
  H 5.124694 -2.367600 -3.533370
  H 5.139819 -0.701246 -4.147615
  H 8.014650 -0.454681 -0.988046
 20
 107.790827
  H 1.186926 0.225368 0.824461
  C 2.220406 0.143045 0.540589
  C 3.209017 0.601052 1.530043
  C 2.590168 1.149841 2.803281
  H 3.362270 1.484613 3.496090
  C 2.486166 -0.366192 -0.680789
  C 3.819591 -0.535705 -1.189463
  C 4.226213 -0.969690 -2.319187
  C 4.594111 -1.415440 -3.565694
  H 3.676970 -1.594086 -4.135568
  O 7.767950 -0.634062 -1.704777
  H 3.856969 1.365286 1.087581
  H 3.883193 -0.223238 1.786210
  H 1.982042 0.390338 3.298093
  H 1.933076 1.995175 2.581075
  H 1.682882 -0.685920 -1.337532
  H 4.610927 -0.264057 -0.485947
  H 5.142386 -2.358637 -3.527920
  H 5.169726 -0.667709 -4.118604
  H 8.222055 -0.457809 -0.878432
 20
 107.064822
  H 1.139398 0.292335 0.859437
  C 2.165907 0.166548 0.540980
  C 3.205074 0.583063 1.503055
  C 2.643662 1.153220 2.797509
  H 3.444687 1.452074 3.466370
  C 2.383755 -0.350717 -0.686331
  C 3.696181 -0.562552 -1.243847
  C 4.111630 -1.000518 -2.371878
  C 4.612823 -1.427105 -3.569019
  H 3.757243 -1.618510 -4.235187
  O 7.932313 -0.616252 -1.559950
  H 3.860019 1.326898 1.034862
  H 3.851293 -0.270548 1.742338
  H 2.031414 0.417641 3.313556
  H 2.021102 2.021416 2.595517
  H 1.548890 -0.633014 -1.310063
  H 4.534146 -0.310916 -0.580060
  H 5.161486 -2.370752 -3.480450
  H 5.201144 -0.654246 -4.076201
  H 8.465807 -0.433718 -0.781118
 20
 108.948006
  H 1.141004 0.246230 0.833124
  C 2.171107 0.146618 0.518589
  C 3.203481 0.585853 1.483353
  C 2.632051 1.132551 2.780323
  H 3.431446 1.447156 3.447018
  C 2.394317 -0.346501 -0.700438
  C 3.684119 -0.516336 -1.235670
  C 4.076139 -0.951197 -2.359394
  C 4.551521 -1.425472 -3.554130
  H 3.671114 -1.612859 -4.196467
  O 8.196623 -0.609423 -1.514404
  H 3.838684 1.347832 1.012853
  H 3.871227 -0.255695 1.707008
  H 2.039066 0.376532 3.292605
  H 1.988494 1.990152 2.591352
  H 1.582655 -0.624090 -1.344718
  H 4.500689 -0.266507 -0.555308
  H 5.062725 -2.385684 -3.455998
  H 5.160052 -0.690792 -4.087608
  H 8.780453 -0.436649 -0.773012
