 26
 0.000000
  C 0.968370 0.139598 0.405838
  C 2.445140 0.136129 0.395087
  C 3.233078 0.604542 1.560483
  C 2.459353 1.099024 2.777689
  H 3.140751 1.412199 3.557140
  C 3.056159 -0.328867 -0.763667
  C 4.433687 -0.413055 -0.974429
  C 5.116936 -0.862685 -2.097640
  C 4.626176 -1.384689 -3.401899
  C 3.137387 -1.502311 -3.696537
  H 2.989055 -1.900427 -4.691374
  O 6.439188 -0.856050 -2.081185
  H 0.544139 0.504559 1.333954
  H 0.595023 -0.871208 0.236410
  H 0.582385 0.758593 -0.405876
  H 3.892174 1.412696 1.224043
  H 3.887143 -0.213928 1.881547
  H 1.822587 0.309497 3.173272
  H 1.827407 1.944743 2.511787
  H 2.396288 -0.645644 -1.552733
  H 5.052125 -0.081860 -0.148401
  H 5.085406 -2.371857 -3.526607
  H 5.085797 -0.756467 -4.173304
  H 2.659031 -0.526407 -3.648676
  H 2.658711 -2.175577 -2.988684
  H 6.814802 -0.522069 -1.244986
 26
 3.116692
  C 0.964194 0.109207 0.448888
  C 2.415114 0.131233 0.403092
  C 3.219871 0.600770 1.558504
  C 2.453090 1.110009 2.770024
  H 3.155963 1.415874 3.539527
  C 3.024699 -0.330267 -0.760958
  C 4.413775 -0.406713 -0.969455
  C 5.110150 -0.855860 -2.098639
  C 4.624811 -1.381159 -3.406123
  C 3.138929 -1.505053 -3.702496
  H 3.021286 -1.907069 -4.705087
  O 6.430953 -0.842394 -2.078506
  H 0.523897 0.491309 1.354777
  H 0.549403 -0.869786 0.225611
  H 0.781606 0.748873 -0.388047
  H 3.893521 1.393250 1.218389
  H 3.862018 -0.226134 1.878768
  H 1.813889 0.337303 3.189862
  H 1.839361 1.971005 2.516399
  H 2.362355 -0.648624 -1.548095
  H 5.044052 -0.076969 -0.150081
  H 5.097028 -2.362651 -3.526495
  H 5.091403 -0.751386 -4.172000
  H 2.646163 -0.537242 -3.675265
  H 2.651974 -2.189291 -3.013309
  H 6.822967 -0.510194 -1.249348
 26
 8.593029
  C 0.960103 0.069960 0.467472
  C 2.414388 0.113944 0.414768
  C 3.226183 0.590817 1.553084
  C 2.452469 1.122573 2.760359
  H 3.149530 1.425303 3.524979
  C 3.030789 -0.339896 -0.760666
  C 4.404312 -0.401453 -0.969580
  C 5.095216 -0.841256 -2.090027
  C 4.614937 -1.374272 -3.400157
  C 3.130139 -1.512463 -3.697003
  H 3.021625 -1.914326 -4.690390
  O 6.411291 -0.814339 -2.070470
  H 0.493522 0.445725 1.369507
  H 0.511403 -0.849500 0.134487
  H 0.981934 0.780531 -0.351247
  H 3.920289 1.366292 1.210956
  H 3.846551 -0.253306 1.881615
  H 1.803059 0.359875 3.188567
  H 1.852867 1.993187 2.495927
  H 2.376483 -0.666363 -1.546639
  H 5.033890 -0.069594 -0.154368
  H 5.096904 -2.351223 -3.517649
  H 5.076600 -0.740874 -4.165831
  H 2.626693 -0.547346 -3.678772
  H 2.647565 -2.205442 -3.009857
  H 6.795747 -0.479396 -1.246484
 26
 16.028063
  C 0.951931 0.047134 0.477101
  C 2.407078 0.105555 0.404096
  C 3.222160 0.593152 1.553031
  C 2.453976 1.128558 2.750472
  H 3.157734 1.436024 3.521978
  C 3.023452 -0.344487 -0.770052
  C 4.400340 -0.400657 -0.973938
  C 5.092150 -0.836805 -2.089548
  C 4.613238 -1.370708 -3.395354
  C 3.127993 -1.511291 -3.686275
  H 3.012792 -1.919102 -4.689623
  O 6.412126 -0.806790 -2.073772
  H 0.479491 0.408474 1.370687
  H 0.473853 -0.835646 0.080962
  H 1.124831 0.783097 -0.296358
  H 3.918446 1.363993 1.214619
  H 3.832908 -0.252030 1.883427
  H 1.805236 0.369713 3.179255
  H 1.858551 1.996919 2.481073
  H 2.371589 -0.677016 -1.559729
  H 5.026028 -0.066726 -0.156776
  H 5.096425 -2.347526 -3.513274
  H 5.071387 -0.736777 -4.163428
  H 2.626069 -0.549476 -3.666534
  H 2.651779 -2.201583 -2.997482
  H 6.796198 -0.468841 -1.247061
 26
 22.385240
  C 0.942590 0.028813 0.504341
  C 2.405584 0.105530 0.400253
  C 3.219194 0.597301 1.552956
  C 2.447374 1.139452 2.753499
  H 3.149849 1.446666 3.521583
  C 3.017603 -0.343707 -0.774127
  C 4.396713 -0.400563 -0.978707
  C 5.092428 -0.837843 -2.096589
  C 4.617234 -1.373094 -3.405181
  C 3.133434 -1.515136 -3.701314
  H 3.023958 -1.922238 -4.701552
  O 6.416080 -0.807022 -2.078209
  H 0.459397 0.383515 1.398532
  H 0.441498 -0.829135 0.078038
  H 1.240458 0.786859 -0.259523
  H 3.920853 1.366984 1.212954
  H 3.827359 -0.251343 1.887512
  H 1.797310 0.383006 3.185618
  H 1.852963 2.009049 2.483168
  H 2.363869 -0.676629 -1.561152
  H 5.022929 -0.066125 -0.158871
  H 5.101208 -2.348633 -3.520831
  H 5.077020 -0.739520 -4.171043
  H 2.629343 -0.552293 -3.684500
  H 2.654146 -2.206935 -3.013248
  H 6.798854 -0.468571 -1.249979
 26
 26.954344
  C 0.951903 0.012858 0.532036
  C 2.393510 0.114963 0.405045
  C 3.215618 0.603495 1.549429
  C 2.442341 1.137085 2.745946
  H 3.146722 1.447778 3.517540
  C 3.017773 -0.341858 -0.778276
  C 4.390099 -0.395964 -0.982700
  C 5.087652 -0.834843 -2.096606
  C 4.620914 -1.379096 -3.409000
  C 3.137839 -1.528067 -3.710777
  H 3.033586 -1.942907 -4.715748
  O 6.411354 -0.799490 -2.076148
  H 0.471319 0.342197 1.434190
  H 0.429070 -0.775213 0.015975
  H 1.332263 0.833220 -0.167205
  H 3.911762 1.371694 1.212429
  H 3.816776 -0.247621 1.876830
  H 1.799000 0.376641 3.175679
  H 1.843238 2.001918 2.479228
  H 2.365164 -0.682627 -1.560518
  H 5.014382 -0.057685 -0.166054
  H 5.108822 -2.354292 -3.518095
  H 5.081499 -0.746305 -4.176157
  H 2.631309 -0.568102 -3.700591
  H 2.659426 -2.217707 -3.022228
  H 6.783198 -0.458503 -1.251689
 26
 29.636072
  C 0.949041 -0.010423 0.530160
  C 2.384423 0.114293 0.385919
  C 3.212565 0.603141 1.534673
  C 2.445730 1.140088 2.751225
  H 3.156353 1.454050 3.510073
  C 3.007464 -0.345901 -0.790897
  C 4.387594 -0.395987 -0.990577
  C 5.086638 -0.834520 -2.098134
  C 4.622219 -1.381376 -3.405821
  C 3.140289 -1.530942 -3.703108
  H 3.034057 -1.945045 -4.698618
  O 6.415237 -0.796082 -2.076168
  H 0.469272 0.296608 1.445175
  H 0.417080 -0.740714 -0.052945
  H 1.401283 0.869639 -0.108872
  H 3.909695 1.379043 1.189146
  H 3.819754 -0.255525 1.857773
  H 1.811205 0.375662 3.195526
  H 1.837960 2.005803 2.491896
  H 2.353634 -0.694348 -1.573162
  H 5.011330 -0.051731 -0.171021
  H 5.109248 -2.355100 -3.512108
  H 5.080351 -0.750790 -4.173337
  H 2.633388 -0.569241 -3.693621
  H 2.663471 -2.219898 -3.010262
  H 6.792671 -0.445309 -1.232950
 26
 31.886049
  C 0.949179 -0.025361 0.545340
  C 2.375185 0.118832 0.392854
  C 3.212248 0.613214 1.545613
  C 2.449744 1.147543 2.759500
  H 3.161703 1.471413 3.511393
  C 3.001577 -0.345622 -0.789125
  C 4.372780 -0.394005 -0.986693
  C 5.083819 -0.836114 -2.100102
  C 4.632438 -1.386967 -3.415494
  C 3.151663 -1.542645 -3.729318
  H 3.057512 -1.959085 -4.729285
  O 6.409349 -0.795001 -2.070812
  H 0.470457 0.257538 1.462624
  H 0.405394 -0.701747 -0.094823
  H 1.457746 0.894153 -0.037391
  H 3.900803 1.390022 1.195622
  H 3.823547 -0.237865 1.868937
  H 1.827427 0.380609 3.211678
  H 1.833541 2.004977 2.500845
  H 2.348601 -0.695813 -1.566195
  H 4.992527 -0.048404 -0.166944
  H 5.124448 -2.360905 -3.516218
  H 5.096641 -0.753910 -4.180111
  H 2.640501 -0.581765 -3.725727
  H 2.669694 -2.234028 -3.040608
  H 6.767564 -0.453701 -1.249845
 26
 33.461318
  C 0.951415 -0.042829 0.555239
  C 2.376871 0.122159 0.394422
  C 3.217325 0.617604 1.539657
  C 2.452699 1.146944 2.746509
  H 3.165115 1.484728 3.499118
  C 3.002881 -0.348344 -0.793179
  C 4.371531 -0.396571 -0.992327
  C 5.079765 -0.838065 -2.100228
  C 4.632839 -1.387779 -3.413785
  C 3.153873 -1.542700 -3.731856
  H 3.062406 -1.959254 -4.733548
  O 6.403894 -0.797859 -2.068636
  H 0.468256 0.212009 1.485968
  H 0.399694 -0.658238 -0.129928
  H 1.508216 0.913363 0.018891
  H 3.896665 1.398167 1.185078
  H 3.833753 -0.225074 1.864096
  H 1.839113 0.371359 3.203898
  H 1.823618 1.997634 2.483109
  H 2.348129 -0.699241 -1.566048
  H 4.991421 -0.049971 -0.174019
  H 5.124808 -2.362904 -3.512771
  H 5.099773 -0.754254 -4.177646
  H 2.644227 -0.583295 -3.729298
  H 2.670746 -2.232989 -3.046104
  H 6.771623 -0.446210 -1.219775
 26
 35.081391
  C 0.954351 -0.063767 0.543590
  C 2.379025 0.124909 0.383633
  C 3.218592 0.622607 1.539449
  C 2.442741 1.145993 2.742471
  H 3.150035 1.494137 3.499754
  C 3.012456 -0.348066 -0.799924
  C 4.387813 -0.394493 -0.994653
  C 5.094508 -0.839820 -2.103600
  C 4.631135 -1.389265 -3.411512
  C 3.149882 -1.531624 -3.702426
  H 3.037157 -1.946478 -4.698093
  O 6.428598 -0.804335 -2.080435
  H 0.461486 0.171801 1.473926
  H 0.408570 -0.632666 -0.172853
  H 1.552104 0.921927 0.041999
  H 3.893448 1.410881 1.185214
  H 3.839823 -0.213520 1.867158
  H 1.835265 0.362610 3.199241
  H 1.803323 1.990564 2.474598
  H 2.359498 -0.701296 -1.577452
  H 5.008158 -0.045131 -0.175236
  H 5.113892 -2.367659 -3.515817
  H 5.090943 -0.760402 -4.182707
  H 2.650907 -0.572488 -3.690304
  H 2.675566 -2.213254 -3.010064
  H 6.793696 -0.461722 -1.254606
 26
 36.684271
  C 0.951473 -0.063427 0.566242
  C 2.370938 0.138755 0.394760
  C 3.223472 0.628693 1.549348
  C 2.456842 1.148251 2.752769
  H 3.165558 1.497635 3.503561
  C 3.001068 -0.340890 -0.795326
  C 4.370431 -0.387969 -0.994149
  C 5.084326 -0.836622 -2.100963
  C 4.640989 -1.396203 -3.423278
  C 3.163152 -1.553317 -3.748069
  H 3.076508 -1.971874 -4.747844
  O 6.408080 -0.794805 -2.062517
  H 0.464304 0.163903 1.495257
  H 0.394174 -0.600517 -0.177323
  H 1.582939 0.939555 0.083954
  H 3.894129 1.415693 1.192261
  H 3.844625 -0.206241 1.871160
  H 1.856734 0.365850 3.211871
  H 1.814991 1.987601 2.490432
  H 2.349423 -0.691742 -1.559661
  H 4.987921 -0.036533 -0.179250
  H 5.133322 -2.372609 -3.516133
  H 5.110769 -0.764721 -4.188553
  H 2.653958 -0.596404 -3.749161
  H 2.678790 -2.240214 -3.063904
  H 6.765442 -0.444156 -1.222373
 26
 38.032511
  C 0.948654 -0.078444 0.549560
  C 2.381706 0.150350 0.378413
  C 3.229028 0.625113 1.540155
  C 2.451173 1.137654 2.746537
  H 3.153842 1.488176 3.501639
  C 3.016774 -0.335024 -0.806729
  C 4.390535 -0.377531 -1.002088
  C 5.098485 -0.832101 -2.102890
  C 4.639103 -1.395994 -3.410281
  C 3.154638 -1.544426 -3.707783
  H 3.046863 -1.968731 -4.705395
  O 6.431852 -0.793764 -2.074748
  H 0.453452 0.143893 1.477074
  H 0.392275 -0.583035 -0.214080
  H 1.620437 0.958468 0.079980
  H 3.899895 1.416509 1.192432
  H 3.850276 -0.215753 1.859477
  H 1.853223 0.349623 3.200466
  H 1.804886 1.974892 2.484668
  H 2.363895 -0.694437 -1.577358
  H 5.009627 -0.017897 -0.187705
  H 5.124670 -2.375699 -3.503366
  H 5.101667 -0.772576 -4.186020
  H 2.651558 -0.582961 -3.705067
  H 2.677054 -2.224797 -3.010192
  H 6.796373 -0.440682 -1.243262
 26
 39.691741
  C 0.950142 -0.087245 0.558561
  C 2.374350 0.158939 0.378318
  C 3.230608 0.627732 1.541635
  C 2.457756 1.141175 2.752854
  H 3.164960 1.491626 3.506163
  C 3.007709 -0.331482 -0.809050
  C 4.379452 -0.375174 -1.005580
  C 5.090388 -0.831371 -2.103411
  C 4.641939 -1.397064 -3.411064
  C 3.168508 -1.549179 -3.722027
  H 3.072733 -1.972882 -4.715855
  O 6.424182 -0.792701 -2.068877
  H 0.456843 0.137831 1.485770
  H 0.393148 -0.578271 -0.210484
  H 1.648337 0.964434 0.089242
  H 3.903041 1.419578 1.191989
  H 3.850686 -0.215991 1.857982
  H 1.863478 0.356098 3.207801
  H 1.812828 1.976257 2.495161
  H 2.353486 -0.688918 -1.575529
  H 4.998459 -0.014039 -0.191234
  H 5.128678 -2.373445 -3.497263
  H 5.108416 -0.774664 -4.181048
  H 2.665581 -0.594207 -3.725399
  H 2.688503 -2.226517 -3.032401
  H 6.784457 -0.438861 -1.237575
 26
 40.913220
  C 0.961734 -0.103545 0.551105
  C 2.385245 0.168734 0.370789
  C 3.237189 0.628830 1.539915
  C 2.453465 1.139914 2.754217
  H 3.161205 1.493571 3.518338
  C 3.022775 -0.325924 -0.812522
  C 4.401007 -0.368452 -1.006133
  C 5.106886 -0.825855 -2.096464
  C 4.647010 -1.398490 -3.409138
  C 3.150834 -1.547742 -3.713250
  H 3.043923 -1.976736 -4.712387
  O 6.440139 -0.788159 -2.060988
  H 0.459938 0.125714 1.476579
  H 0.407052 -0.581689 -0.229189
  H 1.688175 0.975744 0.082543
  H 3.907259 1.416743 1.198396
  H 3.851191 -0.211243 1.853310
  H 1.851576 0.342945 3.209175
  H 1.800984 1.981738 2.492182
  H 2.366679 -0.686465 -1.583858
  H 5.019662 -0.004343 -0.192887
  H 5.133911 -2.383357 -3.496422
  H 5.115024 -0.776529 -4.189580
  H 2.647319 -0.584484 -3.715471
  H 2.669053 -2.225976 -3.013761
  H 6.800346 -0.432370 -1.231423
