7

C          1.16374       -0.00007        0.06618
N          2.62557       -0.02818        0.05326
C          3.11942        0.93859        0.49760
O          3.60270        1.91188        0.94494
H          0.78477       -0.93339       -0.36279
H          0.76990        0.82616       -0.53778
H          0.76990        0.07962        1.08650
