 20
 0.000000
  C 0.976820 0.180293 0.491038
  C 2.429141 0.115195 0.331158
  H 3.069269 0.436981 1.139116
  C 2.990454 -0.353685 -0.832779
  C 4.372310 -0.421927 -1.002579
  C 5.107785 -0.863293 -2.100857
  C 4.654315 -1.390767 -3.413426
  C 3.175168 -1.520593 -3.736576
  H 3.075944 -1.923678 -4.739693
  O 6.419994 -0.837002 -2.035811
  H 0.679346 0.569891 1.458418
  H 0.537543 -0.810966 0.354765
  H 0.539352 0.801839 -0.292911
  H 2.327860 -0.670105 -1.619170
  H 4.959782 -0.081233 -0.156462
  H 5.134114 -2.370152 -3.524991
  H 5.134215 -0.761152 -4.171731
  H 2.678441 -0.554682 -3.717126
  H 2.678423 -2.204484 -3.054164
  H 6.787017 -0.500637 -1.196016
 20
 4.585356
  C 0.984612 0.233885 0.506694
  C 2.394475 0.129406 0.321719
  H 3.064586 0.442545 1.106760
  C 2.958601 -0.355890 -0.842611
  C 4.350680 -0.436751 -0.998810
  C 5.096590 -0.874153 -2.093613
  C 4.657192 -1.388780 -3.411757
  C 3.180605 -1.510353 -3.747772
  H 3.092273 -1.905229 -4.757284
  O 6.398566 -0.856337 -2.016908
  H 0.671263 0.623443 1.474180
  H 0.812144 -0.821713 0.404106
  H 0.446942 0.727985 -0.314756
  H 2.297130 -0.666320 -1.631083
  H 4.936034 -0.102879 -0.142381
  H 5.136161 -2.367666 -3.525653
  H 5.147638 -0.754941 -4.159013
  H 2.686674 -0.542487 -3.731457
  H 2.675440 -2.203892 -3.080824
  H 6.758274 -0.527832 -1.172742
 20
 13.066947
  C 0.970745 0.283929 0.522721
  C 2.377392 0.137198 0.330518
  H 3.072346 0.448599 1.108094
  C 2.941911 -0.357788 -0.845262
  C 4.323686 -0.448848 -0.997576
  C 5.074057 -0.882767 -2.087890
  C 4.655889 -1.386570 -3.413519
  C 3.188805 -1.506838 -3.779711
  H 3.122086 -1.894002 -4.793612
  O 6.392941 -0.872772 -1.999588
  H 0.643099 0.700069 1.465465
  H 1.041200 -0.809955 0.486277
  H 0.380796 0.629111 -0.305220
  H 2.283640 -0.666388 -1.647955
  H 4.906043 -0.124440 -0.140016
  H 5.136266 -2.364411 -3.524696
  H 5.158787 -0.747061 -4.145846
  H 2.694317 -0.538701 -3.767523
  H 2.671595 -2.207776 -3.128831
  H 6.744383 -0.549990 -1.145836
 20
 19.702891
  C 0.956059 0.310017 0.508644
  C 2.360883 0.133967 0.318487
  H 3.042217 0.441135 1.104933
  C 2.943201 -0.363373 -0.862434
  C 4.327436 -0.460615 -0.996641
  C 5.082014 -0.891261 -2.082131
  C 4.660358 -1.385364 -3.421194
  C 3.185164 -1.487717 -3.777602
  H 3.105465 -1.865988 -4.794623
  O 6.399004 -0.892759 -1.988840
  H 0.618186 0.775885 1.418814
  H 1.225996 -0.777599 0.597862
  H 0.318494 0.491157 -0.336555
  H 2.294093 -0.657904 -1.664343
  H 4.901560 -0.144803 -0.133855
  H 5.131473 -2.369268 -3.541260
  H 5.166186 -0.741872 -4.152360
  H 2.701492 -0.515195 -3.752444
  H 2.666471 -2.186905 -3.128043
  H 6.745263 -0.575273 -1.125894
 20
 24.192321
  C 0.950915 0.340027 0.511191
  C 2.349957 0.122362 0.320734
  H 3.025483 0.425662 1.104563
  C 2.931740 -0.368298 -0.868238
  C 4.314202 -0.472563 -1.000280
  C 5.070830 -0.896125 -2.077330
  C 4.665998 -1.382325 -3.426610
  C 3.195579 -1.482249 -3.803511
  H 3.129074 -1.854413 -4.822852
  O 6.396986 -0.902919 -1.971868
  H 0.606501 0.860691 1.394754
  H 1.373492 -0.725042 0.720782
  H 0.282409 0.371656 -0.329921
  H 2.278640 -0.649087 -1.673383
  H 4.886739 -0.166221 -0.133090
  H 5.137089 -2.366938 -3.545474
  H 5.180000 -0.732270 -4.147315
  H 2.713618 -0.511702 -3.778793
  H 2.669538 -2.183285 -3.165368
  H 6.728236 -0.593712 -1.112410
 20
 28.327578
  C 0.951204 0.365605 0.515125
  C 2.346422 0.104606 0.317568
  H 3.037981 0.414730 1.106432
  C 2.916848 -0.377050 -0.867876
  C 4.292096 -0.483734 -1.007259
  C 5.049419 -0.900507 -2.081952
  C 4.666143 -1.378346 -3.425143
  C 3.211441 -1.486165 -3.824793
  H 3.165935 -1.857269 -4.851994
  O 6.380802 -0.905526 -1.969966
  H 0.611040 0.900549 1.407139
  H 1.488828 -0.695626 0.755532
  H 0.253542 0.342538 -0.318511
  H 2.267000 -0.650562 -1.667408
  H 4.875301 -0.178100 -0.128195
  H 5.142855 -2.355996 -3.539126
  H 5.184068 -0.724188 -4.131385
  H 2.722266 -0.515813 -3.805980
  H 2.677773 -2.197086 -3.195406
  H 6.713141 -0.590501 -1.084348
 20
 30.848352
  C 0.943403 0.386323 0.474879
  C 2.337118 0.091226 0.332418
  H 3.016547 0.424345 1.117258
  C 2.935610 -0.387619 -0.873453
  C 4.314963 -0.491303 -0.995899
  C 5.075180 -0.903243 -2.073067
  C 4.671354 -1.375701 -3.428951
  C 3.197023 -1.469145 -3.798775
  H 3.123028 -1.833911 -4.825763
  O 6.406725 -0.910383 -1.966531
  H 0.575421 0.915352 1.345422
  H 1.558701 -0.683817 0.785848
  H 0.260656 0.273021 -0.357393
  H 2.291380 -0.655215 -1.677461
  H 4.887680 -0.192817 -0.118703
  H 5.141309 -2.359799 -3.558905
  H 5.183190 -0.717512 -4.143864
  H 2.715926 -0.492870 -3.761934
  H 2.670733 -2.177810 -3.159536
  H 6.734022 -0.605476 -1.100266
 20
 33.243890
  C 0.943563 0.413884 0.458454
  C 2.334370 0.078273 0.350070
  H 3.010945 0.433939 1.118656
  C 2.938659 -0.396439 -0.866088
  C 4.314745 -0.496719 -0.988009
  C 5.077373 -0.903781 -2.068529
  C 4.674276 -1.373123 -3.431668
  C 3.199748 -1.467970 -3.802817
  H 3.126776 -1.826792 -4.823528
  O 6.407389 -0.907709 -1.960943
  H 0.566471 0.928737 1.323522
  H 1.627825 -0.691583 0.805941
  H 0.269311 0.258196 -0.364206
  H 2.286079 -0.666127 -1.674995
  H 4.885011 -0.201650 -0.113683
  H 5.144655 -2.353356 -3.565029
  H 5.182985 -0.712575 -4.141228
  H 2.718916 -0.497291 -3.762843
  H 2.677314 -2.175196 -3.170053
  H 6.730594 -0.606689 -1.097182
 20
 35.432936
  C 0.947400 0.434371 0.442325
  C 2.338218 0.065077 0.362611
  H 3.015965 0.432431 1.130859
  C 2.939640 -0.401244 -0.855177
  C 4.311862 -0.499618 -0.982847
  C 5.074810 -0.902887 -2.066263
  C 4.673986 -1.369387 -3.428102
  C 3.205410 -1.468919 -3.800675
  H 3.135786 -1.829915 -4.833402
  O 6.405989 -0.903696 -1.960450
  H 0.560548 0.940328 1.316202
  H 1.696540 -0.712974 0.803696
  H 0.273627 0.265793 -0.390914
  H 2.284227 -0.670065 -1.664729
  H 4.874477 -0.211236 -0.125140
  H 5.147785 -2.347233 -3.563355
  H 5.182776 -0.703329 -4.138333
  H 2.717716 -0.493235 -3.759191
  H 2.680867 -2.185355 -3.164966
  H 6.732108 -0.602021 -1.090072
 20
 35.370725
  C 0.947055 0.468065 0.424012
  C 2.330211 0.051338 0.380641
  H 3.006704 0.449971 1.130404
  C 2.943634 -0.406575 -0.857666
  C 4.312423 -0.503966 -0.981576
  C 5.077214 -0.904888 -2.067763
  C 4.675146 -1.366732 -3.428483
  C 3.209910 -1.467289 -3.798175
  H 3.139456 -1.825371 -4.828776
  O 6.406993 -0.901756 -1.961814
  H 0.553096 0.954357 1.294101
  H 1.764070 -0.770915 0.826898
  H 0.279555 0.271830 -0.402551
  H 2.284474 -0.671386 -1.662113
  H 4.881321 -0.215039 -0.112800
  H 5.150352 -2.344818 -3.567709
  H 5.182028 -0.697858 -4.138832
  H 2.724153 -0.497539 -3.754410
  H 2.689666 -2.182006 -3.165513
  H 6.732826 -0.604030 -1.094755
 20
 35.112377
  C 0.957645 0.487210 0.389656
  C 2.331479 0.030990 0.387104
  H 3.001027 0.459053 1.132119
  C 2.952415 -0.413229 -0.853186
  C 4.316764 -0.506983 -0.972702
  C 5.083746 -0.904109 -2.062247
  C 4.677579 -1.362326 -3.425120
  C 3.196872 -1.465424 -3.795558
  H 3.124534 -1.817481 -4.816853
  O 6.408530 -0.895115 -1.955169
  H 0.548563 0.971289 1.261638
  H 1.847065 -0.829388 0.829912
  H 0.305250 0.278633 -0.436729
  H 2.292556 -0.678039 -1.658985
  H 4.891282 -0.216589 -0.092776
  H 5.155138 -2.336440 -3.568829
  H 5.178469 -0.696207 -4.127894
  H 2.707188 -0.495469 -3.748969
  H 2.678598 -2.182348 -3.165209
  H 6.736675 -0.599304 -1.085004
 20
 32.951073
  C 0.962119 0.514392 0.372579
  C 2.320666 0.009636 0.398455
  H 2.988103 0.473392 1.125869
  C 2.953428 -0.419377 -0.851469
  C 4.312977 -0.510707 -0.967289
  C 5.083730 -0.905662 -2.061158
  C 4.676742 -1.359708 -3.421501
  C 3.203667 -1.465089 -3.792155
  H 3.133891 -1.816322 -4.814461
  O 6.403071 -0.891730 -1.954097
  H 0.552622 0.999079 1.240781
  H 1.952175 -0.913488 0.849687
  H 0.310902 0.306512 -0.456241
  H 2.292375 -0.682013 -1.657418
  H 4.885851 -0.222883 -0.089304
  H 5.156463 -2.329750 -3.568193
  H 5.180815 -0.687115 -4.127931
  H 2.711183 -0.494763 -3.745868
  H 2.684085 -2.185300 -3.162315
  H 6.735160 -0.600190 -1.082708
 20
 31.650040
  C 0.964577 0.526162 0.359491
  C 2.312991 -0.010712 0.409767
  H 2.975072 0.496101 1.115463
  C 2.956625 -0.426141 -0.848816
  C 4.314006 -0.520135 -0.960390
  C 5.087833 -0.910144 -2.058917
  C 4.678963 -1.356674 -3.418533
  C 3.206876 -1.462682 -3.789698
  H 3.137793 -1.812996 -4.818544
  O 6.402530 -0.893279 -1.951616
  H 0.551021 1.022202 1.217523
  H 2.061376 -0.966261 0.872187
  H 0.320163 0.324470 -0.476081
  H 2.297375 -0.681054 -1.658815
  H 4.885786 -0.237870 -0.082280
  H 5.159726 -2.323016 -3.570777
  H 5.182778 -0.679095 -4.123880
  H 2.712376 -0.493447 -3.740336
  H 2.690462 -2.182733 -3.165793
  H 6.737827 -0.606571 -1.079998
