 17
 0.000000
  C 0.960193 0.063299 0.197709
  C 2.461070 0.034309 0.141762
  C 3.189812 -0.028167 1.457184
  H 2.488091 -0.053474 2.286764
  C 3.115095 0.077881 -1.030360
  H 2.561142 0.136178 -1.957107
  C 4.550897 0.103421 -1.162764
  C 5.160182 0.216729 -2.342244
  O 6.500485 0.253218 -2.542255
  H 0.607705 0.071489 1.225888
  H 0.526390 -0.804799 -0.296738
  H 0.574138 0.950961 -0.302851
  H 3.834792 0.840698 1.585713
  H 3.813806 -0.919762 1.514839
  H 5.150312 0.026556 -0.266661
  H 4.621538 0.295486 -3.274755
  H 6.956383 0.181912 -1.693467
 17
 -0.347604
  C 0.966381 0.041987 0.183797
  C 2.467912 0.043991 0.161582
  C 3.176573 0.019186 1.487633
  H 2.465055 0.021778 2.309080
  C 3.128062 0.079914 -1.008467
  H 2.560322 0.105898 -1.930159
  C 4.561578 0.100972 -1.166269
  C 5.156676 0.189826 -2.357562
  O 6.495093 0.214982 -2.575296
  H 0.587758 -0.222315 1.167720
  H 0.567833 -0.667547 -0.539235
  H 0.580613 1.028944 -0.073648
  H 3.824420 0.888455 1.597464
  H 3.795854 -0.873182 1.577497
  H 5.171403 0.038866 -0.274440
  H 4.606132 0.253972 -3.284307
  H 6.960973 0.156661 -1.731334
 17
 -0.844333
  C 0.970271 0.025290 0.178804
  C 2.470460 0.064385 0.161288
  C 3.165103 0.077569 1.493729
  H 2.443124 0.116850 2.305053
  C 3.131862 0.075780 -1.001725
  H 2.566721 0.089358 -1.924985
  C 4.563417 0.089212 -1.166736
  C 5.154305 0.168721 -2.360434
  O 6.492033 0.182676 -2.583326
  H 0.608813 -0.506468 1.056743
  H 0.594576 -0.479060 -0.708851
  H 0.559002 1.035054 0.203257
  H 3.822162 0.942431 1.579670
  H 3.772469 -0.818506 1.621515
  H 5.175911 0.022574 -0.276540
  H 4.600784 0.237268 -3.285161
  H 6.960634 0.122956 -1.740955
 17
 -0.948347
  C 0.974279 0.004347 0.178832
  C 2.469215 0.097875 0.155635
  C 3.156961 0.144845 1.490262
  H 2.427557 0.235662 2.291060
  C 3.126744 0.085047 -1.009196
  H 2.564801 0.134392 -1.932641
  C 4.559549 0.070940 -1.167995
  C 5.158915 0.153089 -2.357302
  O 6.497437 0.124572 -2.574202
  H 0.661809 -0.776709 0.872244
  H 0.616227 -0.259422 -0.812367
  H 0.519624 0.940293 0.501116
  H 3.835873 0.994716 1.544317
  H 3.739004 -0.760925 1.662438
  H 5.164719 -0.031371 -0.276234
  H 4.612645 0.254167 -3.283363
  H 6.959484 0.032704 -1.731039
 17
 1.847322
  C 0.979974 -0.042126 0.176501
  C 2.468197 0.122042 0.157613
  C 3.153183 0.236694 1.488383
  H 2.420245 0.389339 2.276981
  C 3.117892 0.126452 -1.013044
  H 2.575884 0.358297 -1.919743
  C 4.549815 0.038676 -1.167831
  C 5.162205 0.139381 -2.349589
  O 6.495659 0.014203 -2.564618
  H 0.750575 -1.025713 0.595635
  H 0.622738 -0.065288 -0.848356
  H 0.467922 0.706597 0.774233
  H 3.844244 1.077927 1.482436
  H 3.723797 -0.661162 1.730330
  H 5.132141 -0.218549 -0.293131
  H 4.636553 0.367979 -3.264006
  H 6.948139 -0.123548 -1.719797
 17
 12.378184
  C 1.000452 -0.090915 0.150811
  C 2.483343 0.133850 0.204442
  C 3.151371 0.333222 1.536088
  H 2.401691 0.382689 2.325239
  C 3.110465 0.188099 -0.984319
  H 2.616922 0.652657 -1.824724
  C 4.522267 -0.053811 -1.187099
  C 5.151440 0.190966 -2.337077
  O 6.458153 -0.076011 -2.600551
  H 0.812346 -1.130262 0.443294
  H 0.783605 -0.109652 -0.916190
  H 0.400345 0.554422 0.774014
  H 3.719225 1.265864 1.522089
  H 3.843242 -0.467907 1.785557
  H 5.059942 -0.551303 -0.389534
  H 4.664986 0.643399 -3.181887
  H 6.887841 -0.425666 -1.795313
 17
 29.777661
  C 1.043018 -0.161984 0.142142
  C 2.492531 0.164138 0.254322
  C 3.156618 0.394761 1.572337
  H 2.407034 0.536440 2.348938
  C 3.089114 0.200550 -0.965133
  H 2.677829 0.896840 -1.691190
  C 4.486909 -0.059894 -1.182352
  C 5.117348 0.212394 -2.330272
  O 6.410856 -0.103781 -2.621512
  H 0.854290 -1.221978 0.253132
  H 0.985335 -0.159486 -0.962049
  H 0.349945 0.417142 0.750160
  H 3.801721 1.273699 1.515530
  H 3.784216 -0.451367 1.870156
  H 5.001409 -0.631791 -0.425094
  H 4.644835 0.738281 -3.148349
  H 6.799056 -0.602675 -1.878212
 17
 58.864175
  C 1.097102 -0.178861 0.096775
  C 2.492177 0.214333 0.346229
  C 3.113903 0.501654 1.667264
  H 2.352753 0.517294 2.444452
  C 3.090083 0.243806 -0.898680
  H 2.753801 1.012114 -1.583506
  C 4.446445 -0.140154 -1.206261
  C 5.076143 0.188396 -2.341349
  O 6.313389 -0.225115 -2.711717
  H 0.940899 -1.258196 -0.039958
  H 1.351264 -0.143143 -1.074136
  H 0.348714 0.206808 0.777849
  H 3.636713 1.457266 1.640633
  H 3.850156 -0.264035 1.939535
  H 4.965772 -0.749990 -0.473141
  H 4.633099 0.821070 -3.096410
  H 6.693655 -0.752202 -2.014012
 17
 77.855098
  C 1.121784 -0.224507 0.195735
  C 2.443316 0.228754 0.373924
  C 3.123865 0.544491 1.660500
  H 2.403126 0.564655 2.475000
  C 3.012259 0.269819 -0.935994
  H 2.704725 1.098364 -1.566270
  C 4.377830 -0.155188 -1.217413
  C 5.059141 0.201439 -2.306329
  O 6.308520 -0.220202 -2.639364
  H 0.945779 -1.259453 -0.061420
  H 1.638354 -0.199594 -1.213441
  H 0.327508 0.150128 0.845608
  H 3.643717 1.501674 1.614295
  H 3.868470 -0.221787 1.884023
  H 4.823597 -0.853160 -0.518002
  H 4.663872 0.879614 -3.048226
  H 6.634874 -0.824886 -1.961660
 17
 59.295838
  C 1.151293 -0.281608 0.297022
  C 2.411082 0.215848 0.390095
  C 3.120480 0.608699 1.625696
  H 2.449177 0.575038 2.478511
  C 2.969630 0.290262 -0.984170
  H 2.711184 1.168770 -1.569961
  C 4.320607 -0.204753 -1.255525
  C 5.063662 0.187043 -2.287243
  O 6.302620 -0.272604 -2.595323
  H 0.951331 -1.239820 -0.158596
  H 1.897823 -0.134673 -1.339038
  H 0.362484 -0.016848 0.992662
  H 3.559554 1.604396 1.550022
  H 3.933164 -0.097378 1.800141
  H 4.685381 -0.991424 -0.601151
  H 4.753174 0.962438 -2.972404
  H 6.583246 -0.906124 -1.929014
 17
 33.627380
  C 1.097747 -0.284642 0.370503
  C 2.342760 0.210085 0.373547
  C 3.125511 0.622868 1.567125
  H 2.495801 0.662426 2.453054
  C 2.933486 0.264255 -1.003545
  H 2.752949 1.235868 -1.481388
  C 4.318659 -0.207722 -1.245798
  C 5.081237 0.216636 -2.245021
  O 6.321550 -0.239965 -2.545712
  H 0.841454 -1.184533 -0.160252
  H 2.085931 -0.237604 -1.533216
  H 0.384079 -0.079701 1.159923
  H 3.624791 1.584536 1.435368
  H 3.897772 -0.130303 1.722054
  H 4.691684 -0.965560 -0.567136
  H 4.757011 0.961830 -2.957081
  H 6.562425 -0.937273 -1.934465
 17
 18.194074
  C 1.101923 -0.326475 0.456059
  C 2.315080 0.204596 0.336280
  C 3.171712 0.647096 1.474746
  H 2.617242 0.631789 2.409803
  C 2.876139 0.252837 -1.061856
  H 2.746492 1.258065 -1.481617
  C 4.262060 -0.247289 -1.266126
  C 5.101071 0.248817 -2.162758
  O 6.366500 -0.188168 -2.399547
  H 0.743631 -1.107510 -0.192915
  H 2.092408 -0.285811 -1.620807
  H 0.474443 -0.185884 1.325769
  H 3.587074 1.643338 1.320703
  H 4.004852 -0.049663 1.551285
  H 4.549008 -1.113939 -0.682017
  H 4.852931 1.086406 -2.798244
  H 6.559525 -0.943763 -1.830542
 17
 7.582792
  C 1.136476 -0.435469 0.534148
  C 2.299521 0.149563 0.298522
  C 3.181784 0.693243 1.377139
  H 2.663336 0.720917 2.332158
  C 2.818332 0.256461 -1.110900
  H 2.790624 1.307532 -1.417069
  C 4.195344 -0.291994 -1.302919
  C 5.125341 0.288611 -2.044780
  O 6.378655 -0.185665 -2.267864
  H 0.615114 -1.012789 -0.210476
  H 2.086016 -0.252870 -1.745391
  H 0.675714 -0.419655 1.509075
  H 3.535748 1.693802 1.132139
  H 4.056052 0.050628 1.475853
  H 4.405897 -1.233665 -0.809658
  H 4.968413 1.227117 -2.556121
  H 6.489725 -1.031324 -1.815639
 17
 5.514232
  C 1.269895 -0.605473 0.567706
  C 2.316626 0.147476 0.274865
  C 3.155779 0.814467 1.322173
  H 2.655547 0.810080 2.287746
  C 2.777760 0.350963 -1.144728
  H 2.878435 1.417365 -1.351904
  C 4.092856 -0.323743 -1.378795
  C 5.149026 0.274176 -1.910480
  O 6.354188 -0.300965 -2.146927
  H 0.686404 -1.094053 -0.194867
  H 2.028640 -0.061992 -1.825150
  H 0.950765 -0.759248 1.582708
  H 3.374887 1.842693 1.038751
  H 4.106947 0.292022 1.422947
  H 4.147881 -1.363689 -1.079487
  H 5.145070 1.309740 -2.218233
  H 6.331386 -1.225376 -1.868109
 17
 5.259354
  C 1.270702 -0.599963 0.582954
  C 2.316366 0.145285 0.266275
  C 3.168957 0.822793 1.294539
  H 2.712193 0.770235 2.279018
  C 2.761462 0.338621 -1.160955
  H 2.859989 1.405616 -1.374990
  C 4.078615 -0.338079 -1.401296
  C 5.157487 0.279002 -1.856556
  O 6.365699 -0.295091 -2.088208
  H 0.672987 -1.092217 -0.165855
  H 2.009491 -0.080393 -1.835207
  H 0.963113 -0.744029 1.605780
  H 3.324940 1.867420 1.030605
  H 4.148101 0.346197 1.338109
  H 4.113408 -1.395800 -1.166995
  H 5.174997 1.331246 -2.098009
  H 6.323585 -1.236399 -1.870993
