12

H 1.3624286555278677 0.059947527370613776 0.20689645463666334
C 2.424974 0.069179 0.08115
C 3.248696 -0.004587 1.365158
H 2.7331133226566893 -0.06634695085652198 2.300711425141346
C 3.017728 0.134968 -1.13073
C 2.353533 0.203451 -2.496096
H 1.2934004593536597 0.21573057077128088 -2.6405543275703023
H 4.0854390163490235 0.13741853403514423 -1.2006383718153875
H 3.8896 0.880588 1.418491
H 3.899155 -0.883725 1.300746
H 2.730735 -0.652002 -3.068389
H 2.739256 1.105927 -2.984226
