 12
 0.000000
  H 1.384240 0.062333 0.128183
  C 2.462868 0.064038 0.045841
  C 3.250512 0.000141 1.323143
  H 2.614266 -0.051688 2.201845
  C 3.051378 0.124052 -1.137978
  C 2.385980 0.203186 -2.472240
  H 1.302009 0.197324 -2.396906
  H 4.133936 0.127004 -1.187428
  H 3.895084 0.875713 1.408920
  H 3.899023 -0.877457 1.317894
  H 2.700665 -0.636364 -3.092291
  H 2.698099 1.112268 -2.986463
 12
 -0.349605
  H 1.407786 -0.077330 0.104478
  C 2.482702 0.018443 0.034348
  C 3.256033 -0.013371 1.318507
  H 2.608022 0.161374 2.173039
  C 3.065173 0.163294 -1.141267
  C 2.387990 0.216574 -2.469123
  H 1.307749 0.146490 -2.363189
  H 4.144672 0.256885 -1.183175
  H 4.033717 0.749646 1.300662
  H 3.739356 -0.981745 1.450015
  H 2.732064 -0.602739 -3.100488
  H 2.632413 1.148964 -2.977482
 12
 -0.625122
  H 1.421463 -0.225455 0.100293
  C 2.484250 -0.036177 0.034626
  C 3.258409 -0.027495 1.315692
  H 2.649916 0.346238 2.136079
  C 3.054529 0.205865 -1.131786
  C 2.383275 0.237457 -2.464247
  H 1.304520 0.140731 -2.363280
  H 4.123966 0.381338 -1.168229
  H 4.128766 0.615490 1.195288
  H 3.594660 -1.031661 1.573500
  H 2.749004 -0.576915 -3.090141
  H 2.607514 1.173081 -2.975070
 12
 0.099082
  H 1.462376 -0.421466 0.069843
  C 2.499604 -0.119385 0.025606
  C 3.262259 -0.046761 1.309128
  H 2.702919 0.529642 2.045823
  C 3.058892 0.226616 -1.120880
  C 2.371439 0.284174 -2.446358
  H 1.292977 0.202287 -2.332614
  H 4.127924 0.395545 -1.168115
  H 4.179978 0.491307 1.088147
  H 3.466670 -1.029112 1.728130
  H 2.715122 -0.524616 -3.092271
  H 2.603145 1.224830 -2.943969
 12
 4.911555
  H 1.520135 -0.601585 0.039967
  C 2.512601 -0.176576 0.014790
  C 3.262003 -0.053885 1.301330
  H 2.760116 0.692760 1.930913
  C 3.070634 0.222623 -1.118569
  C 2.356486 0.344230 -2.425335
  H 1.281506 0.257511 -2.293075
  H 4.148928 0.226420 -1.209793
  H 4.215122 0.404474 1.044689
  H 3.344428 -0.977564 1.861425
  H 2.685422 -0.423299 -3.125307
  H 2.576276 1.309448 -2.871047
 12
 15.053436
  H 1.527671 -0.762904 0.046866
  C 2.496682 -0.288131 0.023494
  C 3.255521 -0.049141 1.294055
  H 2.771107 0.757202 1.851819
  C 3.062006 0.176907 -1.091691
  C 2.360074 0.395229 -2.401157
  H 1.285755 0.441186 -2.278475
  H 4.125818 0.050338 -1.223145
  H 4.142263 0.461940 0.921070
  H 3.381927 -0.904533 1.931084
  H 2.609578 -0.378242 -3.123764
  H 2.706599 1.338134 -2.825908
 12
 35.018805
  H 1.555521 -0.937574 0.000729
  C 2.468919 -0.361547 0.023097
  C 3.207107 -0.039430 1.275816
  H 2.880362 0.880628 1.777771
  C 3.089189 0.130057 -1.066306
  C 2.395653 0.423287 -2.365666
  H 1.324971 0.547433 -2.197796
  H 4.141125 -0.093389 -1.203585
  H 4.008642 0.521217 0.734130
  H 3.342272 -0.838889 1.973121
  H 2.542968 -0.356784 -3.118467
  H 2.757644 1.376361 -2.747699
 12
 61.688452
  H 1.583278 -1.081300 0.000273
  C 2.481021 -0.501307 0.035669
  C 3.196264 -0.039810 1.267940
  H 2.889799 0.913341 1.657122
  C 3.085808 0.101232 -1.011322
  C 2.409067 0.472582 -2.321978
  H 1.342198 0.670530 -2.161740
  H 4.092835 -0.192529 -1.212229
  H 3.893323 0.600135 0.550445
  H 3.368009 -0.739130 2.035667
  H 2.519718 -0.315324 -3.090910
  H 2.839660 1.381356 -2.716276
 12
 80.635827
  H 1.658500 -1.241466 0.030380
  C 2.488615 -0.555228 0.089487
  C 3.108715 -0.063166 1.254131
  H 2.904059 0.950847 1.567716
  C 3.145162 0.082629 -0.983169
  C 2.427689 0.513221 -2.244176
  H 1.376969 0.706203 -2.042107
  H 4.148203 -0.268262 -1.209619
  H 3.846540 0.658282 0.178183
  H 3.256741 -0.712638 2.119729
  H 2.499762 -0.255131 -3.015342
  H 2.874752 1.422630 -2.641462
 12
 60.328553
  H 1.747971 -1.317338 0.001155
  C 2.521999 -0.582156 0.118254
  C 3.056166 -0.123262 1.284394
  H 2.858717 0.901905 1.546212
  C 3.207521 0.146067 -0.968952
  C 2.441502 0.546106 -2.216351
  H 1.410531 0.813542 -1.962723
  H 4.168943 -0.309229 -1.236807
  H 3.766615 0.788075 -0.165419
  H 3.167894 -0.703005 2.198427
  H 2.433949 -0.271571 -2.933917
  H 2.901117 1.408659 -2.697306
 12
 35.875650
  H 1.829664 -1.328628 -0.036590
  C 2.620989 -0.610052 0.131183
  C 2.958711 -0.110349 1.327127
  H 2.980692 0.941671 1.538690
  C 3.272174 0.117149 -1.000267
  C 2.430259 0.543203 -2.184517
  H 1.397802 0.728240 -1.879825
  H 4.220520 -0.339089 -1.308416
  H 3.764285 0.890261 -0.351095
  H 2.915646 -0.710835 2.239426
  H 2.439573 -0.230781 -2.963110
  H 2.828345 1.453751 -2.624600
 12
 18.997456
  H 1.928240 -1.356385 -0.109086
  C 2.665287 -0.596680 0.124317
  C 2.913063 -0.151926 1.349342
  H 3.068200 0.895995 1.550868
  C 3.281013 0.207596 -0.981156
  C 2.425861 0.546658 -2.187533
  H 1.428500 0.854242 -1.876832
  H 4.186070 -0.321190 -1.310880
  H 3.761582 1.026518 -0.426865
  H 2.770460 -0.717268 2.264114
  H 2.328965 -0.324628 -2.838292
  H 2.872764 1.356252 -2.763128
 12
 6.926897
  H 2.019839 -1.324141 -0.135473
  C 2.691444 -0.519266 0.129846
  C 2.855968 -0.145576 1.386530
  H 3.240778 0.823423 1.658303
  C 3.338628 0.220175 -0.997465
  C 2.415990 0.536110 -2.168607
  H 1.431732 0.828705 -1.808431
  H 4.194370 -0.372445 -1.344437
  H 3.797379 1.110419 -0.559165
  H 2.525307 -0.758563 2.210327
  H 2.301107 -0.332416 -2.812953
  H 2.817463 1.352757 -2.763606
 12
 2.801775
  H 2.233937 -1.409830 -0.172124
  C 2.740994 -0.497562 0.119581
  C 2.792493 -0.141146 1.389439
  H 3.295197 0.758455 1.707717
  C 3.379969 0.265248 -0.998521
  C 2.399438 0.521825 -2.143452
  H 1.464912 0.920150 -1.757452
  H 4.226790 -0.317742 -1.374312
  H 3.770128 1.207553 -0.614559
  H 2.328783 -0.725759 2.166622
  H 2.183194 -0.402238 -2.680250
  H 2.814170 1.240231 -2.847821
 12
 2.602017
  H 2.257542 -1.417491 -0.182459
  C 2.758412 -0.504951 0.115945
  C 2.781229 -0.143564 1.383668
  H 3.271770 0.760859 1.706060
  C 3.389857 0.267413 -0.998823
  C 2.397714 0.521450 -2.133835
  H 1.480273 0.957788 -1.742548
  H 4.238158 -0.305295 -1.387652
  H 3.771961 1.215969 -0.616905
  H 2.315104 -0.732122 2.155915
  H 2.146755 -0.408666 -2.640247
  H 2.821231 1.207794 -2.864250
