26

H 1.3656496529555013 0.1412940619428168 0.4034540887870846
C 2.435627 0.138812 0.396949
C 3.229471 0.606512 1.560312
C 2.462344 1.09865 2.784948
C 3.425064 1.54 3.882996
C 3.047724 -0.326485 -0.761128
C 4.42768 -0.41035 -0.97058
C 5.111749 -0.860636 -2.093538
C 4.622398 -1.384411 -3.399794
C 3.132979 -1.504809 -3.700598
H 2.9854558385619736 -1.8992270982701416 -4.684250011941365
O 6.434575 -0.852273 -2.073085
H 3.886571 1.416144 1.22287
H 3.886751 -0.211308 1.877002
H 1.825548 0.303651 3.177702
H 1.82548 1.944269 2.51835
H 4.060886 0.715705 4.199537
H 2.870851 1.888902 4.751281
H 4.060786 2.354138 3.541037
H 2.388559 -0.643775 -1.55069
H 5.047217 -0.079018 -0.145404
H 5.082172 -2.371786 -3.523346
H 5.082493 -0.756172 -4.171309
H 2.655388 -0.525521 -3.650229
H 2.655156 -2.177872 -2.987664
H 6.800018 -0.516405 -1.234749
