 20
 0.000000
  H 1.407685 0.167760 0.468784
  C 2.479352 0.135513 0.388385
  H 3.088123 0.466518 1.212306
  C 3.035749 -0.328768 -0.767905
  C 4.419427 -0.409029 -0.968221
  C 5.109407 -0.863299 -2.100936
  C 4.609898 -1.382880 -3.396192
  C 3.122596 -1.504801 -3.700615
  C 2.922587 -2.068571 -5.105515
  O 6.417898 -0.855132 -2.080838
  H 2.380207 -0.646474 -1.559328
  H 5.033046 -0.075470 -0.137305
  H 5.073204 -2.369167 -3.523477
  H 5.073596 -0.758353 -4.169896
  H 2.642172 -0.526769 -3.654021
  H 2.641915 -2.179210 -2.990924
  H 3.368261 -1.419440 -5.855234
  H 1.862075 -2.156854 -5.325870
  H 3.368123 -3.055987 -5.198462
  H 6.814615 -0.522970 -1.251043
 20
 -0.272071
  H 1.432105 0.117729 0.569780
  C 2.487718 0.162533 0.360382
  H 3.104996 0.705286 1.058623
  C 3.012735 -0.431339 -0.748586
  C 4.390580 -0.389704 -1.002661
  C 5.110397 -0.901845 -2.094049
  C 4.613101 -1.441158 -3.378140
  C 3.126811 -1.532682 -3.688728
  C 2.926451 -2.000366 -5.126451
  O 6.415261 -0.901290 -2.045450
  H 2.354641 -0.958468 -1.417324
  H 4.986348 0.086772 -0.232327
  H 5.070026 -2.431801 -3.500225
  H 5.098415 -0.840342 -4.158165
  H 2.652020 -0.558921 -3.572612
  H 2.643412 -2.252282 -3.028337
  H 3.367147 -1.301900 -5.829783
  H 1.868652 -2.078351 -5.351894
  H 3.375599 -2.975708 -5.286213
  H 6.815722 -0.555613 -1.223633
 20
 0.384268
  H 1.419538 -0.018231 0.538562
  C 2.439663 0.181562 0.261892
  H 2.933844 1.000381 0.759268
  C 3.063063 -0.543685 -0.705898
  C 4.420094 -0.370239 -1.016444
  C 5.138244 -0.945514 -2.077207
  C 4.623022 -1.472648 -3.360053
  C 3.129735 -1.519627 -3.653301
  C 2.898456 -1.912232 -5.110415
  O 6.441659 -0.971352 -2.021732
  H 2.523180 -1.319836 -1.221353
  H 4.997329 0.217097 -0.309808
  H 5.058078 -2.469201 -3.503942
  H 5.111664 -0.864759 -4.133973
  H 2.674767 -0.544548 -3.475516
  H 2.637616 -2.260696 -3.023561
  H 3.343335 -1.186933 -5.787387
  H 1.833769 -1.959155 -5.323026
  H 3.326893 -2.888238 -5.324830
  H 6.846218 -0.607520 -1.209394
 20
 2.562459
  H 1.437216 -0.266932 0.529647
  C 2.369484 0.109578 0.147810
  H 2.638765 1.119814 0.409485
  C 3.149685 -0.639981 -0.671685
  C 4.449758 -0.288765 -1.068331
  C 5.177264 -0.955194 -2.067829
  C 4.629960 -1.498599 -3.332382
  C 3.133647 -1.437570 -3.616271
  C 2.865175 -1.816004 -5.070533
  O 6.473032 -1.059826 -1.999624
  H 2.814182 -1.611598 -1.007190
  H 4.981308 0.433889 -0.459502
  H 4.991411 -2.526764 -3.449438
  H 5.156758 -0.944433 -4.121309
  H 2.752287 -0.432167 -3.434367
  H 2.587838 -2.133831 -2.981701
  H 3.360298 -1.129158 -5.752803
  H 1.798903 -1.782863 -5.277547
  H 3.217559 -2.822429 -5.282734
  H 6.896410 -0.670098 -1.208749
 20
 7.313011
  H 1.583627 -0.516554 0.691301
  C 2.341636 -0.010829 0.122112
  H 2.360403 1.065480 0.165140
  C 3.245437 -0.701894 -0.619143
  C 4.423401 -0.184133 -1.173304
  C 5.181066 -0.975161 -2.066217
  C 4.637843 -1.521628 -3.328556
  C 3.148986 -1.347443 -3.619090
  C 2.847330 -1.759308 -5.057796
  O 6.448234 -1.182885 -1.900928
  H 3.110388 -1.756784 -0.821218
  H 4.859151 0.718533 -0.764998
  H 4.927094 -2.573868 -3.423706
  H 5.210283 -1.007150 -4.112118
  H 2.855558 -0.306722 -3.475652
  H 2.548725 -1.964678 -2.952331
  H 3.416548 -1.159745 -5.764747
  H 1.791295 -1.622737 -5.276118
  H 3.092196 -2.806209 -5.222170
  H 6.869451 -0.744197 -1.130783
 20
 15.992503
  H 1.725921 -0.670320 0.820539
  C 2.365432 -0.106296 0.171650
  H 2.153143 0.942611 0.046016
  C 3.358943 -0.704017 -0.540792
  C 4.387006 -0.087163 -1.269210
  C 5.139730 -1.016287 -2.047030
  C 4.633903 -1.528195 -3.331807
  C 3.153722 -1.289920 -3.642420
  C 2.838245 -1.725699 -5.071310
  O 6.370796 -1.311516 -1.789083
  H 3.375058 -1.781921 -0.694636
  H 4.763277 0.894444 -1.047000
  H 4.888855 -2.581881 -3.446508
  H 5.247276 -0.999810 -4.075103
  H 2.917261 -0.229531 -3.530020
  H 2.523389 -1.850335 -2.952849
  H 3.434922 -1.166183 -5.792676
  H 1.788837 -1.549938 -5.297194
  H 3.041109 -2.789038 -5.208492
  H 6.807659 -0.813345 -1.060664
 20
 28.028022
  H 2.095439 -0.922090 1.043796
  C 2.418736 -0.284399 0.231033
  H 1.910738 0.657044 0.095573
  C 3.427857 -0.661305 -0.595590
  C 4.344921 0.068952 -1.373846
  C 5.082615 -0.960966 -2.048529
  C 4.597939 -1.513258 -3.324080
  C 3.151435 -1.179938 -3.702996
  C 2.827912 -1.725471 -5.095461
  O 6.254051 -1.348250 -1.707481
  H 3.672443 -1.723997 -0.728924
  H 4.715016 1.057282 -1.159697
  H 4.757007 -2.601773 -3.351622
  H 5.282641 -1.096115 -4.075387
  H 3.008450 -0.089698 -3.702301
  H 2.461668 -1.608093 -2.983103
  H 3.450606 -1.257192 -5.854183
  H 1.788563 -1.529408 -5.346123
  H 2.986070 -2.803317 -5.137978
  H 6.700839 -0.857723 -0.983580
 20
 42.589912
  H 2.178468 -1.098074 0.939324
  C 2.470125 -0.385704 0.192907
  H 1.833348 0.469045 0.027629
  C 3.570019 -0.576664 -0.580841
  C 4.402885 0.157111 -1.416487
  C 5.035222 -1.012164 -1.981906
  C 4.560063 -1.551256 -3.276604
  C 3.109050 -1.206272 -3.642921
  C 2.798994 -1.648203 -5.073288
  O 6.223583 -1.387134 -1.642233
  H 3.853416 -1.647335 -0.839545
  H 4.725985 1.171873 -1.393743
  H 4.712493 -2.625706 -3.307910
  H 5.242867 -1.114274 -4.011367
  H 2.940571 -0.126663 -3.546701
  H 2.426748 -1.714461 -2.963389
  H 3.454992 -1.147067 -5.787307
  H 1.769993 -1.396729 -5.332285
  H 2.926470 -2.733587 -5.188053
  H 6.711534 -0.814651 -1.013615
 20
 54.811673
  H 2.417966 -1.234039 0.928552
  C 2.497946 -0.470511 0.174804
  H 1.630555 0.149439 0.006351
  C 3.555068 -0.341491 -0.619530
  C 4.427814 0.265966 -1.432266
  C 4.970661 -1.040921 -1.909987
  C 4.508904 -1.570905 -3.255480
  C 3.086163 -1.175863 -3.638768
  C 2.775416 -1.625338 -5.062124
  O 6.196050 -1.434765 -1.562684
  H 4.131102 -1.578786 -1.052482
  H 4.838515 1.254282 -1.449672
  H 4.629346 -2.654737 -3.279610
  H 5.213162 -1.154129 -3.983289
  H 2.968818 -0.093031 -3.569332
  H 2.371410 -1.641343 -2.959268
  H 3.454839 -1.162955 -5.773683
  H 1.760600 -1.344458 -5.333781
  H 2.863898 -2.704388 -5.155330
  H 6.667812 -0.840106 -0.952829
 20
 49.657300
  H 2.410899 -1.114996 0.974480
  C 2.458361 -0.367336 0.201469
  H 1.550711 0.195166 0.020334
  C 3.483962 -0.208625 -0.586390
  C 4.428394 0.237779 -1.403339
  C 4.956340 -1.090594 -1.889722
  C 4.515823 -1.562036 -3.280353
  C 3.068311 -1.235503 -3.624922
  C 2.769900 -1.619052 -5.071151
  O 6.231008 -1.439337 -1.579511
  H 4.224403 -1.664050 -1.143958
  H 4.883227 1.211347 -1.470661
  H 4.701430 -2.634737 -3.366055
  H 5.186659 -1.061311 -3.986449
  H 2.886535 -0.166765 -3.491379
  H 2.391665 -1.783764 -2.968558
  H 3.427394 -1.091427 -5.756927
  H 1.743120 -1.367570 -5.324540
  H 2.903650 -2.687653 -5.224185
  H 6.662609 -0.862963 -0.921241
 20
 42.936160
  H 2.249266 -1.042330 0.891929
  C 2.341944 -0.345371 0.070837
  H 1.425942 0.147032 -0.230799
  C 3.434222 -0.166329 -0.589844
  C 4.473354 0.175211 -1.339297
  C 5.036769 -1.096629 -1.903297
  C 4.535815 -1.567608 -3.279591
  C 3.077209 -1.250088 -3.566489
  C 2.729737 -1.626255 -5.003715
  O 6.349355 -1.377183 -1.680436
  H 4.394332 -1.729021 -1.179767
  H 5.013148 1.104847 -1.268258
  H 4.724497 -2.636653 -3.376748
  H 5.173905 -1.061729 -4.012650
  H 2.888780 -0.185538 -3.415865
  H 2.426862 -1.810276 -2.892956
  H 3.337475 -1.069376 -5.712059
  H 1.684566 -1.407307 -5.206004
  H 2.887111 -2.688314 -5.175678
  H 6.785157 -0.774926 -1.056145
 20
 36.394354
  H 2.152189 -0.849978 0.916402
  C 2.258186 -0.259671 0.019196
  H 1.341086 0.187161 -0.340719
  C 3.364506 -0.136187 -0.611107
  C 4.495301 0.091153 -1.270858
  C 5.069931 -1.127749 -1.904246
  C 4.550175 -1.552722 -3.296122
  C 3.070942 -1.304170 -3.533687
  C 2.714259 -1.624766 -4.982364
  O 6.412240 -1.335875 -1.790263
  H 4.506102 -1.836592 -1.222143
  H 5.087697 0.978929 -1.102070
  H 4.795749 -2.602776 -3.456102
  H 5.143871 -0.978163 -4.015330
  H 2.828749 -0.260831 -3.323661
  H 2.467095 -1.935085 -2.880303
  H 3.276941 -0.999076 -5.670300
  H 1.655267 -1.452208 -5.154627
  H 2.926918 -2.665622 -5.214317
  H 6.848653 -0.753261 -1.147942
 20
 31.384080
  H 2.068252 -0.644518 0.939689
  C 2.192708 -0.170800 -0.022914
  H 1.280524 0.229917 -0.442550
  C 3.312806 -0.123684 -0.628831
  C 4.498172 -0.006076 -1.219064
  C 5.093095 -1.181381 -1.898920
  C 4.570555 -1.535812 -3.314358
  C 3.074300 -1.364029 -3.504999
  C 2.703901 -1.609953 -4.963965
  O 6.454449 -1.300778 -1.858201
  H 4.618675 -1.978067 -1.264059
  H 5.114619 0.859217 -1.013241
  H 4.873498 -2.555084 -3.555591
  H 5.117067 -0.876954 -3.996565
  H 2.777823 -0.352510 -3.219237
  H 2.522754 -2.069547 -2.882652
  H 3.216098 -0.910233 -5.619363
  H 1.633112 -1.486831 -5.103604
  H 2.967635 -2.619648 -5.269755
  H 6.878978 -0.722898 -1.203484
 20
 28.326304
  H 1.937434 -0.408256 0.853612
  C 2.114087 -0.091778 -0.164837
  H 1.227784 0.232020 -0.689935
  C 3.273642 -0.131684 -0.691439
  C 4.523310 -0.120066 -1.129322
  C 5.134094 -1.235643 -1.893700
  C 4.596611 -1.490684 -3.319007
  C 3.085501 -1.413799 -3.451864
  C 2.669876 -1.590437 -4.906877
  O 6.505472 -1.272043 -1.923786
  H 4.750130 -2.103773 -1.300509
  H 5.168311 0.694993 -0.822198
  H 4.956972 -2.462126 -3.660827
  H 5.076054 -0.740982 -3.955282
  H 2.739812 -0.441400 -3.089959
  H 2.604430 -2.187228 -2.852220
  H 3.110790 -0.820180 -5.534609
  H 1.588606 -1.528711 -4.999294
  H 2.982035 -2.560128 -5.287607
  H 6.924068 -0.747764 -1.222004
 20
 27.173455
  H 1.805936 -0.277631 0.714166
  C 2.068670 -0.014291 -0.302005
  H 1.244190 0.342879 -0.899642
  C 3.272888 -0.133873 -0.730627
  C 4.553927 -0.214182 -1.042451
  C 5.175935 -1.259085 -1.901744
  C 4.604575 -1.412036 -3.325217
  C 3.088705 -1.454455 -3.401831
  C 2.620780 -1.630849 -4.840499
  O 6.549055 -1.213413 -1.994436
  H 4.885383 -2.198105 -1.369155
  H 5.222729 0.530046 -0.623753
  H 5.027076 -2.314924 -3.770488
  H 4.996172 -0.571642 -3.904643
  H 2.691835 -0.515280 -3.005283
  H 2.692142 -2.268852 -2.795429
  H 2.988789 -0.825917 -5.471847
  H 1.535157 -1.633649 -4.887813
  H 2.973575 -2.573759 -5.251549
  H 6.971503 -0.780647 -1.237418
