 17
 0.000000
  H 1.434013 -0.076415 0.038044
  C 2.507134 -0.083316 0.024498
  C 3.219821 -0.594151 -0.978358
  C 4.657029 -0.605952 -1.001522
  C 5.377027 -1.121427 -2.013484
  C 6.814619 -1.131646 -2.033543
  C 7.534224 -1.642474 -3.036393
  C 9.023436 -1.661107 -3.072967
  H 3.004623 0.351750 0.878609
  H 2.709093 -1.027524 -1.829131
  H 5.162223 -0.171462 -0.148552
  H 4.872896 -1.556193 -2.867005
  H 7.320225 -0.697150 -1.180557
  H 7.037879 -2.079202 -3.893748
  H 9.454434 -1.207688 -2.182832
  H 9.383594 -1.115708 -3.946186
  H 9.383596 -2.688117 -3.145232
 17
 0.252939
  H 1.412327 -0.035144 -0.058801
  C 2.487243 -0.023975 -0.028591
  C 3.227913 -0.612989 -0.966310
  C 4.665993 -0.619372 -0.965835
  C 5.410551 -1.204057 -1.917746
  C 6.844844 -1.200936 -1.964518
  C 7.537653 -1.627225 -3.023239
  C 9.016170 -1.629433 -3.125535
  H 2.937243 0.490776 0.801225
  H 2.749738 -1.122423 -1.788901
  H 5.150598 -0.111107 -0.142555
  H 4.910793 -1.707719 -2.736647
  H 7.359869 -0.821549 -1.093773
  H 6.996893 -1.981611 -3.892968
  H 9.469023 -1.249969 -2.215262
  H 9.337712 -1.013058 -3.962678
  H 9.380842 -2.638246 -3.306678
 17
 1.301517
  H 1.386780 -0.000045 -0.150650
  C 2.464402 0.031992 -0.102876
  C 3.231145 -0.647961 -0.954970
  C 4.667484 -0.627013 -0.930521
  C 5.436283 -1.286838 -1.809461
  C 6.882157 -1.265236 -1.886975
  C 7.524632 -1.602698 -3.005138
  C 9.002560 -1.588614 -3.186225
  H 2.891940 0.648060 0.670433
  H 2.773175 -1.261886 -1.727767
  H 5.129865 -0.018531 -0.162161
  H 4.952123 -1.904308 -2.559084
  H 7.432083 -0.955596 -1.005863
  H 6.950725 -1.878583 -3.874859
  H 9.505723 -1.280019 -2.273449
  H 9.278137 -0.906460 -3.988389
  H 9.357940 -2.580758 -3.465867
 17
 4.008577
  H 1.422587 0.101938 -0.248425
  C 2.495986 0.129267 -0.211869
  C 3.246607 -0.700196 -0.929422
  C 4.687287 -0.674534 -0.938101
  C 5.439066 -1.461131 -1.718412
  C 6.882990 -1.413197 -1.822982
  C 7.495153 -1.553654 -2.995180
  C 8.965302 -1.482484 -3.214726
  H 2.935577 0.886740 0.416488
  H 2.781883 -1.449215 -1.558557
  H 5.162717 0.072237 -0.311941
  H 4.946748 -2.242769 -2.288566
  H 7.451953 -1.262850 -0.914916
  H 6.877556 -1.685122 -3.879996
  H 9.491383 -1.305811 -2.279488
  H 9.203539 -0.680479 -3.912634
  H 9.326662 -2.415488 -3.651279
 17
 7.800158
  H 1.442093 0.162335 -0.416031
  C 2.518631 0.211974 -0.396602
  C 3.277475 -0.731445 -0.943401
  C 4.719107 -0.712480 -0.928148
  C 5.478864 -1.623279 -1.542507
  C 6.929022 -1.549543 -1.711369
  C 7.444499 -1.496666 -2.933530
  C 8.888876 -1.374613 -3.272142
  H 2.949471 1.060787 0.103827
  H 2.816724 -1.596980 -1.421146
  H 5.185868 0.148209 -0.471980
  H 5.020176 -2.546142 -1.871599
  H 7.556829 -1.556467 -0.831184
  H 6.740127 -1.501698 -3.766325
  H 9.496694 -1.346878 -2.373128
  H 9.064269 -0.467336 -3.851396
  H 9.206649 -2.223961 -3.888393
 17
 14.552214
  H 1.466502 0.170719 -0.745331
  C 2.527332 0.212603 -0.601175
  C 3.331472 -0.755820 -1.017384
  C 4.772165 -0.722593 -0.875122
  C 5.586940 -1.657766 -1.355749
  C 7.045868 -1.604778 -1.519641
  C 7.398150 -1.478618 -2.797693
  C 8.762024 -1.326723 -3.376769
  H 2.912687 1.086779 -0.082852
  H 2.923298 -1.612894 -1.549827
  H 5.191815 0.145279 -0.373942
  H 5.154855 -2.635686 -1.539797
  H 7.729123 -1.696187 -0.686175
  H 6.519994 -1.404085 -3.439906
  H 9.525558 -1.479342 -2.615139
  H 8.876819 -0.335004 -3.806342
  H 8.918752 -2.056322 -4.179399
 17
 28.037064
  H 1.586103 0.272977 -1.062311
  C 2.627868 0.258727 -0.784597
  C 3.413078 -0.772680 -1.079862
  C 4.820634 -0.828902 -0.761028
  C 5.656442 -1.737276 -1.285032
  C 7.119081 -1.657699 -1.387657
  C 7.341810 -1.475002 -2.689681
  C 8.599981 -1.228473 -3.434372
  H 2.996429 1.124159 -0.252480
  H 3.038195 -1.608719 -1.645501
  H 5.231787 0.025540 -0.219782
  H 5.242732 -2.735511 -1.419828
  H 7.802113 -1.884554 -0.585742
  H 6.312792 -1.424044 -3.113012
  H 9.429791 -1.195806 -2.733453
  H 8.544437 -0.273256 -3.971879
  H 8.774428 -2.006568 -4.178104
 17
 49.558852
  H 1.573337 0.308216 -0.995481
  C 2.612225 0.250709 -0.715621
  C 3.438193 -0.654813 -1.247644
  C 4.801344 -0.834100 -0.848485
  C 5.641025 -1.742506 -1.411940
  C 7.099329 -1.567174 -1.351798
  C 7.382081 -1.491623 -2.651893
  C 8.602346 -1.273376 -3.450775
  H 2.950380 0.944484 0.028549
  H 3.036299 -1.409126 -1.898267
  H 5.238962 -0.053566 -0.232967
  H 5.322568 -2.779280 -1.396349
  H 7.723918 -1.670151 -0.486426
  H 6.249252 -1.554231 -3.030575
  H 9.465959 -1.234824 -2.794266
  H 8.539185 -0.308951 -3.965135
  H 8.741718 -2.054685 -4.195644
 17
 75.663404
  H 1.638143 0.388207 -1.014029
  C 2.688443 0.308740 -0.745461
  C 3.489718 -0.630965 -1.280733
  C 4.819505 -0.883875 -0.874281
  C 5.644754 -1.807361 -1.486293
  C 7.093969 -1.748390 -1.316524
  C 7.422322 -1.515768 -2.586547
  C 8.571531 -1.192345 -3.429664
  H 3.042043 0.968047 0.034159
  H 3.097502 -1.265381 -2.062537
  H 5.267980 -0.202846 -0.156483
  H 5.257653 -2.828111 -1.580879
  H 7.657427 -1.846160 -0.406144
  H 5.993487 -1.498329 -2.810751
  H 9.485150 -1.160503 -2.825829
  H 8.431967 -0.224382 -3.901361
  H 8.692323 -1.939845 -4.224271
 17
 81.318528
  H 1.616688 0.431240 -0.921357
  C 2.656792 0.322100 -0.671350
  C 3.435628 -0.613157 -1.254316
  C 4.779632 -0.849801 -0.923697
  C 5.587192 -1.813436 -1.606322
  C 7.078801 -1.774498 -1.399557
  C 7.520378 -1.491347 -2.592378
  C 8.692118 -1.168593 -3.401765
  H 3.049764 0.986145 0.079378
  H 2.997254 -1.264014 -2.002338
  H 5.263487 -0.165097 -0.241209
  H 5.196815 -2.828465 -1.657215
  H 7.580291 -1.962315 -0.460479
  H 5.713171 -1.521725 -2.753757
  H 9.607459 -1.224604 -2.801696
  H 8.604590 -0.158041 -3.802687
  H 8.782985 -1.859214 -4.240280
 17
 79.297206
  H 1.596114 0.464396 -0.817642
  C 2.638844 0.337083 -0.598800
  C 3.400277 -0.576930 -1.251687
  C 4.735554 -0.849521 -0.957487
  C 5.526623 -1.812791 -1.710934
  C 7.024201 -1.737116 -1.491116
  C 7.594844 -1.472202 -2.619496
  C 8.791744 -1.163852 -3.382626
  H 3.053332 0.951451 0.180597
  H 2.935638 -1.179226 -2.025811
  H 5.242755 -0.218858 -0.242726
  H 5.178438 -2.843466 -1.658944
  H 7.447988 -1.901534 -0.505426
  H 5.500838 -1.558440 -2.811704
  H 9.684879 -1.198611 -2.745838
  H 8.716728 -0.164045 -3.811330
  H 8.922413 -1.876596 -4.198372
 17
 76.170907
  H 1.623998 0.565046 -0.823256
  C 2.648151 0.362949 -0.571289
  C 3.398983 -0.519119 -1.282164
  C 4.697252 -0.894895 -0.954986
  C 5.475923 -1.840361 -1.755907
  C 6.983904 -1.706298 -1.538195
  C 7.648957 -1.450140 -2.604929
  C 8.831624 -1.137894 -3.377258
  H 3.050300 0.869055 0.289905
  H 2.945654 -1.009154 -2.137247
  H 5.193898 -0.377340 -0.148387
  H 5.201859 -2.887164 -1.610160
  H 7.334870 -1.835693 -0.516187
  H 5.332433 -1.633733 -2.835242
  H 9.725712 -1.125209 -2.741967
  H 8.730431 -0.155598 -3.841742
  H 8.983112 -1.877491 -4.165241
 17
 72.456766
  H 1.727407 0.740974 -0.960489
  C 2.688133 0.403869 -0.613091
  C 3.459065 -0.434424 -1.348749
  C 4.664558 -0.988590 -0.917825
  C 5.460526 -1.890106 -1.735401
  C 6.987612 -1.716294 -1.466141
  C 7.732812 -1.430792 -2.453643
  C 8.770092 -1.082676 -3.390958
  H 2.999066 0.734464 0.362177
  H 3.096636 -0.744565 -2.321245
  H 5.076216 -0.646586 0.020255
  H 5.260739 -2.949065 -1.576883
  H 7.248735 -1.859666 -0.423290
  H 5.290734 -1.685572 -2.801911
  H 9.738649 -0.990171 -2.884275
  H 8.546972 -0.127392 -3.871525
  H 8.863662 -1.847236 -4.163486
 17
 69.413830
  H 1.905203 0.959148 -1.083806
  C 2.751811 0.453872 -0.655034
  C 3.549043 -0.350916 -1.392588
  C 4.607624 -1.108645 -0.881462
  C 5.430969 -1.970869 -1.689096
  C 6.984719 -1.704734 -1.426422
  C 7.694639 -1.395993 -2.425508
  C 8.682288 -1.014910 -3.400006
  H 2.919980 0.591652 0.400011
  H 3.333447 -0.463100 -2.448906
  H 4.877391 -0.967041 0.156017
  H 5.321473 -3.038015 -1.487189
  H 7.238131 -1.833012 -0.384184
  H 5.261443 -1.801020 -2.756052
  H 9.657474 -0.865971 -2.919768
  H 8.398720 -0.080963 -3.892701
  H 8.791717 -1.789352 -4.160409
 17
 52.905259
  H 2.731746 1.491891 -1.273186
  C 3.131608 0.602645 -0.820268
  C 3.883802 -0.258915 -1.498189
  C 4.409245 -1.481585 -0.945134
  C 5.218923 -2.304201 -1.620767
  C 7.311420 -1.635408 -1.135896
  C 7.876010 -1.267192 -2.136539
  C 8.306662 -0.819150 -3.440002
  H 2.886177 0.441237 0.216720
  H 4.111780 -0.072597 -2.541022
  H 4.235830 -1.638571 0.112758
  H 5.431063 -3.292837 -1.249677
  H 7.285883 -1.856162 -0.111740
  H 5.310647 -2.189022 -2.678429
  H 9.246119 -0.275514 -3.340485
  H 7.564515 -0.155724 -3.880915
  H 8.464643 -1.668762 -4.104331
