 23
 0.000000
  C 0.976371 0.151554 0.429656
  C 2.450501 0.134934 0.387729
  C 3.231148 0.602064 1.548934
  H 2.624872 0.936461 2.381003
  C 3.052630 -0.332275 -0.774634
  C 4.429542 -0.415029 -0.981494
  C 5.118390 -0.864665 -2.103241
  C 4.629944 -1.387687 -3.408171
  C 3.142131 -1.505359 -3.702305
  H 3.006850 -1.905460 -4.700700
  O 6.438969 -0.856045 -2.082146
  H 0.585695 0.529413 1.369280
  H 0.585529 -0.854372 0.270360
  H 0.585176 0.766976 -0.381692
  H 3.883968 1.422548 1.244291
  H 3.884381 -0.200595 1.897018
  H 2.389273 -0.648368 -1.560790
  H 5.050862 -0.084040 -0.157496
  H 5.093437 -2.373143 -3.530767
  H 5.093749 -0.759938 -4.177507
  H 2.658690 -0.532418 -3.663348
  H 2.658478 -2.182035 -3.002269
  H 6.821109 -0.522815 -1.248604
 23
 12.994828
  C 0.931607 0.184338 0.510463
  C 2.398277 0.171229 0.478123
  C 3.183536 0.633118 1.627223
  H 2.570343 0.966417 2.456732
  C 3.059321 -0.338526 -0.790302
  C 4.416492 -0.410705 -0.970795
  C 5.176526 -0.901596 -2.195742
  C 4.677321 -1.420444 -3.489885
  C 3.184097 -1.528241 -3.758451
  H 3.032293 -1.928301 -4.756549
  O 6.484965 -0.885548 -2.156809
  H 0.539722 0.561971 1.449643
  H 0.542127 -0.822146 0.347390
  H 0.542209 0.797957 -0.303888
  H 3.836988 1.454079 1.324380
  H 3.837102 -0.168991 1.976719
  H 2.396991 -0.653745 -1.574691
  H 5.037259 -0.080915 -0.149751
  H 5.135929 -2.407902 -3.617261
  H 5.135869 -0.794456 -4.264182
  H 2.706659 -0.553175 -3.713487
  H 2.706844 -2.202456 -3.052467
  H 6.859089 -0.550629 -1.319305
 23
 39.128032
  C 0.884595 0.211948 0.571909
  C 2.343073 0.201954 0.554554
  C 3.184527 0.642202 1.658465
  H 2.581534 0.979319 2.499003
  C 3.035203 -0.352041 -0.825885
  C 4.376522 -0.400369 -0.947366
  C 5.228527 -0.930051 -2.271269
  C 4.717608 -1.446349 -3.554252
  C 3.224243 -1.543761 -3.790004
  H 3.055839 -1.946057 -4.789803
  O 6.518001 -0.882431 -2.159201
  H 0.497303 0.589983 1.513493
  H 0.492943 -0.788943 0.401074
  H 0.496385 0.819666 -0.243237
  H 3.835420 1.454749 1.346729
  H 3.832972 -0.163009 1.993824
  H 2.329874 -0.647113 -1.563032
  H 5.036791 -0.085408 -0.162721
  H 5.173102 -2.433125 -3.688649
  H 5.170290 -0.825901 -4.334801
  H 2.754546 -0.566455 -3.743743
  H 2.757357 -2.218299 -3.079417
  H 6.856308 -0.542618 -1.312074
 23
 71.184033
  C 0.845905 0.224074 0.600898
  C 2.293360 0.228706 0.621143
  C 3.149968 0.659914 1.704423
  H 2.557669 0.997262 2.546632
  C 3.048380 -0.362576 -0.853033
  C 4.362933 -0.390234 -0.922621
  C 5.298753 -0.962780 -2.353909
  C 4.752257 -1.471909 -3.617826
  C 3.243106 -1.540681 -3.780912
  H 3.013906 -1.937465 -4.765603
  O 6.580243 -0.902460 -2.211101
  H 0.439021 0.599019 1.535280
  H 0.463653 -0.783323 0.421593
  H 0.467648 0.831333 -0.224486
  H 3.804209 1.473538 1.385294
  H 3.801167 -0.151818 2.034158
  H 2.335664 -0.652128 -1.576861
  H 5.038811 -0.081420 -0.152788
  H 5.187595 -2.468877 -3.769287
  H 5.184392 -0.856065 -4.418188
  H 2.797271 -0.554296 -3.707524
  H 2.800656 -2.202752 -3.043888
  H 6.905378 -0.559986 -1.357532
 23
 102.630041
  C 0.796650 0.254404 0.675356
  C 2.236184 0.266186 0.714198
  C 3.124873 0.684671 1.768513
  H 2.558377 1.027448 2.625825
  C 3.020480 -0.360238 -0.849889
  C 4.316487 -0.375961 -0.889355
  C 5.347027 -0.997441 -2.441348
  C 4.806111 -1.502000 -3.691883
  C 3.290062 -1.567935 -3.846639
  H 3.050775 -1.962853 -4.825932
  O 6.615526 -0.923397 -2.264753
  H 0.381524 0.627930 1.607757
  H 0.417739 -0.756763 0.492615
  H 0.422063 0.863234 -0.154347
  H 3.782674 1.492987 1.431159
  H 3.779204 -0.136561 2.080239
  H 2.277216 -0.641602 -1.553597
  H 5.020086 -0.075920 -0.141222
  H 5.240739 -2.502748 -3.843924
  H 5.237223 -0.884517 -4.495908
  H 2.849315 -0.579156 -3.767627
  H 2.852828 -2.226760 -3.102983
  H 6.922783 -0.575868 -1.399268
 23
 130.676360
  C 0.740854 0.270069 0.713310
  C 2.187720 0.297698 0.792444
  C 3.092480 0.714115 1.844921
  H 2.524881 1.061022 2.714881
  C 3.012466 -0.349912 -0.828059
  C 4.290756 -0.352475 -0.834050
  C 5.413925 -1.035920 -2.538392
  C 4.847640 -1.536550 -3.776978
  C 3.334166 -1.578280 -3.870852
  H 3.045906 -1.972933 -4.846460
  O 6.675132 -0.962149 -2.362743
  H 0.300996 0.640219 1.639471
  H 0.373810 -0.740353 0.525221
  H 0.378186 0.876170 -0.118700
  H 3.746835 1.518807 1.508897
  H 3.743471 -0.104399 2.153662
  H 2.247685 -0.629083 -1.526979
  H 5.023998 -0.065417 -0.117596
  H 5.261416 -2.537751 -3.940282
  H 5.257707 -0.927691 -4.590114
  H 2.914911 -0.581429 -3.772438
  H 2.919003 -2.228728 -3.106775
  H 6.985666 -0.612854 -1.493930
 23
 152.339154
  C 0.692706 0.293999 0.776242
  C 2.136590 0.338243 0.888035
  C 3.045741 0.742861 1.943120
  H 2.481343 1.077718 2.807506
  C 2.989499 -0.306867 -0.763577
  C 4.241846 -0.293388 -0.754891
  C 5.470608 -1.065390 -2.635589
  C 4.901334 -1.582719 -3.871953
  C 3.380828 -1.610997 -3.953167
  H 3.080146 -2.014452 -4.911675
  O 6.724220 -1.010512 -2.474052
  H 0.233956 0.650248 1.698597
  H 0.336020 -0.724536 0.572318
  H 0.334874 0.910240 -0.059439
  H 3.704482 1.558408 1.615623
  H 3.700135 -0.084360 2.248960
  H 2.230168 -0.586472 -1.446243
  H 4.995910 -0.008723 -0.064657
  H 5.307318 -2.594205 -4.024124
  H 5.313948 -0.987281 -4.700477
  H 2.973094 -0.609376 -3.865770
  H 2.966704 -2.243851 -3.175425
  H 7.036943 -0.664987 -1.621985
 23
 133.211881
  C 0.753719 0.279873 0.579641
  C 2.194525 0.317156 0.833525
  C 2.738460 0.782544 2.105168
  H 1.967537 1.137904 2.779213
  C 3.069466 -0.179281 -0.204801
  C 4.391725 -0.179005 -0.184325
  C 5.638159 -1.128312 -2.926068
  C 4.857022 -1.629985 -4.079423
  C 3.356087 -1.601642 -3.852355
  H 2.837609 -1.948003 -4.740679
  O 6.919376 -1.202464 -3.080699
  H 0.165938 0.663963 1.415969
  H 0.437539 -0.744204 0.355548
  H 0.519185 0.848920 -0.327375
  H 3.469897 1.577842 1.932812
  H 3.294566 -0.020506 2.591596
  H 2.555537 -0.563997 -1.077882
  H 5.207449 0.143966 0.416367
  H 5.188576 -2.643014 -4.324075
  H 5.122883 -1.016448 -4.945620
  H 3.029472 -0.585839 -3.634463
  H 3.090097 -2.252329 -3.020405
  H 7.427316 -0.854871 -2.314277
 23
 124.974142
  C 0.824090 0.192836 0.484835
  C 2.280451 0.268850 0.670440
  C 2.852825 0.762285 1.932089
  H 2.090787 1.137291 2.607595
  C 3.112608 -0.200825 -0.381775
  C 4.424660 -0.286229 -0.345081
  C 5.513412 -1.052270 -2.696525
  C 4.760399 -1.526667 -3.873571
  C 3.247705 -1.524752 -3.714033
  H 2.780137 -1.861217 -4.632899
  O 6.780249 -1.137395 -2.800001
  H 0.274028 0.577688 1.339081
  H 0.516763 -0.838983 0.297474
  H 0.535967 0.736915 -0.418163
  H 3.587225 1.545674 1.732224
  H 3.405634 -0.031435 2.437185
  H 2.592386 -0.609526 -1.236649
  H 5.214487 0.072255 0.277543
  H 5.118555 -2.530587 -4.127791
  H 5.049263 -0.884204 -4.713347
  H 2.894310 -0.521366 -3.496610
  H 2.953316 -2.196778 -2.913531
  H 7.270139 -0.839658 -2.007957
