17

H 1.380439241967488 0.13855831085953255 0.39591865537583576
C 2.450439 0.138386 0.39522
C 3.235505 0.608254 1.564554
C 2.457566 1.097858 2.783398
H 3.1230110456152134 1.4102586878163006 3.5608867147207146
C 3.067155 -0.325235 -0.759147
C 4.445765 -0.410892 -0.97279
C 5.119246 -0.862009 -2.097393
H 4.762015649124809 -1.2375170738940242 -3.033491372423533
O 6.444753 -0.858855 -2.089834
H 3.891468 1.420613 1.231301
H 3.891639 -0.208729 1.885904
H 1.819509 0.300683 3.170111
H 1.81939 1.940927 2.511175
H 2.413004 -0.643308 -1.551372
H 5.063896 -0.07919 -0.146482
H 6.818855 -0.523712 -1.253459
