 25
 0.000000
  C 0.966875 0.158214 0.441753
  C 2.437357 0.139903 0.401524
  C 3.219627 0.605035 1.556925
  H 2.612231 0.940002 2.388262
  C 3.032518 -0.329923 -0.766881
  C 4.414097 -0.414378 -0.982109
  C 5.080920 -0.862361 -2.100520
  C 4.612048 -1.381680 -3.393863
  C 3.130179 -1.512295 -3.716798
  C 2.944518 -2.076687 -5.123700
  H 6.161740 -0.843198 -2.056010
  H 0.574306 0.538235 1.378989
  H 0.575301 -0.846486 0.273464
  H 0.582827 0.764499 -0.380478
  H 3.877012 1.422049 1.252208
  H 3.876449 -0.195500 1.903651
  H 2.354811 -0.642809 -1.543773
  H 5.051046 -0.087140 -0.170063
  H 5.089392 -2.363613 -3.517650
  H 5.088313 -0.757141 -4.162274
  H 2.647059 -0.535309 -3.672167
  H 2.648254 -2.188265 -3.009212
  H 3.396039 -1.425050 -5.868329
  H 1.887184 -2.171265 -5.357728
  H 3.397242 -3.061686 -5.211950
 25
 2.087617
  C 1.004642 0.103316 0.391169
  C 2.474744 0.131704 0.431216
  C 3.214062 0.649085 1.590872
  H 2.548582 0.974434 2.382472
  C 3.061338 -0.337451 -0.729537
  C 4.438368 -0.436500 -0.964907
  C 5.089340 -0.885019 -2.104573
  C 4.605881 -1.387732 -3.399921
  C 3.119781 -1.497630 -3.708742
  C 2.906198 -2.047085 -5.117301
  H 6.172772 -0.871275 -2.052929
  H 0.523552 0.564727 1.248746
  H 0.643901 -0.924167 0.291275
  H 0.719736 0.593751 -0.552846
  H 3.850452 1.482886 1.293848
  H 3.887486 -0.113817 1.983030
  H 2.318003 -0.614491 -1.479946
  H 5.082102 -0.124687 -0.151899
  H 5.074169 -2.372130 -3.543364
  H 5.085883 -0.767723 -4.170656
  H 2.651703 -0.514390 -3.647324
  H 2.639366 -2.171828 -2.998547
  H 3.355902 -1.395504 -5.863193
  H 1.844407 -2.125256 -5.337192
  H 3.343886 -3.037421 -5.220855
 25
 6.402106
  C 1.034922 0.068815 0.336746
  C 2.497142 0.128015 0.444038
  C 3.198026 0.666515 1.605505
  H 2.509620 0.984212 2.378758
  C 3.085649 -0.341169 -0.724285
  C 4.457435 -0.452555 -0.974444
  C 5.095034 -0.896773 -2.108877
  C 4.600509 -1.385413 -3.392145
  C 3.110487 -1.476689 -3.686474
  C 2.875950 -2.019172 -5.092562
  H 6.170713 -0.891695 -2.061444
  H 0.480079 0.601139 1.100497
  H 0.713044 -0.968881 0.334479
  H 0.856798 0.413752 -0.687557
  H 3.823660 1.514587 1.307672
  H 3.883971 -0.082117 2.020877
  H 2.278869 -0.584393 -1.438118
  H 5.107968 -0.148446 -0.155722
  H 5.057351 -2.372375 -3.544859
  H 5.081505 -0.771332 -4.165262
  H 2.656390 -0.486591 -3.616578
  H 2.629940 -2.146283 -2.970986
  H 3.326343 -1.371090 -5.841414
  H 1.811224 -2.083703 -5.301870
  H 3.300501 -3.014712 -5.202916
 25
 12.758255
  C 1.061339 0.039360 0.282836
  C 2.510393 0.125445 0.453431
  C 3.181308 0.681308 1.631980
  H 2.473521 0.990959 2.391935
  C 3.110148 -0.339187 -0.712785
  C 4.477671 -0.457560 -0.970450
  C 5.105729 -0.901532 -2.108222
  C 4.593111 -1.385614 -3.395681
  C 3.100584 -1.461216 -3.672883
  C 2.843140 -1.999913 -5.077699
  H 6.190960 -0.904682 -2.068533
  H 0.449552 0.641139 0.947270
  H 0.749897 -1.006337 0.381491
  H 0.993160 0.251059 -0.801105
  H 3.793421 1.532613 1.342543
  H 3.868276 -0.045432 2.060303
  H 2.276617 -0.554192 -1.394560
  H 5.129034 -0.161532 -0.160608
  H 5.038596 -2.377460 -3.554307
  H 5.071608 -0.774339 -4.173194
  H 2.659287 -0.467639 -3.595822
  H 2.622467 -2.124657 -2.952521
  H 3.291500 -1.356074 -5.831169
  H 1.775375 -2.052827 -5.274519
  H 3.255554 -2.999521 -5.194138
 25
 20.557521
  C 1.072993 0.019938 0.251997
  C 2.516865 0.116033 0.457615
  C 3.168107 0.685803 1.638824
  H 2.449576 0.993993 2.386555
  C 3.126529 -0.349370 -0.706712
  C 4.493586 -0.467583 -0.969941
  C 5.114889 -0.905265 -2.110613
  C 4.593168 -1.381275 -3.395849
  C 3.094611 -1.451319 -3.659705
  C 2.821999 -1.982777 -5.063455
  H 6.199073 -0.910810 -2.076592
  H 0.435338 0.687863 0.826484
  H 0.749729 -1.004960 0.447340
  H 1.094644 0.106426 -0.872160
  H 3.775891 1.542226 1.347297
  H 3.859797 -0.031281 2.081919
  H 2.249621 -0.530626 -1.377223
  H 5.149557 -0.171487 -0.161630
  H 5.034863 -2.374899 -3.561825
  H 5.067585 -0.766722 -4.175153
  H 2.657283 -0.456080 -3.574266
  H 2.621384 -2.116450 -2.937141
  H 3.265266 -1.337308 -5.818261
  H 1.752341 -2.031331 -5.250161
  H 3.230069 -2.983238 -5.188098
 25
 31.352535
  C 1.089785 0.016494 0.228578
  C 2.517807 0.113111 0.456506
  C 3.155738 0.677641 1.650752
  H 2.417018 0.986454 2.409313
  C 3.135495 -0.345606 -0.706552
  C 4.499304 -0.462708 -0.978128
  C 5.114927 -0.901148 -2.121168
  C 4.583784 -1.378024 -3.401854
  C 3.097749 -1.445156 -3.650218
  C 2.812793 -1.979617 -5.050892
  H 6.204327 -0.908376 -2.094618
  H 0.454204 0.713562 0.739828
  H 0.742424 -0.990568 0.471544
  H 1.187626 0.025914 -0.909414
  H 3.763042 1.534991 1.368443
  H 3.841864 -0.037642 2.094257
  H 2.207807 -0.505635 -1.354497
  H 5.158786 -0.164086 -0.176130
  H 5.018787 -2.367193 -3.568172
  H 5.048832 -0.769631 -4.181429
  H 2.666480 -0.452624 -3.563579
  H 2.632409 -2.104999 -2.923754
  H 3.251860 -1.336098 -5.812019
  H 1.740449 -2.026471 -5.228694
  H 3.218097 -2.981819 -5.176585
 25
 41.188893
  C 1.083146 0.032895 0.197686
  C 2.519036 0.108560 0.447883
  C 3.150331 0.636244 1.665157
  H 2.420956 0.927560 2.400276
  C 3.149075 -0.337784 -0.716501
  C 4.511328 -0.437412 -0.989036
  C 5.131630 -0.878522 -2.134323
  C 4.597995 -1.366497 -3.404814
  C 3.094627 -1.444049 -3.633081
  C 2.791236 -1.989174 -5.021860
  H 6.215431 -0.876369 -2.110459
  H 0.447059 0.788245 0.657043
  H 0.698164 -0.950708 0.477983
  H 1.249273 -0.040012 -0.970349
  H 3.773099 1.494758 1.413297
  H 3.821862 -0.101812 2.104612
  H 2.174798 -0.483288 -1.359402
  H 5.167812 -0.111905 -0.191687
  H 5.040666 -2.360687 -3.567269
  H 5.054629 -0.755820 -4.198197
  H 2.657728 -0.449010 -3.547749
  H 2.642053 -2.102581 -2.892785
  H 3.214531 -1.351316 -5.792203
  H 1.719184 -2.042182 -5.182507
  H 3.198696 -2.988597 -5.145984
 25
 51.833878
  C 1.082975 0.071539 0.189961
  C 2.516381 0.109533 0.442680
  C 3.148811 0.578997 1.686229
  H 2.415554 0.860274 2.428160
  C 3.151423 -0.313713 -0.721297
  C 4.513530 -0.397013 -1.007355
  C 5.132882 -0.843383 -2.145386
  C 4.600019 -1.354077 -3.410205
  C 3.093096 -1.451725 -3.629164
  C 2.787190 -2.018418 -5.007909
  H 6.218721 -0.829491 -2.124777
  H 0.481620 0.857342 0.618642
  H 0.650201 -0.890807 0.475591
  H 1.284094 -0.051176 -1.010032
  H 3.794160 1.433786 1.471852
  H 3.798172 -0.193880 2.105756
  H 2.122462 -0.451651 -1.361928
  H 5.168598 -0.043247 -0.223014
  H 5.053885 -2.348193 -3.560648
  H 5.046667 -0.746564 -4.215273
  H 2.647034 -0.462996 -3.555238
  H 2.653548 -2.103243 -2.879523
  H 3.200688 -1.384261 -5.791789
  H 1.710753 -2.085239 -5.161624
  H 3.206375 -3.018423 -5.121252
 25
 61.233006
  C 1.083267 0.115347 0.196412
  C 2.513183 0.109060 0.437137
  C 3.150133 0.511883 1.701607
  H 2.412350 0.784418 2.456824
  C 3.150780 -0.287711 -0.726287
  C 4.507209 -0.354339 -1.029387
  C 5.128777 -0.808199 -2.164485
  C 4.599000 -1.342844 -3.419467
  C 3.100726 -1.462430 -3.624612
  C 2.792455 -2.054454 -4.993978
  H 6.215885 -0.781331 -2.148078
  H 0.508581 0.937242 0.624689
  H 0.607401 -0.828806 0.460270
  H 1.299188 -0.036332 -1.048883
  H 3.817676 1.353751 1.526893
  H 3.768071 -0.292314 2.090687
  H 2.071517 -0.413780 -1.378526
  H 5.162500 0.032378 -0.252916
  H 5.060935 -2.327360 -3.555766
  H 5.029095 -0.744937 -4.230766
  H 2.642106 -0.473728 -3.562950
  H 2.673877 -2.111379 -2.857809
  H 3.190307 -1.431555 -5.785678
  H 1.723861 -2.136667 -5.138544
  H 3.220494 -3.044075 -5.094774
 25
 68.915407
  C 1.077345 0.166203 0.206454
  C 2.508528 0.110633 0.430191
  C 3.152201 0.432210 1.722744
  H 2.420129 0.688144 2.479597
  C 3.152786 -0.251869 -0.728538
  C 4.504779 -0.301137 -1.051489
  C 5.128747 -0.761840 -2.177483
  C 4.605170 -1.327191 -3.422267
  C 3.098994 -1.475185 -3.616409
  C 2.790036 -2.100338 -4.973661
  H 6.219154 -0.718511 -2.163873
  H 0.543475 0.997537 0.639723
  H 0.558684 -0.764945 0.423510
  H 1.298072 0.008932 -1.106093
  H 3.850039 1.262742 1.596241
  H 3.738269 -0.415593 2.077373
  H 2.026546 -0.355801 -1.421429
  H 5.154418 0.119659 -0.288633
  H 5.084103 -2.312110 -3.540639
  H 5.023115 -0.733020 -4.249870
  H 2.625965 -0.492279 -3.572873
  H 2.687660 -2.114710 -2.834618
  H 3.175787 -1.484532 -5.784040
  H 1.715458 -2.202056 -5.110317
  H 3.235070 -3.090718 -5.057544
 25
 77.014286
  C 1.070027 0.191710 0.231864
  C 2.502317 0.108389 0.425285
  C 3.152057 0.385432 1.734062
  H 2.423953 0.630214 2.492640
  C 3.161659 -0.233096 -0.724977
  C 4.510250 -0.275530 -1.063815
  C 5.134256 -0.738245 -2.185539
  C 4.608057 -1.322599 -3.429622
  C 3.109058 -1.482111 -3.607329
  C 2.789629 -2.126801 -4.960132
  H 6.217108 -0.685839 -2.175809
  H 0.560042 1.029619 0.682427
  H 0.530913 -0.730699 0.411297
  H 1.278028 0.032452 -1.179683
  H 3.860426 1.205681 1.633809
  H 3.718465 -0.480460 2.064905
  H 1.972356 -0.321430 -1.486669
  H 5.157350 0.164857 -0.307517
  H 5.089619 -2.300240 -3.539978
  H 5.011251 -0.735784 -4.261069
  H 2.630707 -0.500523 -3.569938
  H 2.709649 -2.115900 -2.812834
  H 3.164712 -1.516594 -5.782588
  H 1.712404 -2.236953 -5.085893
  H 3.240663 -3.116661 -5.037781
 25
 84.328263
  C 1.062451 0.214129 0.267783
  C 2.495204 0.104166 0.417388
  C 3.152591 0.335781 1.736250
  H 2.424303 0.570238 2.502349
  C 3.171540 -0.215075 -0.718509
  C 4.512584 -0.255067 -1.075946
  C 5.137173 -0.717442 -2.193697
  C 4.611913 -1.317917 -3.435358
  C 3.113926 -1.492267 -3.600216
  C 2.790830 -2.151255 -4.939873
  H 6.216542 -0.651921 -2.188368
  H 0.577447 1.055805 0.745559
  H 0.500335 -0.699623 0.397226
  H 1.248751 0.068335 -1.262368
  H 3.871936 1.148186 1.659012
  H 3.701457 -0.549935 2.040620
  H 1.912643 -0.280942 -1.564661
  H 5.155989 0.210000 -0.329474
  H 5.101508 -2.292466 -3.539181
  H 5.003020 -0.733139 -4.273963
  H 2.629267 -0.517396 -3.569951
  H 2.727011 -2.119441 -2.798510
  H 3.155026 -1.546332 -5.770293
  H 1.714574 -2.271463 -5.056374
  H 3.249576 -3.137163 -5.010417
 25
 90.230685
  C 1.052852 0.239633 0.333566
  C 2.480716 0.103369 0.415730
  C 3.160333 0.285563 1.736886
  H 2.438831 0.508562 2.519535
  C 3.168888 -0.190868 -0.710283
  C 4.497709 -0.232473 -1.094044
  C 5.128549 -0.697013 -2.203422
  C 4.617130 -1.317920 -3.441687
  C 3.117889 -1.506907 -3.610307
  C 2.805861 -2.183499 -4.933995
  H 6.208428 -0.619557 -2.194492
  H 0.600798 1.073916 0.855190
  H 0.464695 -0.666193 0.405855
  H 1.188325 0.128935 -1.340355
  H 3.890480 1.092706 1.673795
  H 3.696494 -0.622208 2.006664
  H 1.825553 -0.218971 -1.649751
  H 5.138055 0.249247 -0.354874
  H 5.117739 -2.293097 -3.529874
  H 5.006589 -0.736309 -4.287719
  H 2.627660 -0.536719 -3.598450
  H 2.732004 -2.122750 -2.803048
  H 3.168859 -1.589887 -5.767547
  H 1.735550 -2.311024 -5.052431
  H 3.268799 -3.162838 -4.988253
 25
 94.525427
  C 1.048807 0.264031 0.373235
  C 2.467843 0.097355 0.400058
  C 3.162157 0.207936 1.733695
  H 2.448631 0.407876 2.524279
  C 3.178742 -0.158408 -0.710730
  C 4.495346 -0.197236 -1.112053
  C 5.131620 -0.662230 -2.217273
  C 4.620933 -1.306223 -3.445086
  C 3.122093 -1.516473 -3.593015
  C 2.806479 -2.225178 -4.907184
  H 6.209617 -0.566577 -2.213941
  H 0.634681 1.077499 0.944122
  H 0.429506 -0.622439 0.377515
  H 1.134889 0.214802 -1.459031
  H 3.906068 1.003404 1.704202
  H 3.676764 -0.724600 1.955711
  H 1.753096 -0.137953 -1.773848
  H 5.130041 0.307336 -0.380955
  H 5.131542 -2.273698 -3.522651
  H 4.993478 -0.733047 -4.301015
  H 2.619416 -0.546832 -3.596555
  H 2.752101 -2.126559 -2.766902
  H 3.155011 -1.642302 -5.755966
  H 1.735832 -2.369426 -5.014633
  H 3.282516 -3.199994 -4.947089
