 26
 0.000000
  C 0.932678 0.149084 0.421813
  C 2.437503 0.128001 0.368987
  C 3.253248 0.602921 1.551306
  C 2.478501 1.092204 2.769740
  H 3.182317 1.401887 3.540684
  C 3.021041 -0.323223 -0.754756
  C 4.437330 -0.419253 -0.994284
  C 5.091772 -0.853645 -2.076854
  C 4.647963 -1.389211 -3.411348
  C 3.164862 -1.512978 -3.720401
  H 3.051919 -1.916311 -4.725630
  O 6.470932 -0.857477 -2.086696
  H 0.553651 0.527162 1.363321
  H 0.537188 -0.856542 0.276431
  H 0.537055 0.774771 -0.378705
  H 3.905805 1.415408 1.213194
  H 3.905962 -0.217634 1.869065
  H 1.853918 0.303633 3.183939
  H 1.853804 1.948114 2.523478
  H 2.368844 -0.642644 -1.549997
  H 5.064960 -0.089272 -0.172190
  H 5.118578 -2.373110 -3.513845
  H 5.118842 -0.749342 -4.165511
  H 2.673060 -0.544190 -3.689797
  H 2.672840 -2.191775 -3.028770
  H 6.814850 -0.522249 -1.251257
 26
 0.049347
  C 0.921602 0.200749 0.421048
  C 2.422371 0.102776 0.372774
  C 3.253112 0.561983 1.550359
  C 2.494968 1.076521 2.768702
  H 3.207903 1.350219 3.544687
  C 2.991872 -0.376669 -0.744508
  C 4.408633 -0.475474 -0.978693
  C 5.082024 -0.847072 -2.077544
  C 4.657626 -1.360809 -3.426326
  C 3.179063 -1.550396 -3.721583
  H 3.069982 -1.945091 -4.730351
  O 6.457846 -0.794814 -2.072719
  H 0.565952 0.719719 1.302652
  H 0.477602 -0.795667 0.413785
  H 0.551857 0.728351 -0.457522
  H 3.927524 1.354783 1.209746
  H 3.880031 -0.276198 1.872733
  H 1.835487 0.312427 3.173974
  H 1.910549 1.961653 2.527587
  H 2.335049 -0.688741 -1.538106
  H 5.028830 -0.165006 -0.143247
  H 5.174677 -2.316913 -3.559904
  H 5.087100 -0.676510 -4.165467
  H 2.644286 -0.605740 -3.671574
  H 2.729418 -2.259713 -3.031839
  H 6.770220 -0.421009 -1.239568
 26
 0.684797
  C 0.904930 0.220178 0.449710
  C 2.396509 0.046249 0.373825
  C 3.257160 0.528033 1.523940
  C 2.536128 1.119362 2.730300
  H 3.271261 1.392784 3.485504
  C 2.945721 -0.484789 -0.729132
  C 4.365795 -0.583001 -0.950708
  C 5.067725 -0.854358 -2.060413
  C 4.680116 -1.301076 -3.442298
  C 3.211282 -1.541730 -3.748522
  H 3.116029 -1.887039 -4.776470
  O 6.440165 -0.742457 -2.020021
  H 0.601393 0.848857 1.276891
  H 0.415125 -0.748517 0.564041
  H 0.532194 0.664123 -0.472739
  H 3.953896 1.282269 1.143794
  H 3.857436 -0.317277 1.877105
  H 1.852396 0.399129 3.173759
  H 1.985548 2.018908 2.464336
  H 2.285342 -0.812986 -1.513331
  H 4.970904 -0.325832 -0.087038
  H 5.242092 -2.222313 -3.628797
  H 5.077719 -0.554517 -4.137553
  H 2.635236 -0.625997 -3.646730
  H 2.796578 -2.305028 -3.095486
  H 6.705645 -0.346270 -1.179986
 26
 1.934940
  C 0.887184 0.215756 0.493586
  C 2.366617 -0.013597 0.368048
  C 3.262954 0.496097 1.482783
  C 2.588695 1.174125 2.670892
  H 3.350437 1.455228 3.396473
  C 2.891476 -0.595451 -0.719549
  C 4.316020 -0.696655 -0.926263
  C 5.050728 -0.866457 -2.033862
  C 4.705312 -1.233051 -3.448493
  C 3.248692 -1.513555 -3.778190
  H 3.169134 -1.805043 -4.823814
  O 6.417435 -0.706923 -1.940440
  H 0.643202 0.939258 1.259709
  H 0.376637 -0.718785 0.735063
  H 0.480634 0.568040 -0.454098
  H 3.979421 1.204640 1.055270
  H 3.837450 -0.351289 1.872359
  H 1.888016 0.504492 3.164212
  H 2.068368 2.081318 2.372071
  H 2.226373 -0.939845 -1.493095
  H 4.902692 -0.509380 -0.032802
  H 5.306855 -2.116948 -3.685313
  H 5.077113 -0.428106 -4.090665
  H 2.637602 -0.627804 -3.627321
  H 2.862341 -2.326131 -3.168693
  H 6.625518 -0.305515 -1.085600
 26
 3.766688
  C 0.861138 0.191121 0.546023
  C 2.326529 -0.071210 0.354672
  C 3.260164 0.466967 1.429679
  C 2.636830 1.227530 2.595633
  H 3.426469 1.520230 3.285927
  C 2.825919 -0.698603 -0.717120
  C 4.255944 -0.807607 -0.906837
  C 5.025553 -0.885418 -1.999025
  C 4.725200 -1.171725 -3.440246
  C 3.281681 -1.479677 -3.801775
  H 3.219281 -1.720894 -4.861055
  O 6.384479 -0.692839 -1.842373
  H 0.671342 0.983351 1.255836
  H 0.357343 -0.710967 0.899791
  H 0.400442 0.462021 -0.404125
  H 3.989411 1.129449 0.953723
  H 3.815134 -0.376593 1.854534
  H 1.929039 0.608624 3.141882
  H 2.138943 2.135279 2.262943
  H 2.156244 -1.057222 -1.479365
  H 4.821302 -0.705250 0.013928
  H 5.358889 -2.021176 -3.715750
  H 5.079490 -0.319818 -4.029054
  H 2.642624 -0.621372 -3.611487
  H 2.915385 -2.331763 -3.235492
  H 6.532730 -0.297748 -0.967327
 26
 6.348781
  C 0.837355 0.181819 0.609013
  C 2.287017 -0.081739 0.326213
  C 3.263105 0.464651 1.363782
  C 2.696761 1.269879 2.528457
  H 3.517653 1.564927 3.180326
  C 2.754957 -0.734833 -0.742238
  C 4.188013 -0.869626 -0.907020
  C 5.003036 -0.897052 -1.967069
  C 4.764510 -1.139612 -3.424459
  C 3.333523 -1.449290 -3.831665
  H 3.297741 -1.664686 -4.897652
  O 6.350748 -0.692180 -1.728395
  H 0.690537 0.975910 1.327226
  H 0.359192 -0.723731 0.995105
  H 0.316267 0.450018 -0.311737
  H 3.989720 1.100392 0.849941
  H 3.816324 -0.377794 1.794733
  H 1.999021 0.681106 3.119982
  H 2.204723 2.177564 2.188418
  H 2.077037 -1.090975 -1.500032
  H 4.722265 -0.873465 0.037603
  H 5.412006 -1.978295 -3.698348
  H 5.130342 -0.271232 -3.980838
  H 2.684691 -0.600173 -3.634797
  H 2.959861 -2.315527 -3.292559
  H 6.423693 -0.312981 -0.839414
 26
 11.375201
  C 0.873586 0.225354 0.595139
  C 2.337847 -0.014983 0.350689
  C 3.330069 0.459327 1.401766
  C 2.784899 1.238584 2.596305
  H 3.614476 1.498680 3.252290
  C 2.749147 -0.653116 -0.753191
  C 4.158116 -0.848797 -0.949515
  C 4.965334 -0.864798 -2.021871
  C 4.736951 -1.141942 -3.469823
  C 3.307100 -1.499526 -3.845859
  H 3.258679 -1.765446 -4.899930
  O 6.296695 -0.607476 -1.725668
  H 0.694638 0.954442 1.372502
  H 0.383380 -0.708576 0.878367
  H 0.385894 0.573801 -0.316418
  H 4.072733 1.094478 0.906969
  H 3.863633 -0.409456 1.802513
  H 2.081741 0.640076 3.170988
  H 2.301338 2.164166 2.291454
  H 2.038942 -0.936439 -1.514361
  H 4.695164 -1.005450 -0.016460
  H 5.399012 -1.977183 -3.720780
  H 5.077352 -0.285375 -4.059825
  H 2.642050 -0.654794 -3.683995
  H 2.959251 -2.341191 -3.253940
  H 6.194652 -0.252836 -0.832173
 26
 20.882127
  C 0.846260 0.328094 0.622803
  C 2.281478 0.009835 0.301837
  C 3.294243 0.420629 1.366868
  C 2.793659 1.186171 2.591608
  H 3.640140 1.398898 3.242731
  C 2.690818 -0.610862 -0.800711
  C 4.097667 -0.838910 -0.953141
  C 4.958728 -0.856175 -2.006659
  C 4.823522 -1.162006 -3.450334
  C 3.421642 -1.558980 -3.893183
  H 3.428490 -1.827954 -4.947550
  O 6.258100 -0.549648 -1.581349
  H 0.739489 1.050629 1.421503
  H 0.320923 -0.585006 0.908708
  H 0.334174 0.724767 -0.253867
  H 4.055427 1.052673 0.891134
  H 3.799871 -0.475845 1.734826
  H 2.078132 0.591066 3.158226
  H 2.337322 2.135986 2.327489
  H 2.008603 -0.860436 -1.619206
  H 4.607236 -1.078870 -0.035469
  H 5.518370 -1.984722 -3.647810
  H 5.167253 -0.303298 -4.043282
  H 2.727563 -0.731447 -3.778954
  H 3.066758 -2.396799 -3.299134
  H 5.971789 -0.199317 -0.709331
 26
 34.304377
  C 0.869078 0.427417 0.577018
  C 2.301172 0.084558 0.309146
  C 3.326133 0.390360 1.398680
  C 2.817461 1.100342 2.653121
  H 3.643068 1.251535 3.343640
  C 2.703340 -0.480230 -0.822280
  C 4.097698 -0.752941 -0.950950
  C 4.951056 -0.806821 -2.024784
  C 4.819172 -1.186630 -3.450586
  C 3.442848 -1.664955 -3.901185
  H 3.480096 -1.995604 -4.943279
  O 6.198172 -0.442579 -1.609130
  H 0.781077 1.110064 1.416799
  H 0.294867 -0.483192 0.783065
  H 0.384983 0.887620 -0.272711
  H 4.112172 1.019972 0.976054
  H 3.804033 -0.547333 1.711481
  H 2.060960 0.496489 3.160312
  H 2.402904 2.080697 2.431477
  H 2.020603 -0.643499 -1.670526
  H 4.553207 -1.159528 -0.076860
  H 5.559985 -1.995666 -3.586237
  H 5.116577 -0.354479 -4.104700
  H 2.711364 -0.871344 -3.853776
  H 3.117631 -2.485655 -3.265973
  H 5.804340 -0.112019 -0.700952
 26
 55.914178
  C 0.919739 0.486053 0.497181
  C 2.371424 0.148036 0.311776
  C 3.322746 0.378207 1.469190
  C 2.747388 1.001692 2.736150
  H 3.538677 1.091332 3.478357
  C 2.835800 -0.354912 -0.837187
  C 4.237097 -0.646826 -0.995219
  C 5.049829 -0.761900 -2.121757
  C 4.813439 -1.233700 -3.513145
  C 3.404435 -1.723106 -3.815056
  H 3.366882 -2.119890 -4.826369
  O 6.261476 -0.357168 -1.785774
  H 0.749293 1.148613 1.335663
  H 0.339071 -0.422999 0.663920
  H 0.530145 0.960795 -0.403909
  H 4.140431 1.015913 1.114076
  H 3.771213 -0.577360 1.762662
  H 1.960262 0.384409 3.161789
  H 2.358970 2.000023 2.545970
  H 2.167488 -0.468262 -1.675512
  H 4.654757 -1.167270 -0.129053
  H 5.518461 -2.054189 -3.688634
  H 5.089433 -0.436480 -4.209501
  H 2.689886 -0.907749 -3.739976
  H 3.107466 -2.511162 -3.127214
  H 5.601016 -0.012355 -0.710514
 26
 36.435712
  C 0.975498 0.575268 0.447583
  C 2.402632 0.190039 0.292369
  C 3.331506 0.396496 1.471078
  C 2.720009 0.956937 2.750950
  H 3.465030 0.942646 3.546796
  C 2.943217 -0.303988 -0.819879
  C 4.399334 -0.638391 -0.969167
  C 5.184459 -0.732377 -2.225104
  C 4.826907 -1.229050 -3.586068
  C 3.429801 -1.832997 -3.737281
  H 3.291357 -2.196302 -4.757442
  O 6.315635 -0.311443 -2.008192
  H 0.813923 1.202583 1.328055
  H 0.344011 -0.321461 0.525623
  H 0.640544 1.135421 -0.429797
  H 4.211836 0.966638 1.173291
  H 3.685496 -0.606591 1.759651
  H 1.871136 0.344776 3.066350
  H 2.377695 1.984486 2.621539
  H 2.305900 -0.437112 -1.689588
  H 4.773306 -1.306011 -0.171661
  H 5.569201 -2.006816 -3.797155
  H 4.944093 -0.412615 -4.305153
  H 2.669321 -1.069237 -3.563237
  H 3.268630 -2.637553 -3.034929
  H 5.321761 0.031690 -0.603518
 26
 16.959474
  C 1.004551 0.504847 0.364692
  C 2.477391 0.203811 0.281659
  C 3.339547 0.410642 1.516677
  C 2.648744 0.952660 2.770190
  H 3.384748 1.000131 3.575732
  C 3.067015 -0.286761 -0.817074
  C 4.515979 -0.638803 -0.921301
  C 5.260152 -0.813042 -2.207114
  C 4.770641 -1.301988 -3.540582
  C 3.310619 -1.696494 -3.721739
  H 3.161494 -2.071296 -4.734152
  O 6.417547 -0.440403 -2.098873
  H 0.776046 1.192063 1.173548
  H 0.445400 -0.421651 0.560217
  H 0.641234 0.923393 -0.573462
  H 4.137785 1.110473 1.248289
  H 3.818965 -0.546644 1.775108
  H 1.835008 0.311185 3.102397
  H 2.291767 1.967141 2.617652
  H 2.480303 -0.368023 -1.704500
  H 4.859099 -1.298898 -0.104797
  H 5.402459 -2.180225 -3.783179
  H 5.068627 -0.577751 -4.294792
  H 2.651435 -0.845391 -3.561899
  H 3.036015 -2.497516 -3.044077
  H 5.268924 0.119761 -0.568886
 26
 4.364432
  C 1.084928 0.510963 0.342126
  C 2.506011 0.179746 0.303968
  C 3.330485 0.402483 1.532708
  C 2.617357 0.939457 2.765891
  H 3.340879 1.055155 3.569799
  C 3.085859 -0.282956 -0.789593
  C 4.530745 -0.633828 -0.878091
  C 5.288408 -0.791419 -2.194914
  C 4.733437 -1.299548 -3.536021
  C 3.263292 -1.663773 -3.688865
  H 3.112042 -2.143830 -4.660253
  O 6.445836 -0.458343 -2.147489
  H 0.855136 1.203067 1.127609
  H 0.505743 -0.375133 0.496693
  H 0.772102 0.943810 -0.608908
  H 4.124522 1.122944 1.268459
  H 3.829727 -0.523924 1.794874
  H 1.843511 0.261181 3.106631
  H 2.176785 1.919925 2.575663
  H 2.478289 -0.338848 -1.731280
  H 4.822219 -1.456702 -0.161689
  H 5.327571 -2.174740 -3.755313
  H 5.011320 -0.550193 -4.285664
  H 2.626424 -0.787548 -3.655801
  H 2.955692 -2.356881 -2.917773
  H 5.163313 0.173140 -0.438692
 26
 1.238735
  C 1.079838 0.587601 0.305123
  C 2.541232 0.234836 0.281630
  C 3.372672 0.436790 1.528092
  C 2.648493 0.931415 2.774465
  H 3.355140 0.979619 3.600815
  C 3.103088 -0.245046 -0.826728
  C 4.559867 -0.573615 -0.904696
  C 5.313980 -0.784396 -2.202222
  C 4.735629 -1.308587 -3.504866
  C 3.277928 -1.718485 -3.646262
  H 3.136699 -2.162473 -4.630582
  O 6.506238 -0.570298 -2.177778
  H 0.816557 1.187288 1.167079
  H 0.472704 -0.318241 0.323381
  H 0.812138 1.141172 -0.593353
  H 4.175936 1.144695 1.297094
  H 3.857545 -0.514451 1.770846
  H 1.844515 0.256657 3.058491
  H 2.243211 1.930225 2.629510
  H 2.489698 -0.383042 -1.696959
  H 4.756909 -1.490392 -0.329821
  H 5.363822 -2.174544 -3.742235
  H 4.976895 -0.553642 -4.259258
  H 2.609647 -0.865282 -3.579833
  H 2.999377 -2.458300 -2.899656
  H 5.121411 0.211568 -0.384423
 26
 2.754449
  C 1.049064 0.374121 0.349170
  C 2.525474 0.081949 0.320870
  C 3.383082 0.528655 1.485144
  C 2.676499 1.173477 2.672493
  H 3.408382 1.377965 3.451971
  C 3.071027 -0.541926 -0.720048
  C 4.545110 -0.773964 -0.813764
  C 5.311683 -0.959748 -2.108881
  C 4.740890 -1.248967 -3.486303
  C 3.255303 -1.439139 -3.747487
  H 3.116435 -1.661833 -4.804554
  O 6.519374 -0.880407 -2.029764
  H 0.755417 0.930333 1.229045
  H 0.472075 -0.550249 0.319975
  H 0.771028 0.952150 -0.532047
  H 4.129568 1.241494 1.115981
  H 3.940737 -0.339980 1.850292
  H 1.914981 0.518975 3.089003
  H 2.225497 2.123534 2.393326
  H 2.432553 -0.861103 -1.521650
  H 4.814070 -1.643496 -0.197453
  H 5.270835 -2.148391 -3.817482
  H 5.111642 -0.434088 -4.116656
  H 2.689232 -0.538795 -3.525823
  H 2.855027 -2.274270 -3.177531
  H 5.046147 0.073028 -0.328375
