 17
 0.000000
  C 0.990543 0.133001 0.380763
  C 2.462227 0.137020 0.394225
  C 3.184970 0.614919 1.583762
  H 2.517976 0.934364 2.376826
  C 3.125904 -0.319613 -0.740129
  C 4.511736 -0.381413 -0.895641
  C 5.114680 -0.842882 -2.045601
  H 4.563789 -1.192201 -2.910983
  O 6.399009 -0.913880 -2.230467
  H 0.561702 0.505433 1.305504
  H 0.619489 -0.877038 0.198039
  H 0.621254 0.736255 -0.450498
  H 3.837560 1.447878 1.317423
  H 3.836284 -0.171367 1.968727
  H 2.515046 -0.652589 -1.568346
  H 5.144920 -0.053768 -0.082126
  H 6.935545 -0.605743 -1.471896
 17
 7.777712
  C 0.877116 0.134496 0.384014
  C 2.508145 0.138393 0.397954
  C 3.222956 0.615217 1.584762
  H 2.551073 0.933505 2.374725
  C 3.161503 -0.317033 -0.733213
  C 4.546888 -0.380847 -0.893882
  C 5.140715 -0.844248 -2.048887
  H 4.578113 -1.191230 -2.908133
  O 6.420123 -0.919763 -2.245635
  H 0.456075 0.507104 1.309033
  H 0.511080 -0.874270 0.203087
  H 0.513019 0.738090 -0.445138
  H 3.875021 1.449317 1.320867
  H 3.873651 -0.170217 1.972372
  H 2.546800 -0.649146 -1.559287
  H 5.185438 -0.054574 -0.083793
  H 6.966195 -0.613468 -1.492571
 17
 22.793454
  C 0.785014 0.129014 0.372249
  C 2.574711 0.148075 0.420223
  C 3.215220 0.636115 1.636072
  H 2.494328 0.938562 2.389676
  C 3.205852 -0.313065 -0.727978
  C 4.595247 -0.382251 -0.902174
  C 5.155752 -0.852950 -2.072565
  H 4.544592 -1.188940 -2.904249
  O 6.425908 -0.949652 -2.315579
  H 0.391460 0.503367 1.304056
  H 0.478127 -0.890884 0.186509
  H 0.478619 0.737632 -0.467169
  H 3.861873 1.487022 1.405609
  H 3.861862 -0.137999 2.057885
  H 2.582895 -0.643286 -1.548752
  H 5.249646 -0.060472 -0.103991
  H 7.011117 -0.655632 -1.585937
 17
 39.912508
  C 0.676194 0.126698 0.366630
  C 2.624814 0.151742 0.429206
  C 3.226011 0.639551 1.644392
  H 2.487926 0.935555 2.382014
  C 3.220640 -0.309153 -0.718337
  C 4.623712 -0.380674 -0.898179
  C 5.179754 -0.856952 -2.082480
  H 4.544771 -1.186694 -2.899322
  O 6.439011 -0.960904 -2.343120
  H 0.342667 0.506075 1.311120
  H 0.429633 -0.903760 0.192924
  H 0.429941 0.751130 -0.471417
  H 3.871798 1.492987 1.426482
  H 3.871801 -0.127787 2.076825
  H 2.588610 -0.637097 -1.533641
  H 5.278504 -0.058255 -0.098276
  H 7.041296 -0.671073 -1.624019
 17
 57.232248
  C 0.575201 0.119410 0.346405
  C 2.681866 0.156022 0.441565
  C 3.236845 0.653008 1.679219
  H 2.473034 0.940462 2.394063
  C 3.255082 -0.307126 -0.710157
  C 4.644602 -0.383136 -0.902776
  C 5.182459 -0.862403 -2.094823
  H 4.524697 -1.186822 -2.895740
  O 6.442169 -0.974608 -2.379824
  H 0.291219 0.506522 1.309323
  H 0.390882 -0.929140 0.181204
  H 0.392347 0.762658 -0.498314
  H 3.880905 1.516120 1.481301
  H 3.880223 -0.107677 2.133425
  H 2.616986 -0.632210 -1.517656
  H 5.305552 -0.062246 -0.108082
  H 7.059554 -0.688808 -1.676735
 17
 73.321900
  C 0.453419 0.122055 0.352236
  C 2.719730 0.157101 0.444819
  C 3.277159 0.652007 1.677411
  H 2.517674 0.940309 2.393960
  C 3.282280 -0.306426 -0.707631
  C 4.680331 -0.385411 -0.909381
  C 5.207580 -0.861010 -2.091699
  H 4.548920 -1.184547 -2.888965
  O 6.455762 -0.973560 -2.377323
  H 0.186632 0.509281 1.315513
  H 0.277368 -0.925785 0.189881
  H 0.279032 0.766826 -0.489904
  H 3.919756 1.512167 1.477712
  H 3.919026 -0.107763 2.128494
  H 2.637352 -0.630884 -1.512355
  H 5.344868 -0.065217 -0.117873
  H 7.074946 -0.687390 -1.673770
 17
 85.048288
  C 0.403454 0.107039 0.332293
  C 2.826728 0.171422 0.466058
  C 3.250567 0.674625 1.729662
  H 2.427011 0.932887 2.385938
  C 3.313328 -0.282382 -0.678627
  C 4.708801 -0.380746 -0.937233
  C 5.183655 -0.865001 -2.124829
  H 4.512472 -1.181802 -2.912752
  O 6.435403 -1.015368 -2.440876
  H 0.194467 0.493188 1.306941
  H 0.325856 -0.951989 0.170004
  H 0.316268 0.765096 -0.512255
  H 3.852300 1.571921 1.580873
  H 3.860392 -0.073807 2.236864
  H 2.651721 -0.604537 -1.468429
  H 5.391893 -0.066382 -0.161008
  H 7.059458 -0.750472 -1.732255
 17
 91.054862
  C 0.347946 0.097902 0.313118
  C 2.927447 0.182352 0.493298
  C 3.241534 0.695754 1.776190
  H 2.361154 0.931523 2.376192
  C 3.352951 -0.267023 -0.639548
  C 4.756960 -0.395083 -0.952789
  C 5.168490 -0.869151 -2.139262
  H 4.475497 -1.180228 -2.909477
  O 6.431096 -1.037481 -2.509795
  H 0.133046 0.486138 1.289300
  H 0.305228 -0.960910 0.152515
  H 0.293715 0.754565 -0.532220
  H 3.809856 1.624051 1.666685
  H 3.821879 -0.043180 2.335871
  H 2.673822 -0.578158 -1.417209
  H 5.464948 -0.101860 -0.196869
  H 7.065792 -0.780296 -1.819935
 17
 94.743307
  C 0.253907 0.092265 0.306077
  C 2.989988 0.195677 0.521724
  C 3.248558 0.711880 1.807530
  H 2.345190 0.932156 2.373950
  C 3.390787 -0.256192 -0.617484
  C 4.797538 -0.403501 -0.956771
  C 5.176162 -0.874505 -2.152187
  H 4.465025 -1.175362 -2.908244
  O 6.429485 -1.052824 -2.553738
  H 0.044517 0.481233 1.282135
  H 0.237396 -0.969883 0.148061
  H 0.223362 0.751734 -0.540983
  H 3.799244 1.652146 1.718571
  H 3.814065 -0.019947 2.389980
  H 2.698431 -0.560299 -1.390942
  H 5.523926 -0.123895 -0.208387
  H 7.078344 -0.802517 -1.875616
 17
 96.685953
  C 0.162858 0.084821 0.294038
  C 3.055080 0.207633 0.547017
  C 3.259160 0.727473 1.838738
  H 2.330065 0.932731 2.372576
  C 3.428424 -0.244449 -0.591694
  C 4.830012 -0.409511 -0.958706
  C 5.176935 -0.879290 -2.162851
  H 4.449773 -1.170166 -2.907803
  O 6.420976 -1.067562 -2.592576
  H -0.044017 0.474536 1.270050
  H 0.170163 -0.975251 0.139034
  H 0.153965 0.743661 -0.550758
  H 3.791567 1.680617 1.770375
  H 3.808481 0.001416 2.444847
  H 2.725167 -0.540921 -1.355573
  H 5.570052 -0.142266 -0.223270
  H 7.082038 -0.823773 -1.924821
 17
 97.839216
  C 0.067489 0.078666 0.284331
  C 3.115150 0.222045 0.578818
  C 3.266155 0.741707 1.868470
  H 2.314644 0.931108 2.367111
  C 3.464968 -0.233244 -0.566371
  C 4.861716 -0.413556 -0.961159
  C 5.177643 -0.884037 -2.172313
  H 4.433187 -1.163901 -2.903423
  O 6.410713 -1.083235 -2.629718
  H -0.133633 0.469197 1.260867
  H 0.100518 -0.982754 0.132794
  H 0.082580 0.740158 -0.559951
  H 3.780323 1.705594 1.820111
  H 3.798447 0.021747 2.496190
  H 2.747389 -0.524151 -1.321858
  H 5.618486 -0.154375 -0.237435
  H 7.085768 -0.847084 -1.975463
 17
 98.459030
  C -0.026466 0.070688 0.269373
  C 3.176062 0.235202 0.607757
  C 3.274289 0.757096 1.902207
  H 2.299805 0.930442 2.364696
  C 3.500068 -0.221267 -0.538379
  C 4.887318 -0.416017 -0.962853
  C 5.172144 -0.888985 -2.181906
  H 4.410995 -1.158859 -2.899889
  O 6.392141 -1.099194 -2.665530
  H -0.223184 0.461464 1.245325
  H 0.030799 -0.987466 0.121908
  H 0.011422 0.732222 -0.570650
  H 3.769058 1.732619 1.874264
  H 3.787936 0.042563 2.552536
  H 2.768889 -0.506081 -1.281902
  H 5.658776 -0.164231 -0.254453
  H 7.082590 -0.869487 -2.022752
 17
 98.717196
  C -0.123819 0.063938 0.257030
  C 3.232720 0.251112 0.643587
  C 3.278736 0.770462 1.931799
  H 2.284147 0.927051 2.355537
  C 3.534162 -0.208692 -0.508845
  C 4.911786 -0.417120 -0.963777
  C 5.164041 -0.892224 -2.187263
  H 4.385334 -1.151721 -2.889746
  O 6.371915 -1.114799 -2.698837
  H -0.316900 0.455487 1.234031
  H -0.042530 -0.995114 0.113462
  H -0.063287 0.728652 -0.581557
  H 3.753266 1.755255 1.923143
  H 3.772399 0.061980 2.602374
  H 2.787776 -0.488125 -1.240820
  H 5.700235 -0.171450 -0.270620
  H 7.076212 -0.893235 -2.072190
 17
 98.731107
  C -0.230954 0.056545 0.242184
  C 3.280225 0.263143 0.670647
  C 3.289710 0.784922 1.964591
  H 2.278684 0.928447 2.358407
  C 3.563853 -0.197650 -0.482345
  C 4.929343 -0.417403 -0.963188
  C 5.154460 -0.895651 -2.192965
  H 4.360618 -1.147072 -2.881906
  O 6.348921 -1.127808 -2.726712
  H -0.426171 0.447667 1.217285
  H -0.137261 -0.998688 0.101411
  H -0.158741 0.720114 -0.592401
  H 3.749110 1.778275 1.971506
  H 3.768380 0.080427 2.652325
  H 2.803358 -0.471569 -1.202249
  H 5.731991 -0.177552 -0.285510
  H 7.069392 -0.911518 -2.111787
