 23
 0.000000
  C 0.951240 0.052506 0.168303
  C 2.454012 0.056545 0.097441
  C 3.247090 -0.017383 1.388820
  C 2.455942 -0.084614 2.691730
  H 3.151193 -0.132160 3.526566
  C 3.083167 0.124914 -1.091065
  C 2.335549 0.199511 -2.398217
  H 1.262303 0.191580 -2.260099
  C 4.530779 0.131721 -1.202806
  C 5.220440 0.197178 -2.339653
  O 6.575301 0.202531 -2.422319
  H 0.595412 -0.015199 1.188969
  H 0.541617 -0.796440 -0.378755
  H 0.540331 0.965696 -0.261934
  H 3.900367 0.859670 1.442829
  H 3.892967 -0.900613 1.346746
  H 1.826285 -0.971802 2.729299
  H 1.832873 0.798158 2.823929
  H 2.608935 -0.645904 -3.030320
  H 2.608384 1.111644 -2.929794
  H 5.099140 0.078956 -0.283112
  H 4.782403 0.253316 -3.322225
  H 6.953820 0.151861 -1.535960
 23
 4.005514
  C 0.951526 0.020168 0.180309
  C 2.430206 0.049104 0.097548
  C 3.236549 -0.030021 1.385863
  C 2.455783 -0.075857 2.692622
  H 3.157927 -0.128117 3.522310
  C 3.063066 0.120705 -1.091738
  C 2.323338 0.191701 -2.402023
  H 1.247198 0.174938 -2.273768
  C 4.514029 0.140047 -1.196881
  C 5.212205 0.210646 -2.334694
  O 6.566509 0.222414 -2.409961
  H 0.565445 -0.012234 1.184533
  H 0.508000 -0.789457 -0.389631
  H 0.758247 0.958758 -0.272922
  H 3.904117 0.834777 1.430437
  H 3.867099 -0.922952 1.345048
  H 1.815967 -0.953842 2.743490
  H 1.849865 0.817866 2.824912
  H 2.603411 -0.651901 -3.031449
  H 2.591043 1.106967 -2.928919
  H 5.078547 0.089549 -0.275567
  H 4.779193 0.264588 -3.319252
  H 6.939111 0.173056 -1.522148
 23
 11.587428
  C 0.948368 0.004122 0.201567
  C 2.428115 0.032050 0.105543
  C 3.234204 -0.053914 1.377145
  C 2.440887 -0.069844 2.681315
  H 3.135767 -0.129065 3.520742
  C 3.056988 0.106514 -1.085328
  C 2.315730 0.165899 -2.396777
  H 1.240794 0.132606 -2.273002
  C 4.503301 0.150619 -1.195579
  C 5.194409 0.229780 -2.333283
  O 6.560884 0.261592 -2.413494
  H 0.549692 0.005699 1.195892
  H 0.472362 -0.744150 -0.399539
  H 0.969900 0.974665 -0.252765
  H 3.923453 0.794896 1.416682
  H 3.841300 -0.965427 1.340537
  H 1.781520 -0.933683 2.734300
  H 1.853009 0.838380 2.798846
  H 2.609250 -0.675141 -3.024090
  H 2.569856 1.084527 -2.925570
  H 5.073447 0.106477 -0.277233
  H 4.755372 0.277198 -3.319882
  H 6.943840 0.217316 -1.513060
 23
 22.077100
  C 0.925528 -0.014100 0.208069
  C 2.427668 0.025760 0.107305
  C 3.233789 -0.057117 1.376071
  C 2.432003 -0.062580 2.685795
  H 3.124300 -0.119873 3.527700
  C 3.058664 0.102033 -1.082479
  C 2.313761 0.159148 -2.398102
  H 1.239457 0.122638 -2.273962
  C 4.502124 0.152879 -1.192223
  C 5.192392 0.237852 -2.333708
  O 6.558991 0.276941 -2.416413
  H 0.514851 -0.003245 1.203598
  H 0.433727 -0.721298 -0.428998
  H 1.124380 0.950874 -0.222371
  H 3.931809 0.790301 1.412220
  H 3.836115 -0.976974 1.340775
  H 1.767226 -0.925375 2.742107
  H 1.845563 0.850488 2.797335
  H 2.609445 -0.682925 -3.028764
  H 2.565461 1.081388 -2.928775
  H 5.074597 0.107701 -0.272655
  H 4.751560 0.285687 -3.320006
  H 6.933264 0.232356 -1.537292
 23
 32.504751
  C 0.905031 -0.030978 0.200461
  C 2.408449 0.025757 0.099498
  C 3.226031 -0.057211 1.378821
  C 2.454450 -0.054370 2.685567
  H 3.160314 -0.111477 3.512453
  C 3.048708 0.101489 -1.093079
  C 2.305735 0.153199 -2.403010
  H 1.229975 0.115656 -2.274793
  C 4.495486 0.157857 -1.193165
  C 5.193547 0.244099 -2.325252
  O 6.556152 0.283936 -2.394591
  H 0.473881 -0.031964 1.187170
  H 0.395622 -0.695052 -0.476368
  H 1.236970 0.934649 -0.191125
  H 3.926430 0.778600 1.408168
  H 3.816377 -0.973915 1.341884
  H 1.789480 -0.913368 2.755812
  H 1.875623 0.860566 2.803155
  H 2.599639 -0.686750 -3.029452
  H 2.554131 1.071075 -2.934600
  H 5.058506 0.113243 -0.272808
  H 4.762568 0.291423 -3.313739
  H 6.923866 0.237706 -1.505398
 23
 41.290429
  C 0.910023 -0.055705 0.214491
  C 2.413563 0.026900 0.096877
  C 3.224314 -0.046702 1.388430
  C 2.423933 -0.048156 2.692996
  H 3.116726 -0.097581 3.535658
  C 3.059152 0.102024 -1.094482
  C 2.312237 0.156343 -2.406975
  H 1.237411 0.127000 -2.275213
  C 4.502457 0.156642 -1.202454
  C 5.189981 0.245053 -2.344515
  O 6.545643 0.280802 -2.426584
  H 0.495762 -0.073977 1.199790
  H 0.392605 -0.669601 -0.493092
  H 1.333891 0.909932 -0.127847
  H 3.921169 0.797852 1.427545
  H 3.821604 -0.964576 1.356898
  H 1.762277 -0.915510 2.753306
  H 1.832009 0.864619 2.798648
  H 2.599000 -0.687222 -3.037150
  H 2.564611 1.074117 -2.942219
  H 5.077975 0.107753 -0.285316
  H 4.748826 0.295801 -3.327512
  H 6.921662 0.229094 -1.536878
 23
 47.350347
  C 0.893354 -0.076235 0.216550
  C 2.405083 0.026220 0.095552
  C 3.216568 -0.036437 1.377155
  C 2.435915 -0.038745 2.684868
  H 3.139404 -0.073408 3.516439
  C 3.054637 0.097713 -1.101035
  C 2.307507 0.151197 -2.410660
  H 1.229564 0.135421 -2.275793
  C 4.495725 0.154046 -1.200036
  C 5.194041 0.244096 -2.336728
  O 6.554846 0.280762 -2.406456
  H 0.482106 -0.156670 1.204282
  H 0.359172 -0.602366 -0.552363
  H 1.400426 0.903303 -0.038851
  H 3.908272 0.812421 1.405724
  H 3.817175 -0.949076 1.341578
  H 1.790557 -0.909550 2.760954
  H 1.836839 0.863125 2.792192
  H 2.582731 -0.696195 -3.036348
  H 2.567267 1.061990 -2.950440
  H 5.064156 0.102650 -0.279075
  H 4.763776 0.297379 -3.319972
  H 6.921606 0.225599 -1.514595
 23
 52.307465
  C 0.899672 -0.094398 0.222378
  C 2.399032 0.025006 0.088853
  C 3.205276 -0.031230 1.374521
  C 2.426154 -0.031465 2.690238
  H 3.131667 -0.055006 3.516022
  C 3.056415 0.096937 -1.107320
  C 2.309100 0.152111 -2.409599
  H 1.240372 0.142700 -2.271439
  C 4.500057 0.153894 -1.206161
  C 5.200102 0.244486 -2.340986
  O 6.558931 0.279272 -2.405799
  H 0.495787 -0.203718 1.208140
  H 0.351146 -0.565974 -0.572449
  H 1.463140 0.891186 0.015875
  H 3.892209 0.818962 1.397841
  H 3.810706 -0.942355 1.340861
  H 1.784960 -0.912576 2.778379
  H 1.818049 0.869534 2.796934
  H 2.577246 -0.697065 -3.035994
  H 2.570233 1.060708 -2.950564
  H 5.063182 0.100580 -0.295757
  H 4.766250 0.299485 -3.340004
  H 6.920717 0.221968 -1.513657
 23
 55.889574
  C 0.893759 -0.111467 0.228307
  C 2.393614 0.024941 0.087641
  C 3.206755 -0.028317 1.372242
  C 2.434674 -0.026026 2.681305
  H 3.148458 -0.040462 3.513735
  C 3.053746 0.094957 -1.114322
  C 2.307294 0.151346 -2.428990
  H 1.222347 0.150335 -2.294079
  C 4.489127 0.152068 -1.202838
  C 5.196210 0.243077 -2.335013
  O 6.557653 0.281665 -2.392832
  H 0.488146 -0.251385 1.218019
  H 0.336001 -0.519110 -0.579977
  H 1.507749 0.882103 0.064620
  H 3.892028 0.822696 1.391890
  H 3.811999 -0.934296 1.340078
  H 1.802998 -0.905884 2.774149
  H 1.822070 0.868840 2.782403
  H 2.572723 -0.702963 -3.054084
  H 2.577412 1.058617 -2.973858
  H 5.056906 0.098318 -0.272125
  H 4.775702 0.298143 -3.316815
  H 6.915081 0.224382 -1.497804
 23
 58.893937
  C 0.900052 -0.125438 0.234223
  C 2.399931 0.029981 0.093767
  C 3.208502 -0.023804 1.379376
  C 2.418334 -0.023591 2.687621
  H 3.112827 -0.030801 3.517601
  C 3.062206 0.097401 -1.111745
  C 2.315608 0.151111 -2.418997
  H 1.233302 0.155835 -2.282018
  C 4.496544 0.158355 -1.207713
  C 5.198835 0.245327 -2.345528
  O 6.556324 0.276725 -2.409088
  H 0.494647 -0.286744 1.213044
  H 0.329384 -0.486312 -0.598552
  H 1.553445 0.873810 0.103798
  H 3.894755 0.833680 1.404273
  H 3.817806 -0.930688 1.350680
  H 1.792743 -0.905638 2.776450
  H 1.799144 0.864570 2.780128
  H 2.575307 -0.705373 -3.038860
  H 2.588215 1.054341 -2.969635
  H 5.061960 0.106231 -0.296758
  H 4.766384 0.294879 -3.342457
  H 6.917224 0.220547 -1.513598
 23
 61.603049
  C 0.908921 -0.143725 0.238659
  C 2.401580 0.038733 0.096459
  C 3.210468 -0.014863 1.384630
  C 2.410013 -0.022114 2.686302
  H 3.104156 -0.021762 3.531373
  C 3.066776 0.106828 -1.113242
  C 2.324647 0.156203 -2.420905
  H 1.246656 0.162658 -2.288787
  C 4.490401 0.176184 -1.209428
  C 5.190963 0.254446 -2.353728
  O 6.546259 0.255437 -2.423201
  H 0.500873 -0.319832 1.220916
  H 0.333560 -0.466910 -0.604880
  H 1.584547 0.862610 0.129205
  H 3.886004 0.842458 1.414137
  H 3.824056 -0.915626 1.357373
  H 1.791983 -0.911121 2.769326
  H 1.779904 0.859821 2.772258
  H 2.585235 -0.701322 -3.036511
  H 2.598524 1.054128 -2.972648
  H 5.065095 0.120040 -0.289991
  H 4.760182 0.288671 -3.339228
  H 6.910231 0.197352 -1.525940
 23
 63.802794
  C 0.898321 -0.160739 0.228732
  C 2.394263 0.044106 0.096091
  C 3.211967 -0.013019 1.386084
  C 2.429636 -0.017796 2.695050
  H 3.125673 -0.012668 3.520397
  C 3.060354 0.106279 -1.115641
  C 2.309404 0.156234 -2.430409
  H 1.223227 0.173143 -2.292727
  C 4.490407 0.170693 -1.204294
  C 5.200385 0.247973 -2.338308
  O 6.563738 0.260811 -2.393129
  H 0.481734 -0.342753 1.196943
  H 0.329122 -0.444631 -0.620825
  H 1.604320 0.863010 0.141779
  H 3.889534 0.844878 1.408320
  H 3.826772 -0.917662 1.354208
  H 1.818203 -0.904894 2.789324
  H 1.800458 0.859989 2.786393
  H 2.560932 -0.713796 -3.047997
  H 2.591029 1.056892 -2.992354
  H 5.053188 0.119232 -0.288037
  H 4.777513 0.288677 -3.333608
  H 6.916901 0.205145 -1.496452
 23
 65.833115
  C 0.894901 -0.179964 0.233302
  C 2.390177 0.046152 0.096076
  C 3.213208 -0.011249 1.379070
  C 2.433830 -0.011846 2.691983
  H 3.130977 -0.001555 3.513352
  C 3.057495 0.101910 -1.121365
  C 2.313829 0.161670 -2.427892
  H 1.253599 0.195699 -2.294751
  C 4.483686 0.154582 -1.206656
  C 5.200255 0.235943 -2.340927
  O 6.563593 0.275288 -2.390184
  H 0.475987 -0.356296 1.206105
  H 0.316293 -0.436220 -0.621631
  H 1.625288 0.858772 0.152548
  H 3.889974 0.843822 1.395747
  H 3.825413 -0.915015 1.346057
  H 1.821055 -0.905349 2.792081
  H 1.799988 0.869455 2.781434
  H 2.550006 -0.708456 -3.039755
  H 2.608370 1.051462 -2.987912
  H 5.043392 0.108129 -0.286638
  H 4.787239 0.287546 -3.321113
  H 6.914516 0.222969 -1.491244
 23
 67.761799
  C 0.891125 -0.199231 0.231804
  C 2.387084 0.048507 0.096426
  C 3.215604 -0.011834 1.380150
  C 2.439304 -0.004799 2.693562
  H 3.145129 0.009183 3.523580
  C 3.056887 0.095976 -1.123628
  C 2.312005 0.166277 -2.433107
  H 1.238775 0.221673 -2.298049
  C 4.487115 0.139088 -1.205005
  C 5.206762 0.225484 -2.335207
  O 6.571810 0.294824 -2.376426
  H 0.467929 -0.360638 1.201057
  H 0.306943 -0.427583 -0.625647
  H 1.646461 0.860285 0.156597
  H 3.894451 0.838208 1.392753
  H 3.825474 -0.922266 1.348374
  H 1.828753 -0.891916 2.797448
  H 1.809671 0.872382 2.778002
  H 2.533754 -0.715832 -3.047207
  H 2.623559 1.048713 -2.995452
  H 5.045298 0.099159 -0.281202
  H 4.791970 0.289144 -3.326759
  H 6.918041 0.247223 -1.477524
