 17
 0.000000
  C 0.974142 0.116985 0.345736
  C 2.436138 0.107166 0.312686
  H 2.999478 0.447345 1.169008
  C 3.084803 -0.345052 -0.812388
  C 4.472394 -0.397413 -0.939453
  C 5.169463 -0.849933 -2.062253
  C 4.558924 -1.350200 -3.307244
  H 3.478642 -1.355421 -3.324115
  O 6.475801 -0.859197 -2.082475
  H 0.567503 0.480830 1.283314
  H 0.604033 -0.892404 0.152242
  H 0.586647 0.727608 -0.472931
  H 2.450644 -0.673761 -1.623041
  H 5.060397 -0.057509 -0.095403
  H 4.933591 -2.358706 -3.490564
  H 4.936013 -0.750891 -4.137697
  H 6.908649 -0.533243 -1.270371
 17
 2.249042
  C 1.000227 0.110325 0.297165
  C 2.457623 0.132954 0.340595
  H 2.987145 0.450211 1.223794
  C 3.104677 -0.324821 -0.779526
  C 4.488933 -0.380149 -0.931900
  C 5.168883 -0.848195 -2.056471
  C 4.524107 -1.363113 -3.275692
  H 3.444474 -1.345952 -3.225090
  O 6.467207 -0.858071 -2.096522
  H 0.515431 0.336081 1.236942
  H 0.733790 -0.880833 -0.085479
  H 0.636376 0.800749 -0.466324
  H 2.410446 -0.665592 -1.541014
  H 5.083778 -0.023922 -0.099401
  H 4.871114 -2.380136 -3.459645
  H 4.864307 -0.779812 -4.131668
  H 6.914961 -0.521327 -1.297643
 17
 6.545848
  C 1.019212 0.095685 0.247503
  C 2.471392 0.156730 0.377958
  H 2.967964 0.448839 1.292476
  C 3.125902 -0.299625 -0.740915
  C 4.507989 -0.358805 -0.921528
  C 5.158698 -0.845234 -2.049490
  C 4.480748 -1.376388 -3.244464
  H 3.401959 -1.352623 -3.167433
  O 6.463384 -0.860377 -2.120836
  H 0.454800 0.187479 1.167432
  H 0.864744 -0.840364 -0.302567
  H 0.678542 0.872924 -0.446784
  H 2.376858 -0.665971 -1.458581
  H 5.119430 0.008751 -0.107018
  H 4.818359 -2.397799 -3.420362
  H 4.802145 -0.807655 -4.117192
  H 6.932850 -0.511403 -1.334263
 17
 12.202578
  C 1.034954 0.082859 0.205897
  C 2.475731 0.177579 0.401164
  H 2.944567 0.477366 1.331591
  C 3.141612 -0.286466 -0.707518
  C 4.517972 -0.345957 -0.906813
  C 5.151276 -0.846360 -2.043519
  C 4.448864 -1.389625 -3.224208
  H 3.368042 -1.361406 -3.128711
  O 6.454463 -0.864535 -2.137460
  H 0.421137 0.041643 1.097928
  H 0.991092 -0.784425 -0.481773
  H 0.692309 0.928841 -0.395892
  H 2.355140 -0.662495 -1.386240
  H 5.142910 0.030645 -0.106038
  H 4.779936 -2.412990 -3.395019
  H 4.756175 -0.830867 -4.107731
  H 6.936386 -0.510330 -1.365914
 17
 20.187773
  C 1.045337 0.070809 0.177814
  C 2.477154 0.195500 0.412320
  H 2.925559 0.521566 1.344275
  C 3.154142 -0.276501 -0.688694
  C 4.525672 -0.338945 -0.899535
  C 5.144937 -0.850288 -2.040142
  C 4.426944 -1.396636 -3.206833
  H 3.350132 -1.360905 -3.098448
  O 6.446735 -0.874718 -2.150059
  H 0.413835 -0.086208 1.040135
  H 1.097472 -0.726117 -0.616787
  H 0.675635 0.965192 -0.337005
  H 2.319326 -0.665419 -1.335632
  H 5.160351 0.037692 -0.105986
  H 4.748853 -2.421188 -3.373958
  H 4.726825 -0.846847 -4.095811
  H 6.939923 -0.517158 -1.385679
 17
 29.714158
  C 1.052129 0.056095 0.159068
  C 2.474055 0.222431 0.410037
  H 2.900642 0.603140 1.319154
  C 3.164729 -0.273558 -0.673052
  C 4.535178 -0.342868 -0.889109
  C 5.142100 -0.856653 -2.033598
  C 4.408708 -1.392550 -3.194963
  H 3.335669 -1.342806 -3.077274
  O 6.445707 -0.891247 -2.154967
  H 0.429163 -0.194543 0.997993
  H 1.193598 -0.688163 -0.706773
  H 0.633869 0.966241 -0.291074
  H 2.284176 -0.664336 -1.290260
  H 5.177695 0.024670 -0.097011
  H 4.715435 -2.420166 -3.365351
  H 4.708372 -0.846262 -4.084393
  H 6.942511 -0.543930 -1.401166
 17
 40.749411
  C 1.054589 0.045620 0.149654
  C 2.470189 0.249480 0.399332
  H 2.886042 0.691929 1.293987
  C 3.172426 -0.269583 -0.665013
  C 4.543335 -0.349636 -0.881883
  C 5.140844 -0.863371 -2.030569
  C 4.398624 -1.382829 -3.190801
  H 3.327332 -1.317188 -3.070663
  O 6.443591 -0.911126 -2.158532
  H 0.446174 -0.263740 0.992714
  H 1.262936 -0.675916 -0.759830
  H 0.588302 0.943167 -0.271015
  H 2.235725 -0.668610 -1.261649
  H 5.190191 -0.000956 -0.089589
  H 4.689754 -2.417252 -3.365572
  H 4.706152 -0.835688 -4.080215
  H 6.949286 -0.571738 -1.400052
 17
 51.696870
  C 1.051125 0.038733 0.159464
  C 2.467360 0.281773 0.381658
  H 2.873779 0.782753 1.240332
  C 3.179048 -0.259798 -0.663427
  C 4.546928 -0.355232 -0.874894
  C 5.141943 -0.868890 -2.026575
  C 4.393941 -1.367575 -3.197422
  H 3.320342 -1.277950 -3.079905
  O 6.443881 -0.933796 -2.151464
  H 0.472028 -0.298693 1.012618
  H 1.311636 -0.690427 -0.789055
  H 0.542982 0.899491 -0.263231
  H 2.192534 -0.690678 -1.238287
  H 5.196116 -0.033265 -0.070855
  H 4.661992 -2.406506 -3.376605
  H 4.717698 -0.822177 -4.081504
  H 6.950364 -0.607132 -1.388518
 17
 61.305344
  C 1.050206 0.030266 0.167454
  C 2.464228 0.308767 0.363415
  H 2.860344 0.863649 1.199525
  C 3.190247 -0.247591 -0.655005
  C 4.557856 -0.360450 -0.869629
  C 5.142245 -0.871809 -2.021600
  C 4.385538 -1.345953 -3.199405
  H 3.319037 -1.230073 -3.082156
  O 6.444430 -0.957610 -2.148375
  H 0.495223 -0.307997 1.036806
  H 1.338893 -0.727697 -0.798924
  H 0.503177 0.853959 -0.294486
  H 2.148855 -0.727729 -1.223662
  H 5.210511 -0.066438 -0.058696
  H 4.627128 -2.391436 -3.385269
  H 4.723794 -0.802331 -4.078281
  H 6.955700 -0.644072 -1.381056
 17
 69.258844
  C 1.044919 0.025237 0.188529
  C 2.457319 0.348971 0.332091
  H 2.835597 0.984438 1.113230
  C 3.204964 -0.235323 -0.641948
  C 4.567292 -0.371275 -0.860207
  C 5.142161 -0.878317 -2.018327
  C 4.381469 -1.309794 -3.199461
  H 3.310423 -1.156129 -3.083278
  O 6.446049 -0.994936 -2.148374
  H 0.522584 -0.295537 1.084496
  H 1.352213 -0.800190 -0.805376
  H 0.460374 0.782858 -0.325185
  H 2.116649 -0.799907 -1.215320
  H 5.227075 -0.115981 -0.031893
  H 4.586996 -2.360260 -3.396058
  H 4.744408 -0.763542 -4.071784
  H 6.962260 -0.705029 -1.377599
 17
 76.898619
  C 1.039573 0.034372 0.213141
  C 2.447780 0.385537 0.299858
  H 2.802664 1.094929 1.028751
  C 3.230274 -0.217988 -0.614595
  C 4.587100 -0.379356 -0.844856
  C 5.146353 -0.879069 -2.007864
  C 4.369341 -1.271991 -3.209943
  H 3.311031 -1.082836 -3.097079
  O 6.447164 -1.028561 -2.139874
  H 0.547596 -0.253444 1.133995
  H 1.355453 -0.903517 -0.813391
  H 0.422819 0.719356 -0.360524
  H 2.086650 -0.904372 -1.212797
  H 5.246214 -0.165605 -0.015984
  H 4.537213 -2.326897 -3.420594
  H 4.751175 -0.729107 -4.068862
  H 6.968989 -0.764007 -1.361607
 17
 83.167733
  C 1.034016 0.049791 0.228686
  C 2.433484 0.422442 0.249394
  H 2.752868 1.220924 0.903261
  C 3.265296 -0.199594 -0.581746
  C 4.609923 -0.391935 -0.825683
  C 5.148652 -0.882080 -2.001068
  C 4.352860 -1.215383 -3.207105
  H 3.298335 -0.978048 -3.085099
  O 6.446570 -1.078040 -2.144749
  H 0.566770 -0.182261 1.180198
  H 1.361708 -1.047808 -0.809863
  H 0.386460 0.638037 -0.417354
  H 2.070890 -1.056811 -1.200265
  H 5.278356 -0.224398 0.014843
  H 4.471402 -2.270838 -3.437305
  H 4.754062 -0.674076 -4.054953
  H 6.980510 -0.852518 -1.362863
 17
 87.183112
  C 1.027347 0.072282 0.240591
  C 2.416720 0.462830 0.182026
  H 2.695187 1.350009 0.741356
  C 3.304687 -0.174279 -0.551321
  C 4.633540 -0.406078 -0.800883
  C 5.152541 -0.884646 -1.991982
  C 4.332339 -1.152879 -3.204273
  H 3.292715 -0.866036 -3.068033
  O 6.439882 -1.135045 -2.144417
  H 0.593030 -0.091304 1.217916
  H 1.363257 -1.221062 -0.797124
  H 0.347175 0.553417 -0.457779
  H 2.062334 -1.240411 -1.183101
  H 5.302221 -0.299743 0.048663
  H 4.395796 -2.207329 -3.456284
  H 4.753362 -0.612187 -4.049082
  H 6.986254 -0.951619 -1.359226
 17
 88.463890
  C 1.020334 0.100479 0.238287
  C 2.400203 0.493323 0.107114
  H 2.635106 1.459683 0.553426
  C 3.343492 -0.148664 -0.526688
  C 4.652559 -0.424576 -0.775235
  C 5.152537 -0.889910 -1.985251
  C 4.308394 -1.086505 -3.196266
  H 3.286685 -0.748600 -3.039648
  O 6.422610 -1.196923 -2.147905
  H 0.609156 0.028080 1.233728
  H 1.366997 -1.418227 -0.765247
  H 0.318732 0.468011 -0.502744
  H 2.064198 -1.451205 -1.148254
  H 5.319872 -0.380094 0.082382
  H 4.313460 -2.141676 -3.476040
  H 4.746900 -0.548801 -4.032409
  H 6.983289 -1.058153 -1.363558
