 17
 0.000000
  H 1.411111 0.104163 0.311752
  C 2.490750 0.112905 0.333219
  C 3.173909 0.596985 1.535251
  H 2.489502 0.910817 2.315195
  C 3.137278 -0.342302 -0.797910
  C 4.523678 -0.402948 -0.949550
  C 5.193291 -0.859025 -2.088239
  C 4.557342 -1.353101 -3.322754
  H 3.476758 -1.351743 -3.320911
  O 6.497990 -0.876649 -2.132947
  H 3.828282 1.434141 1.282251
  H 3.828724 -0.181616 1.932754
  H 2.513898 -0.671112 -1.614949
  H 5.137080 -0.070959 -0.122274
  H 4.922451 -2.363546 -3.514863
  H 4.923445 -0.754903 -4.159019
  H 6.949127 -0.554640 -1.328624
 17
 4.806769
  H 1.435937 0.080566 0.251686
  C 2.515667 0.099403 0.298858
  C 3.107712 0.603806 1.552674
  H 2.352606 0.893989 2.274599
  C 3.225456 -0.335844 -0.783012
  C 4.598422 -0.405963 -0.957358
  C 5.243911 -0.871332 -2.118818
  C 4.543358 -1.355261 -3.327319
  H 3.466440 -1.317486 -3.235132
  O 6.559321 -0.903027 -2.198529
  H 3.754162 1.458658 1.352281
  H 3.754443 -0.151761 1.999576
  H 2.463069 -0.609101 -1.463172
  H 5.218815 -0.076426 -0.134633
  H 4.863828 -2.375686 -3.541932
  H 4.865053 -0.766026 -4.187185
  H 7.041358 -0.585563 -1.408641
 17
 15.285724
  H 1.464548 0.064350 0.203402
  C 2.532692 0.093417 0.281007
  C 3.052585 0.601542 1.548264
  H 2.259491 0.879690 2.237651
  C 3.290865 -0.330735 -0.771234
  C 4.658872 -0.409934 -0.963456
  C 5.270423 -0.877417 -2.132737
  C 4.529489 -1.350859 -3.313343
  H 3.459456 -1.297912 -3.178220
  O 6.566967 -0.920140 -2.244722
  H 3.700364 1.472196 1.374124
  H 3.697735 -0.149427 2.025242
  H 2.431066 -0.550843 -1.324476
  H 5.290727 -0.085570 -0.149411
  H 4.827959 -2.374395 -3.537869
  H 4.826395 -0.764188 -4.182328
  H 7.072504 -0.603128 -1.464292
 17
 28.881855
  H 1.459554 0.052889 0.170978
  C 2.530533 0.086145 0.260925
  C 3.013404 0.607218 1.562162
  H 2.205826 0.876618 2.228580
  C 3.335328 -0.331281 -0.772604
  C 4.698560 -0.413526 -0.969389
  C 5.288783 -0.882942 -2.146492
  C 4.519630 -1.349278 -3.308175
  H 3.452500 -1.286796 -3.143815
  O 6.582205 -0.933835 -2.282287
  H 3.648599 1.469120 1.410092
  H 3.644925 -0.123459 2.049025
  H 2.399609 -0.505607 -1.215872
  H 5.344391 -0.091986 -0.158154
  H 4.804589 -2.375161 -3.539898
  H 4.799936 -0.763873 -4.183194
  H 7.105183 -0.618316 -1.506837
 17
 43.210842
  H 1.450347 0.051079 0.171461
  C 2.521743 0.082927 0.253832
  C 2.978339 0.610130 1.567381
  H 2.153344 0.875739 2.226500
  C 3.359705 -0.333002 -0.775331
  C 4.721946 -0.414148 -0.970226
  C 5.301851 -0.885492 -2.152743
  C 4.515019 -1.348868 -3.308943
  H 3.450363 -1.279073 -3.127431
  O 6.595559 -0.941490 -2.299617
  H 3.614965 1.481991 1.423229
  H 3.613336 -0.121028 2.066131
  H 2.371047 -0.466201 -1.115132
  H 5.374648 -0.096799 -0.168205
  H 4.790996 -2.377271 -3.544903
  H 4.787366 -0.764175 -4.188291
  H 7.116172 -0.633283 -1.540326
 17
 56.483396
  H 1.419928 0.045766 0.185476
  C 2.503900 0.079313 0.250054
  C 2.965745 0.613180 1.560362
  H 2.147439 0.875612 2.219180
  C 3.361079 -0.342488 -0.783966
  C 4.721732 -0.419104 -0.969111
  C 5.302218 -0.886546 -2.152877
  C 4.513243 -1.343793 -3.307592
  H 3.448625 -1.271495 -3.121436
  O 6.595997 -0.944103 -2.300813
  H 3.600044 1.489937 1.411395
  H 3.607706 -0.116606 2.058242
  H 2.326787 -0.440020 -1.031722
  H 5.382628 -0.103682 -0.159017
  H 4.785611 -2.370852 -3.547048
  H 4.784246 -0.756870 -4.184270
  H 7.118950 -0.637583 -1.536198
 17
 67.000352
  H 1.402514 -0.027336 0.236669
  C 2.482825 0.060618 0.249556
  C 2.966172 0.661934 1.536197
  H 2.155040 0.913138 2.212597
  C 3.342934 -0.401577 -0.774780
  C 4.705516 -0.468007 -0.948645
  C 5.296289 -0.891577 -2.144279
  C 4.515503 -1.308303 -3.320053
  H 3.451897 -1.237621 -3.138065
  O 6.591681 -0.949314 -2.284703
  H 3.566477 1.558650 1.361406
  H 3.643151 -0.043577 2.022373
  H 2.282574 -0.474277 -0.940614
  H 5.359494 -0.198288 -0.122861
  H 4.783638 -2.327603 -3.592591
  H 4.796154 -0.692173 -4.172805
  H 7.108081 -0.669177 -1.505856
 17
 71.494382
  H 1.391173 -0.150757 0.309458
  C 2.463267 0.019823 0.242164
  C 2.966599 0.743982 1.483701
  H 2.158377 0.970164 2.159633
  C 3.349604 -0.479653 -0.698379
  C 4.707869 -0.547813 -0.908893
  C 5.290678 -0.895304 -2.119826
  C 4.505771 -1.237733 -3.328069
  H 3.434594 -1.165768 -3.147230
  O 6.588867 -0.967068 -2.272307
  H 3.493049 1.673743 1.262345
  H 3.687017 0.078322 1.965146
  H 2.254219 -0.565849 -0.851500
  H 5.355890 -0.358774 -0.060093
  H 4.760085 -2.247456 -3.658664
  H 4.798654 -0.570975 -4.141865
  H 7.109494 -0.743776 -1.476474
 17
 73.921514
  H 1.393212 -0.243490 0.369654
  C 2.457076 -0.013146 0.242121
  C 2.938075 0.802585 1.448545
  H 2.117388 1.016400 2.117795
  C 3.383506 -0.530675 -0.628769
  C 4.734188 -0.606777 -0.879987
  C 5.293181 -0.900391 -2.107307
  C 4.485691 -1.171154 -3.330929
  H 3.425519 -1.087510 -3.140148
  O 6.590520 -0.997050 -2.278662
  H 3.403606 1.750277 1.164251
  H 3.685912 0.205170 1.954106
  H 2.259549 -0.636367 -0.782460
  H 5.390892 -0.480196 -0.022951
  H 4.715500 -2.163214 -3.703877
  H 4.779899 -0.476556 -4.114577
  H 7.119833 -0.840458 -1.474567
 17
 76.100558
  H 1.400417 -0.339414 0.423561
  C 2.448388 -0.043541 0.249650
  C 2.904312 0.861510 1.399649
  H 2.080657 1.066078 2.076131
  C 3.411141 -0.582301 -0.568327
  C 4.751494 -0.662839 -0.846879
  C 5.289730 -0.901023 -2.095263
  C 4.467352 -1.093654 -3.319909
  H 3.412740 -0.996912 -3.114661
  O 6.584144 -1.027115 -2.286007
  H 3.300722 1.804805 1.049132
  H 3.702295 0.340146 1.929577
  H 2.270748 -0.704699 -0.713058
  H 5.425538 -0.589856 0.004581
  H 4.675505 -2.078750 -3.744394
  H 4.766434 -0.368911 -4.071669
  H 7.120800 -0.957860 -1.475680
 17
 77.577850
  H 1.406165 -0.398455 0.483594
  C 2.427592 -0.070709 0.253231
  C 2.895565 0.909561 1.340580
  H 2.092563 1.116779 2.040277
  C 3.405296 -0.645498 -0.528912
  C 4.741965 -0.732603 -0.814555
  C 5.278748 -0.918252 -2.072693
  C 4.457072 -1.026727 -3.304020
  H 3.398335 -0.925696 -3.092880
  O 6.576289 -1.038253 -2.271702
  H 3.237119 1.852036 0.925623
  H 3.732839 0.451991 1.860527
  H 2.241813 -0.757246 -0.656827
  H 5.418562 -0.714835 0.042291
  H 4.651780 -1.987334 -3.783272
  H 4.765313 -0.266969 -4.009981
  H 7.110989 -0.996660 -1.462538
 17
 78.420564
  H 1.414822 -0.472147 0.570820
  C 2.399122 -0.099534 0.261914
  C 2.892443 0.959007 1.259769
  H 2.130436 1.167922 2.001845
  C 3.394144 -0.706218 -0.485939
  C 4.724339 -0.798981 -0.779389
  C 5.264682 -0.932334 -2.043925
  C 4.448115 -0.946276 -3.282342
  H 3.392966 -0.837111 -3.069686
  O 6.564658 -1.056493 -2.245754
  H 3.152810 1.893084 0.771463
  H 3.786690 0.577707 1.744785
  H 2.204940 -0.805292 -0.603821
  H 5.396055 -0.833385 0.081216
  H 4.624379 -1.878957 -3.819123
  H 4.777999 -0.142065 -3.946886
  H 7.095509 -1.062057 -1.433548
 17
 78.733592
  H 1.430900 -0.537549 0.643536
  C 2.372642 -0.115558 0.270299
  C 2.877621 1.006743 1.190321
  H 2.159788 1.201185 1.976585
  C 3.399856 -0.726555 -0.437021
  C 4.717494 -0.845598 -0.750950
  C 5.254892 -0.943521 -2.022058
  C 4.440479 -0.867041 -3.261135
  H 3.392356 -0.732047 -3.044441
  O 6.554139 -1.094491 -2.230162
  H 3.041031 1.942416 0.646656
  H 3.820399 0.704623 1.619551
  H 2.189957 -0.809345 -0.580617
  H 5.384889 -0.936978 0.106375
  H 4.586156 -1.787792 -3.851436
  H 4.796533 -0.044322 -3.882036
  H 7.082480 -1.144342 -1.416412
 17
 76.759025
  H 1.470896 -0.607830 0.711919
  C 2.351188 -0.120333 0.279578
  C 2.844897 1.065395 1.122439
  H 2.176751 1.226636 1.960947
  C 3.426712 -0.714728 -0.380906
  C 4.722009 -0.888209 -0.727602
  C 5.247988 -0.968871 -2.006537
  C 4.435466 -0.794148 -3.240953
  H 3.387179 -0.612472 -3.016247
  O 6.543475 -1.160408 -2.227312
  H 2.877818 1.988893 0.548405
  H 3.845208 0.857310 1.481841
  H 2.188883 -0.757478 -0.598681
  H 5.385734 -1.041549 0.121126
  H 4.529759 -1.680830 -3.861932
  H 4.834140 0.036960 -3.828395
  H 7.073439 -1.236658 -1.417391
