 19
 0.000000
  C -0.601235 2.323929 -1.322579
  C -1.377917 1.042718 -1.299410
  C -1.119522 0.214661 -0.064685
  C -2.955880 1.127444 -1.400941
  C -3.517458 2.499398 -1.322012
  O -3.589489 0.129543 -1.502495
  H 0.459796 2.060844 -1.321457
  H -0.756753 2.927845 -0.431190
  H -0.783456 2.907413 -2.220429
  H -1.148664 0.467854 -2.207097
  H -1.390441 0.730081 0.856051
  H -0.039226 0.039621 -0.011517
  H -1.640163 -0.738902 -0.097637
  H -2.780662 3.288713 -1.286887
  H -4.146372 2.525996 -0.429045
  H -4.174222 2.623449 -2.185421
  O 2.223826 0.039843 -0.015780
  H 2.764300 -0.427873 -0.658696
  H 2.805621 0.290942 0.706631
 19
 0.032285
  C -0.561804 2.325088 -1.322811
  C -1.319752 1.037552 -1.292352
  C -1.051129 0.217512 -0.063089
  C -2.921389 1.112861 -1.391689
  C -3.493651 2.474361 -1.303409
  O -3.538367 0.103022 -1.500349
  H 0.499880 2.070021 -1.334625
  H -0.715891 2.927987 -0.432013
  H -0.756309 2.902287 -2.221788
  H -1.096676 0.467546 -2.202504
  H -1.309768 0.742258 0.852679
  H 0.044553 0.061330 -0.022043
  H -1.558172 -0.739832 -0.091652
  H -2.764992 3.273299 -1.263558
  H -4.121189 2.490937 -0.410554
  H -4.152958 2.600208 -2.162601
  O 1.975284 0.076397 -0.043187
  H 2.512410 -0.400094 -0.686545
  H 2.556602 0.332844 0.681660
 19
 0.002328
  C -0.540060 2.373242 -1.355429
  C -1.273696 1.036399 -1.290852
  C -0.996540 0.250620 -0.045626
  C -2.870243 1.088846 -1.376627
  C -3.468531 2.432800 -1.286171
  O -3.477251 0.071524 -1.497543
  H 0.525311 2.154048 -1.388953
  H -0.700020 2.982572 -0.471188
  H -0.776762 2.935871 -2.256419
  H -1.055242 0.448009 -2.197026
  H -1.231186 0.807057 0.863317
  H 0.129401 0.088728 -0.009707
  H -1.499546 -0.720711 -0.032015
  H -2.759497 3.241534 -1.245059
  H -4.096742 2.437294 -0.392009
  H -4.133508 2.549311 -2.144040
  O 1.785644 0.065187 -0.062871
  H 2.296196 -0.479703 -0.687145
  H 2.370030 0.318882 0.668778
 19
 2.333321
  C -0.539796 2.338898 -1.416878
  C -1.251414 1.014838 -1.290479
  C -0.945999 0.285970 -0.028256
  C -2.847488 1.074218 -1.339942
  C -3.468000 2.440185 -1.273855
  O -3.451499 0.048327 -1.423329
  H 0.535397 2.133635 -1.473051
  H -0.697263 2.975566 -0.554144
  H -0.813737 2.862577 -2.325905
  H -1.055873 0.394471 -2.171385
  H -1.137939 0.878021 0.871579
  H 0.233844 0.113987 -0.016655
  H -1.422849 -0.679301 0.035178
  H -2.764362 3.257489 -1.271382
  H -4.078813 2.469898 -0.371376
  H -4.152071 2.533123 -2.119757
  O 1.677028 0.097606 -0.061312
  H 2.170440 -0.504601 -0.654426
  H 2.235665 0.359641 0.683548
 19
 5.239638
  C -0.539510 2.335574 -1.481985
  C -1.239785 1.009212 -1.288610
  C -0.916235 0.349482 0.006499
  C -2.845626 1.069581 -1.303971
  C -3.469482 2.411258 -1.268500
  O -3.456649 0.039680 -1.359621
  H 0.527788 2.143085 -1.575318
  H -0.680952 3.000020 -0.629300
  H -0.858494 2.832452 -2.398919
  H -1.052734 0.347937 -2.142153
  H -1.048018 0.991452 0.869223
  H 0.337650 0.142826 0.007729
  H -1.391334 -0.620602 0.144105
  H -2.771327 3.232678 -1.304766
  H -4.062393 2.467507 -0.360453
  H -4.164100 2.471567 -2.099442
  O 1.618346 0.099774 -0.077844
  H 2.058625 -0.587094 -0.616810
  H 2.179609 0.374629 0.665236
 19
 7.675109
  C -0.538435 2.341257 -1.517072
  C -1.248386 1.010983 -1.299848
  C -0.929059 0.377633 -0.004008
  C -2.810510 1.067665 -1.310290
  C -3.463220 2.402228 -1.239833
  O -3.429011 0.034682 -1.382585
  H 0.527658 2.154241 -1.609658
  H -0.684286 3.018720 -0.681427
  H -0.860343 2.817964 -2.439297
  H -1.055020 0.335840 -2.141544
  H -1.047559 1.030896 0.847525
  H 0.446597 0.161708 0.013411
  H -1.369989 -0.597102 0.147231
  H -2.776155 3.235615 -1.259487
  H -4.058852 2.434615 -0.328905
  H -4.162511 2.474609 -2.069822
  O 1.589435 0.103591 -0.083971
  H 1.978559 -0.632466 -0.581572
  H 2.124779 0.353811 0.698137
 19
 8.613655
  C -0.547837 2.345705 -1.526506
  C -1.256536 1.016079 -1.325133
  C -0.952912 0.382034 -0.017334
  C -2.810352 1.074072 -1.341824
  C -3.471019 2.407856 -1.221500
  O -3.438168 0.044475 -1.446335
  H 0.518656 2.166081 -1.613481
  H -0.706511 3.019093 -0.687720
  H -0.871578 2.827347 -2.446123
  H -1.040375 0.344809 -2.166326
  H -1.059947 1.029672 0.836909
  H 0.567328 0.155668 0.014572
  H -1.362173 -0.607967 0.133938
  H -2.785046 3.241956 -1.210421
  H -4.066007 2.408601 -0.312964
  H -4.166902 2.508976 -2.046421
  O 1.615099 0.104994 -0.070663
  H 1.971039 -0.660791 -0.542529
  H 2.102055 0.329940 0.731310
 19
 9.692603
  C -0.550650 2.350314 -1.539941
  C -1.277231 1.019580 -1.352799
  C -1.015740 0.386221 -0.042997
  C -2.826749 1.082416 -1.372309
  C -3.489240 2.415049 -1.193343
  O -3.456689 0.055940 -1.507069
  H 0.515479 2.164168 -1.608493
  H -0.718863 3.022459 -0.707691
  H -0.855256 2.835037 -2.462313
  H -1.044777 0.346496 -2.187257
  H -1.126899 1.037595 0.811107
  H 0.698434 0.132342 0.025872
  H -1.400565 -0.606187 0.096057
  H -2.800821 3.248489 -1.152100
  H -4.085356 2.381412 -0.280342
  H -4.188958 2.550190 -2.016468
  O 1.689536 0.103150 -0.051117
  H 2.029294 -0.693106 -0.508184
  H 2.155372 0.311049 0.802885
 19
 11.910050
  C -0.563232 2.350202 -1.543425
  C -1.297307 1.027921 -1.369947
  C -1.083367 0.395992 -0.055361
  C -2.861015 1.103509 -1.407771
  C -3.515380 2.425668 -1.177649
  O -3.497817 0.086490 -1.581735
  H 0.502953 2.159990 -1.597338
  H -0.742088 3.019741 -0.713494
  H -0.855011 2.838609 -2.467600
  H -1.061035 0.351536 -2.205878
  H -1.185098 1.043699 0.805568
  H 0.857915 0.091733 0.056849
  H -1.460233 -0.600501 0.079753
  H -2.828878 3.241698 -1.099108
  H -4.119089 2.361830 -0.273110
  H -4.203271 2.598026 -1.999907
  O 1.804801 0.088069 -0.023691
  H 2.135552 -0.720139 -0.461851
  H 2.245831 0.272683 0.833883
 19
 16.017088
  C -0.586237 2.349945 -1.540072
  C -1.311132 1.029171 -1.384560
  C -1.133364 0.404074 -0.064952
  C -2.917611 1.125286 -1.438857
  C -3.556432 2.442343 -1.172862
  O -3.557979 0.124527 -1.657525
  H 0.481884 2.169832 -1.586267
  H -0.782983 3.006210 -0.704492
  H -0.874790 2.847348 -2.457526
  H -1.075343 0.353743 -2.221930
  H -1.209460 1.046301 0.806161
  H 1.030606 0.031675 0.094906
  H -1.514880 -0.593875 0.073956
  H -2.854371 3.252379 -1.054782
  H -4.179700 2.358548 -0.276851
  H -4.230032 2.648077 -2.006860
  O 1.940072 0.044373 0.013396
  H 2.273856 -0.764321 -0.413337
  H 2.375939 0.234285 0.874135
 19
 15.044582
  C -0.653752 2.381687 -1.580458
  C -1.394685 1.063261 -1.436880
  C -1.311745 0.442441 -0.112867
  C -2.961196 1.162540 -1.492534
  C -3.599893 2.460773 -1.139003
  O -3.606930 0.162479 -1.751483
  H 0.418619 2.187919 -1.628996
  H -0.837647 3.029203 -0.737207
  H -0.936015 2.887257 -2.491155
  H -1.167872 0.386216 -2.262282
  H -1.331244 1.078752 0.752538
  H 1.324051 -0.178255 0.233262
  H -1.701613 -0.547225 0.017146
  H -2.899198 3.266936 -0.995501
  H -4.200143 2.328640 -0.244861
  H -4.288947 2.709481 -1.948133
  O 2.241976 -0.065875 0.131825
  H 2.635895 -0.863583 -0.281036
  H 2.665628 0.173469 0.977565
 19
 17.886053
  C -0.665755 2.371735 -1.569302
  C -1.425425 1.067746 -1.440012
  C -1.367058 0.446207 -0.117138
  C -3.020519 1.188309 -1.533993
  C -3.642099 2.476965 -1.122182
  O -3.664244 0.204062 -1.826253
  H 0.402366 2.158999 -1.591265
  H -0.860428 3.030145 -0.727464
  H -0.917281 2.878342 -2.496701
  H -1.176271 0.370183 -2.249142
  H -1.386505 1.083829 0.754508
  H 1.507172 -0.244483 0.272170
  H -1.767996 -0.543083 -0.004766
  H -2.927009 3.258304 -0.934265
  H -4.254643 2.309386 -0.240836
  H -4.318409 2.782887 -1.924160
  O 2.386764 -0.104882 0.168178
  H 2.805568 -0.894081 -0.216475
  H 2.805752 0.149953 1.009260
 19
 13.427132
  C -0.705599 2.333167 -1.605632
  C -1.534928 1.063943 -1.473443
  C -1.588341 0.441920 -0.155307
  C -3.088953 1.243470 -1.559417
  C -3.681189 2.524556 -1.068194
  O -3.774929 0.312984 -1.966650
  H 0.350732 2.065025 -1.647874
  H -0.850174 2.995839 -0.756621
  H -0.954177 2.860872 -2.517861
  H -1.311623 0.369567 -2.286563
  H -1.607925 1.070764 0.719326
  H 1.855510 -0.484855 0.439535
  H -1.997232 -0.547367 -0.053905
  H -2.937270 3.260329 -0.779791
  H -4.345795 2.315305 -0.226230
  H -4.297059 2.921623 -1.862744
  O 2.738202 -0.179450 0.299900
  H 3.283705 -0.876137 -0.126354
  H 3.144274 0.185987 1.115807
