 23
 0.000000
  H 1.417649 0.055924 0.116978
  C 2.492207 0.052971 0.030228
  C 3.255171 -0.012707 1.324975
  C 2.361650 -0.067229 2.558080
  H 2.963332 -0.115463 3.461626
  C 3.087610 0.118959 -1.163385
  C 2.388530 0.218052 -2.494272
  C 0.864824 0.196245 -2.457211
  H 0.469308 0.273678 -3.466434
  C 4.544203 0.126581 -1.260748
  C 5.269647 0.196948 -2.378230
  O 6.626653 0.200881 -2.414546
  H 3.914285 0.863329 1.399320
  H 3.895457 -0.901261 1.321137
  H 1.718617 -0.944758 2.525115
  H 1.729342 0.817165 2.612148
  H 2.732166 -0.608657 -3.122898
  H 2.710535 1.144147 -2.979700
  H 0.479426 1.030907 -1.875786
  H 0.501612 -0.730801 -2.019065
  H 5.095536 0.069176 -0.331254
  H 4.871609 0.259035 -3.378118
  H 6.975606 0.145225 -1.515223
 23
 -0.488521
  H 1.474307 -0.156285 0.068431
  C 2.549542 -0.100758 0.010110
  C 3.258011 -0.167153 1.333450
  C 2.305434 0.092874 2.495215
  H 2.837322 0.048395 3.443324
  C 3.145228 0.067922 -1.172882
  C 2.394974 0.235768 -2.472138
  C 0.876930 0.145761 -2.371931
  H 0.435560 0.291335 -3.355738
  C 4.595307 0.094726 -1.285159
  C 5.293826 0.335585 -2.388667
  O 6.649633 0.333583 -2.462181
  H 4.055686 0.581592 1.346550
  H 3.719786 -1.152125 1.463200
  H 1.511367 -0.650769 2.512846
  H 1.852516 1.077516 2.401310
  H 2.747195 -0.525151 -3.174100
  H 2.660404 1.211488 -2.888768
  H 0.485353 0.912444 -1.707631
  H 0.569776 -0.829995 -2.002746
  H 5.153510 -0.124726 -0.384049
  H 4.863540 0.562786 -3.351062
  H 7.022406 0.128497 -1.594788
 23
 0.311027
  H 1.475419 -0.405326 0.052339
  C 2.544662 -0.269588 0.009493
  C 3.240476 -0.305931 1.338948
  C 2.334730 0.237379 2.441180
  H 2.852998 0.233583 3.397781
  C 3.139700 0.008261 -1.154406
  C 2.389269 0.233274 -2.446372
  C 0.872466 0.115293 -2.355579
  H 0.429158 0.333967 -3.324823
  C 4.591593 0.060460 -1.272428
  C 5.282350 0.470725 -2.336371
  O 6.636252 0.464142 -2.430290
  H 4.130788 0.322373 1.269047
  H 3.542172 -1.326833 1.593086
  H 1.437327 -0.370673 2.535625
  H 2.036142 1.258458 2.214689
  H 2.755899 -0.478052 -3.191717
  H 2.638379 1.236682 -2.802207
  H 0.471771 0.820333 -1.631227
  H 0.577433 -0.891033 -2.067515
  H 5.158569 -0.308983 -0.426810
  H 4.842195 0.857196 -3.241716
  H 7.017671 0.115145 -1.614119
 23
 1.154299
  H 1.476165 -0.662975 0.015978
  C 2.530216 -0.430027 -0.000036
  C 3.205142 -0.460727 1.338468
  C 2.415759 0.391103 2.334534
  H 2.922269 0.418308 3.297202
  C 3.121973 -0.062069 -1.138040
  C 2.376810 0.226880 -2.419630
  C 0.862101 0.074744 -2.345573
  H 0.416695 0.374329 -3.291871
  C 4.574265 0.031382 -1.254876
  C 5.251883 0.607524 -2.248763
  O 6.604469 0.614643 -2.362728
  H 4.197990 -0.026937 1.226524
  H 3.279389 -1.480567 1.723744
  H 1.417668 -0.016377 2.482629
  H 2.319980 1.409578 1.964710
  H 2.763437 -0.424720 -3.208206
  H 2.606932 1.256536 -2.705646
  H 0.448881 0.702793 -1.560076
  H 0.583373 -0.958465 -2.152293
  H 5.154456 -0.466010 -0.486462
  H 4.800221 1.135877 -3.073305
  H 6.997136 0.137400 -1.619695
 23
 7.670516
  H 1.596815 -1.100994 -0.060878
  C 2.559755 -0.617884 -0.017610
  C 3.220295 -0.497240 1.324755
  C 2.367133 0.427027 2.204017
  H 2.882601 0.634783 3.139355
  C 3.131789 -0.073931 -1.100135
  C 2.376366 0.280848 -2.361654
  C 0.860445 0.165111 -2.251052
  H 0.392560 0.541262 -3.158329
  C 4.581590 -0.006273 -1.235988
  C 5.259380 0.627796 -2.193609
  O 6.604435 0.565057 -2.360453
  H 4.134620 0.057363 1.107848
  H 3.370310 -1.446406 1.835749
  H 1.408103 -0.032090 2.437015
  H 2.181925 1.367270 1.690766
  H 2.724618 -0.341088 -3.191375
  H 2.629780 1.316303 -2.601551
  H 0.493459 0.744250 -1.406952
  H 0.556697 -0.870438 -2.119354
  H 5.156939 -0.580585 -0.518871
  H 4.810533 1.239695 -2.959308
  H 6.991451 0.003173 -1.676615
 23
 19.430481
  H 1.739427 -1.381742 -0.140479
  C 2.595121 -0.734777 -0.041107
  C 3.219112 -0.495659 1.305117
  C 2.308956 0.436484 2.125882
  H 2.836182 0.770636 3.016433
  C 3.141392 -0.059013 -1.065625
  C 2.380471 0.355409 -2.304379
  C 0.866674 0.235105 -2.169263
  H 0.377907 0.658532 -3.044185
  C 4.589385 -0.045853 -1.228981
  C 5.279160 0.594889 -2.183291
  O 6.615699 0.464928 -2.389048
  H 4.013092 0.197655 1.002484
  H 3.464306 -1.381922 1.880980
  H 1.399056 -0.073353 2.442873
  H 2.024604 1.302435 1.534802
  H 2.710913 -0.229299 -3.168058
  H 2.637217 1.399325 -2.499305
  H 0.519015 0.766489 -1.286205
  H 0.565433 -0.805834 -2.084103
  H 5.151316 -0.655306 -0.529704
  H 4.843663 1.255680 -2.915599
  H 6.984747 -0.153377 -1.744457
 23
 41.265216
  H 1.878755 -1.662176 -0.247751
  C 2.607424 -0.888286 -0.076352
  C 3.166422 -0.523684 1.271201
  C 2.299291 0.488862 2.052294
  H 2.888279 0.921907 2.855775
  C 3.152205 -0.082149 -1.027522
  C 2.389311 0.419698 -2.239907
  C 0.876321 0.290365 -2.099483
  H 0.378343 0.762180 -2.943865
  C 4.593908 -0.109337 -1.220480
  C 5.284153 0.551837 -2.161401
  O 6.620997 0.419270 -2.370772
  H 3.812493 0.263625 0.796418
  H 3.469372 -1.339692 1.916253
  H 1.428703 0.004269 2.500072
  H 1.941649 1.281201 1.400762
  H 2.712429 -0.111546 -3.141126
  H 2.648323 1.472392 -2.372080
  H 0.535031 0.769037 -1.184227
  H 0.577882 -0.753899 -2.070401
  H 5.145576 -0.761679 -0.552286
  H 4.851875 1.236262 -2.872786
  H 6.987518 -0.206389 -1.732772
 23
 68.020423
  H 1.998738 -1.841329 -0.332400
  C 2.628599 -0.998109 -0.100499
  C 3.079612 -0.564204 1.234049
  C 2.294738 0.538716 1.975578
  H 2.932565 1.011794 2.716533
  C 3.170684 -0.089254 -0.988187
  C 2.396936 0.462879 -2.176353
  C 0.887090 0.305911 -2.030826
  H 0.375877 0.803506 -2.852204
  C 4.614074 -0.137671 -1.205759
  C 5.295381 0.532136 -2.139686
  O 6.630086 0.391186 -2.368965
  H 3.657064 0.319179 0.595711
  H 3.386190 -1.337204 1.935702
  H 1.439835 0.104378 2.502753
  H 1.916003 1.297122 1.295077
  H 2.724123 -0.029098 -3.098314
  H 2.640535 1.523477 -2.270651
  H 0.544833 0.743066 -1.095208
  H 0.604133 -0.742854 -2.040583
  H 5.161723 -0.811574 -0.555998
  H 4.860416 1.233518 -2.831822
  H 6.997387 -0.249532 -1.746939
 23
 83.224371
  H 2.097794 -1.938604 -0.348689
  C 2.650977 -1.053316 -0.077481
  C 2.979512 -0.610063 1.217367
  C 2.256513 0.547523 1.900326
  H 2.899894 1.032411 2.632259
  C 3.206796 -0.071710 -0.960138
  C 2.400772 0.483649 -2.125733
  C 0.895970 0.323411 -1.937069
  H 0.360958 0.816933 -2.745624
  C 4.666082 -0.141127 -1.210276
  C 5.328217 0.508204 -2.164241
  O 6.667368 0.381841 -2.401322
  H 3.604003 0.416174 0.353185
  H 3.231600 -1.364249 1.973432
  H 1.389902 0.149014 2.433980
  H 1.904856 1.296685 1.193996
  H 2.708212 -0.012458 -3.051171
  H 2.635918 1.545770 -2.233565
  H 0.578038 0.763131 -0.994173
  H 0.615366 -0.726034 -1.935147
  H 5.220016 -0.805886 -0.555273
  H 4.880118 1.197135 -2.860467
  H 7.047085 -0.243691 -1.770548
 23
 66.213951
  H 2.262023 -2.003915 -0.363332
  C 2.697909 -1.069909 -0.042395
  C 2.879613 -0.657524 1.234913
  C 2.186925 0.522179 1.870881
  H 2.817257 1.019015 2.611274
  C 3.263050 -0.007438 -0.933284
  C 2.410516 0.519976 -2.077786
  C 0.915162 0.337533 -1.840980
  H 0.348683 0.809063 -2.641331
  C 4.738348 -0.124702 -1.224429
  C 5.381787 0.470180 -2.219782
  O 6.719249 0.329358 -2.481415
  H 3.547139 0.535288 0.102381
  H 3.070935 -1.405974 2.016184
  H 1.308186 0.135635 2.388306
  H 1.865936 1.265275 1.141785
  H 2.699780 0.008501 -2.999146
  H 2.621098 1.584018 -2.217817
  H 0.615598 0.788971 -0.897302
  H 0.652237 -0.716778 -1.812588
  H 5.294303 -0.768636 -0.549699
  H 4.920302 1.131448 -2.934731
  H 7.110401 -0.266061 -1.833783
 23
 43.309059
  H 2.376847 -1.958647 -0.403154
  C 2.802905 -1.050796 -0.017256
  C 2.818118 -0.707207 1.263175
  C 2.147301 0.487674 1.876583
  H 2.733522 0.934726 2.681557
  C 3.294602 0.075191 -0.903528
  C 2.424195 0.545117 -2.059753
  C 0.934353 0.351589 -1.797144
  H 0.351498 0.767156 -2.616301
  C 4.761301 -0.080253 -1.233459
  C 5.365714 0.418008 -2.276730
  O 6.688588 0.267231 -2.557201
  H 3.486445 0.746627 -0.023810
  H 2.922338 -1.469243 2.039737
  H 1.218180 0.119193 2.308890
  H 1.912639 1.264899 1.153100
  H 2.710911 -0.000582 -2.961706
  H 2.615388 1.605381 -2.242605
  H 0.636887 0.848805 -0.877385
  H 0.689847 -0.703413 -1.707914
  H 5.330511 -0.665518 -0.521390
  H 4.881354 1.014433 -3.030936
  H 7.102372 -0.270021 -1.870486
 23
 24.552669
  H 2.602264 -1.942589 -0.462063
  C 2.840513 -0.987775 -0.020628
  C 2.731755 -0.739247 1.282032
  C 2.140737 0.478409 1.929942
  H 2.733251 0.831651 2.775637
  C 3.297156 0.160977 -0.890796
  C 2.419309 0.551919 -2.073733
  C 0.934604 0.343196 -1.793470
  H 0.339394 0.707958 -2.627905
  C 4.755872 -0.044909 -1.237478
  C 5.367379 0.392736 -2.326557
  O 6.687873 0.213873 -2.609391
  H 3.415831 0.928535 -0.099404
  H 2.770694 -1.547516 2.012517
  H 1.167591 0.173914 2.313157
  H 1.996454 1.307178 1.241743
  H 2.713202 -0.039467 -2.943312
  H 2.589039 1.603625 -2.314033
  H 0.633837 0.879837 -0.896672
  H 0.710556 -0.710598 -1.650263
  H 5.322615 -0.603383 -0.500631
  H 4.884557 0.959848 -3.106084
  H 7.102487 -0.292902 -1.900022
 23
 11.982294
  H 2.772820 -1.876596 -0.522588
  C 2.860362 -0.917074 -0.033125
  C 2.607817 -0.781144 1.259274
  C 2.173988 0.457027 1.984824
  H 2.782234 0.636131 2.872107
  C 3.295535 0.249475 -0.883794
  C 2.413296 0.529725 -2.100808
  C 0.931610 0.329686 -1.798644
  H 0.329951 0.612588 -2.659783
  C 4.751023 0.030133 -1.223683
  C 5.353941 0.377566 -2.349778
  O 6.673997 0.190215 -2.622850
  H 3.315926 1.098020 -0.182222
  H 2.539003 -1.639178 1.921374
  H 1.149706 0.289335 2.318012
  H 2.187997 1.351396 1.369356
  H 2.711616 -0.128531 -2.918932
  H 2.570217 1.560464 -2.425094
  H 0.628627 0.941595 -0.951879
  H 0.720445 -0.709230 -1.559515
  H 5.329650 -0.448578 -0.441179
  H 4.860059 0.865290 -3.175028
  H 7.098506 -0.247793 -1.874447
 23
 6.280321
  H 3.002704 -1.843715 -0.528091
  C 2.912674 -0.884234 -0.035498
  C 2.492996 -0.826094 1.217067
  C 2.133508 0.395637 2.004725
  H 2.715421 0.441967 2.925418
  C 3.321152 0.299028 -0.874221
  C 2.421705 0.485674 -2.100013
  C 0.941296 0.396016 -1.745456
  H 0.330645 0.589423 -2.624709
  C 4.776504 0.107688 -1.219905
  C 5.346545 0.328515 -2.394021
  O 6.667786 0.156331 -2.668596
  H 3.273635 1.189846 -0.233355
  H 2.358689 -1.725528 1.807110
  H 1.082070 0.328736 2.285368
  H 2.280068 1.319173 1.453836
  H 2.666110 -0.275567 -2.843207
  H 2.620702 1.464984 -2.540037
  H 0.686514 1.128869 -0.982933
  H 0.694651 -0.591467 -1.363874
  H 5.389402 -0.239362 -0.394655
  H 4.819736 0.680087 -3.266663
  H 7.123812 -0.155485 -1.876695
 23
 4.704932
  H 3.272279 -1.843862 -0.471067
  C 3.014767 -0.893804 -0.020441
  C 2.460655 -0.879311 1.180672
  C 2.004162 0.310159 1.963861
  H 2.566655 0.378597 2.895495
  C 3.366223 0.306241 -0.860570
  C 2.432137 0.428323 -2.068397
  C 0.971199 0.552463 -1.652760
  H 0.337317 0.658485 -2.529985
  C 4.819956 0.183307 -1.233968
  C 5.338359 0.247862 -2.450231
  O 6.660822 0.129925 -2.744906
  H 3.266670 1.201768 -0.234134
  H 2.323489 -1.807763 1.723041
  H 0.952807 0.189132 2.224591
  H 2.116173 1.242954 1.420337
  H 2.556299 -0.450194 -2.704162
  H 2.713842 1.310240 -2.646592
  H 0.826762 1.424365 -1.019214
  H 0.653178 -0.327505 -1.100269
  H 5.481122 0.015925 -0.390241
  H 4.762146 0.405575 -3.347917
  H 7.161309 -0.012359 -1.931548
