 16
 0.000000
  C 0.981261 0.053970 0.194368
  C 2.484157 0.057293 0.151837
  C 3.212994 -0.018645 1.458899
  H 2.518221 -0.070315 2.292425
  C 3.120736 0.124041 -1.027711
  H 2.530077 0.177031 -1.933867
  C 4.548905 0.133345 -1.220518
  C 5.123967 0.201152 -2.418646
  H 6.191816 0.206372 -2.540754
  H 0.612054 0.012672 1.215646
  H 0.581047 -0.804788 -0.346087
  H 0.582244 0.952252 -0.275206
  H 3.847551 0.854702 1.596277
  H 3.852106 -0.898777 1.492103
  H 5.167914 0.081674 -0.335184
  H 4.541487 0.253842 -3.322211
 16
 3.966032
  C 0.982230 0.088302 0.205484
  C 2.461544 0.061298 0.152758
  C 3.202895 -0.021231 1.460390
  H 2.512171 -0.092719 2.294460
  C 3.099343 0.128982 -1.025657
  H 2.508698 0.192253 -1.932387
  C 4.529661 0.121405 -1.220002
  C 5.105334 0.191266 -2.417878
  H 6.174510 0.187778 -2.539223
  H 0.579753 0.011136 1.204980
  H 0.797244 -0.789089 -0.359041
  H 0.554270 0.953711 -0.288662
  H 3.823639 0.860951 1.607298
  H 3.855554 -0.891924 1.483068
  H 5.147678 0.058031 -0.335251
  H 4.521683 0.256219 -3.321488
 16
 11.369020
  C 0.963516 0.118057 0.214633
  C 2.448955 0.079302 0.157783
  C 3.200378 -0.020598 1.456071
  H 2.513465 -0.130882 2.292522
  C 3.084850 0.149372 -1.019409
  H 2.491729 0.241315 -1.926953
  C 4.520178 0.103930 -1.221023
  C 5.090829 0.178671 -2.413551
  H 6.161885 0.148095 -2.538588
  H 0.538335 0.017878 1.205231
  H 0.989139 -0.793564 -0.336299
  H 0.505317 0.933491 -0.339843
  H 3.795629 0.878360 1.621508
  H 3.878411 -0.875075 1.455203
  H 5.142294 0.009307 -0.339051
  H 4.505465 0.276360 -3.314312
 16
 21.715899
  C 0.945553 0.138081 0.229984
  C 2.442366 0.080512 0.154933
  C 3.190902 -0.027210 1.441230
  H 2.504611 -0.151126 2.276698
  C 3.080466 0.151747 -1.025209
  H 2.490129 0.251887 -1.931618
  C 4.513149 0.097249 -1.223034
  C 5.089379 0.173512 -2.414968
  H 6.154832 0.136284 -2.535494
  H 0.513174 0.030084 1.219906
  H 1.129591 -0.769252 -0.298868
  H 0.469766 0.917614 -0.350571
  H 3.773974 0.872573 1.611266
  H 3.873767 -0.870235 1.432565
  H 5.132248 -0.005635 -0.338819
  H 4.510952 0.279058 -3.313128
 16
 31.567963
  C 0.936048 0.159153 0.233069
  C 2.431038 0.079653 0.147662
  C 3.187851 -0.036477 1.447143
  H 2.506300 -0.177351 2.278988
  C 3.072828 0.154986 -1.032708
  H 2.487370 0.269391 -1.936526
  C 4.497204 0.088955 -1.224811
  C 5.082988 0.171394 -2.419749
  H 6.150785 0.127977 -2.535375
  H 0.498264 0.069306 1.212330
  H 1.249166 -0.769004 -0.261168
  H 0.446294 0.891862 -0.385767
  H 3.758999 0.871594 1.627199
  H 3.884676 -0.871047 1.431316
  H 5.108859 -0.026022 -0.342160
  H 4.508017 0.290380 -3.322830
 16
 39.790886
  C 0.926553 0.178199 0.244426
  C 2.425169 0.079582 0.142852
  C 3.176006 -0.047089 1.435753
  H 2.488641 -0.197755 2.270682
  C 3.075232 0.160740 -1.038916
  H 2.488228 0.290520 -1.944841
  C 4.494586 0.084144 -1.230414
  C 5.081308 0.172005 -2.421595
  H 6.152337 0.121285 -2.535716
  H 0.497885 0.110979 1.228834
  H 1.338488 -0.763572 -0.188563
  H 0.422664 0.849478 -0.429292
  H 3.740073 0.868403 1.620365
  H 3.882259 -0.883620 1.415009
  H 5.111454 -0.044001 -0.343781
  H 4.507526 0.303566 -3.325383
 16
 45.995041
  C 0.919225 0.194800 0.254063
  C 2.415255 0.079146 0.134482
  C 3.166222 -0.059574 1.436086
  H 2.490355 -0.218662 2.255757
  C 3.067338 0.167119 -1.047752
  H 2.480989 0.309283 -1.947262
  C 4.498329 0.080569 -1.239789
  C 5.092033 0.173001 -2.426390
  H 6.159440 0.115424 -2.534204
  H 0.502161 0.164224 1.243635
  H 1.407688 -0.767641 -0.119017
  H 0.396106 0.801865 -0.468784
  H 3.722622 0.852490 1.630485
  H 3.869700 -0.883418 1.410333
  H 5.104743 -0.057034 -0.365217
  H 4.524297 0.316305 -3.331614
 16
 50.108128
  C 0.917128 0.212680 0.252877
  C 2.414689 0.078106 0.132891
  C 3.164584 -0.072230 1.433005
  H 2.479307 -0.244595 2.261712
  C 3.070535 0.179064 -1.053667
  H 2.482568 0.339892 -1.951791
  C 4.489751 0.078874 -1.244124
  C 5.088075 0.177744 -2.431051
  H 6.156618 0.107467 -2.537508
  H 0.499202 0.240771 1.238826
  H 1.469875 -0.771182 -0.039364
  H 0.380916 0.722625 -0.525894
  H 3.717770 0.841572 1.636907
  H 3.875191 -0.897031 1.397192
  H 5.098264 -0.077524 -0.363469
  H 4.525718 0.333579 -3.332543
 16
 53.905607
  C 0.923561 0.221134 0.261598
  C 2.406683 0.074909 0.126779
  C 3.155601 -0.079843 1.425961
  H 2.482743 -0.254151 2.237642
  C 3.067612 0.182267 -1.060771
  H 2.476532 0.346867 -1.964829
  C 4.486076 0.082697 -1.243374
  C 5.090719 0.180736 -2.426202
  H 6.150554 0.098378 -2.527052
  H 0.514501 0.269444 1.241686
  H 1.517454 -0.762806 0.003067
  H 0.372248 0.689189 -0.543062
  H 3.707114 0.829771 1.637206
  H 3.869771 -0.907059 1.385417
  H 5.095699 -0.081079 -0.351980
  H 4.532042 0.334318 -3.334425
 16
 56.730185
  C 0.918173 0.237542 0.261585
  C 2.408063 0.066140 0.127856
  C 3.155146 -0.087572 1.425539
  H 2.470868 -0.261892 2.249321
  C 3.072958 0.173259 -1.063776
  H 2.486872 0.340970 -1.958489
  C 4.484266 0.063558 -1.248522
  C 5.092615 0.172710 -2.432596
  H 6.176645 0.116101 -2.531434
  H 0.498561 0.308474 1.248159
  H 1.550908 -0.762391 0.034649
  H 0.368928 0.654948 -0.559215
  H 3.709920 0.821281 1.635359
  H 3.860967 -0.911209 1.385927
  H 5.084314 -0.093321 -0.372928
  H 4.535014 0.355914 -3.339021
 16
 59.421495
  C 0.917773 0.249236 0.256906
  C 2.405345 0.060225 0.125715
  C 3.158189 -0.092787 1.433026
  H 2.476936 -0.269470 2.254886
  C 3.071882 0.176623 -1.067638
  H 2.481300 0.349583 -1.965813
  C 4.482285 0.068032 -1.251659
  C 5.090492 0.177740 -2.435567
  H 6.168190 0.104501 -2.535445
  H 0.494012 0.326981 1.238595
  H 1.583222 -0.759991 0.047002
  H 0.369881 0.630959 -0.577883
  H 3.706189 0.808298 1.642878
  H 3.865552 -0.913822 1.392552
  H 5.095285 -0.101121 -0.359539
  H 4.536037 0.358165 -3.336584
 16
 61.831535
  C 0.923535 0.256693 0.261917
  C 2.406709 0.055008 0.132089
  C 3.157507 -0.098377 1.431952
  H 2.464336 -0.286806 2.266053
  C 3.076761 0.186225 -1.064188
  H 2.486334 0.365228 -1.959729
  C 4.482644 0.076370 -1.248519
  C 5.093821 0.184268 -2.434648
  H 6.165951 0.091176 -2.535538
  H 0.498246 0.324920 1.228682
  H 1.617687 -0.758602 0.056505
  H 0.367502 0.616392 -0.592910
  H 3.706784 0.814856 1.647682
  H 3.867336 -0.914345 1.384845
  H 5.081710 -0.107582 -0.376290
  H 4.540872 0.337176 -3.333627
 16
 64.029585
  C 0.921139 0.269477 0.261084
  C 2.402611 0.041048 0.132768
  C 3.156210 -0.103098 1.432899
  H 2.471335 -0.283148 2.257567
  C 3.074917 0.171320 -1.067881
  H 2.492397 0.345983 -1.947461
  C 4.483398 0.063502 -1.253802
  C 5.094166 0.176945 -2.438408
  H 6.176343 0.078478 -2.541423
  H 0.489845 0.339272 1.228203
  H 1.635321 -0.765290 0.065634
  H 0.365455 0.600118 -0.600984
  H 3.709686 0.814716 1.641473
  H 3.862665 -0.921009 1.389822
  H 5.091778 -0.111661 -0.369992
  H 4.544654 0.377943 -3.331349
 16
 65.772291
  C 0.916279 0.289360 0.260251
  C 2.407842 0.032757 0.133262
  C 3.163946 -0.106881 1.435718
  H 2.477472 -0.285602 2.263769
  C 3.083684 0.167545 -1.068124
  H 2.492199 0.346539 -1.962508
  C 4.488276 0.053227 -1.250219
  C 5.104349 0.171683 -2.434350
  H 6.165935 0.098176 -2.527474
  H 0.473756 0.346262 1.229178
  H 1.657497 -0.774320 0.065242
  H 0.361057 0.597119 -0.605383
  H 3.715818 0.809503 1.640975
  H 3.873529 -0.928395 1.393174
  H 5.089322 -0.122203 -0.372213
  H 4.550401 0.368248 -3.342391
