 13
 0.000000
  H 3.588178 -0.602016 -0.993797
  C 4.662427 -0.608534 -1.006591
  C 5.375047 -1.119281 -2.009273
  C 6.817642 -1.130875 -2.032030
  C 7.534664 -1.640888 -3.033280
  C 9.023821 -1.661319 -3.073380
  H 5.161509 -0.174108 -0.153743
  H 4.869998 -1.553894 -2.862492
  H 7.323697 -0.696553 -1.179385
  H 7.036094 -2.077042 -3.889505
  H 9.455953 -1.208244 -2.183925
  H 9.382952 -1.116870 -3.947366
  H 9.382953 -2.688386 -3.146865
 13
 1.495113
  H 3.551499 -0.672916 -1.132987
  C 4.621034 -0.623483 -1.035933
  C 5.437685 -1.098406 -1.968286
  C 6.879392 -1.079179 -1.930554
  C 7.542349 -1.602728 -2.958361
  C 9.019541 -1.686342 -3.122519
  H 5.000962 -0.166131 -0.138080
  H 5.071576 -1.563301 -2.880956
  H 7.380661 -0.642556 -1.073389
  H 6.917876 -2.006128 -3.750300
  H 9.531823 -1.250876 -2.267612
  H 9.329876 -1.160122 -4.025649
  H 9.329876 -2.726284 -3.227876
 13
 6.519712
  H 3.540530 -0.729358 -1.243786
  C 4.590124 -0.641153 -1.070621
  C 5.485721 -1.084651 -1.941297
  C 6.924873 -1.038719 -1.851151
  C 7.544234 -1.572624 -2.899282
  C 9.008819 -1.705158 -3.159459
  H 4.887813 -0.170250 -0.146137
  H 5.242432 -1.569866 -2.893841
  H 7.423792 -0.602441 -0.994650
  H 6.808601 -1.945805 -3.631881
  H 9.588312 -1.287234 -2.339020
  H 9.277580 -1.189926 -4.079448
  H 9.277586 -2.752318 -3.283623
 13
 14.867960
  H 3.538346 -0.775539 -1.334488
  C 4.574368 -0.657407 -1.102553
  C 5.529245 -1.074347 -1.921032
  C 6.964725 -1.008530 -1.791790
  C 7.555324 -1.550274 -2.855293
  C 8.983877 -1.717469 -3.183487
  H 4.805094 -0.182211 -0.169682
  H 5.394699 -1.574538 -2.902976
  H 7.457149 -0.576034 -0.942733
  H 6.732493 -1.893816 -3.529732
  H 9.603199 -1.320165 -2.403464
  H 9.219394 -1.207436 -4.116018
  H 9.219232 -2.771200 -3.319144
 13
 25.925169
  H 3.524880 -0.810424 -1.402936
  C 4.556910 -0.669239 -1.125764
  C 5.549426 -1.065575 -1.903842
  C 6.986026 -0.990205 -1.755895
  C 7.557678 -1.536844 -2.829043
  C 8.972765 -1.730823 -3.209885
  H 4.738725 -0.187595 -0.180201
  H 5.508273 -1.580290 -2.914330
  H 7.480076 -0.556735 -0.904917
  H 6.665374 -1.852437 -3.448611
  H 9.638527 -1.341061 -2.444740
  H 9.182090 -1.224526 -4.151077
  H 9.182151 -2.789985 -3.353758
 13
 38.852987
  H 3.531255 -0.832798 -1.447071
  C 4.545578 -0.678701 -1.144446
  C 5.561037 -1.062458 -1.897627
  C 6.998559 -0.981436 -1.738358
  C 7.563255 -1.530380 -2.815918
  C 8.961010 -1.738374 -3.224151
  H 4.693628 -0.191578 -0.188192
  H 5.592449 -1.588139 -2.929548
  H 7.491211 -0.545975 -0.883476
  H 6.603313 -1.826705 -3.397731
  H 9.651300 -1.355058 -2.471485
  H 9.155573 -1.230654 -4.176291
  H 9.155058 -2.805146 -3.372850
 13
 52.315497
  H 3.513131 -0.844422 -1.469688
  C 4.534664 -0.681251 -1.149394
  C 5.562910 -1.056952 -1.886922
  C 7.001283 -0.977214 -1.730304
  C 7.565113 -1.525380 -2.806529
  C 8.968034 -1.745751 -3.239356
  H 4.662674 -0.196526 -0.197832
  H 5.642020 -1.597869 -2.948883
  H 7.489905 -0.544249 -0.880341
  H 6.542850 -1.811475 -3.368224
  H 9.673563 -1.370526 -2.502512
  H 9.151344 -1.245044 -4.184923
  H 9.151464 -2.805245 -3.390222
 13
 64.290525
  H 3.515768 -0.841081 -1.463218
  C 4.531794 -0.679369 -1.145969
  C 5.555400 -1.057049 -1.887132
  C 6.995826 -0.984827 -1.744851
  C 7.571765 -1.530573 -2.816398
  C 8.968620 -1.745650 -3.238981
  H 4.658357 -0.192142 -0.189520
  H 5.660700 -1.621979 -2.996061
  H 7.482844 -0.549860 -0.891020
  H 6.486939 -1.818872 -3.382471
  H 9.672211 -1.367838 -2.497278
  H 9.154877 -1.241241 -4.188754
  H 9.155011 -2.810145 -3.389433
 13
 74.469403
  H 3.508848 -0.834811 -1.451030
  C 4.529213 -0.675429 -1.139313
  C 5.546779 -1.056115 -1.885495
  C 6.987191 -0.993598 -1.760712
  C 7.575129 -1.535574 -2.825040
  C 8.976499 -1.746535 -3.239710
  H 4.659748 -0.188838 -0.183802
  H 5.660019 -1.644920 -3.040428
  H 7.471167 -0.558334 -0.906423
  H 6.434329 -1.831175 -3.405537
  H 9.675492 -1.367121 -2.494354
  H 9.167538 -1.241191 -4.189028
  H 9.166641 -2.806746 -3.388370
 13
 84.850468
  H 3.506284 -0.823094 -1.426262
  C 4.528640 -0.667884 -1.124897
  C 5.535816 -1.052716 -1.880073
  C 6.974438 -1.005281 -1.785184
  C 7.584574 -1.539961 -2.836256
  C 8.987888 -1.742415 -3.235550
  H 4.666955 -0.181219 -0.168013
  H 5.640540 -1.677896 -3.106356
  H 7.455098 -0.568393 -0.927873
  H 6.373427 -1.855754 -3.455616
  H 9.679376 -1.358962 -2.483965
  H 9.183605 -1.237932 -4.177340
  H 9.187071 -2.810295 -3.383948
 13
 94.809220
  H 3.502997 -0.804859 -1.391784
  C 4.530083 -0.655775 -1.102328
  C 5.523451 -1.047097 -1.868414
  C 6.957853 -1.022073 -1.815063
  C 7.598444 -1.547177 -2.845935
  C 9.006131 -1.740719 -3.225746
  H 4.677652 -0.169400 -0.145379
  H 5.599785 -1.722035 -3.191055
  H 7.432697 -0.583460 -0.954241
  H 6.301313 -1.895094 -3.529680
  H 9.689395 -1.354648 -2.466331
  H 9.213200 -1.230270 -4.175581
  H 9.209649 -2.795834 -3.368846
 13
 103.508252
  H 3.502250 -0.785951 -1.352958
  C 4.533404 -0.642726 -1.075521
  C 5.511759 -1.039289 -1.853900
  C 6.940437 -1.037779 -1.849344
  C 7.615181 -1.551124 -2.857646
  C 9.026897 -1.733177 -3.216004
  H 4.688866 -0.156168 -0.118080
  H 5.541465 -1.772119 -3.291492
  H 7.406883 -0.596420 -0.983476
  H 6.220375 -1.941875 -3.624690
  H 9.701244 -1.342534 -2.449772
  H 9.239501 -1.224885 -4.154738
  H 9.241529 -2.796640 -3.358077
 13
 110.696836
  H 3.508004 -0.771301 -1.310018
  C 4.543767 -0.624700 -1.049015
  C 5.505560 -1.028026 -1.839482
  C 6.919822 -1.057390 -1.890924
  C 7.629990 -1.555780 -2.867744
  C 9.046295 -1.725880 -3.201206
  H 4.705840 -0.144124 -0.088148
  H 5.464039 -1.829695 -3.407642
  H 7.374765 -0.612485 -1.018709
  H 6.128958 -1.999966 -3.740479
  H 9.710966 -1.330678 -2.427167
  H 9.267935 -1.217368 -4.134582
  H 9.270130 -2.790679 -3.339823
 13
 115.628427
  H 3.507923 -0.745596 -1.279587
  C 4.546870 -0.618246 -1.021664
  C 5.494125 -1.026622 -1.823849
  C 6.901904 -1.077182 -1.923014
  C 7.642848 -1.563881 -2.880023
  C 9.063750 -1.722014 -3.191610
  H 4.715804 -0.128588 -0.065266
  H 5.380386 -1.894206 -3.527338
  H 7.347211 -0.629778 -1.044705
  H 6.035913 -2.063859 -3.861051
  H 9.718390 -1.323499 -2.410005
  H 9.293895 -1.208920 -4.126134
  H 9.295677 -2.779830 -3.327556
