 23
 0.000000
  C 0.969744 0.179489 0.498564
  C 2.426311 0.122979 0.357308
  H 3.052483 0.451393 1.173750
  C 3.001464 -0.343915 -0.804614
  C 4.383224 -0.418154 -0.990495
  C 5.097009 -0.864802 -2.104258
  C 4.625462 -1.389396 -3.412151
  C 3.142240 -1.518417 -3.734590
  C 2.962934 -2.082804 -5.141837
  O 6.411416 -0.847201 -2.060903
  H 0.653160 0.566739 1.461786
  H 0.541453 -0.815424 0.361131
  H 0.541026 0.802149 -0.289277
  H 2.344480 -0.661602 -1.594830
  H 4.982155 -0.080621 -0.150626
  H 5.096422 -2.372452 -3.530467
  H 5.096817 -0.760895 -4.177029
  H 2.658046 -0.542304 -3.693280
  H 2.657705 -2.195271 -3.030318
  H 3.415920 -1.430968 -5.885050
  H 1.905870 -2.176792 -5.376794
  H 3.415608 -3.067694 -5.228588
  H 6.785773 -0.512311 -1.223624
 23
 0.388492
  C 0.969296 0.167233 0.524323
  C 2.404636 0.228091 0.251178
  H 3.020058 0.863549 0.873799
  C 2.986829 -0.450876 -0.793031
  C 4.372011 -0.453718 -0.991655
  C 5.105344 -0.926347 -2.080925
  C 4.635723 -1.431563 -3.396314
  C 3.150918 -1.527942 -3.722384
  C 2.965889 -1.967920 -5.172563
  O 6.417216 -0.908595 -2.023980
  H 0.688208 0.750407 1.394192
  H 0.654130 -0.869703 0.659302
  H 0.404471 0.520908 -0.341778
  H 2.356944 -1.066751 -1.411272
  H 4.958657 -0.024437 -0.185584
  H 5.099403 -2.414762 -3.535864
  H 5.120384 -0.796068 -4.147217
  H 2.670377 -0.558034 -3.588165
  H 2.667650 -2.264539 -3.079924
  H 3.414435 -1.252648 -5.857845
  H 1.907823 -2.044889 -5.411945
  H 3.421947 -2.939537 -5.346607
  H 6.793588 -0.586504 -1.182858
 23
 2.329788
  C 0.963268 0.115303 0.445880
  C 2.377083 0.275216 0.101329
  H 2.907559 1.126622 0.501768
  C 3.028496 -0.564137 -0.765827
  C 4.414132 -0.479902 -0.986079
  C 5.150184 -0.969130 -2.061786
  C 4.649432 -1.454557 -3.374056
  C 3.153271 -1.515685 -3.653189
  C 2.908172 -1.828953 -5.127146
  O 6.463198 -0.950714 -2.020006
  H 0.625945 0.862900 1.156908
  H 0.782797 -0.883087 0.845345
  H 0.344533 0.172585 -0.452911
  H 2.488122 -1.417652 -1.146330
  H 4.985230 0.039059 -0.222557
  H 5.092714 -2.443399 -3.542137
  H 5.126365 -0.813997 -4.126088
  H 2.686323 -0.559890 -3.411462
  H 2.685860 -2.299389 -3.056132
  H 3.336340 -1.060023 -5.766015
  H 1.842858 -1.880569 -5.330800
  H 3.349010 -2.784396 -5.401277
  H 6.849848 -0.642403 -1.178248
 23
 6.351116
  C 0.966780 0.055776 0.377006
  C 2.347108 0.284145 -0.066372
  H 2.773557 1.265498 0.085439
  C 3.068575 -0.646302 -0.757753
  C 4.469318 -0.574192 -0.945114
  C 5.195680 -0.980055 -2.056142
  C 4.659420 -1.397926 -3.378531
  C 3.155275 -1.456003 -3.593928
  C 2.842135 -1.753020 -5.058583
  O 6.508687 -0.942862 -2.044396
  H 0.560958 0.913417 0.899936
  H 0.918393 -0.822796 1.020474
  H 0.322209 -0.172840 -0.476313
  H 2.608139 -1.608270 -0.946372
  H 5.039743 -0.128767 -0.138027
  H 5.099548 -2.374609 -3.613073
  H 5.105491 -0.716334 -4.114334
  H 2.702052 -0.501123 -3.320949
  H 2.711840 -2.239655 -2.983143
  H 3.248245 -0.981302 -5.709133
  H 1.767345 -1.793448 -5.215512
  H 3.263179 -2.709264 -5.360296
  H 6.909627 -0.683007 -1.192617
 23
 12.384202
  C 0.980171 -0.014083 0.393943
  C 2.285959 0.308056 -0.207055
  H 2.560596 1.351971 -0.277687
  C 3.090239 -0.612959 -0.786025
  C 4.506206 -0.609473 -0.953247
  C 5.228680 -0.973283 -2.075826
  C 4.671746 -1.354055 -3.400248
  C 3.160435 -1.411611 -3.570878
  C 2.798703 -1.712479 -5.025625
  O 6.545570 -0.973746 -2.060131
  H 0.502808 0.869528 0.806404
  H 1.097702 -0.765244 1.175341
  H 0.309699 -0.450425 -0.349264
  H 2.745021 -1.647137 -0.776625
  H 5.072175 -0.245227 -0.100730
  H 5.104540 -2.326478 -3.662407
  H 5.098551 -0.659046 -4.131267
  H 2.715188 -0.454026 -3.286536
  H 2.734432 -2.187415 -2.942325
  H 3.185121 -0.944335 -5.691021
  H 1.720733 -1.748848 -5.147437
  H 3.205225 -2.673067 -5.338736
  H 6.949229 -0.739428 -1.203992
 23
 19.844662
  C 1.023931 -0.137395 0.512442
  C 2.195205 0.316951 -0.266793
  H 2.226005 1.361364 -0.530079
  C 3.088263 -0.516296 -0.829213
  C 4.508256 -0.542819 -0.996299
  C 5.229502 -0.983619 -2.091538
  C 4.667390 -1.417333 -3.400929
  C 3.162019 -1.283059 -3.628158
  C 2.805983 -1.670289 -5.057500
  O 6.544361 -1.020887 -2.061748
  H 0.404470 0.701743 0.814153
  H 1.351313 -0.679832 1.402511
  H 0.413681 -0.823319 -0.067624
  H 2.888048 -1.585238 -0.668620
  H 5.079647 -0.150935 -0.156666
  H 4.964325 -2.460504 -3.550617
  H 5.209940 -0.862378 -4.178429
  H 2.849206 -0.251509 -3.452039
  H 2.613604 -1.930809 -2.950353
  H 3.340126 -1.046996 -5.777767
  H 1.736597 -1.544595 -5.230518
  H 3.058239 -2.706509 -5.251529
  H 6.947249 -0.747166 -1.214689
 23
 32.132600
  C 1.020905 -0.213824 0.416126
  C 2.145274 0.379202 -0.359977
  H 2.079414 1.445138 -0.560878
  C 3.163346 -0.297009 -0.853594
  C 4.557232 -0.553963 -0.986000
  C 5.257511 -0.977443 -2.106197
  C 4.671103 -1.345394 -3.420257
  C 3.156025 -1.271068 -3.573253
  C 2.745717 -1.661387 -4.989626
  O 6.559325 -1.180560 -2.045217
  H 0.347417 0.561468 0.768539
  H 1.403798 -0.763655 1.275149
  H 0.449684 -0.911394 -0.197376
  H 3.125413 -1.406122 -0.586238
  H 5.148147 -0.249457 -0.128237
  H 5.017554 -2.359577 -3.661113
  H 5.143896 -0.706802 -4.171469
  H 2.807684 -0.255468 -3.371706
  H 2.669526 -1.948880 -2.874996
  H 3.175954 -0.984023 -5.719561
  H 1.664643 -1.625708 -5.094808
  H 3.075046 -2.670054 -5.226326
  H 6.968122 -0.991623 -1.181547
 23
 41.569603
  C 1.060866 -0.405042 0.353265
  C 2.149292 0.326048 -0.367005
  H 1.950211 1.366560 -0.598344
  C 3.264813 -0.198462 -0.786039
  C 4.622392 -0.555481 -0.971940
  C 5.264557 -1.004155 -2.122352
  C 4.617036 -1.376644 -3.408088
  C 3.120798 -1.119000 -3.544614
  C 2.638409 -1.523110 -4.935084
  O 6.573721 -1.208042 -2.119909
  H 0.238823 0.265012 0.581888
  H 1.436649 -0.824835 1.281713
  H 0.678335 -1.221459 -0.256002
  H 3.468842 -1.328925 -0.461841
  H 5.273256 -0.263609 -0.150311
  H 4.824634 -2.437631 -3.587863
  H 5.152337 -0.849054 -4.204175
  H 2.909391 -0.060891 -3.391651
  H 2.564767 -1.697706 -2.805990
  H 3.154395 -0.955715 -5.705862
  H 1.572596 -1.336864 -5.036892
  H 2.815154 -2.579789 -5.115922
  H 7.021526 -0.987936 -1.284053
 23
 46.869901
  C 0.975802 -0.381801 0.111155
  C 2.165796 0.353913 -0.436105
  H 2.000343 1.403552 -0.664228
  C 3.332589 -0.130049 -0.682159
  C 4.656528 -0.605832 -0.859924
  C 5.276306 -1.010951 -2.076208
  C 4.601200 -1.372948 -3.350841
  C 3.098364 -1.135347 -3.449817
  C 2.592062 -1.532534 -4.833952
  O 6.595423 -1.183112 -2.117387
  H 0.128854 0.286615 0.214280
  H 1.205806 -0.805349 1.085088
  H 0.697356 -1.195430 -0.556430
  H 3.894116 -1.418951 -0.409871
  H 5.345555 -0.304692 -0.070563
  H 4.816667 -2.429743 -3.550723
  H 5.108505 -0.826584 -4.153176
  H 2.874972 -0.082184 -3.282134
  H 2.568384 -1.729670 -2.706336
  H 3.084152 -0.950578 -5.609088
  H 1.521711 -1.359899 -4.911594
  H 2.779949 -2.586197 -5.029538
  H 7.058481 -0.969186 -1.289104
 23
 44.045386
  C 1.008273 -0.442076 0.043648
  C 2.158824 0.381818 -0.482013
  H 1.913728 1.421903 -0.694409
  C 3.363476 -0.003738 -0.691439
  C 4.654530 -0.603650 -0.815387
  C 5.263469 -1.028806 -2.061725
  C 4.566075 -1.396636 -3.317952
  C 3.079975 -1.074408 -3.433773
  C 2.557555 -1.490842 -4.804527
  O 6.571286 -1.206418 -2.117091
  H 0.109808 0.163662 0.120677
  H 1.249398 -0.841412 1.027671
  H 0.809987 -1.275754 -0.624540
  H 4.096336 -1.481305 -0.387055
  H 5.359015 -0.255801 -0.060465
  H 4.717184 -2.474647 -3.474100
  H 5.107434 -0.917355 -4.140888
  H 2.919030 -0.005127 -3.304421
  H 2.513530 -1.609934 -2.669441
  H 3.089056 -0.968051 -5.598749
  H 1.500616 -1.255707 -4.895097
  H 2.680342 -2.560237 -4.960185
  H 7.051869 -0.993192 -1.297264
 23
 41.913040
  C 0.969075 -0.280037 0.026768
  C 2.217832 0.456266 -0.395962
  H 2.094770 1.534109 -0.483394
  C 3.355574 -0.047246 -0.702926
  C 4.606225 -0.724381 -0.811329
  C 5.270034 -1.010714 -2.078900
  C 4.598006 -1.308594 -3.364556
  C 3.074691 -1.243282 -3.400872
  C 2.566295 -1.586302 -4.797846
  O 6.578143 -1.134404 -2.117242
  H 0.164331 0.418707 0.223553
  H 1.163177 -0.857777 0.926668
  H 0.656003 -0.963991 -0.758777
  H 4.108811 -1.672941 -0.508896
  H 5.292057 -0.440912 -0.009699
  H 4.928645 -2.305101 -3.682422
  H 5.008999 -0.627190 -4.118633
  H 2.735156 -0.242239 -3.139457
  H 2.647978 -1.953908 -2.692292
  H 2.954800 -0.887559 -5.534857
  H 1.480910 -1.539962 -4.829462
  H 2.869592 -2.589839 -5.087534
  H 7.040036 -0.945492 -1.279642
 23
 40.282300
  C 0.951204 -0.343960 -0.068009
  C 2.206499 0.445597 -0.364561
  H 2.068325 1.524371 -0.347752
  C 3.361939 -0.014257 -0.672457
  C 4.585299 -0.743819 -0.782778
  C 5.269331 -0.953207 -2.062618
  C 4.604077 -1.203838 -3.359222
  C 3.081046 -1.289039 -3.368299
  C 2.579488 -1.598498 -4.775471
  O 6.575027 -1.041970 -2.099403
  H 0.130405 0.323436 0.167998
  H 1.121090 -1.008648 0.775000
  H 0.678522 -0.946891 -0.931150
  H 4.154397 -1.732210 -0.532134
  H 5.270053 -0.476746 0.027268
  H 5.025547 -2.130264 -3.767693
  H 4.928654 -0.422299 -4.056862
  H 2.649307 -0.344588 -3.040998
  H 2.743520 -2.079071 -2.696393
  H 2.879421 -0.821279 -5.474312
  H 1.494502 -1.661008 -4.787267
  H 2.975296 -2.547197 -5.130817
  H 7.034004 -0.872676 -1.255091
 23
 39.343597
  C 1.003733 -0.224727 -0.181597
  C 2.292192 0.542098 -0.389017
  H 2.181352 1.621317 -0.321084
  C 3.450509 0.063896 -0.655476
  C 4.613104 -0.763057 -0.770985
  C 5.262769 -1.014709 -2.064809
  C 4.559276 -1.242410 -3.343645
  C 3.036671 -1.328924 -3.307106
  C 2.493549 -1.648759 -4.696352
  O 6.559945 -1.153803 -2.129051
  H 0.190344 0.456385 0.040489
  H 1.117390 -0.922576 0.643897
  H 0.757549 -0.789957 -1.077527
  H 4.185123 -1.743378 -0.489731
  H 5.334595 -0.503664 0.010822
  H 4.969971 -2.159909 -3.781507
  H 4.861087 -0.447726 -4.037132
  H 2.615208 -0.382109 -2.973800
  H 2.721301 -2.113927 -2.618751
  H 2.771381 -0.876255 -5.409406
  H 1.408728 -1.712354 -4.675265
  H 2.879110 -2.599778 -5.056711
  H 7.047640 -0.997802 -1.297752
 23
 38.979949
  C 1.016422 -0.227841 -0.302553
  C 2.313637 0.548893 -0.387964
  H 2.194392 1.621795 -0.254369
  C 3.491390 0.086862 -0.595722
  C 4.618776 -0.790910 -0.733196
  C 5.254426 -1.027855 -2.041544
  C 4.537818 -1.217786 -3.318488
  C 3.018329 -1.334815 -3.265634
  C 2.464596 -1.646020 -4.652004
  O 6.546931 -1.176357 -2.121189
  H 0.188707 0.443153 -0.103009
  H 1.078413 -0.962139 0.496996
  H 0.830842 -0.752351 -1.237067
  H 4.224889 -1.784898 -0.450299
  H 5.362571 -0.535204 0.030676
  H 4.961029 -2.108009 -3.798381
  H 4.814247 -0.390372 -3.983674
  H 2.584709 -0.400676 -2.914871
  H 2.727462 -2.134417 -2.583643
  H 2.718780 -0.859080 -5.357347
  H 1.381020 -1.730601 -4.618832
  H 2.863111 -2.584293 -5.029833
  H 7.047448 -1.043071 -1.293781
