 23
 0.000000
  C 0.976371 0.151554 0.429656
  C 2.450501 0.134934 0.387729
  C 3.231148 0.602064 1.548934
  H 2.624872 0.936461 2.381003
  C 3.052630 -0.332275 -0.774634
  C 4.429542 -0.415029 -0.981494
  C 5.118390 -0.864665 -2.103241
  C 4.629944 -1.387687 -3.408171
  C 3.142131 -1.505359 -3.702305
  H 3.006850 -1.905460 -4.700700
  O 6.438969 -0.856045 -2.082146
  H 0.585695 0.529413 1.369280
  H 0.585529 -0.854372 0.270360
  H 0.585176 0.766976 -0.381692
  H 3.883968 1.422548 1.244291
  H 3.884381 -0.200595 1.897018
  H 2.389273 -0.648368 -1.560790
  H 5.050862 -0.084040 -0.157496
  H 5.093437 -2.373143 -3.530767
  H 5.093749 -0.759938 -4.177507
  H 2.658690 -0.532418 -3.663348
  H 2.658478 -2.182035 -3.002269
  H 6.821109 -0.522815 -1.248604
 23
 3.121028
  C 0.995854 0.002827 0.488451
  C 2.492228 0.068331 0.414835
  C 3.227629 0.676568 1.532698
  H 2.553468 1.183842 2.218151
  C 3.059229 -0.273959 -0.798903
  C 4.436007 -0.404659 -0.996850
  C 5.120273 -0.874441 -2.114927
  C 4.615389 -1.386316 -3.417014
  C 3.127111 -1.432239 -3.722056
  H 2.998943 -1.822607 -4.725440
  O 6.444938 -0.909168 -2.087940
  H 0.640101 0.380727 1.442013
  H 0.664358 -1.020654 0.335393
  H 0.594407 0.615010 -0.318503
  H 3.972148 1.393466 1.187861
  H 3.736467 -0.101348 2.112696
  H 2.382820 -0.549746 -1.600116
  H 5.065053 -0.088767 -0.171595
  H 5.024867 -2.395418 -3.525516
  H 5.111096 -0.799587 -4.195947
  H 2.679544 -0.444950 -3.687160
  H 2.603089 -2.110239 -3.051037
  H 6.846546 -0.585343 -1.261984
 23
 30.336506
  C 1.073054 -0.017179 0.420977
  C 2.696868 0.031953 0.509962
  C 3.079810 0.792669 1.701521
  H 2.229987 1.172567 2.248413
  C 3.172349 -0.358743 -0.723164
  C 4.527331 -0.522118 -1.002512
  C 5.126587 -0.927066 -2.186921
  C 4.549146 -1.354498 -3.497653
  C 3.045359 -1.409771 -3.698285
  H 2.859840 -1.731269 -4.721250
  O 6.435646 -0.986279 -2.256475
  H 0.708039 0.404324 1.326380
  H 0.915379 -1.079158 0.280022
  H 0.944876 0.561337 -0.490082
  H 3.679774 1.665627 1.406437
  H 3.650986 0.153616 2.393212
  H 2.475806 -0.591918 -1.520991
  H 5.194669 -0.364145 -0.154042
  H 4.969726 -2.352540 -3.659005
  H 4.987823 -0.681660 -4.238816
  H 2.598503 -0.413863 -3.637867
  H 2.570527 -2.112088 -3.013418
  H 6.884974 -0.753132 -1.415958
 23
 82.504660
  C 0.843301 -0.103410 0.218143
  C 3.073879 0.169704 0.549136
  C 3.040153 0.834314 1.813592
  H 2.036105 1.045335 2.169165
  C 3.461052 -0.230620 -0.626297
  C 4.814293 -0.501523 -1.059059
  C 5.219369 -0.985246 -2.262541
  C 4.463914 -1.380389 -3.493474
  C 2.945493 -1.315399 -3.520899
  H 2.610768 -1.640014 -4.504649
  O 6.533521 -1.147822 -2.496850
  H 0.412364 0.258452 1.135289
  H 0.908495 -1.167428 0.078678
  H 0.819143 0.539882 -0.639872
  H 3.556176 1.793926 1.758065
  H 3.471186 0.187235 2.572426
  H 2.741433 -0.513017 -1.377334
  H 5.570145 -0.322339 -0.309105
  H 4.781698 -2.405142 -3.707049
  H 4.867671 -0.767801 -4.302449
  H 2.587575 -0.298857 -3.386374
  H 2.505198 -1.993307 -2.795568
  H 7.090814 -0.923334 -1.724578
 23
 96.260897
  C 0.630115 -0.051178 0.110542
  C 3.252097 0.170921 0.609330
  C 3.060936 0.800267 1.892612
  H 2.020586 0.940733 2.153683
  C 3.630770 -0.263467 -0.560441
  C 4.951399 -0.530113 -1.091623
  C 5.266546 -0.992057 -2.315454
  C 4.430451 -1.381591 -3.494515
  C 2.924998 -1.305302 -3.415433
  H 2.517349 -1.629522 -4.373711
  O 6.565677 -1.162162 -2.644289
  H 0.202590 0.342929 1.012932
  H 0.733506 -1.114143 0.001388
  H 0.721691 0.586697 -0.745584
  H 3.504464 1.791487 1.895450
  H 3.455270 0.169195 2.676718
  H 2.890944 -0.530475 -1.305469
  H 5.749788 -0.327627 -0.397902
  H 4.729186 -2.403573 -3.741746
  H 4.781080 -0.763221 -4.326566
  H 2.586527 -0.285607 -3.257517
  H 2.534351 -1.978759 -2.659220
  H 7.173208 -0.942822 -1.909074
 23
 98.187981
  C 0.446481 -0.164444 -0.180218
  C 3.516226 0.251791 0.675323
  C 3.197246 0.794720 1.916580
  H 2.105273 0.817374 2.010428
  C 3.840482 -0.203728 -0.469437
  C 5.106940 -0.508752 -1.084768
  C 5.308683 -0.995650 -2.325452
  C 4.344479 -1.363289 -3.416298
  C 2.846512 -1.216116 -3.195377
  H 2.335875 -1.535815 -4.101604
  O 6.564208 -1.220308 -2.761429
  H -0.020136 0.208718 0.706435
  H 0.580323 -1.218629 -0.289095
  H 0.528090 0.477780 -1.030296
  H 3.536674 1.828361 2.011399
  H 3.545081 0.157899 2.733761
  H 2.981990 -0.435142 -1.104804
  H 5.968978 -0.314077 -0.462525
  H 4.571428 -2.401212 -3.675783
  H 4.640220 -0.771077 -4.286851
  H 2.567973 -0.177872 -3.027814
  H 2.495266 -1.861482 -2.393148
  H 7.239115 -1.007368 -2.097312
 23
 92.484910
  C 0.998598 0.006625 -0.710873
  C 3.713146 0.260792 0.917266
  C 3.502682 0.930691 2.121153
  H 2.438695 1.148160 2.202265
  C 3.784861 -0.189529 -0.256753
  C 4.870919 -0.745501 -1.020433
  C 4.988335 -1.270819 -2.258760
  C 4.028939 -1.489998 -3.376006
  C 2.593281 -1.063800 -3.192923
  H 2.043339 -1.277025 -4.101742
  O 6.200104 -1.708844 -2.660801
  H 0.584072 0.455807 0.158530
  H 0.904577 -1.059547 -0.819653
  H 1.114252 0.612494 -1.592702
  H 4.031416 1.879413 2.155594
  H 3.747637 0.304581 2.978452
  H 2.654081 -0.165018 -0.634104
  H 5.787250 -0.722850 -0.444942
  H 4.080402 -2.549647 -3.632455
  H 4.455435 -0.959141 -4.236471
  H 2.539235 0.004944 -3.017531
  H 2.129789 -1.619007 -2.386223
  H 6.886496 -1.607851 -1.977995
 23
 97.627441
  C 0.745665 -0.508968 -0.505689
  C 3.545979 0.326651 0.881321
  C 3.181228 0.959725 2.099250
  H 2.063760 0.911300 2.172362
  C 3.737124 -0.148380 -0.308884
  C 4.946613 -0.419449 -1.058912
  C 5.187654 -0.889772 -2.295357
  C 4.285254 -1.331332 -3.424539
  C 2.770813 -1.290671 -3.239373
  H 2.285995 -1.635693 -4.160568
  O 6.480424 -1.017703 -2.706345
  H 0.234078 -0.109328 0.372013
  H 0.888112 -1.559212 -0.554453
  H 0.730938 0.061785 -1.401044
  H 3.488138 2.023594 2.121030
  H 3.554184 0.443273 3.000408
  H 2.688496 -0.381499 -0.735653
  H 5.823978 -0.179753 -0.484154
  H 4.596282 -2.343951 -3.685914
  H 4.570916 -0.706655 -4.280445
  H 2.431156 -0.272733 -3.052369
  H 2.463164 -1.961706 -2.440784
  H 7.120727 -0.757882 -2.016239
 23
 91.351563
  C 0.897308 -0.389721 -0.598212
  C 3.590090 0.320193 0.949728
  C 3.254807 0.907769 2.159948
  H 2.168912 0.914125 2.242360
  C 3.693783 -0.145326 -0.248167
  C 4.860906 -0.479215 -1.032831
  C 5.095106 -0.951762 -2.269847
  C 4.226556 -1.349087 -3.436105
  C 2.720754 -1.244892 -3.301428
  H 2.255756 -1.565865 -4.237041
  O 6.388812 -1.127136 -2.642694
  H 0.396421 0.011810 0.284721
  H 0.970940 -1.445255 -0.680900
  H 0.898888 0.205599 -1.477346
  H 3.594269 1.938790 2.216157
  H 3.611206 0.328247 3.007212
  H 2.560864 -0.305245 -0.631226
  H 5.760540 -0.287223 -0.460942
  H 4.507458 -2.374391 -3.691333
  H 4.564573 -0.735082 -4.277886
  H 2.428197 -0.215632 -3.124721
  H 2.363422 -1.903879 -2.517117
  H 7.011112 -0.895183 -1.936668
 23
 86.964905
  C 1.109292 -0.395938 -0.737068
  C 3.664081 0.352931 0.974231
  C 3.227825 0.908627 2.193380
  H 2.130749 0.858066 2.208594
  C 3.731261 -0.107740 -0.196914
  C 4.851234 -0.460831 -1.007349
  C 5.047732 -0.952546 -2.253185
  C 4.151538 -1.356048 -3.390925
  C 2.646114 -1.243654 -3.240616
  H 2.178551 -1.574756 -4.165156
  O 6.320877 -1.140150 -2.663855
  H 0.558269 -0.029390 0.106771
  H 1.190442 -1.461647 -0.844680
  H 1.138560 0.227015 -1.611691
  H 3.504757 1.958059 2.289035
  H 3.571041 0.323344 3.046183
  H 2.511894 -0.264776 -0.557328
  H 5.766661 -0.269675 -0.457643
  H 4.421705 -2.388532 -3.633114
  H 4.478900 -0.755992 -4.248076
  H 2.353169 -0.212862 -3.078221
  H 2.290414 -1.890108 -2.446260
  H 6.975613 -0.911757 -1.990448
 23
 40.145574
  C 0.542427 -0.584797 -0.436838
  C 3.804056 0.270401 0.690903
  C 3.020157 0.912087 1.675315
  H 1.959666 0.702405 1.560823
  C 4.363813 -0.216969 -0.287635
  C 5.419761 -0.624314 -1.068552
  C 5.476307 -1.070317 -2.386233
  C 4.357075 -1.167149 -3.349975
  C 2.967917 -0.880404 -2.817786
  H 2.254031 -0.897534 -3.635528
  O 6.631138 -1.401840 -2.904602
  H 0.199637 -0.019438 0.421663
  H 0.252978 -1.618540 -0.306187
  H 0.064708 -0.185526 -1.322104
  H 3.181435 1.990190 1.602120
  H 3.360759 0.612138 2.666402
  H 1.610881 -0.490561 -0.528103
  H 6.373285 -0.568577 -0.548025
  H 4.397640 -2.167623 -3.796574
  H 4.593266 -0.492217 -4.181129
  H 2.920980 0.099116 -2.350655
  H 2.671276 -1.638191 -2.098876
  H 7.397487 -1.350701 -2.302763
