 25
 0.000000
  H 1.448592 0.171605 0.480443
  C 2.528500 0.150338 0.425920
  C 3.277868 0.620328 1.593526
  C 2.407403 1.085218 2.751871
  H 3.024159 1.418612 3.580141
  C 3.078891 -0.321053 -0.747543
  C 4.460695 -0.419147 -0.992536
  C 5.098223 -0.872910 -2.123674
  C 4.606194 -1.386545 -3.404498
  C 3.120029 -1.506390 -3.705118
  C 2.900676 -2.068913 -5.107692
  H 6.181003 -0.859270 -2.089428
  H 3.944062 1.437160 1.288048
  H 3.945374 -0.179632 1.938049
  H 1.767909 0.278665 3.104028
  H 1.766615 1.910218 2.448287
  H 2.392999 -0.630454 -1.517431
  H 5.106633 -0.095489 -0.186398
  H 5.075803 -2.371762 -3.539397
  H 5.076826 -0.768292 -4.182781
  H 2.644020 -0.525821 -3.650018
  H 2.643197 -2.176645 -2.987836
  H 3.341150 -1.421831 -5.862656
  H 1.837463 -2.152773 -5.318026
  H 3.340508 -3.058690 -5.206064
 25
 5.006057
  H 1.481836 0.166502 0.464956
  C 2.561603 0.158090 0.442914
  C 3.259332 0.633640 1.626536
  C 2.338256 1.083921 2.750447
  H 2.917258 1.426620 3.603903
  C 3.164055 -0.294885 -0.685425
  C 4.524263 -0.412586 -0.978183
  C 5.118029 -0.883416 -2.150636
  C 4.586352 -1.392272 -3.418532
  C 3.090892 -1.505585 -3.703396
  C 2.857050 -2.068135 -5.104398
  H 6.203973 -0.879113 -2.138895
  H 3.933010 1.453804 1.342492
  H 3.934150 -0.154640 1.987657
  H 1.699238 0.268168 3.079860
  H 1.698104 1.900486 2.425095
  H 2.693512 -0.648004 -1.564913
  H 5.227628 -0.102165 -0.204216
  H 5.053621 -2.379235 -3.568904
  H 5.054999 -0.784434 -4.209691
  H 2.616314 -0.523636 -3.646279
  H 2.615058 -2.174711 -2.983269
  H 3.293547 -1.422937 -5.863379
  H 1.791921 -2.148365 -5.305992
  H 3.292496 -3.059534 -5.206012
 25
 14.965078
  H 1.502196 0.144482 0.414788
  C 2.584390 0.154603 0.435731
  C 3.238514 0.643302 1.647478
  C 2.286575 1.077642 2.735496
  H 2.836301 1.428512 3.605211
  C 3.243707 -0.286400 -0.662696
  C 4.588809 -0.414010 -0.980225
  C 5.128500 -0.890268 -2.165937
  C 4.559979 -1.392324 -3.416949
  C 3.071167 -1.496625 -3.682438
  C 2.826190 -2.058195 -5.081401
  H 6.211113 -0.900588 -2.190113
  H 3.911705 1.467312 1.384127
  H 3.916306 -0.130625 2.025951
  H 1.650058 0.252050 3.046115
  H 1.645225 1.885544 2.390045
  H 2.956733 -0.661037 -1.594869
  H 5.336055 -0.120979 -0.249318
  H 5.015220 -2.376343 -3.578257
  H 5.017670 -0.795095 -4.213969
  H 2.597707 -0.512749 -3.624111
  H 2.594808 -2.165513 -2.960362
  H 3.259660 -1.414619 -5.843548
  H 1.759293 -2.134091 -5.274594
  H 3.257065 -3.051356 -5.186013
 25
 28.652165
  H 1.515910 0.131713 0.393474
  C 2.594380 0.154913 0.440756
  C 3.218108 0.652841 1.666307
  C 2.238701 1.080331 2.740674
  H 2.769868 1.438650 3.622069
  C 3.295098 -0.281359 -0.645590
  C 4.643385 -0.421653 -0.993371
  C 5.149530 -0.896802 -2.178632
  C 4.554170 -1.396177 -3.425507
  C 3.054548 -1.493526 -3.675585
  C 2.793476 -2.055181 -5.077605
  H 6.232499 -0.914945 -2.222276
  H 3.890325 1.483068 1.413612
  H 3.899493 -0.113922 2.057214
  H 1.603163 0.246486 3.041288
  H 1.593569 1.883189 2.381722
  H 3.168161 -0.670202 -1.612763
  H 5.426377 -0.140654 -0.290193
  H 5.003038 -2.386447 -3.593853
  H 5.006024 -0.798595 -4.231166
  H 2.582977 -0.505918 -3.611444
  H 2.579401 -2.161751 -2.947702
  H 3.222522 -1.412971 -5.843798
  H 1.723927 -2.126602 -5.261016
  H 3.219263 -3.050336 -5.187256
 25
 43.085223
  H 1.522419 0.080968 0.386198
  C 2.596547 0.132379 0.433565
  C 3.200419 0.663404 1.646960
  C 2.204289 1.078494 2.716965
  H 2.723288 1.462092 3.595333
  C 3.308629 -0.294261 -0.634681
  C 4.674175 -0.446397 -0.995435
  C 5.179732 -0.913707 -2.190141
  C 4.566909 -1.400720 -3.432889
  C 3.057147 -1.479545 -3.649732
  C 2.756768 -2.030446 -5.049777
  H 6.260708 -0.934539 -2.240605
  H 3.852212 1.507770 1.384948
  H 3.902348 -0.081882 2.045242
  H 1.589446 0.231089 3.026413
  H 1.537683 1.860015 2.347388
  H 3.325671 -0.683652 -1.606682
  H 5.470985 -0.181579 -0.302956
  H 5.003396 -2.394454 -3.616714
  H 5.009877 -0.800144 -4.242137
  H 2.597315 -0.487707 -3.567768
  H 2.590335 -2.146330 -2.914585
  H 3.175428 -1.388344 -5.821741
  H 1.682598 -2.088906 -5.208965
  H 3.168925 -3.029534 -5.175139
 25
 52.614024
  H 1.547042 -0.051961 0.381625
  C 2.627912 0.070797 0.402040
  C 3.200080 0.719942 1.629831
  C 2.148817 1.076031 2.664734
  H 2.619313 1.518272 3.535108
  C 3.334305 -0.334087 -0.627381
  C 4.698547 -0.529071 -1.047228
  C 5.239669 -0.953481 -2.209547
  C 4.615728 -1.422354 -3.470708
  C 3.096272 -1.447665 -3.596181
  C 2.691771 -1.966031 -4.974996
  H 6.321804 -0.972225 -2.253184
  H 3.776569 1.611520 1.359940
  H 3.932552 0.018863 2.049914
  H 1.601730 0.195448 2.981576
  H 1.438965 1.794958 2.270855
  H 3.429090 -0.738554 -1.640363
  H 5.470145 -0.284522 -0.297985
  H 5.015453 -2.423130 -3.684891
  H 5.037021 -0.803153 -4.275164
  H 2.675454 -0.447669 -3.478318
  H 2.655236 -2.116453 -2.852077
  H 3.084482 -1.324194 -5.758039
  H 1.610659 -1.988395 -5.067411
  H 3.065824 -2.972762 -5.135951
 25
 57.896018
  H 1.558273 -0.100899 0.447171
  C 2.634113 0.046127 0.427353
  C 3.194287 0.752280 1.639626
  C 2.124151 1.091480 2.667247
  H 2.580561 1.583180 3.526689
  C 3.328076 -0.358240 -0.596522
  C 4.695988 -0.582820 -1.084364
  C 5.269821 -0.983603 -2.239726
  C 4.650611 -1.435354 -3.507655
  C 3.121524 -1.439414 -3.597161
  C 2.665397 -1.940851 -4.978135
  H 6.354567 -0.997691 -2.267372
  H 3.710765 1.655279 1.323296
  H 3.944520 0.090836 2.084114
  H 1.619415 0.195529 3.019769
  H 1.381336 1.770161 2.250454
  H 3.474464 -0.769990 -1.606175
  H 5.427740 -0.351915 -0.303652
  H 5.035038 -2.439150 -3.723759
  H 5.060973 -0.800220 -4.305382
  H 2.717082 -0.425221 -3.465488
  H 2.689290 -2.116807 -2.848351
  H 3.047945 -1.295745 -5.768815
  H 1.578542 -1.946092 -5.040637
  H 3.021311 -2.953923 -5.158887
 25
 62.972587
  H 1.570091 -0.167866 0.497637
  C 2.638564 0.014024 0.458118
  C 3.183220 0.779783 1.636182
  C 2.108298 1.111891 2.652981
  H 2.545190 1.647455 3.484931
  C 3.331387 -0.398926 -0.562014
  C 4.705949 -0.634799 -1.097351
  C 5.278516 -1.006963 -2.248836
  C 4.648900 -1.437532 -3.531697
  C 3.123992 -1.432530 -3.603003
  C 2.656439 -1.905525 -4.972152
  H 6.360260 -1.017542 -2.273217
  H 3.658288 1.696790 1.279232
  H 3.960783 0.165423 2.098854
  H 1.645028 0.213084 3.038989
  H 1.340838 1.740254 2.220477
  H 3.529146 -0.830931 -1.563545
  H 5.413822 -0.414577 -0.288422
  H 5.026562 -2.442042 -3.764396
  H 5.054198 -0.789591 -4.320218
  H 2.734237 -0.426255 -3.447738
  H 2.701169 -2.111627 -2.860109
  H 3.030880 -1.257062 -5.750837
  H 1.577585 -1.904013 -5.022933
  H 3.001891 -2.909821 -5.171153
 25
 67.244293
  H 1.571203 -0.250137 0.551035
  C 2.637513 -0.026882 0.486566
  C 3.173365 0.814481 1.629539
  C 2.095446 1.146680 2.657223
  H 2.524039 1.738384 3.462982
  C 3.322733 -0.454527 -0.527177
  C 4.707733 -0.690743 -1.094103
  C 5.283312 -1.035476 -2.262320
  C 4.653677 -1.433943 -3.544195
  C 3.130785 -1.425174 -3.606983
  C 2.649594 -1.871985 -4.991245
  H 6.361977 -1.040906 -2.286620
  H 3.603972 1.738871 1.221366
  H 3.985140 0.252232 2.107829
  H 1.675711 0.243050 3.090910
  H 1.291362 1.725872 2.210183
  H 3.573683 -0.916215 -1.521263
  H 5.408317 -0.483265 -0.267817
  H 5.025650 -2.430304 -3.798307
  H 5.050619 -0.773091 -4.316398
  H 2.746387 -0.420551 -3.424698
  H 2.710085 -2.118634 -2.871989
  H 3.024141 -1.202439 -5.767835
  H 1.560182 -1.867300 -5.036452
  H 2.994431 -2.882676 -5.215131
 25
 70.518588
  H 1.573607 -0.325251 0.619974
  C 2.627720 -0.068004 0.517249
  C 3.161766 0.841426 1.602024
  C 2.103370 1.176485 2.639185
  H 2.527834 1.818332 3.403063
  C 3.299740 -0.514045 -0.497495
  C 4.693338 -0.740048 -1.076303
  C 5.277481 -1.051130 -2.249419
  C 4.651156 -1.424392 -3.544763
  C 3.127928 -1.417403 -3.609795
  C 2.650054 -1.833026 -5.004802
  H 6.356755 -1.052190 -2.265194
  H 3.540834 1.758933 1.141786
  H 4.008036 0.334222 2.080509
  H 1.734230 0.282512 3.121584
  H 1.268454 1.700258 2.191071
  H 3.606112 -0.998847 -1.480383
  H 5.382604 -0.558560 -0.237681
  H 5.026919 -2.416202 -3.821812
  H 5.047122 -0.743677 -4.302769
  H 2.741402 -0.413494 -3.400519
  H 2.705714 -2.128749 -2.886624
  H 3.021980 -1.150183 -5.760956
  H 1.568192 -1.829206 -5.052221
  H 2.993895 -2.830847 -5.250588
 25
 72.939025
  H 1.586114 -0.410005 0.694377
  C 2.617130 -0.120823 0.544170
  C 3.149935 0.871233 1.561731
  C 2.109453 1.218921 2.623133
  H 2.532587 1.921066 3.338144
  C 3.272208 -0.589678 -0.470341
  C 4.671653 -0.803783 -1.057545
  C 5.271362 -1.075218 -2.240972
  C 4.653645 -1.412058 -3.544113
  C 3.130301 -1.408733 -3.609006
  C 2.654026 -1.779959 -5.006636
  H 6.353537 -1.071639 -2.248148
  H 3.472028 1.778889 1.038631
  H 4.033958 0.427633 2.033603
  H 1.794428 0.331229 3.169731
  H 1.232547 1.684042 2.176419
  H 3.628800 -1.101686 -1.448884
  H 5.349381 -0.653567 -0.210140
  H 5.033237 -2.391357 -3.849575
  H 5.048603 -0.707419 -4.282502
  H 2.743119 -0.419783 -3.368483
  H 2.713982 -2.138226 -2.910662
  H 3.023699 -1.070066 -5.743222
  H 1.567581 -1.777948 -5.051704
  H 3.002241 -2.772318 -5.284735
 25
 74.635321
  H 1.610506 -0.503656 0.778265
  C 2.616696 -0.181206 0.577790
  C 3.133911 0.898651 1.508058
  C 2.117028 1.264316 2.576107
  H 2.526767 2.030394 3.227775
  C 3.264012 -0.677925 -0.428286
  C 4.663864 -0.877261 -1.024554
  C 5.275090 -1.104101 -2.217802
  C 4.657870 -1.396094 -3.532833
  C 3.127860 -1.394944 -3.595592
  C 2.645893 -1.711458 -5.014380
  H 6.351194 -1.090787 -2.218722
  H 3.392861 1.778299 0.919231
  H 4.052709 0.530329 1.974615
  H 1.865875 0.405285 3.186636
  H 1.206427 1.654757 2.132372
  H 3.665289 -1.226564 -1.400233
  H 5.334803 -0.748762 -0.167574
  H 5.041492 -2.358707 -3.875753
  H 5.049027 -0.665236 -4.244571
  H 2.735300 -0.408512 -3.308773
  H 2.712460 -2.157098 -2.922969
  H 3.010248 -0.972877 -5.720990
  H 1.563228 -1.710942 -5.056969
  H 2.994207 -2.686509 -5.333779
 25
 75.483826
  H 1.649947 -0.584546 0.829199
  C 2.641328 -0.233834 0.603298
  C 3.116933 0.926034 1.458441
  C 2.090255 1.310657 2.515414
  H 2.468158 2.133786 3.113804
  C 3.301631 -0.752376 -0.383635
  C 4.687707 -0.959322 -1.006493
  C 5.290818 -1.140303 -2.218707
  C 4.655983 -1.384140 -3.530986
  C 3.132280 -1.361767 -3.570508
  C 2.627515 -1.628106 -4.983920
  H 6.373740 -1.127371 -2.228442
  H 3.331274 1.783487 0.809025
  H 4.058479 0.630710 1.938135
  H 1.884693 0.478489 3.182296
  H 1.157710 1.629309 2.058092
  H 3.724164 -1.351601 -1.364849
  H 5.357211 -0.858485 -0.149411
  H 5.023901 -2.342318 -3.910603
  H 5.047606 -0.635653 -4.227924
  H 2.760605 -0.386074 -3.247523
  H 2.718159 -2.135119 -2.915623
  H 2.990257 -0.872499 -5.674353
  H 1.542808 -1.613386 -5.009428
  H 2.959566 -2.599278 -5.338265
 25
 75.736470
  H 1.692244 -0.619894 0.826179
  C 2.681903 -0.243299 0.601549
  C 3.105309 0.960956 1.426435
  C 2.043532 1.346567 2.451568
  H 2.382425 2.199754 3.029774
  C 3.382453 -0.772786 -0.347709
  C 4.735728 -1.027016 -0.994026
  C 5.319623 -1.178328 -2.227142
  C 4.658162 -1.378738 -3.531974
  C 3.124994 -1.329898 -3.545081
  C 2.590144 -1.552284 -4.950868
  H 6.395091 -1.180548 -2.251397
  H 3.304648 1.796901 0.757974
  H 4.040763 0.714181 1.930701
  H 1.851225 0.531176 3.139586
  H 1.111746 1.619660 1.966361
  H 3.801258 -1.444883 -1.334444
  H 5.412281 -0.941075 -0.141470
  H 5.002718 -2.329900 -3.942967
  H 5.050338 -0.621193 -4.215325
  H 2.779204 -0.360490 -3.191075
  H 2.712302 -2.108048 -2.902700
  H 2.954276 -0.784170 -5.630618
  H 1.502747 -1.518358 -4.955558
  H 2.898743 -2.520300 -5.334773
