 12
 0.000000
  C 0.909244 0.051347 0.215525
  C 2.398414 0.060202 0.044822
  H 2.981639 0.010684 0.952510
  C 3.022606 0.126807 -1.120860
  C 2.373535 0.202273 -2.463927
  H 1.290451 0.197863 -2.399443
  H 4.105646 0.128979 -1.148989
  H 0.642461 -0.014982 1.266779
  H 0.463420 -0.800110 -0.296658
  H 0.467060 0.963498 -0.186496
  H 2.694663 -0.641700 -3.077950
  H 2.693307 1.110689 -2.978611
 12
 5.940888
  C 0.902354 0.004806 0.231187
  C 2.359645 0.062719 0.042808
  H 2.990252 0.019233 0.975646
  C 2.997725 0.141865 -1.115005
  C 2.358400 0.199726 -2.467431
  H 1.274892 0.163432 -2.406351
  H 4.079649 0.178357 -1.123525
  H 0.595037 -0.020029 1.272997
  H 0.409020 -0.803821 -0.309485
  H 0.717847 0.966710 -0.228326
  H 2.700525 -0.635120 -3.078395
  H 2.650910 1.117181 -2.977862
 12
 18.617423
  C 0.891873 -0.018118 0.240195
  C 2.333691 0.057291 0.050671
  H 2.985899 0.008847 0.973435
  C 2.976289 0.154990 -1.105674
  C 2.344195 0.189927 -2.463374
  H 1.257872 0.109924 -2.413405
  H 4.050951 0.242410 -1.107308
  H 0.560422 -0.013054 1.264070
  H 0.373455 -0.768827 -0.348198
  H 0.941057 0.947254 -0.220176
  H 2.724134 -0.634348 -3.072557
  H 2.604724 1.123577 -2.974705
 12
 33.148058
  C 0.872529 -0.041447 0.249849
  C 2.315162 0.076007 0.044227
  H 2.968337 0.044649 0.968953
  C 2.969410 0.170352 -1.109872
  C 2.341999 0.182842 -2.468552
  H 1.263452 0.092713 -2.417852
  H 4.044279 0.272273 -1.103362
  H 0.536266 -0.055367 1.272457
  H 0.334783 -0.729917 -0.380430
  H 1.099464 0.926975 -0.168535
  H 2.728834 -0.644613 -3.070626
  H 2.591901 1.115040 -2.991639
 12
 45.690302
  C 0.858427 -0.056976 0.260858
  C 2.299498 0.090038 0.035290
  H 2.930504 0.072023 0.964278
  C 2.970088 0.186145 -1.115378
  C 2.346686 0.170414 -2.484223
  H 1.267429 0.061673 -2.430518
  H 4.049941 0.312248 -1.094054
  H 0.536593 -0.111543 1.289190
  H 0.285583 -0.668020 -0.415643
  H 1.230325 0.921041 -0.086207
  H 2.746137 -0.653787 -3.078434
  H 2.577694 1.095797 -3.017579
 12
 54.292655
  C 0.846230 -0.078008 0.267221
  C 2.291957 0.110327 0.027960
  H 2.917323 0.120659 0.967220
  C 2.970892 0.204629 -1.126981
  C 2.353976 0.156232 -2.490450
  H 1.272364 0.039686 -2.435715
  H 4.038371 0.338916 -1.101475
  H 0.535493 -0.206422 1.289552
  H 0.244064 -0.575565 -0.463951
  H 1.332891 0.922692 0.013016
  H 2.759688 -0.677388 -3.067738
  H 2.575683 1.073122 -3.043819
 12
 61.367875
  C 0.841792 -0.097525 0.273817
  C 2.283865 0.131480 0.029850
  H 2.898575 0.145456 0.966391
  C 2.970296 0.216420 -1.131902
  C 2.357217 0.147000 -2.495054
  H 1.280825 0.023899 -2.441290
  H 4.041211 0.368312 -1.101558
  H 0.534964 -0.270554 1.286540
  H 0.216702 -0.506056 -0.494063
  H 1.417676 0.925816 0.079884
  H 2.771710 -0.698193 -3.068507
  H 2.570005 1.052585 -3.057017
 12
 66.919330
  C 0.841709 -0.129734 0.279218
  C 2.277386 0.156416 0.031823
  H 2.903154 0.171118 0.972633
  C 2.972063 0.219690 -1.135369
  C 2.363964 0.139616 -2.498695
  H 1.282893 0.018213 -2.447462
  H 4.037814 0.377183 -1.102070
  H 0.526894 -0.318640 1.286097
  H 0.203330 -0.459610 -0.513418
  H 1.472495 0.934310 0.116499
  H 2.773560 -0.702543 -3.052849
  H 2.582068 1.042135 -3.075724
 12
 72.013575
  C 0.844793 -0.157438 0.278137
  C 2.275400 0.171347 0.042735
  H 2.897299 0.181274 0.979318
  C 2.974050 0.224287 -1.133558
  C 2.364224 0.139159 -2.494899
  H 1.286360 0.020408 -2.441941
  H 4.044014 0.386330 -1.098715
  H 0.516624 -0.330436 1.280879
  H 0.207444 -0.449006 -0.528022
  H 1.529012 0.947378 0.118593
  H 2.772318 -0.710432 -3.051484
  H 2.582855 1.039080 -3.075514
 12
 75.689339
  C 0.847895 -0.187039 0.275153
  C 2.274115 0.183989 0.052248
  H 2.902146 0.176990 0.988601
  C 2.976749 0.230067 -1.133333
  C 2.367596 0.137633 -2.492557
  H 1.289430 0.013594 -2.439854
  H 4.044210 0.402414 -1.096699
  H 0.505579 -0.338256 1.276508
  H 0.206811 -0.437107 -0.540461
  H 1.581769 0.975594 0.120874
  H 2.778729 -0.711547 -3.044442
  H 2.581701 1.033865 -3.079190
 12
 77.595627
  C 0.862845 -0.241146 0.274706
  C 2.269057 0.204754 0.059846
  H 2.900847 0.189179 0.993725
  C 2.982037 0.232223 -1.133309
  C 2.372161 0.142123 -2.491017
  H 1.292168 0.031057 -2.438215
  H 4.048508 0.400042 -1.094206
  H 0.496121 -0.337387 1.274647
  H 0.208928 -0.449335 -0.543489
  H 1.621399 1.016332 0.114016
  H 2.771742 -0.713299 -3.038615
  H 2.598307 1.031266 -3.082009
 12
 78.485447
  C 0.879330 -0.296277 0.272077
  C 2.262200 0.221803 0.071024
  H 2.893077 0.195984 1.000268
  C 2.984679 0.237364 -1.132347
  C 2.373806 0.147663 -2.487330
  H 1.292746 0.047691 -2.433151
  H 4.052161 0.404681 -1.090185
  H 0.490134 -0.328354 1.268060
  H 0.220072 -0.465233 -0.552019
  H 1.671728 1.066247 0.101182
  H 2.762745 -0.713829 -3.031292
  H 2.610113 1.030263 -3.083626
 12
 77.158053
  C 0.902924 -0.359749 0.274135
  C 2.247889 0.238734 0.080101
  H 2.882779 0.184542 0.999516
  C 2.985811 0.247497 -1.132940
  C 2.376654 0.153447 -2.486164
  H 1.294978 0.061011 -2.431053
  H 4.051127 0.430241 -1.087450
  H 0.475524 -0.316411 1.257001
  H 0.227895 -0.477621 -0.550185
  H 1.739326 1.140569 0.091121
  H 2.760798 -0.715942 -3.021020
  H 2.621036 1.028275 -3.090297
 12
 76.535955
  C 0.917828 -0.392605 0.272630
  C 2.237598 0.259561 0.088665
  H 2.874828 0.184723 1.001675
  C 2.987560 0.262191 -1.133753
  C 2.378623 0.160931 -2.483858
  H 1.296586 0.071608 -2.425780
  H 4.048518 0.465739 -1.084617
  H 0.466441 -0.307989 1.244241
  H 0.245513 -0.498956 -0.558881
  H 1.810742 1.201667 0.081532
  H 2.758592 -0.713633 -3.011691
  H 2.626796 1.029382 -3.096451
