 20
 0.000000
  H 1.433624 0.195950 0.539865
  C 2.498331 0.137802 0.394685
  H 3.141712 0.460260 1.196541
  C 3.006397 -0.334233 -0.780598
  C 4.393060 -0.414945 -0.982343
  C 5.105970 -0.865146 -2.105183
  C 4.611376 -1.384530 -3.400286
  C 3.125879 -1.507238 -3.707225
  C 2.933188 -2.071298 -5.113111
  O 6.412091 -0.847815 -2.062277
  H 2.324519 -0.644425 -1.552757
  H 4.994830 -0.078277 -0.143512
  H 5.080866 -2.368394 -3.528823
  H 5.081545 -0.762753 -4.173130
  H 2.644575 -0.529796 -3.661684
  H 2.644113 -2.181946 -2.998829
  H 3.381339 -1.421464 -5.860787
  H 1.874137 -2.161918 -5.339644
  H 3.381011 -3.057834 -5.204162
  H 6.791143 -0.512936 -1.225337
 20
 1.712146
  H 1.412959 0.284600 0.537334
  C 2.464762 0.090717 0.419737
  H 3.080780 0.176561 1.296152
  C 2.986492 -0.257193 -0.790076
  C 4.363043 -0.482748 -0.939662
  C 5.086707 -0.888333 -2.070776
  C 4.597311 -1.362380 -3.383979
  C 3.111750 -1.511453 -3.682902
  C 2.918237 -2.147758 -5.058010
  O 6.391968 -0.951354 -1.989056
  H 2.324520 -0.355079 -1.633262
  H 4.962752 -0.325533 -0.047167
  H 5.094197 -2.322391 -3.566023
  H 5.051663 -0.698508 -4.130968
  H 2.624588 -0.534793 -3.688636
  H 2.634492 -2.148391 -2.936403
  H 3.365357 -1.537016 -5.838389
  H 1.862563 -2.251043 -5.278378
  H 3.365789 -3.135855 -5.098278
  H 6.827488 -0.352564 -1.352424
 20
 7.070764
  H 1.388309 0.328563 0.504097
  C 2.426928 0.061968 0.408991
  H 3.004967 -0.002385 1.317718
  C 2.982252 -0.187583 -0.808472
  C 4.346172 -0.499350 -0.926700
  C 5.081725 -0.875207 -2.054760
  C 4.602012 -1.343194 -3.368847
  C 3.119551 -1.488598 -3.674314
  C 2.924945 -2.163942 -5.029560
  O 6.393775 -0.997103 -1.918487
  H 2.365504 -0.115653 -1.689149
  H 4.924667 -0.476038 -0.009361
  H 5.104287 -2.304417 -3.549885
  H 5.062745 -0.680999 -4.115146
  H 2.641360 -0.509139 -3.710323
  H 2.630712 -2.094122 -2.909754
  H 3.381342 -1.582030 -5.826361
  H 1.866504 -2.263246 -5.251503
  H 3.362092 -3.158332 -5.038379
  H 6.905579 -0.215574 -1.643943
 20
 11.416886
  H 1.360198 0.299595 0.546142
  C 2.413857 0.108066 0.437815
  H 3.027291 0.215388 1.316878
  C 2.944317 -0.261387 -0.760645
  C 4.324419 -0.494605 -0.891597
  C 5.063282 -0.910817 -2.001195
  C 4.605319 -1.373859 -3.320181
  C 3.131584 -1.492947 -3.670261
  C 2.964626 -2.110055 -5.056428
  O 6.382252 -1.032045 -1.802743
  H 2.291927 -0.358498 -1.612441
  H 4.923857 -0.332799 -0.002235
  H 5.094417 -2.347810 -3.479457
  H 5.094292 -0.734891 -4.069951
  H 2.663163 -0.508591 -3.677240
  H 2.618453 -2.125871 -2.944499
  H 3.444003 -1.500887 -5.817869
  H 1.910618 -2.190214 -5.307727
  H 3.393584 -3.108086 -5.096107
  H 6.968625 -0.286994 -1.995453
 20
 7.371393
  H 1.339045 0.274176 0.529864
  C 2.400675 0.142207 0.413837
  H 3.021227 0.364075 1.265682
  C 2.931627 -0.301046 -0.756019
  C 4.315756 -0.479275 -0.885886
  C 5.073676 -0.909515 -1.982959
  C 4.636278 -1.362468 -3.318478
  C 3.160947 -1.474681 -3.681830
  C 3.011211 -2.065239 -5.082765
  O 6.375523 -0.981221 -1.741480
  H 2.272632 -0.507437 -1.581795
  H 4.917232 -0.214290 -0.021192
  H 5.113181 -2.344296 -3.463345
  H 5.123576 -0.731204 -4.074246
  H 2.690976 -0.489947 -3.675192
  H 2.644592 -2.124382 -2.975019
  H 3.496278 -1.439439 -5.827818
  H 1.959708 -2.144077 -5.346503
  H 3.444102 -3.060787 -5.136717
  H 6.947625 -0.500801 -2.363361
 20
 2.061432
  H 1.311774 0.236584 0.568940
  C 2.376223 0.199869 0.416044
  H 3.000596 0.628918 1.182613
  C 2.910831 -0.363132 -0.704373
  C 4.297824 -0.411502 -0.886259
  C 5.062634 -0.874225 -1.976039
  C 4.645374 -1.344236 -3.313165
  C 3.168303 -1.483638 -3.663890
  C 3.019293 -1.998385 -5.093929
  O 6.337543 -0.861783 -1.701443
  H 2.248261 -0.779099 -1.444944
  H 4.919096 -0.011420 -0.080722
  H 5.134174 -2.315118 -3.471599
  H 5.107715 -0.679205 -4.055165
  H 2.668185 -0.517523 -3.590704
  H 2.685482 -2.191962 -2.990575
  H 3.472371 -1.313445 -5.806832
  H 1.967870 -2.098567 -5.349682
  H 3.485631 -2.973776 -5.210076
  H 7.032295 -0.878947 -2.390528
 20
 1.126350
  H 1.304479 0.224299 0.569892
  C 2.368246 0.200574 0.410393
  H 2.991365 0.660351 1.159793
  C 2.903556 -0.373988 -0.702674
  C 4.289593 -0.399401 -0.899237
  C 5.056469 -0.848552 -1.993816
  C 4.649812 -1.327786 -3.329196
  C 3.172175 -1.508952 -3.660674
  C 3.016173 -2.006945 -5.095489
  O 6.324120 -0.794682 -1.710115
  H 2.244479 -0.819979 -1.428714
  H 4.926504 -0.049200 -0.088034
  H 5.163850 -2.281436 -3.504930
  H 5.081017 -0.632964 -4.062721
  H 2.642813 -0.561090 -3.562516
  H 2.723564 -2.242253 -2.990039
  H 3.436186 -1.297516 -5.804606
  H 1.964513 -2.136795 -5.336408
  H 3.511147 -2.965347 -5.233679
  H 7.030971 -1.056906 -2.331393
 20
 2.358132
  H 1.391463 0.475435 0.487570
  C 2.449619 0.436701 0.298505
  H 3.081742 1.085298 0.882598
  C 2.965123 -0.370325 -0.667461
  C 4.339594 -0.382707 -0.939462
  C 5.078471 -0.900603 -2.029607
  C 4.643277 -1.398037 -3.346418
  C 3.151832 -1.589228 -3.604994
  C 2.922866 -2.088000 -5.030019
  O 6.345875 -0.789351 -1.780914
  H 2.304199 -1.015876 -1.224315
  H 5.055383 0.004656 -0.197820
  H 5.151056 -2.351681 -3.533508
  H 5.038805 -0.698230 -4.093624
  H 2.621843 -0.646063 -3.472048
  H 2.745558 -2.326490 -2.912107
  H 3.309224 -1.379745 -5.760109
  H 1.859240 -2.213940 -5.218322
  H 3.406378 -3.049184 -5.191566
  H 7.051723 -1.154883 -2.377296
 20
 8.922648
  H 1.303340 0.297234 0.501552
  C 2.355815 0.293408 0.315935
  H 2.965690 0.974930 0.891305
  C 2.902934 -0.510774 -0.634731
  C 4.263116 -0.481295 -0.907041
  C 5.049155 -0.924687 -2.002696
  C 4.692444 -1.325139 -3.364904
  C 3.206847 -1.508668 -3.661860
  C 2.988161 -1.989402 -5.092998
  O 6.301609 -0.762871 -1.667366
  H 2.275200 -1.168202 -1.205537
  H 5.036954 -0.197285 -0.201306
  H 5.202363 -2.267875 -3.583145
  H 5.117636 -0.584934 -4.052890
  H 2.666449 -0.576373 -3.509525
  H 2.792828 -2.247111 -2.972418
  H 3.393242 -1.275430 -5.804229
  H 1.931201 -2.096906 -5.300888
  H 3.478126 -2.940372 -5.267135
  H 7.051556 -1.067442 -2.208306
 20
 38.018631
  H 1.344574 0.411105 0.665035
  C 2.377408 0.412677 0.362278
  H 2.997883 1.210031 0.735468
  C 2.861345 -0.537372 -0.480128
  C 4.169497 -0.524375 -0.967037
  C 4.958409 -0.935245 -2.037400
  C 4.688067 -1.319249 -3.426360
  C 3.202587 -1.535916 -3.723036
  C 3.019048 -1.972735 -5.173570
  O 6.199010 -0.756000 -1.594409
  H 2.223140 -1.368301 -0.764698
  H 5.255899 -0.266088 -0.424341
  H 5.233149 -2.244755 -3.642490
  H 5.093160 -0.563919 -4.107637
  H 2.646267 -0.618605 -3.543736
  H 2.831459 -2.333627 -3.079339
  H 3.408232 -1.216755 -5.853181
  H 1.970494 -2.137504 -5.401450
  H 3.566007 -2.892103 -5.370675
  H 7.014091 -1.183261 -1.932509
 20
 61.467942
  H 1.410164 0.455212 0.795872
  C 2.405069 0.465751 0.388876
  H 3.037058 1.291922 0.665903
  C 2.833086 -0.521443 -0.432624
  C 4.082989 -0.561125 -1.024031
  C 4.866810 -0.936856 -2.017982
  C 4.669090 -1.325862 -3.430805
  C 3.199029 -1.561822 -3.775217
  C 3.043347 -1.992243 -5.228737
  O 6.176634 -0.725329 -1.525787
  H 2.188716 -1.381866 -0.596140
  H 5.547285 -0.320867 -0.531843
  H 5.231149 -2.246717 -3.612262
  H 5.079319 -0.553694 -4.087812
  H 2.632583 -0.644611 -3.607956
  H 2.789864 -2.335996 -3.125549
  H 3.430803 -1.230916 -5.901933
  H 1.995073 -2.150833 -5.467764
  H 3.576305 -2.921096 -5.418734
  H 6.972021 -1.192152 -1.869611
 20
 49.698558
  H 1.247797 0.296223 0.830035
  C 2.243901 0.330376 0.428692
  H 2.866318 1.150206 0.741415
  C 2.680718 -0.613699 -0.433925
  C 3.925675 -0.638054 -1.020918
  C 4.788221 -0.928017 -1.947781
  C 4.693679 -1.262935 -3.392595
  C 3.256156 -1.532764 -3.834294
  C 3.203932 -1.907894 -5.310829
  O 6.144575 -0.696883 -1.428067
  H 2.036484 -1.466073 -0.642765
  H 5.817515 -0.396498 -0.529830
  H 5.295385 -2.156434 -3.578853
  H 5.109899 -0.446717 -3.989764
  H 2.648081 -0.642609 -3.665639
  H 2.836147 -2.345720 -3.240739
  H 3.604278 -1.107109 -5.928483
  H 2.178091 -2.090601 -5.620244
  H 3.779516 -2.810498 -5.503493
  H 6.935816 -1.149174 -1.795038
 20
 39.564390
  H 1.291909 0.400125 0.827707
  C 2.237604 0.424458 0.322577
  H 2.791568 1.344088 0.361724
  C 2.701444 -0.664617 -0.349951
  C 3.876632 -0.719650 -1.034277
  C 4.783853 -0.970759 -1.915909
  C 4.674752 -1.288355 -3.372000
  C 3.231743 -1.545349 -3.801812
  C 3.161335 -1.890194 -5.282348
  O 6.173156 -0.769254 -1.499312
  H 2.133099 -1.588943 -0.299226
  H 6.182321 -0.453556 -0.568344
  H 5.267539 -2.184298 -3.579902
  H 5.081132 -0.460788 -3.959118
  H 2.626446 -0.658789 -3.605927
  H 2.816085 -2.369384 -3.218415
  H 3.555156 -1.078101 -5.888600
  H 2.132114 -2.065023 -5.582568
  H 3.733090 -2.790726 -5.499471
  H 6.907074 -1.243800 -1.945235
 20
 39.712624
  H 1.260674 0.465175 0.644313
  C 2.214460 0.473367 0.143175
  H 2.732558 1.416193 0.089779
  C 2.766219 -0.670920 -0.351496
  C 3.966743 -0.734503 -0.988656
  C 4.836117 -1.015901 -1.898208
  C 4.667062 -1.368202 -3.337140
  C 3.202426 -1.533201 -3.728118
  C 3.076314 -1.832505 -5.199880
  O 6.259967 -0.937569 -1.495616
  H 2.277114 -1.611134 -0.152412
  H 6.364424 -0.499241 -0.642590
  H 5.206958 -2.330024 -3.526272
  H 5.087316 -0.616683 -3.940921
  H 2.684258 -0.630995 -3.519917
  H 2.726939 -2.346698 -3.129048
  H 3.527489 -1.029778 -5.770052
  H 2.031421 -1.904690 -5.478551
  H 3.561786 -2.769021 -5.476729
  H 6.990562 -0.967451 -2.175985
 20
 36.976805
  H 1.340853 0.521731 0.758709
  C 2.298086 0.489205 0.264170
  H 2.888925 1.393008 0.271641
  C 2.727458 -0.643620 -0.354678
  C 3.915739 -0.774721 -1.005424
  C 4.817585 -1.057962 -1.881026
  C 4.672336 -1.412951 -3.333390
  C 3.209780 -1.521959 -3.767719
  C 3.108660 -1.885872 -5.245358
  O 6.243287 -1.028561 -1.496724
  H 2.116367 -1.540332 -0.287722
  H 6.342051 -0.599904 -0.612673
  H 5.165639 -2.376775 -3.490690
  H 5.166056 -0.663595 -3.958355
  H 2.702334 -0.571663 -3.591952
  H 2.704567 -2.284380 -3.172513
  H 3.583807 -1.128619 -5.866088
  H 2.066700 -1.962526 -5.547426
  H 3.586975 -2.841642 -5.442561
  H 6.783600 -0.552642 -2.174541
