 23
 0.000000
  H 1.409653 0.150220 0.428438
  C 2.488306 0.139963 0.400973
  C 3.237877 0.611232 1.570471
  H 2.609363 0.939816 2.388359
  C 3.067172 -0.327844 -0.763002
  C 4.445299 -0.414427 -0.979874
  C 5.124691 -0.868325 -2.112070
  C 4.616430 -1.387882 -3.408126
  C 3.125470 -1.503776 -3.698572
  C 2.910966 -2.066257 -5.101660
  O 6.439963 -0.864490 -2.102942
  H 3.892749 1.436361 1.279900
  H 3.894169 -0.184131 1.932065
  H 2.396331 -0.641833 -1.543455
  H 5.068101 -0.083283 -0.154963
  H 5.074913 -2.375537 -3.537354
  H 5.075631 -0.763525 -4.183846
  H 2.650108 -0.523668 -3.646688
  H 2.649466 -2.176272 -2.984110
  H 3.353324 -1.418134 -5.854472
  H 1.848163 -2.150719 -5.313342
  H 3.352784 -3.055201 -5.198110
  H 6.822674 -0.530408 -1.268461
 23
 0.272523
  H 1.414646 0.014284 0.530981
  C 2.493515 0.061616 0.437624
  C 3.227340 0.748528 1.505824
  H 2.556976 1.120462 2.275772
  C 3.053655 -0.521755 -0.685798
  C 4.421483 -0.523086 -0.939686
  C 5.119991 -0.950937 -2.078264
  C 4.614983 -1.406203 -3.401075
  C 3.120838 -1.520169 -3.684658
  C 2.896729 -1.970281 -5.131658
  O 6.432144 -0.901667 -2.071730
  H 3.804732 1.583700 1.107257
  H 3.956794 0.075583 1.965696
  H 2.383831 -1.000269 -1.374258
  H 5.048307 -0.131229 -0.147089
  H 5.089597 -2.375778 -3.592566
  H 5.066384 -0.730845 -4.140234
  H 2.632127 -0.554765 -3.540111
  H 2.664408 -2.258670 -3.023921
  H 3.326440 -1.254296 -5.835544
  H 1.827797 -2.050507 -5.343399
  H 3.352386 -2.945843 -5.312978
  H 6.846778 -0.712820 -1.205230
 23
 4.728012
  H 1.409906 -0.175485 0.572747
  C 2.474121 -0.045568 0.435526
  C 3.159320 0.897228 1.328235
  H 2.470519 1.360300 2.024883
  C 3.069183 -0.761504 -0.580165
  C 4.430047 -0.671578 -0.880337
  C 5.132113 -1.013945 -2.038556
  C 4.630876 -1.376416 -3.385990
  C 3.134247 -1.506554 -3.627091
  C 2.865419 -1.823479 -5.094920
  O 6.437459 -0.863880 -2.026123
  H 3.666624 1.677718 0.759543
  H 3.944815 0.384856 1.887448
  H 2.453157 -1.436878 -1.141812
  H 5.107921 -0.278484 -0.134078
  H 5.123584 -2.317011 -3.653893
  H 5.041669 -0.632674 -4.077019
  H 2.627384 -0.575339 -3.368257
  H 2.724453 -2.316115 -3.020168
  H 3.258411 -1.040650 -5.740654
  H 1.793897 -1.902023 -5.276073
  H 3.327000 -2.764449 -5.381112
  H 6.982274 -1.060107 -1.241308
 23
 15.178447
  H 1.402887 -0.247918 0.596237
  C 2.457607 -0.093002 0.421289
  C 3.126862 0.960427 1.189647
  H 2.443321 1.458642 1.868570
  C 3.064502 -0.874071 -0.524099
  C 4.413478 -0.758795 -0.855623
  C 5.135051 -1.064979 -2.012111
  C 4.670657 -1.374436 -3.379491
  C 3.166304 -1.456353 -3.598076
  C 2.862907 -1.728334 -5.065634
  O 6.424942 -0.890103 -1.925846
  H 3.570162 1.704374 0.526471
  H 3.961488 0.537265 1.752833
  H 2.482817 -1.648436 -0.997598
  H 5.193223 -0.401014 -0.196914
  H 5.130622 -2.325982 -3.664533
  H 5.095600 -0.614788 -4.044127
  H 2.704876 -0.509516 -3.314272
  H 2.738032 -2.252741 -2.992810
  H 3.274509 -0.945539 -5.697544
  H 1.790133 -1.765250 -5.232028
  H 3.290042 -2.677794 -5.381190
  H 7.149407 -1.087291 -1.318197
 23
 29.130213
  H 1.393435 -0.217183 0.648660
  C 2.445138 -0.078651 0.449343
  C 3.153240 0.951765 1.214477
  H 2.492662 1.463020 1.904675
  C 3.023821 -0.860825 -0.508915
  C 4.361129 -0.760455 -0.868701
  C 5.101673 -1.080943 -2.015670
  C 4.697155 -1.398830 -3.403625
  C 3.186204 -1.469862 -3.629364
  C 2.883467 -1.742269 -5.099735
  O 6.380386 -0.928435 -1.835417
  H 3.590075 1.691873 0.545070
  H 3.989975 0.511528 1.752968
  H 2.428542 -1.625234 -0.979991
  H 5.241530 -0.441201 -0.308110
  H 5.137944 -2.368821 -3.650358
  H 5.138344 -0.650150 -4.064957
  H 2.749784 -0.503554 -3.365536
  H 2.744864 -2.249383 -3.008724
  H 3.300582 -0.957888 -5.731690
  H 1.811060 -1.772494 -5.266615
  H 3.301047 -2.694156 -5.415225
  H 7.199615 -0.967731 -1.335688
 23
 52.107788
  H 1.356633 -0.144087 0.718915
  C 2.409498 -0.047532 0.506143
  C 3.154919 1.000440 1.213974
  H 2.507522 1.574504 1.873013
  C 2.959620 -0.890779 -0.416411
  C 4.279817 -0.799136 -0.849367
  C 5.018350 -1.081458 -2.010372
  C 4.689404 -1.329637 -3.427020
  C 3.185110 -1.477078 -3.657914
  C 2.891386 -1.741677 -5.131309
  O 6.305467 -0.967277 -1.721554
  H 3.657752 1.666236 0.510715
  H 3.940728 0.544273 1.820974
  H 2.366001 -1.716049 -0.787230
  H 5.323850 -0.534865 -0.417728
  H 5.180354 -2.267589 -3.697567
  H 5.093546 -0.522584 -4.038156
  H 2.692892 -0.543283 -3.374862
  H 2.789305 -2.287568 -3.053039
  H 3.251487 -0.928905 -5.751027
  H 1.815041 -1.819050 -5.286260
  H 3.336965 -2.676694 -5.462207
  H 7.154304 -1.006490 -1.280091
 23
 79.182757
  H 1.377308 -0.144648 0.875328
  C 2.412905 -0.044469 0.585567
  C 3.205273 1.008563 1.239985
  H 2.609808 1.586065 1.938959
  C 2.903143 -0.896045 -0.366609
  C 4.196737 -0.832544 -0.872395
  C 4.925108 -1.104808 -1.987942
  C 4.664915 -1.386681 -3.412246
  C 3.169124 -1.481440 -3.723607
  C 2.948371 -1.746105 -5.209049
  O 6.256450 -0.927891 -1.652842
  H 3.620745 1.678226 0.485608
  H 4.064097 0.576839 1.753177
  H 2.276789 -1.716340 -0.702981
  H 5.474027 -0.539763 -0.521637
  H 5.150257 -2.334906 -3.663217
  H 5.119020 -0.604005 -4.025411
  H 2.692886 -0.535149 -3.461998
  H 2.720643 -2.282358 -3.138053
  H 3.379143 -0.948121 -5.809278
  H 1.884743 -1.792651 -5.430959
  H 3.401754 -2.686675 -5.511916
  H 7.132036 -0.904863 -1.244145
 23
 85.066172
  H 1.383615 -0.103931 0.940182
  C 2.408381 -0.022408 0.610529
  C 3.241314 1.040942 1.215757
  H 2.668190 1.636342 1.918546
  C 2.851378 -0.895308 -0.332466
  C 4.119488 -0.876695 -0.895639
  C 4.837701 -1.131434 -1.957033
  C 4.633622 -1.379821 -3.396525
  C 3.153221 -1.485408 -3.761770
  C 2.981105 -1.738461 -5.254906
  O 6.253567 -0.976181 -1.551971
  H 3.636568 1.693071 0.436598
  H 4.095302 0.612990 1.738503
  H 2.201451 -1.716179 -0.624907
  H 5.651999 -0.620912 -0.616046
  H 5.146163 -2.312454 -3.652586
  H 5.106385 -0.583756 -3.978417
  H 2.643291 -0.560014 -3.490180
  H 2.695038 -2.303252 -3.204849
  H 3.410169 -0.926921 -5.838313
  H 1.926214 -1.813947 -5.505679
  H 3.467113 -2.665588 -5.550230
  H 7.134253 -0.939840 -1.127870
 23
 79.106610
  H 1.339670 0.038542 0.988668
  C 2.364532 0.042731 0.652842
  C 3.316553 0.920566 1.381147
  H 2.818564 1.469200 2.176022
  C 2.710064 -0.743034 -0.390858
  C 3.966784 -0.808292 -0.965678
  C 4.714692 -1.069513 -1.964336
  C 4.601046 -1.378969 -3.398971
  C 3.147478 -1.494486 -3.851414
  C 3.077968 -1.824034 -5.336752
  O 6.246290 -0.924917 -1.521411
  H 3.762769 1.633576 0.690144
  H 4.116069 0.332535 1.827854
  H 1.951697 -1.417457 -0.783419
  H 5.779609 -0.594946 -0.688930
  H 5.114206 -2.332008 -3.571319
  H 5.110793 -0.600419 -3.976013
  H 2.625832 -0.554211 -3.666562
  H 2.646386 -2.281823 -3.285588
  H 3.548563 -1.044754 -5.928883
  H 2.042450 -1.913740 -5.661018
  H 3.570683 -2.770653 -5.547173
  H 7.165819 -0.769250 -1.097044
 23
 77.101051
  H 1.333566 0.118849 1.007297
  C 2.362573 0.088892 0.683357
  C 3.356181 0.833171 1.501457
  H 2.878385 1.330634 2.340125
  C 2.671907 -0.617054 -0.420401
  C 3.930487 -0.730256 -0.993110
  C 4.681655 -1.024974 -1.987782
  C 4.603057 -1.397426 -3.405695
  C 3.156947 -1.527057 -3.886495
  C 3.118449 -1.927747 -5.356400
  O 6.225411 -0.888905 -1.521234
  H 3.853504 1.583400 0.888515
  H 4.114147 0.158351 1.894844
  H 1.880652 -1.191231 -0.900456
  H 5.783820 -0.552276 -0.693061
  H 5.116774 -2.356415 -3.527487
  H 5.133897 -0.655421 -4.008934
  H 2.639354 -0.575285 -3.758320
  H 2.638096 -2.281455 -3.293469
  H 3.610396 -1.181416 -5.974652
  H 2.090046 -2.023945 -5.697365
  H 3.611120 -2.884960 -5.510590
  H 7.175372 -0.655311 -1.217225
 23
 75.563368
  H 1.317361 0.260556 1.024583
  C 2.345768 0.197065 0.703867
  C 3.373105 0.817053 1.583529
  H 2.913410 1.268512 2.456857
  C 2.621809 -0.437453 -0.445876
  C 3.874639 -0.598104 -1.028988
  C 4.622499 -0.936025 -2.028637
  C 4.568560 -1.384122 -3.421559
  C 3.127974 -1.546726 -3.912787
  C 3.110197 -2.032517 -5.357084
  O 6.176889 -0.784233 -1.556606
  H 3.915601 1.588415 1.038923
  H 4.091622 0.072817 1.922151
  H 1.807451 -0.913084 -0.991284
  H 5.780845 -0.443082 -0.729484
  H 5.089694 -2.343922 -3.489126
  H 5.109182 -0.681907 -4.061580
  H 2.608057 -0.590181 -3.845713
  H 2.603599 -2.265196 -3.281909
  H 3.611213 -1.323000 -6.011009
  H 2.086728 -2.148692 -5.703363
  H 3.609764 -2.993903 -5.449127
  H 7.128365 -0.601817 -1.401939
