 9
 0.000000
  C 0.959160 -0.017829 -0.006420
  C 2.457099 0.006910 0.017494
  C 3.159583 0.809751 0.793439
  H 4.235359 0.817251 0.800687
  H 0.602860 -0.755865 -0.719731
  H 0.562714 0.953584 -0.296298
  H 0.562713 -0.274454 0.974302
  H 2.960207 -0.681618 -0.647976
  H 2.661730 1.497487 1.458142
 9
 8.742418
  C 0.930698 0.027257 0.018989
  C 2.388094 0.008309 0.029374
  C 3.155665 0.802215 0.781090
  H 4.227545 0.766108 0.746980
  H 0.874454 -0.765738 -0.687651
  H 0.484780 0.953699 -0.325041
  H 0.483038 -0.260357 0.979670
  H 2.895980 -0.661336 -0.660902
  H 2.722508 1.484978 1.491053
 9
 24.440033
  C 0.898469 0.034684 0.041610
  C 2.347542 0.008889 0.025444
  C 3.155383 0.785246 0.780029
  H 4.230875 0.729560 0.723616
  H 1.062010 -0.730432 -0.667758
  H 0.439471 0.950189 -0.330117
  H 0.438506 -0.268647 0.977900
  H 2.860328 -0.655303 -0.658872
  H 2.748537 1.494325 1.477439
 9
 43.082337
  C 0.865807 0.046586 0.052517
  C 2.324002 0.000713 0.014198
  C 3.155520 0.777123 0.766297
  H 4.228213 0.711840 0.700395
  H 1.198347 -0.692453 -0.629328
  H 0.411086 0.944623 -0.340654
  H 0.408564 -0.265915 0.980578
  H 2.861660 -0.659511 -0.662067
  H 2.760612 1.480101 1.479639
 9
 61.140400
  C 0.838778 0.052884 0.060396
  C 2.314599 -0.011511 0.002231
  C 3.151859 0.765097 0.756057
  H 4.225413 0.695041 0.687679
  H 1.306042 -0.653428 -0.591893
  H 0.393526 0.946907 -0.343333
  H 0.393195 -0.261515 0.988812
  H 2.877446 -0.665124 -0.673596
  H 2.758775 1.469863 1.469760
 9
 77.165225
  C 0.819400 0.059138 0.065914
  C 2.312400 -0.023827 -0.009365
  C 3.149150 0.755861 0.744840
  H 4.222429 0.685736 0.678615
  H 1.390319 -0.620566 -0.557083
  H 0.384049 0.950925 -0.348416
  H 0.390955 -0.251376 1.001910
  H 2.897610 -0.671998 -0.686574
  H 2.750989 1.452916 1.463485
 9
 90.853303
  C 0.801538 0.060173 0.070058
  C 2.311985 -0.038482 -0.020693
  C 3.147465 0.746807 0.739644
  H 4.223497 0.678681 0.681075
  H 1.456923 -0.600667 -0.532348
  H 0.383919 0.954174 -0.350175
  H 0.399034 -0.233930 1.018854
  H 2.918353 -0.670608 -0.706071
  H 2.742493 1.442749 1.454048
 9
 102.704613
  C 0.785961 0.060268 0.072234
  C 2.318989 -0.052960 -0.033710
  C 3.144790 0.739066 0.734444
  H 4.220660 0.674766 0.685235
  H 1.514299 -0.589182 -0.510555
  H 0.381750 0.952866 -0.362139
  H 0.424422 -0.195813 1.047785
  H 2.943934 -0.663702 -0.729925
  H 2.729448 1.421785 1.455417
 9
 112.726742
  C 0.769015 0.060150 0.077522
  C 2.330287 -0.069186 -0.048918
  C 3.144870 0.735310 0.733621
  H 4.223894 0.680952 0.693518
  H 1.562007 -0.593153 -0.491644
  H 0.375498 0.939534 -0.389402
  H 0.462092 -0.126481 1.085665
  H 2.971010 -0.649998 -0.767217
  H 2.715684 1.385476 1.475185
 9
 122.864481
  C 0.753077 0.060646 0.089940
  C 2.347703 -0.089990 -0.068973
  C 3.141751 0.724886 0.738404
  H 4.221093 0.679477 0.713282
  H 1.611320 -0.600760 -0.483327
  H 0.366808 0.922299 -0.413368
  H 0.520357 -0.040096 1.129800
  H 3.000288 -0.626020 -0.809106
  H 2.694034 1.356169 1.485903
 9
 134.060336
  C 0.727641 0.064046 0.112046
  C 2.366553 -0.108981 -0.096093
  C 3.134860 0.716249 0.741189
  H 4.213895 0.680639 0.730683
  H 1.667287 -0.619994 -0.489810
  H 0.362109 0.914093 -0.426722
  H 0.592665 0.061698 1.173755
  H 3.043174 -0.603637 -0.841911
  H 2.664307 1.321693 1.496625
 9
 144.888376
  C 0.676615 0.074116 0.159796
  C 2.388119 -0.141352 -0.127284
  C 3.102592 0.684115 0.742872
  H 4.181635 0.701919 0.725234
  H 1.739756 -0.679177 -0.526587
  H 0.400396 0.938061 -0.417920
  H 0.693044 0.199611 1.226167
  H 3.123485 -0.564024 -0.859668
  H 2.607461 1.269285 1.498103
 9
 126.143514
  C 0.230787 0.206019 0.259409
  C 2.789941 -0.311826 -0.270965
  C 3.166980 0.621299 0.605409
  H 4.204737 0.860442 0.742443
  H 1.873526 -0.690095 -0.475043
  H 0.431262 1.243696 -0.060336
  H 0.378407 0.191336 1.351169
  H 3.564997 -0.731251 -0.918384
  H 2.476969 1.192835 1.201340
 9
 104.087843
  C 0.523934 0.019691 0.070859
  C 2.667813 -0.095728 -0.122126
  C 3.279190 0.697674 0.720086
  H 4.358408 0.806807 0.702817
  H 1.549539 -0.426590 -0.229133
  H 0.475989 1.051491 -0.308621
  H 0.543196 0.108520 1.171443
  H 3.193909 -0.647752 -0.883911
  H 2.767613 1.273896 1.474100
