13

C 1.006698 -0.071797 0.047111
C 2.503042 -0.082618 0.025868
C 3.218739 -0.59532 -0.980653
C 4.658137 -0.605249 -1.000142
C 5.378218 -1.120642 -2.011946
H 6.448094232996449 -1.1280292744809208 -2.0264468360128913
H 0.644316 0.394375 0.962279
H 0.611286 -1.086581 0.008349
H 0.611287 0.4935 -0.796528
H 3.003251 0.352804 0.880677
H 2.704748 -1.029328 -1.832676
H 5.165728 -0.16986 -0.145405
H 4.873898 -1.555489 -2.865622
