13

H 3.587586132156246 -0.5976176662110836 -0.9851625575338372
C 4.657444 -0.605534 -1.000702
C 5.377524 -1.121235 -2.013108
C 6.815781 -1.130839 -2.031959
C 7.534274 -1.642585 -3.03661
C 9.024221 -1.661808 -3.074344
H 5.161698 -0.169888 -0.14546
H 4.873747 -1.556958 -2.868505
H 7.322271 -0.696354 -1.178992
H 7.035722 -2.078868 -3.893093
H 9.457856 -1.208632 -2.18469
H 9.38352 -1.115871 -3.948034
H 9.383522 -2.689517 -3.146452
