 13
 0.000000
  H 3.588505 -0.602206 -0.994173
  C 4.663169 -0.607436 -1.004437
  C 5.375237 -1.118227 -2.007200
  C 6.818475 -1.130126 -2.030556
  C 7.534917 -1.640393 -3.032303
  C 9.023888 -1.662271 -3.075252
  H 5.158041 -0.171281 -0.148197
  H 4.872783 -1.554413 -2.863506
  H 7.324346 -0.695804 -1.177913
  H 7.034384 -2.076078 -3.887619
  H 9.456961 -1.209422 -2.186236
  H 9.382230 -1.118574 -3.949952
  H 9.382229 -2.689474 -3.149767
 13
 1.863857
  H 3.604533 -0.825253 -0.926997
  C 4.674283 -0.688339 -0.958065
  C 5.382481 -1.034104 -2.028248
  C 6.826026 -1.030484 -2.076478
  C 7.534805 -1.602425 -3.047918
  C 9.026976 -1.697413 -3.071388
  H 5.104549 -0.125315 -0.150509
  H 4.879284 -1.429744 -2.900923
  H 7.336226 -0.592488 -1.218807
  H 7.024028 -2.062716 -3.878184
  H 9.457275 -1.250964 -2.183662
  H 9.427979 -1.193135 -3.947883
  H 9.335754 -2.743860 -3.119097
 13
 7.598655
  H 3.603876 -0.826358 -0.936543
  C 4.676923 -0.707871 -0.930444
  C 5.393291 -1.072587 -1.992024
  C 6.834067 -1.132779 -2.009235
  C 7.539401 -1.589621 -3.045291
  C 9.025514 -1.679783 -3.083348
  H 5.070362 0.040165 -0.277597
  H 4.888525 -1.415882 -2.873051
  H 7.341686 -0.754281 -1.133033
  H 7.020744 -2.009212 -3.896656
  H 9.479404 -1.237063 -2.196651
  H 9.408602 -1.171840 -3.972898
  H 9.327745 -2.720887 -3.164851
 13
 36.368030
  H 3.607079 -0.883528 -0.830500
  C 4.674469 -0.781796 -0.911598
  C 5.456366 -1.052771 -1.936657
  C 6.827572 -1.121148 -2.049635
  C 7.483034 -1.597449 -3.097508
  C 9.044681 -1.699191 -3.053923
  H 5.020839 0.143808 -0.452575
  H 4.891235 -1.371887 -2.818419
  H 7.372704 -0.806162 -1.146382
  H 7.080769 -1.916901 -3.935174
  H 9.455451 -1.266729 -2.176779
  H 9.420153 -1.180678 -3.943817
  H 9.274881 -2.744339 -3.168946
 13
 35.392500
  H 3.652623 -0.953014 -0.869565
  C 4.717929 -0.762763 -0.790011
  C 5.435555 -1.023977 -1.945119
  C 6.864645 -1.100545 -2.004735
  C 7.543062 -1.611900 -3.028178
  C 9.023072 -1.735999 -3.087982
  H 4.867143 0.285620 -0.651411
  H 4.931947 -1.397426 -2.805550
  H 7.362717 -0.776233 -1.095218
  H 6.991231 -1.912943 -3.914906
  H 9.482601 -1.413860 -2.153560
  H 9.398847 -1.117042 -3.910087
  H 9.333662 -2.764449 -3.267980
 13
 54.039980
  H 3.651094 -0.953366 -0.828743
  C 4.729625 -0.805735 -0.733354
  C 5.413210 -1.088306 -1.924270
  C 6.846305 -1.104156 -2.000085
  C 7.537395 -1.557948 -3.051172
  C 9.021651 -1.708279 -3.089920
  H 4.956429 0.241016 -0.890068
  H 4.889643 -1.358371 -2.800683
  H 7.363681 -0.716602 -1.127601
  H 7.012606 -1.957822 -3.910398
  H 9.443379 -1.396443 -2.131088
  H 9.463966 -1.128815 -3.894622
  H 9.275933 -2.765563 -3.180670
 13
 71.823405
  H 3.640640 -0.994697 -0.835738
  C 4.725940 -0.859149 -0.707911
  C 5.401966 -1.042005 -1.935948
  C 6.837663 -1.055290 -1.978531
  C 7.520029 -1.547274 -3.019217
  C 9.011635 -1.716958 -3.037692
  H 5.029805 0.114952 -1.056666
  H 4.929992 -1.319981 -2.827759
  H 7.338989 -0.717470 -1.092849
  H 6.983724 -1.892639 -3.895678
  H 9.496390 -1.225959 -2.194716
  H 9.427944 -1.303098 -3.962607
  H 9.258914 -2.764320 -3.043152
 13
 79.210561
  H 3.643137 -0.961956 -0.764646
  C 4.729687 -0.802505 -0.651529
  C 5.389527 -1.016531 -1.887802
  C 6.852075 -1.077691 -1.950372
  C 7.521630 -1.581816 -2.980833
  C 9.003127 -1.722240 -3.041928
  H 5.068330 0.121118 -1.532734
  H 4.903891 -1.393816 -2.798025
  H 7.372630 -0.727547 -1.069770
  H 6.982552 -1.939341 -3.850547
  H 9.475972 -1.260959 -2.178474
  H 9.389351 -1.260272 -3.950326
  H 9.277136 -2.776993 -3.069552
 13
 78.576736
  H 3.659272 -0.959800 -0.719083
  C 4.749164 -0.804394 -0.622279
  C 5.387436 -0.987784 -1.884308
  C 6.856059 -1.069733 -1.956466
  C 7.512633 -1.594900 -2.981468
  C 8.992785 -1.744031 -3.053400
  H 5.083440 0.132242 -1.724246
  H 4.889131 -1.408142 -2.769783
  H 7.384217 -0.704165 -1.085059
  H 6.965354 -1.961797 -3.842076
  H 9.475244 -1.272905 -2.199975
  H 9.373846 -1.295290 -3.970892
  H 9.261834 -2.802650 -3.069034
 13
 77.732447
  H 3.676189 -1.064103 -0.694686
  C 4.761367 -0.887845 -0.600017
  C 5.376739 -0.924411 -1.901369
  C 6.852144 -1.037816 -1.974113
  C 7.500714 -1.580215 -2.992061
  C 8.982073 -1.748252 -3.061199
  H 5.087016 0.175074 -1.845492
  H 4.875948 -1.387813 -2.763684
  H 7.382387 -0.672176 -1.108860
  H 6.951025 -1.956982 -3.846485
  H 9.466107 -1.325028 -2.182529
  H 9.375540 -1.256957 -3.952452
  H 9.235781 -2.803594 -3.130594
 13
 77.508129
  H 3.681519 -1.098183 -0.681580
  C 4.767969 -0.916271 -0.589394
  C 5.372922 -0.902041 -1.901622
  C 6.852603 -1.027085 -1.972406
  C 7.497713 -1.579653 -2.986904
  C 8.977429 -1.751386 -3.058137
  H 5.102563 0.191908 -1.897546
  H 4.875278 -1.375594 -2.759591
  H 7.386503 -0.656789 -1.108511
  H 6.945843 -1.953823 -3.841327
  H 9.460763 -1.335905 -2.177701
  H 9.372102 -1.256015 -3.945623
  H 9.229823 -2.809278 -3.133199
