17

C 1.007992 -0.072635 0.045465
C 2.504673 -0.082849 0.025415
C 3.219835 -0.595517 -0.981042
C 4.658306 -0.605418 -1.000476
C 5.377115 -1.121221 -2.013081
C 6.81604 -1.130305 -2.03091
C 7.532856 -1.642563 -3.036566
H 8.602438861122966 -1.656124583403779 -3.063185290891952
H 0.647541 0.394168 0.961875
H 0.612465 -1.087618 0.009013
H 0.612466 0.494648 -0.796975
H 3.003763 0.352954 0.880973
H 2.708497 -1.028903 -1.831838
H 5.162675 -0.170498 -0.146661
H 4.872777 -1.556128 -2.866878
H 7.323558 -0.696021 -1.178339
H 7.033891 -2.078806 -3.892968
