 17
 0.000000
  C 1.008440 -0.072282 0.046159
  C 2.504972 -0.082952 0.025212
  C 3.220546 -0.595281 -0.980579
  C 4.658085 -0.605772 -1.001170
  C 5.377375 -1.121543 -2.013712
  C 6.815416 -1.131269 -2.032802
  C 7.530074 -1.641975 -3.035411
  H 8.602189 -1.654450 -3.059898
  H 0.647674 0.394069 0.961681
  H 0.613187 -1.086825 0.008409
  H 0.613187 0.493693 -0.796690
  H 3.004523 0.352489 0.880060
  H 2.709749 -1.028565 -1.831174
  H 5.162466 -0.171044 -0.147734
  H 4.873082 -1.556217 -2.867051
  H 7.322512 -0.697045 -1.180350
  H 7.033411 -2.077867 -3.891127
 17
 -0.290796
  C 1.007096 -0.062309 0.058593
  C 2.500207 -0.103136 0.040707
  C 3.219970 -0.552439 -0.991277
  C 4.654156 -0.615905 -1.001537
  C 5.377225 -1.090447 -2.030827
  C 6.813326 -1.165297 -2.032392
  C 7.530188 -1.641698 -3.048553
  H 8.605517 -1.684882 -3.020145
  H 0.639202 0.510756 0.905383
  H 0.603463 -1.072830 0.134253
  H 0.619950 0.376298 -0.859591
  H 3.006720 0.236360 0.933460
  H 2.714462 -0.897493 -1.884642
  H 5.160938 -0.260871 -0.112516
  H 4.872823 -1.447667 -2.919701
  H 7.312586 -0.804519 -1.141018
  H 7.059330 -2.006677 -3.946217
 17
 -0.552081
  C 1.006570 -0.052398 0.051565
  C 2.498128 -0.104712 0.037533
  C 3.220703 -0.571302 -0.984376
  C 4.654980 -0.636025 -0.990433
  C 5.379665 -1.106551 -2.020137
  C 6.816505 -1.156903 -2.030519
  C 7.535259 -1.626186 -3.048862
  H 8.610949 -1.650152 -3.026314
  H 0.646983 0.678963 0.771345
  H 0.601252 -1.025402 0.336016
  H 0.615125 0.192768 -0.933716
  H 3.001574 0.243246 0.930273
  H 2.718331 -0.921041 -1.877996
  H 5.161321 -0.267363 -0.106781
  H 4.876150 -1.476524 -2.904026
  H 7.314628 -0.783928 -1.144047
  H 7.065510 -2.003292 -3.942767
 17
 -0.914613
  C 1.015011 -0.003373 0.046144
  C 2.492808 -0.192073 0.063994
  C 3.229408 -0.489029 -1.008554
  C 4.651002 -0.701546 -0.969998
  C 5.389327 -1.039546 -2.040544
  C 6.810240 -1.261152 -1.995515
  C 7.542630 -1.598077 -3.055414
  H 8.605887 -1.756052 -2.989376
  H 0.712433 0.749202 0.772931
  H 0.518017 -0.938025 0.316181
  H 0.667944 0.289237 -0.942263
  H 2.971927 -0.102349 1.031225
  H 2.752902 -0.583549 -1.975485
  H 5.132025 -0.583002 -0.006013
  H 4.911461 -1.159283 -3.003739
  H 7.283073 -1.138686 -1.028763
  H 7.098403 -1.724944 -4.028753
 17
 -1.197477
  C 1.022270 0.023965 0.040790
  C 2.490217 -0.226485 0.070122
  C 3.239680 -0.478483 -1.005532
  C 4.650940 -0.738148 -0.955468
  C 5.399886 -1.021796 -2.034969
  C 6.809796 -1.291488 -1.980852
  C 7.552745 -1.572988 -3.049766
  H 8.607257 -1.767971 -2.976673
  H 0.767790 0.880651 0.663063
  H 0.489827 -0.838158 0.442932
  H 0.674086 0.200939 -0.972949
  H 2.949687 -0.214869 1.047787
  H 2.779770 -0.497912 -1.986844
  H 5.115096 -0.705644 0.022411
  H 4.936438 -1.057970 -3.015270
  H 7.267240 -1.255261 -0.997572
  H 7.124356 -1.613002 -4.039137
 17
 -1.332427
  C 1.030579 0.059215 0.033657
  C 2.483623 -0.264191 0.069485
  C 3.242043 -0.483993 -1.006883
  C 4.643716 -0.791895 -0.946832
  C 5.412064 -1.011159 -2.027381
  C 6.815768 -1.316637 -1.962560
  C 7.577657 -1.535831 -3.032626
  H 8.626530 -1.762651 -2.950968
  H 0.844040 1.009241 0.534873
  H 0.461649 -0.705139 0.564290
  H 0.666023 0.121315 -0.988795
  H 2.928432 -0.318659 1.055664
  H 2.800447 -0.430912 -1.994406
  H 5.085482 -0.842551 0.040811
  H 4.972707 -0.961436 -3.015815
  H 7.249474 -1.364102 -0.971601
  H 7.171945 -1.494967 -4.030153
 17
 -1.222138
  C 1.030653 0.084453 0.026256
  C 2.463430 -0.320611 0.060093
  C 3.228561 -0.510195 -1.017636
  C 4.620802 -0.853832 -0.950705
  C 5.414133 -1.009290 -2.024179
  C 6.813038 -1.331830 -1.944565
  C 7.597438 -1.498936 -3.007785
  H 8.642345 -1.738801 -2.915463
  H 0.930193 1.108467 0.389367
  H 0.437596 -0.553440 0.679799
  H 0.629112 0.032964 -0.983083
  H 2.896101 -0.437658 1.046519
  H 2.802609 -0.394357 -2.006697
  H 5.038898 -0.969589 0.042119
  H 4.999195 -0.895984 -3.018472
  H 7.223560 -1.437155 -0.948132
  H 7.214691 -1.399740 -4.010428
 17
 -0.674606
  C 1.054524 0.131508 0.026062
  C 2.447451 -0.394027 0.043382
  C 3.217337 -0.544234 -1.036630
  C 4.599978 -0.922940 -0.967402
  C 5.424497 -1.004993 -2.025508
  C 6.826055 -1.310789 -1.924648
  C 7.632727 -1.452961 -2.974468
  H 8.678929 -1.680280 -2.864665
  H 1.082073 1.193047 0.280768
  H 0.435486 -0.373524 0.764697
  H 0.601469 0.025560 -0.956669
  H 2.860023 -0.600398 1.023160
  H 2.811575 -0.345906 -2.020869
  H 4.995064 -1.082097 0.029324
  H 5.031313 -0.857970 -3.024002
  H 7.219512 -1.421212 -0.921843
  H 7.267910 -1.346723 -3.983140
 17
 -0.320722
  C 1.064972 0.142666 0.001359
  C 2.459147 -0.366501 0.058768
  C 3.247077 -0.498520 -1.008189
  C 4.623448 -0.918629 -0.940144
  C 5.435183 -1.026510 -2.005254
  C 6.834269 -1.364229 -1.920127
  C 7.651303 -1.390904 -2.960587
  H 8.694324 -1.628095 -2.862111
  H 1.070809 1.234132 -0.007761
  H 0.489942 -0.181631 0.861007
  H 0.568222 -0.188418 -0.907467
  H 2.859325 -0.575614 1.040532
  H 2.857585 -0.278266 -1.996358
  H 5.010701 -1.147428 0.047034
  H 5.042691 -0.825964 -2.996597
  H 7.210637 -1.608306 -0.934849
  H 7.302375 -1.166499 -3.951730
 17
 -0.323106
  C 1.090973 0.169744 0.019922
  C 2.473221 -0.387226 0.051129
  C 3.252636 -0.529070 -1.024420
  C 4.634342 -0.912623 -0.952571
  C 5.462851 -0.980491 -2.006804
  C 6.862992 -1.293471 -1.905128
  C 7.676231 -1.409800 -2.953507
  H 8.720754 -1.640724 -2.843234
  H 1.153899 1.251579 0.161543
  H 0.479903 -0.239798 0.820155
  H 0.608865 -0.018191 -0.936085
  H 2.875864 -0.603244 1.032589
  H 2.854906 -0.316980 -2.008498
  H 5.025025 -1.086051 0.043063
  H 5.075169 -0.811334 -3.003824
  H 7.250369 -1.433116 -0.903351
  H 7.317800 -1.277061 -3.960843
 17
 0.024190
  C 1.086630 0.181751 0.020775
  C 2.439967 -0.437168 0.035749
  C 3.202299 -0.607524 -1.048562
  C 4.589431 -0.961833 -0.972366
  C 5.419764 -1.058691 -2.024670
  C 6.833227 -1.296632 -1.907912
  C 7.659441 -1.384082 -2.948234
  H 8.715004 -1.555916 -2.827022
  H 1.236604 1.243321 0.231758
  H 0.439378 -0.235689 0.788072
  H 0.610954 0.085644 -0.951829
  H 2.860805 -0.623572 1.015955
  H 2.792299 -0.424068 -2.033657
  H 4.988959 -1.066992 0.029793
  H 5.025685 -0.962785 -3.028753
  H 7.219046 -1.399987 -0.901278
  H 7.302516 -1.284494 -3.960292
