 18
 0.000000
  C 0.894605 0.051349 0.225705
  C 2.394732 0.056926 0.126810
  C 3.251828 -0.013350 1.372332
  C 2.535989 -0.089301 2.718259
  C 3.543051 -0.153821 3.861747
  C 2.982711 0.123774 -1.057851
  H 2.446431 0.176343 -1.989501
  H 4.057054 0.129040 -1.151158
  H 0.542565 -0.006453 1.250032
  H 0.485404 -0.803157 -0.311073
  H 0.485406 0.960817 -0.211535
  H 3.902805 0.866183 1.384929
  H 3.902812 -0.888720 1.285905
  H 1.902956 -0.978540 2.758074
  H 1.902943 0.789818 2.857857
  H 4.177916 -1.032227 3.766369
  H 3.028017 -0.207811 4.818532
  H 4.177911 0.729740 3.865789
 18
 7.233149
  C 0.788252 0.051504 0.222956
  C 2.448001 0.057114 0.123491
  C 3.290428 -0.013374 1.372762
  C 2.558778 -0.088832 2.709963
  C 3.551738 -0.154057 3.865947
  C 3.032675 0.123622 -1.055159
  H 2.493820 0.176126 -1.985656
  H 4.106937 0.128892 -1.148536
  H 0.435823 -0.006180 1.245188
  H 0.388056 -0.801678 -0.317108
  H 0.388058 0.960027 -0.217698
  H 3.941644 0.865868 1.391435
  H 3.941651 -0.889138 1.292406
  H 1.924680 -0.977382 2.741274
  H 1.924670 0.790555 2.841033
  H 4.187213 -1.032882 3.778114
  H 3.025239 -0.207693 4.816455
  H 4.187207 0.729070 3.877532
 18
 22.618482
  C 0.700139 0.050647 0.238143
  C 2.518542 0.057163 0.122616
  C 3.336355 -0.013261 1.370751
  C 2.576294 -0.087811 2.691859
  C 3.541924 -0.154365 3.871398
  C 3.067770 0.124112 -1.063854
  H 2.500620 0.175722 -1.978519
  H 4.140430 0.130878 -1.183752
  H 0.373523 -0.007272 1.264560
  H 0.320903 -0.802401 -0.303892
  H 0.320906 0.959258 -0.204485
  H 3.987365 0.866300 1.398475
  H 3.987365 -0.890351 1.299353
  H 1.940296 -0.974604 2.705881
  H 1.940292 0.791770 2.805551
  H 4.178376 -1.033990 3.797990
  H 2.993880 -0.207302 4.809534
  H 4.178371 0.727936 3.897407
 18
 39.575741
  C 0.604295 0.050165 0.246693
  C 2.581536 0.057414 0.118183
  C 3.381326 -0.013620 1.377110
  C 2.595923 -0.087387 2.684350
  C 3.536077 -0.155062 3.883750
  C 3.103015 0.125591 -1.090061
  H 2.511967 0.176288 -1.988552
  H 4.174327 0.133802 -1.235575
  H 0.300591 -0.008147 1.280067
  H 0.246454 -0.809425 -0.301727
  H 0.246456 0.965996 -0.201543
  H 4.032423 0.866670 1.414594
  H 4.032430 -0.892538 1.315329
  H 1.958335 -0.973136 2.682789
  H 1.958324 0.792914 2.782442
  H 4.172992 -1.035296 3.823389
  H 2.968805 -0.207346 4.810310
  H 4.172983 0.726374 3.922794
 18
 54.605144
  C 0.525137 0.050383 0.242829
  C 2.661675 0.057961 0.108441
  C 3.428997 -0.014672 1.395632
  C 2.610591 -0.087405 2.684592
  C 3.518205 -0.156512 3.909439
  C 3.083396 0.127679 -1.127037
  H 2.424556 0.175401 -1.972735
  H 4.140111 0.140304 -1.350788
  H 0.288656 -0.008806 1.291682
  H 0.251651 -0.829572 -0.325860
  H 0.251655 0.988736 -0.223252
  H 4.084968 0.863873 1.450613
  H 4.084970 -0.893809 1.351433
  H 1.973398 -0.973018 2.662263
  H 1.973383 0.795109 2.762025
  H 4.155734 -1.037076 3.865569
  H 2.926758 -0.207939 4.821107
  H 4.155693 0.723385 3.964891
 18
 69.634842
  C 0.442430 0.048548 0.275372
  C 2.736884 0.057634 0.114295
  C 3.478162 -0.014385 1.390634
  C 2.622252 -0.085930 2.658529
  C 3.491955 -0.156512 3.909471
  C 3.101302 0.128097 -1.134437
  H 2.403817 0.174104 -1.949778
  H 4.151754 0.143594 -1.409085
  H 0.254761 -0.010839 1.327766
  H 0.224868 -0.832449 -0.298473
  H 0.224870 0.988512 -0.195716
  H 4.130976 0.868042 1.456900
  H 4.130987 -0.898671 1.357208
  H 1.983233 -0.969158 2.611600
  H 1.983237 0.796954 2.711254
  H 4.129142 -1.038555 3.885166
  H 2.872761 -0.206895 4.802447
  H 4.129134 0.722674 3.984542
 18
 82.805151
  C 0.331232 0.048560 0.275140
  C 2.785397 0.057646 0.114063
  C 3.513985 -0.014678 1.395842
  C 2.644150 -0.085431 2.649681
  C 3.496495 -0.156587 3.910750
  C 3.144450 0.128158 -1.135571
  H 2.443041 0.174069 -1.949216
  H 4.193798 0.143990 -1.416162
  H 0.147540 -0.010911 1.329050
  H 0.130461 -0.834000 -0.301813
  H 0.130463 0.990426 -0.198862
  H 4.164029 0.865180 1.470084
  H 4.164031 -0.897297 1.370631
  H 2.005191 -0.967873 2.593060
  H 2.005174 0.797784 2.692691
  H 4.133103 -1.038961 3.894840
  H 2.865611 -0.206486 4.795114
  H 4.133084 0.721974 3.994201
 18
 93.942071
  C 0.226475 0.048097 0.283359
  C 2.839500 0.057892 0.109729
  C 3.554330 -0.014674 1.395786
  C 2.661244 -0.084779 2.638150
  C 3.491117 -0.156834 3.915159
  C 3.181465 0.128563 -1.142726
  H 2.469718 0.173939 -1.946888
  H 4.227907 0.145316 -1.439694
  H 0.058666 -0.011465 1.338878
  H 0.046021 -0.836434 -0.295742
  H 0.046022 0.992163 -0.192556
  H 4.204462 0.867077 1.479402
  H 4.204468 -0.900232 1.379677
  H 2.021771 -0.966604 2.568862
  H 2.021763 0.799235 2.668503
  H 4.127159 -1.040067 3.910816
  H 2.844205 -0.206098 4.788234
  H 4.127146 0.721283 4.010201
 18
 102.783596
  C -nan -nan -nan
  C -nan -nan -nan
  C -nan -nan -nan
  C -nan -nan -nan
  C -nan -nan -nan
  C -nan -nan -nan
  H -nan -nan -nan
  H -nan -nan -nan
  H -nan -nan -nan
  H -nan -nan -nan
  H -nan -nan -nan
  H -nan -nan -nan
  H -nan -nan -nan
  H -nan -nan -nan
  H -nan -nan -nan
  H -nan -nan -nan
  H -nan -nan -nan
  H -nan -nan -nan
