 17
 0.000000
  H 1.434959 -0.075706 0.039441
  C 2.508054 -0.083782 0.023586
  C 3.218161 -0.595395 -0.980802
  C 4.655168 -0.607528 -1.004619
  C 5.377006 -1.122410 -2.015418
  C 6.814356 -1.131763 -2.033780
  C 7.534941 -1.642089 -3.035637
  C 9.024021 -1.660456 -3.071687
  H 3.007821 0.350716 0.876581
  H 2.705436 -1.028238 -1.830535
  H 5.159752 -0.172876 -0.151330
  H 4.874057 -1.557458 -2.869488
  H 7.318680 -0.696973 -1.180215
  H 7.037517 -2.078448 -3.892268
  H 9.454384 -1.206931 -2.181347
  H 9.384460 -1.114914 -3.944655
  H 9.384459 -2.687351 -3.143686
 17
 0.335079
  H 1.434738 -0.217829 0.074267
  C 2.509166 -0.158332 0.069992
  C 3.240332 -0.581531 -0.959771
  C 4.676954 -0.525990 -1.000347
  C 5.407568 -0.924482 -2.054756
  C 6.844875 -0.952039 -2.077296
  C 7.553146 -1.540910 -3.043907
  C 9.032245 -1.712592 -3.040677
  H 2.973898 0.263016 0.947884
  H 2.754010 -0.999620 -1.831178
  H 5.173546 -0.149810 -0.113528
  H 4.904403 -1.298019 -2.938424
  H 7.353508 -0.502378 -1.234509
  H 7.033851 -2.001772 -3.877355
  H 9.493647 -1.138905 -2.238275
  H 9.455997 -1.397341 -3.993529
  H 9.279729 -2.766351 -2.904429
 17
 1.465269
  H 1.454214 -0.334495 0.095585
  C 2.529948 -0.290640 0.104311
  C 3.258901 -0.508097 -0.987917
  C 4.698140 -0.470808 -1.013500
  C 5.426355 -0.739196 -2.108363
  C 6.866881 -0.807237 -2.124637
  C 7.544890 -1.538944 -3.008817
  C 9.015940 -1.770243 -2.992514
  H 2.995901 -0.060403 1.049858
  H 2.771873 -0.739694 -1.926818
  H 5.195107 -0.236709 -0.080906
  H 4.921060 -0.986320 -3.034182
  H 7.392998 -0.277176 -1.341081
  H 6.998704 -2.091077 -3.762298
  H 9.518822 -1.063374 -2.335706
  H 9.429602 -1.681223 -3.996994
  H 9.225226 -2.781742 -2.638713
 17
 3.440062
  H 1.463875 -0.376051 0.081933
  C 2.539687 -0.406753 0.097155
  C 3.261999 -0.443828 -1.019675
  C 4.701256 -0.498737 -1.041775
  C 5.420866 -0.633057 -2.162062
  C 6.868683 -0.744555 -2.183546
  C 7.514574 -1.617531 -2.951185
  C 8.988808 -1.832042 -2.958030
  H 3.005672 -0.404627 1.069068
  H 2.769088 -0.451365 -1.983875
  H 5.203051 -0.448216 -0.083824
  H 4.914338 -0.699681 -3.117476
  H 7.418898 -0.106678 -1.502537
  H 6.942134 -2.280062 -3.589092
  H 9.501519 -1.048386 -2.405046
  H 9.366929 -1.853140 -3.979458
  H 9.227101 -2.792978 -2.500076
 17
 5.865926
  H 1.478285 -0.413740 0.059641
  C 2.548126 -0.526743 0.065557
  C 3.278909 -0.391096 -1.036635
  C 4.714568 -0.535210 -1.072776
  C 5.435639 -0.473908 -2.195060
  C 6.889085 -0.653628 -2.241166
  C 7.478823 -1.659810 -2.872739
  C 8.949164 -1.905243 -2.909746
  H 3.000454 -0.758791 1.016023
  H 2.800346 -0.159872 -1.980722
  H 5.206818 -0.720340 -0.126396
  H 4.937630 -0.308842 -3.143709
  H 7.485079 0.077781 -1.705788
  H 6.869230 -2.400231 -3.377391
  H 9.497349 -1.063540 -2.492093
  H 9.280480 -2.072043 -3.933701
  H 9.193354 -2.799635 -2.335428
 17
 6.864693
  H 1.499383 -0.452929 0.043868
  C 2.559031 -0.640285 0.014972
  C 3.294709 -0.372499 -1.058942
  C 4.717673 -0.610654 -1.136881
  C 5.458409 -0.334983 -2.210304
  C 6.905443 -0.583980 -2.292875
  C 7.433445 -1.693430 -2.784309
  C 8.894110 -1.986351 -2.862942
  H 2.996099 -1.059901 0.906419
  H 2.833109 0.048684 -1.943206
  H 5.183810 -1.042462 -0.260337
  H 4.994192 0.099510 -3.089745
  H 7.546956 0.207527 -1.920638
  H 6.779908 -2.475543 -3.150698
  H 9.483395 -1.122945 -2.562374
  H 9.170349 -2.267721 -3.878068
  H 9.142765 -2.823818 -2.210150
 17
 5.789058
  H 1.486088 -0.289228 -0.162770
  C 2.496467 -0.655183 -0.225378
  C 3.371556 -0.167957 -1.099282
  C 4.733504 -0.634335 -1.216254
  C 5.638707 -0.091125 -2.032480
  C 7.021982 -0.559794 -2.148844
  C 7.368633 -1.709668 -2.707627
  C 8.766137 -2.216303 -2.829467
  H 2.764856 -1.441961 0.460729
  H 3.078913 0.623560 -1.777955
  H 5.015130 -1.468857 -0.587035
  H 5.370192 0.761906 -2.646422
  H 7.782047 0.106223 -1.754171
  H 6.599640 -2.349121 -3.123187
  H 9.480359 -1.492330 -2.444497
  H 9.003807 -2.427927 -3.871637
  H 8.875662 -3.146899 -2.272208
 17
 3.861114
  H 1.511746 -0.333499 -0.213646
  C 2.484576 -0.767272 -0.374267
  C 3.454722 -0.113037 -1.006637
  C 4.765688 -0.659336 -1.253162
  C 5.778944 0.038595 -1.779637
  C 7.097215 -0.516387 -2.041182
  C 7.297668 -1.661842 -2.683093
  C 8.628590 -2.272008 -2.961708
  H 2.633602 -1.763966 0.005339
  H 3.281369 0.889567 -1.376271
  H 4.920828 -1.693837 -0.971295
  H 5.643675 1.087763 -2.017054
  H 7.942453 0.070452 -1.697117
  H 6.444504 -2.203664 -3.068263
  H 9.432831 -1.654599 -2.571493
  H 8.770455 -2.400167 -4.035245
  H 8.689949 -3.260028 -2.502856
 17
 3.774921
  H 1.484035 -0.373427 -0.429186
  C 2.465537 -0.798427 -0.553089
  C 3.487647 -0.091530 -1.029120
  C 4.800407 -0.639442 -1.257442
  C 5.882675 0.082981 -1.580636
  C 7.163134 -0.508215 -1.917946
  C 7.265800 -1.628485 -2.629017
  C 8.527340 -2.319570 -3.014316
  H 2.581099 -1.830260 -0.265417
  H 3.342436 0.944607 -1.308260
  H 4.897275 -1.712009 -1.138029
  H 5.825768 1.165121 -1.590382
  H 8.052064 0.014524 -1.585886
  H 6.363530 -2.059864 -3.044738
  H 9.394616 -1.833215 -2.573954
  H 8.639516 -2.326634 -4.099110
  H 8.499562 -3.358124 -2.681116
 17
 7.123901
  H 1.508632 -0.448491 -0.669480
  C 2.514747 -0.830714 -0.687770
  C 3.551234 -0.080504 -1.058872
  C 4.886073 -0.593675 -1.190142
  C 5.995262 0.132994 -1.408708
  C 7.225593 -0.509314 -1.819483
  C 7.184726 -1.558443 -2.642664
  C 8.342782 -2.384496 -3.082836
  H 2.643467 -1.856976 -0.385322
  H 3.384249 0.947690 -1.357441
  H 4.987137 -1.665947 -1.066736
  H 5.983860 1.207229 -1.293138
  H 8.167024 -0.119289 -1.457800
  H 6.258630 -1.748178 -3.172123
  H 9.247049 -2.119290 -2.539413
  H 8.522233 -2.258121 -4.151257
  H 8.126844 -3.439074 -2.911332
 17
 17.256790
  H 1.594943 -0.705917 -0.995742
  C 2.627183 -0.993762 -0.897453
  C 3.628187 -0.155198 -1.173041
  C 5.001290 -0.549714 -1.156971
  C 6.084256 0.253414 -1.305058
  C 7.271285 -0.390453 -1.793230
  C 7.076055 -1.430038 -2.624345
  C 8.102925 -2.439955 -3.008656
  H 2.815212 -2.002565 -0.568108
  H 3.397609 0.848082 -1.510295
  H 5.172216 -1.588794 -0.905689
  H 6.043292 1.314387 -1.102627
  H 8.262257 -0.078659 -1.491603
  H 6.190939 -1.412937 -3.244769
  H 8.995175 -2.349215 -2.393769
  H 8.385086 -2.340227 -4.058205
  H 7.688037 -3.439754 -2.879640
 17
 31.214875
  H 1.741712 -0.988965 -1.204992
  C 2.788284 -1.171222 -1.034023
  C 3.727846 -0.271097 -1.340650
  C 5.123498 -0.514059 -1.200055
  C 6.134378 0.412050 -1.370785
  C 7.283089 -0.214868 -1.894133
  C 6.946364 -1.352100 -2.579323
  C 7.856214 -2.514952 -2.798097
  H 3.046484 -2.126448 -0.606254
  H 3.433238 0.672165 -1.785037
  H 5.373753 -1.457628 -0.736691
  H 6.008211 1.468647 -1.190187
  H 8.306346 0.092827 -1.731299
  H 6.109186 -1.301615 -3.256645
  H 8.737572 -2.450315 -2.164084
  H 8.174639 -2.580794 -3.840919
  H 7.324987 -3.437868 -2.566290
 17
 39.451195
  H 1.925035 -1.370134 -1.305645
  C 2.981304 -1.422396 -1.105916
  C 3.827747 -0.471299 -1.502221
  C 5.253037 -0.522184 -1.296871
  C 6.132285 0.570999 -1.541817
  C 7.249079 -0.009550 -2.077087
  C 6.802193 -1.272031 -2.535631
  C 7.641085 -2.511338 -2.515467
  H 3.325901 -2.290417 -0.567394
  H 3.455919 0.380205 -2.059277
  H 5.592319 -1.313749 -0.644960
  H 5.881820 1.611804 -1.418178
  H 8.276950 0.316592 -2.059705
  H 6.005545 -1.295315 -3.263351
  H 8.512657 -2.384553 -1.877611
  H 7.971937 -2.767748 -3.523361
  H 7.059276 -3.354999 -2.144399
 17
 20.902220
  H 2.190461 -1.819501 -1.325384
  C 3.243928 -1.725217 -1.124464
  C 3.976730 -0.756799 -1.648940
  C 5.435598 -0.588170 -1.425863
  C 6.096845 0.705966 -1.739983
  C 7.158409 0.181224 -2.354401
  C 6.589488 -1.182065 -2.498109
  C 7.398233 -2.422156 -2.194946
  H 3.673027 -2.463516 -0.466190
  H 3.528793 -0.033390 -2.318384
  H 5.815747 -1.118679 -0.555009
  H 5.719597 1.707469 -1.638848
  H 8.163524 0.524854 -2.517900
  H 5.896633 -1.331799 -3.325249
  H 8.236078 -2.187516 -1.542106
  H 7.782322 -2.855219 -3.116661
  H 6.781091 -3.176129 -1.708258
 17
 5.637303
  H 2.208462 -1.786179 -0.970460
  C 3.249190 -1.590216 -0.779249
  C 4.031184 -1.013878 -1.674579
  C 5.479038 -0.734743 -1.469237
  C 5.989078 0.589688 -1.989308
  C 6.810077 0.046434 -2.880009
  C 6.446111 -1.372095 -2.525628
  C 7.551145 -2.247810 -1.962483
  H 3.619551 -1.889158 0.186256
  H 3.636242 -0.719432 -2.640125
  H 5.772523 -0.954261 -0.439964
  H 5.733402 1.597855 -1.709694
  H 7.501240 0.437142 -3.602625
  H 5.914240 -1.901198 -3.319236
  H 8.154378 -1.687535 -1.252773
  H 8.198810 -2.603438 -2.760526
  H 7.125609 -3.108999 -1.454639
