 18
 0.000000
  C 0.894605 0.051349 0.225705
  C 2.394732 0.056926 0.126810
  C 3.251828 -0.013350 1.372332
  C 2.535989 -0.089301 2.718259
  C 3.543051 -0.153821 3.861747
  C 2.982711 0.123774 -1.057851
  H 2.446431 0.176343 -1.989501
  H 4.057054 0.129040 -1.151158
  H 0.542565 -0.006453 1.250032
  H 0.485404 -0.803157 -0.311073
  H 0.485406 0.960817 -0.211535
  H 3.902805 0.866183 1.384929
  H 3.902812 -0.888720 1.285905
  H 1.902956 -0.978540 2.758074
  H 1.902943 0.789818 2.857857
  H 4.177916 -1.032227 3.766369
  H 3.028017 -0.207811 4.818532
  H 4.177911 0.729740 3.865789
 18
 6.909503
  C 0.907217 0.052672 0.202249
  C 2.405400 0.059647 0.078598
  C 3.280742 -0.009583 1.305564
  C 2.509410 -0.094028 2.802041
  C 3.533378 -0.157377 3.924765
  C 2.973896 0.127023 -1.115432
  H 2.419102 0.178974 -2.036139
  H 4.046595 0.133367 -1.227845
  H 0.573412 -0.005464 1.232504
  H 0.490167 -0.801732 -0.328825
  H 0.490169 0.961398 -0.229335
  H 3.928620 0.868924 1.313624
  H 3.928624 -0.883419 1.214745
  H 1.879767 -0.982357 2.845868
  H 1.879758 0.783730 2.945523
  H 4.167414 -1.035162 3.818746
  H 3.033789 -0.211820 4.889583
  H 4.167411 0.726766 3.918164
 18
 21.747631
  C 0.926926 0.053067 0.195253
  C 2.421792 0.061817 0.040148
  C 3.313599 -0.005747 1.237600
  C 2.476632 -0.098385 2.879257
  C 3.516369 -0.159913 3.969715
  C 2.967956 0.129819 -1.164997
  H 2.387971 0.180879 -2.069929
  H 4.038095 0.137528 -1.301618
  H 0.620124 -0.005523 1.233557
  H 0.499666 -0.800832 -0.328979
  H 0.499668 0.960520 -0.229590
  H 3.952869 0.870743 1.260094
  H 3.952868 -0.879197 1.161352
  H 1.853801 -0.984699 2.908964
  H 1.853791 0.778960 3.008481
  H 4.149428 -1.037149 3.852043
  H 3.032431 -0.214850 4.943281
  H 4.149420 0.724989 3.951473
 18
 38.077654
  C 0.939344 0.054207 0.175073
  C 2.432086 0.064464 -0.006750
  C 3.346098 -0.002187 1.174508
  C 2.445729 -0.103079 2.962432
  C 3.508973 -0.163234 4.028575
  C 2.957389 0.133086 -1.222864
  H 2.355374 0.183359 -2.113847
  H 4.023768 0.142018 -1.381155
  H 0.656296 -0.004722 1.219372
  H 0.503345 -0.799222 -0.342643
  H 0.503349 0.960461 -0.243346
  H 3.980724 0.879225 1.215407
  H 3.980736 -0.882611 1.115994
  H 1.825994 -0.993956 2.976114
  H 1.825987 0.780598 3.076245
  H 4.141013 -1.039871 3.899823
  H 3.042246 -0.218756 5.012506
  H 4.141014 0.722331 3.999256
 18
 54.336430
  C 0.959194 0.054827 0.164061
  C 2.446529 0.066845 -0.048942
  C 3.376355 0.001631 1.106849
  C 2.414278 -0.107559 3.041836
  C 3.494212 -0.166044 4.078367
  C 2.947853 0.135872 -1.272271
  H 2.324574 0.185316 -2.148564
  H 4.010659 0.146055 -1.452732
  H 0.703375 -0.004531 1.215982
  H 0.513142 -0.798621 -0.344978
  H 0.513144 0.960124 -0.245735
  H 4.002342 0.883586 1.165471
  H 4.002344 -0.881315 1.065885
  H 1.801050 -0.998738 3.039656
  H 1.801039 0.778208 3.139922
  H 4.124165 -1.041903 3.938306
  H 3.045604 -0.222077 5.071383
  H 4.124157 0.720008 4.037725
 18
 69.043725
  C 0.973333 0.055694 0.148712
  C 2.457748 0.069462 -0.095323
  C 3.407432 0.005187 1.043833
  C 2.383867 -0.112305 3.125935
  C 3.483510 -0.169456 4.138838
  C 2.938584 0.139468 -1.335999
  H 2.295002 0.188126 -2.198354
  H 3.997229 0.150892 -1.538467
  H 0.744476 -0.004000 1.206593
  H 0.517297 -0.797970 -0.351117
  H 0.517299 0.960171 -0.251910
  H 4.027176 0.891305 1.121162
  H 4.027177 -0.883999 1.020989
  H 1.774754 -1.007267 3.107704
  H 1.774751 0.779016 3.208498
  H 4.111852 -1.045375 3.988247
  H 3.052959 -0.226062 5.141987
  H 4.111852 0.717850 4.087739
