 26
 0.000000
  C 0.987715 0.135599 0.389078
  C 2.464022 0.140078 0.399817
  C 3.237884 0.611286 1.572108
  C 2.448718 1.097489 2.782322
  H 3.121401 1.413686 3.568978
  C 3.085293 -0.323910 -0.755281
  C 4.460017 -0.412822 -0.977289
  C 5.127414 -0.866693 -2.108955
  C 4.621280 -1.387685 -3.407927
  C 3.129852 -1.500513 -3.690006
  H 2.974362 -1.899270 -4.684232
  O 6.449583 -0.866097 -2.107867
  H 0.546188 0.504565 1.307407
  H 0.621343 -0.877332 0.217952
  H 0.621039 0.748395 -0.435286
  H 3.895200 1.423778 1.242446
  H 3.895467 -0.203176 1.896267
  H 1.814082 0.303007 3.170907
  H 1.813874 1.939809 2.513205
  H 2.425286 -0.641017 -1.544476
  H 5.095335 -0.086106 -0.163790
  H 5.076372 -2.376333 -3.535843
  H 5.076766 -0.761759 -4.183625
  H 2.654252 -0.523529 -3.640786
  H 2.653852 -2.172478 -2.979363
  H 6.837810 -0.533454 -1.277017
 26
 -0.341611
  C 0.964623 0.314831 0.345222
  C 2.436865 0.217867 0.354712
  C 3.232577 0.568769 1.559236
  C 2.460083 0.973750 2.805512
  H 3.161737 1.170525 3.615661
  C 3.046042 -0.230604 -0.813137
  C 4.424351 -0.312536 -1.015365
  C 5.115162 -0.780356 -2.127542
  C 4.625843 -1.406936 -3.387643
  C 3.142261 -1.614824 -3.635259
  H 3.024085 -2.120983 -4.590533
  O 6.433474 -0.712379 -2.132980
  H 0.562883 0.790316 1.228932
  H 0.534984 -0.685740 0.266936
  H 0.626914 0.850520 -0.541654
  H 3.913057 1.387743 1.292432
  H 3.872578 -0.284718 1.809956
  H 1.790595 0.183493 3.130503
  H 1.885640 1.877815 2.642659
  H 2.386151 -0.510685 -1.613650
  H 5.052488 0.054200 -0.213654
  H 5.138940 -2.374808 -3.453051
  H 5.049637 -0.812610 -4.205644
  H 2.613019 -0.671156 -3.701355
  H 2.695500 -2.244597 -2.872772
  H 6.825882 -0.313916 -1.335491
 26
 -0.052239
  C 0.968857 0.497075 0.308666
  C 2.425760 0.275637 0.308172
  C 3.226243 0.460147 1.545184
  C 2.465803 0.805783 2.819442
  H 3.167161 0.868604 3.647797
  C 3.024212 -0.126812 -0.879920
  C 4.403906 -0.207211 -1.068312
  C 5.113480 -0.687917 -2.163374
  C 4.643962 -1.461791 -3.345708
  C 3.168424 -1.778680 -3.524352
  H 3.056331 -2.401803 -4.408236
  O 6.421961 -0.526723 -2.202275
  H 0.615001 0.992202 1.203898
  H 0.454522 -0.463145 0.223034
  H 0.671456 1.069491 -0.569876
  H 3.963895 1.250089 1.364847
  H 3.799483 -0.455299 1.723731
  H 1.731565 0.042404 3.063395
  H 1.964580 1.767410 2.740950
  H 2.365865 -0.336602 -1.705127
  H 5.006417 0.199905 -0.264217
  H 5.212361 -2.398726 -3.321884
  H 5.013523 -0.933753 -4.231361
  H 2.583336 -0.878534 -3.687237
  H 2.774444 -2.331196 -2.676319
  H 6.795748 -0.031802 -1.449614
 26
 1.213146
  C 0.975937 0.694882 0.294984
  C 2.403795 0.341572 0.231347
  C 3.203471 0.305587 1.486728
  C 2.472664 0.603709 2.790746
  H 3.166479 0.489411 3.620111
  C 2.993324 0.011015 -0.978828
  C 4.377254 -0.091198 -1.133960
  C 5.112413 -0.585727 -2.204640
  C 4.677371 -1.523216 -3.276170
  C 3.225726 -1.969424 -3.336016
  H 3.122817 -2.707986 -4.126879
  O 6.399665 -0.319603 -2.291863
  H 0.712853 1.216290 1.206096
  H 0.373204 -0.215591 0.242234
  H 0.688608 1.291778 -0.570318
  H 4.032549 1.016166 1.402375
  H 3.660151 -0.685717 1.572030
  H 1.647258 -0.084369 2.952898
  H 2.095485 1.623121 2.818116
  H 2.349422 -0.086351 -1.836791
  H 4.946114 0.322583 -0.304599
  H 5.324011 -2.401305 -3.167350
  H 4.964774 -1.076990 -4.234010
  H 2.563138 -1.144452 -3.575451
  H 2.913380 -2.430017 -2.403107
  H 6.737701 0.290716 -1.610551
 26
 5.762314
  C 0.981200 0.889010 0.318882
  C 2.363564 0.421911 0.123232
  C 3.144788 0.095106 1.356908
  C 2.482244 0.347036 2.708339
  H 3.155969 0.018929 3.495848
  C 2.956571 0.220099 -1.109633
  C 4.340084 0.054190 -1.210924
  C 5.107447 -0.440946 -2.257088
  C 4.720681 -1.533594 -3.190202
  C 3.311535 -2.094400 -3.082264
  H 3.204021 -2.913722 -3.788544
  O 6.358030 -0.059447 -2.415736
  H 0.828990 1.337482 1.290724
  H 0.293232 0.043733 0.228772
  H 0.696345 1.593550 -0.463129
  H 4.088157 0.648560 1.367132
  H 3.416137 -0.963792 1.312225
  H 1.557672 -0.212948 2.817035
  H 2.280001 1.402279 2.866331
  H 2.353353 0.303884 -2.001819
  H 4.860264 0.389412 -0.309415
  H 5.451819 -2.330965 -3.021189
  H 4.904040 -1.181966 -4.210497
  H 2.563490 -1.348987 -3.327480
  H 3.116255 -2.479840 -2.086369
  H 6.638780 0.679706 -1.844913
 26
 16.306309
  C 1.000048 1.077735 0.344571
  C 2.342662 0.581077 0.006256
  C 3.099631 -0.031503 1.160629
  C 2.480718 0.038343 2.554998
  H 3.109645 -0.511183 3.245965
  C 2.929756 0.474944 -1.232343
  C 4.297618 0.205200 -1.293737
  C 5.099981 -0.335019 -2.296754
  C 4.757850 -1.565957 -3.056744
  C 3.439350 -2.225487 -2.685772
  H 3.338813 -3.156699 -3.233145
  O 6.258241 0.178885 -2.618800
  H 0.885510 1.288178 1.395760
  H 0.252977 0.343936 0.059512
  H 0.767917 1.973117 -0.233784
  H 4.111957 0.362610 1.274193
  H 3.219811 -1.098470 0.926457
  H 1.492762 -0.405438 2.582802
  H 2.414027 1.063685 2.912657
  H 2.373122 0.704910 -2.131730
  H 4.760890 0.485722 -0.317711
  H 5.590702 -2.255741 -2.924996
  H 4.742103 -1.288663 -4.116313
  H 2.598173 -1.594674 -2.943874
  H 3.396063 -2.449609 -1.623398
  H 6.464533 1.026974 -2.183104
 26
 39.263579
  C 0.974606 1.165334 0.439792
  C 2.226664 0.547012 -0.049424
  C 3.037517 -0.189685 0.980035
  C 2.631405 -0.021028 2.455117
  H 3.257934 -0.655467 3.071626
  C 2.737557 0.561444 -1.313268
  C 4.102344 0.259922 -1.429264
  C 5.021783 -0.246124 -2.309066
  C 4.879829 -1.598797 -2.933502
  C 3.547782 -2.280474 -2.679524
  H 3.498120 -3.203878 -3.240712
  O 6.196405 0.297744 -2.510253
  H 0.942110 1.262066 1.523011
  H 0.110175 0.575353 0.130625
  H 0.845636 2.146430 -0.020394
  H 4.072049 0.108366 1.085489
  H 3.038508 -1.254835 0.767905
  H 1.608001 -0.331395 2.630320
  H 2.757304 1.012108 2.783535
  H 2.191488 0.941185 -2.154685
  H 4.420591 0.433529 -0.292103
  H 5.688865 -2.205199 -2.522140
  H 5.084261 -1.502452 -4.008012
  H 2.725081 -1.650300 -3.005403
  H 3.411747 -2.494541 -1.625221
  H 6.263919 1.215252 -2.191193
 26
 74.397235
  C 0.978185 1.213693 0.427834
  C 2.260031 0.649314 -0.016102
  C 3.093144 -0.155461 0.937383
  C 2.627778 -0.146743 2.408661
  H 3.238598 -0.820781 3.012139
  C 2.746418 0.710629 -1.297046
  C 4.035417 0.286257 -1.554611
  C 4.972222 -0.225046 -2.368311
  C 4.889940 -1.623560 -2.917427
  C 3.598939 -2.349312 -2.591594
  H 3.628978 -3.358051 -3.009455
  O 6.147338 0.338558 -2.618438
  H 0.878645 1.211561 1.504062
  H 0.133352 0.660307 0.001983
  H 0.876834 2.235768 0.066228
  H 4.209354 0.113473 1.143313
  H 3.116202 -1.184668 0.579756
  H 1.598458 -0.496339 2.464881
  H 2.683124 0.847101 2.844353
  H 2.164451 1.199652 -2.069009
  H 4.320155 0.475572 0.089949
  H 5.751819 -2.178696 -2.544175
  H 4.997285 -1.535057 -3.988612
  H 2.741195 -1.826522 -3.022960
  H 3.458861 -2.432828 -1.517744
  H 6.170455 1.289375 -2.366345
 26
 83.886296
  C 1.020554 1.285098 0.418582
  C 2.277483 0.613514 0.018146
  C 3.183383 -0.180086 1.025285
  C 2.637815 -0.122454 2.462526
  H 3.196164 -0.796663 3.106010
  C 2.718858 0.647998 -1.306733
  C 3.959127 0.249879 -1.670264
  C 4.927060 -0.229602 -2.408059
  C 4.928479 -1.638438 -2.958076
  C 3.643034 -2.409152 -2.699540
  H 3.713138 -3.396059 -3.148913
  O 6.123263 0.391636 -2.626410
  H 0.891855 1.344142 1.491994
  H 0.157773 0.757338 0.005634
  H 0.989662 2.295134 0.009238
  H 4.293387 0.039113 1.301277
  H 3.203844 -1.215310 0.666853
  H 1.601702 -0.445081 2.478542
  H 2.702012 0.877114 2.881026
  H 2.070290 1.088226 -2.054346
  H 3.873599 0.564856 0.342101
  H 5.787453 -2.163950 -2.533618
  H 5.107387 -1.550905 -4.032721
  H 2.790884 -1.894936 -3.136032
  H 3.468352 -2.532283 -1.634766
  H 6.092733 1.327864 -2.380039
 26
 56.370477
  C 1.324376 1.553587 0.545829
  C 2.488900 0.754681 0.082211
  C 3.098565 -0.327075 1.086093
  C 2.371045 -0.411775 2.417699
  H 2.770705 -1.249604 2.983664
  C 2.740247 0.665992 -1.362575
  C 3.866692 0.273541 -1.919931
  C 4.871984 -0.181602 -2.627823
  C 5.022631 -1.648119 -2.954825
  C 3.870975 -2.518108 -2.479466
  H 4.041060 -3.546791 -2.789196
  O 5.917938 0.554012 -3.058751
  H 1.328735 1.706612 1.618114
  H 0.391768 1.053210 0.280366
  H 1.311657 2.523658 0.048564
  H 4.158876 -0.221731 1.343412
  H 3.024639 -1.292160 0.579689
  H 1.306982 -0.579153 2.278641
  H 2.508861 0.482246 3.013077
  H 1.954473 1.057267 -2.000473
  H 3.564022 1.077027 0.280135
  H 5.968351 -1.992739 -2.527522
  H 5.122687 -1.707599 -4.039994
  H 2.932438 -2.184036 -2.906907
  H 3.791163 -2.498294 -1.395630
  H 5.769820 1.507066 -2.965908
 26
 26.143815
  C 1.465602 1.690008 0.590868
  C 2.719663 0.916273 0.224085
  C 2.886599 -0.441020 0.935157
  C 2.235334 -0.522376 2.308505
  H 2.426453 -1.505685 2.732387
  C 2.788016 0.659443 -1.281768
  C 3.795741 0.267272 -1.959386
  C 4.839766 -0.174289 -2.709890
  C 5.057946 -1.619445 -2.963743
  C 4.095197 -2.555792 -2.249116
  H 4.328286 -3.585743 -2.511760
  O 5.715739 0.635254 -3.259171
  H 1.454094 1.903647 1.656587
  H 0.565544 1.130961 0.345855
  H 1.442223 2.642269 0.065076
  H 3.953485 -0.643074 1.037721
  H 2.466611 -1.235178 0.316816
  H 1.160030 -0.388717 2.254924
  H 2.648848 0.222725 2.983590
  H 1.836861 0.839192 -1.776447
  H 3.602397 1.526780 0.453600
  H 6.093191 -1.849386 -2.690330
  H 5.010069 -1.772518 -4.047965
  H 3.065371 -2.357359 -2.537717
  H 4.182460 -2.453468 -1.168751
  H 5.561122 1.586481 -3.107844
 26
 49.138264
  C 1.242660 1.602390 0.562779
  C 2.525865 1.021669 0.057103
  C 3.301216 -0.045633 1.085578
  C 2.460823 -0.442237 2.279153
  H 2.969361 -1.259431 2.790170
  C 2.715854 0.570756 -1.310207
  C 3.854768 0.158525 -1.803968
  C 4.899651 -0.302933 -2.485302
  C 4.968598 -1.736596 -2.925795
  C 3.738477 -2.562107 -2.591905
  H 3.888328 -3.584194 -2.923875
  O 5.980748 0.403752 -2.787702
  H 1.277009 1.739750 1.638003
  H 0.390931 0.968981 0.313848
  H 1.070801 2.579348 0.110459
  H 4.311670 0.230352 1.351686
  H 3.391041 -0.943369 0.460821
  H 1.478172 -0.791281 1.973557
  H 2.345415 0.365544 2.999129
  H 1.846585 0.636844 -1.967982
  H 3.380485 1.603830 0.440612
  H 5.855019 -2.161999 -2.449903
  H 5.152713 -1.739238 -4.002835
  H 2.858939 -2.171435 -3.091572
  H 3.554430 -2.575841 -1.519282
  H 5.937357 1.338008 -2.516722
 26
 72.360558
  C 1.140144 1.520230 0.451275
  C 2.397613 1.002978 -0.093284
  C 3.444268 -0.122434 1.213934
  C 2.511443 -0.407355 2.344826
  H 2.982227 -1.178914 2.953143
  C 2.690766 0.758496 -1.428024
  C 3.831765 0.251997 -1.919771
  C 4.854716 -0.259634 -2.541945
  C 4.978146 -1.734545 -2.845943
  C 3.746114 -2.546430 -2.474499
  H 3.900457 -3.586883 -2.744202
  O 5.960098 0.436220 -2.928537
  H 1.072186 1.412167 1.528009
  H 0.285632 1.021432 -0.005182
  H 1.050448 2.586854 0.226442
  H 4.417571 0.225054 1.572443
  H 3.574011 -0.957560 0.532776
  H 1.554705 -0.797041 2.010294
  H 2.361747 0.454456 2.989890
  H 1.907141 1.035061 -2.128626
  H 3.355113 0.959163 0.549563
  H 5.860282 -2.108963 -2.321329
  H 5.181442 -1.819353 -3.916657
  H 2.871127 -2.182204 -3.004495
  H 3.552492 -2.497844 -1.405316
  H 5.858385 1.388422 -2.780992
 26
 73.407090
  C 0.890881 1.268748 0.326184
  C 2.141935 0.796476 -0.234683
  C 3.633339 0.039948 1.500147
  C 2.783773 -0.089807 2.717969
  H 3.415511 -0.479959 3.516711
  C 2.630815 0.622222 -1.489390
  C 3.826205 0.144614 -1.878269
  C 4.891500 -0.346137 -2.446674
  C 4.953934 -1.747919 -3.002706
  C 3.627561 -2.485150 -2.957350
  H 3.750055 -3.482065 -3.370158
  O 6.092970 0.286731 -2.538093
  H 0.802776 1.010410 1.381449
  H 0.044005 0.822278 -0.197846
  H 0.812220 2.355613 0.248791
  H 4.418851 0.785015 1.583532
  H 3.997635 -0.903284 1.103966
  H 1.969448 -0.795260 2.579263
  H 2.399924 0.868569 3.056509
  H 1.950441 0.972951 -2.264474
  H 2.965220 0.461796 0.599870
  H 5.717330 -2.293985 -2.444038
  H 5.309518 -1.660808 -4.031466
  H 2.878182 -1.964112 -3.542914
  H 3.270564 -2.578671 -1.936912
  H 6.039954 1.208328 -2.241679
 26
 81.079702
  C 0.778252 0.621626 0.321607
  C 2.131746 0.262832 -0.061662
  C 3.676220 0.511701 1.810464
  C 2.797332 0.682341 3.006391
  H 3.438216 0.770399 3.884603
  C 2.772988 -0.101663 -1.165966
  C 4.117383 -0.335042 -1.367299
  C 5.044976 -0.671416 -2.237427
  C 4.835014 -1.608186 -3.417448
  C 3.404173 -2.035516 -3.689583
  H 3.393228 -2.719207 -4.534819
  O 6.351804 -0.349964 -2.129806
  H 0.685697 0.710901 1.402148
  H 0.072892 -0.143613 -0.005395
  H 0.493915 1.579467 -0.115927
  H 4.294111 1.377994 1.600881
  H 4.243391 -0.413513 1.818335
  H 2.150677 -0.177208 3.164762
  H 2.205545 1.593097 2.952406
  H 2.142686 -0.133650 -2.055908
  H 2.987801 0.404543 0.837648
  H 5.466158 -2.482040 -3.235990
  H 5.247966 -1.085686 -4.283524
  H 2.784154 -1.182035 -3.949925
  H 2.978567 -2.549520 -2.832023
  H 6.524991 0.261684 -1.397755
