 28
 0.000000
  C 0.992479 0.119888 0.395997
  C 2.467348 0.127256 0.417875
  C 3.242408 0.611105 1.578949
  C 2.455680 1.112571 2.783734
  H 3.131278 1.438031 3.564654
  C 3.089553 -0.348781 -0.729860
  C 4.465034 -0.441328 -0.978566
  C 5.106020 -0.879585 -2.112084
  C 4.607711 -1.381963 -3.405180
  C 3.118459 -1.500778 -3.701624
  C 2.897537 -2.046659 -5.110804
  H 6.187097 -0.872006 -2.101628
  H 0.544669 0.501314 1.306589
  H 0.629631 -0.896305 0.236153
  H 0.624752 0.717964 -0.442318
  H 3.901743 1.416713 1.235849
  H 3.902501 -0.199414 1.908856
  H 1.821707 0.324068 3.184794
  H 1.821137 1.952289 2.506803
  H 2.420057 -0.670082 -1.512104
  H 5.109864 -0.123718 -0.167122
  H 5.069918 -2.367943 -3.546888
  H 5.065680 -0.746856 -4.175136
  H 2.640897 -0.522049 -3.636085
  H 2.645249 -2.182747 -2.993668
  H 3.335223 -1.388910 -5.858261
  H 1.833531 -2.129728 -5.318088
  H 3.339649 -3.034163 -5.221670
 28
 -0.463076
  C 0.969578 0.175365 0.417851
  C 2.438993 0.111534 0.420041
  C 3.237388 0.577253 1.574890
  C 2.471218 1.085080 2.785896
  H 3.175320 1.387050 3.557515
  C 3.043674 -0.367059 -0.741970
  C 4.427630 -0.414096 -0.982845
  C 5.073974 -0.841122 -2.118686
  C 4.600540 -1.364377 -3.406533
  C 3.116855 -1.541264 -3.706523
  C 2.920374 -2.103997 -5.115771
  H 6.156832 -0.786021 -2.078547
  H 0.542757 0.375876 1.389731
  H 0.535569 -0.728131 -0.006150
  H 0.684250 0.988449 -0.260809
  H 3.908948 1.370622 1.228597
  H 3.894762 -0.240987 1.887706
  H 1.833711 0.312800 3.205754
  H 1.860988 1.947106 2.535925
  H 2.379555 -0.711841 -1.518389
  H 5.074234 -0.068619 -0.184916
  H 5.110900 -2.327033 -3.554286
  H 5.046989 -0.724230 -4.182512
  H 2.604089 -0.578916 -3.645059
  H 2.669947 -2.235998 -2.992143
  H 3.333402 -1.430649 -5.867395
  H 1.859977 -2.234830 -5.328285
  H 3.406586 -3.074193 -5.221314
 28
 1.589821
  C 0.975640 0.235758 0.415105
  C 2.439177 0.144650 0.401269
  C 3.242978 0.528321 1.582724
  C 2.469373 0.995589 2.807831
  H 3.167655 1.223602 3.609049
  C 3.027847 -0.292592 -0.781194
  C 4.407973 -0.301519 -1.033281
  C 5.061803 -0.752218 -2.155304
  C 4.599433 -1.346340 -3.415278
  C 3.121463 -1.584555 -3.692522
  C 2.933055 -2.206950 -5.073880
  H 6.140929 -0.652459 -2.127575
  H 0.510615 0.253511 1.389944
  H 0.482895 -0.423618 -0.290168
  H 0.905495 1.245785 -0.016591
  H 3.944527 1.316723 1.289990
  H 3.861057 -0.332824 1.859323
  H 1.793659 0.225518 3.171369
  H 1.898615 1.896211 2.597115
  H 2.363165 -0.660635 -1.544086
  H 5.047546 0.094585 -0.256041
  H 5.141258 -2.295822 -3.528801
  H 5.014346 -0.721561 -4.219244
  H 2.577742 -0.639251 -3.663110
  H 2.706088 -2.265776 -2.948296
  H 3.317461 -1.552042 -5.852699
  H 1.878288 -2.380474 -5.271549
  H 3.449575 -3.161526 -5.145389
 28
 12.833755
  C 0.960139 0.211217 0.458915
  C 2.409853 0.195180 0.383749
  C 3.240855 0.520566 1.574028
  C 2.480099 0.972475 2.814410
  H 3.188792 1.182019 3.611854
  C 2.996518 -0.289072 -0.787515
  C 4.374899 -0.258579 -1.048537
  C 5.041328 -0.694091 -2.174594
  C 4.595161 -1.318458 -3.431886
  C 3.121418 -1.595524 -3.701366
  C 2.946111 -2.251018 -5.069030
  H 6.120085 -0.594183 -2.136921
  H 0.459123 0.344580 1.401947
  H 0.414926 -0.309392 -0.315107
  H 1.190303 1.244282 0.029043
  H 3.968660 1.292216 1.308817
  H 3.812403 -0.378825 1.820024
  H 1.805090 0.199535 3.172315
  H 1.915596 1.882423 2.627330
  H 2.339557 -0.680940 -1.543997
  H 5.008864 0.146966 -0.271210
  H 5.153475 -2.259897 -3.525011
  H 4.992818 -0.696672 -4.245871
  H 2.557534 -0.661710 -3.693328
  H 2.723057 -2.269761 -2.941872
  H 3.334209 -1.612428 -5.859643
  H 1.894046 -2.434746 -5.271016
  H 3.468856 -3.203755 -5.113889
 28
 29.004813
  C 0.943901 0.113235 0.523804
  C 2.364740 0.191141 0.389441
  C 3.229507 0.566237 1.560556
  C 2.480025 1.014084 2.810314
  H 3.197857 1.231343 3.597013
  C 2.976859 -0.339152 -0.777520
  C 4.352146 -0.311729 -1.028238
  C 5.028209 -0.739641 -2.152553
  C 4.589991 -1.338000 -3.430829
  C 3.115461 -1.599729 -3.714503
  C 2.943794 -2.223902 -5.097020
  H 6.103961 -0.612927 -2.118638
  H 0.434392 0.347018 1.440428
  H 0.360788 -0.321239 -0.273185
  H 1.516306 1.147339 0.028061
  H 3.918993 1.359276 1.264185
  H 3.831982 -0.309933 1.807899
  H 1.819108 0.234306 3.178726
  H 1.904865 1.919082 2.631760
  H 2.321761 -0.755779 -1.522092
  H 4.981909 0.097861 -0.249670
  H 5.140215 -2.282661 -3.536248
  H 4.995458 -0.702852 -4.229578
  H 2.558279 -0.662379 -3.689357
  H 2.709162 -2.288290 -2.972483
  H 3.321003 -1.560747 -5.872625
  H 1.893445 -2.417376 -5.300360
  H 3.479894 -3.167989 -5.166632
 28
 38.477942
  C 0.931286 0.095658 0.529741
  C 2.343003 0.240461 0.377565
  C 3.222095 0.588508 1.565211
  C 2.470046 0.978121 2.832846
  H 3.187228 1.179510 3.623993
  C 2.973860 -0.302623 -0.809467
  C 4.342141 -0.289681 -1.045182
  C 5.019409 -0.737427 -2.153876
  C 4.582442 -1.349957 -3.424067
  C 3.106655 -1.601840 -3.710038
  C 2.933980 -2.240416 -5.085809
  H 6.096844 -0.632945 -2.108360
  H 0.426231 0.341461 1.444862
  H 0.338350 -0.306117 -0.275251
  H 1.825352 1.199969 -0.092435
  H 3.892184 1.405721 1.293060
  H 3.843381 -0.282333 1.780628
  H 1.823701 0.174379 3.174353
  H 1.878040 1.878711 2.688414
  H 2.313503 -0.718015 -1.550724
  H 4.968199 0.118337 -0.263756
  H 5.126609 -2.299284 -3.517388
  H 4.995194 -0.726483 -4.228616
  H 2.556569 -0.660271 -3.697679
  H 2.692465 -2.278687 -2.961715
  H 3.328423 -1.593886 -5.866951
  H 1.881802 -2.417507 -5.294710
  H 3.453521 -3.194734 -5.139780
 28
 40.959730
  C 0.927679 0.083247 0.543844
  C 2.331433 0.268334 0.378903
  C 3.216842 0.606572 1.574968
  C 2.462101 0.964047 2.850098
  H 3.177706 1.154782 3.645737
  C 2.972596 -0.288542 -0.820824
  C 4.338799 -0.278277 -1.053984
  C 5.011753 -0.739316 -2.160334
  C 4.570408 -1.358477 -3.422131
  C 3.092807 -1.596770 -3.710706
  C 2.918799 -2.248748 -5.080208
  H 6.089760 -0.641575 -2.115397
  H 0.428051 0.309568 1.465673
  H 0.330799 -0.285253 -0.272394
  H 2.105381 1.201232 -0.243896
  H 3.872778 1.438720 1.317317
  H 3.848957 -0.259399 1.778394
  H 1.821774 0.148371 3.174552
  H 1.862697 1.861948 2.722105
  H 2.308067 -0.719946 -1.549981
  H 4.965281 0.136763 -0.276272
  H 5.103409 -2.315189 -3.503266
  H 4.995132 -0.749560 -4.231274
  H 2.553598 -0.648634 -3.711194
  H 2.667449 -2.261178 -2.957335
  H 3.312865 -1.610242 -5.867939
  H 1.866395 -2.427378 -5.286336
  H 3.437223 -3.204094 -5.125439
 28
 42.391139
  C 0.933396 0.138507 0.535559
  C 2.322200 0.282710 0.387653
  C 3.210171 0.607888 1.582276
  C 2.458323 0.912080 2.873481
  H 3.175810 1.083057 3.671866
  C 2.960426 -0.237136 -0.842261
  C 4.337350 -0.246822 -1.069463
  C 5.005128 -0.726620 -2.164342
  C 4.560781 -1.362227 -3.417710
  C 3.081614 -1.595410 -3.703694
  C 2.904923 -2.273887 -5.059659
  H 6.084205 -0.640492 -2.118098
  H 0.435975 0.341671 1.463433
  H 0.324387 -0.189310 -0.288827
  H 2.350109 1.132427 -0.421069
  H 3.845817 1.462434 1.346713
  H 3.862902 -0.249564 1.757391
  H 1.828289 0.078632 3.172013
  H 1.848077 1.806667 2.777960
  H 2.293389 -0.670891 -1.568537
  H 4.963076 0.169064 -0.291770
  H 5.087971 -2.323382 -3.483434
  H 4.989600 -0.768129 -4.235629
  H 2.549727 -0.643747 -3.725530
  H 2.649744 -2.241519 -2.938372
  H 3.304739 -1.654862 -5.859754
  H 1.852143 -2.449712 -5.263287
  H 3.416288 -3.233686 -5.084442
 28
 38.512674
  C 0.938922 0.159772 0.541481
  C 2.299118 0.275967 0.412586
  C 3.194518 0.601535 1.585411
  C 2.461819 0.881232 2.893477
  H 3.190468 1.056017 3.680897
  C 2.929936 -0.158514 -0.862044
  C 4.329694 -0.192195 -1.085395
  C 4.996345 -0.699404 -2.160102
  C 4.552120 -1.355495 -3.404933
  C 3.072646 -1.579362 -3.694616
  C 2.896111 -2.282671 -5.038279
  H 6.075833 -0.622581 -2.111153
  H 0.438370 0.369290 1.467007
  H 0.319872 -0.142049 -0.285280
  H 2.502653 1.027958 -0.649416
  H 3.810962 1.470337 1.348197
  H 3.866840 -0.245585 1.737540
  H 1.849643 0.034995 3.193053
  H 1.836050 1.766931 2.817300
  H 2.263803 -0.615385 -1.577223
  H 4.951171 0.231457 -0.308619
  H 5.069082 -2.322973 -3.448784
  H 4.992006 -0.782861 -4.231868
  H 2.549343 -0.623324 -3.737739
  H 2.630452 -2.207221 -2.919571
  H 3.305781 -1.682964 -5.848145
  H 1.841926 -2.451900 -5.244171
  H 3.398170 -3.247621 -5.042260
 28
 27.582879
  C 0.946703 0.164512 0.537288
  C 2.287191 0.287563 0.425780
  C 3.195579 0.582906 1.577885
  C 2.493451 0.786973 2.916613
  H 3.238783 0.945114 3.691925
  C 2.894943 -0.021288 -0.913904
  C 4.318885 -0.108344 -1.115733
  C 4.990056 -0.680501 -2.151809
  C 4.548245 -1.374740 -3.373648
  C 3.069951 -1.569656 -3.682482
  C 2.895807 -2.328976 -4.995544
  H 6.070701 -0.637683 -2.082941
  H 0.436778 0.332584 1.467630
  H 0.325203 -0.093140 -0.302552
  H 2.609294 1.094058 -0.941296
  H 3.780858 1.480023 1.361767
  H 3.898191 -0.249261 1.670103
  H 1.908630 -0.086211 3.192851
  H 1.844673 1.658811 2.895640
  H 2.233137 -0.525415 -1.603394
  H 4.934311 0.328639 -0.341687
  H 5.042763 -2.355402 -3.371293
  H 5.018626 -0.849098 -4.215737
  H 2.574542 -0.602666 -3.777178
  H 2.595688 -2.148801 -2.888542
  H 3.331432 -1.777419 -5.825880
  H 1.840824 -2.481278 -5.209931
  H 3.373028 -3.305441 -4.948266
 28
 18.502183
  C 0.949695 0.171277 0.539794
  C 2.286847 0.279057 0.424907
  C 3.207515 0.565437 1.559312
  C 2.537144 0.734739 2.917956
  H 3.296562 0.900553 3.677939
  C 2.854640 0.090718 -0.952262
  C 4.297936 -0.037151 -1.127415
  C 4.975242 -0.667466 -2.122768
  C 4.538430 -1.398803 -3.323271
  C 3.065485 -1.552597 -3.669039
  C 2.896580 -2.339075 -4.966433
  H 6.055464 -0.644347 -2.036481
  H 0.436890 0.281434 1.477606
  H 0.327757 -0.048087 -0.311295
  H 2.594405 1.129669 -1.254861
  H 3.773264 1.475732 1.340440
  H 3.932197 -0.253015 1.615338
  H 1.977707 -0.155346 3.193880
  H 1.866737 1.590303 2.925097
  H 2.239524 -0.550084 -1.575115
  H 4.905662 0.433976 -0.368015
  H 5.003406 -2.393293 -3.274952
  H 5.050714 -0.925256 -4.173289
  H 2.602992 -0.572973 -3.795640
  H 2.550268 -2.096167 -2.874105
  H 3.373371 -1.826494 -5.798920
  H 1.842469 -2.456238 -5.204956
  H 3.333934 -3.331500 -4.882456
 28
 16.333593
  C 0.941577 0.247198 0.543860
  C 2.285537 0.261306 0.433955
  C 3.209264 0.549727 1.563516
  C 2.548930 0.756268 2.921000
  H 3.314101 0.907876 3.678092
  C 2.840236 0.006399 -0.931305
  C 4.294117 -0.064154 -1.106838
  C 4.980001 -0.656116 -2.117768
  C 4.544824 -1.380389 -3.324054
  C 3.072241 -1.547691 -3.660332
  C 2.897878 -2.300857 -4.975988
  H 6.059906 -0.599172 -2.047439
  H 0.433260 0.428727 1.472817
  H 0.310508 0.039852 -0.303551
  H 2.469018 0.890181 -1.481268
  H 3.789145 1.445701 1.320114
  H 3.924466 -0.276596 1.632792
  H 1.961287 -0.111950 3.208267
  H 1.905204 1.632233 2.918918
  H 2.318619 -0.826288 -1.407956
  H 4.892177 0.423553 -0.350944
  H 5.027498 -2.367279 -3.300021
  H 5.042242 -0.884778 -4.170685
  H 2.590191 -0.573403 -3.747623
  H 2.571195 -2.121656 -2.876438
  H 3.354859 -1.757813 -5.800221
  H 1.842567 -2.427893 -5.203626
  H 3.351988 -3.287982 -4.926276
 28
 15.467568
  C 0.945093 0.226161 0.547394
  C 2.291410 0.197590 0.455364
  C 3.202112 0.568099 1.572858
  C 2.525251 0.897027 2.897557
  H 3.281314 1.091710 3.654369
  C 2.862324 -0.208090 -0.862524
  C 4.319378 -0.202855 -1.046523
  C 5.004116 -0.695025 -2.109653
  C 4.555190 -1.345891 -3.352851
  C 3.077793 -1.521588 -3.658606
  C 2.875675 -2.175593 -5.021432
  H 6.082873 -0.607450 -2.059435
  H 0.429754 0.542217 1.435199
  H 0.319474 -0.062261 -0.280377
  H 2.402828 0.465360 -1.604495
  H 3.798245 1.432011 1.261023
  H 3.903727 -0.258243 1.727182
  H 1.912295 0.068384 3.242350
  H 1.902730 1.784112 2.813901
  H 2.447077 -1.185073 -1.143782
  H 4.913353 0.243222 -0.262945
  H 5.055629 -2.323102 -3.403820
  H 5.023066 -0.790026 -4.178245
  H 2.572243 -0.554711 -3.654301
  H 2.608137 -2.157121 -2.904038
  H 3.298408 -1.564093 -5.815224
  H 1.815987 -2.304983 -5.226988
  H 3.347353 -3.154789 -5.060962
