 25
 0.000000
  C 0.959565 0.146052 0.415361
  C 2.432312 0.139624 0.398767
  C 3.230465 0.604175 1.554474
  C 2.467000 1.095551 2.777917
  H 3.163317 1.405089 3.548296
  C 3.040268 -0.327588 -0.764193
  C 4.423203 -0.413002 -0.977727
  C 5.089691 -0.860414 -2.093304
  C 4.625704 -1.380323 -3.389496
  C 3.144238 -1.508211 -3.708580
  H 3.021952 -1.909258 -4.708656
  H 6.170521 -0.843020 -2.050264
  H 0.538072 0.518229 1.341376
  H 0.583577 -0.863833 0.243989
  H 0.583198 0.756246 -0.407216
  H 3.890307 1.409255 1.211664
  H 3.890610 -0.214044 1.863920
  H 1.836141 0.308302 3.185607
  H 1.835952 1.945943 2.527798
  H 2.377041 -0.644282 -1.552009
  H 5.051185 -0.084372 -0.159437
  H 5.099699 -2.363644 -3.510322
  H 5.099887 -0.753203 -4.156367
  H 2.654670 -0.537540 -3.674830
  H 2.654601 -2.186594 -3.013542
 25
 9.254332
  C 0.924157 0.171616 0.478554
  C 2.384776 0.167664 0.468372
  C 3.197679 0.622798 1.601012
  C 2.455479 1.118541 2.835612
  H 3.169550 1.423148 3.594105
  C 3.058327 -0.353657 -0.829407
  C 4.431972 -0.432277 -1.026147
  C 5.107636 -0.878366 -2.138419
  C 4.656133 -1.399792 -3.438014
  C 3.176828 -1.531376 -3.765722
  H 3.064407 -1.933670 -4.768679
  H 6.189012 -0.855289 -2.081459
  H 0.501488 0.543593 1.404080
  H 0.549866 -0.838842 0.302628
  H 0.549624 0.779187 -0.347684
  H 3.859503 1.422006 1.245954
  H 3.859739 -0.199761 1.897400
  H 1.827825 0.336296 3.256311
  H 1.827743 1.974442 2.598532
  H 2.391087 -0.667441 -1.610015
  H 5.054167 -0.101705 -0.203072
  H 5.135238 -2.381003 -3.556133
  H 5.135214 -0.772341 -4.201598
  H 2.683464 -0.562762 -3.737626
  H 2.683640 -2.212215 -3.076049
 25
 27.834149
  C 0.866216 0.182813 0.504422
  C 2.314467 0.189280 0.521310
  C 3.189396 0.620786 1.597129
  C 2.503145 1.127194 2.858713
  H 3.256622 1.419525 3.588442
  C 3.042229 -0.387926 -0.916384
  C 4.402751 -0.443364 -1.056200
  C 5.100971 -0.874704 -2.131316
  C 4.685843 -1.397727 -3.432781
  C 3.211489 -1.535404 -3.773309
  H 3.114725 -1.940208 -4.781161
  H 6.179666 -0.834554 -2.033006
  H 0.434610 0.553695 1.428264
  H 0.498534 -0.826473 0.311909
  H 0.498721 0.778780 -0.332743
  H 3.853961 1.401497 1.209117
  H 3.853508 -0.212093 1.856552
  H 1.882229 0.356247 3.306489
  H 1.882997 1.994338 2.649453
  H 2.343634 -0.689610 -1.666809
  H 4.999755 -0.108281 -0.222689
  H 5.173848 -2.374759 -3.543057
  H 5.172975 -0.768112 -4.188495
  H 2.712749 -0.570326 -3.755182
  H 2.713804 -2.220470 -3.092483
 25
 48.493369
  C 0.814036 0.213926 0.579969
  C 2.245003 0.221910 0.601934
  C 3.160900 0.632171 1.627113
  C 2.520605 1.146473 2.908552
  H 3.299453 1.429353 3.616696
  C 3.012726 -0.413502 -0.981572
  C 4.378910 -0.455920 -1.090312
  C 5.124033 -0.888548 -2.168316
  C 4.738097 -1.418658 -3.484820
  C 3.267732 -1.564618 -3.843390
  H 3.184856 -1.971451 -4.854324
  H 6.202112 -0.834922 -2.037862
  H 0.387188 0.585379 1.505610
  H 0.446087 -0.793226 0.384723
  H 0.446952 0.807571 -0.257242
  H 3.824540 1.398569 1.212785
  H 3.823062 -0.209535 1.857206
  H 1.904745 0.382120 3.373192
  H 1.906666 2.021369 2.716266
  H 2.272662 -0.697281 -1.687137
  H 4.958729 -0.115097 -0.243634
  H 5.234130 -2.392587 -3.587772
  H 5.232410 -0.786668 -4.234072
  H 2.764734 -0.601655 -3.832745
  H 2.766671 -2.252881 -3.168361
 25
 69.413755
  C 0.775280 0.241103 0.647559
  C 2.208639 0.249718 0.671239
  C 3.136503 0.658199 1.692150
  C 2.504298 1.176004 2.982266
  H 3.287012 1.456593 3.684854
  C 3.036722 -0.440679 -1.049201
  C 4.389338 -0.479065 -1.148032
  C 5.149950 -0.911360 -2.225241
  C 4.773997 -1.443820 -3.547439
  C 3.306116 -1.592431 -3.912552
  H 3.227852 -1.998548 -4.921535
  H 6.225044 -0.854189 -2.086050
  H 0.345019 0.613196 1.574920
  H 0.407675 -0.768164 0.449687
  H 0.408555 0.834452 -0.192937
  H 3.801322 1.422896 1.271790
  H 3.799700 -0.186510 1.916699
  H 1.889264 0.412435 3.450884
  H 1.891307 2.053170 2.793388
  H 2.283124 -0.721703 -1.747756
  H 4.961477 -0.135957 -0.295845
  H 5.272348 -2.417501 -3.647844
  H 5.270628 -0.810324 -4.294757
  H 2.802036 -0.630112 -3.903722
  H 2.803949 -2.281391 -3.239176
 25
 88.285843
  C 0.740892 0.266970 0.712153
  C 2.162941 0.276738 0.738943
  C 3.106063 0.674176 1.732254
  C 2.498976 1.196226 3.032375
  H 3.294878 1.471515 3.721691
  C 3.043367 -0.470080 -1.121656
  C 4.399209 -0.501317 -1.203065
  C 5.175530 -0.928708 -2.268362
  C 4.811211 -1.460983 -3.590284
  C 3.343490 -1.609857 -3.956158
  H 3.264745 -2.016021 -4.965382
  H 6.247422 -0.866041 -2.115645
  H 0.308844 0.639098 1.639459
  H 0.375259 -0.741733 0.511479
  H 0.376244 0.857981 -0.130029
  H 3.769154 1.431761 1.298245
  H 3.767396 -0.174882 1.942322
  H 1.886998 0.436517 3.509997
  H 1.889218 2.076853 2.852390
  H 2.272848 -0.743057 -1.799937
  H 4.961017 -0.155640 -0.344794
  H 5.310515 -2.433950 -3.688823
  H 5.308800 -0.826641 -4.335709
  H 2.839746 -0.646970 -3.946719
  H 2.841628 -2.298823 -3.282018
 25
 104.371893
  C 0.696362 0.293470 0.778038
  C 2.120370 0.304104 0.807244
  C 3.080577 0.696845 1.789047
  C 2.495736 1.223920 3.101440
  H 3.304478 1.494699 3.779675
  C 3.056751 -0.498426 -1.192020
  C 4.399765 -0.522930 -1.256918
  C 5.198543 -0.947146 -2.314455
  C 4.849771 -1.483102 -3.645406
  C 3.385105 -1.635957 -4.020993
  H 3.312545 -2.042746 -5.031697
  H 6.269429 -0.878071 -2.146010
  H 0.258185 0.665452 1.705060
  H 0.333011 -0.715796 0.573862
  H 0.334075 0.882584 -0.067020
  H 3.742956 1.449175 1.343860
  H 3.741017 -0.156249 1.987518
  H 1.886284 0.467293 3.587385
  H 1.888686 2.108182 2.929459
  H 2.272258 -0.765330 -1.854989
  H 4.948451 -0.174157 -0.391167
  H 5.352213 -2.455417 -3.739956
  H 5.350423 -0.846467 -4.387545
  H 2.879814 -0.674260 -4.013839
  H 2.881767 -2.325642 -3.349271
 25
 117.501879
  C 0.662819 0.320784 0.846074
  C 2.077446 0.330440 0.873039
  C 3.047836 0.714467 1.833323
  C 2.489573 1.246173 3.156997
  H 3.310295 1.510757 3.819921
  C 3.064104 -0.528567 -1.267177
  C 4.408884 -0.546271 -1.315389
  C 5.226289 -0.965676 -2.360878
  C 4.889210 -1.501169 -3.690328
  C 3.424876 -1.653856 -4.065398
  H 3.350775 -2.059928 -5.074049
  H 6.291244 -0.891392 -2.179569
  H 0.221204 0.692817 1.773286
  H 0.301391 -0.688916 0.639135
  H 0.302534 0.908403 -0.001228
  H 3.708340 1.460450 1.374742
  H 3.706210 -0.143376 2.017872
  H 1.883257 0.493365 3.652473
  H 1.885862 2.134353 2.994369
  H 2.261453 -0.788250 -1.912047
  H 4.946253 -0.194466 -0.442325
  H 5.391784 -2.473030 -3.782837
  H 5.389991 -0.863569 -4.430792
  H 2.920298 -0.691325 -4.057177
  H 2.922245 -2.343278 -3.392197
 25
 127.749820
  C 0.619329 0.348932 0.916531
  C 2.038213 0.356901 0.939308
  C 3.018967 0.739139 1.894853
  C 2.483946 1.275830 3.230356
  H 3.316809 1.535904 3.881875
  C 3.079526 -0.558266 -1.339905
  C 4.411377 -0.569777 -1.373105
  C 5.251611 -0.984948 -2.408548
  C 4.929284 -1.523990 -3.747349
  C 3.467219 -1.680136 -4.131426
  H 3.398251 -2.086619 -5.141524
  H 6.315232 -0.904386 -2.211564
  H 0.170155 0.720776 1.842991
  H 0.260732 -0.661087 0.706039
  H 0.261848 0.934117 0.066328
  H 3.678338 1.479827 1.425767
  H 3.676095 -0.122110 2.068493
  H 1.880302 0.526282 3.734290
  H 1.883006 2.167486 3.075768
  H 2.265384 -0.811311 -1.968122
  H 4.934664 -0.215109 -0.492854
  H 5.434435 -2.495625 -3.836165
  H 5.432723 -0.883825 -4.484792
  H 2.961403 -0.718424 -4.124902
  H 2.963232 -2.370244 -3.460235
 25
 134.787289
  C 0.589095 0.379616 0.993500
  C 2.001749 0.382668 1.003795
  C 2.979832 0.762305 1.952427
  C 2.466986 1.303132 3.297940
  H 3.307687 1.558041 3.936352
  C 3.094697 -0.589033 -1.415602
  C 4.429944 -0.597054 -1.440510
  C 5.284144 -1.009108 -2.468450
  C 4.969120 -1.544439 -3.798362
  C 3.507220 -1.699696 -4.180831
  H 3.436253 -2.104603 -5.187235
  H 6.341826 -0.926126 -2.265071
  H 0.135415 0.751662 1.920161
  H 0.232686 -0.631343 0.780461
  H 0.233738 0.963439 0.140696
  H 3.637742 1.498225 1.473055
  H 3.635470 -0.102451 2.115519
  H 1.865918 0.556675 3.810150
  H 1.868552 2.198242 3.151263
  H 2.266631 -0.838659 -2.035293
  H 4.945887 -0.239906 -0.553752
  H 5.473875 -2.515064 -3.885627
  H 5.472389 -0.903914 -4.533844
  H 3.002181 -0.737210 -4.172873
  H 3.003745 -2.389343 -3.508199
 25
 139.543255
  C 0.544982 0.411448 1.073374
  C 1.967516 0.410403 1.073101
  C 2.948653 0.793835 2.030607
  C 2.449976 1.336864 3.381468
  H 3.297750 1.589353 4.013461
  C 3.118865 -0.616806 -1.483808
  C 4.444136 -0.622544 -1.503285
  C 5.312194 -1.032255 -2.525680
  C 5.007253 -1.569978 -3.862040
  C 3.547944 -1.730094 -4.257319
  H 3.485499 -2.135691 -5.265830
  H 6.370936 -0.945540 -2.312540
  H 0.086514 0.782950 1.998406
  H 0.190231 -0.600142 0.858498
  H 0.191137 0.994152 0.218677
  H 3.606336 1.527451 1.545912
  H 3.604229 -0.072754 2.188374
  H 1.850503 0.592210 3.898419
  H 1.852956 2.233787 3.239342
  H 2.290146 -0.863723 -2.096947
  H 4.950983 -0.263778 -0.611946
  H 5.516383 -2.539942 -3.945458
  H 5.515143 -0.927196 -4.594063
  H 3.040018 -0.769120 -4.252612
  H 3.041328 -2.420923 -3.588317
 25
 142.898674
  C 0.519133 0.444159 1.155574
  C 1.935126 0.437666 1.141158
  C 2.910855 0.819997 2.095266
  C 2.423059 1.364016 3.448742
  H 3.274108 1.613954 4.073903
  C 3.138012 -0.645987 -1.555954
  C 4.472581 -0.649886 -1.571038
  C 5.346199 -1.057193 -2.587415
  C 5.043372 -1.590912 -3.914059
  C 3.584904 -1.749540 -4.306564
  H 3.520170 -2.153929 -5.312240
  H 6.400408 -0.969698 -2.371661
  H 0.062915 0.816018 2.081312
  H 0.164053 -0.567599 0.941188
  H 0.164736 1.027030 0.301018
  H 3.567350 1.551304 1.605348
  H 3.565537 -0.048257 2.247613
  H 1.824764 0.620655 3.969489
  H 1.826873 2.262427 3.310256
  H 2.299966 -0.891536 -2.165946
  H 4.975311 -0.289646 -0.675518
  H 5.552479 -2.559711 -3.997062
  H 5.551620 -0.948784 -4.644824
  H 3.077738 -0.788068 -4.300312
  H 3.078662 -2.439546 -3.636240
 25
 145.221892
  C 0.478185 0.477665 1.239163
  C 1.905648 0.467110 1.214487
  C 2.881841 0.854912 2.182168
  C 2.395703 1.399340 3.536852
  H 3.248629 1.649404 4.162297
  C 3.169436 -0.671356 -1.619287
  C 4.493639 -0.674391 -1.632597
  C 5.375272 -1.080739 -2.646416
  C 5.078471 -1.617769 -3.980798
  C 3.622302 -1.781175 -4.385338
  H 3.565730 -2.186777 -5.393717
  H 6.432080 -0.990729 -2.424185
  H 0.020882 0.849560 2.165034
  H 0.122935 -0.534049 1.024737
  H 0.123502 1.060448 0.384589
  H 3.538863 1.586035 1.692265
  H 3.537172 -0.013210 2.334350
  H 1.797307 0.656164 4.057765
  H 1.799356 2.297673 3.398691
  H 2.334935 -0.915660 -2.226442
  H 4.989874 -0.313286 -0.734935
  H 5.592165 -2.585941 -4.060757
  H 5.591420 -0.974202 -4.709013
  H 3.112069 -0.821232 -4.382438
  H 3.112905 -2.472196 -3.718372
 25
 146.788421
  C 0.457282 0.511758 1.323957
  C 1.876352 0.495969 1.286405
  C 2.844639 0.882520 2.251387
  C 2.360996 1.426639 3.605385
  H 3.213447 1.675623 4.228455
  C 3.191356 -0.698546 -1.687835
  C 4.526659 -0.700282 -1.698565
  C 5.409619 -1.105148 -2.708245
  C 5.111568 -1.638164 -4.031315
  C 3.655714 -1.799154 -4.429480
  H 3.594510 -2.203822 -5.434592
  H 6.462053 -1.015251 -2.486246
  H 0.005722 0.884155 2.251316
  H 0.100135 -0.499704 1.111056
  H 0.100799 1.095645 0.470820
  H 3.501215 1.612634 1.759660
  H 3.499351 0.013752 2.401559
  H 1.762457 0.683750 4.126975
  H 1.764657 2.325389 3.467944
  H 2.348565 -0.942137 -2.293517
  H 5.021140 -0.337938 -0.798108
  H 5.624651 -2.605303 -4.111915
  H 5.623924 -0.996203 -4.759668
  H 3.146826 -0.838539 -4.424340
  H 3.147684 -2.488732 -3.759966
