 16
 0.000000
  H 1.480072 0.159677 0.447702
  C 2.564395 0.148614 0.419169
  C 3.260526 0.625051 1.603674
  C 2.368298 1.080081 2.740408
  H 2.963208 1.419607 3.586110
  C 3.162863 -0.315533 -0.735899
  C 4.559881 -0.403994 -0.954956
  C 5.068580 -0.872908 -2.122676
  H 4.423619 -1.194873 -2.925268
  H 6.130380 -0.939645 -2.287578
  H 3.954146 1.432863 1.321178
  H 3.955992 -0.152498 1.957434
  H 1.722263 0.271539 3.078728
  H 1.720824 1.897383 2.426966
  H 2.518786 -0.638693 -1.541309
  H 5.233843 -0.089273 -0.169306
 16
 0.354719
  H 1.475434 0.062491 0.487488
  C 2.556783 0.100639 0.435373
  C 3.256719 0.668459 1.578408
  C 2.372519 1.111234 2.725840
  H 2.969764 1.491913 3.545404
  C 3.154583 -0.363764 -0.715533
  C 4.548134 -0.534985 -0.908042
  C 5.068091 -0.805429 -2.129970
  H 4.437934 -0.912247 -2.998560
  H 6.131705 -0.903803 -2.279889
  H 3.905540 1.496627 1.256194
  H 3.995640 -0.069646 1.932626
  H 1.764070 0.287617 3.091819
  H 1.691302 1.900586 2.412638
  H 2.514856 -0.652248 -1.538647
  H 5.209723 -0.452847 -0.057340
 16
 1.558001
  H 1.460540 -0.010270 0.525701
  C 2.539075 0.046912 0.450129
  C 3.254162 0.674692 1.553875
  C 2.389495 1.150022 2.698150
  H 2.997899 1.572780 3.486309
  C 3.131666 -0.424321 -0.698792
  C 4.522828 -0.641264 -0.882382
  C 5.077796 -0.713644 -2.115522
  H 4.486686 -0.584434 -3.007200
  H 6.139130 -0.860137 -2.246627
  H 3.892412 1.494213 1.188054
  H 4.002416 -0.050191 1.917190
  H 1.799010 0.332381 3.110094
  H 1.693152 1.918110 2.368430
  H 2.489134 -0.724428 -1.517591
  H 5.150593 -0.763101 -0.009361
 16
 3.528144
  H 1.447149 -0.093620 0.571105
  C 2.525227 -0.025359 0.473231
  C 3.255681 0.651664 1.537068
  C 2.407493 1.198917 2.659185
  H 3.029463 1.652215 3.421345
  C 3.105554 -0.494353 -0.680946
  C 4.495316 -0.732025 -0.881577
  C 5.088269 -0.600745 -2.089682
  H 4.545018 -0.233219 -2.944950
  H 6.137178 -0.797022 -2.221329
  H 3.905224 1.439963 1.123676
  H 3.992692 -0.072317 1.929663
  H 1.806372 0.412317 3.116235
  H 1.724420 1.961200 2.295341
  H 2.453484 -0.820179 -1.483711
  H 5.088092 -1.040344 -0.029553
 16
 6.225748
  H 1.447177 -0.200805 0.639114
  C 2.511518 -0.071965 0.484694
  C 3.255122 0.670175 1.498903
  C 2.427199 1.218415 2.635746
  H 3.061742 1.704642 3.367894
  C 3.068528 -0.518688 -0.683163
  C 4.456548 -0.804610 -0.903092
  C 5.111253 -0.517187 -2.044347
  H 4.642781 0.031734 -2.841460
  H 6.149376 -0.771427 -2.170521
  H 3.857243 1.465237 1.036758
  H 4.029212 -0.018643 1.885251
  H 1.861987 0.428380 3.130787
  H 1.714231 1.956954 2.276823
  H 2.407056 -0.893347 -1.457706
  H 4.994748 -1.283825 -0.090585
 16
 8.970345
  H 1.436754 -0.186152 0.638266
  C 2.489925 -0.020982 0.445840
  C 3.244868 0.733889 1.446165
  C 2.452629 1.188610 2.646928
  H 3.098387 1.690987 3.361774
  C 3.047315 -0.502376 -0.703053
  C 4.423285 -0.859488 -0.909763
  C 5.142745 -0.502044 -1.988180
  H 4.709103 0.063937 -2.796330
  H 6.176458 -0.770149 -2.082220
  H 3.770292 1.583158 0.985689
  H 4.075108 0.067112 1.762322
  H 1.970960 0.354954 3.137723
  H 1.672783 1.896394 2.356074
  H 2.387580 -0.926256 -1.451531
  H 4.894739 -1.428525 -0.116804
 16
 14.276968
  H 1.486202 -0.240396 0.674950
  C 2.538036 -0.033376 0.491945
  C 3.240690 0.807672 1.465039
  C 2.412070 1.211750 2.664531
  H 2.999187 1.829561 3.334493
  C 3.109095 -0.498474 -0.648840
  C 4.424499 -0.970639 -0.990048
  C 5.159821 -0.506157 -2.009909
  H 4.821569 0.316528 -2.621109
  H 6.120789 -0.916270 -2.233632
  H 3.652978 1.697759 0.972137
  H 4.125052 0.234806 1.777328
  H 2.059483 0.338686 3.212013
  H 1.541547 1.791761 2.362830
  H 2.468052 -0.945920 -1.408497
  H 4.833296 -1.744764 -0.337647
 16
 23.025924
  H 1.571795 -0.217722 0.685293
  C 2.634582 -0.042216 0.557659
  C 3.258700 0.842892 1.574236
  C 2.311837 1.242510 2.690369
  H 2.830302 1.871121 3.411150
  C 3.244754 -0.440387 -0.560563
  C 4.472806 -0.990742 -1.070454
  C 5.129651 -0.538369 -2.156751
  H 4.794491 0.321192 -2.709113
  H 6.013194 -1.036249 -2.509028
  H 3.660169 1.734653 1.097700
  H 4.116458 0.300187 1.973751
  H 1.921443 0.364088 3.210379
  H 1.475508 1.811747 2.309446
  H 2.664438 -1.029956 -1.306216
  H 4.888432 -1.828364 -0.512528
 16
 27.937279
  H 1.613811 -0.295924 0.725982
  C 2.643841 -0.035632 0.557127
  C 3.274721 0.844106 1.591723
  C 2.296755 1.269847 2.665488
  H 2.812016 1.852944 3.410499
  C 3.267997 -0.479295 -0.506942
  C 4.469528 -1.022083 -1.085434
  C 5.071670 -0.507076 -2.183610
  H 4.705635 0.350871 -2.688123
  H 6.037839 -0.902229 -2.510875
  H 3.713998 1.714514 1.114272
  H 4.103501 0.262825 2.012317
  H 1.848930 0.403903 3.157069
  H 1.498587 1.886237 2.257348
  H 2.708871 -1.104891 -1.264146
  H 4.928265 -1.878823 -0.583456
 16
 32.203356
  H 1.602920 -0.242150 0.708493
  C 2.671325 -0.064512 0.574920
  C 3.282978 0.844575 1.614228
  C 2.279955 1.271780 2.665703
  H 2.772366 1.901924 3.405968
  C 3.301441 -0.533771 -0.473584
  C 4.448710 -1.061197 -1.135459
  C 5.085784 -0.465749 -2.165991
  H 4.709825 0.429625 -2.627980
  H 5.979740 -0.898834 -2.582716
  H 3.699293 1.712640 1.124805
  H 4.109759 0.296924 2.082959
  H 1.871269 0.422417 3.172484
  H 1.455195 1.855656 2.225546
  H 2.826840 -1.171180 -1.261228
  H 4.917315 -1.939368 -0.671351
 16
 38.656705
  H 1.688834 -0.181060 0.659334
  C 2.762027 -0.033751 0.615547
  C 3.307872 0.829105 1.729865
  C 2.206930 1.327093 2.655361
  H 2.639904 1.943231 3.442717
  C 3.473213 -0.563491 -0.324903
  C 4.458136 -1.105697 -1.169159
  C 4.985144 -0.459227 -2.281725
  H 4.562527 0.460567 -2.650128
  H 5.833590 -0.867330 -2.794651
  H 3.838358 1.672552 1.293890
  H 4.033493 0.238321 2.295669
  H 1.686304 0.498103 3.128203
  H 1.487012 1.932018 2.116489
  H 3.114539 -1.340682 -1.264982
  H 4.981227 -1.985928 -0.801486
 16
 40.193791
  H 1.702490 -0.181629 0.657485
  C 2.778657 -0.041632 0.628185
  C 3.316927 0.819465 1.749068
  C 2.202527 1.343089 2.642879
  H 2.626514 1.955993 3.434845
  C 3.497487 -0.593988 -0.285097
  C 4.448489 -1.121970 -1.175067
  C 4.962105 -0.431308 -2.279005
  H 4.540945 0.502185 -2.602822
  H 5.796937 -0.827951 -2.825384
  H 3.871264 1.647984 1.320571
  H 4.018875 0.219566 2.336409
  H 1.656658 0.527406 3.106757
  H 1.504791 1.958424 2.081419
  H 3.207625 -1.394245 -1.293203
  H 4.998693 -2.004381 -0.847678
 16
 41.492095
  H 1.765506 -0.162876 0.654194
  C 2.841678 -0.020432 0.659351
  C 3.332122 0.841881 1.803667
  C 2.179916 1.351678 2.655450
  H 2.568108 1.968079 3.462630
  C 3.585830 -0.544550 -0.241012
  C 4.422326 -1.147390 -1.194811
  C 4.931489 -0.452761 -2.324541
  H 4.488134 0.467512 -2.659374
  H 5.778803 -0.837762 -2.858765
  H 3.897184 1.680109 1.395148
  H 4.015686 0.247771 2.413260
  H 1.624987 0.528247 3.099244
  H 1.497288 1.959983 2.068921
  H 3.304833 -1.460656 -1.414976
  H 4.981244 -2.022505 -0.867499
 16
 40.280838
  H 1.779114 0.045519 0.571824
  C 2.863853 0.047461 0.647765
  C 3.372626 0.751183 1.890702
  C 2.235568 1.340971 2.710378
  H 2.640826 1.838333 3.588582
  C 3.578102 -0.503876 -0.252344
  C 4.299091 -1.146899 -1.275530
  C 4.913410 -0.403940 -2.343206
  H 4.576982 0.584069 -2.597140
  H 5.716051 -0.838669 -2.907850
  H 4.065272 1.537427 1.587043
  H 3.930022 0.028360 2.488081
  H 1.551459 0.565943 3.049807
  H 1.677545 2.077312 2.136926
  H 3.280496 -1.433284 -1.685106
  H 4.807770 -2.064714 -0.978560
 16
 37.338892
  H 1.764930 0.015650 0.589654
  C 2.850408 0.002930 0.672280
  C 3.349943 0.640524 1.953999
  C 2.258757 1.432651 2.655642
  H 2.657572 1.872883 3.564299
  C 3.535091 -0.545337 -0.248840
  C 4.282338 -1.126291 -1.282934
  C 4.777661 -0.309556 -2.367181
  H 4.530229 0.731844 -2.449952
  H 5.397283 -0.757272 -3.123412
  H 4.190761 1.286188 1.718450
  H 3.709147 -0.158493 2.603754
  H 1.422211 0.793584 2.931301
  H 1.891593 2.242142 2.024551
  H 3.610813 -1.893082 -1.728415
  H 5.059449 -1.803168 -0.881825
