 20
 0.000000
  H 1.409017 0.173936 0.485551
  C 2.479169 0.137288 0.393601
  H 3.098278 0.465757 1.210251
  C 3.021248 -0.330470 -0.770881
  C 4.405484 -0.412911 -0.976967
  C 5.108853 -0.864383 -2.102812
  C 4.616293 -1.384532 -3.400153
  C 3.129141 -1.505990 -3.704351
  C 2.927458 -2.069368 -5.109055
  O 6.417443 -0.850970 -2.069239
  H 2.347033 -0.643596 -1.549981
  H 5.015557 -0.078259 -0.143666
  H 5.081083 -2.370299 -3.526718
  H 5.081847 -0.759893 -4.172754
  H 2.649472 -0.527729 -3.656439
  H 2.648877 -2.179717 -2.993865
  H 3.372828 -1.420332 -5.859086
  H 1.866632 -2.157001 -5.328457
  H 3.372355 -3.057060 -5.202565
  H 6.804259 -0.517599 -1.235438
 20
 13.303069
  H 1.349007 0.219212 0.598254
  C 2.416839 0.183429 0.508679
  H 3.035229 0.510691 1.322432
  C 3.010669 -0.323539 -0.753526
  C 4.373366 -0.394264 -0.930378
  C 5.156039 -0.890172 -2.167117
  C 4.651193 -1.405219 -3.451711
  C 3.157272 -1.516364 -3.730240
  C 2.928806 -2.078339 -5.131396
  O 6.447658 -0.868960 -2.114244
  H 2.339833 -0.636604 -1.532637
  H 4.980507 -0.060462 -0.099191
  H 5.110386 -2.393015 -3.584500
  H 5.111196 -0.783475 -4.230249
  H 2.685819 -0.534811 -3.673440
  H 2.685193 -2.186307 -3.011014
  H 3.366221 -1.432167 -5.888593
  H 1.864146 -2.159196 -5.333910
  H 3.365751 -3.068904 -5.232033
  H 6.828120 -0.533812 -1.275977
 20
 39.619792
  H 1.294809 0.246488 0.668402
  C 2.363145 0.211175 0.579108
  H 3.014610 0.530461 1.371278
  C 2.984075 -0.327725 -0.763158
  C 4.328649 -0.373095 -0.878704
  C 5.216076 -0.919907 -2.241608
  C 4.684160 -1.426662 -3.503899
  C 3.189337 -1.520654 -3.741230
  C 2.921851 -2.079724 -5.135424
  O 6.480625 -0.866186 -2.108649
  H 2.282510 -0.625152 -1.502160
  H 4.984204 -0.055348 -0.088983
  H 5.136045 -2.415026 -3.652834
  H 5.137263 -0.816832 -4.295060
  H 2.736628 -0.532535 -3.670217
  H 2.735031 -2.184917 -3.007164
  H 3.347612 -1.437816 -5.902690
  H 1.852609 -2.150190 -5.314090
  H 3.345762 -3.074729 -5.245977
  H 6.832346 -0.530459 -1.269026
 20
 71.415110
  H 1.214455 0.241366 0.655576
  C 2.281244 0.224928 0.613469
  H 2.915318 0.546279 1.410821
  C 2.978039 -0.329438 -0.767341
  C 4.295133 -0.347291 -0.814432
  C 5.305884 -0.949516 -2.315498
  C 4.745892 -1.448772 -3.559011
  C 3.230315 -1.516678 -3.731379
  C 2.885858 -2.069584 -5.110106
  O 6.550793 -0.880815 -2.145135
  H 2.282233 -0.629749 -1.513519
  H 4.958871 -0.033429 -0.034684
  H 5.180861 -2.446823 -3.723653
  H 5.182137 -0.843023 -4.368368
  H 2.796328 -0.523803 -3.639677
  H 2.794854 -2.169982 -2.979058
  H 3.286252 -1.435496 -5.897202
  H 1.808014 -2.119551 -5.237596
  H 3.284387 -3.072564 -5.240252
  H 6.889095 -0.539969 -1.292524
 20
 100.946898
  H 1.153413 0.273048 0.736863
  C 2.216468 0.265311 0.715430
  H 2.849209 0.584342 1.507947
  C 2.930198 -0.294965 -0.682256
  C 4.233552 -0.304012 -0.708227
  C 5.360616 -0.983326 -2.401100
  C 4.789093 -1.476290 -3.627325
  C 3.269804 -1.531534 -3.767157
  C 2.888783 -2.081479 -5.139725
  O 6.594345 -0.909524 -2.217944
  H 2.221270 -0.594511 -1.426514
  H 4.921858 0.001082 0.048590
  H 5.211716 -2.480637 -3.791679
  H 5.213147 -0.866905 -4.441757
  H 2.852027 -0.530709 -3.661617
  H 2.849211 -2.179124 -2.998390
  H 3.276563 -1.451087 -5.936093
  H 1.807879 -2.120773 -5.242560
  H 3.273601 -3.088651 -5.279211
  H 6.930373 -0.565687 -1.355448
 20
 118.374719
  H 1.015221 0.179871 0.573737
  C 2.081241 0.230014 0.648343
  H 2.591057 0.590047 1.509393
  C 2.853440 -0.233323 -0.507297
  C 4.166000 -0.191549 -0.453337
  C 5.500924 -1.033517 -2.526915
  C 4.870195 -1.522754 -3.732141
  C 3.343247 -1.515894 -3.760184
  C 2.830732 -2.056989 -5.082593
  O 6.742503 -0.967659 -2.359896
  H 2.252565 -0.578207 -1.317402
  H 4.942926 0.103725 0.210036
  H 5.247656 -2.537463 -3.914616
  H 5.267727 -0.942656 -4.579436
  H 2.973205 -0.504925 -3.630381
  H 2.957145 -2.130535 -2.962357
  H 3.180518 -1.451552 -5.913731
  H 1.742752 -2.051794 -5.097546
  H 3.163662 -3.079891 -5.240452
  H 7.091316 -0.629649 -1.503898
 20
 129.988037
  H 0.923610 0.202990 0.616270
  C 1.971822 0.269630 0.729394
  H 2.399860 0.643131 1.624495
  C 2.795899 -0.159440 -0.340796
  C 4.114791 -0.117723 -0.262755
  C 5.570782 -1.068737 -2.601099
  C 4.911182 -1.556295 -3.814140
  C 3.384930 -1.538936 -3.798539
  C 2.824805 -2.069623 -5.118919
  O 6.824918 -1.023774 -2.486388
  H 2.274488 -0.526123 -1.205788
  H 4.924798 0.157618 0.371929
  H 5.275507 -2.573695 -4.015622
  H 5.289141 -0.968895 -4.669324
  H 3.022609 -0.523872 -3.648365
  H 3.013968 -2.168602 -2.988282
  H 3.153439 -1.457874 -5.958375
  H 1.735694 -2.058639 -5.102287
  H 3.146536 -3.094793 -5.295151
  H 7.192558 -0.680043 -1.647729
 20
 136.038235
  H 0.802663 0.210022 0.665709
  C 1.865942 0.301184 0.801530
  H 2.249128 0.680554 1.718796
  C 2.727617 -0.105946 -0.220253
  C 4.046005 -0.060037 -0.123521
  C 5.623436 -1.103388 -2.697982
  C 4.945017 -1.585825 -3.893560
  C 3.439074 -1.549918 -3.825917
  C 2.828497 -2.070313 -5.117507
  O 6.890601 -1.084491 -2.638499
  H 2.260251 -0.486817 -1.115162
  H 4.877801 0.217203 0.498057
  H 5.292787 -2.612113 -4.092392
  H 5.305032 -0.993027 -4.757556
  H 3.110376 -0.531684 -3.657872
  H 3.104277 -2.164014 -3.001313
  H 3.136212 -1.465918 -5.963895
  H 1.743543 -2.043872 -5.062186
  H 3.130144 -3.096178 -5.304204
  H 7.295643 -0.758511 -1.799490
 20
 139.244365
  H 0.716693 0.208942 0.704607
  C 1.763614 0.330640 0.868932
  H 2.096630 0.708304 1.810337
  C 2.672169 -0.049115 -0.107304
  C 3.986979 0.001111 0.022160
  C 5.693768 -1.136184 -2.771203
  C 4.991443 -1.613501 -3.955420
  C 3.476405 -1.558913 -3.846510
  C 2.818750 -2.073044 -5.127874
  O 6.969853 -1.136146 -2.759337
  H 2.256568 -0.443683 -1.031567
  H 4.839051 0.267996 0.603134
  H 5.317278 -2.647949 -4.157740
  H 5.329219 -1.022879 -4.823762
  H 3.166269 -0.530957 -3.669455
  H 3.154543 -2.171390 -3.004535
  H 3.113440 -1.470586 -5.985654
  H 1.735107 -2.031680 -5.044004
  H 3.102377 -3.105958 -5.323115
  H 7.390917 -0.812514 -1.943132
 20
 140.300378
  H 0.625581 0.162277 0.686099
  C 1.657316 0.345351 0.901215
  H 1.923483 0.710612 1.885249
  C 2.628727 0.011787 -0.014176
  C 3.931731 0.074894 0.165667
  C 5.775910 -1.165176 -2.838310
  C 5.019574 -1.639711 -4.011532
  C 3.499657 -1.559275 -3.862972
  C 2.805446 -2.065125 -5.112077
  O 7.048624 -1.195557 -2.888087
  H 2.278007 -0.399509 -0.961208
  H 4.837304 0.338133 0.707622
  H 5.317959 -2.669699 -4.218489
  H 5.336221 -1.070595 -4.876969
  H 3.211443 -0.524094 -3.682789
  H 3.189180 -2.169252 -3.000669
  H 3.086752 -1.472324 -5.979610
  H 1.733227 -2.006700 -4.999977
  H 3.067578 -3.100424 -5.308080
  H 7.514695 -0.877071 -2.079907
 20
 139.951036
  H 0.540796 0.090481 0.584493
  C 1.548154 0.338975 0.881722
  H 1.719039 0.674203 1.879234
  C 2.607471 0.055547 0.045927
  C 3.891254 0.144872 0.291624
  C 5.863624 -1.197253 -2.911656
  C 5.048791 -1.659042 -4.044760
  C 3.539498 -1.540111 -3.826431
  C 2.771759 -2.038058 -5.041225
  O 7.137987 -1.259063 -3.025951
  H 2.335908 -0.379730 -0.930638
  H 4.794862 0.391338 0.772558
  H 5.316701 -2.700117 -4.258913
  H 5.344850 -1.098462 -4.936019
  H 3.286061 -0.501123 -3.642621
  H 3.257678 -2.129699 -2.957208
  H 3.029024 -1.455204 -5.929935
  H 1.693378 -1.951278 -4.877871
  H 3.001839 -3.088836 -5.243172
  H 7.635675 -0.957461 -2.248605
 20
 139.319426
  H 0.492486 0.024481 0.397538
  C 1.433229 0.305610 0.802046
  H 1.484351 0.633264 1.828764
  C 2.589090 0.076767 0.091175
  C 3.844576 0.207551 0.417464
  C 5.943636 -1.233249 -2.994415
  C 5.070735 -1.675969 -4.077538
  C 3.575845 -1.521618 -3.774570
  C 2.726294 -2.003654 -4.944102
  O 7.212563 -1.319779 -3.168696
  H 2.430813 -0.369521 -0.890671
  H 4.781014 0.439207 0.868747
  H 5.305770 -2.724608 -4.301490
  H 5.334626 -1.119713 -4.989821
  H 3.354441 -0.470273 -3.578287
  H 3.328738 -2.103758 -2.889537
  H 2.944156 -1.433466 -5.840753
  H 1.673113 -1.892971 -4.723377
  H 2.918345 -3.049950 -5.155498
  H 7.747090 -1.021195 -2.407437
 20
 138.674896
  H 0.446504 -0.038949 0.206911
  C 1.338863 0.271798 0.735258
  H 1.258082 0.596828 1.754082
  C 2.577537 0.104016 0.171315
  C 3.800275 0.288162 0.567537
  C 6.015980 -1.260196 -3.059228
  C 5.073556 -1.691235 -4.110952
  C 3.606754 -1.508677 -3.735538
  C 2.688319 -1.971666 -4.860520
  O 7.268479 -1.371992 -3.296220
  H 2.543156 -0.357540 -0.827457
  H 4.744148 0.495145 1.007894
  H 5.276102 -2.744924 -4.348540
  H 5.300854 -1.143886 -5.033472
  H 3.421444 -0.457923 -3.528008
  H 3.394481 -2.094810 -2.827307
  H 2.876568 -1.398032 -5.778753
  H 1.642049 -1.838502 -4.584645
  H 2.852685 -3.032196 -5.085303
  H 7.848975 -1.073815 -2.556115
 20
 136.363500
  H 0.649280 -0.099508 -0.579544
  C 1.262708 0.143996 0.259137
  H 0.787362 0.313725 1.207986
  C 2.645995 0.086779 0.192274
  C 3.755924 0.227675 0.858109
  C 6.073593 -1.268963 -3.083550
  C 5.041523 -1.666217 -4.056709
  C 3.612278 -1.471659 -3.542885
  C 2.577988 -1.904396 -4.590791
  O 7.296930 -1.386631 -3.457260
  H 3.051160 -0.295321 -0.774842
  H 4.717378 0.557324 1.150234
  H 5.212493 -2.711009 -4.329252
  H 5.198526 -1.102824 -4.985093
  H 3.464483 -0.412269 -3.299900
  H 3.475305 -2.068181 -2.638148
  H 2.684054 -1.319237 -5.505773
  H 1.560437 -1.762069 -4.213815
  H 2.699990 -2.959112 -4.844609
  H 7.936094 -1.103040 -2.783765
 20
 126.311132
  H 1.438485 -0.534366 -1.396215
  C 1.561705 -0.215022 -0.379414
  H 0.669365 -0.063989 0.200316
  C 2.754225 0.038433 0.141608
  C 3.802538 0.304998 0.795264
  C 5.952981 -1.206383 -2.961008
  C 4.867720 -1.599291 -3.898168
  C 3.459627 -1.362589 -3.362634
  C 2.410756 -1.793251 -4.382930
  O 7.146133 -1.384389 -3.430833
  H 3.977164 -0.230814 -0.291014
  H 4.691767 0.641842 1.260203
  H 5.007571 -2.658811 -4.144291
  H 5.012325 -1.056944 -4.840156
  H 3.337729 -0.300316 -3.147303
  H 3.324801 -1.937182 -2.445761
  H 2.519300 -1.232639 -5.309489
  H 1.404518 -1.626386 -4.006618
  H 2.509972 -2.851722 -4.616065
  H 7.854819 -1.132114 -2.803686
