 17
 0.000000
  C 0.959403 -0.016573 -0.005206
  C 2.455635 0.000630 0.011426
  C 3.170289 0.812825 0.796409
  C 4.607475 0.829824 0.812837
  C 5.327314 1.646725 1.602378
  C 6.765287 1.661720 1.616870
  C 7.480412 2.470543 2.398593
  H 8.552546 2.489987 2.417386
  H 0.597870 -0.755147 -0.719035
  H 0.563901 0.955041 -0.299257
  H 0.563900 -0.277363 0.975858
  H 2.955752 -0.688929 -0.655041
  H 2.658919 1.498944 1.459549
  H 5.112082 0.141250 0.147333
  H 4.823466 2.335453 2.268032
  H 7.271944 0.973715 0.951911
  H 6.984187 3.161184 3.066101
 17
 7.512618
  C 0.849013 -0.029098 -0.017313
  C 2.504442 -0.005081 0.005906
  C 3.207289 0.806360 0.790162
  C 4.643872 0.830783 0.813764
  C 5.356719 1.650291 1.605825
  C 6.794323 1.672983 1.627755
  C 7.501887 2.484348 2.411936
  H 8.575919 2.506225 2.433080
  H 0.496312 -0.767578 -0.731051
  H 0.457785 0.940762 -0.310490
  H 0.457784 -0.289076 0.961971
  H 3.004738 -0.692298 -0.658297
  H 2.690164 1.490130 1.451030
  H 5.154764 0.144609 0.150579
  H 4.846760 2.336512 2.269055
  H 7.306393 0.987075 0.964823
  H 7.002491 3.172742 3.077272
 17
 23.559249
  C 0.738691 -0.037883 -0.025803
  C 2.553527 -0.015253 -0.003927
  C 3.238596 0.795933 0.780085
  C 4.677565 0.829614 0.812636
  C 5.381863 1.651704 1.607190
  C 6.819513 1.684835 1.639211
  C 7.518393 2.500056 2.427119
  H 8.594225 2.522222 2.448537
  H 0.403478 -0.775676 -0.738878
  H 0.372057 0.934457 -0.315170
  H 0.372057 -0.293967 0.955827
  H 3.037075 -0.703966 -0.669574
  H 2.715156 1.477729 1.439046
  H 5.196512 0.146153 0.152071
  H 4.864120 2.334968 2.267564
  H 7.337558 1.001123 0.978402
  H 7.017526 3.186807 3.090865
 17
 41.733036
  C 0.620528 -0.048946 -0.036495
  C 2.594842 -0.032051 -0.020161
  C 3.273043 0.789420 0.773790
  C 4.714442 0.830831 0.813813
  C 5.411199 1.656509 1.611835
  C 6.848641 1.698416 1.652338
  C 7.538803 2.516648 2.443156
  H 8.613567 2.540006 2.465723
  H 0.300869 -0.791118 -0.753806
  H 0.278948 0.934547 -0.325238
  H 0.278946 -0.304026 0.956260
  H 3.060638 -0.728304 -0.693095
  H 2.745561 1.469449 1.431044
  H 5.240049 0.150063 0.155851
  H 4.886358 2.337329 2.269849
  H 7.372337 1.016946 0.993693
  H 7.034806 3.202492 3.106022
 17
 57.991316
  C 0.515348 -0.034315 -0.022349
  C 2.648833 -0.060958 -0.048104
  C 3.301796 0.763059 0.748300
  C 4.738505 0.818155 0.801556
  C 5.419908 1.652409 1.607863
  C 6.856925 1.711626 1.665093
  C 7.530530 2.536933 2.462749
  H 8.604204 2.561330 2.486366
  H 0.240948 -0.788113 -0.750887
  H 0.268419 0.980927 -0.310990
  H 0.268422 -0.288202 1.002139
  H 3.041019 -0.781422 -0.744429
  H 2.771219 1.439675 1.402257
  H 5.275490 0.142509 0.148547
  H 4.881215 2.328102 2.260915
  H 7.391485 1.034560 1.010710
  H 7.021174 3.220948 3.123883
 17
 74.480209
  C 0.399237 -0.039061 -0.026936
  C 2.691888 -0.073487 -0.060211
  C 3.331952 0.751406 0.737042
  C 4.779505 0.817342 0.800772
  C 5.445285 1.651863 1.607337
  C 6.880199 1.721673 1.674809
  C 7.543005 2.552566 2.477863
  H 8.619078 2.582799 2.507108
  H 0.147310 -0.786296 -0.749136
  H 0.182637 0.968080 -0.311969
  H 0.182638 -0.289621 0.989330
  H 3.063045 -0.792520 -0.755156
  H 2.792752 1.426595 1.389619
  H 5.326735 0.145404 0.151346
  H 4.897334 2.323030 2.256017
  H 7.423584 1.048221 1.023913
  H 7.026411 3.232485 3.135027
 17
 88.527863
  C 0.281987 -0.041127 -0.028932
  C 2.733499 -0.091129 -0.077262
  C 3.364398 0.736524 0.722658
  C 4.809048 0.811111 0.794750
  C 5.469763 1.657064 1.612366
  C 6.906690 1.736748 1.689375
  C 7.557289 2.569859 2.494577
  H 8.631528 2.604898 2.528467
  H 0.049819 -0.797024 -0.759504
  H 0.099119 0.980165 -0.316814
  H 0.099119 -0.294050 1.001573
  H 3.082399 -0.819134 -0.780876
  H 2.822137 1.408907 1.372525
  H 5.362810 0.142499 0.148539
  H 4.913173 2.325562 2.258466
  H 7.458165 1.066740 1.041812
  H 7.033540 3.247301 3.149348
 17
 100.259151
  C 0.171204 -0.042570 -0.030328
  C 2.781803 -0.100479 -0.086298
  C 3.403622 0.729165 0.715549
  C 4.849378 0.813887 0.797435
  C 5.486375 1.650945 1.606454
  C 6.917916 1.740632 1.693135
  C 7.560030 2.582997 2.507279
  H 8.634988 2.625319 2.548198
  H -0.041287 -0.795815 -0.758339
  H 0.013474 0.974884 -0.316946
  H 0.013474 -0.294365 0.996298
  H 3.115557 -0.829046 -0.790459
  H 2.854301 1.399981 1.363900
  H 5.412620 0.149797 0.155592
  H 4.920690 2.313962 2.247257
  H 7.478258 1.074366 1.049185
  H 7.027295 3.256814 3.158534
 17
 109.218609
  C 0.048065 -0.019815 -0.008335
  C 2.814640 -0.134828 -0.119496
  C 3.435792 0.693370 0.680957
  C 4.879954 0.795904 0.780056
  C 5.499718 1.648652 1.604245
  C 6.930410 1.756912 1.708869
  C 7.548409 2.605397 2.528931
  H 8.620621 2.663538 2.585126
  H -0.108934 -0.785337 -0.748213
  H -0.001623 1.014981 -0.300900
  H -0.001623 -0.276964 1.035816
  H 3.078737 -0.879885 -0.839595
  H 2.883457 1.362124 1.327316
  H 5.455141 0.138998 0.145153
  H 4.917736 2.304938 2.238537
  H 7.508369 1.098494 1.072509
  H 6.996561 3.271233 3.172467
 17
 116.663250
  C -0.074731 -0.031699 -0.019824
  C 2.851882 -0.140708 -0.125177
  C 3.466025 0.688028 0.675796
  C 4.913617 0.796986 0.781099
  C 5.527988 1.654431 1.609826
  C 6.959544 1.768844 1.720407
  C 7.570810 2.620055 2.543102
  H 8.643535 2.682818 2.603754
  H -0.223347 -0.790374 -0.753085
  H -0.126105 0.992361 -0.309608
  H -0.126108 -0.286437 1.013510
  H 3.121077 -0.881580 -0.841233
  H 2.906949 1.355641 1.321049
  H 5.495898 0.140747 0.146843
  H 4.940469 2.308444 2.241929
  H 7.542886 1.112941 1.086471
  H 7.013547 3.283524 3.184343
 17
 122.245164
  C -0.196218 -0.037959 -0.025875
  C 2.889765 -0.149524 -0.133698
  C 3.498381 0.680847 0.668854
  C 4.946021 0.797857 0.781941
  C 5.550242 1.657521 1.612811
  C 6.980248 1.779696 1.730892
  C 7.582052 2.633857 2.556439
  H 8.654051 2.702522 2.622804
  H -0.332109 -0.800854 -0.763213
  H -0.235862 0.990414 -0.317611
  H -0.235865 -0.294499 1.011841
  H 3.155919 -0.891471 -0.850791
  H 2.934168 1.346040 1.311767
  H 5.534274 0.145356 0.151298
  H 4.955944 2.308237 2.241727
  H 7.570453 1.127056 1.100112
  H 7.017886 3.294032 3.194503
 17
 126.423040
  C -0.319894 -0.045256 -0.032927
  C 2.925547 -0.157972 -0.141863
  C 3.528930 0.673646 0.661893
  C 4.975104 0.798099 0.782173
  C 5.570778 1.661381 1.616538
  C 6.999592 1.790921 1.741744
  C 7.592681 2.648243 2.570344
  H 8.663712 2.722456 2.642067
  H -0.444306 -0.807563 -0.769696
  H -0.350505 0.981185 -0.324668
  H -0.350508 -0.301865 1.002857
  H 3.190402 -0.900317 -0.859339
  H 2.959583 1.336808 1.302842
  H 5.569488 0.148349 0.154191
  H 4.970044 2.309090 2.242554
  H 7.596318 1.141314 1.113890
  H 7.021732 3.305664 3.205750
 17
 129.439332
  C -0.446584 -0.052902 -0.040317
  C 2.958318 -0.166552 -0.150154
  C 3.556493 0.666339 0.654832
  C 5.002694 0.798824 0.782875
  C 5.588847 1.665010 1.620045
  C 7.016340 1.802268 1.752707
  C 7.600211 2.662690 2.584306
  H 8.670675 2.742809 2.661738
  H -0.559569 -0.816726 -0.778552
  H -0.467802 0.974340 -0.332840
  H -0.467805 -0.310265 0.996292
  H 3.221557 -0.908615 -0.867358
  H 2.981478 1.327387 1.293737
  H 5.603549 0.152156 0.157871
  H 4.981437 2.309427 2.242880
  H 7.619823 1.155972 1.128056
  H 7.022434 3.316793 3.216507
 17
 131.528367
  C -0.576339 -0.061254 -0.048389
  C 2.988078 -0.174777 -0.158104
  C 3.581286 0.659480 0.648201
  C 5.025977 0.799596 0.783620
  C 5.603201 1.669012 1.623910
  C 7.029315 1.813734 1.763791
  C 7.604274 2.677225 2.598358
  H 8.673689 2.763040 2.681294
  H -0.678924 -0.825287 -0.786826
  H -0.589838 0.965320 -0.341180
  H -0.589841 -0.318907 0.987564
  H 3.250964 -0.917248 -0.875702
  H 3.000933 1.318215 1.284871
  H 5.632892 0.155992 0.161578
  H 4.989324 2.310283 2.243707
  H 7.639384 1.170604 1.142200
  H 7.019690 3.328344 3.227667
