10

H 1.3859317928625645 -0.011262566641412054 -7.276404099593875e-05
C 2.45583 -0.000652 0.010186
C 3.169662 0.812807 0.796393
C 4.607614 0.828802 0.81185
C 5.32678 1.645907 1.60159
H 6.396679641058387 1.6564466634663717 1.6117720212704403
H 2.954001 -0.691315 -0.657348
H 2.657309 1.501021 1.461557
H 5.112305 0.139901 0.14603
H 4.822653 2.334984 2.267579
