 10
 0.000000
  H 1.385271 -0.009865 0.001278
  C 2.460538 0.001655 0.012415
  C 3.166758 0.812008 0.795621
  C 4.611132 0.832908 0.815818
  C 5.319329 1.641649 1.597474
  H 6.394479 1.651047 1.606554
  H 2.957830 -0.686578 -0.652769
  H 2.656258 1.499706 1.460286
  H 5.117133 0.144875 0.150837
  H 4.820038 2.329234 2.262022
 10
 5.186626
  H 1.371149 0.071685 0.074518
  C 2.465993 0.027012 0.023622
  C 3.228920 0.776672 0.772735
  C 4.655104 0.822355 0.825452
  C 5.327734 1.666556 1.599456
  H 6.401497 1.687675 1.637473
  H 2.877486 -0.686002 -0.675859
  H 2.585169 1.371555 1.356418
  H 5.162869 0.142457 0.166961
  H 4.813154 2.336476 2.268570
 10
 20.928882
  H 1.339558 0.136778 0.138730
  C 2.456879 0.045072 0.045476
  C 3.281284 0.754653 0.749492
  C 4.709600 0.834777 0.829067
  C 5.352059 1.680315 1.628729
  H 6.424354 1.721309 1.666379
  H 2.746035 -0.704194 -0.694731
  H 2.493895 1.239071 1.226554
  H 5.252126 0.154959 0.182070
  H 4.816156 2.352872 2.277402
 10
 41.762001
  H 1.309539 0.172494 0.158671
  C 2.448127 0.063317 0.065216
  C 3.311048 0.749922 0.757299
  C 4.733909 0.834106 0.843854
  C 5.371010 1.674847 1.649907
  H 6.448427 1.745060 1.674309
  H 2.691489 -0.692411 -0.692688
  H 2.416451 1.128145 1.133506
  H 5.279554 0.166201 0.187905
  H 4.825090 2.369572 2.266071
 10
 62.222009
  H 1.273006 0.170683 0.163354
  C 2.435304 0.082808 0.082788
  C 3.320503 0.767554 0.764999
  C 4.743350 0.842694 0.847522
  C 5.384461 1.688313 1.648181
  H 6.458162 1.741951 1.668458
  H 2.670574 -0.689961 -0.679407
  H 2.355986 1.058563 1.046248
  H 5.290495 0.171716 0.195061
  H 4.852076 2.371028 2.290614
 10
 79.999956
  H 1.253506 0.165319 0.152574
  C 2.426768 0.099297 0.092680
  C 3.317366 0.791126 0.788730
  C 4.738985 0.850933 0.853968
  C 5.397744 1.683571 1.652892
  H 6.475258 1.734373 1.663198
  H 2.666206 -0.684703 -0.663861
  H 2.297827 0.989147 0.983920
  H 5.278986 0.180829 0.191096
  H 4.873184 2.378173 2.290156
 10
 94.762170
  H 1.219907 0.160287 0.139881
  C 2.421836 0.105029 0.100649
  C 3.313002 0.811915 0.797122
  C 4.737919 0.871038 0.840155
  C 5.405813 1.687174 1.651243
  H 6.482207 1.715819 1.670028
  H 2.655864 -0.696251 -0.645746
  H 2.254597 0.934955 0.935927
  H 5.277194 0.190145 0.183547
  H 4.895235 2.380401 2.299145
 10
 106.399973
  H 1.191995 0.153436 0.128574
  C 2.415320 0.102739 0.109281
  C 3.306682 0.836889 0.797877
  C 4.732620 0.885998 0.825644
  C 5.408500 1.691013 1.642337
  H 6.486268 1.701430 1.665021
  H 2.658142 -0.730478 -0.600174
  H 2.219939 0.921798 0.871878
  H 5.271857 0.207914 0.161891
  H 4.904886 2.348377 2.332999
 10
 113.651250
  H 1.185691 0.133337 0.089173
  C 2.418749 0.102021 0.124798
  C 3.284510 0.876311 0.821643
  C 4.711760 0.889546 0.828643
  C 5.416507 1.674648 1.641138
  H 6.493009 1.675396 1.647533
  H 2.696195 -0.727578 -0.567217
  H 2.168847 0.884156 0.839866
  H 5.227176 0.216182 0.141861
  H 4.923478 2.338945 2.331109
 10
 121.744601
  H 1.142457 0.140020 0.081068
  C 2.425003 0.089000 0.129789
  C 3.294518 0.872956 0.805879
  C 4.723026 0.881110 0.825952
  C 5.416987 1.665869 1.646119
  H 6.492828 1.674256 1.649038
  H 2.657928 -0.740461 -0.572120
  H 2.135405 0.848471 0.818942
  H 5.247762 0.221875 0.133433
  H 4.920732 2.339666 2.327450
 10
 123.911220
  H 1.069370 0.217507 0.112855
  C 2.413847 0.058088 0.121416
  C 3.338401 0.787476 0.740111
  C 4.762241 0.873611 0.792419
  C 5.396064 1.666249 1.656370
  H 6.471314 1.726520 1.670951
  H 2.543605 -0.836105 -0.524887
  H 2.181466 0.893475 0.764437
  H 5.336744 0.266110 0.092382
  H 4.855426 2.271498 2.362190
 10
 129.177464
  H 0.995647 0.250887 0.037082
  C 2.418472 0.030385 0.132705
  C 3.339849 0.822045 0.689819
  C 4.752912 0.921268 0.755593
  C 5.397277 1.654179 1.667085
  H 6.471428 1.699784 1.697726
  H 2.526381 -0.944911 -0.359215
  H 2.152609 0.894411 0.703887
  H 5.323133 0.368485 0.009370
  H 4.867501 2.198691 2.427197
 10
 131.243802
  H 0.955624 0.308496 -0.071542
  C 2.414531 -0.003113 0.165703
  C 3.355569 0.809268 0.624671
  C 4.752234 0.956973 0.718649
  C 5.390452 1.637833 1.680486
  H 6.458341 1.705143 1.703635
  H 2.472849 -1.037820 -0.168765
  H 2.115419 0.879905 0.684908
  H 5.325154 0.481698 -0.071979
  H 4.857732 2.100103 2.496108
