16

H 1.329076653273768 0.03817114405602779 0.21931914724010868
C 2.391425 0.042963 0.091675
C 3.233957 -0.026184 1.35737
C 2.51645 -0.077997 2.706002
H 3.230749676643006 -0.12022207067618881 3.5015477342944448
C 2.991432 0.115832 -1.115578
H 2.531443811109414 0.18268866680918489 -2.079342002328539
C 4.447412 0.122099 -1.21009
C 5.183635 0.195514 -2.320017
H 6.253549981999582 0.1963228892528054 -2.3334809144015107
H 3.890998 0.849357 1.380981
H 3.8714 -0.913904 1.30925
H 1.878251 -0.961993 2.764643
H 1.895797 0.809941 2.84254
H 4.996853 0.059763 -0.281317
H 4.799792 0.262574 -3.324035
