 32
 0.000000
  C 0.976221 0.137423 0.392971
  C 2.454013 0.139037 0.396453
  C 3.235639 0.609617 1.567787
  C 2.454346 1.098326 2.784805
  C 3.399836 1.544547 3.895495
  C 3.075154 -0.323445 -0.755457
  C 4.453051 -0.411320 -0.974380
  C 5.123091 -0.863652 -2.101643
  C 4.621539 -1.386299 -3.404214
  C 3.129631 -1.502892 -3.695488
  C 2.900971 -2.064776 -5.095890
  O 6.448357 -0.861732 -2.096972
  H 0.536623 0.506728 1.312591
  H 0.607225 -0.875602 0.225656
  H 0.606888 0.753150 -0.428520
  H 3.891690 1.422523 1.236020
  H 3.891933 -0.206742 1.890421
  H 1.816173 0.300465 3.169902
  H 1.815972 1.940779 2.511101
  H 4.035897 0.723704 4.220729
  H 2.831181 1.890027 4.755909
  H 4.035670 2.362469 3.562513
  H 2.419676 -0.641874 -1.548482
  H 5.074642 -0.080448 -0.150120
  H 5.074798 -2.376186 -3.531176
  H 5.075111 -0.758952 -4.180234
  H 2.655258 -0.521998 -3.641322
  H 2.654907 -2.174090 -2.978375
  H 3.337991 -1.417938 -5.853563
  H 1.834936 -2.144711 -5.295684
  H 3.337647 -3.056093 -5.196233
  H 6.824653 -0.526795 -1.261478
 32
 0.722209
  C 0.950905 0.310958 0.340652
  C 2.423905 0.317017 0.322664
  C 3.219944 0.684682 1.517233
  C 2.460267 1.008595 2.800486
  C 3.434855 1.334060 3.928180
  C 3.037583 -0.050284 -0.870357
  C 4.416449 -0.112801 -1.085757
  C 5.094672 -0.777802 -2.104210
  C 4.605448 -1.352025 -3.386967
  C 3.118811 -1.564543 -3.651397
  C 2.927822 -2.249584 -5.002922
  O 6.400471 -0.931621 -2.003285
  H 0.532176 0.619971 1.291186
  H 0.582249 -0.688556 0.101516
  H 0.568515 0.961520 -0.448672
  H 3.838127 1.552102 1.258207
  H 3.921645 -0.126756 1.733582
  H 1.848817 0.156805 3.101469
  H 1.805050 1.868295 2.647374
  H 4.091895 0.491170 4.131014
  H 2.892404 1.564238 4.843231
  H 4.048406 2.196939 3.675959
  H 2.377745 -0.348006 -1.667379
  H 5.046730 0.252450 -0.285657
  H 5.130840 -2.302605 -3.513991
  H 5.008826 -0.702362 -4.173769
  H 2.594795 -0.609255 -3.679317
  H 2.685929 -2.198598 -2.875820
  H 3.336015 -1.642561 -5.807895
  H 1.869651 -2.406366 -5.201590
  H 3.421460 -3.218582 -5.022195
  H 6.803464 -0.534448 -1.203127
 32
 5.018161
  C 0.938950 0.483922 0.270847
  C 2.415448 0.483278 0.238647
  C 3.226604 0.756588 1.451383
  C 2.487343 0.879917 2.781347
  C 3.476798 1.087784 3.924255
  C 3.021497 0.195778 -0.975791
  C 4.398195 0.190921 -1.232965
  C 5.050419 -0.705222 -2.072226
  C 4.596515 -1.370141 -3.325524
  C 3.118626 -1.660769 -3.571134
  C 2.949482 -2.403882 -4.893322
  O 6.319079 -0.977077 -1.844589
  H 0.534569 0.731027 1.244213
  H 0.559364 -0.494869 -0.026083
  H 0.553485 1.187935 -0.467818
  H 3.777728 1.689620 1.277686
  H 3.985523 -0.024372 1.555644
  H 1.911976 -0.026836 2.975329
  H 1.799822 1.726894 2.759240
  H 4.167560 0.250929 3.999388
  H 2.949057 1.172885 4.870899
  H 4.053111 1.998838 3.779068
  H 2.355581 -0.064509 -1.783794
  H 5.029012 0.692997 -0.507170
  H 5.166499 -2.300407 -3.404636
  H 4.957080 -0.727011 -4.138094
  H 2.548161 -0.734999 -3.628733
  H 2.722746 -2.279473 -2.765133
  H 3.324456 -1.810160 -5.723609
  H 1.899070 -2.614797 -5.076467
  H 3.485680 -3.349892 -4.880343
  H 6.721827 -0.490626 -1.100744
 32
 14.362396
  C 0.924147 0.638019 0.188775
  C 2.399028 0.664292 0.116057
  C 3.238363 0.818197 1.330256
  C 2.544676 0.699406 2.683794
  C 3.567672 0.761586 3.814521
  C 2.980964 0.491572 -1.120380
  C 4.355829 0.553136 -1.447304
  C 4.983425 -0.558074 -2.010724
  C 4.592596 -1.383775 -3.187783
  C 3.115635 -1.675132 -3.456465
  C 2.972367 -2.563615 -4.688812
  O 6.175508 -0.915519 -1.573026
  H 0.550970 0.786550 1.194530
  H 0.546512 -0.314704 -0.182822
  H 0.507618 1.403244 -0.465852
  H 3.715256 1.804572 1.271789
  H 4.047826 0.086402 1.300376
  H 2.008414 -0.249293 2.745283
  H 1.827820 1.510188 2.820157
  H 4.289124 -0.047199 3.732961
  H 3.072281 0.674397 4.778109
  H 4.106382 1.707671 3.799726
  H 2.297319 0.267437 -1.926470
  H 4.967088 1.091838 -0.729492
  H 5.144368 -2.323201 -3.113887
  H 4.994036 -0.845460 -4.055108
  H 2.569340 -0.750616 -3.636353
  H 2.679845 -2.185312 -2.597028
  H 3.390851 -2.080147 -5.567094
  H 1.923425 -2.772109 -4.884464
  H 3.483142 -3.513594 -4.545709
  H 6.568620 -0.346380 -0.873231
 32
 31.752077
  C 0.944576 0.625535 0.172952
  C 2.422019 0.646513 0.061365
  C 3.299063 0.738598 1.260691
  C 2.633587 0.609158 2.628650
  C 3.681450 0.655585 3.737457
  C 2.971989 0.564841 -1.199654
  C 4.318353 0.802479 -1.606500
  C 4.789449 -0.470552 -1.895603
  C 4.520891 -1.406077 -3.027730
  C 3.083716 -1.606385 -3.501802
  C 3.047590 -2.613639 -4.646300
  O 5.854821 -0.895468 -1.247110
  H 0.602514 0.729184 1.195440
  H 0.547280 -0.302420 -0.235558
  H 0.516349 1.428493 -0.432207
  H 3.782267 1.715735 1.222886
  H 4.112738 -0.002275 1.190387
  H 2.095040 -0.334515 2.692550
  H 1.926640 1.425923 2.792240
  H 4.392380 -0.157020 3.629888
  H 3.207463 0.552056 4.709870
  H 4.227644 1.595730 3.721766
  H 2.277444 0.390523 -2.012901
  H 4.909444 1.419179 -0.943561
  H 4.958771 -2.364838 -2.754637
  H 5.104210 -1.002708 -3.863309
  H 2.668260 -0.665192 -3.856220
  H 2.472854 -1.988270 -2.681137
  H 3.634738 -2.258974 -5.489787
  H 2.026526 -2.752459 -4.992145
  H 3.437724 -3.575493 -4.334607
  H 6.224195 -0.277628 -0.581651
 32
 48.561547
  C 1.046684 0.634855 0.058390
  C 2.516147 0.659598 -0.034511
  C 3.373378 0.748467 1.167526
  C 2.724887 0.426302 2.512279
  C 3.775275 0.424330 3.618037
  C 3.078198 0.601448 -1.301636
  C 4.389801 1.072218 -1.765280
  C 4.558156 -0.326708 -1.729150
  C 4.366904 -1.390606 -2.783720
  C 3.005406 -1.520945 -3.468235
  C 3.045768 -2.636883 -4.508362
  O 5.472562 -0.774764 -0.847909
  H 0.690056 0.725490 1.075912
  H 0.658267 -0.290092 -0.366375
  H 0.624661 1.437986 -0.543504
  H 3.772530 1.769402 1.216173
  H 4.237165 0.089746 1.042790
  H 2.252495 -0.555829 2.471901
  H 1.963701 1.166417 2.760180
  H 4.543247 -0.321885 3.427248
  H 3.314692 0.192148 4.574300
  H 4.252425 1.397871 3.703820
  H 2.377492 0.506988 -2.124426
  H 4.949956 1.882940 -1.347321
  H 4.626802 -2.337631 -2.305492
  H 5.123205 -1.179593 -3.546904
  H 2.741879 -0.589534 -3.970929
  H 2.238605 -1.758615 -2.730543
  H 3.793524 -2.430199 -5.270277
  H 2.080515 -2.731961 -4.998782
  H 3.286003 -3.590241 -4.044614
  H 5.846497 -0.088925 -0.261327
 32
 60.329281
  C 1.083184 0.767391 0.038686
  C 2.552919 0.719468 -0.054699
  C 3.399375 0.683753 1.151423
  C 2.737529 0.265773 2.466593
  C 3.787194 0.159081 3.569582
  C 3.096372 0.728251 -1.355536
  C 4.381566 1.289499 -1.937050
  C 4.383094 -0.123445 -1.789811
  C 4.344799 -1.313691 -2.730376
  C 3.002633 -1.574291 -3.419452
  C 3.103148 -2.779565 -4.350184
  O 5.388835 -0.479121 -0.877524
  H 0.723098 0.795199 1.057624
  H 0.645507 -0.096847 -0.464635
  H 0.707618 1.635581 -0.505070
  H 3.819644 1.688762 1.291063
  H 4.256757 0.022510 0.974233
  H 2.251233 -0.702903 2.346513
  H 1.987929 0.994118 2.774788
  H 4.547049 -0.577797 3.317652
  H 3.321932 -0.147445 4.503535
  H 4.276350 1.116184 3.737650
  H 2.352385 0.738402 -2.154942
  H 4.834805 2.202292 -1.616960
  H 4.634322 -2.179875 -2.134169
  H 5.117092 -1.147031 -3.485688
  H 2.708224 -0.701454 -4.004252
  H 2.234480 -1.770077 -2.670627
  H 3.857999 -2.614888 -5.116223
  H 2.151619 -2.958175 -4.845359
  H 3.370818 -3.675526 -3.794855
  H 5.649453 0.235122 -0.274853
 32
 80.905137
  C 1.070650 0.931044 0.078364
  C 2.525597 0.809851 -0.062808
  C 3.391985 0.641296 1.108086
  C 2.737608 0.170034 2.408550
  C 3.805295 -0.073877 3.471056
  C 3.026693 0.866814 -1.382201
  C 4.372026 1.431317 -1.956811
  C 4.225077 0.036031 -1.903186
  C 4.319203 -1.250930 -2.685176
  C 3.025479 -1.644270 -3.404366
  C 3.220536 -2.935679 -4.191055
  O 5.349845 -0.281316 -0.971179
  H 0.739692 0.916767 1.108492
  H 0.574552 0.123483 -0.462737
  H 0.727754 1.847334 -0.403556
  H 3.865954 1.611541 1.306338
  H 4.211180 -0.043294 0.861079
  H 2.193110 -0.758712 2.233680
  H 2.038672 0.915323 2.788910
  H 4.519434 -0.825938 3.143244
  H 3.346727 -0.427699 4.390985
  H 4.347823 0.841236 3.697515
  H 2.275613 1.018479 -2.157185
  H 4.667732 2.420447 -1.712614
  H 4.603939 -2.027449 -1.976778
  H 5.130213 -1.137481 -3.407150
  H 2.728414 -0.850601 -4.092005
  H 2.228394 -1.789669 -2.674399
  H 4.008870 -2.822106 -4.931245
  H 2.304896 -3.206048 -4.711044
  H 3.489628 -3.755069 -3.528780
  H 5.604884 0.432853 -0.376139
 32
 102.745727
  C 1.084749 1.135685 -0.009282
  C 2.520468 0.885333 -0.145960
  C 3.374506 0.629344 1.016512
  C 2.696643 0.141083 2.298368
  C 3.746407 -0.181935 3.356974
  C 3.050161 0.918694 -1.445616
  C 4.519034 1.340029 -1.854162
  C 4.216495 0.041592 -1.940811
  C 4.275848 -1.267314 -2.607382
  C 2.979933 -1.617118 -3.355046
  C 3.114233 -2.970165 -4.043688
  O 5.670887 -0.354573 -0.822966
  H 0.746909 1.132184 1.020753
  H 0.521855 0.387318 -0.570827
  H 0.828461 2.087545 -0.475678
  H 3.889962 1.571239 1.247906
  H 4.168635 -0.071755 0.734259
  H 2.116941 -0.758956 2.089142
  H 2.025802 0.900744 2.700383
  H 4.428408 -0.952944 3.008057
  H 3.268226 -0.544276 4.263185
  H 4.327265 0.700775 3.614540
  H 2.344916 1.132599 -2.245235
  H 4.814009 2.309471 -1.559448
  H 4.472859 -2.024119 -1.846341
  H 5.128514 -1.262634 -3.288940
  H 2.770854 -0.854073 -4.106377
  H 2.146472 -1.654888 -2.652684
  H 3.936002 -2.963523 -4.754396
  H 2.202920 -3.211375 -4.583711
  H 3.297282 -3.758848 -3.317783
  H 5.968990 0.299061 -0.171383
 32
 106.772796
  C 1.068853 1.172578 -0.016505
  C 2.494441 0.881575 -0.182717
  C 3.366579 0.595336 0.961887
  C 2.699281 0.102397 2.247950
  C 3.756801 -0.247380 3.289879
  C 3.008217 0.903507 -1.485376
  C 4.552904 1.259112 -1.813285
  C 4.171879 0.027051 -1.971334
  C 4.216030 -1.273586 -2.591605
  C 2.921674 -1.614079 -3.349748
  C 3.037407 -2.986231 -3.999427
  O 6.007395 -0.089418 -0.631103
  H 0.752439 1.173274 1.018587
  H 0.475187 0.442965 -0.569888
  H 0.829806 2.134686 -0.472696
  H 3.899608 1.526933 1.194716
  H 4.150356 -0.107982 0.656382
  H 2.104634 -0.786910 2.035930
  H 2.044489 0.866723 2.666664
  H 4.424320 -1.024356 2.922845
  H 3.284426 -0.613303 4.197911
  H 4.353511 0.624030 3.550171
  H 2.315376 1.155292 -2.285057
  H 4.871074 2.243616 -1.512810
  H 4.375488 -2.022363 -1.809359
  H 5.084856 -1.311449 -3.252578
  H 2.746407 -0.864508 -4.122626
  H 2.076959 -1.612911 -2.660964
  H 3.871624 -3.017901 -4.696530
  H 2.128551 -3.218221 -4.549349
  H 3.187824 -3.760994 -3.251609
  H 6.343239 0.562768 -0.008577
 32
 92.014328
  C 1.127733 1.290979 -0.099021
  C 2.533411 0.848491 -0.227800
  C 3.337808 0.497704 0.971845
  C 2.568417 0.092163 2.233934
  C 3.547689 -0.337533 3.332078
  C 3.068392 0.801106 -1.507268
  C 4.841548 1.126075 -1.737688
  C 4.221012 -0.059117 -1.926103
  C 4.239410 -1.373127 -2.534753
  C 2.960005 -1.672134 -3.331026
  C 3.052728 -3.049411 -3.975979
  O 5.970597 0.574308 -0.727156
  H 0.796174 1.337358 0.929027
  H 0.474997 0.613436 -0.645978
  H 0.997255 2.268863 -0.562337
  H 3.953389 1.369205 1.219986
  H 4.042933 -0.297483 0.717983
  H 1.901539 -0.737581 2.011186
  H 1.976493 0.926801 2.614976
  H 4.153709 -1.181485 3.007545
  H 3.005200 -0.638602 4.225993
  H 4.212627 0.479137 3.602102
  H 2.427369 1.104771 -2.338203
  H 5.238915 2.083844 -1.459497
  H 4.339670 -2.129831 -1.750434
  H 5.125384 -1.449341 -3.164964
  H 2.841129 -0.920138 -4.113159
  H 2.093427 -1.634334 -2.675028
  H 3.909944 -3.110210 -4.642728
  H 2.155911 -3.249584 -4.559358
  H 3.147770 -3.828947 -3.222893
  H 6.331180 1.301600 -0.196622
 32
 59.025116
  C 1.070589 1.300306 -0.127948
  C 2.480732 0.829519 -0.272154
  C 3.311925 0.488269 0.936174
  C 2.557849 0.086731 2.205878
  C 3.544247 -0.338082 3.301617
  C 3.012724 0.775585 -1.510928
  C 5.136589 1.044545 -1.801578
  C 4.216151 0.036740 -1.901145
  C 4.208238 -1.309303 -2.466028
  C 2.899614 -1.630578 -3.208017
  C 2.953934 -3.034457 -3.796915
  O 6.246702 0.461684 -1.158644
  H 0.754845 1.357180 0.907575
  H 0.399489 0.623570 -0.652866
  H 0.947595 2.277953 -0.586900
  H 3.928231 1.358153 1.177015
  H 4.009632 -0.313280 0.674341
  H 1.884078 -0.741592 1.994747
  H 1.962514 0.920758 2.588173
  H 4.147998 -1.183334 2.977162
  H 3.005974 -0.634297 4.201630
  H 4.210619 0.480164 3.562279
  H 2.377835 1.099796 -2.338167
  H 5.299852 2.015809 -1.366011
  H 4.333563 -2.044042 -1.663662
  H 5.071428 -1.420882 -3.128432
  H 2.761645 -0.911321 -4.009961
  H 2.053786 -1.550308 -2.520256
  H 3.785862 -3.133864 -4.493163
  H 2.034356 -3.247809 -4.338335
  H 3.069845 -3.782201 -3.016951
  H 6.880664 1.068884 -0.746383
 32
 22.117160
  C 0.946288 1.188860 0.001177
  C 2.354755 0.751302 -0.177811
  C 3.235162 0.494742 1.001089
  C 2.555322 0.244129 2.345732
  C 3.592612 -0.097998 3.410322
  C 2.831512 0.603094 -1.442971
  C 5.244544 0.820058 -1.586403
  C 4.114825 0.062227 -1.815585
  C 4.182214 -1.222616 -2.552920
  C 2.918296 -1.602047 -3.320112
  C 3.094939 -2.931052 -4.044669
  O 6.373623 0.104862 -1.552659
  H 0.678248 1.316673 1.043010
  H 0.272452 0.456909 -0.442964
  H 0.776429 2.125467 -0.529618
  H 3.881131 1.373848 1.107733
  H 3.889645 -0.352772 0.786776
  H 1.850738 -0.584796 2.255243
  H 2.007748 1.128306 2.673781
  H 4.152482 -0.989307 3.136591
  H 3.107339 -0.286812 4.364740
  H 4.293968 0.721557 3.545663
  H 2.132218 0.764005 -2.255721
  H 5.387558 1.705361 -0.984509
  H 4.363603 -2.002024 -1.801274
  H 5.048576 -1.227800 -3.217211
  H 2.700399 -0.827943 -4.057163
  H 2.070478 -1.673919 -2.637769
  H 3.930896 -2.888690 -4.739472
  H 2.196666 -3.180824 -4.603779
  H 3.282695 -3.735316 -3.337057
  H 7.161336 0.561725 -1.206544
 32
 5.828760
  C 0.953306 1.082016 0.086049
  C 2.359391 0.634653 -0.038431
  C 3.245981 0.583077 1.154208
  C 2.568065 0.502452 2.524134
  C 3.612210 0.338888 3.624325
  C 2.779943 0.242874 -1.287362
  C 5.236578 0.310855 -1.245630
  C 4.049062 -0.240859 -1.699218
  C 4.150962 -1.324887 -2.726823
  C 2.898539 -1.625527 -3.542086
  C 3.162927 -2.750265 -4.537651
  O 6.385029 -0.193187 -1.632754
  H 0.707675 1.435756 1.079313
  H 0.282141 0.258145 -0.158628
  H 0.743532 1.867710 -0.639550
  H 3.858386 1.491985 1.146335
  H 3.928377 -0.264672 1.060151
  H 1.888727 -0.351163 2.548196
  H 1.992424 1.405330 2.728949
  H 4.198569 -0.564922 3.474300
  H 3.129104 0.267477 4.595727
  H 4.288745 1.190219 3.647783
  H 2.021973 0.247080 -2.059958
  H 5.239834 1.145089 -0.556651
  H 4.432322 -2.231738 -2.177556
  H 4.986020 -1.114338 -3.399641
  H 2.595271 -0.733683 -4.094180
  H 2.079871 -1.921495 -2.884780
  H 3.968095 -2.484586 -5.218910
  H 2.273384 -2.951037 -5.129716
  H 3.439645 -3.667480 -4.022839
  H 7.172610 0.235443 -1.251458
 32
 4.538908
  C 0.922883 0.826530 0.140561
  C 2.353863 0.462382 0.048270
  C 3.239070 0.566410 1.235359
  C 2.575482 0.760533 2.598468
  C 3.630448 0.771882 3.701447
  C 2.776716 -0.015452 -1.178387
  C 5.248347 -0.114133 -1.040216
  C 4.036681 -0.446301 -1.639293
  C 4.152832 -1.285382 -2.877498
  C 2.874423 -1.603048 -3.642536
  C 3.181233 -2.482940 -4.849937
  O 6.365646 -0.600182 -1.514055
  H 0.641896 1.214281 1.110973
  H 0.305837 -0.045785 -0.075921
  H 0.676038 1.563603 -0.624514
  H 3.911380 1.418382 1.079239
  H 3.864801 -0.329337 1.284674
  H 1.873518 -0.052124 2.790780
  H 2.030826 1.704131 2.633275
  H 4.182904 -0.163987 3.721147
  H 3.159911 0.902687 4.672870
  H 4.335673 1.587186 3.557949
  H 1.987783 -0.132304 -1.908771
  H 5.295909 0.598625 -0.230399
  H 4.623145 -2.227490 -2.573450
  H 4.867352 -0.812514 -3.556680
  H 2.407236 -0.681529 -3.995577
  H 2.167977 -2.127336 -2.996199
  H 3.869488 -1.984519 -5.527854
  H 2.270242 -2.706538 -5.398986
  H 3.628923 -3.424357 -4.540530
  H 7.170235 -0.322163 -1.038562
