 32
 0.000000
  C 0.971295 0.138670 0.397107
  C 2.449192 0.137931 0.394590
  C 3.235531 0.607709 1.563175
  C 2.458783 1.097654 2.782664
  C 3.408473 1.542867 3.890157
  C 3.064128 -0.325974 -0.760267
  C 4.443809 -0.411383 -0.973421
  C 5.121105 -0.862388 -2.097901
  C 4.624049 -1.385480 -3.402263
  C 3.132878 -1.503140 -3.696540
  C 2.906825 -2.064904 -5.097384
  O 6.446987 -0.858854 -2.089278
  H 0.535803 0.508833 1.318339
  H 0.600068 -0.873827 0.231408
  H 0.599672 0.754766 -0.423105
  H 3.891403 1.419890 1.229297
  H 3.891713 -0.209425 1.884089
  H 1.820837 0.300684 3.170019
  H 1.820581 1.940882 2.510902
  H 4.044564 0.721261 4.213483
  H 2.843061 1.889238 4.752367
  H 4.044282 2.359921 3.554946
  H 2.406174 -0.643694 -1.551139
  H 5.058130 -0.077641 -0.141777
  H 5.079219 -2.374632 -3.528483
  H 5.079630 -0.757954 -4.176997
  H 2.657804 -0.522545 -3.642832
  H 2.657374 -2.174659 -2.980221
  H 3.344702 -1.417655 -5.854232
  H 1.841151 -2.145462 -5.298957
  H 3.344286 -3.055949 -5.197183
  H 6.807211 -0.521489 -1.247443
 32
 6.974750
  C 0.892901 -0.133092 0.550337
  C 2.364086 -0.136016 0.500655
  C 3.190535 0.516909 1.538433
  C 2.465336 1.207010 2.686101
  C 3.465701 1.931735 3.579709
  C 2.967043 -0.753916 -0.594985
  C 4.335008 -0.793381 -0.832703
  C 5.080427 -1.139147 -1.961302
  C 4.670598 -1.392382 -3.370190
  C 3.179809 -1.375879 -3.686117
  C 2.950395 -1.581459 -5.178943
  O 6.381772 -1.130077 -1.834060
  H 0.493615 0.356842 1.429467
  H 0.514748 -1.157741 0.517779
  H 0.492232 0.354751 -0.337587
  H 3.805190 1.269801 1.043075
  H 3.890052 -0.223064 1.940804
  H 1.937759 0.472580 3.289309
  H 1.741055 1.929987 2.299947
  H 4.189177 1.235364 3.990501
  H 2.955728 2.414628 4.407846
  H 4.005708 2.698557 3.022966
  H 2.316287 -1.274710 -1.281060
  H 5.085364 -0.510290 -0.114981
  H 5.090460 -2.360785 -3.660437
  H 5.177903 -0.643671 -3.978347
  H 2.744949 -0.426394 -3.378159
  H 2.677186 -2.180057 -3.143982
  H 3.399485 -0.770287 -5.752786
  H 1.888937 -1.606115 -5.400126
  H 3.382065 -2.517482 -5.518422
  H 6.961864 -1.056440 -1.059010
 32
 26.707322
  C 0.851188 -0.286545 0.680308
  C 2.326181 -0.296454 0.585008
  C 3.179241 0.493728 1.498615
  C 2.477906 1.312965 2.577495
  C 3.506157 2.051615 3.435442
  C 2.892796 -0.962409 -0.494894
  C 4.248773 -0.965888 -0.777117
  C 5.015962 -1.224746 -1.932882
  C 4.720842 -1.306506 -3.377727
  C 3.233881 -1.250119 -3.714646
  C 2.994194 -1.434861 -5.206432
  O 6.302440 -1.238707 -1.658246
  H 0.478624 0.284850 1.515213
  H 0.473941 -1.312628 0.735011
  H 0.425497 0.127392 -0.238136
  H 3.750332 1.187126 0.880112
  H 3.905250 -0.169969 1.970578
  H 1.924233 0.637624 3.231488
  H 1.788908 2.029968 2.134452
  H 4.156398 1.346902 3.952035
  H 3.009707 2.650314 4.193724
  H 4.125431 2.705228 2.829704
  H 2.233444 -1.546085 -1.114887
  H 5.127303 -0.802591 -0.141859
  H 5.182319 -2.221569 -3.766341
  H 5.224176 -0.455887 -3.846811
  H 2.800746 -0.311420 -3.375617
  H 2.714196 -2.055176 -3.185904
  H 3.480384 -0.653631 -5.781240
  H 1.933503 -1.393594 -5.419350
  H 3.361365 -2.403193 -5.544815
  H 6.968917 -1.326197 -0.969045
 32
 67.848701
  C 0.822519 -0.204408 0.722133
  C 2.289441 -0.271460 0.609299
  C 3.180085 0.492538 1.514568
  C 2.498744 1.337523 2.596997
  C 3.549300 2.065782 3.458040
  C 2.811870 -1.010316 -0.443215
  C 4.147511 -1.012971 -0.771644
  C 4.926992 -1.216756 -1.921623
  C 4.722434 -1.306336 -3.404972
  C 3.235430 -1.337014 -3.759283
  C 3.078736 -1.415566 -5.271346
  O 6.156070 -1.237904 -1.594719
  H 0.486864 0.403907 1.550609
  H 0.409839 -1.219809 0.808743
  H 0.384694 0.198715 -0.200272
  H 3.821446 1.169033 0.927765
  H 3.857767 -0.209502 2.017691
  H 1.884125 0.724641 3.250780
  H 1.852187 2.079454 2.137442
  H 4.190410 1.362438 3.950836
  H 3.053776 2.675136 4.246356
  H 4.158549 2.728595 2.846493
  H 2.144163 -1.634188 -1.003546
  H 5.272079 -0.868649 -0.330755
  H 5.203182 -2.225631 -3.727293
  H 5.262858 -0.508242 -3.905838
  H 2.729427 -0.438195 -3.389917
  H 2.784344 -2.214885 -3.294355
  H 3.549353 -0.572005 -5.745481
  H 2.022920 -1.436846 -5.544151
  H 3.539851 -2.295777 -5.681997
  H 6.939468 -1.415302 -1.031589
 32
 85.377600
  C 0.658850 -0.225234 0.950975
  C 2.113084 -0.247101 0.643666
  C 3.113283 0.489739 1.479831
  C 2.578924 1.352910 2.618269
  C 3.723159 2.086759 3.310980
  C 2.543795 -0.983459 -0.423265
  C 3.851637 -1.050551 -0.866322
  C 4.653304 -1.221090 -1.863011
  C 4.688880 -1.329031 -3.332276
  C 3.280122 -1.338270 -3.926454
  C 3.336704 -1.452968 -5.443037
  O 6.078216 -1.183249 -1.263834
  H 0.417865 0.380909 1.815682
  H 0.295224 -1.240120 1.117421
  H 0.102797 0.165651 0.096464
  H 3.647744 1.156031 0.788784
  H 3.854494 -0.211295 1.867108
  H 2.066186 0.728307 3.354029
  H 1.869390 2.087659 2.235345
  H 4.437769 1.383692 3.731729
  H 3.343595 2.705909 4.121380
  H 4.249885 2.731630 2.610744
  H 1.805345 -1.592491 -0.940534
  H 5.515172 -0.930506 -0.395221
  H 5.224565 -2.244505 -3.600091
  H 5.259051 -0.490724 -3.744121
  H 2.759322 -0.421071 -3.644358
  H 2.719418 -2.180765 -3.518321
  H 3.889643 -0.621503 -5.875196
  H 2.332128 -1.440516 -5.859252
  H 3.814237 -2.383081 -5.744073
  H 6.934888 -1.325403 -0.762179
 32
 69.791102
  C 0.560535 -0.155986 1.147419
  C 1.971860 -0.204055 0.718739
  C 3.061180 0.501360 1.450119
  C 2.665659 1.347890 2.654432
  C 3.897707 2.009335 3.262758
  C 2.293682 -0.953751 -0.392803
  C 3.548216 -1.043810 -0.960938
  C 4.369599 -1.194942 -1.892298
  C 4.622783 -1.304907 -3.317760
  C 3.308514 -1.360133 -4.104937
  C 3.589357 -1.506630 -5.592959
  O 6.045600 -1.158410 -1.151094
  H 0.409699 0.454196 2.030354
  H 0.196769 -1.164135 1.349512
  H -0.064307 0.237510 0.342701
  H 3.589416 1.133011 0.732115
  H 3.784247 -0.247947 1.779921
  H 2.183040 0.731127 3.412509
  H 1.964904 2.127075 2.351804
  H 4.609819 1.263348 3.607155
  H 3.614139 2.625211 4.115160
  H 4.394170 2.649256 2.539033
  H 1.517612 -1.542062 -0.857621
  H 5.503548 -0.899846 -0.348786
  H 5.187029 -2.225265 -3.490625
  H 5.240640 -0.468726 -3.665488
  H 2.737592 -0.450267 -3.927119
  H 2.717296 -2.208006 -3.764408
  H 4.177447 -0.671051 -5.966024
  H 2.657142 -1.535082 -6.151325
  H 4.137634 -2.426488 -5.795244
  H 6.898923 -1.235756 -0.659471
 32
 55.276946
  C 0.535213 -0.198671 1.323347
  C 1.901862 -0.243565 0.788942
  C 3.029573 0.493086 1.406688
  C 2.722137 1.387522 2.602242
  C 3.994090 2.063974 3.099505
  C 2.139813 -1.022796 -0.322229
  C 3.329110 -1.110118 -1.005764
  C 4.162634 -1.211462 -1.913219
  C 4.567030 -1.280414 -3.291594
  C 3.334989 -1.373428 -4.208453
  C 3.771160 -1.469245 -5.665856
  O 6.027135 -1.137882 -0.993055
  H 0.446597 0.440519 2.192480
  H 0.207946 -1.203684 1.588268
  H -0.157037 0.152830 0.558840
  H 3.503058 1.096838 0.620081
  H 3.779086 -0.243406 1.713120
  H 2.293973 0.801877 3.415628
  H 2.001876 2.157156 2.319725
  H 4.727553 1.328596 3.419656
  H 3.771262 2.708190 3.946364
  H 4.439687 2.676481 2.319706
  H 1.336338 -1.630728 -0.711318
  H 5.466867 -0.946553 -0.214051
  H 5.182405 -2.176751 -3.420566
  H 5.183859 -0.413323 -3.558143
  H 2.709440 -0.490254 -4.067494
  H 2.748878 -2.252861 -3.946420
  H 4.352967 -0.597617 -5.954855
  H 2.901582 -1.525394 -6.316009
  H 4.376950 -2.355787 -5.832715
  H 6.859600 -1.339496 -0.538606
 32
 44.302341
  C 0.585965 -0.419118 1.759515
  C 1.794424 -0.432539 0.928083
  C 2.956520 0.446274 1.174865
  C 2.831834 1.470697 2.297103
  C 4.126663 2.266092 2.445993
  C 1.841149 -1.332663 -0.125173
  C 2.855722 -1.415340 -1.042897
  C 3.745638 -1.379780 -1.879766
  C 4.444336 -1.243026 -3.106621
  C 3.444975 -1.128962 -4.278209
  C 4.196149 -0.982503 -5.595634
  O 5.687381 -1.596395 -0.609670
  H 0.616416 0.320109 2.548952
  H 0.426886 -1.405760 2.199118
  H -0.285131 -0.238201 1.125437
  H 3.209147 0.952402 0.233670
  H 3.826725 -0.185285 1.385109
  H 2.618474 0.970875 3.244591
  H 2.017335 2.165860 2.084351
  H 4.966028 1.617497 2.687767
  H 4.030635 2.995724 3.245889
  H 4.358090 2.797407 1.524731
  H 1.011665 -2.002493 -0.284635
  H 5.145896 -1.581103 0.182927
  H 5.057908 -2.132821 -3.272087
  H 5.110571 -0.377003 -3.070867
  H 2.803089 -0.260085 -4.120546
  H 2.814033 -2.018123 -4.306839
  H 4.810901 -0.085169 -5.588366
  H 3.493617 -0.907985 -6.423327
  H 4.837387 -1.842729 -5.779342
  H 6.522368 -2.001051 -0.336474
 32
 41.902637
  C 0.714700 -0.598432 1.931974
  C 1.834141 -0.513061 0.989446
  C 2.915034 0.492105 1.105999
  C 2.772237 1.564951 2.178243
  C 3.990066 2.484037 2.179116
  C 1.872424 -1.437290 -0.046905
  C 2.846669 -1.469752 -1.011406
  C 3.729930 -1.452166 -1.865599
  C 4.456289 -1.297233 -3.075981
  C 3.506440 -0.872771 -4.226361
  C 4.285830 -0.727785 -5.525946
  O 5.564784 -2.189573 -0.564781
  H 0.751463 0.158028 2.704022
  H 0.697264 -1.583280 2.402020
  H -0.229832 -0.523679 1.392514
  H 3.036982 0.966738 0.126565
  H 3.863943 -0.037463 1.264517
  H 2.679361 1.106646 3.165031
  H 1.879883 2.162687 1.993589
  H 4.901025 1.922912 2.376590
  H 3.893542 3.244267 2.949429
  H 4.096224 2.985941 1.221840
  H 1.095548 -2.186109 -0.119738
  H 5.209471 -2.214284 0.325282
  H 4.907278 -2.257813 -3.348875
  H 5.248599 -0.555246 -2.956788
  H 3.036024 0.078852 -3.972021
  H 2.719091 -1.624611 -4.352277
  H 5.063948 0.027929 -5.435634
  H 3.613712 -0.426507 -6.328580
  H 4.748265 -1.669391 -5.806766
  H 6.448048 -2.578204 -0.546873
 32
 44.442888
  C 0.757923 -0.707074 1.830488
  C 1.940976 -0.632130 0.950697
  C 2.952188 0.446658 1.052246
  C 2.686857 1.568347 2.053913
  C 3.828597 2.582641 2.037015
  C 2.089478 -1.618027 -0.013645
  C 3.093304 -1.662405 -0.928934
  C 4.066778 -1.674737 -1.710107
  C 4.621543 -1.345402 -3.007027
  C 3.528224 -0.758294 -3.915342
  C 4.100581 -0.427576 -5.287027
  O 5.532113 -2.505284 -0.809535
  H 0.708035 0.110921 2.540441
  H 0.758121 -1.649572 2.380509
  H -0.149127 -0.712599 1.228449
  H 3.079062 0.880509 0.055800
  H 3.920056 -0.009387 1.294475
  H 2.595737 1.162380 3.063894
  H 1.757251 2.082064 1.803468
  H 4.769111 2.115573 2.302847
  H 3.638626 3.379203 2.751036
  H 3.931404 3.029805 1.050002
  H 1.345754 -2.408196 -0.073509
  H 5.375511 -2.520558 0.136868
  H 5.018665 -2.250369 -3.472735
  H 5.431981 -0.622628 -2.897148
  H 3.119690 0.146636 -3.460403
  H 2.713960 -1.477271 -4.019289
  H 4.897308 0.307948 -5.205750
  H 3.326515 -0.019120 -5.930491
  H 4.501968 -1.316318 -5.769955
  H 6.467616 -2.558295 -1.053514
 32
 44.366409
  C 0.645953 -0.668037 1.384092
  C 2.018281 -0.620120 0.802727
  C 3.029881 0.407822 1.175839
  C 2.623375 1.505968 2.140221
  C 3.796512 2.457027 2.391236
  C 2.359139 -1.599089 -0.134088
  C 3.526880 -1.661682 -0.814193
  C 4.499621 -1.634870 -1.625720
  C 4.744850 -1.251601 -3.034307
  C 3.419240 -0.884485 -3.728735
  C 3.660271 -0.546700 -5.210192
  O 5.888664 -2.190481 -1.020005
  H 0.462597 0.127133 2.091225
  H 0.498447 -1.627575 1.878837
  H -0.102001 -0.608600 0.589501
  H 3.382107 0.880867 0.264705
  H 3.887462 -0.108471 1.604740
  H 2.304480 1.084394 3.089516
  H 1.798939 2.076623 1.721727
  H 4.639833 1.920606 2.842190
  H 3.497816 3.250581 3.070040
  H 4.133257 2.913879 1.468298
  H 1.638045 -2.382147 -0.334428
  H 5.805956 -2.292406 -0.047326
  H 5.186195 -2.123844 -3.537623
  H 5.453257 -0.418543 -3.107868
  H 2.970331 -0.021619 -3.203836
  H 2.712426 -1.723406 -3.652962
  H 4.331480 0.307073 -5.299784
  H 2.720413 -0.300829 -5.703851
  H 4.102955 -1.388026 -5.732018
  H 6.769141 -1.942004 -1.350219
 32
 44.108719
  C 0.679012 -0.545484 1.038571
  C 2.116908 -0.539351 0.659344
  C 3.105982 0.414822 1.250670
  C 2.573826 1.441099 2.247537
  C 3.702882 2.336017 2.751541
  C 2.545311 -1.444963 -0.289580
  C 3.816730 -1.562732 -0.749908
  C 4.759515 -1.617308 -1.626924
  C 4.760881 -1.329249 -3.097802
  C 3.359648 -1.037058 -3.632052
  C 3.395723 -0.748450 -5.128631
  O 6.142512 -1.958938 -1.179592
  H 0.438035 0.212356 1.774579
  H 0.401549 -1.519895 1.441977
  H 0.054412 -0.382067 0.157763
  H 3.593043 0.951360 0.429091
  H 3.887404 -0.169267 1.747736
  H 2.118601 0.936166 3.101975
  H 1.813797 2.065857 1.773988
  H 4.467980 1.747505 3.253908
  H 3.320337 3.066612 3.460664
  H 4.164926 2.875768 1.928130
  H 1.825954 -2.176389 -0.646958
  H 6.146997 -2.016081 -0.196568
  H 5.163578 -2.206673 -3.609469
  H 5.405443 -0.474860 -3.321584
  H 2.939416 -0.178428 -3.105541
  H 2.710397 -1.893253 -3.443703
  H 4.019572 0.117344 -5.342410
  H 2.395583 -0.542595 -5.500883
  H 3.790807 -1.600690 -5.677867
  H 6.789044 -1.283733 -1.490262
