23

C 0.951432 0.12848 0.409886
C 2.426283 0.132726 0.401772
H 3.000690224288448 0.4754767407989966 1.2369236451321761
C 3.041129 -0.335287 -0.756002
C 4.420074 -0.414405 -0.956722
C 5.104493 -0.864816 -2.083693
C 4.607211 -1.379565 -3.385291
C 3.123713 -1.494756 -3.692604
C 2.935663 -2.050665 -5.100426
O 6.423219 -0.867916 -2.070451
H 0.524339 0.505698 1.332254
H 0.587337 -0.885986 0.239155
H 0.574903 0.723436 -0.423816
H 2.382986 -0.65648 -1.543397
H 5.052608 -0.086474 -0.140099
H 5.069229 -2.364152 -3.512141
H 5.076345 -0.75307 -4.151019
H 2.647162 -0.51487 -3.644131
H 2.640047 -2.173329 -2.988784
H 3.39105 -1.397275 -5.841472
H 1.877372 -2.138558 -5.333894
H 3.38425 -3.037329 -5.192861
H 6.826222 -0.541605 -1.25157
