 32
 0.000000
  C 0.968341 0.139884 0.399936
  C 2.446202 0.138450 0.395686
  C 3.234342 0.607737 1.563173
  C 2.459622 1.098069 2.783777
  C 3.411221 1.542676 3.889908
  C 3.059757 -0.325663 -0.759787
  C 4.438880 -0.411649 -0.974373
  C 5.116990 -0.862273 -2.097854
  C 4.625438 -1.385820 -3.403169
  C 3.134510 -1.504059 -3.698766
  C 2.909753 -2.065938 -5.099715
  O 6.442688 -0.856823 -2.084272
  H 0.534143 0.510229 1.321702
  H 0.596455 -0.872435 0.234594
  H 0.596055 0.756139 -0.419863
  H 3.890239 1.419519 1.228374
  H 3.890550 -0.209765 1.883078
  H 1.821772 0.301459 3.172017
  H 1.821512 1.941660 2.512985
  H 4.047299 0.720691 4.212252
  H 2.847296 1.889341 4.752967
  H 4.047009 2.359354 3.553803
  H 2.401023 -0.643254 -1.550384
  H 5.056890 -0.079321 -0.146191
  H 5.081006 -2.374880 -3.528060
  H 5.081381 -0.757493 -4.176933
  H 2.659057 -0.523631 -3.645249
  H 2.658679 -2.175542 -2.982643
  H 3.348003 -1.418577 -5.856234
  H 1.844282 -2.146874 -5.302130
  H 3.347644 -3.056831 -5.199123
  H 6.812680 -0.521131 -1.246385
 32
 -0.180544
  C 0.954032 0.034993 0.456086
  C 2.427868 0.069322 0.422732
  C 3.223041 0.612639 1.547975
  C 2.461969 1.142518 2.760202
  C 3.435916 1.657520 3.816600
  C 3.039933 -0.434052 -0.722435
  C 4.415725 -0.497241 -0.932179
  C 5.105468 -0.959949 -2.049308
  C 4.617888 -1.398228 -3.384385
  C 3.129985 -1.471664 -3.703556
  C 2.934376 -1.921240 -5.148276
  O 6.422845 -1.003485 -2.007749
  H 0.535339 0.443009 1.367484
  H 0.606374 -0.991966 0.333654
  H 0.551549 0.583159 -0.396851
  H 3.857408 1.420313 1.163735
  H 3.911331 -0.167814 1.892383
  H 1.855372 0.350467 3.201540
  H 1.801997 1.960370 2.465024
  H 4.096854 0.863086 4.157882
  H 2.893340 2.035653 4.679716
  H 4.045477 2.467554 3.422807
  H 2.380869 -0.812068 -1.486681
  H 5.047645 -0.138080 -0.129712
  H 5.070750 -2.380174 -3.569575
  H 5.101236 -0.730764 -4.108519
  H 2.669162 -0.494258 -3.582913
  H 2.638476 -2.191660 -3.052378
  H 3.399553 -1.221616 -5.840572
  H 1.876486 -1.977665 -5.386618
  H 3.370121 -2.904594 -5.312543
  H 6.817512 -0.718697 -1.160697
 32
 0.512680
  C 0.949598 -0.026770 0.495940
  C 2.420923 0.010677 0.451539
  C 3.222901 0.604766 1.547301
  C 2.466989 1.182214 2.738883
  C 3.442681 1.750480 3.762652
  C 3.030212 -0.532218 -0.677053
  C 4.403687 -0.593402 -0.896881
  C 5.089222 -1.058535 -2.015161
  C 4.634154 -1.415717 -3.385662
  C 3.145160 -1.459878 -3.713378
  C 2.945953 -1.805572 -5.186933
  O 6.408512 -1.110689 -1.960063
  H 0.534623 0.419735 1.390782
  H 0.606648 -1.059045 0.421645
  H 0.539230 0.477355 -0.379804
  H 3.851597 1.395420 1.124516
  H 3.912518 -0.159879 1.918396
  H 1.866745 0.408185 3.219053
  H 1.801580 1.982455 2.411708
  H 4.110564 0.977109 4.134478
  H 2.902702 2.160678 4.612530
  H 4.043046 2.546678 3.329898
  H 2.380231 -0.950750 -1.418530
  H 5.084271 -0.195337 -0.149389
  H 5.084379 -2.385036 -3.628192
  H 5.126919 -0.703742 -4.058858
  H 2.688782 -0.488594 -3.522511
  H 2.647660 -2.219688 -3.112530
  H 3.417504 -1.065169 -5.827745
  H 1.886225 -1.835221 -5.427670
  H 3.369482 -2.779880 -5.419309
  H 6.800668 -0.859164 -1.102240
 32
 3.602063
  C 1.004950 -0.411320 0.717126
  C 2.439333 -0.122781 0.537973
  C 3.235378 0.594007 1.561619
  C 2.521594 1.033925 2.833694
  C 3.488703 1.746691 3.765362
  C 3.025562 -0.551169 -0.650055
  C 4.353479 -0.373874 -0.987593
  C 5.017854 -0.710631 -2.163779
  C 4.598904 -1.176346 -3.509240
  C 3.129066 -1.496142 -3.757090
  C 2.921163 -1.904962 -5.205985
  O 6.327166 -0.508801 -2.194100
  H 0.608775 -0.034934 1.648468
  H 0.828378 -1.489024 0.659083
  H 0.436142 0.028738 -0.104374
  H 3.679550 1.475760 1.092981
  H 4.076139 -0.046269 1.844252
  H 2.108847 0.167074 3.354277
  H 1.703357 1.713234 2.591696
  H 4.300492 1.088406 4.055189
  H 2.979150 2.052084 4.675040
  H 3.907130 2.633281 3.296660
  H 2.393638 -1.071854 -1.346965
  H 5.079327 0.150185 -0.353806
  H 5.206736 -2.049926 -3.759270
  H 4.922829 -0.411474 -4.219709
  H 2.521199 -0.609502 -3.561501
  H 2.802612 -2.308307 -3.116494
  H 3.228264 -1.109954 -5.880689
  H 1.884248 -2.133921 -5.389112
  H 3.503575 -2.793049 -5.441152
  H 6.726222 -0.177923 -1.366469
 32
 4.353288
  C 1.019326 -0.379326 0.679552
  C 2.458799 -0.149556 0.533882
  C 3.239802 0.584987 1.558316
  C 2.499852 1.102112 2.781822
  C 3.459907 1.834472 3.718904
  C 3.065809 -0.648001 -0.623321
  C 4.401538 -0.523531 -0.933124
  C 5.058577 -0.896181 -2.105224
  C 4.626563 -1.229591 -3.476623
  C 3.144222 -1.493617 -3.729610
  C 2.905427 -1.770233 -5.221256
  O 6.377818 -0.748833 -2.114512
  H 0.610193 0.030303 1.589291
  H 0.811989 -1.448209 0.653240
  H 0.484689 0.032298 -0.181094
  H 3.727906 1.433151 1.070149
  H 4.044742 -0.077330 1.896988
  H 2.043473 0.271361 3.323661
  H 1.713140 1.790030 2.480251
  H 4.246172 1.176106 4.063438
  H 2.930391 2.207689 4.592039
  H 3.923530 2.684187 3.219215
  H 2.446396 -1.183092 -1.316409
  H 5.127723 -0.014558 -0.277339
  H 5.194658 -2.102531 -3.808703
  H 4.967177 -0.416333 -4.131322
  H 2.542253 -0.630130 -3.448461
  H 2.794212 -2.367428 -3.167308
  H 3.216400 -0.909741 -5.826179
  H 1.843105 -1.936854 -5.400394
  H 3.452047 -2.651907 -5.545724
  H 6.769142 -0.477262 -1.269283
 32
 4.896295
  C 0.994847 -0.378356 0.727751
  C 2.442909 -0.149196 0.564605
  C 3.242135 0.596452 1.562131
  C 2.520585 1.127487 2.789750
  C 3.493901 1.881707 3.694216
  C 3.036484 -0.654841 -0.587566
  C 4.386867 -0.564471 -0.912303
  C 5.021681 -0.935067 -2.092882
  C 4.631897 -1.242270 -3.497739
  C 3.148368 -1.512921 -3.791656
  C 2.938102 -1.736569 -5.279205
  O 6.350591 -0.882103 -2.072048
  H 0.589428 0.038774 1.642813
  H 0.787079 -1.449517 0.701635
  H 0.455842 0.039421 -0.125868
  H 3.726924 1.438567 1.058539
  H 4.055187 -0.054823 1.896787
  H 2.085552 0.304951 3.355421
  H 1.721782 1.806148 2.493746
  H 4.291749 1.231716 4.034925
  H 2.977096 2.266172 4.569620
  H 3.937417 2.723802 3.171563
  H 2.398885 -1.204386 -1.270201
  H 5.120903 -0.053888 -0.274306
  H 5.234537 -2.088856 -3.830209
  H 4.976436 -0.397695 -4.106027
  H 2.544520 -0.660209 -3.479923
  H 2.825129 -2.412025 -3.259838
  H 3.248912 -0.864051 -5.848820
  H 1.887327 -1.921149 -5.490231
  H 3.508542 -2.595410 -5.624803
  H 6.754726 -0.704845 -1.200295
 32
 6.789619
  C 0.995784 -0.456408 0.752711
  C 2.447510 -0.262750 0.594695
  C 3.246985 0.558050 1.545780
  C 2.510831 1.223741 2.709546
  C 3.486788 2.025964 3.577474
  C 3.047484 -0.876239 -0.496588
  C 4.393515 -0.809799 -0.826888
  C 5.026199 -1.104600 -2.038299
  C 4.650041 -1.246275 -3.468457
  C 3.169749 -1.425984 -3.798230
  C 2.972279 -1.536058 -5.300163
  O 6.349899 -1.125255 -1.989759
  H 0.587567 0.040505 1.616191
  H 0.771222 -1.519430 0.813497
  H 0.481364 -0.103349 -0.137339
  H 3.764675 1.340514 0.979480
  H 4.037188 -0.075189 1.957501
  H 2.028233 0.466991 3.330644
  H 1.747089 1.892302 2.328370
  H 4.255934 1.381016 4.000616
  H 2.956865 2.502018 4.400068
  H 3.969019 2.812241 2.998473
  H 2.410170 -1.443715 -1.157122
  H 5.124224 -0.287488 -0.190160
  H 5.205193 -2.091361 -3.866188
  H 5.041444 -0.357851 -3.984585
  H 2.598763 -0.565690 -3.426895
  H 2.782861 -2.330764 -3.330878
  H 3.331815 -0.641651 -5.806761
  H 1.916350 -1.650973 -5.534010
  H 3.506539 -2.401201 -5.702727
  H 6.743103 -0.992987 -1.107022
 32
 8.883957
  C 1.042268 -0.568456 0.721115
  C 2.492995 -0.382962 0.575433
  C 3.266275 0.507105 1.476163
  C 2.484803 1.289426 2.531012
  C 3.424701 2.182799 3.333635
  C 3.121148 -1.097478 -0.437119
  C 4.472639 -1.049086 -0.749450
  C 5.121619 -1.243647 -1.984320
  C 4.678201 -1.176983 -3.393016
  C 3.179453 -1.287976 -3.649387
  C 2.888764 -1.235731 -5.150923
  O 6.414253 -1.477113 -1.945748
  H 0.612263 0.032182 1.505268
  H 0.828641 -1.622827 0.924443
  H 0.540445 -0.347289 -0.216606
  H 3.814782 1.227922 0.860753
  H 4.024195 -0.094442 1.983676
  H 1.983700 0.609315 3.214937
  H 1.729853 1.921648 2.050196
  H 4.171280 1.592404 3.861361
  H 2.865339 2.753310 4.071693
  H 3.938051 2.889108 2.686687
  H 2.504930 -1.738023 -1.048631
  H 5.207587 -0.560158 -0.098901
  H 5.195725 -1.979125 -3.931407
  H 5.075219 -0.252722 -3.818979
  H 2.648740 -0.474722 -3.157403
  H 2.808610 -2.236371 -3.261789
  H 3.247932 -0.305212 -5.583325
  H 1.819427 -1.296744 -5.332494
  H 3.365785 -2.062505 -5.666754
  H 6.802189 -1.510081 -1.053549
 32
 10.028065
  C 1.051044 -0.561060 0.697039
  C 2.505128 -0.345854 0.538028
  C 3.261249 0.563045 1.417070
  C 2.482024 1.313261 2.492194
  C 3.417901 2.205264 3.300050
  C 3.123689 -1.053581 -0.475101
  C 4.468275 -1.036493 -0.770362
  C 5.176379 -1.342647 -1.983008
  C 4.711969 -1.207474 -3.377501
  C 3.213550 -1.266433 -3.609590
  C 2.896140 -1.161525 -5.101648
  O 6.414779 -1.719534 -1.905380
  H 0.613486 0.016912 1.503061
  H 0.847408 -1.627243 0.873324
  H 0.534279 -0.313957 -0.229549
  H 3.774978 1.306647 0.802027
  H 4.046733 -0.016356 1.911466
  H 2.012012 0.605009 3.180019
  H 1.701075 1.930577 2.040773
  H 4.191931 1.613362 3.790052
  H 2.860707 2.738872 4.073068
  H 3.903063 2.947235 2.661600
  H 2.533735 -1.742939 -1.046195
  H 5.163958 -0.457908 -0.145394
  H 5.187006 -2.020237 -3.941021
  H 5.114782 -0.292052 -3.801150
  H 2.716908 -0.449049 -3.082685
  H 2.818770 -2.205347 -3.224731
  H 3.267932 -0.226020 -5.514365
  H 1.815007 -1.205001 -5.265927
  H 3.351580 -1.976345 -5.655084
  H 6.780444 -1.805000 -1.014198
 32
 15.083412
  C 1.041940 -0.662342 0.741084
  C 2.476178 -0.405686 0.524060
  C 3.236554 0.593922 1.309433
  C 2.506517 1.365055 2.402760
  C 3.459228 2.321886 3.104578
  C 3.079891 -1.172750 -0.450993
  C 4.419290 -1.179704 -0.729004
  C 5.182788 -1.489340 -1.927408
  C 4.743397 -1.201632 -3.307370
  C 3.244279 -1.219576 -3.554213
  C 2.937980 -0.920120 -5.020643
  O 6.373551 -1.970495 -1.811704
  H 0.585012 -0.067522 1.531690
  H 0.889883 -1.718729 0.977446
  H 0.480183 -0.488640 -0.179858
  H 3.663517 1.329509 0.617266
  H 4.090498 0.088855 1.767226
  H 2.095638 0.674681 3.137198
  H 1.683655 1.936770 1.968049
  H 4.292730 1.786826 3.550136
  H 2.940852 2.859822 3.904973
  H 3.863507 3.050368 2.400235
  H 2.477153 -1.864709 -1.013248
  H 5.119666 -0.546233 -0.161220
  H 5.229307 -1.941941 -3.952971
  H 5.164716 -0.241619 -3.613587
  H 2.746183 -0.472858 -2.914794
  H 2.860656 -2.210320 -3.306820
  H 3.304317 0.061062 -5.289408
  H 1.864184 -0.968454 -5.206881
  H 3.413042 -1.646405 -5.674209
  H 6.667457 -2.131778 -0.903762
 32
 22.698376
  C 1.019117 -0.778047 0.913890
  C 2.435554 -0.522684 0.590698
  C 3.221562 0.568895 1.234153
  C 2.510262 1.405364 2.296429
  C 3.458078 2.447363 2.878341
  C 3.026047 -1.337587 -0.364993
  C 4.351738 -1.322858 -0.736814
  C 5.163408 -1.531421 -1.868403
  C 4.798660 -1.142908 -3.263961
  C 3.301008 -1.059726 -3.542163
  C 3.048132 -0.716162 -5.008243
  O 6.306243 -2.129399 -1.792324
  H 0.642398 -0.126663 1.691804
  H 0.890402 -1.814429 1.227453
  H 0.402843 -0.649659 0.024579
  H 3.574429 1.252097 0.449900
  H 4.115006 0.125756 1.686551
  H 2.152489 0.766790 3.104735
  H 1.652126 1.919832 1.860111
  H 4.320415 1.973190 3.335585
  H 2.955396 3.034209 3.640850
  H 3.807919 3.127269 2.105194
  H 2.415128 -2.121194 -0.796665
  H 5.067242 -0.595238 -0.327213
  H 5.265963 -1.873453 -3.929063
  H 5.270206 -0.174823 -3.482591
  H 2.851541 -0.282256 -2.916848
  H 2.824064 -2.004888 -3.303655
  H 3.493563 0.242563 -5.261679
  H 1.980663 -0.655877 -5.204769
  H 3.472137 -1.473678 -5.664074
  H 6.534175 -2.529242 -0.925331
 32
 32.342134
  C 1.005909 -0.872445 0.989407
  C 2.432455 -0.685447 0.643539
  C 3.237797 0.462972 1.149226
  C 2.529381 1.462387 2.061017
  C 3.480853 2.576597 2.479836
  C 3.003681 -1.615405 -0.212314
  C 4.285887 -1.606793 -0.703467
  C 5.138626 -1.660878 -1.811722
  C 4.819731 -1.107706 -3.157717
  C 3.327101 -0.935794 -3.426897
  C 3.096437 -0.323855 -4.804463
  O 6.297077 -2.236290 -1.763682
  H 0.628391 -0.095656 1.643010
  H 0.861972 -1.836198 1.476882
  H 0.398332 -0.888382 0.085697
  H 3.638491 1.016547 0.294761
  H 4.104914 0.062937 1.690021
  H 2.158711 0.961092 2.957017
  H 1.676242 1.904159 1.545224
  H 4.329025 2.175511 3.030915
  H 2.969684 3.290987 3.121396
  H 3.857548 3.113610 1.611365
  H 2.362653 -2.403370 -0.585702
  H 4.975151 -0.791872 -0.378388
  H 5.249476 -1.799401 -3.886816
  H 5.330017 -0.150073 -3.283134
  H 2.881272 -0.290594 -2.669371
  H 2.827045 -1.902954 -3.370627
  H 3.554926 0.660658 -4.874530
  H 2.031690 -0.215232 -4.996587
  H 3.518883 -0.952110 -5.583655
  H 6.513724 -2.689859 -0.918701
 32
 47.192129
  C 0.971268 -0.871744 1.222819
  C 2.330255 -0.602994 0.685891
  C 3.170271 0.543348 1.134251
  C 2.586114 1.454332 2.210772
  C 3.567584 2.568055 2.569397
  C 2.813855 -1.472381 -0.288550
  C 4.025182 -1.463608 -0.883588
  C 5.050815 -1.509972 -1.794817
  C 4.867060 -1.021806 -3.206651
  C 3.401882 -0.932781 -3.645989
  C 3.298812 -0.455297 -5.094227
  O 6.185272 -2.115445 -1.605542
  H 0.670178 -0.156461 1.982477
  H 0.928298 -1.876481 1.655420
  H 0.233063 -0.850116 0.416807
  H 3.414681 1.164370 0.264681
  H 4.119987 0.149622 1.504599
  H 2.364453 0.881056 3.109652
  H 1.651967 1.904499 1.860191
  H 4.499107 2.156217 2.947642
  H 3.147070 3.211443 3.340980
  H 3.792563 3.183187 1.701590
  H 2.170604 -2.295407 -0.586338
  H 4.802224 -0.656769 -0.693133
  H 5.411485 -1.710649 -3.842145
  H 5.330178 -0.038289 -3.316962
  H 2.859216 -0.233686 -3.001763
  H 2.919881 -1.908701 -3.542684
  H 3.745994 0.529168 -5.209953
  H 2.256348 -0.393564 -5.401428
  H 3.812882 -1.139355 -5.766702
  H 6.289130 -2.531140 -0.735751
