 26
 0.000000
  H 1.442171 0.158672 0.448349
  C 2.521740 0.146324 0.416356
  C 3.266534 0.618857 1.590174
  C 2.396792 1.084728 2.749916
  H 3.013918 1.418032 3.577771
  C 3.098162 -0.321871 -0.748955
  C 4.473568 -0.413484 -0.977842
  C 5.134651 -0.870415 -2.117519
  C 4.612052 -1.388270 -3.409117
  C 3.117963 -1.499056 -3.686177
  C 2.889677 -2.060824 -5.087446
  O 6.450199 -0.873008 -2.124795
  H 3.926425 1.440217 1.286443
  H 3.927461 -0.183287 1.939431
  H 1.757896 0.277282 3.100692
  H 1.756920 1.909548 2.444275
  H 2.428926 -0.635656 -1.530074
  H 5.113010 -0.087461 -0.165766
  H 5.065073 -2.377763 -3.542080
  H 5.065466 -0.764964 -4.188871
  H 2.646344 -0.517367 -3.630431
  H 2.645965 -2.170127 -2.967757
  H 3.327800 -1.414137 -5.843917
  H 1.824901 -2.141825 -5.290100
  H 3.327484 -3.051119 -5.187589
  H 6.860715 -0.543547 -1.301867
 26
 -0.091552
  H 1.492107 -0.122293 0.603164
  C 2.560762 -0.011976 0.479220
  C 3.273359 0.693402 1.552281
  C 2.366152 1.161608 2.681295
  H 2.943846 1.673785 3.445692
  C 3.119791 -0.531455 -0.669618
  C 4.489181 -0.501897 -0.951860
  C 5.150171 -0.964363 -2.089603
  C 4.611749 -1.428698 -3.392746
  C 3.115395 -1.501436 -3.665093
  C 2.875515 -1.914495 -5.115463
  O 6.460371 -0.998236 -2.091008
  H 3.808217 1.553717 1.132367
  H 4.054983 0.040890 1.960053
  H 1.859754 0.319485 3.146893
  H 1.609658 1.849567 2.311436
  H 2.457391 -1.010989 -1.368357
  H 5.130560 -0.096959 -0.177926
  H 5.059617 -2.411043 -3.583002
  H 5.071228 -0.775035 -4.145150
  H 2.650484 -0.529020 -3.500623
  H 2.645630 -2.243897 -3.019606
  H 3.308927 -1.193040 -5.803983
  H 1.809612 -1.974805 -5.319017
  H 3.312894 -2.888675 -5.320661
  H 6.887895 -0.685127 -1.271383
 26
 0.575719
  H 1.596168 -0.487991 0.741033
  C 2.617167 -0.201304 0.530268
  C 3.219878 0.792336 1.428494
  C 2.294237 1.241731 2.550089
  H 2.789311 1.975015 3.180774
  C 3.224435 -0.771046 -0.565689
  C 4.565095 -0.586639 -0.912750
  C 5.202102 -1.072660 -2.056640
  C 4.614170 -1.463314 -3.363042
  C 3.109904 -1.434982 -3.601896
  C 2.818157 -1.682198 -5.080129
  O 6.510886 -1.158234 -2.079872
  H 3.540135 1.664233 0.845841
  H 4.141520 0.381350 1.857956
  H 2.003623 0.399631 3.173593
  H 1.390896 1.695680 2.149872
  H 2.649750 -1.459021 -1.160824
  H 5.197570 -0.084455 -0.190812
  H 5.006168 -2.454556 -3.616965
  H 5.090949 -0.792917 -4.090357
  H 2.698063 -0.465448 -3.319850
  H 2.612588 -2.215616 -3.026946
  H 3.273471 -0.915504 -5.702525
  H 1.746436 -1.668379 -5.260258
  H 3.200109 -2.650213 -5.395607
  H 6.966707 -0.843711 -1.275348
 26
 3.186238
  H 1.771318 -0.864910 0.877207
  C 2.688099 -0.390835 0.556276
  C 3.056220 0.865857 1.223951
  C 2.123160 1.244972 2.365610
  H 2.429067 2.188620 2.809107
  C 3.396994 -0.982854 -0.460326
  C 4.677670 -0.618523 -0.882059
  C 5.295626 -1.184201 -2.003410
  C 4.654846 -1.494906 -3.306565
  C 3.154182 -1.302885 -3.496549
  C 2.795180 -1.467417 -4.971023
  O 6.587138 -1.389627 -2.029878
  H 3.075088 1.674069 0.483290
  H 4.084930 0.793760 1.595357
  H 2.135565 0.485063 3.143274
  H 1.100598 1.354110 2.012517
  H 2.994430 -1.863085 -0.936628
  H 5.278517 0.009736 -0.236949
  H 4.942645 -2.508592 -3.604656
  H 5.177495 -0.842161 -4.018227
  H 2.856421 -0.306995 -3.166959
  H 2.589875 -2.039345 -2.927946
  H 3.318465 -0.738521 -5.585545
  H 1.727678 -1.325597 -5.117335
  H 3.054427 -2.462210 -5.325293
  H 7.081267 -1.075425 -1.247705
 26
 8.455933
  H 1.962919 -1.082169 1.032781
  C 2.757205 -0.497481 0.589732
  C 2.932340 0.879477 1.082188
  C 2.082760 1.198661 2.305417
  H 2.172781 2.250030 2.567136
  C 3.531552 -1.086994 -0.387055
  C 4.716003 -0.583529 -0.918969
  C 5.327247 -1.257532 -2.000919
  C 4.669338 -1.465564 -3.317779
  C 3.178748 -1.173333 -3.445742
  C 2.736002 -1.348865 -4.894933
  O 6.579641 -1.634958 -1.976431
  H 2.679007 1.575179 0.273583
  H 3.988803 1.064145 1.302538
  H 2.401785 0.607182 3.161316
  H 1.032756 0.986813 2.116335
  H 3.274301 -2.072692 -0.753380
  H 5.290384 0.154057 -0.373065
  H 4.895881 -2.469430 -3.686802
  H 5.214531 -0.785826 -3.984866
  H 2.969540 -0.151646 -3.128333
  H 2.596606 -1.848724 -2.822102
  H 3.299419 -0.696122 -5.557976
  H 1.681899 -1.106423 -5.000038
  H 2.879794 -2.375484 -5.223200
  H 7.116422 -1.299033 -1.229650
 26
 17.829741
  H 2.320696 -1.286644 1.236816
  C 2.914188 -0.597730 0.653111
  C 2.832064 0.834792 0.993596
  C 2.004223 1.111939 2.243757
  H 1.910436 2.182488 2.407253
  C 3.739458 -1.100807 -0.316144
  C 4.773209 -0.452816 -0.997945
  C 5.323473 -1.299888 -2.002789
  C 4.643239 -1.509100 -3.302292
  C 3.174574 -1.088805 -3.391504
  C 2.679297 -1.198819 -4.828715
  O 6.527253 -1.776728 -1.943442
  H 2.394349 1.369761 0.141570
  H 3.840563 1.244391 1.113012
  H 2.473479 0.675064 3.122186
  H 1.003895 0.696795 2.147468
  H 3.658512 -2.139023 -0.634660
  H 5.265026 0.441127 -0.651089
  H 4.760640 -2.549370 -3.623238
  H 5.239241 -0.906135 -4.000563
  H 3.059407 -0.060395 -3.047702
  H 2.559858 -1.727888 -2.757143
  H 3.275331 -0.580562 -5.495260
  H 1.646113 -0.870492 -4.898740
  H 2.730244 -2.226725 -5.179422
  H 7.129680 -1.377036 -1.287752
 26
 29.402140
  H 2.665325 -1.397884 1.346000
  C 3.116983 -0.644101 0.710924
  C 2.727925 0.766879 0.921157
  C 1.938181 0.988410 2.211033
  H 1.653758 2.034656 2.305231
  C 3.952738 -1.038858 -0.291709
  C 4.876511 -0.322926 -1.053432
  C 5.307379 -1.303831 -2.004481
  C 4.609127 -1.477379 -3.298517
  C 3.181841 -0.931697 -3.367804
  C 2.597153 -1.145908 -4.754028
  O 6.460831 -1.883662 -1.933806
  H 2.120895 1.083388 0.062746
  H 3.616913 1.410386 0.906770
  H 2.535944 0.723109 3.079920
  H 1.029485 0.388916 2.219881
  H 3.916206 -2.073530 -0.675940
  H 5.416242 0.558612 -0.768590
  H 4.651386 -2.512468 -3.636741
  H 5.247875 -0.899332 -3.987026
  H 3.176792 0.131199 -3.133461
  H 2.553367 -1.439725 -2.640739
  H 3.186188 -0.635609 -5.507193
  H 1.584418 -0.760776 -4.799321
  H 2.563551 -2.201772 -5.000536
  H 7.075739 -1.571071 -1.236168
 26
 48.426917
  H 2.990834 -1.395093 1.284379
  C 3.312043 -0.562717 0.675800
  C 2.679843 0.760750 0.909920
  C 1.823561 0.781074 2.168962
  H 1.336307 1.746391 2.273821
  C 4.221919 -0.752436 -0.322575
  C 5.061546 -0.107691 -1.197710
  C 5.253230 -1.348017 -1.942121
  C 4.505075 -1.566039 -3.217612
  C 3.150930 -0.867933 -3.295146
  C 2.538958 -1.039419 -4.677828
  O 6.333741 -2.066109 -1.823706
  H 2.067660 1.018782 0.038364
  H 3.456000 1.530601 0.970212
  H 2.431353 0.610745 3.053567
  H 1.052493 0.016185 2.127960
  H 4.270122 -1.844140 -0.790186
  H 5.624158 0.793770 -1.152583
  H 4.384088 -2.638290 -3.385847
  H 5.169270 -1.184439 -3.998783
  H 3.272490 0.194073 -3.087318
  H 2.473535 -1.283910 -2.550627
  H 3.195422 -0.637847 -5.444140
  H 1.590233 -0.517211 -4.739382
  H 2.364066 -2.088048 -4.896358
  H 7.077516 -1.651526 -1.337979
 26
 57.594887
  H 3.233754 -1.310677 1.293993
  C 3.432825 -0.457853 0.664408
  C 2.611560 0.764972 0.878548
  C 1.758947 0.671304 2.134447
  H 1.141998 1.560476 2.229291
  C 4.334519 -0.528905 -0.326805
  C 5.199515 -0.073559 -1.235589
  C 5.216519 -1.418838 -1.891539
  C 4.451043 -1.578117 -3.196797
  C 3.137447 -0.803891 -3.247770
  C 2.474058 -0.964280 -4.611255
  O 6.314478 -2.186897 -1.806063
  H 1.970870 0.919878 0.003671
  H 3.267094 1.638913 0.926879
  H 2.381380 0.596230 3.022325
  H 1.102075 -0.193829 2.098115
  H 4.420952 -1.822158 -0.981508
  H 5.883599 0.746831 -1.262839
  H 4.277331 -2.639757 -3.376832
  H 5.123663 -1.217465 -3.980201
  H 3.323433 0.254876 -3.060488
  H 2.457927 -1.173593 -2.477991
  H 3.123942 -0.600946 -5.403356
  H 1.545622 -0.401298 -4.649914
  H 2.246135 -2.008761 -4.809972
  H 7.057175 -1.781458 -1.326788
 26
 50.765007
  H 3.375662 -1.169560 1.427537
  C 3.475456 -0.331442 0.750173
  C 2.525380 0.794052 0.935122
  C 1.747286 0.687930 2.237084
  H 1.046483 1.513615 2.315216
  C 4.337867 -0.377704 -0.247310
  C 5.177277 -0.136062 -1.229935
  C 5.170093 -1.499014 -1.891959
  C 4.442434 -1.589465 -3.255890
  C 3.123812 -0.833654 -3.299331
  C 2.501339 -0.919519 -4.691418
  O 6.326124 -2.243480 -1.832102
  H 1.832851 0.811414 0.083292
  H 3.071317 1.736418 0.892277
  H 2.412141 0.729094 3.092781
  H 1.185021 -0.238515 2.283156
  H 4.423378 -1.955899 -1.118109
  H 5.908237 0.635941 -1.332685
  H 4.291137 -2.638983 -3.493391
  H 5.129790 -1.177079 -3.997594
  H 3.289935 0.211668 -3.046979
  H 2.433114 -1.252180 -2.576607
  H 3.166936 -0.492758 -5.439410
  H 1.564840 -0.374692 -4.722098
  H 2.304885 -1.944438 -4.961900
  H 7.037973 -1.829151 -1.320598
 26
 41.813563
  H 3.387665 -1.070023 1.490408
  C 3.456649 -0.287503 0.734562
  C 2.455210 0.817560 0.834142
  C 1.626043 0.742817 2.109433
  H 0.881617 1.537247 2.107944
  C 4.354330 -0.380621 -0.215970
  C 5.266918 -0.304100 -1.153027
  C 5.249535 -1.606587 -1.913587
  C 4.461554 -1.558269 -3.248887
  C 3.112083 -0.861602 -3.152595
  C 2.440304 -0.820305 -4.522690
  O 6.455447 -2.253540 -2.060554
  H 1.797755 0.767017 -0.047608
  H 2.976448 1.780798 0.767345
  H 2.252369 0.870539 2.994872
  H 1.103445 -0.212412 2.188746
  H 4.605062 -2.203131 -1.200737
  H 6.071114 0.411417 -1.199661
  H 4.339394 -2.586277 -3.590759
  H 5.102338 -1.039174 -3.966839
  H 3.240270 0.157193 -2.784860
  H 2.464369 -1.399955 -2.457724
  H 3.060372 -0.287945 -5.241393
  H 1.480911 -0.312468 -4.457234
  H 2.267495 -1.824093 -4.900796
  H 7.188384 -1.811821 -1.606408
 26
 37.684500
  H 3.211582 -1.074497 1.422865
  C 3.375762 -0.286233 0.693264
  C 2.467849 0.898031 0.802476
  C 1.541839 0.816825 2.004291
  H 0.884960 1.683501 2.018265
  C 4.296626 -0.444329 -0.213506
  C 5.303556 -0.484439 -1.056427
  C 5.321098 -1.676180 -1.954431
  C 4.486486 -1.502506 -3.259910
  C 3.101100 -0.913063 -3.055548
  C 2.387688 -0.779389 -4.399324
  O 6.557084 -2.207686 -2.250073
  H 1.883573 0.966718 -0.123423
  H 3.075913 1.807042 0.850689
  H 2.105588 0.810293 2.935905
  H 0.923573 -0.078525 1.966506
  H 4.743387 -2.408570 -1.343634
  H 6.164226 0.163266 -0.962771
  H 4.418649 -2.488014 -3.720288
  H 5.074666 -0.863082 -3.922648
  H 3.173088 0.070843 -2.590945
  H 2.509038 -1.560797 -2.406643
  H 2.946919 -0.132171 -5.070845
  H 1.398311 -0.351883 -4.258263
  H 2.273587 -1.749429 -4.877019
  H 7.286207 -1.759164 -1.795954
 26
 33.628597
  H 3.204198 -1.023418 1.446974
  C 3.387533 -0.259349 0.697097
  C 2.498813 0.938336 0.766890
  C 1.467806 0.846497 1.876195
  H 0.835310 1.730462 1.863996
  C 4.330847 -0.467202 -0.174441
  C 5.343396 -0.636598 -0.988727
  C 5.358158 -1.763919 -1.960450
  C 4.507997 -1.422038 -3.236897
  C 3.085679 -0.973992 -2.956505
  C 2.342017 -0.765948 -4.275049
  O 6.604510 -2.208364 -2.351045
  H 2.004537 1.044601 -0.205107
  H 3.111855 1.835052 0.895839
  H 1.943000 0.794474 2.852916
  H 0.835625 -0.029248 1.751929
  H 4.830089 -2.600968 -1.471869
  H 6.230463 -0.022464 -0.890445
  H 4.507084 -2.333374 -3.835429
  H 5.050723 -0.652364 -3.788006
  H 3.084654 -0.038840 -2.396948
  H 2.560163 -1.730404 -2.371701
  H 2.832689 -0.006606 -4.878535
  H 1.321933 -0.445248 -4.081679
  H 2.304108 -1.687454 -4.850697
  H 7.329169 -1.665059 -2.005697
 26
 31.700133
  H 3.315506 -0.933454 1.524751
  C 3.451338 -0.207080 0.721052
  C 2.524276 0.963360 0.746348
  C 1.419100 0.816840 1.767473
  H 0.765763 1.682336 1.726976
  C 4.405394 -0.432158 -0.152567
  C 5.380201 -0.712455 -0.953082
  C 5.340113 -1.835390 -1.931556
  C 4.514096 -1.357527 -3.189706
  C 3.078167 -0.967418 -2.894031
  C 2.321871 -0.765649 -4.205330
  O 6.569450 -2.301209 -2.344068
  H 2.103216 1.083277 -0.259919
  H 3.096191 1.876651 0.942303
  H 1.819127 0.752780 2.775113
  H 0.825474 -0.071828 1.575112
  H 4.806778 -2.682197 -1.516890
  H 6.284638 -0.123669 -0.916502
  H 4.539732 -2.210846 -3.869464
  H 5.054158 -0.530313 -3.651032
  H 3.046007 -0.041942 -2.319389
  H 2.584180 -1.751649 -2.318945
  H 2.779164 0.023653 -4.795753
  H 1.290704 -0.491239 -4.001440
  H 2.318274 -1.676780 -4.797835
  H 7.279437 -1.649529 -2.229010
 26
 29.453470
  H 3.319142 -0.923372 1.579332
  C 3.435542 -0.207327 0.770386
  C 2.512626 0.950765 0.779698
  C 1.419521 0.843425 1.827854
  H 0.757100 1.702005 1.761996
  C 4.397559 -0.418004 -0.098220
  C 5.351536 -0.691660 -0.929020
  C 5.299771 -1.860313 -1.902720
  C 4.559757 -1.319418 -3.165734
  C 3.094808 -0.988269 -2.926700
  C 2.378070 -0.790660 -4.261414
  O 6.537040 -2.374018 -2.209085
  H 2.079282 1.046720 -0.222053
  H 3.083678 1.873309 0.930373
  H 1.835680 0.824116 2.832421
  H 0.830417 -0.059003 1.684882
  H 4.725652 -2.688929 -1.479127
  H 6.243355 -0.083180 -0.986705
  H 4.638599 -2.129102 -3.896079
  H 5.087747 -0.448278 -3.556610
  H 3.005079 -0.075733 -2.338444
  H 2.612014 -1.800750 -2.381691
  H 2.829771 0.021658 -4.824237
  H 1.331982 -0.551957 -4.092259
  H 2.424525 -1.692510 -4.866030
  H 7.122103 -1.702951 -2.598207
