 20
 0.000000
  H 1.423806 0.163008 0.461629
  C 2.503812 0.139874 0.401879
  C 3.245823 0.613514 1.574795
  H 2.572792 0.931497 2.365448
  C 3.055808 -0.333335 -0.774336
  C 4.435007 -0.419115 -0.989478
  C 5.125724 -0.870609 -2.117214
  C 4.620216 -1.389542 -3.413526
  C 3.131112 -1.500444 -3.691712
  H 3.001651 -1.902056 -4.695203
  O 6.438289 -0.862586 -2.097917
  H 3.900428 1.446037 1.310351
  H 3.902358 -0.168215 1.961136
  H 2.374351 -0.644179 -1.546437
  H 5.060552 -0.089387 -0.167761
  H 5.085741 -2.373742 -3.542542
  H 5.086347 -0.766846 -4.186125
  H 2.643972 -0.530101 -3.663361
  H 2.643449 -2.183046 -3.001784
  H 6.839787 -0.531885 -1.269630
 20
 1.375486
  H 1.435063 -0.147694 0.586299
  C 2.502339 -0.033353 0.462314
  C 3.218042 0.760249 1.466127
  H 2.553429 1.113439 2.246849
  C 3.072347 -0.630421 -0.641784
  C 4.438257 -0.576439 -0.924528
  C 5.131308 -0.964816 -2.072660
  C 4.623682 -1.356752 -3.410950
  C 3.131389 -1.347483 -3.697089
  H 2.978315 -1.596779 -4.743624
  O 6.443178 -0.888522 -2.060185
  H 3.702470 1.621686 1.001553
  H 4.021397 0.175593 1.918142
  H 2.420446 -1.176482 -1.301289
  H 5.091310 -0.142815 -0.177411
  H 5.024773 -2.357378 -3.611459
  H 5.138951 -0.706097 -4.126880
  H 2.698633 -0.366596 -3.520503
  H 2.604799 -2.092128 -3.108258
  H 6.876266 -0.890187 -1.185892
 20
 5.374180
  H 1.454218 -0.304463 0.630832
  C 2.504854 -0.108714 0.470242
  C 3.159594 0.844793 1.369920
  H 2.478191 1.215168 2.127923
  C 3.109270 -0.755006 -0.585525
  C 4.464878 -0.622464 -0.896870
  C 5.150202 -0.993343 -2.051594
  C 4.619763 -1.297790 -3.400443
  C 3.123165 -1.260115 -3.656843
  H 2.947383 -1.401207 -4.719880
  O 6.472276 -0.878393 -2.048600
  H 3.557174 1.693331 0.809339
  H 4.022074 0.385057 1.856283
  H 2.500595 -1.416745 -1.178347
  H 5.099824 -0.105788 -0.186646
  H 5.014438 -2.284172 -3.674004
  H 5.131940 -0.606900 -4.081661
  H 2.694662 -0.303636 -3.369896
  H 2.606382 -2.059238 -3.134997
  H 6.924002 -1.279724 -1.285859
 20
 10.404301
  H 1.437858 -0.278090 0.637623
  C 2.489028 -0.080003 0.478528
  C 3.141412 0.865283 1.388266
  H 2.454002 1.241439 2.138413
  C 3.094948 -0.717204 -0.586007
  C 4.457121 -0.591699 -0.884355
  C 5.152089 -0.970794 -2.026058
  C 4.637572 -1.280100 -3.375555
  C 3.142325 -1.298795 -3.639345
  H 2.975828 -1.420671 -4.706499
  O 6.486674 -0.820040 -1.989161
  H 3.562487 1.708446 0.836026
  H 3.992963 0.394490 1.884790
  H 2.485034 -1.368608 -1.190276
  H 5.090160 -0.088055 -0.163207
  H 5.074374 -2.241978 -3.673365
  H 5.126060 -0.557803 -4.044179
  H 2.672140 -0.368771 -3.330902
  H 2.658721 -2.132216 -3.137987
  H 6.970571 -1.532889 -1.539419
 20
 9.323527
  H 1.396071 -0.164103 0.603570
  C 2.458677 -0.016468 0.476628
  C 3.135816 0.859549 1.431308
  H 2.448957 1.266052 2.161962
  C 3.057454 -0.635847 -0.602515
  C 4.430169 -0.563276 -0.861069
  C 5.142950 -0.912640 -2.002942
  C 4.666173 -1.280275 -3.363417
  C 3.174848 -1.388978 -3.646675
  H 3.032224 -1.564547 -4.709467
  O 6.463845 -0.747111 -1.882604
  H 3.644904 1.678916 0.921328
  H 3.925451 0.313765 1.946450
  H 2.429654 -1.222042 -1.252497
  H 5.081821 -0.243636 -0.052500
  H 5.150863 -2.217564 -3.657414
  H 5.109836 -0.527965 -4.031361
  H 2.653507 -0.473791 -3.385471
  H 2.728714 -2.225936 -3.117934
  H 6.993385 -1.545124 -2.026773
 20
 13.877639
  H 1.409885 -0.339217 0.637900
  C 2.456979 -0.147449 0.451183
  C 3.073213 0.998508 1.124600
  H 2.362437 1.532801 1.745633
  C 3.104169 -0.962027 -0.439314
  C 4.459799 -0.807914 -0.776602
  C 5.159553 -1.015667 -1.953755
  C 4.664838 -1.137622 -3.340372
  C 3.155295 -1.128562 -3.528770
  H 2.924666 -1.184585 -4.589091
  O 6.481483 -0.871884 -1.769691
  H 3.511738 1.693392 0.407019
  H 3.910043 0.657689 1.738669
  H 2.556585 -1.782392 -0.879114
  H 5.218165 -0.573742 -0.031306
  H 5.069897 -2.058567 -3.776480
  H 5.123823 -0.317553 -3.904966
  H 2.717035 -0.214278 -3.136979
  H 2.690595 -1.978423 -3.041128
  H 7.035931 -1.630580 -2.012399
 20
 26.084811
  H 1.432484 -0.433632 0.753124
  C 2.455857 -0.218898 0.480902
  C 3.036439 1.051872 0.928157
  H 2.316494 1.651521 1.475070
  C 3.117490 -1.132772 -0.286474
  C 4.430249 -0.942287 -0.756233
  C 5.130572 -1.083873 -1.936516
  C 4.683996 -1.057205 -3.341353
  C 3.171104 -0.965077 -3.501552
  H 2.909131 -0.975896 -4.555370
  O 6.453560 -1.005959 -1.654866
  H 3.411342 1.633812 0.085908
  H 3.902987 0.859291 1.563890
  H 2.631801 -2.071189 -0.521564
  H 5.341827 -0.773004 -0.139999
  H 5.039490 -1.967585 -3.838339
  H 5.178523 -0.217992 -3.840378
  H 2.787744 -0.050069 -3.058609
  H 2.680624 -1.808238 -3.025736
  H 7.003039 -1.764182 -1.913699
 20
 47.366869
  H 1.474884 -0.409274 0.979489
  C 2.463127 -0.211557 0.590746
  C 3.082400 1.081905 0.899869
  H 2.421013 1.714410 1.483065
  C 3.046652 -1.168692 -0.197880
  C 4.295081 -1.014806 -0.797289
  C 5.026060 -1.099628 -1.930721
  C 4.706799 -1.048480 -3.371100
  C 3.205335 -0.960060 -3.625092
  H 3.011985 -0.916758 -4.692845
  O 6.348962 -1.003088 -1.525106
  H 3.359389 1.604036 -0.016834
  H 4.011791 0.936032 1.453017
  H 2.549354 -2.124265 -0.316308
  H 5.430021 -0.868179 -0.269988
  H 5.104695 -1.948103 -3.851540
  H 5.218969 -0.188378 -3.810929
  H 2.788773 -0.066896 -3.167798
  H 2.692903 -1.827646 -3.219821
  H 6.929704 -1.761760 -1.722088
 20
 60.121384
  H 1.506744 -0.390021 1.094633
  C 2.464140 -0.199962 0.634711
  C 3.092678 1.114611 0.853826
  H 2.463462 1.762555 1.454455
  C 3.010129 -1.181537 -0.150787
  C 4.201325 -1.050887 -0.828482
  C 4.950560 -1.118889 -1.905140
  C 4.708354 -1.057670 -3.365805
  C 3.221570 -0.971495 -3.689991
  H 3.078888 -0.921451 -4.765711
  O 6.309874 -1.005171 -1.425360
  H 3.298830 1.599987 -0.101136
  H 4.056053 1.003965 1.352005
  H 2.524016 -2.150228 -0.188344
  H 5.627958 -0.877646 -0.352820
  H 5.130909 -1.951631 -3.833457
  H 5.237098 -0.192359 -3.773745
  H 2.779545 -0.084756 -3.244315
  H 2.694717 -1.845210 -3.315906
  H 6.888887 -1.778693 -1.596688
 20
 49.506374
  H 1.518458 -0.387437 1.160823
  C 2.456071 -0.203808 0.659697
  C 3.087758 1.124856 0.825228
  H 2.467581 1.786722 1.420999
  C 2.977995 -1.204483 -0.128760
  C 4.125018 -1.080238 -0.851288
  C 4.916090 -1.110235 -1.878578
  C 4.710676 -1.026211 -3.353711
  C 3.230763 -0.961334 -3.713853
  H 3.113317 -0.896647 -4.792229
  O 6.329285 -1.004256 -1.381981
  H 3.278063 1.582583 -0.145896
  H 4.056464 1.032489 1.318863
  H 2.492383 -2.173476 -0.130860
  H 5.932013 -0.919822 -0.445479
  H 5.159133 -1.905169 -3.829195
  H 5.231628 -0.143583 -3.734600
  H 2.760539 -0.090790 -3.264652
  H 2.711929 -1.851250 -3.366314
  H 6.890031 -1.783870 -1.617532
 20
 41.747851
  H 1.509664 -0.413832 1.254207
  C 2.413116 -0.215526 0.699657
  C 2.988841 1.147939 0.760154
  H 2.384242 1.803941 1.378849
  C 2.952842 -1.235308 -0.060487
  C 4.066274 -1.143656 -0.833987
  C 4.870363 -1.183878 -1.834063
  C 4.699263 -1.050571 -3.309887
  C 3.231775 -0.886022 -3.691539
  H 3.138271 -0.775526 -4.768272
  O 6.325202 -1.122809 -1.428220
  H 3.064652 1.576279 -0.240368
  H 3.999305 1.123928 1.168869
  H 2.503480 -2.220811 0.011916
  H 6.153772 -0.989830 -0.463613
  H 5.104324 -1.935754 -3.803176
  H 5.271292 -0.181447 -3.647672
  H 2.805524 -0.005454 -3.218811
  H 2.652421 -1.753129 -3.384719
  H 6.849635 -1.929805 -1.638889
 20
 41.143311
  H 1.419764 -0.371919 1.032007
  C 2.383309 -0.199168 0.580069
  C 3.004956 1.133464 0.752968
  H 2.372894 1.787763 1.345320
  C 2.949172 -1.213167 -0.154542
  C 4.143839 -1.149557 -0.795027
  C 4.946234 -1.206378 -1.809296
  C 4.702198 -1.075001 -3.280776
  C 3.229249 -0.861105 -3.603571
  H 3.095682 -0.759143 -4.676865
  O 6.412747 -1.166228 -1.515952
  H 3.182882 1.600562 -0.216765
  H 3.971922 1.047369 1.248054
  H 2.452243 -2.177228 -0.160787
  H 6.421785 -0.764389 -0.616971
  H 5.052674 -1.981732 -3.779321
  H 5.291421 -0.234655 -3.654071
  H 2.853946 0.039207 -3.124294
  H 2.632387 -1.703269 -3.263957
  H 6.825479 -2.062579 -1.505101
 20
 37.087597
  H 1.568754 -0.447244 1.299007
  C 2.423400 -0.250274 0.673188
  C 2.893276 1.148435 0.546809
  H 2.231189 1.834089 1.067653
  C 3.005660 -1.310194 0.010721
  C 4.071889 -1.231838 -0.809779
  C 4.927333 -1.200281 -1.769504
  C 4.723092 -0.980355 -3.236767
  C 3.259964 -0.722810 -3.576235
  H 3.149467 -0.557192 -4.644276
  O 6.389734 -1.316268 -1.486917
  H 2.954082 1.440746 -0.501843
  H 3.895435 1.258938 0.961950
  H 2.598919 -2.301510 0.171689
  H 6.596124 -1.053408 -0.561674
  H 5.070315 -1.857157 -3.786947
  H 5.332023 -0.126184 -3.541624
  H 2.888424 0.154518 -3.053743
  H 2.642769 -1.572061 -3.295444
  H 6.722935 -2.227102 -1.665141
