 28
 0.000000
  C 0.955302 0.144071 0.410483
  C 2.428655 0.139658 0.398711
  C 3.223474 0.605105 1.556486
  C 2.462485 1.098171 2.783771
  C 3.430759 1.537789 3.877750
  C 3.039020 -0.326718 -0.762147
  C 4.422128 -0.411579 -0.974492
  C 5.094514 -0.857825 -2.087133
  C 4.628771 -1.378379 -3.384621
  C 3.147053 -1.506715 -3.704503
  H 3.019461 -1.907349 -4.703291
  H 6.174968 -0.843392 -2.051715
  H 0.528858 0.515527 1.334765
  H 0.581232 -0.866766 0.241236
  H 0.580769 0.756385 -0.411216
  H 3.882079 1.412426 1.216094
  H 3.882321 -0.213074 1.869329
  H 1.826268 0.304225 3.179220
  H 1.826139 1.944927 2.519996
  H 4.066494 0.712770 4.191400
  H 2.881206 1.887460 4.748216
  H 4.066388 2.350546 3.533341
  H 2.377725 -0.643886 -1.551031
  H 5.044257 -0.081130 -0.151938
  H 5.099661 -2.363025 -3.504196
  H 5.099723 -0.749462 -4.151611
  H 2.659909 -0.534728 -3.666953
  H 2.659937 -2.183352 -3.005673
 28
 10.382734
  C 0.946915 0.154739 0.436400
  C 2.419810 0.151772 0.428395
  C 3.211520 0.617986 1.588466
  C 2.447259 1.110426 2.814402
  C 3.414927 1.549999 3.908921
  C 3.035269 -0.315054 -0.733691
  C 4.405258 -0.395721 -0.935862
  C 5.142672 -0.896446 -2.184109
  C 4.654311 -1.408217 -3.458866
  C 3.164067 -1.522033 -3.741648
  H 3.010911 -1.922488 -4.739420
  H 6.221111 -0.879672 -2.143257
  H 0.518982 0.525850 1.359912
  H 0.574540 -0.856063 0.263456
  H 0.574137 0.764582 -0.387884
  H 3.871212 1.425213 1.250173
  H 3.871335 -0.198832 1.902649
  H 1.811382 0.315934 3.209010
  H 1.811428 1.957167 2.549791
  H 4.050614 0.724892 4.222467
  H 2.865512 1.899643 4.779466
  H 4.050698 2.362685 3.564630
  H 2.376747 -0.633748 -1.526237
  H 5.040758 -0.070705 -0.127218
  H 5.118125 -2.396175 -3.588850
  H 5.117878 -0.784233 -4.235946
  H 2.685972 -0.546859 -3.694247
  H 2.686335 -2.194101 -3.033206
 28
 30.559325
  C 0.952492 0.155263 0.434992
  C 2.422863 0.157704 0.440448
  C 3.203569 0.624851 1.604429
  C 2.429459 1.114565 2.825495
  C 3.393315 1.554596 3.923274
  C 3.050105 -0.304958 -0.712290
  C 4.402788 -0.372802 -0.882319
  C 5.192125 -0.931013 -2.272346
  C 4.655768 -1.427472 -3.506078
  C 3.159455 -1.518754 -3.729597
  H 2.971779 -1.919451 -4.725724
  H 6.265987 -0.897091 -2.189760
  H 0.523819 0.525010 1.356626
  H 0.583291 -0.856651 0.259655
  H 0.582653 0.764739 -0.391283
  H 3.865375 1.432367 1.272921
  H 3.865362 -0.187892 1.922863
  H 1.795441 0.317719 3.216987
  H 1.795565 1.961194 2.557989
  H 4.029118 0.729786 4.237066
  H 2.842470 1.903352 4.793112
  H 4.029249 2.367487 3.580435
  H 2.403788 -0.624764 -1.507817
  H 5.086718 -0.064655 -0.116038
  H 5.107875 -2.417738 -3.659216
  H 5.106607 -0.818353 -4.302401
  H 2.694752 -0.537539 -3.676123
  H 2.696313 -2.190700 -3.011435
 28
 53.494639
  C 0.938490 0.167355 0.465400
  C 2.413129 0.172174 0.476834
  C 3.191506 0.641793 1.646832
  C 2.412033 1.130934 2.866273
  C 3.372124 1.572418 3.967465
  C 3.054387 -0.295353 -0.687955
  C 4.401462 -0.358620 -0.846453
  C 5.247576 -0.972635 -2.375794
  C 4.679683 -1.463732 -3.596433
  C 3.173686 -1.540433 -3.783685
  H 2.956662 -1.938816 -4.774287
  H 6.315539 -0.929883 -2.271267
  H 0.503735 0.537358 1.387419
  H 0.572520 -0.844176 0.285211
  H 0.572017 0.773192 -0.364135
  H 3.854275 1.450419 1.317540
  H 3.854288 -0.170177 1.967713
  H 1.777659 0.332964 3.255879
  H 1.777771 1.977070 2.596517
  H 4.007996 0.748148 4.283108
  H 2.818549 1.920708 4.836009
  H 4.008180 2.386219 3.626222
  H 2.406849 -0.618915 -1.493099
  H 5.115310 -0.061506 -0.107370
  H 5.122998 -2.459386 -3.761439
  H 5.121625 -0.858718 -4.404902
  H 2.720980 -0.556360 -3.717705
  H 2.722586 -2.205863 -3.054723
 28
 75.725263
  C 0.941168 0.174229 0.482022
  C 2.409063 0.182372 0.501833
  C 3.180899 0.650368 1.668092
  C 2.397330 1.137868 2.883792
  C 3.353451 1.580146 3.987296
  C 3.051406 -0.279135 -0.648152
  C 4.390148 -0.336786 -0.792512
  C 5.291267 -1.007004 -2.461750
  C 4.692491 -1.490861 -3.663898
  C 3.183548 -1.551337 -3.809884
  H 2.934736 -1.946875 -4.793073
  H 6.357255 -0.955386 -2.335538
  H 0.502486 0.542535 1.399894
  H 0.578919 -0.838404 0.297260
  H 0.578519 0.777912 -0.351515
  H 3.843846 1.458938 1.340411
  H 3.843850 -0.160493 1.989958
  H 1.763016 0.339171 3.271087
  H 1.763144 1.982978 2.612033
  H 3.989225 0.756492 4.304374
  H 2.797448 1.927724 4.854336
  H 3.989406 2.394546 3.647704
  H 2.412461 -0.601299 -1.450100
  H 5.135385 -0.050285 -0.079706
  H 5.123335 -2.490019 -3.840694
  H 5.121590 -0.891334 -4.483372
  H 2.744001 -0.561128 -3.730274
  H 2.745992 -2.211909 -3.066642
 28
 95.775143
  C 0.920772 0.186961 0.513450
  C 2.396677 0.198095 0.540661
  C 3.167729 0.670050 1.716987
  C 2.378269 1.156917 2.931475
  C 3.329830 1.600771 4.039155
  C 3.058561 -0.271125 -0.628741
  C 4.396439 -0.326525 -0.767397
  C 5.346429 -1.054074 -2.579108
  C 4.719320 -1.529855 -3.760793
  C 3.204636 -1.573360 -3.864089
  H 2.921581 -1.966119 -4.840049
  H 6.408644 -0.998659 -2.443679
  H 0.475604 0.554913 1.430546
  H 0.561104 -0.826295 0.325223
  H 0.560747 0.788821 -0.322929
  H 3.831501 1.479971 1.392021
  H 3.831574 -0.139925 2.041611
  H 1.743650 0.356986 3.316491
  H 1.743723 2.001384 2.657380
  H 3.965708 0.777948 4.358447
  H 2.770153 1.947526 4.904423
  H 3.965854 2.416207 3.701884
  H 2.418743 -0.596815 -1.439555
  H 5.165190 -0.050990 -0.081762
  H 5.136209 -2.534389 -3.948580
  H 5.134276 -0.934023 -4.591961
  H 2.780377 -0.578715 -3.770247
  H 2.782625 -2.227244 -3.107439
 28
 113.125970
  C 0.932724 0.193226 0.529227
  C 2.397664 0.208490 0.567005
  C 3.159069 0.677514 1.735878
  C 2.363878 1.162152 2.944426
  C 3.309202 1.607518 4.055667
  C 3.056738 -0.250552 -0.576822
  C 4.379727 -0.300851 -0.702596
  C 5.383604 -1.084383 -2.654450
  C 4.728941 -1.557261 -3.829291
  C 3.210881 -1.586971 -3.897959
  H 2.900621 -1.975986 -4.865072
  H 6.445126 -1.022871 -2.504019
  H 0.482701 0.559715 1.442389
  H 0.577483 -0.820680 0.337760
  H 0.577314 0.793340 -0.310028
  H 3.822748 1.487458 1.412697
  H 3.822787 -0.131222 2.061943
  H 1.729124 0.361109 3.326120
  H 1.729285 2.005114 2.667002
  H 3.945032 0.785786 4.377717
  H 2.745148 1.953294 4.918217
  H 3.945235 2.423973 3.721009
  H 2.425644 -0.574905 -1.384398
  H 5.173950 -0.034240 -0.038965
  H 5.133300 -2.566428 -4.026728
  H 5.131174 -0.964348 -4.670337
  H 2.799376 -0.587524 -3.792352
  H 2.801818 -2.236536 -3.129762
 28
 127.549264
  C 0.901670 0.207437 0.564395
  C 2.379948 0.225768 0.610029
  C 3.143187 0.700931 1.794335
  C 2.341492 1.185490 3.002658
  C 3.282026 1.632666 4.118545
  C 3.066026 -0.245677 -0.564714
  C 4.401382 -0.296880 -0.692616
  C 5.438646 -1.140040 -2.793257
  C 4.760560 -1.600108 -3.936033
  C 3.241469 -1.609534 -3.953656
  H 2.891793 -1.994476 -4.910553
  H 6.497950 -1.080723 -2.648570
  H 0.445105 0.573549 1.476572
  H 0.548051 -0.807587 0.370577
  H 0.548023 0.806829 -0.277307
  H 3.807974 1.512617 1.474181
  H 3.807979 -0.107014 2.123776
  H 1.706393 0.383294 3.382085
  H 1.706608 2.027797 2.722806
  H 3.917892 0.811941 4.443121
  H 2.713897 1.977625 4.979034
  H 3.918138 2.450096 3.786450
  H 2.431421 -0.573996 -1.382410
  H 5.215366 -0.041998 -0.058050
  H 5.145948 -2.613599 -4.143997
  H 5.143588 -1.011144 -4.787646
  H 2.849017 -0.604861 -3.832273
  H 2.851684 -2.252109 -3.170463
 28
 138.133244
  C 0.932066 0.196203 0.537074
  C 2.406722 0.231444 0.624087
  C 3.145979 0.711080 1.819318
  C 2.316226 1.188581 3.010947
  C 3.229239 1.643654 4.146184
  C 3.124277 -0.226231 -0.516968
  C 4.436875 -0.267301 -0.620510
  C 5.479403 -1.175368 -2.880376
  C 4.742390 -1.629247 -4.007654
  C 3.218769 -1.600699 -3.932180
  H 2.796000 -1.974696 -4.861764
  H 6.539315 -1.117329 -2.738812
  H 0.449426 0.557670 1.438047
  H 0.593198 -0.822199 0.334997
  H 0.592830 0.792351 -0.312810
  H 3.811264 1.526506 1.510177
  H 3.811743 -0.091676 2.159002
  H 1.680423 0.380504 3.376517
  H 1.680167 2.025377 2.717327
  H 3.865416 0.828339 4.483715
  H 2.639947 1.983485 4.994553
  H 3.865158 2.466562 3.827211
  H 2.511134 -0.558301 -1.343711
  H 5.308291 -0.041065 -0.057435
  H 5.089002 -2.653686 -4.237624
  H 5.087072 -1.047960 -4.882795
  H 2.865844 -0.585080 -3.781859
  H 2.867826 -2.230558 -3.120655
 28
 145.904436
  C 0.934859 0.218660 0.592985
  C 2.391794 0.251781 0.674785
  C 3.122755 0.725746 1.855913
  C 2.292776 1.201840 3.044073
  C 3.203914 1.656854 4.179208
  C 3.107215 -0.205798 -0.466124
  C 4.425817 -0.250810 -0.579849
  C 5.502867 -1.218135 -2.986582
  C 4.769205 -1.666740 -4.100804
  C 3.247402 -1.631911 -4.009849
  H 2.814049 -2.002982 -4.932157
  H 6.574882 -1.169879 -2.869480
  H 0.455784 0.580220 1.494182
  H 0.596252 -0.798676 0.392112
  H 0.595881 0.814871 -0.255295
  H 3.787026 1.539733 1.546111
  H 3.787538 -0.076457 2.194112
  H 1.657110 0.393620 3.408522
  H 1.656931 2.037909 2.749596
  H 3.840052 0.841864 4.517339
  H 2.613648 1.996248 5.026513
  H 3.839841 2.480015 3.860888
  H 2.490989 -0.537071 -1.291000
  H 5.308738 -0.027836 -0.024919
  H 5.112067 -2.690767 -4.334055
  H 5.110189 -1.088099 -4.978023
  H 2.900679 -0.614910 -3.854598
  H 2.902508 -2.259384 -3.193719
 28
 149.746638
  C 0.905024 0.238135 0.642419
  C 2.371486 0.272576 0.727860
  C 3.105009 0.750680 1.918655
  C 2.276414 1.229375 3.112185
  C 3.191257 1.684209 4.246192
  C 3.093827 -0.187530 -0.418731
  C 4.405688 -0.236460 -0.542291
  C 5.532959 -1.259865 -3.089928
  C 4.807008 -1.715506 -4.222724
  C 3.282281 -1.682277 -4.136340
  H 2.848899 -2.053776 -5.060577
  H 6.610309 -1.225162 -3.006316
  H 0.418526 0.599342 1.542058
  H 0.568214 -0.781191 0.439168
  H 0.568008 0.833838 -0.209227
  H 3.771088 1.564696 1.607525
  H 3.771473 -0.052364 2.256336
  H 1.640674 0.421777 3.478991
  H 1.640634 2.066639 2.819328
  H 3.827469 0.868863 4.583410
  H 2.602903 2.024481 5.094837
  H 3.827379 2.506691 3.926547
  H 2.477253 -0.519803 -1.246138
  H 5.283375 -0.012161 0.016121
  H 5.154471 -2.738295 -4.457084
  H 5.152854 -1.138169 -5.099583
  H 2.935076 -0.665636 -3.979325
  H 2.936621 -2.308518 -3.319653
 28
 151.765186
  C 0.903856 0.261255 0.701222
  C 2.354115 0.293302 0.781183
  C 3.080283 0.766468 1.958777
  C 2.254825 1.244725 3.149693
  C 3.171207 1.698871 4.280961
  C 3.071534 -0.166473 -0.363651
  C 4.390468 -0.220333 -0.499287
  C 5.555375 -1.301348 -3.192644
  C 4.838265 -1.755860 -4.324177
  C 3.316844 -1.719491 -4.230729
  H 2.877630 -2.089044 -5.151351
  H 6.638452 -1.281350 -3.145212
  H 0.419222 0.622597 1.600241
  H 0.567934 -0.756630 0.497504
  H 0.567948 0.855165 -0.150152
  H 3.746139 1.577949 1.645990
  H 3.746371 -0.035768 2.294101
  H 1.619471 0.438014 3.517319
  H 1.619674 2.081813 2.857363
  H 3.807308 0.883385 4.617740
  H 2.584345 2.039693 5.129827
  H 3.807414 2.520809 3.960283
  H 2.451397 -0.498257 -1.189974
  H 5.268997 0.005355 0.062966
  H 5.185383 -2.776772 -4.559834
  H 5.184117 -1.180270 -5.200186
  H 2.973179 -0.702361 -4.069770
  H 2.974342 -2.343892 -3.411363
 28
 152.965757
  C 0.873343 0.279547 0.747345
  C 2.333937 0.312799 0.830579
  C 3.063675 0.790046 2.017844
  C 2.240508 1.271009 3.214692
  C 3.161936 1.724650 4.344167
  C 3.056424 -0.149064 -0.318930
  C 4.368705 -0.205659 -0.461188
  C 5.587106 -1.342198 -3.294129
  C 4.876446 -1.804124 -4.445040
  C 3.352246 -1.770079 -4.357809
  H 2.914378 -2.140356 -5.280973
  H 6.674416 -1.334305 -3.276514
  H 0.381829 0.640421 1.644666
  H 0.538916 -0.740350 0.539805
  H 0.539062 0.872020 -0.108379
  H 3.732165 1.601236 1.703453
  H 3.732329 -0.013033 2.352121
  H 1.605077 0.464987 3.585278
  H 1.605380 2.109612 2.924608
  H 3.798113 0.908627 4.679563
  H 2.577909 2.066500 5.194995
  H 3.798286 2.545818 4.021795
  H 2.437300 -0.481422 -1.146772
  H 5.240551 0.022698 0.108059
  H 5.227231 -2.824278 -4.679987
  H 5.226190 -1.228306 -5.319747
  H 3.007329 -0.753244 -4.195947
  H 3.008273 -2.393954 -3.538306
 28
 153.717978
  C 0.871962 0.301583 0.802563
  C 2.317555 0.332550 0.880029
  C 3.041260 0.804699 2.054287
  C 2.221699 1.284621 3.248420
  C 3.144798 1.737222 4.374902
  C 3.034233 -0.128528 -0.267358
  C 4.352719 -0.188527 -0.417962
  C 5.610641 -1.383022 -3.395439
  C 4.907944 -1.843916 -4.544434
  C 3.386541 -1.808422 -4.454372
  H 2.946254 -2.177550 -5.375208
  H 6.700032 -1.386835 -3.406548
  H 0.383332 0.662470 1.699725
  H 0.537881 -0.716471 0.593830
  H 0.537963 0.891729 -0.052846
  H 3.709790 1.613280 1.738526
  H 3.710042 0.002678 2.385839
  H 1.586879 0.479393 3.619665
  H 1.587087 2.123001 2.959267
  H 3.780970 0.920963 4.709472
  H 2.562508 2.079330 5.226287
  H 3.781018 2.558014 4.051606
  H 2.412073 -0.460368 -1.093942
  H 5.224881 0.040818 0.154147
  H 5.258703 -2.862640 -4.778764
  H 5.258008 -1.268659 -5.417549
  H 3.043419 -0.791533 -4.290529
  H 3.043997 -2.431028 -3.633621
