 20
 0.000000
  C 1.111156 0.032895 0.060283
  C 2.607042 0.045368 0.036210
  C 3.321598 0.540394 -0.979942
  C 4.759158 0.550202 -1.000998
  C 5.481229 1.048858 -2.020093
  C 6.919276 1.057636 -2.039135
  C 7.638467 1.552455 -3.050418
  C 9.128285 1.570461 -3.088330
  H 0.751266 -0.416289 0.984776
  H 0.714888 -0.549379 -0.771284
  H 0.713515 1.045864 0.002097
  H 3.109193 -0.373987 0.897902
  H 2.809849 0.959208 -1.837676
  H 5.262850 0.128591 -0.140182
  H 4.977979 1.470533 -2.881062
  H 7.424913 0.636381 -1.179054
  H 7.140478 1.975371 -3.913878
  H 9.560665 1.131118 -2.191234
  H 9.488370 2.596577 -3.176922
  H 9.487780 1.010873 -3.953221
 20
 -0.293425
  C 1.100282 0.031499 0.052652
  C 2.593488 0.058095 0.071612
  C 3.330157 0.523218 -0.944463
  C 4.765449 0.558999 -0.969407
  C 5.491060 1.030424 -2.009153
  C 6.927516 1.064003 -2.036043
  C 7.644463 1.530400 -3.060373
  C 9.133724 1.572437 -3.104036
  H 0.710020 -0.630893 0.820999
  H 0.740348 -0.304636 -0.919356
  H 0.698466 1.030091 0.229888
  H 3.080402 -0.316599 0.962600
  H 2.829084 0.901367 -1.827840
  H 5.275133 0.178641 -0.092390
  H 4.981443 1.411031 -2.885792
  H 7.434543 0.681885 -1.159243
  H 7.138196 1.913121 -3.938249
  H 9.564430 1.172566 -2.188674
  H 9.479659 2.598424 -3.237017
  H 9.504069 0.991938 -3.950296
 20
 -0.483200
  C 1.102554 0.039039 0.023328
  C 2.592548 0.106233 0.101254
  C 3.343012 0.517433 -0.922276
  C 4.777178 0.568684 -0.950167
  C 5.490106 1.016443 -1.998239
  C 6.925122 1.060948 -2.031751
  C 7.634219 1.514116 -3.068319
  C 9.121436 1.566970 -3.119210
  H 0.723514 -0.799639 0.603855
  H 0.801546 -0.086955 -1.016388
  H 0.651471 0.951732 0.413551
  H 3.055405 -0.214681 1.024506
  H 2.850470 0.859987 -1.825836
  H 5.294317 0.212343 -0.067435
  H 4.973659 1.371550 -2.881529
  H 7.439238 0.699775 -1.149369
  H 7.121510 1.876080 -3.950745
  H 9.558863 1.193507 -2.196446
  H 9.458711 2.591590 -3.279725
  H 9.492371 0.968337 -3.951980
 20
 -0.350779
  C 1.103814 0.033806 0.003330
  C 2.587488 0.156356 0.127890
  C 3.346878 0.534868 -0.900522
  C 4.781182 0.593274 -0.930428
  C 5.491121 1.017040 -1.990102
  C 6.925961 1.058177 -2.029668
  C 7.631707 1.496711 -3.074194
  C 9.118847 1.545839 -3.131487
  H 0.776288 -0.941968 0.362295
  H 0.838479 0.122443 -1.053624
  H 0.585261 0.794292 0.586171
  H 3.033891 -0.119962 1.073867
  H 2.860660 0.881013 -1.805924
  H 5.301037 0.254262 -0.042443
  H 4.972225 1.354137 -2.879044
  H 7.442734 0.707906 -1.144377
  H 7.116252 1.847516 -3.959580
  H 9.558769 1.199321 -2.199363
  H 9.457199 2.564370 -3.324334
  H 9.486118 0.921382 -3.946890
 20
 2.637251
  C 1.125664 -0.014255 -0.014252
  C 2.587425 0.223521 0.147345
  C 3.332614 0.624917 -0.888389
  C 4.766061 0.645310 -0.924544
  C 5.479352 1.041661 -1.986939
  C 6.915954 1.032143 -2.038341
  C 7.630067 1.477202 -3.076537
  C 9.119035 1.499097 -3.134577
  H 0.931518 -1.083335 0.096021
  H 0.870038 0.233373 -1.043607
  H 0.511477 0.515371 0.709875
  H 3.021242 0.069236 1.124931
  H 2.842994 1.067082 -1.748875
  H 5.282068 0.291853 -0.039604
  H 4.964135 1.376408 -2.879402
  H 7.427111 0.654196 -1.161112
  H 7.120703 1.860310 -3.951466
  H 9.552780 1.170882 -2.193118
  H 9.474076 2.507155 -3.352906
  H 9.476785 0.848470 -3.933062
 20
 12.662806
  C 1.158657 -0.059751 -0.062428
  C 2.577139 0.305191 0.201793
  C 3.326164 0.644905 -0.849229
  C 4.761025 0.670107 -0.889086
  C 5.470796 1.122239 -1.931900
  C 6.905765 1.064901 -2.014365
  C 7.615509 1.495785 -3.067200
  C 9.101684 1.430370 -3.172534
  H 1.094411 -1.158963 -0.033314
  H 1.033086 0.115637 -1.142042
  H 0.412792 0.341012 0.622658
  H 2.941786 0.333543 1.211203
  H 2.851083 1.162319 -1.670558
  H 5.283083 0.251997 -0.029454
  H 4.952954 1.549590 -2.777246
  H 7.419343 0.619453 -1.173290
  H 7.103420 1.930465 -3.916706
  H 9.537347 0.965731 -2.289489
  H 9.520940 2.431522 -3.295991
  H 9.391687 0.845398 -4.049401
 20
 31.437838
  C 1.256613 -0.151759 -0.149033
  C 2.566003 0.389352 0.291210
  C 3.304168 0.839562 -0.726580
  C 4.734209 0.727365 -0.836390
  C 5.444406 1.135483 -1.920697
  C 6.868226 1.002048 -2.042110
  C 7.570374 1.463115 -3.066735
  C 9.049635 1.377136 -3.182338
  H 1.300923 -1.246816 -0.279225
  H 1.394649 0.104675 -1.216290
  H 0.374726 0.131137 0.444930
  H 2.876543 0.395348 1.304056
  H 2.857589 1.527637 -1.434089
  H 5.255010 0.203455 -0.028591
  H 4.925370 1.615598 -2.746739
  H 7.383119 0.539476 -1.209054
  H 7.053176 1.956119 -3.901933
  H 9.490922 0.991674 -2.275348
  H 9.474303 2.357898 -3.398190
  H 9.320549 0.721191 -4.004863
 20
 60.392225
  C 1.282087 -0.127216 -0.087529
  C 2.546266 0.444424 0.357237
  C 3.297627 0.715937 -0.777466
  C 4.719550 0.614716 -0.890962
  C 5.427316 1.081388 -1.940120
  C 6.846469 0.965629 -2.060769
  C 7.559718 1.483307 -3.068222
  C 9.042277 1.417181 -3.174972
  H 1.257858 -1.197132 -0.327355
  H 1.670513 0.006390 -1.208311
  H 0.382289 0.195091 0.420655
  H 2.810131 0.688027 1.368123
  H 2.889872 1.471183 -1.441335
  H 5.239804 0.109877 -0.085308
  H 4.904717 1.543810 -2.767275
  H 7.357297 0.450316 -1.256067
  H 7.052841 2.014440 -3.867820
  H 9.471517 0.900629 -2.321521
  H 9.465851 2.422258 -3.223083
  H 9.333801 0.893879 -4.085898
 20
 80.435717
  C 1.349238 -0.204222 -0.030250
  C 2.482518 0.517713 0.368633
  C 3.220840 0.791950 -0.817792
  C 4.664249 0.696119 -0.904552
  C 5.393035 1.143076 -1.942597
  C 6.817918 0.997202 -2.046148
  C 7.548653 1.481814 -3.052867
  C 9.026996 1.345087 -3.169010
  H 1.453062 -1.221816 -0.377863
  H 2.056130 0.037256 -1.347659
  H 0.400971 -0.069531 0.493277
  H 2.761596 0.788285 1.375406
  H 2.810431 1.555779 -1.473484
  H 5.159022 0.169478 -0.097162
  H 4.896862 1.648512 -2.762940
  H 7.306472 0.463233 -1.239917
  H 7.062101 2.017388 -3.858428
  H 9.439945 0.818221 -2.312191
  H 9.494587 2.327966 -3.237143
  H 9.286228 0.797933 -4.076341
 20
 61.132851
  C 1.328686 -0.144150 0.103460
  C 2.459168 0.552878 0.352945
  C 3.178716 0.712967 -0.910993
  C 4.630904 0.584782 -1.004151
  C 5.371853 1.062142 -2.007408
  C 6.805008 0.935882 -2.085663
  C 7.549258 1.458011 -3.063902
  C 9.037157 1.399088 -3.115570
  H 1.385549 -1.148535 -0.288571
  H 2.343252 0.065453 -1.450648
  H 0.441151 -0.044340 0.702246
  H 2.771319 0.921302 1.291855
  H 2.795700 1.559000 -1.517516
  H 5.105369 0.024827 -0.205468
  H 4.887375 1.597485 -2.830496
  H 7.290855 0.432991 -1.267211
  H 7.077322 1.965935 -3.884414
  H 9.442421 0.846078 -2.259841
  H 9.449452 2.409952 -3.124904
  H 9.371168 0.902510 -4.026100
 20
 40.571050
  C 1.390824 -0.285594 0.208588
  C 2.395880 0.597908 0.310179
  C 3.116084 0.806966 -0.984781
  C 4.588206 0.677711 -1.033704
  C 5.359322 1.139525 -2.027730
  C 6.793473 0.979689 -2.075313
  C 7.575095 1.499064 -3.029371
  C 9.051326 1.319676 -3.109494
  H 1.503992 -1.227141 -0.306451
  H 2.494088 0.043957 -1.523454
  H 0.529381 -0.285941 0.863179
  H 2.718071 1.067823 1.224633
  H 2.722438 1.623597 -1.605376
  H 5.034747 0.110362 -0.226620
  H 4.903878 1.689950 -2.846036
  H 7.234517 0.412291 -1.268002
  H 7.128799 2.074040 -3.828192
  H 9.432271 0.818764 -2.222376
  H 9.550337 2.285554 -3.205514
  H 9.309427 0.730026 -3.992094
 20
 23.322198
  C 1.410980 -0.282140 0.297749
  C 2.382719 0.618890 0.236359
  C 3.093048 0.739595 -1.072750
  C 4.574285 0.659223 -1.075219
  C 5.355267 1.126850 -2.054151
  C 6.792576 0.998731 -2.067397
  C 7.572558 1.471268 -3.035271
  C 9.054228 1.324524 -3.078304
  H 1.457315 -1.202167 -0.263822
  H 2.558317 -0.038180 -1.658151
  H 0.659543 -0.315205 1.074371
  H 2.725438 1.185597 1.086237
  H 2.732461 1.622807 -1.616152
  H 5.016971 0.121385 -0.246089
  H 4.912537 1.672057 -2.881460
  H 7.233507 0.470787 -1.232870
  H 7.129475 1.993105 -3.872642
  H 9.417751 0.769758 -2.216336
  H 9.531594 2.305308 -3.092624
  H 9.356280 0.801430 -3.987517
 20
 12.257629
  C 1.377819 -0.171232 0.429777
  C 2.430142 0.587237 0.176810
  C 3.074415 0.595190 -1.171820
  C 4.562379 0.514636 -1.168344
  C 5.347797 1.049106 -2.099851
  C 6.786655 0.947513 -2.094357
  C 7.575783 1.506563 -3.010344
  C 9.062939 1.418644 -3.016443
  H 1.097735 -1.007165 -0.190141
  H 2.606748 -0.227819 -1.718328
  H 0.813053 -0.065634 1.343249
  H 2.887564 1.195501 0.944220
  H 2.738387 1.481649 -1.724207
  H 5.001264 -0.036686 -0.346563
  H 4.907813 1.595088 -2.925730
  H 7.223789 0.380206 -1.282127
  H 7.136922 2.074492 -3.821308
  H 9.424412 0.840667 -2.169160
  H 9.500709 2.416648 -2.974179
  H 9.410524 0.949018 -3.937193
 20
 8.997365
  C 1.503349 -0.232563 0.535957
  C 2.428390 0.611631 0.117135
  C 3.027949 0.575881 -1.256020
  C 4.521776 0.477349 -1.233440
  C 5.329082 1.042562 -2.130618
  C 6.767446 0.929058 -2.103931
  C 7.578373 1.534866 -2.971371
  C 9.064430 1.424863 -2.961551
  H 1.154271 -1.046565 -0.083689
  H 2.589998 -0.265237 -1.806829
  H 0.967551 -0.094784 1.510524
  H 2.777265 1.413971 0.755247
  H 2.726646 1.486999 -1.785970
  H 4.938606 -0.103345 -0.419946
  H 4.907953 1.627376 -2.939559
  H 7.184993 0.312317 -1.317564
  H 7.159567 2.151639 -3.757100
  H 9.411225 0.887600 -2.081701
  H 9.519882 2.415052 -2.974211
  H 9.408098 0.894952 -3.851402
 20
 8.153766
  C 1.551386 -0.206564 0.573002
  C 2.419806 0.649743 0.069802
  C 2.993487 0.564197 -1.310745
  C 4.488147 0.457978 -1.274002
  C 5.310078 1.062930 -2.129878
  C 6.747130 0.932770 -2.094798
  C 7.570235 1.542071 -2.946889
  C 9.054363 1.414858 -2.929979
  H 1.183998 -1.042960 0.001286
  H 2.579432 -0.311696 -1.820376
  H 1.166208 -0.108797 1.573977
  H 2.777522 1.481004 0.664019
  H 2.705759 1.451850 -1.881695
  H 4.891299 -0.171928 -0.491213
  H 4.904957 1.695428 -2.910436
  H 7.151750 0.296796 -1.317251
  H 7.163495 2.177537 -3.723682
  H 9.387391 0.829950 -2.076117
  H 9.519673 2.399538 -2.888107
  H 9.400734 0.928916 -3.842958
