 9
 0.000000
  H 5.751440 -1.129400 -2.029134
  C 6.827525 -1.132435 -2.035095
  C 7.534010 -1.637713 -3.027046
  C 9.024341 -1.661847 -3.074420
  H 7.317546 -0.696460 -1.179206
  H 7.034224 -2.073753 -3.883051
  H 9.456059 -1.208886 -2.185181
  H 9.381212 -1.119756 -3.949973
  H 9.381213 -2.688800 -3.150733
 9
 14.972803
  H 5.675153 -1.102867 -1.980626
  C 6.746213 -1.110643 -1.988659
  C 7.451484 -1.670317 -3.049388
  C 9.143940 -1.679619 -3.100224
  H 7.281191 -0.704213 -1.145256
  H 6.962920 -2.045437 -3.921673
  H 9.522649 -1.223851 -2.189516
  H 9.455002 -1.103803 -3.958916
  H 9.467357 -2.708883 -3.180722
 9
 42.366177
  H 5.613375 -1.079952 -1.932936
  C 6.687782 -1.098776 -1.960313
  C 7.345512 -1.657743 -3.071674
  C 9.282734 -1.681024 -3.111020
  H 7.239684 -0.703177 -1.130103
  H 6.887618 -2.069517 -3.945437
  H 9.585095 -1.222943 -2.188923
  H 9.535415 -1.108224 -3.989552
  H 9.534495 -2.724045 -3.185858
 9
 71.630920
  H 5.538962 -1.058547 -1.884729
  C 6.615645 -1.094261 -1.947040
  C 7.223086 -1.650977 -3.069452
  C 9.434969 -1.690632 -3.124820
  H 7.190302 -0.700301 -1.133169
  H 6.794456 -2.076337 -3.951221
  H 9.680562 -1.225526 -2.191547
  H 9.626581 -1.107977 -4.017100
  H 9.617934 -2.740525 -3.196766
 9
 95.159277
  H 5.448086 -1.034442 -1.845046
  C 6.524854 -1.091844 -1.941496
  C 7.095572 -1.638772 -3.037765
  C 9.606382 -1.702448 -3.150422
  H 7.109028 -0.697734 -1.130550
  H 6.712226 -2.070053 -3.934444
  H 9.811111 -1.228697 -2.214360
  H 9.721363 -1.117193 -4.039207
  H 9.713665 -2.763891 -3.222917
 9
 111.698501
  H 5.354423 -1.028532 -1.795289
  C 6.430931 -1.080236 -1.934352
  C 6.976086 -1.612883 -3.015325
  C 9.772739 -1.717284 -3.179215
  H 7.020237 -0.686200 -1.119700
  H 6.649603 -2.065274 -3.920626
  H 9.945606 -1.240011 -2.239427
  H 9.820800 -1.132073 -4.070570
  H 9.803100 -2.783170 -3.244583
 9
 122.231811
  H 5.253352 -1.025171 -1.754648
  C 6.330687 -1.072217 -1.913878
  C 6.870219 -1.590202 -2.987214
  C 9.936676 -1.735744 -3.212823
  H 6.920031 -0.663027 -1.106811
  H 6.594816 -2.056822 -3.901028
  H 10.092425 -1.258986 -2.270005
  H 9.924296 -1.148558 -4.102529
  H 9.895779 -2.800905 -3.273439
 9
 128.560932
  H 5.143267 -0.994737 -1.744263
  C 6.223373 -1.060120 -1.890697
  C 6.775928 -1.574546 -2.947107
  C 10.105209 -1.754648 -3.255016
  H 6.803147 -0.667374 -1.064403
  H 6.541075 -2.050647 -3.867500
  H 10.258374 -1.275328 -2.314153
  H 10.029578 -1.169136 -4.144528
  H 9.998016 -2.814785 -3.302200
 9
 132.090670
  H 5.019008 -1.013444 -1.730738
  C 6.103497 -1.046601 -1.861621
  C 6.694127 -1.551167 -2.893340
  C 10.278617 -1.782130 -3.307243
  H 6.652134 -0.620692 -1.031641
  H 6.488794 -2.025396 -3.821482
  H 10.462041 -1.310612 -2.366413
  H 10.152635 -1.189716 -4.184479
  H 10.102382 -2.834808 -3.347342
 9
 133.503907
  H 4.888223 -1.020271 -1.731208
  C 5.977427 -1.034837 -1.826018
  C 6.611569 -1.522896 -2.836552
  C 10.443380 -1.811367 -3.362869
  H 6.490365 -0.585670 -0.985569
  H 6.429017 -2.002652 -3.768002
  H 10.686896 -1.347400 -2.432763
  H 10.297381 -1.212194 -4.234052
  H 10.222181 -2.855168 -3.393609
 9
 134.092853
  H 4.758340 -1.015808 -1.743041
  C 5.851603 -1.019116 -1.793043
  C 6.531505 -1.495760 -2.773967
  C 10.608111 -1.840828 -3.425433
  H 6.320837 -0.565207 -0.928160
  H 6.393629 -1.981304 -3.709455
  H 10.922193 -1.381895 -2.512859
  H 10.442791 -1.241694 -4.289939
  H 10.340025 -2.875310 -3.438948
 9
 134.211237
  H 4.634525 -1.040505 -1.733658
  C 5.727210 -0.998259 -1.760567
  C 6.448549 -1.466177 -2.716434
  C 10.764607 -1.871749 -3.484525
  H 6.159686 -0.526214 -0.888086
  H 6.357890 -1.951070 -3.659475
  H 11.163189 -1.433774 -2.598102
  H 10.604548 -1.267658 -4.352889
  H 10.470029 -2.896125 -3.487779
 9
 134.256963
  H 4.519116 -1.020228 -1.748160
  C 5.612757 -0.992239 -1.725136
  C 6.370167 -1.443103 -2.661339
  C 10.924739 -1.898161 -3.550303
  H 6.012657 -0.513737 -0.839022
  H 6.320528 -1.937560 -3.601133
  H 11.408046 -1.479632 -2.694507
  H 10.773164 -1.300361 -4.418770
  H 10.611786 -2.919390 -3.541079
 9
 134.199679
  H 4.520086 -1.024983 -1.747445
  C 5.613572 -0.986245 -1.728237
  C 6.372731 -1.439789 -2.662169
  C 10.925321 -1.898906 -3.550430
  H 6.011967 -0.518592 -0.836964
  H 6.322402 -1.936288 -3.601091
  H 11.406604 -1.478293 -2.695092
  H 10.770925 -1.302567 -4.420655
  H 10.609352 -2.918747 -3.537364
