 22
 0.000000
  C 1.002704 0.053235 0.192260
  C 2.505027 0.054613 0.167814
  C 3.295722 -0.017816 1.451442
  C 2.501272 -0.091270 2.753145
  C 3.439174 -0.158957 3.952789
  C 3.119048 0.121738 -1.021745
  H 2.513005 0.172195 -1.915940
  C 4.541588 0.135037 -1.257410
  C 5.076850 0.203689 -2.474149
  H 6.138005 0.212741 -2.634553
  H 0.601411 -0.003489 1.197462
  H 0.619737 -0.796628 -0.371174
  H 0.619740 0.961092 -0.271986
  H 3.946655 0.859787 1.505790
  H 3.946662 -0.895960 1.406720
  H 1.864129 -0.978246 2.753086
  H 1.864116 0.790084 2.852872
  H 4.075626 -1.039397 3.893087
  H 2.870642 -0.211197 4.878511
  H 4.075620 0.722616 3.992504
  H 5.194601 0.086439 -0.396143
  H 4.471139 0.253746 -3.361231
 22
 13.312205
  C 0.862087 0.052026 0.213691
  C 2.528361 0.052802 0.199907
  C 3.311399 -0.019179 1.475617
  C 2.510558 -0.092443 2.773936
  C 3.442569 -0.160434 3.978974
  C 3.176129 0.125063 -1.080668
  H 2.559664 0.175086 -1.967188
  C 4.595127 0.138033 -1.310512
  C 5.133615 0.206623 -2.526134
  H 6.197197 0.215456 -2.682702
  H 0.465517 -0.004664 1.218287
  H 0.494787 -0.798042 -0.353726
  H 0.494789 0.960533 -0.254490
  H 3.963515 0.859194 1.530398
  H 3.963519 -0.898134 1.431239
  H 1.873261 -0.979033 2.769733
  H 1.873251 0.788991 2.869501
  H 4.079274 -1.040990 3.922484
  H 2.869364 -0.212516 4.901893
  H 4.079268 0.720889 4.021895
  H 5.245178 0.089306 -0.446936
  H 4.527893 0.256773 -3.414892
 22
 38.565742
  C 0.735944 0.052341 0.208111
  C 2.651033 0.051209 0.228075
  C 3.388772 -0.021452 1.515813
  C 2.529206 -0.092878 2.781587
  C 3.397065 -0.163292 4.029590
  C 3.211625 0.126449 -1.105332
  H 2.533118 0.173174 -1.933315
  C 4.612450 0.141288 -1.368412
  C 5.121454 0.210774 -2.599756
  H 6.190683 0.220960 -2.779903
  H 0.405989 -0.005039 1.224935
  H 0.474693 -0.813697 -0.375278
  H 0.474694 0.978516 -0.274148
  H 4.042240 0.855495 1.593067
  H 4.042236 -0.901519 1.493925
  H 1.890541 -0.977368 2.738557
  H 1.890551 0.790836 2.838327
  H 4.033915 -1.045346 4.005044
  H 2.777609 -0.213693 4.922730
  H 4.033948 0.715959 4.104420
  H 5.277509 0.093356 -0.518864
  H 4.483108 0.260190 -3.475208
 22
 66.819193
  C 0.543452 0.051839 0.217168
  C 2.758339 0.050851 0.234788
  C 3.463755 -0.021787 1.522162
  C 2.567356 -0.090797 2.744939
  C 3.390520 -0.163230 4.028638
  C 3.262238 0.124986 -1.078944
  H 2.555244 0.171000 -1.894574
  C 4.656795 0.141524 -1.371751
  C 5.139894 0.211454 -2.611490
  H 6.201583 0.222647 -2.811000
  H 0.253203 -0.006615 1.252645
  H 0.332441 -0.828589 -0.374461
  H 0.332414 0.993209 -0.271662
  H 4.106030 0.854257 1.615580
  H 4.106027 -0.902756 1.516434
  H 1.925223 -0.974336 2.686329
  H 1.925263 0.793661 2.786084
  H 4.027830 -1.048357 4.028900
  H 2.737949 -0.212250 4.896888
  H 4.027833 0.716210 4.128476
  H 5.334724 0.094112 -0.531765
  H 4.484563 0.259881 -3.470826
 22
 89.308341
  C 0.345856 0.051836 0.217255
  C 2.877743 0.051468 0.224393
  C 3.545483 -0.023092 1.545393
  C 2.601386 -0.089938 2.729167
  C 3.368428 -0.164498 4.050282
  C 3.315192 0.123611 -1.053295
  H 2.591792 0.168723 -1.852846
  C 4.705682 0.143086 -1.397278
  C 5.145912 0.213863 -2.652862
  H 6.193975 0.226711 -2.886313
  H 0.105786 -0.007476 1.267145
  H 0.199809 -0.839915 -0.381151
  H 0.199735 1.005214 -0.276986
  H 4.184741 0.849894 1.665930
  H 4.184743 -0.904030 1.566888
  H 1.960762 -0.973285 2.639905
  H 1.960784 0.797783 2.739877
  H 4.001577 -1.052297 4.080755
  H 2.676691 -0.211753 4.888340
  H 4.001498 0.714289 4.180450
  H 5.405320 0.096770 -0.578271
  H 4.465025 0.260569 -3.485629
 22
 104.299523
  C 0.191710 0.048791 0.270855
  C 2.984419 0.050252 0.245367
  C 3.603489 -0.024246 1.565483
  C 2.602578 -0.089528 2.722018
  C 3.308116 -0.165276 4.064372
  C 3.380389 0.123091 -1.045142
  H 2.651289 0.167492 -1.832090
  C 4.772632 0.146127 -1.452988
  C 5.158245 0.217750 -2.722844
  H 6.196410 0.233271 -3.000263
  H 0.004765 -0.010385 1.319086
  H 0.115759 -0.837450 -0.317768
  H 0.115707 0.995635 -0.214310
  H 4.242787 0.857619 1.708531
  H 4.242771 -0.916538 1.608400
  H 1.969272 -0.964077 2.591043
  H 1.969237 0.794207 2.690271
  H 3.934961 -1.049660 4.118710
  H 2.583582 -0.210863 4.872119
  H 3.934947 0.707410 4.217869
  H 5.503937 0.101238 -0.658227
  H 4.444654 0.263040 -3.527097
 22
 114.202001
  C 0.019057 0.046004 0.320263
  C 3.089470 0.050262 0.248253
  C 3.665743 -0.025052 1.581800
  C 2.617495 -0.088040 2.694634
  C 3.266624 -0.165944 4.074249
  C 3.448571 0.122788 -1.034225
  H 2.702587 0.166559 -1.810815
  C 4.831114 0.148764 -1.491029
  C 5.172172 0.220717 -2.771911
  H 6.202657 0.237233 -3.085072
  H -0.133802 -0.013328 1.369601
  H -0.000373 -0.847806 -0.271418
  H -0.000538 1.000781 -0.166930
  H 4.300061 0.858759 1.751427
  H 4.300112 -0.922081 1.650778
  H 1.987023 -0.960341 2.533451
  H 1.986871 0.796740 2.632751
  H 3.888710 -1.051879 4.156690
  H 2.504978 -0.209968 4.852068
  H 3.888591 0.705233 4.255997
  H 5.586016 0.104851 -0.719473
  H 4.431101 0.263907 -3.552564
 22
 120.117826
  C -0.151622 0.042302 0.385718
  C 3.185801 0.050185 0.247053
  C 3.720911 -0.026247 1.601286
  C 2.629691 -0.086489 2.667770
  C 3.220742 -0.165520 4.068243
  C 3.516983 0.122541 -1.033944
  H 2.752898 0.165539 -1.796984
  C 4.893271 0.150676 -1.531670
  C 5.197943 0.223223 -2.820189
  H 6.217042 0.242166 -3.161003
  H -0.282181 -0.016980 1.435292
  H -0.127242 -0.850952 -0.201246
  H -0.127376 0.995944 -0.096950
  H 4.347818 0.854223 1.797340
  H 4.347904 -0.923126 1.697009
  H 2.000942 -0.961286 2.478808
  H 2.000849 0.803987 2.578441
  H 3.837996 -1.055243 4.176104
  H 2.430028 -0.207469 4.810961
  H 3.837888 0.706428 4.275533
  H 5.669188 0.108144 -0.779067
  H 4.436857 0.265774 -3.579160
 22
 123.274509
  C -0.308958 0.036787 0.482715
  C 3.295737 0.050569 0.244367
  C 3.775201 -0.026400 1.606462
  C 2.628375 -0.084326 2.629096
  C 3.154400 -0.164613 4.050405
  C 3.598058 0.122764 -1.031495
  H 2.816180 0.164968 -1.780122
  C 4.957999 0.153219 -1.570041
  C 5.224789 0.225984 -2.867746
  H 6.235281 0.245675 -3.238566
  H -0.425693 -0.023149 1.541950
  H -0.246896 -0.854452 -0.099909
  H -0.247228 0.988071 0.004283
  H 4.396079 0.856313 1.830731
  H 4.396364 -0.928729 1.729839
  H 2.004141 -0.959736 2.411274
  H 2.003897 0.809996 2.511297
  H 3.765785 -1.059045 4.185887
  H 2.332082 -0.204534 4.755057
  H 3.765543 0.708907 4.285802
  H 5.749176 0.111840 -0.844065
  H 4.439939 0.267017 -3.606604
 22
 124.762217
  C -0.472143 0.030776 0.589011
  C 3.390012 0.051118 0.232437
  C 3.817143 -0.026596 1.607836
  C 2.625553 -0.081964 2.587173
  C 3.095738 -0.163850 4.037196
  C 3.673521 0.123184 -1.041924
  H 2.878096 0.164853 -1.780901
  C 5.021613 0.155143 -1.608432
  C 5.260444 0.228297 -2.911533
  H 6.260965 0.249662 -3.302599
  H -0.589340 -0.029031 1.646471
  H -0.384744 -0.859534 0.012493
  H -0.385109 0.980361 0.116547
  H 4.426825 0.850209 1.854409
  H 4.426797 -0.925331 1.754064
  H 2.011442 -0.950366 2.345909
  H 2.011373 0.808011 2.445228
  H 3.698891 -1.059472 4.197955
  H 2.245273 -0.201821 4.708675
  H 3.698826 0.708032 4.297803
  H 5.830227 0.114709 -0.896625
  H 4.459579 0.268921 -3.635306
 22
 125.606750
  C -0.655177 0.025223 0.684903
  C 3.476419 0.051591 0.228278
  C 3.859190 -0.026727 1.613777
  C 2.631793 -0.080083 2.553458
  C 3.050162 -0.161873 3.999604
  C 3.737376 0.122977 -1.032687
  H 2.943469 0.163496 -1.749685
  C 5.076236 0.157120 -1.633480
  C 5.285218 0.230346 -2.939670
  H 6.275577 0.251573 -3.350518
  H -0.777175 -0.034876 1.746320
  H -0.546048 -0.876849 0.104829
  H -0.546597 0.987416 0.210100
  H 4.465004 0.851065 1.880722
  H 4.465362 -0.929113 1.780027
  H 2.019299 -0.951942 2.290835
  H 2.018911 0.815852 2.390831
  H 3.643273 -1.055430 4.178285
  H 2.173871 -0.198462 4.643834
  H 3.643056 0.706030 4.278004
  H 5.913469 0.116663 -0.927703
  H 4.466266 0.268483 -3.646510
 22
 125.909368
  C -0.855640 0.020099 0.777221
  C 3.525229 0.052492 0.209119
  C 3.880017 -0.026532 1.608195
  C 2.638215 -0.077909 2.514763
  C 3.026448 -0.161210 3.989494
  C 3.785591 0.123778 -1.051488
  H 2.966518 0.165656 -1.793309
  C 5.123208 0.157556 -1.646643
  C 5.335426 0.231008 -2.954545
  H 6.341125 0.253295 -3.372268
  H -0.982765 -0.039616 1.833176
  H -0.745718 -0.862394 0.208062
  H -0.746280 0.960797 0.311336
  H 4.479950 0.850824 1.890756
  H 4.480107 -0.929999 1.790114
  H 2.034901 -0.944124 2.239349
  H 2.034713 0.813665 2.338695
  H 3.615155 -1.055710 4.182941
  H 2.131505 -0.196818 4.617886
  H 3.614894 0.705850 4.282473
  H 5.940213 0.118296 -0.957314
  H 4.531410 0.269110 -3.651451
 22
 125.975049
  C -1.054709 0.010954 0.939604
  C 3.562518 0.052250 0.174778
  C 3.887018 -0.026610 1.588516
  C 2.624928 -0.075117 2.464265
  C 2.976382 -0.156984 3.932854
  C 3.838258 0.122145 -1.080286
  H 3.027350 0.163993 -1.833419
  C 5.185887 0.153628 -1.654370
  C 5.415479 0.228659 -2.958214
  H 6.403688 0.259785 -3.351416
  H -1.188457 -0.047997 1.996930
  H -0.957005 -0.879356 0.363332
  H -0.956866 0.960592 0.465435
  H 4.484755 0.856403 1.889115
  H 4.484407 -0.937873 1.789190
  H 2.032750 -0.932116 2.177804
  H 2.033081 0.808733 2.274749
  H 3.560761 -1.055678 4.140362
  H 2.074306 -0.190302 4.534763
  H 3.561193 0.712931 4.238876
  H 6.002095 0.116918 -0.946497
  H 4.600363 0.277530 -3.688806
 22
 126.007685
  C -1.249863 0.001034 1.144976
  C 3.577853 0.056255 0.135046
  C 3.873320 -0.022855 1.542098
  C 2.589202 -0.072217 2.401428
  C 2.919109 -0.154944 3.889720
  C 3.884578 0.126836 -1.121186
  H 3.110453 0.169649 -1.872558
  C 5.247542 0.157155 -1.671845
  C 5.505286 0.231058 -2.969820
  H 6.517936 0.255202 -3.349382
  H -1.386342 -0.058322 2.200971
  H -1.174225 -0.891968 0.563673
  H -1.174306 0.952401 0.668052
  H 4.459743 0.848412 1.845930
  H 4.459146 -0.922024 1.750565
  H 1.992052 -0.944559 2.101294
  H 1.989194 0.826753 2.200488
  H 3.497614 -1.048234 4.106758
  H 2.006442 -0.188989 4.476988
  H 3.495232 0.710161 4.204962
  H 6.048709 0.116887 -0.947172
  H 4.722058 0.275252 -3.699655
