 23
 0.000000
  C 0.984013 0.150397 0.425158
  C 2.458213 0.135464 0.387720
  C 3.232686 0.603621 1.552868
  H 2.615825 0.935278 2.378931
  C 3.067798 -0.329947 -0.771374
  C 4.443504 -0.413990 -0.980760
  C 5.123120 -0.866103 -2.107867
  C 4.626618 -1.388667 -3.410379
  C 3.137777 -1.504588 -3.699641
  H 3.002036 -1.905297 -4.698460
  O 6.444041 -0.861032 -2.095549
  H 0.592084 0.527751 1.364483
  H 0.594159 -0.855593 0.263774
  H 0.593976 0.765118 -0.387291
  H 3.885485 1.426121 1.254495
  H 3.885811 -0.196465 1.906307
  H 2.409555 -0.647287 -1.561568
  H 5.070726 -0.084684 -0.160550
  H 5.088217 -2.374850 -3.534040
  H 5.088434 -0.761630 -4.181415
  H 2.654353 -0.531748 -3.661825
  H 2.654215 -2.181489 -2.999954
  H 6.834781 -0.528600 -1.265528
 23
 12.233194
  C 1.080285 0.076117 0.242860
  C 2.544084 0.111768 0.327537
  C 3.190195 0.603973 1.551825
  H 2.463972 0.902296 2.297805
  C 3.287826 -0.330672 -0.774874
  C 4.643205 -0.348439 -0.821230
  C 5.065028 -0.821152 -1.995528
  C 4.463813 -1.331360 -3.266774
  C 2.979672 -1.459819 -3.589825
  H 2.906411 -1.863603 -4.597376
  O 6.407113 -0.901990 -2.192424
  H 0.602370 0.437959 1.145193
  H 0.740457 -0.938832 0.042010
  H 0.738500 0.669371 -0.603980
  H 3.830935 1.454837 1.329135
  H 3.833207 -0.163201 1.978503
  H 2.692041 -0.672699 -1.625358
  H 5.296760 -0.027414 -0.024874
  H 4.924390 -2.319098 -3.398632
  H 4.927185 -0.709315 -4.043874
  H 2.471567 -0.498233 -3.597751
  H 2.469453 -2.159674 -2.932270
  H 6.929031 -0.597418 -1.428499
 23
 40.909624
  C 1.145836 0.008271 0.073706
  C 2.603397 0.088498 0.270091
  C 3.145219 0.599153 1.539726
  H 2.360668 0.877406 2.235680
  C 3.453308 -0.330573 -0.774138
  C 4.809770 -0.301468 -0.704639
  C 5.014725 -0.787071 -1.909837
  C 4.346356 -1.291332 -3.165366
  C 2.862375 -1.411401 -3.470300
  H 2.788006 -1.816816 -4.482870
  O 6.395815 -0.934761 -2.273283
  H 0.588350 0.355612 0.938955
  H 0.851017 -1.019898 -0.152458
  H 0.849261 0.593010 -0.801049
  H 3.781224 1.468304 1.359541
  H 3.783975 -0.151402 2.010033
  H 2.920137 -0.674964 -1.630396
  H 5.487028 0.008006 0.066262
  H 4.796696 -2.281634 -3.307824
  H 4.797327 -0.676348 -3.952839
  H 2.350371 -0.447562 -3.481803
  H 2.346580 -2.115241 -2.814335
  H 6.991494 -0.651153 -1.568201
 23
 77.764751
  C 1.181404 -0.023351 -0.002432
  C 2.630776 0.074251 0.235554
  C 3.129517 0.590570 1.519368
  H 2.323345 0.859220 2.193572
  C 3.524083 -0.337256 -0.791854
  C 4.889737 -0.271246 -0.636913
  C 4.932554 -0.762166 -1.849765
  C 4.296485 -1.271681 -3.116827
  C 2.809247 -1.390360 -3.420854
  H 2.734535 -1.795937 -4.429745
  O 6.394751 -0.954831 -2.319672
  H 0.597886 0.316618 0.844837
  H 0.903581 -1.053429 -0.234807
  H 0.901386 0.558344 -0.883022
  H 3.760749 1.466562 1.357830
  H 3.765091 -0.151059 2.007240
  H 2.969932 -0.674190 -1.630103
  H 5.572350 0.033421 0.117466
  H 4.751453 -2.261269 -3.252709
  H 4.755097 -0.655514 -3.899618
  H 2.296821 -0.428206 -3.434847
  H 2.292672 -2.092368 -2.765753
  H 7.018564 -0.681153 -1.631877
 23
 112.049763
  C 1.178104 -0.027554 -0.013313
  C 2.628255 0.069055 0.224857
  C 3.128051 0.582919 1.507967
  H 2.320887 0.850976 2.182410
  C 3.522164 -0.341874 -0.806847
  C 4.909886 -0.253372 -0.610541
  C 4.822855 -0.745965 -1.815710
  C 4.282394 -1.265301 -3.097977
  C 2.800123 -1.389670 -3.419890
  H 2.735417 -1.795453 -4.420383
  O 6.455309 -0.974963 -2.365837
  H 0.598521 0.312016 0.835592
  H 0.895525 -1.056649 -0.244890
  H 0.893770 0.556742 -0.890986
  H 3.761054 1.460178 1.349180
  H 3.764700 -0.159772 1.996614
  H 2.924134 -0.668932 -1.627433
  H 5.604671 0.050697 0.136840
  H 4.758773 -2.252605 -3.216128
  H 4.765932 -0.645948 -3.869153
  H 2.289594 -0.433680 -3.443918
  H 2.283232 -2.088586 -2.772566
  H 7.067330 -0.700975 -1.676728
 23
 134.701811
  C 1.133143 -0.003649 0.022491
  C 2.597079 0.071654 0.235737
  C 3.134308 0.570512 1.524672
  H 2.341627 0.837594 2.212010
  C 3.444833 -0.327399 -0.800081
  C 4.886464 -0.230015 -0.602312
  C 4.691861 -0.718528 -1.802940
  C 4.290012 -1.268714 -3.105357
  C 2.819355 -1.421259 -3.468047
  H 2.779215 -1.844577 -4.477180
  O 6.650644 -0.993733 -2.433169
  H 0.586788 0.334512 0.889671
  H 0.826177 -1.024898 -0.206382
  H 0.831277 0.601286 -0.833283
  H 3.766077 1.444513 1.369126
  H 3.766070 -0.181564 1.996426
  H 2.799461 -0.636407 -1.624985
  H 5.584942 0.064672 0.134098
  H 4.783365 -2.238337 -3.189021
  H 4.785874 -0.649401 -3.855292
  H 2.294260 -0.460919 -3.513991
  H 2.296536 -2.128829 -2.813853
  H 7.264109 -0.728481 -1.748018
 23
 128.855713
  C 0.968890 0.079586 0.258540
  C 2.456367 0.102314 0.331472
  C 3.113989 0.566307 1.581375
  H 2.379939 0.830226 2.332194
  C 3.149783 -0.292365 -0.775797
  C 4.710382 -0.191096 -0.703167
  C 4.439977 -0.694384 -1.824947
  C 4.329953 -1.278903 -3.123920
  C 2.926976 -1.499013 -3.672654
  H 2.998402 -1.947754 -4.664694
  O 7.237695 -1.116285 -2.635423
  H 0.527032 0.420974 1.186616
  H 0.604362 -0.930738 0.052631
  H 0.606407 0.719122 -0.550903
  H 3.735012 1.442057 1.392844
  H 3.760507 -0.209714 1.992750
  H 2.498828 -0.564665 -1.608322
  H 5.308232 0.144936 0.098438
  H 4.883997 -2.230743 -3.081066
  H 4.928480 -0.646483 -3.796553
  H 2.398232 -0.555948 -3.781121
  H 2.365292 -2.187241 -3.044632
  H 7.986226 -0.910258 -2.075443
 23
 122.722472
  C 0.867643 0.135561 0.443293
  C 2.354213 0.151508 0.440830
  C 3.082788 0.595337 1.648870
  H 2.394701 0.862981 2.443416
  C 2.994363 -0.261096 -0.694091
  C 4.490557 -0.204740 -0.773277
  C 4.394310 -0.747739 -1.916220
  C 4.368326 -1.332631 -3.194093
  C 2.998188 -1.540452 -3.841407
  H 3.127353 -1.979332 -4.826074
  O 7.657018 -1.172150 -2.699698
  H 0.470970 0.481496 1.393040
  H 0.491111 -0.869962 0.254323
  H 0.469596 0.770979 -0.348053
  H 3.702996 1.464655 1.431609
  H 3.743468 -0.189935 2.014883
  H 2.344931 -0.534585 -1.517011
  H 5.103897 0.176322 0.007724
  H 4.909035 -2.288086 -3.111326
  H 4.999303 -0.677113 -3.815440
  H 2.477926 -0.594558 -3.959786
  H 2.390199 -2.221169 -3.252627
  H 8.462522 -0.984598 -2.218244
