 25
 0.000000
  C 1.008564 0.119912 0.351133
  C 2.480135 0.130950 0.377844
  C 3.241016 0.603595 1.553009
  C 2.447583 1.089435 2.761722
  C 3.388285 1.537525 3.876166
  C 3.132052 -0.328723 -0.766070
  C 4.522310 -0.401283 -0.947723
  C 5.148567 -0.856259 -2.082444
  C 4.539861 -1.351732 -3.318331
  H 3.457768 -1.367019 -3.357017
  H 6.229438 -0.864336 -2.102777
  H 0.556170 0.487087 1.264449
  H 0.649932 -0.894208 0.167490
  H 0.649553 0.724495 -0.483329
  H 3.902325 1.415132 1.227886
  H 3.902598 -0.206935 1.880042
  H 1.810209 0.289684 3.143094
  H 1.810071 1.930514 2.483482
  H 4.024296 0.718106 4.203524
  H 2.818013 1.882665 4.734941
  H 4.024124 2.355611 3.545218
  H 2.500695 -0.656044 -1.580349
  H 5.152730 -0.074079 -0.132808
  H 4.922340 -2.359013 -3.504410
  H 4.922694 -0.752261 -4.148700
 25
 14.808718
  C 0.950677 0.093338 0.399202
  C 2.421736 0.052919 0.417204
  C 3.207818 0.516719 1.574343
  C 2.449385 1.118277 2.739777
  C 3.405823 1.603336 3.823005
  C 3.066670 -0.432571 -0.720350
  C 4.462663 -0.482498 -0.915675
  C 5.004538 -0.906316 -2.098016
  C 4.632261 -1.251224 -3.440557
  H 3.546716 -1.218661 -3.444023
  H 6.241537 -0.906003 -1.913672
  H 0.543621 0.443790 1.337902
  H 0.555651 -0.904576 0.204259
  H 0.586734 0.719796 -0.412265
  H 3.891880 1.293098 1.217822
  H 3.824787 -0.308061 1.933982
  H 1.784327 0.392528 3.199856
  H 1.835384 1.967093 2.434308
  H 4.006383 0.790500 4.220032
  H 2.838944 2.017324 4.652680
  H 4.060770 2.386556 3.457546
  H 2.443644 -0.793022 -1.525428
  H 5.110299 -0.171318 -0.119468
  H 4.895511 -2.277624 -3.698455
  H 5.081358 -0.617111 -4.203206
 25
 45.196233
  C 0.967624 0.125512 0.385079
  C 2.440097 0.120768 0.401060
  C 3.209276 0.592344 1.572861
  C 2.438399 1.106754 2.783724
  C 3.403571 1.561422 3.875792
  C 3.079896 -0.348016 -0.741645
  C 4.473185 -0.425453 -0.933441
  C 4.980314 -0.886375 -2.102664
  C 4.599423 -1.356633 -3.409725
  H 3.504553 -1.380936 -3.462929
  H 6.596123 -0.885241 -2.007814
  H 0.538535 0.495245 1.309046
  H 0.600432 -0.884998 0.186359
  H 0.608736 0.721373 -0.457853
  H 3.895904 1.375958 1.224281
  H 3.878276 -0.218230 1.888783
  H 1.787385 0.329022 3.189077
  H 1.805433 1.950491 2.506472
  H 4.030408 0.738776 4.210020
  H 2.855153 1.931406 4.738930
  H 4.046733 2.360791 3.517319
  H 2.464789 -0.684919 -1.567601
  H 5.129771 -0.116472 -0.139667
  H 4.950101 -2.369365 -3.618217
  H 4.934068 -0.680939 -4.202653
 25
 64.930556
  C 0.917953 0.138374 0.427108
  C 2.382992 0.125251 0.405954
  C 3.191582 0.588277 1.542738
  C 2.466390 1.103543 2.774412
  C 3.446582 1.549554 3.852577
  C 2.983881 -0.351976 -0.758061
  C 4.384512 -0.438634 -0.972183
  C 4.876443 -0.888836 -2.116266
  C 4.645396 -1.356199 -3.411246
  H 3.550960 -1.402869 -3.528069
  H 6.820916 -0.833242 -1.865640
  H 0.502326 0.512234 1.353977
  H 0.534176 -0.866504 0.234856
  H 0.538306 0.732360 -0.408073
  H 3.881451 1.367111 1.187534
  H 3.865894 -0.225340 1.845786
  H 1.820530 0.325411 3.187319
  H 1.829633 1.951534 2.509524
  H 4.080368 0.726356 4.176113
  H 2.909215 1.917425 4.722402
  H 4.089952 2.350058 3.494726
  H 2.338716 -0.678297 -1.561436
  H 5.048640 -0.131543 -0.181987
  H 5.047862 -2.354995 -3.589179
  H 5.039812 -0.687291 -4.179760
 25
 66.805790
  C 0.885105 0.170719 0.442762
  C 2.350070 0.135313 0.404818
  C 3.177973 0.579307 1.533661
  C 2.476540 1.103920 2.774461
  C 3.473778 1.518902 3.848106
  C 2.926538 -0.345931 -0.767079
  C 4.327414 -0.431415 -1.004052
  C 4.810305 -0.881408 -2.134203
  C 4.668590 -1.395875 -3.403084
  H 3.580615 -1.525791 -3.544097
  H 7.013133 -0.649580 -1.823138
  H 0.486288 0.545076 1.375914
  H 0.480081 -0.824525 0.245335
  H 0.505240 0.778298 -0.382491
  H 3.880965 1.344768 1.174573
  H 3.838700 -0.250307 1.825422
  H 1.816339 0.337226 3.189099
  H 1.856075 1.967414 2.519845
  H 4.090971 0.679342 4.160982
  H 2.951887 1.892756 4.724972
  H 4.134163 2.307023 3.492028
  H 2.268732 -0.672248 -1.560203
  H 4.997393 -0.106156 -0.224407
  H 5.136066 -2.375720 -3.537113
  H 5.034243 -0.729305 -4.189206
 25
 64.461801
  C 0.784106 0.210982 0.502504
  C 2.244213 0.158098 0.397690
  C 3.130123 0.577831 1.490619
  C 2.497640 1.086942 2.772477
  C 3.548401 1.468823 3.804930
  C 2.764162 -0.327170 -0.798902
  C 4.154235 -0.417339 -1.094715
  C 4.668075 -0.899889 -2.186326
  C 4.774719 -1.446365 -3.431505
  H 3.731461 -1.681946 -3.725915
  H 7.107894 -0.457906 -1.475142
  H 0.433305 0.584809 1.455560
  H 0.358900 -0.778725 0.318997
  H 0.375293 0.827526 -0.302180
  H 3.823560 1.341467 1.108610
  H 3.796779 -0.262044 1.737491
  H 1.849056 0.319269 3.204112
  H 1.873469 1.960787 2.565652
  H 4.169520 0.616118 4.071988
  H 3.073560 1.831630 4.712472
  H 4.203165 2.254504 3.433408
  H 2.075852 -0.660432 -1.563093
  H 4.852255 -0.057979 -0.350612
  H 5.325702 -2.392278 -3.460470
  H 5.174800 -0.764435 -4.188824
 25
 60.376249
  C 0.736516 0.211719 0.572124
  C 2.184412 0.145300 0.403920
  C 3.124438 0.560179 1.451528
  C 2.557287 1.084139 2.756830
  C 3.658470 1.468446 3.734612
  C 2.647963 -0.340551 -0.807273
  C 4.021426 -0.463846 -1.148780
  C 4.564434 -0.913397 -2.234489
  C 4.860467 -1.412424 -3.454251
  H 3.878341 -1.665939 -3.903186
  H 7.146768 -0.334237 -0.890549
  H 0.430203 0.591149 1.538427
  H 0.295147 -0.774963 0.410289
  H 0.297456 0.828549 -0.216110
  H 3.806289 1.315969 1.032326
  H 3.797100 -0.282816 1.671382
  H 1.921926 0.326829 3.224800
  H 1.933802 1.962372 2.570816
  H 4.287881 0.614927 3.978965
  H 3.229779 1.842399 4.660246
  H 4.299089 2.246811 3.324333
  H 1.929356 -0.652128 -1.551723
  H 4.761659 -0.144358 -0.416338
  H 5.431649 -2.346264 -3.432848
  H 5.337830 -0.694921 -4.129678
 25
 58.971107
  C 0.698098 0.230150 0.607004
  C 2.146031 0.133463 0.405959
  C 3.108808 0.541771 1.438967
  C 2.584634 1.113215 2.751490
  C 3.717389 1.453080 3.698666
  C 2.582701 -0.357137 -0.818783
  C 3.951835 -0.448324 -1.195402
  C 4.503043 -0.908066 -2.271661
  C 4.901179 -1.424221 -3.470379
  H 3.941321 -1.677830 -3.963701
  H 7.144314 -0.216759 -0.608086
  H 0.415577 0.583385 1.588571
  H 0.243773 -0.749074 0.425776
  H 0.259462 0.867468 -0.165239
  H 3.792038 1.283212 0.993186
  H 3.780304 -0.304702 1.643763
  H 1.986818 0.304427 3.206179
  H 1.911223 1.936119 2.564151
  H 4.339938 0.592569 3.928508
  H 3.319355 1.845921 4.629265
  H 4.362774 2.215139 3.260831
  H 1.849754 -0.659444 -1.550815
  H 4.699445 -0.128248 -0.468107
  H 5.464935 -2.357511 -3.403363
  H 5.434139 -0.692622 -4.075578
 25
 58.028458
  C 0.682407 0.286032 0.619479
  C 2.147167 0.132319 0.393943
  C 3.112509 0.551654 1.444042
  C 2.590432 1.225557 2.794304
  C 3.723341 1.434105 3.718511
  C 2.570994 -0.382481 -0.836061
  C 3.972443 -0.437098 -1.208909
  C 4.440438 -0.909328 -2.199601
  C 4.940071 -1.461210 -3.515883
  H 3.989635 -1.737462 -3.975110
  H 7.155560 -0.162629 -0.671161
  H 0.424067 0.634595 1.576932
  H 0.224288 -0.707270 0.443262
  H 0.268450 0.906500 -0.181683
  H 3.805997 1.258418 0.988185
  H 3.772076 -0.311695 1.640369
  H 1.946194 0.274240 3.181805
  H 1.992388 1.859996 2.587576
  H 4.347385 0.571650 3.937644
  H 3.334309 1.812334 4.630696
  H 4.375862 2.193313 3.259688
  H 1.851554 -0.668949 -1.542105
  H 4.690740 -0.100584 -0.486551
  H 5.529015 -2.335350 -3.465020
  H 5.419521 -0.732916 -3.958973
 25
 44.809806
  C 0.612832 0.145401 0.680685
  C 2.054477 0.103762 0.438918
  C 3.028192 0.572284 1.434632
  C 2.494949 1.145066 2.734048
  C 3.617900 1.586907 3.661514
  C 2.470551 -0.383923 -0.794805
  C 3.817638 -0.509166 -1.218145
  C 4.321257 -0.931485 -2.330733
  C 4.887625 -1.370268 -3.478957
  H 4.069852 -1.608332 -4.187825
  H 9.165697 -0.848370 -0.664475
  H 0.356286 0.302177 1.721447
  H 0.121957 -0.748118 0.296772
  H 0.176502 0.968123 0.104386
  H 3.682173 1.323476 0.969059
  H 3.714200 -0.254808 1.672214
  H 1.887115 0.401239 3.256644
  H 1.847145 2.002960 2.530333
  H 4.279486 0.758546 3.910597
  H 3.210408 1.977210 4.590562
  H 4.222488 2.371197 3.209774
  H 1.716061 -0.698808 -1.501900
  H 4.607837 -0.209474 -0.514927
  H 5.461172 -2.298032 -3.355090
  H 5.485183 -0.602656 -3.989134
