13

H 1.918564 -0.657724 -0.23896
C 1.438172 0.751482 0.086457
C 0.025738 1.038293 -0.420103
C -1.05458 0.184457 0.206133
O -0.8517 -0.616384 1.080125
C -2.439778 0.433185 -0.36336
H -3.189455307702128 -0.1646420039692424 0.1757010425931821
H 1.4223662388241112 0.8429856707086316 1.1825305632978733
H 2.120356 1.469296 -0.379482
H -0.011429 0.911851 -1.507137
H -0.229489 2.083504 -0.214527
H -2.407758 0.183199 -1.428515
H -2.670493 1.498203 -0.283859
