 17
 0.000000
  C 0.955518 0.135755 0.387231
  C 2.411571 0.086966 0.269705
  H 3.005267 0.423304 1.108194
  C 3.053545 -0.366845 -0.859743
  C 4.442637 -0.404905 -0.957427
  C 5.177853 -0.847276 -2.061982
  C 4.596238 -1.351162 -3.316678
  H 3.518505 -1.351201 -3.316570
  O 6.481469 -0.838915 -2.044676
  H 0.630835 0.520972 1.345894
  H 0.529793 -0.857840 0.230168
  H 0.532029 0.746243 -0.413462
  H 2.448911 -0.700313 -1.689389
  H 5.002818 -0.059530 -0.098854
  H 4.965470 -2.359628 -3.500044
  H 4.965498 -0.749706 -4.146704
  H 6.888236 -0.507926 -1.219084
 17
 -0.450865
  C 0.969479 0.199060 0.336124
  C 2.426850 0.104510 0.255881
  H 3.009325 0.408020 1.115240
  C 3.081262 -0.355332 -0.862083
  C 4.473733 -0.423806 -0.934961
  C 5.202902 -0.874627 -2.039548
  C 4.593535 -1.368035 -3.290047
  H 3.603313 -1.780051 -3.138697
  O 6.506668 -0.852091 -2.047812
  H 0.631017 0.580991 1.293104
  H 0.515743 -0.777899 0.152270
  H 0.588037 0.835103 -0.465929
  H 2.487646 -0.654154 -1.713506
  H 5.029767 -0.103659 -0.063259
  H 5.246629 -2.110937 -3.741368
  H 4.520821 -0.541473 -3.999800
  H 6.930463 -0.518235 -1.233322
 17
 0.881073
  C 0.970183 0.206717 0.305690
  C 2.429342 0.141388 0.232016
  H 3.002339 0.469144 1.089839
  C 3.097543 -0.328534 -0.872939
  C 4.489784 -0.413314 -0.920711
  C 5.208231 -0.931413 -2.003430
  C 4.569364 -1.384616 -3.255352
  H 3.746721 -2.066966 -3.059339
  O 6.509397 -0.829867 -2.066647
  H 0.618618 0.538517 1.276314
  H 0.536488 -0.762172 0.069642
  H 0.584338 0.876314 -0.466737
  H 2.519930 -0.615287 -1.742908
  H 5.033411 -0.122563 -0.028550
  H 5.308209 -1.867729 -3.888808
  H 4.171847 -0.523548 -3.792745
  H 6.971390 -0.664052 -1.221871
 17
 9.976604
  C 0.960989 0.184096 0.325832
  C 2.419950 0.150603 0.231825
  H 2.991571 0.493601 1.081274
  C 3.083053 -0.345679 -0.864458
  C 4.483703 -0.427575 -0.909404
  C 5.187842 -1.035830 -1.953568
  C 4.572361 -1.365555 -3.261707
  H 3.709645 -2.019768 -3.149454
  O 6.469228 -0.752445 -2.083073
  H 0.620537 0.590812 1.270438
  H 0.546610 -0.820188 0.194506
  H 0.544146 0.768427 -0.495843
  H 2.506400 -0.658927 -1.719040
  H 4.970989 -0.175088 0.020757
  H 5.313431 -1.848653 -3.892809
  H 4.256567 -0.450415 -3.762933
  H 7.012687 -0.784089 -1.273781
 17
 39.160524
  C 0.964379 0.211790 0.433788
  C 2.425444 0.197065 0.281216
  H 3.018316 0.540101 1.126416
  C 3.039360 -0.279907 -0.848875
  C 4.453180 -0.422400 -0.938502
  C 4.986202 -1.176471 -1.985150
  C 4.678324 -1.456269 -3.394394
  H 3.836079 -2.109954 -3.541758
  O 6.294650 -0.691107 -2.080997
  H 0.661188 0.672125 1.363297
  H 0.562855 -0.802124 0.381247
  H 0.502620 0.752899 -0.389960
  H 2.446362 -0.494423 -1.717904
  H 4.832414 -0.255037 0.052326
  H 5.572563 -1.891011 -3.849781
  H 4.490118 -0.507177 -3.895685
  H 6.819269 -0.764099 -1.263850
 17
 80.125990
  C 0.951383 0.249818 0.469688
  C 2.401727 0.019565 0.334468
  H 2.969223 -0.011743 1.251747
  C 3.012255 -0.160232 -0.857496
  C 4.477723 -0.345322 -0.962629
  C 4.820352 -1.154981 -2.020231
  C 4.764551 -1.618968 -3.387851
  H 3.967751 -2.341592 -3.559300
  O 6.179242 -0.451312 -2.148642
  H 0.669016 0.385363 1.506092
  H 0.397714 -0.590744 0.061187
  H 0.646252 1.119400 -0.112663
  H 2.424845 -0.077583 -1.765951
  H 4.729478 -0.126375 0.056254
  H 5.705993 -2.074329 -3.671204
  H 4.629520 -0.742308 -4.027258
  H 6.831981 -0.551113 -1.425761
 17
 114.798621
  C 0.961088 0.180429 0.371705
  C 2.447565 0.024147 0.269954
  H 2.977535 -0.094408 1.202550
  C 3.071562 -0.066989 -0.915571
  C 4.595435 -0.322354 -0.965202
  C 4.643356 -1.068145 -2.028042
  C 4.587252 -1.622149 -3.302052
  H 3.646315 -2.163596 -3.448436
  O 6.427534 -0.262846 -2.049731
  H 0.655577 0.169147 1.411733
  H 0.453647 -0.638568 -0.127627
  H 0.624276 1.106510 -0.093604
  H 2.536231 0.099688 -1.832899
  H 4.805348 -0.102209 0.063751
  H 5.381895 -2.364316 -3.411984
  H 4.730762 -0.860566 -4.063005
  H 7.044451 -0.483443 -1.333581
 17
 120.355247
  C 1.076821 0.109004 0.180927
  C 2.535627 -0.132947 0.132963
  H 3.022941 -0.366227 1.065814
  C 3.220663 -0.093315 -1.024034
  C 4.783705 -0.281170 -0.922300
  C 4.530049 -1.035094 -1.926847
  C 4.216837 -1.619485 -3.162669
  H 3.196396 -1.992246 -3.200140
  O 6.594021 -0.017588 -1.739890
  H 0.706426 0.011042 1.196631
  H 0.549157 -0.592954 -0.463486
  H 0.836671 1.108407 -0.188876
  H 2.711462 0.202057 -1.933672
  H 5.165039 -0.143912 0.066638
  H 4.891765 -2.466103 -3.321436
  H 4.383534 -0.911852 -3.978714
  H 7.189242 -0.243922 -1.019661
 17
 104.050174
  C 1.202080 0.082017 0.058422
  C 2.640494 -0.235500 0.035575
  H 3.085361 -0.619977 0.949782
  C 3.382536 -0.084426 -1.109200
  C 4.962179 -0.238061 -0.880005
  C 4.531420 -0.993950 -1.878359
  C 4.065388 -1.612133 -3.072221
  H 3.014346 -1.834850 -3.047465
  O 6.469635 0.165851 -1.406243
  H 0.768052 -0.118919 1.038049
  H 0.674868 -0.505734 -0.695007
  H 1.028854 1.128855 -0.197030
  H 2.892726 0.341427 -1.981237
  H 5.318760 -0.241958 0.122482
  H 4.619691 -2.539032 -3.229982
  H 4.285350 -0.980817 -3.931059
  H 7.044187 -0.019652 -0.665633
 17
 84.728332
  C 1.263436 0.034491 0.109284
  C 2.704972 -0.266679 -0.080810
  H 3.253337 -0.611898 0.781980
  C 3.308070 -0.110377 -1.285293
  C 5.190320 -0.124539 -0.987093
  C 4.563462 -0.936214 -1.871908
  C 3.949206 -1.595794 -3.025327
  H 2.877701 -1.725983 -2.924052
  O 6.536203 0.139926 -1.325244
  H 0.961088 -0.129131 1.137317
  H 0.655078 -0.598803 -0.541275
  H 1.037552 1.061239 -0.172462
  H 2.716654 0.246799 -2.123596
  H 5.225768 -0.073460 0.089512
  H 4.408243 -2.583402 -3.150356
  H 4.180618 -1.049452 -3.944563
  H 7.134755 0.003578 -0.569166
 17
 57.785728
  C 1.247212 0.056350 0.205841
  C 2.653937 -0.245497 -0.041308
  H 3.269674 -0.468253 0.834345
  C 3.158398 -0.293511 -1.303549
  C 5.196150 -0.178677 -1.048803
  C 4.433423 -0.995571 -1.803583
  C 4.078620 -1.539488 -3.129961
  H 3.016873 -1.571571 -3.301039
  O 6.512298 0.045546 -1.329860
  H 1.017071 0.037473 1.263852
  H 0.594307 -0.662861 -0.298497
  H 1.004188 1.045124 -0.191141
  H 2.474236 -0.068924 -2.107169
  H 5.103783 -0.024658 0.015909
  H 4.483242 -2.552410 -3.225731
  H 4.562175 -0.960896 -3.919002
  H 7.100399 0.058682 -0.559216
 17
 25.477247
  C 1.142682 0.018182 0.327566
  C 2.553082 -0.227138 -0.025666
  H 3.271639 -0.202248 0.778740
  C 2.956793 -0.423578 -1.317556
  C 5.224606 -0.228777 -1.123423
  C 4.240308 -0.926566 -1.785060
  C 4.230555 -1.426407 -3.177945
  H 3.266544 -1.302360 -3.658560
  O 6.482345 -0.125464 -1.509856
  H 0.987815 0.019662 1.400522
  H 0.492924 -0.724621 -0.134569
  H 0.808853 0.973827 -0.091448
  H 2.205328 -0.344230 -2.079750
  H 5.090681 0.025890 -0.081875
  H 4.472873 -2.489605 -3.181744
  H 5.030711 -0.958494 -3.755038
  H 7.148361 -0.119132 -0.802608
 17
 10.459283
  C 1.122726 0.093047 0.343554
  C 2.500303 -0.266183 -0.015777
  H 3.209732 -0.355540 0.791811
  C 2.865652 -0.542548 -1.300924
  C 5.234098 -0.266435 -1.109890
  C 4.173271 -0.867615 -1.769857
  C 4.320945 -1.400220 -3.144101
  H 3.401271 -1.306073 -3.714203
  O 6.435590 -0.204152 -1.614960
  H 1.007576 0.260793 1.408517
  H 0.436542 -0.697442 0.033953
  H 0.802195 0.978589 -0.205905
  H 2.072252 -0.538255 -2.039043
  H 5.107459 0.093671 -0.095203
  H 4.578614 -2.458896 -3.102234
  H 5.141041 -0.907914 -3.658540
  H 7.162860 -0.066363 -0.982676
 17
 5.837921
  C 1.091432 0.062854 0.365925
  C 2.493770 -0.111539 -0.030396
  H 3.244810 0.110642 0.712701
  C 2.842969 -0.544454 -1.277748
  C 5.275644 -0.324883 -1.096999
  C 4.145401 -0.749007 -1.791823
  C 4.304409 -1.307369 -3.156483
  H 3.414358 -1.155502 -3.758804
  O 6.461204 -0.434700 -1.619053
  H 0.993458 0.430178 1.381598
  H 0.554956 -0.883802 0.272640
  H 0.582871 0.744083 -0.318807
  H 2.035210 -0.765577 -1.964433
  H 5.190364 0.038197 -0.079439
  H 4.484009 -2.382177 -3.091925
  H 5.172876 -0.876728 -3.649720
  H 7.207420 -0.287001 -1.007886
 17
 5.004808
  C 1.090003 0.098571 0.376610
  C 2.489353 -0.046288 -0.044534
  H 3.248019 0.273190 0.653695
  C 2.827040 -0.550160 -1.267776
  C 5.279809 -0.439823 -1.066364
  C 4.126606 -0.728065 -1.797868
  C 4.297277 -1.259510 -3.171241
  H 3.355791 -1.299200 -3.712431
  O 6.451249 -0.613319 -1.595839
  H 1.000248 0.544389 1.360997
  H 0.595228 -0.873981 0.375707
  H 0.533811 0.698486 -0.347524
  H 2.015289 -0.838791 -1.922349
  H 5.202440 -0.078303 -0.047031
  H 4.718171 -2.264862 -3.126488
  H 5.017234 -0.654982 -3.723925
  H 7.209375 -0.435620 -1.005411
