 20
 0.000000
  C 1.007920 -0.071374 0.048492
  C 2.504000 -0.082237 0.026379
  C 3.218654 -0.595458 -0.980798
  C 4.656685 -0.606349 -1.002945
  C 5.375715 -1.122202 -2.015288
  C 6.814654 -1.131424 -2.033966
  C 7.534862 -1.642332 -3.037653
  C 9.025399 -1.661012 -3.072415
  H 0.646543 0.395325 0.964207
  H 0.612238 -1.086395 0.010759
  H 0.611805 0.494216 -0.794986
  H 3.004894 0.353562 0.881022
  H 2.706467 -1.029138 -1.831267
  H 5.162278 -0.171233 -0.149647
  H 4.869605 -1.557320 -2.868481
  H 7.320491 -0.696760 -1.180276
  H 7.037959 -2.078730 -3.895375
  H 9.458080 -1.208408 -2.181625
  H 9.386701 -1.114725 -3.945410
  H 9.384449 -2.688987 -3.144174
 20
 1.230251
  C 1.010572 -0.128115 0.084668
  C 2.504485 -0.137351 0.048659
  C 3.221526 -0.541921 -1.002876
  C 4.657332 -0.540641 -1.044128
  C 5.377915 -0.953989 -2.099140
  C 6.818865 -0.965323 -2.137038
  C 7.532900 -1.751374 -2.943424
  C 9.021241 -1.752923 -3.023403
  H 0.643734 0.096430 1.082671
  H 0.610984 -1.092574 -0.225961
  H 0.617979 0.624161 -0.601071
  H 3.015519 0.217296 0.934998
  H 2.713715 -0.899685 -1.890340
  H 5.167027 -0.184886 -0.156462
  H 4.871501 -1.308464 -2.988300
  H 7.326787 -0.300414 -1.448821
  H 7.023575 -2.427969 -3.618403
  H 9.461537 -1.259828 -2.161078
  H 9.335945 -1.224404 -3.924658
  H 9.405682 -2.769492 -3.089930
 20
 5.047334
  C 1.019982 -0.172845 0.090997
  C 2.514630 -0.219309 0.057588
  C 3.226444 -0.500128 -1.036783
  C 4.663511 -0.523515 -1.075794
  C 5.376278 -0.797785 -2.170678
  C 6.831845 -0.836946 -2.226149
  C 7.521031 -1.828419 -2.778490
  C 9.003281 -1.813835 -2.985909
  H 0.652889 -0.093375 1.111339
  H 0.596483 -1.065919 -0.365737
  H 0.651927 0.685552 -0.470778
  H 3.027386 0.006557 0.981685
  H 2.713930 -0.730856 -1.963240
  H 5.175295 -0.302625 -0.144796
  H 4.875038 -1.024772 -3.104987
  H 7.359654 0.011772 -1.803790
  H 6.996832 -2.683635 -3.182137
  H 9.499465 -1.158130 -2.275747
  H 9.192963 -1.440715 -3.992585
  H 9.424792 -2.814116 -2.914381
 20
 8.553390
  C 1.024052 -0.189367 0.076445
  C 2.513242 -0.305414 0.051189
  C 3.230558 -0.454292 -1.062671
  C 4.669125 -0.542501 -1.087090
  C 5.387163 -0.677238 -2.201885
  C 6.854132 -0.749694 -2.283819
  C 7.524894 -1.846665 -2.600527
  C 8.974584 -1.866158 -2.977947
  H 0.642499 -0.261819 1.091570
  H 0.564167 -0.969918 -0.529191
  H 0.712573 0.771268 -0.335504
  H 3.020572 -0.252665 1.005717
  H 2.730182 -0.517589 -2.021078
  H 5.173188 -0.503062 -0.128982
  H 4.905245 -0.732600 -3.172609
  H 7.384183 0.189312 -2.165267
  H 6.992913 -2.783932 -2.703666
  H 9.548557 -1.137521 -2.410460
  H 9.029243 -1.596522 -4.032810
  H 9.409155 -2.853564 -2.854742
 20
 13.986128
  C 0.979441 -0.149496 -0.042303
  C 2.461581 -0.328444 0.035010
  C 3.259410 -0.398095 -1.028425
  C 4.689291 -0.567904 -0.952577
  C 5.479564 -0.702970 -2.018377
  C 6.945281 -0.797655 -2.068107
  C 7.602246 -1.894854 -2.426106
  C 8.910415 -1.859714 -3.156125
  H 0.512567 -0.333941 0.920278
  H 0.547416 -0.825761 -0.778793
  H 0.734689 0.866746 -0.348253
  H 2.890889 -0.420011 1.026451
  H 2.841785 -0.315848 -2.025739
  H 5.127022 -0.584832 0.037798
  H 5.092485 -0.710738 -3.030824
  H 7.474132 0.154215 -2.060810
  H 7.082257 -2.839853 -2.432539
  H 9.535026 -1.022765 -2.850868
  H 8.605771 -1.705836 -4.193832
  H 9.463894 -2.792232 -3.079492
 20
 23.479538
  C 0.970940 -0.088852 -0.188197
  C 2.435793 -0.322309 0.001314
  C 3.312541 -0.408794 -0.998906
  C 4.723186 -0.640876 -0.810747
  C 5.596641 -0.729076 -1.811018
  C 7.054725 -0.869399 -1.818221
  C 7.674495 -1.935453 -2.329229
  C 8.774151 -1.811590 -3.332804
  H 0.429309 -0.212446 0.745844
  H 0.560845 -0.779378 -0.926087
  H 0.793655 0.923671 -0.553277
  H 2.779534 -0.432282 1.023457
  H 2.970176 -0.337880 -2.025101
  H 5.066370 -0.750611 0.211824
  H 5.316404 -0.672315 -2.860458
  H 7.605351 0.069639 -1.771300
  H 7.139193 -2.877877 -2.343597
  H 9.481771 -1.024586 -3.087765
  H 8.183877 -1.501147 -4.201796
  H 9.283408 -2.741410 -3.558880
 20
 33.004630
  C 0.990845 -0.019224 -0.295992
  C 2.430796 -0.324024 -0.035224
  C 3.364157 -0.399928 -0.985897
  C 4.751254 -0.701700 -0.728599
  C 5.678634 -0.793265 -1.677390
  C 7.129745 -0.988825 -1.638790
  C 7.697144 -2.001579 -2.305975
  C 8.631516 -1.748714 -3.439622
  H 0.376940 -0.254855 0.569930
  H 0.624587 -0.585647 -1.152313
  H 0.860033 1.039042 -0.524395
  H 2.707228 -0.508945 0.994772
  H 3.089452 -0.250091 -2.022368
  H 5.036130 -0.827729 0.308412
  H 5.469678 -0.670346 -2.744046
  H 7.705156 -0.069990 -1.546502
  H 7.163243 -2.944688 -2.347908
  H 9.306511 -0.914796 -3.267674
  H 7.868516 -1.432243 -4.170415
  H 9.154579 -2.617174 -3.817011
 20
 47.404964
  C 1.034857 0.019466 -0.427253
  C 2.463928 -0.334921 -0.106900
  C 3.455790 -0.387301 -0.990938
  C 4.820408 -0.742535 -0.641733
  C 5.809371 -0.802761 -1.523631
  C 7.213216 -1.039464 -1.477779
  C 7.707350 -2.037783 -2.250186
  C 8.414002 -1.698417 -3.526719
  H 0.374992 -0.137049 0.433840
  H 0.663982 -0.585979 -1.261218
  H 0.960374 1.057773 -0.713784
  H 2.660955 -0.577028 0.939795
  H 3.254988 -0.217742 -2.043919
  H 5.023750 -0.979365 0.400116
  H 5.662164 -0.616305 -2.613764
  H 7.807256 -0.164140 -1.398804
  H 7.144592 -2.945132 -2.263267
  H 9.152348 -0.891067 -3.432821
  H 7.493240 -1.240711 -4.014165
  H 8.761763 -2.540672 -4.141560
 20
 63.771495
  C 1.106075 0.073517 -0.552293
  C 2.491846 -0.378676 -0.171126
  C 3.530348 -0.418237 -1.003486
  C 4.857990 -0.786601 -0.590457
  C 5.920861 -0.820835 -1.414113
  C 7.324013 -1.046538 -1.365563
  C 7.739905 -2.068267 -2.219033
  C 8.161282 -1.652466 -3.560233
  H 0.390639 -0.140995 0.244760
  H 0.766028 -0.433255 -1.489756
  H 1.088302 1.117272 -0.730405
  H 2.622345 -0.696913 0.850261
  H 3.393174 -0.191070 -2.047787
  H 4.986781 -1.038652 0.460036
  H 5.814221 -0.649085 -2.534632
  H 7.941102 -0.139443 -1.326747
  H 7.197321 -3.019752 -2.155085
  H 8.854440 -0.804974 -3.606503
  H 7.122132 -1.177679 -3.817161
  H 8.366060 -2.426788 -4.277144
 20
 79.017536
  C 1.142758 0.113966 -0.659674
  C 2.509987 -0.401868 -0.236346
  C 3.579450 -0.482946 -1.032047
  C 4.897780 -0.854314 -0.560664
  C 5.997463 -0.849794 -1.313642
  C 7.404952 -1.062272 -1.301215
  C 7.741467 -2.072819 -2.228755
  C 7.971722 -1.588919 -3.570876
  H 0.389622 -0.068445 0.120902
  H 0.817864 -0.363026 -1.604122
  H 1.169069 1.175221 -0.826430
  H 2.611450 -0.673456 0.820032
  H 3.497070 -0.250499 -2.057999
  H 4.990122 -1.075120 0.508305
  H 5.886992 -0.723948 -2.528866
  H 8.038634 -0.173905 -1.252249
  H 7.280812 -3.026459 -2.145976
  H 8.586606 -0.707457 -3.697608
  H 6.832172 -1.115445 -3.657995
  H 8.068561 -2.317824 -4.359517
 20
 90.047511
  C 1.204242 0.060151 -0.729723
  C 2.549903 -0.359638 -0.231684
  C 3.642098 -0.408516 -0.993785
  C 4.941914 -0.805925 -0.507633
  C 6.033997 -0.867089 -1.244968
  C 7.388865 -1.070670 -1.312366
  C 7.716937 -2.074853 -2.249230
  C 7.900289 -1.607115 -3.541711
  H 0.426406 -0.194394 -0.016018
  H 0.977490 -0.416596 -1.682034
  H 1.179033 1.138789 -0.888873
  H 2.618710 -0.625098 0.814469
  H 3.582378 -0.144938 -2.042921
  H 5.000966 -1.082027 0.539628
  H 5.825476 -0.678051 -2.706027
  H 8.006545 -0.173482 -1.320841
  H 7.226106 -3.034110 -2.130057
  H 8.436445 -0.679901 -3.694723
  H 6.467734 -1.008766 -3.582049
  H 7.978950 -2.305362 -4.362095
 20
 84.215018
  C 1.198754 0.070371 -0.749880
  C 2.541362 -0.349755 -0.227889
  C 3.649546 -0.399631 -0.974358
  C 4.926388 -0.805624 -0.470629
  C 6.035034 -0.850095 -1.177391
  C 7.363819 -1.010000 -1.335167
  C 7.743512 -2.037507 -2.277743
  C 7.938511 -1.637930 -3.570531
  H 0.409976 -0.206097 -0.053772
  H 0.990022 -0.401877 -1.707319
  H 1.168791 1.150820 -0.907048
  H 2.595108 -0.645829 0.814506
  H 3.625761 -0.120948 -2.013626
  H 4.969424 -1.104886 0.587845
  H 5.696882 -0.677078 -2.911467
  H 7.944621 -0.134692 -1.368295
  H 7.326705 -3.019917 -2.092637
  H 8.391745 -0.674537 -3.788143
  H 6.191011 -0.968549 -3.631632
  H 8.040128 -2.355065 -4.346794
 20
 72.957022
  C 1.181563 0.069027 -0.752630
  C 2.515025 -0.350643 -0.219290
  C 3.630066 -0.382472 -0.949599
  C 4.913032 -0.801793 -0.431963
  C 6.032256 -0.828867 -1.116491
  C 7.316728 -0.933524 -1.384747
  C 7.753724 -1.980329 -2.310467
  C 8.007228 -1.669867 -3.583305
  H 0.383978 -0.212327 -0.068559
  H 0.987783 -0.400310 -1.721176
  H 1.149896 1.144435 -0.901074
  H 2.549106 -0.668436 0.814379
  H 3.607962 -0.081168 -1.991877
  H 4.935331 -1.109826 0.609019
  H 5.531545 -0.728737 -3.121537
  H 7.903502 -0.016446 -1.411377
  H 7.424092 -2.985701 -2.064598
  H 8.363218 -0.688348 -3.861848
  H 5.983645 -0.990318 -3.767290
  H 8.173120 -2.436905 -4.318382
 20
 64.660317
  C 1.175959 0.074862 -0.768824
  C 2.497236 -0.357291 -0.211195
  C 3.624952 -0.398222 -0.919943
  C 4.901811 -0.801852 -0.367671
  C 6.030220 -0.809144 -1.030039
  C 7.262911 -0.854630 -1.456158
  C 7.728078 -1.920210 -2.351603
  C 8.087826 -1.679268 -3.605533
  H 0.361540 -0.213171 -0.109130
  H 1.004856 -0.370173 -1.747560
  H 1.150415 1.156931 -0.892442
  H 2.511903 -0.650485 0.830167
  H 3.620761 -0.100626 -1.962573
  H 4.896182 -1.125457 0.667187
  H 5.289798 -0.814479 -3.360055
  H 7.854915 0.056421 -1.455992
  H 7.492015 -2.932373 -2.037058
  H 8.310295 -0.680427 -3.949425
  H 5.739826 -1.083513 -3.947718
  H 8.338792 -2.474850 -4.283834
 20
 63.530541
  C 1.208675 0.108982 -0.813980
  C 2.492952 -0.392979 -0.230451
  C 3.655807 -0.393462 -0.885852
  C 4.903525 -0.843786 -0.305451
  C 6.053012 -0.859310 -0.922673
  C 7.312110 -0.869202 -1.416942
  C 7.779399 -1.938665 -2.362607
  C 8.103036 -1.644685 -3.642128
  H 0.390947 0.014334 -0.103339
  H 0.951533 -0.452162 -1.709108
  H 1.300699 1.168317 -1.102456
  H 2.448879 -0.786703 0.782121
  H 3.701634 -0.010209 -1.885642
  H 4.841910 -1.243767 0.712679
  H 5.124354 -0.802553 -3.367709
  H 7.912567 0.032050 -1.375959
  H 7.621526 -2.971247 -2.043021
  H 8.189304 -0.627259 -3.979710
  H 5.530937 -1.056148 -3.945461
  H 8.357485 -2.409504 -4.361711
