 23
 0.000000
  C 0.993551 0.115792 0.338479
  C 2.468792 0.128950 0.372828
  C 3.220402 0.606368 1.560484
  C 2.402664 1.085881 2.752930
  H 3.076357 1.403866 3.545002
  C 3.133795 -0.328699 -0.765311
  C 4.516239 -0.393425 -0.928292
  C 5.173337 -0.849944 -2.067840
  C 4.520917 -1.342911 -3.297259
  H 3.443473 -1.320891 -3.242845
  O 6.483813 -0.871637 -2.123667
  H 0.540679 0.482891 1.250583
  H 0.636826 -0.897665 0.147497
  H 0.637684 0.715278 -0.501036
  H 3.881097 1.420115 1.241908
  H 3.880826 -0.201569 1.893928
  H 1.774906 0.292223 3.151373
  H 1.775657 1.935032 2.491277
  H 2.509677 -0.657553 -1.583513
  H 5.143412 -0.065327 -0.111087
  H 4.858903 -2.359016 -3.496513
  H 4.859222 -0.746239 -4.143347
  H 6.932382 -0.549003 -1.319580
 23
 0.234792
  C 1.020754 0.072834 0.330367
  C 2.494475 0.113051 0.369585
  C 3.231653 0.599781 1.561389
  C 2.399822 1.046201 2.756673
  H 3.063407 1.381428 3.549786
  C 3.168832 -0.329236 -0.764079
  C 4.557100 -0.373082 -0.921282
  C 5.191949 -0.803817 -2.082788
  C 4.506747 -1.335027 -3.280971
  H 3.492642 -0.971451 -3.384135
  O 6.499189 -0.887285 -2.149587
  H 0.559039 0.407072 1.250675
  H 0.683405 -0.940981 0.109845
  H 0.656007 0.689820 -0.492642
  H 3.867600 1.436258 1.251678
  H 3.912867 -0.192898 1.889008
  H 1.799623 0.230074 3.151269
  H 1.746110 1.876174 2.500484
  H 2.552564 -0.684879 -1.576459
  H 5.147744 0.033586 -0.113443
  H 4.488251 -2.424353 -3.226129
  H 5.086111 -1.075022 -4.164575
  H 6.978238 -0.513328 -1.385778
 23
 3.836008
  C 1.048580 0.138528 0.281848
  C 2.521898 0.133056 0.357248
  C 3.241881 0.561453 1.582403
  C 2.390718 0.952831 2.780687
  H 3.041736 1.268336 3.591944
  C 3.208979 -0.293954 -0.772556
  C 4.599736 -0.288832 -0.934404
  C 5.182673 -0.693987 -2.129659
  C 4.481113 -1.431250 -3.208982
  H 3.579593 -0.926026 -3.540498
  O 6.491800 -0.809370 -2.220943
  H 0.574878 0.370275 1.224046
  H 0.688747 -0.827920 -0.072098
  H 0.722315 0.867526 -0.462265
  H 3.868691 1.420621 1.322330
  H 3.921054 -0.242719 1.883005
  H 1.798395 0.115396 3.140931
  H 1.730969 1.786104 2.547847
  H 2.603566 -0.639074 -1.599293
  H 5.128545 0.220518 -0.145210
  H 4.204597 -2.421307 -2.842619
  H 5.164380 -1.559385 -4.044832
  H 6.999659 -0.278301 -1.583323
 23
 22.561461
  C 1.050486 0.139536 0.295737
  C 2.524917 0.127710 0.372679
  C 3.234182 0.542347 1.602941
  C 2.381676 0.945051 2.798609
  H 3.027171 1.164265 3.645215
  C 3.214900 -0.224113 -0.780576
  C 4.627745 -0.287315 -0.923894
  C 5.095685 -0.598735 -2.199254
  C 4.496614 -1.466078 -3.235900
  H 3.567285 -1.071539 -3.647597
  O 6.423811 -0.870964 -2.209776
  H 0.583995 0.449405 1.220560
  H 0.676008 -0.848590 0.016854
  H 0.732089 0.807472 -0.492369
  H 3.895752 1.390777 1.359860
  H 3.903242 -0.272924 1.904109
  H 1.713858 0.135046 3.098331
  H 1.789823 1.834764 2.583744
  H 2.605186 -0.476464 -1.632576
  H 5.031038 0.317266 -0.128141
  H 4.286306 -2.440703 -2.783691
  H 5.214182 -1.598242 -4.034319
  H 6.963283 -0.304316 -1.640991
 23
 69.879216
  C 1.007411 0.224002 0.356037
  C 2.481838 0.234737 0.380698
  C 3.234163 0.610624 1.608615
  C 2.409314 0.963529 2.842584
  H 3.082538 1.194423 3.669455
  C 3.129748 -0.162188 -0.779765
  C 4.583723 -0.328042 -0.930341
  C 4.845287 -0.608410 -2.257539
  C 4.640546 -1.530884 -3.379624
  H 3.721534 -1.343520 -3.936371
  O 6.265030 -0.950209 -2.101239
  H 0.574234 0.564362 1.286998
  H 0.657663 -0.784878 0.137985
  H 0.622157 0.844852 -0.443564
  H 3.884046 1.459191 1.381113
  H 3.873247 -0.241257 1.871600
  H 1.786204 0.129191 3.148406
  H 1.785197 1.835899 2.673176
  H 2.516783 -0.448721 -1.619150
  H 4.816541 0.253225 -0.069572
  H 4.607282 -2.545032 -2.972595
  H 5.480456 -1.448999 -4.068687
  H 6.820389 -0.316150 -1.624643
 23
 111.092198
  C 1.017485 0.234146 0.367542
  C 2.492855 0.156363 0.404473
  C 3.247550 0.568851 1.619592
  C 2.408104 1.013635 2.826914
  H 3.074355 1.294633 3.643917
  C 3.107199 -0.260173 -0.724672
  C 4.631832 -0.351265 -0.920137
  C 4.703251 -0.721481 -2.203488
  C 4.671329 -1.509089 -3.418828
  H 3.685161 -1.498420 -3.885345
  O 6.273570 -0.956100 -2.105897
  H 0.617794 0.557118 1.320040
  H 0.610232 -0.750603 0.116033
  H 0.648972 0.921401 -0.392092
  H 3.898632 1.401048 1.340699
  H 3.888253 -0.262332 1.938795
  H 1.767739 0.214659 3.174122
  H 1.795522 1.878844 2.601544
  H 2.497730 -0.548954 -1.585643
  H 4.638008 0.194269 -0.038359
  H 4.934586 -2.533314 -3.163603
  H 5.378628 -1.123379 -4.139807
  H 6.820165 -0.314746 -1.604733
 23
 142.150982
  C 0.970016 0.188383 0.336534
  C 2.485079 0.150324 0.315114
  C 3.271793 0.561638 1.531252
  C 2.471447 0.996423 2.752536
  H 3.160856 1.242165 3.555078
  C 3.005017 -0.261638 -0.830049
  C 4.745721 -0.356418 -0.986825
  C 4.625297 -0.809549 -2.153060
  C 4.517546 -1.504190 -3.369735
  H 3.473505 -1.615224 -3.660585
  O 6.532449 -0.728220 -1.737189
  H 0.614332 0.499417 1.310907
  H 0.563238 -0.794629 0.113306
  H 0.603701 0.885203 -0.410127
  H 3.920586 1.400868 1.252457
  H 3.896802 -0.280547 1.834987
  H 1.834382 0.189871 3.115486
  H 1.864771 1.873015 2.549861
  H 2.466554 -0.549987 -1.707868
  H 4.734365 0.065353 -0.018368
  H 4.967667 -2.492274 -3.261093
  H 5.036886 -0.954149 -4.156264
  H 7.049203 -0.104899 -1.215925
 23
 142.807435
  C 1.003333 0.155318 0.297964
  C 2.516990 0.122303 0.282003
  C 3.299932 0.540548 1.493733
  C 2.498047 0.970521 2.715756
  H 3.189418 1.235768 3.512331
  C 3.024278 -0.289857 -0.864401
  C 4.815397 -0.360364 -0.983140
  C 4.581957 -0.795912 -2.134075
  C 4.374999 -1.470182 -3.348478
  H 3.316479 -1.567533 -3.588697
  O 6.606695 -0.642987 -1.540708
  H 0.646844 0.472131 1.270220
  H 0.596430 -0.828136 0.080192
  H 0.635185 0.847770 -0.452870
  H 3.939543 1.383991 1.211330
  H 3.934040 -0.297410 1.798114
  H 1.875403 0.158794 3.085483
  H 1.878017 1.837582 2.508594
  H 2.452362 -0.579952 -1.720600
  H 4.888117 0.095476 -0.027000
  H 4.809909 -2.468822 -3.281491
  H 4.851438 -0.917514 -4.159983
  H 7.086949 -0.004037 -1.001043
 23
 128.664627
  C 1.099474 0.204130 0.224207
  C 2.613404 0.110992 0.198634
  C 3.402707 0.515669 1.413154
  C 2.606450 0.975002 2.629161
  H 3.296872 1.189121 3.441904
  C 3.073500 -0.332724 -0.948545
  C 5.103092 -0.400489 -0.921282
  C 4.613032 -0.791906 -2.031991
  C 4.106832 -1.440213 -3.192622
  H 3.022819 -1.421438 -3.280474
  O 6.638352 -0.610260 -1.197269
  H 0.772865 0.639671 1.161785
  H 0.657515 -0.781960 0.129963
  H 0.740729 0.819755 -0.596175
  H 4.071563 1.334466 1.133576
  H 3.998197 -0.347617 1.725345
  H 1.924518 0.204820 2.976215
  H 2.052876 1.886250 2.422705
  H 2.437651 -0.586741 -1.771166
  H 5.173727 0.126309 -0.001456
  H 4.420254 -2.486472 -3.175782
  H 4.519818 -0.962532 -4.080850
  H 7.087798 0.052212 -0.662760
 23
 89.746060
  C 1.170591 0.193229 0.125409
  C 2.650325 0.048529 0.133459
  C 3.392551 0.428767 1.359454
  C 2.582611 0.876224 2.565893
  H 3.274488 1.076048 3.386338
  C 3.159022 -0.361707 -1.078658
  C 5.246802 -0.234845 -0.892778
  C 4.501020 -0.587919 -1.933846
  C 3.972838 -1.432126 -3.021827
  H 2.914453 -1.594132 -2.990519
  O 6.637250 -0.347277 -1.205331
  H 0.770679 0.419801 1.105523
  H 0.688206 -0.696872 -0.272693
  H 0.906898 1.014767 -0.546942
  H 4.114138 1.216352 1.113293
  H 3.995277 -0.428689 1.679202
  H 1.922299 0.088630 2.918837
  H 2.025976 1.787124 2.376515
  H 2.400593 -0.647151 -1.800394
  H 5.255825 0.285246 0.043374
  H 4.465668 -2.402485 -2.987848
  H 4.191942 -0.962769 -3.980684
  H 7.135492 0.245115 -0.619391
 23
 50.628576
  C 1.132462 0.119377 0.166026
  C 2.626042 0.144165 0.081190
  C 3.407039 0.441302 1.314729
  C 2.602715 0.890908 2.531926
  H 3.292702 1.167194 3.330942
  C 3.104876 -0.178242 -1.169162
  C 5.320892 -0.309798 -0.875244
  C 4.402957 -0.488135 -1.854912
  C 3.997087 -1.397208 -2.962857
  H 2.934498 -1.642330 -2.972951
  O 6.620600 -0.531403 -1.193974
  H 0.756051 0.390754 1.150472
  H 0.775269 -0.876772 -0.049876
  H 0.697933 0.788706 -0.578681
  H 4.015696 1.297991 1.059937
  H 3.989291 -0.445120 1.606337
  H 1.959032 0.101442 2.920716
  H 1.998812 1.756367 2.297056
  H 2.305936 -0.301106 -1.897259
  H 5.263270 0.223691 0.043197
  H 4.604738 -2.300328 -2.931302
  H 4.231145 -0.931360 -3.922730
  H 7.252984 -0.014648 -0.654028
 23
 21.958465
  C 1.019581 0.338066 0.126501
  C 2.495641 0.168369 0.063446
  C 3.308497 0.399872 1.285318
  C 2.572673 0.723068 2.581591
  H 3.291437 0.807808 3.390905
  C 2.967324 -0.183858 -1.188771
  C 5.345502 -0.205809 -0.990493
  C 4.249515 -0.483030 -1.772612
  C 4.138196 -1.543200 -2.821754
  H 3.205610 -2.083435 -2.763171
  O 6.563530 -0.504722 -1.417987
  H 0.668791 0.643117 1.107188
  H 0.524665 -0.595382 -0.124382
  H 0.697456 1.072549 -0.609816
  H 4.046442 1.184596 1.109190
  H 3.880176 -0.517711 1.468604
  H 1.864770 -0.059970 2.840461
  H 2.032077 1.663690 2.511315
  H 2.156361 -0.408504 -1.875263
  H 5.319621 0.468302 -0.153783
  H 4.973474 -2.236341 -2.724996
  H 4.224375 -1.108583 -3.822944
  H 7.279470 0.055930 -1.065382
 23
 9.956172
  C 0.956295 0.222913 0.208932
  C 2.428425 0.103645 0.113404
  C 3.282052 0.455885 1.274648
  C 2.577585 0.910007 2.549398
  H 3.327212 1.127803 3.307939
  C 2.901875 -0.361427 -1.103372
  C 5.367807 -0.421706 -0.927758
  C 4.186874 -0.621183 -1.628445
  C 4.231246 -1.348206 -2.932038
  H 3.398419 -2.036845 -3.022461
  O 6.525227 -0.659460 -1.493735
  H 0.615398 0.561631 1.179459
  H 0.487244 -0.735835 -0.014773
  H 0.594220 0.916517 -0.551399
  H 3.964505 1.253662 0.966455
  H 3.893012 -0.419163 1.522753
  H 1.927475 0.134287 2.947071
  H 1.999679 1.816711 2.388635
  H 2.117444 -0.535261 -1.831907
  H 5.380622 0.037659 0.049255
  H 5.168615 -1.890879 -3.029938
  H 4.177635 -0.645240 -3.764552
  H 7.292244 -0.270811 -1.035413
 23
 8.030513
  C 0.936652 0.175868 0.252850
  C 2.407602 0.071454 0.136975
  C 3.279974 0.460994 1.271799
  C 2.595019 0.938490 2.547963
  H 3.354086 1.197091 3.282216
  C 2.873547 -0.411784 -1.074526
  C 5.361146 -0.408682 -0.945340
  C 4.157951 -0.669268 -1.592890
  C 4.242931 -1.269377 -2.958155
  H 3.334535 -1.801737 -3.219426
  O 6.494876 -0.678753 -1.537996
  H 0.605656 0.519632 1.224109
  H 0.476911 -0.790654 0.043878
  H 0.554597 0.855895 -0.510247
  H 3.942936 1.261556 0.928294
  H 3.910126 -0.397506 1.524606
  H 1.969630 0.162019 2.980718
  H 1.992329 1.825621 2.372099
  H 2.086280 -0.651896 -1.779853
  H 5.388580 0.050532 0.031563
  H 5.093076 -1.944074 -3.024510
  H 4.401604 -0.483620 -3.697423
  H 7.288054 -0.393189 -1.047851
 23
 7.924346
  C 0.932935 0.116981 0.291208
  C 2.403292 0.050712 0.151606
  C 3.282890 0.465523 1.270536
  C 2.606249 0.969348 2.540960
  H 3.369937 1.256531 3.259709
  C 2.861532 -0.420778 -1.067750
  C 5.353438 -0.391778 -0.966509
  C 4.141504 -0.662732 -1.599464
  C 4.243576 -1.240829 -2.972093
  H 3.273677 -1.489969 -3.385350
  O 6.476538 -0.668652 -1.573751
  H 0.608499 0.460455 1.265275
  H 0.496835 -0.864223 0.097859
  H 0.519128 0.778897 -0.471528
  H 3.942953 1.258704 0.905903
  H 3.915693 -0.387713 1.536799
  H 1.994057 0.198327 3.002248
  H 1.991076 1.844623 2.346369
  H 2.068850 -0.669003 -1.761629
  H 5.386456 0.066365 0.010279
  H 4.865463 -2.133118 -2.952791
  H 4.739139 -0.534370 -3.635396
  H 7.277426 -0.401645 -1.085936
