17

C 1.007743 -0.071441 0.047808
C 2.504018 -0.08274 0.025627
C 3.219052 -0.595801 -0.981598
C 4.656596 -0.606023 -1.001662
C 5.377397 -1.121149 -2.01294
C 6.815813 -1.130689 -2.031665
C 7.534399 -1.642419 -3.036283
H 8.60396957776305 -1.6561778544728258 -3.0632917598236586
H 0.646092 0.394871 0.963251
H 0.611966 -1.086147 0.009302
H 0.611967 0.494015 -0.795616
H 3.004933 0.352541 0.88016
H 2.707455 -1.029099 -1.832224
H 5.160537 -0.171027 -0.147697
H 4.873498 -1.556078 -2.866779
H 7.322243 -0.696165 -1.178619
H 7.035903 -2.078732 -3.892825
