 14
 0.000000
  C 0.967196 0.145269 0.411984
  C 2.420621 0.102801 0.307391
  H 3.011008 0.440507 1.148922
  C 3.067978 -0.350027 -0.820543
  C 4.460697 -0.391927 -0.925630
  C 5.155031 -0.837898 -2.036958
  H 4.695538 -1.204063 -2.948287
  O 6.446385 -0.866339 -2.109214
  H 0.630049 0.529468 1.369172
  H 0.546990 -0.851340 0.254599
  H 0.547704 0.757052 -0.390710
  H 2.472424 -0.686749 -1.659046
  H 5.038445 -0.049850 -0.074639
  H 6.919859 -0.546127 -1.312592
 14
 0.157352
  C 0.964010 0.102241 0.397835
  C 2.422251 0.122314 0.313381
  H 2.978958 0.477374 1.166902
  C 3.108228 -0.296551 -0.805271
  C 4.503603 -0.278938 -0.889416
  C 5.137743 -0.768399 -2.013979
  H 4.584550 -1.041515 -2.904028
  O 6.401013 -1.010661 -2.142349
  H 0.593508 0.466722 1.347678
  H 0.591902 -0.907539 0.224053
  H 0.530192 0.682031 -0.417323
  H 2.532409 -0.641408 -1.648761
  H 5.077209 0.055656 -0.034325
  H 6.956010 -0.768445 -1.374928
 14
 5.419636
  C 0.970175 0.078620 0.402420
  C 2.440330 0.104895 0.320631
  H 2.977922 0.439917 1.178636
  C 3.126471 -0.276994 -0.823624
  C 4.524840 -0.191824 -0.885816
  C 5.105763 -0.735648 -2.009039
  H 4.624502 -1.007188 -2.943989
  O 6.361422 -1.089965 -2.139349
  H 0.589414 0.410399 1.356687
  H 0.614835 -0.925802 0.183540
  H 0.539173 0.691030 -0.397176
  H 2.512255 -0.590544 -1.643922
  H 5.082339 0.173817 -0.033200
  H 6.923162 -0.892104 -1.356350
 14
 12.085493
  C 0.977503 0.040491 0.378222
  C 2.424960 0.099676 0.339314
  H 2.959963 0.445259 1.214914
  C 3.180567 -0.258719 -0.785113
  C 4.556757 -0.109547 -0.878708
  C 5.067946 -0.733064 -1.991053
  H 4.644544 -0.993536 -2.961195
  O 6.304921 -1.153967 -2.147093
  H 0.568953 0.347336 1.342804
  H 0.619845 -0.960916 0.122095
  H 0.557259 0.681455 -0.402182
  H 2.526389 -0.561679 -1.591852
  H 5.124969 0.297772 -0.061814
  H 6.902168 -0.961978 -1.392507
 14
 13.893214
  C 0.978169 0.037874 0.343689
  C 2.434403 0.021241 0.370015
  H 2.939493 0.189494 1.310121
  C 3.198668 -0.179968 -0.770040
  C 4.591803 -0.028839 -0.876762
  C 5.075830 -0.688411 -1.968557
  H 4.612859 -0.827290 -2.948873
  O 6.247030 -1.262791 -2.140664
  H 0.549875 0.235219 1.323635
  H 0.594956 -0.903751 -0.039148
  H 0.615843 0.787330 -0.373893
  H 2.575549 -0.344167 -1.641967
  H 5.180488 0.364368 -0.065853
  H 6.857182 -1.235591 -1.370396
 14
 15.104402
  C 1.019789 0.005999 0.373644
  C 2.485743 -0.001349 0.302388
  H 3.039414 -0.003262 1.224465
  C 3.168983 -0.074132 -0.898434
  C 4.556734 0.077520 -0.996732
  C 5.106437 -0.693714 -2.004373
  H 4.697665 -0.761173 -3.010572
  O 6.204432 -1.379355 -1.954104
  H 0.661541 0.046237 1.402127
  H 0.620172 -0.903657 -0.075642
  H 0.602112 0.824103 -0.202514
  H 2.538098 -0.140708 -1.774419
  H 5.106857 0.515617 -0.180675
  H 6.686874 -1.360019 -1.097440
 14
 24.641668
  C 1.093794 -0.076580 0.368381
  C 2.553510 -0.028713 0.229681
  H 3.153913 -0.064862 1.130677
  C 3.180149 -0.007893 -0.991844
  C 4.568337 0.284213 -1.087925
  C 5.084958 -0.675500 -1.935963
  H 4.672670 -0.686378 -2.949184
  O 6.028841 -1.520823 -1.790107
  H 0.785779 -0.232611 1.394574
  H 0.672622 -0.853602 -0.267738
  H 0.655456 0.853813 0.004125
  H 2.553143 -0.045213 -1.872741
  H 5.076464 0.742670 -0.252624
  H 6.463309 -1.555160 -0.915214
 14
 36.018676
  C 1.128571 -0.106595 0.309221
  C 2.595195 -0.126298 0.192673
  H 3.174117 -0.313742 1.083778
  C 3.238817 0.004608 -1.011667
  C 4.614165 0.408873 -1.078162
  C 5.011339 -0.688346 -1.850653
  H 4.616796 -0.722423 -2.869924
  O 5.877544 -1.616033 -1.680831
  H 0.794496 -0.403761 1.291298
  H 0.647917 -0.725426 -0.459699
  H 0.778383 0.901776 0.114514
  H 2.610187 0.149887 -1.878156
  H 5.113753 0.948456 -0.284291
  H 6.390568 -1.604260 -0.849727
 14
 45.845056
  C 1.255035 -0.183882 0.267266
  C 2.708223 -0.198663 0.104357
  H 3.316100 -0.369146 0.980582
  C 3.319876 0.029699 -1.121415
  C 4.679724 0.585011 -1.094693
  C 4.867011 -0.611562 -1.788555
  H 4.638106 -0.605225 -2.854832
  O 5.595101 -1.659831 -1.500726
  H 0.955586 -0.407450 1.284295
  H 0.775604 -0.878065 -0.427178
  H 0.861076 0.799401 -0.009276
  H 2.664278 0.173436 -1.967253
  H 5.146203 1.141541 -0.307174
  H 5.889110 -1.727281 -0.574298
 14
 53.395042
  C 1.332744 -0.200444 0.264935
  C 2.772772 -0.203469 0.064833
  H 3.399248 -0.365384 0.934722
  C 3.363033 -0.033623 -1.195418
  C 4.686210 0.669501 -1.146620
  C 4.783478 -0.607103 -1.725593
  H 4.677159 -0.591767 -2.815953
  O 5.497387 -1.692877 -1.403043
  H 1.056617 -0.412697 1.291549
  H 0.841645 -0.901214 -0.412669
  H 0.918792 0.774912 -0.012995
  H 2.661374 0.088216 -2.010286
  H 5.070386 1.367357 -0.437618
  H 5.757534 -1.746790 -0.469484
