 21
 0.000000
  C 0.913639 0.025190 0.330441
  C 2.394279 0.070526 0.068357
  C 3.257439 0.009436 1.307830
  H 2.670942 -0.093297 2.216934
  C 2.969270 0.145030 -1.133214
  C 2.356853 0.193341 -2.512438
  C 0.846593 0.250526 -2.718048
  C 0.520639 0.300335 -4.208289
  H 4.052319 0.150324 -1.181025
  H 0.714531 -0.034312 1.398058
  H 0.459118 -0.845716 -0.132650
  H 0.418437 0.916688 -0.042776
  H 3.858472 0.911300 1.398610
  H 3.942825 -0.836957 1.251043
  H 2.733769 -0.683833 -3.055147
  H 2.790059 1.067259 -3.016929
  H 0.433522 1.139391 -2.243339
  H 0.369611 -0.628860 -2.289951
  H 0.965188 1.179271 -4.671133
  H -0.555793 0.342331 -4.360249
  H 0.902840 -0.583231 -4.715750
 21
 -0.765544
  C 0.901706 -0.137895 0.348464
  C 2.367922 0.052203 0.070425
  C 3.259936 0.098740 1.288729
  H 2.680262 0.212023 2.200640
  C 2.929217 0.151152 -1.130466
  C 2.362538 0.138179 -2.522672
  C 0.861633 0.323293 -2.724914
  C 0.523104 0.360900 -4.211795
  H 4.010839 0.240423 -1.151217
  H 0.723866 -0.220153 1.417897
  H 0.533195 -1.048415 -0.119986
  H 0.315533 0.698270 -0.024919
  H 3.958159 0.930754 1.225692
  H 3.842045 -0.819214 1.370506
  H 2.665821 -0.804970 -2.994518
  H 2.873320 0.933784 -3.077370
  H 0.543500 1.260096 -2.264963
  H 0.311474 -0.493749 -2.261344
  H 1.041100 1.181745 -4.703867
  H -0.546448 0.495749 -4.356789
  H 0.819687 -0.567864 -4.695192
 21
 -1.436762
  C 0.928586 -0.264195 0.338973
  C 2.377343 0.028682 0.061447
  C 3.244033 0.165552 1.287753
  H 2.665508 0.552218 2.124243
  C 2.936263 0.158999 -1.136934
  C 2.364893 0.107807 -2.526948
  C 0.873322 0.370587 -2.717176
  C 0.518779 0.406433 -4.200318
  H 4.012804 0.292738 -1.158022
  H 0.767545 -0.387578 1.407220
  H 0.619477 -1.183651 -0.155013
  H 0.285143 0.541336 -0.007274
  H 4.064036 0.853256 1.098948
  H 3.657799 -0.799265 1.580644
  H 2.610413 -0.869014 -2.962212
  H 2.910486 0.851854 -3.117514
  H 0.613518 1.329245 -2.264140
  H 0.284612 -0.408162 -2.235777
  H 1.073469 1.191946 -4.709999
  H -0.543875 0.595782 -4.335084
  H 0.760457 -0.543191 -4.673790
 21
 -1.519485
  C 0.968621 -0.394397 0.316150
  C 2.396333 -0.009141 0.043663
  C 3.209738 0.246499 1.281648
  H 2.659315 0.912419 1.946641
  C 2.964190 0.132470 -1.151429
  C 2.363548 0.063426 -2.530326
  C 0.886255 0.411293 -2.695942
  C 0.509532 0.467664 -4.172990
  H 4.038592 0.270593 -1.180396
  H 0.831580 -0.570648 1.380745
  H 0.710974 -1.308289 -0.215525
  H 0.272586 0.385336 0.014413
  H 4.133606 0.745427 1.009510
  H 3.421554 -0.672792 1.824984
  H 2.543132 -0.935794 -2.946515
  H 2.935908 0.761307 -3.150935
  H 0.691208 1.383199 -2.238062
  H 0.260405 -0.331316 -2.205473
  H 1.099694 1.219679 -4.693226
  H -0.542584 0.717878 -4.290007
  H 0.688123 -0.494472 -4.649132
 21
 0.472200
  C 1.008942 -0.491894 0.286257
  C 2.412813 -0.024304 0.022460
  C 3.170709 0.344647 1.265820
  H 2.687594 1.221389 1.707821
  C 3.001472 0.079659 -1.168572
  C 2.359174 -0.002265 -2.530639
  C 0.897409 0.429022 -2.665152
  C 0.503796 0.545514 -4.135998
  H 4.083100 0.107901 -1.204316
  H 0.906909 -0.749968 1.337913
  H 0.786545 -1.374677 -0.307906
  H 0.264940 0.271726 0.062282
  H 4.171760 0.650469 0.998106
  H 3.181366 -0.448070 2.013173
  H 2.474766 -1.018198 -2.933474
  H 2.949645 0.654716 -3.181590
  H 0.760565 1.396495 -2.175893
  H 0.236618 -0.292617 -2.187779
  H 1.126117 1.279080 -4.645999
  H -0.535847 0.854687 -4.230463
  H 0.623441 -0.412231 -4.639952
 21
 9.339923
  C 1.005916 -0.609249 0.308330
  C 2.371042 -0.044520 0.032779
  C 3.159798 0.376932 1.242785
  H 2.739292 1.331496 1.579027
  C 2.981207 0.088843 -1.148541
  C 2.362290 0.029076 -2.523680
  C 0.935474 0.550238 -2.672017
  C 0.511871 0.574439 -4.138006
  H 4.039097 -0.128454 -1.182528
  H 0.898611 -0.775668 1.378478
  H 0.893232 -1.559368 -0.212602
  H 0.189109 0.044896 -0.000209
  H 4.142331 0.654903 0.885355
  H 3.137521 -0.312066 2.081072
  H 2.384789 -1.010991 -2.880259
  H 3.010679 0.607488 -3.187802
  H 0.882537 1.564675 -2.267174
  H 0.238958 -0.070732 -2.112437
  H 1.191921 1.187509 -4.726236
  H -0.493227 0.978824 -4.239826
  H 0.516878 -0.432884 -4.552901
 21
 25.346363
  C 0.960385 -0.664964 0.323802
  C 2.311112 -0.085283 0.040492
  C 3.107854 0.505182 1.176819
  H 2.846824 1.547702 1.353524
  C 2.985787 -0.041200 -1.127246
  C 2.371871 -0.057219 -2.506914
  C 0.973471 0.526157 -2.628540
  C 0.561494 0.666699 -4.086643
  H 3.988019 -0.446199 -1.144192
  H 0.854367 -0.804761 1.396879
  H 0.865694 -1.624360 -0.182447
  H 0.127638 -0.031909 -0.001800
  H 4.044139 0.686440 0.614515
  H 3.128266 -0.070195 2.092486
  H 2.380908 -1.069283 -2.930648
  H 3.037771 0.542686 -3.135074
  H 0.941011 1.505711 -2.138720
  H 0.259780 -0.122184 -2.126567
  H 1.186647 1.396361 -4.595057
  H -0.471781 0.993410 -4.163490
  H 0.663777 -0.287258 -4.604849
 21
 57.223858
  C 0.960307 -0.857940 0.409008
  C 2.242110 -0.155916 0.110360
  C 3.040913 0.590464 1.097236
  H 2.903249 1.672452 1.137168
  C 2.950936 -0.063093 -1.072272
  C 2.385130 -0.057399 -2.480924
  C 1.016039 0.601824 -2.620431
  C 0.614035 0.752102 -4.082714
  H 3.900640 -0.586041 -1.078431
  H 0.841257 -0.945451 1.487044
  H 0.955657 -1.849005 -0.040756
  H 0.090434 -0.316502 0.030964
  H 3.829013 0.786249 0.178749
  H 3.145416 0.169197 2.090794
  H 2.329365 -1.083039 -2.869843
  H 3.096769 0.479307 -3.114227
  H 1.035926 1.585415 -2.143780
  H 0.266583 -0.000305 -2.108604
  H 1.308577 1.404672 -4.608585
  H -0.384889 1.174433 -4.164781
  H 0.618025 -0.216792 -4.580109
 21
 73.809932
  C 0.991166 -0.957284 0.448380
  C 2.229538 -0.184994 0.153190
  C 2.934889 0.636283 1.065353
  H 2.832252 1.709313 0.980781
  C 2.973471 -0.090053 -1.052534
  C 2.396154 -0.074757 -2.456669
  C 1.061284 0.653792 -2.582076
  C 0.640348 0.802329 -4.039665
  H 3.919114 -0.626363 -1.055376
  H 0.874690 -1.056483 1.526806
  H 1.018648 -1.948717 -0.004148
  H 0.108830 -0.439623 0.068834
  H 3.737151 0.796588 -0.162011
  H 3.005715 0.339767 2.115134
  H 2.290182 -1.099127 -2.828885
  H 3.123243 0.422869 -3.105466
  H 1.149377 1.642389 -2.124887
  H 0.288072 0.104852 -2.044303
  H 1.362892 1.402999 -4.589212
  H -0.331921 1.286001 -4.111452
  H 0.573837 -0.172618 -4.517671
 21
 50.961835
  C 1.061732 -1.070678 0.473797
  C 2.224094 -0.181305 0.212040
  C 2.805594 0.666490 1.098337
  H 2.848834 1.717297 0.903794
  C 2.979626 -0.043314 -1.056443
  C 2.384015 -0.077796 -2.450056
  C 1.082395 0.707296 -2.581372
  C 0.655094 0.852659 -4.031812
  H 3.901384 -0.654527 -1.071942
  H 0.882658 -1.154185 1.543010
  H 1.197359 -2.066408 0.049220
  H 0.180032 -0.640566 0.011088
  H 3.670479 0.745987 -0.543000
  H 2.794823 0.498892 2.179513
  H 2.181542 -1.118426 -2.703204
  H 3.111649 0.313785 -3.162478
  H 1.247624 1.703926 -2.159016
  H 0.298003 0.233552 -2.003782
  H 1.409344 1.393823 -4.600946
  H -0.281277 1.399169 -4.104783
  H 0.525522 -0.121879 -4.490523
 21
 27.284522
  C 1.122698 -1.108632 0.413839
  C 2.255043 -0.172311 0.191428
  C 2.665632 0.760260 1.071536
  H 2.773257 1.794855 0.804655
  C 3.057404 -0.136722 -1.075875
  C 2.398320 -0.122767 -2.434149
  C 1.135985 0.738647 -2.507305
  C 0.648392 0.884971 -3.943711
  H 3.876448 -0.863124 -1.023883
  H 0.921237 -1.217544 1.477715
  H 1.296512 -2.091222 -0.017558
  H 0.236155 -0.676211 -0.042374
  H 3.674622 0.758297 -0.793084
  H 2.527073 0.637995 2.143479
  H 2.190106 -1.134754 -2.785843
  H 3.122050 0.307158 -3.137796
  H 1.350010 1.727054 -2.092230
  H 0.346961 0.281558 -1.903203
  H 1.357755 1.455855 -4.537240
  H -0.312806 1.395845 -3.971855
  H 0.527613 -0.091844 -4.404272
 21
 10.831855
  C 1.192347 -1.158216 0.391503
  C 2.259030 -0.128960 0.216321
  C 2.606592 0.758448 1.146009
  H 2.886349 1.766128 0.894110
  C 3.047199 -0.048571 -1.060021
  C 2.370062 -0.104712 -2.422929
  C 1.151265 0.810941 -2.538848
  C 0.629265 0.867663 -3.970418
  H 3.813382 -0.837414 -1.012123
  H 0.903852 -1.239640 1.437108
  H 1.496614 -2.139361 0.028442
  H 0.320189 -0.847082 -0.178165
  H 3.683853 0.829672 -0.880449
  H 2.354701 0.648561 2.193176
  H 2.081289 -1.133856 -2.649013
  H 3.101021 0.202507 -3.175927
  H 1.427976 1.816168 -2.212215
  H 0.353861 0.459386 -1.882584
  H 1.384556 1.278423 -4.636907
  H -0.258191 1.494553 -4.030949
  H 0.369502 -0.128411 -4.322236
 21
 -0.198290
  C 1.242893 -1.196856 0.317727
  C 2.254120 -0.099330 0.197166
  C 2.475689 0.777838 1.165126
  H 2.995880 1.706517 1.004642
  C 3.081882 -0.041146 -1.055575
  C 2.358735 -0.120143 -2.398091
  C 1.210184 0.880119 -2.518164
  C 0.610678 0.878028 -3.919451
  H 3.817829 -0.853120 -0.992477
  H 0.823796 -1.226593 1.320566
  H 1.680666 -2.168791 0.089309
  H 0.432764 -1.025494 -0.387614
  H 3.683570 0.868779 -0.986834
  H 2.035551 0.667117 2.144210
  H 1.992798 -1.134965 -2.567669
  H 3.083473 0.099833 -3.186549
  H 1.584371 1.879141 -2.282985
  H 0.428512 0.646057 -1.794656
  H 1.359045 1.160362 -4.657032
  H -0.216394 1.581454 -3.984047
  H 0.238670 -0.112580 -4.173718
 21
 -3.930986
  C 1.383442 -1.312294 0.345901
  C 2.241508 -0.097319 0.162185
  C 2.280005 0.870107 1.062782
  H 2.900385 1.742208 0.947879
  C 3.100317 -0.072560 -1.072970
  C 2.307771 -0.161206 -2.380243
  C 1.290761 0.969590 -2.511324
  C 0.592628 0.947812 -3.865354
  H 3.796336 -0.915974 -1.024011
  H 0.842755 -1.266218 1.287553
  H 1.999598 -2.211154 0.339855
  H 0.659873 -1.401068 -0.462481
  H 3.689869 0.845137 -1.079650
  H 1.680937 0.825927 1.957375
  H 1.797835 -1.124182 -2.443040
  H 3.008448 -0.108028 -3.217376
  H 1.802158 1.925698 -2.380139
  H 0.547587 0.886610 -1.715712
  H 1.304456 1.134923 -4.666456
  H -0.182032 1.709671 -3.910272
  H 0.130076 -0.021456 -4.040616
