 22
 0.000000
  C 0.974741 0.181506 0.503957
  C 2.428011 0.125301 0.362845
  H 3.059635 0.452335 1.175851
  C 2.993917 -0.342301 -0.801205
  C 4.381824 -0.420731 -0.997349
  C 5.069869 -0.864544 -2.103552
  C 4.617278 -1.383862 -3.398086
  C 3.141586 -1.520902 -3.740989
  C 2.969322 -2.085828 -5.149462
  H 6.151014 -0.844711 -2.053999
  H 0.654633 0.568380 1.466597
  H 0.547269 -0.813974 0.364688
  H 0.546557 0.803278 -0.285462
  H 2.325499 -0.657800 -1.585982
  H 4.983532 -0.084845 -0.160585
  H 5.097284 -2.365689 -3.516773
  H 5.097915 -0.756759 -4.162403
  H 2.653027 -0.545981 -3.701510
  H 2.652414 -2.197951 -3.038828
  H 3.423701 -1.433633 -5.891689
  H 1.913468 -2.181622 -5.389331
  H 3.423111 -3.070428 -5.235123
 22
 -0.297724
  C 0.977492 0.204286 0.575718
  C 2.412760 0.084960 0.364551
  H 3.076258 0.310595 1.187626
  C 2.958483 -0.307500 -0.839354
  C 4.343883 -0.413909 -1.013407
  C 5.041665 -0.822365 -2.126703
  C 4.619902 -1.361908 -3.412659
  C 3.150460 -1.521896 -3.773753
  C 2.999995 -2.138091 -5.163727
  H 6.120660 -0.770959 -2.031088
  H 0.727516 0.518796 1.580241
  H 0.483169 -0.743620 0.353641
  H 0.549145 0.901880 -0.146262
  H 2.291904 -0.523605 -1.658412
  H 4.939801 -0.147640 -0.150687
  H 5.123772 -2.338309 -3.512514
  H 5.123632 -0.762438 -4.187910
  H 2.657658 -0.548583 -3.773007
  H 2.655640 -2.172795 -3.050160
  H 3.464820 -1.512735 -5.921931
  H 1.949479 -2.245995 -5.417904
  H 3.456860 -3.123550 -5.207225
 22
 1.604028
  C 0.981315 0.196873 0.574250
  C 2.416570 0.068986 0.380078
  H 3.073928 0.254136 1.220999
  C 2.962125 -0.278658 -0.841875
  C 4.339048 -0.393018 -0.996507
  C 5.037136 -0.790573 -2.125698
  C 4.611410 -1.350765 -3.413166
  C 3.138492 -1.522163 -3.782020
  C 2.999128 -2.158769 -5.157978
  H 6.117074 -0.750604 -2.059920
  H 0.724004 0.472813 1.583672
  H 0.481419 -0.728234 0.297289
  H 0.578724 0.930850 -0.121496
  H 2.291037 -0.438804 -1.670120
  H 4.982831 -0.189255 -0.147030
  H 5.119600 -2.328059 -3.493511
  H 5.113675 -0.754723 -4.193232
  H 2.650300 -0.542497 -3.786007
  H 2.654894 -2.159652 -3.042585
  H 3.478609 -1.548710 -5.922785
  H 1.949274 -2.277030 -5.420539
  H 3.468977 -3.139650 -5.186942
 22
 2.675221
  C 0.972281 0.187082 0.598220
  C 2.415775 0.023379 0.369988
  H 3.073435 0.195668 1.221104
  C 2.942063 -0.283285 -0.857042
  C 4.318148 -0.405270 -1.028491
  C 5.038416 -0.759619 -2.157551
  C 4.640201 -1.346355 -3.434833
  C 3.172207 -1.504072 -3.786025
  C 3.006972 -2.175767 -5.139170
  H 6.113691 -0.688892 -2.081762
  H 0.731588 0.463759 1.626820
  H 0.434575 -0.728987 0.322714
  H 0.580695 0.956349 -0.076679
  H 2.263639 -0.360073 -1.689948
  H 4.963118 -0.233310 -0.164458
  H 5.144695 -2.324951 -3.491362
  H 5.147505 -0.767831 -4.227069
  H 2.704796 -0.516692 -3.813060
  H 2.682324 -2.108263 -3.021804
  H 3.499372 -1.605336 -5.921901
  H 1.954466 -2.263377 -5.398675
  H 3.436561 -3.174455 -5.135605
 22
 3.915475
  C 0.969863 0.216550 0.633269
  C 2.398311 0.049149 0.397521
  H 3.085475 0.132660 1.227954
  C 2.933829 -0.210083 -0.846732
  C 4.300909 -0.375059 -1.024702
  C 4.995867 -0.755591 -2.150835
  C 4.640628 -1.366079 -3.436779
  C 3.189738 -1.555145 -3.793562
  C 3.043582 -2.202295 -5.177659
  H 6.073189 -0.678811 -2.078888
  H 0.743966 0.419183 1.668326
  H 0.417782 -0.667481 0.317483
  H 0.576797 1.031174 0.024796
  H 2.254176 -0.239441 -1.680409
  H 5.006494 -0.277248 -0.193564
  H 5.168382 -2.330772 -3.502257
  H 5.120690 -0.741664 -4.210855
  H 2.683984 -0.590282 -3.807338
  H 2.705416 -2.197493 -3.049847
  H 3.498040 -1.578063 -5.937491
  H 1.982043 -2.320623 -5.440846
  H 3.527260 -3.177215 -5.209437
 22
 5.223109
  C 0.974983 0.207327 0.674991
  C 2.400961 0.020465 0.415299
  H 3.082826 -0.029417 1.249203
  C 2.920284 -0.142301 -0.849424
  C 4.284546 -0.335002 -1.045777
  C 4.972701 -0.709396 -2.164518
  C 4.644095 -1.346371 -3.443004
  C 3.183241 -1.548901 -3.833127
  C 3.064185 -2.256385 -5.178793
  H 6.056378 -0.615780 -2.090671
  H 0.750322 0.333282 1.745603
  H 0.407422 -0.626249 0.279683
  H 0.592515 1.082630 0.110277
  H 2.245492 -0.068157 -1.682236
  H 5.007804 -0.324116 -0.212443
  H 5.186651 -2.302120 -3.474374
  H 5.164853 -0.751149 -4.217015
  H 2.687117 -0.581211 -3.899871
  H 2.677582 -2.136037 -3.067246
  H 3.542909 -1.666342 -5.971800
  H 2.021074 -2.383554 -5.454140
  H 3.533578 -3.233270 -5.154382
 22
 5.763042
  C 0.969366 0.169087 0.608140
  C 2.400227 -0.036208 0.393464
  H 3.021629 -0.198000 1.260498
  C 2.970760 -0.055110 -0.860972
  C 4.329665 -0.303219 -1.050292
  C 5.015899 -0.660066 -2.189876
  C 4.666361 -1.312058 -3.462457
  C 3.188750 -1.526882 -3.783216
  C 3.018179 -2.259601 -5.109673
  H 6.099779 -0.552878 -2.126394
  H 0.719940 0.228982 1.651096
  H 0.394378 -0.638080 0.137486
  H 0.638933 1.084983 0.091641
  H 2.359337 0.140825 -1.731819
  H 5.004378 -0.438596 -0.198954
  H 5.205044 -2.258462 -3.483606
  H 5.139562 -0.730811 -4.259184
  H 2.680750 -0.568900 -3.832253
  H 2.713364 -2.122538 -2.994234
  H 3.487142 -1.712318 -5.933501
  H 1.978947 -2.422171 -5.324723
  H 3.491439 -3.245308 -5.060055
 22
 7.857913
  C 0.973044 0.161684 0.582480
  C 2.409565 -0.053172 0.371698
  H 3.021024 -0.276667 1.245648
  C 2.984761 -0.011823 -0.871231
  C 4.334111 -0.271722 -1.063571
  C 5.033336 -0.642339 -2.211005
  C 4.679371 -1.340550 -3.449371
  C 3.205156 -1.556318 -3.746295
  C 3.016596 -2.275596 -5.081596
  H 6.101003 -0.433583 -2.176375
  H 0.697648 0.139290 1.630519
  H 0.388129 -0.588902 0.048272
  H 0.658842 1.112565 0.145431
  H 2.381404 0.235600 -1.729991
  H 4.979630 -0.515363 -0.211323
  H 5.247967 -2.269413 -3.486120
  H 5.120976 -0.739767 -4.260014
  H 2.694464 -0.595747 -3.775818
  H 2.758545 -2.155783 -2.951013
  H 3.443561 -1.700997 -5.888178
  H 1.971733 -2.414414 -5.288018
  H 3.493128 -3.249791 -5.071404
 22
 11.658479
  C 0.970779 0.202848 0.570979
  C 2.388944 -0.093553 0.349990
  H 2.958013 -0.511475 1.178302
  C 2.990622 0.054830 -0.871863
  C 4.320566 -0.275734 -1.085823
  C 5.039757 -0.595417 -2.231716
  C 4.695962 -1.265290 -3.479036
  C 3.235575 -1.625464 -3.698008
  C 3.033949 -2.332927 -5.042392
  H 6.106815 -0.377200 -2.160168
  H 0.658149 -0.003579 1.588744
  H 0.338167 -0.374548 -0.118559
  H 0.756542 1.242722 0.331969
  H 2.440991 0.524113 -1.677262
  H 4.906549 -0.749048 -0.291877
  H 5.324496 -2.165339 -3.532641
  H 5.054571 -0.634294 -4.306171
  H 2.629187 -0.718732 -3.682081
  H 2.889459 -2.271087 -2.890986
  H 3.355017 -1.687211 -5.870786
  H 1.991573 -2.576627 -5.188268
  H 3.611575 -3.260658 -5.086479
 22
 18.616193
  C 0.965170 0.181021 0.554946
  C 2.340475 -0.239511 0.266686
  H 2.867927 -0.812670 1.013425
  C 2.977963 0.099214 -0.893544
  C 4.293117 -0.227555 -1.165211
  C 5.099781 -0.535899 -2.241747
  C 4.735681 -1.254507 -3.470216
  C 3.256739 -1.590409 -3.652216
  C 3.034931 -2.351528 -4.953797
  H 6.153924 -0.288153 -2.168930
  H 0.653849 -0.098715 1.557534
  H 0.267785 -0.284055 -0.147663
  H 0.851891 1.255748 0.403209
  H 2.452478 0.703420 -1.623796
  H 4.924900 -0.789412 -0.458515
  H 5.336157 -2.177925 -3.493914
  H 5.090209 -0.653335 -4.315816
  H 2.666692 -0.678278 -3.673202
  H 2.910461 -2.203729 -2.820617
  H 3.347548 -1.755082 -5.813140
  H 1.979796 -2.591041 -5.076564
  H 3.592706 -3.286617 -4.960829
 22
 26.867617
  C 0.956820 0.212885 0.605798
  C 2.299962 -0.274917 0.257337
  H 2.737494 -1.043824 0.874472
  C 2.982737 0.193634 -0.834325
  C 4.236572 -0.204302 -1.209540
  C 5.068946 -0.517076 -2.252898
  C 4.752300 -1.252649 -3.485523
  C 3.288248 -1.653681 -3.654957
  C 3.084884 -2.427586 -4.954369
  H 6.107810 -0.204926 -2.181411
  H 0.590494 -0.229099 1.526292
  H 0.243205 -0.012827 -0.193639
  H 0.955623 1.302358 0.703938
  H 2.532094 0.976978 -1.435238
  H 4.872687 -0.930941 -0.634427
  H 5.399664 -2.131840 -3.541504
  H 5.059720 -0.607851 -4.320299
  H 2.661167 -0.763940 -3.666159
  H 2.974717 -2.276367 -2.816530
  H 3.370692 -1.825573 -5.815937
  H 2.038191 -2.707646 -5.071698
  H 3.680418 -3.340669 -4.961912
 22
 35.588757
  C 0.957737 0.263780 0.715372
  C 2.258152 -0.276376 0.282438
  H 2.677728 -1.103664 0.834090
  C 2.919043 0.214939 -0.822586
  C 4.125406 -0.184425 -1.292573
  C 5.052661 -0.536325 -2.232296
  C 4.779430 -1.288310 -3.483636
  C 3.323107 -1.698457 -3.684519
  C 3.152424 -2.459611 -4.994580
  H 6.082294 -0.195418 -2.137210
  H 0.610322 -0.210865 1.627301
  H 0.203075 0.119158 -0.060529
  H 1.022028 1.341320 0.874231
  H 2.481128 1.054311 -1.352809
  H 4.848622 -1.022963 -0.880036
  H 5.427502 -2.166954 -3.529450
  H 5.099904 -0.629186 -4.298019
  H 2.688893 -0.811876 -3.699943
  H 2.996313 -2.332996 -2.859003
  H 3.455102 -1.848356 -5.841586
  H 2.112718 -2.741569 -5.138265
  H 3.750719 -3.367919 -4.998006
