 19
 0.000000
  C 0.954344 0.149349 0.462868
  C 2.411280 0.117968 0.357736
  H 3.019477 0.455754 1.184344
  C 3.010992 -0.347075 -0.793406
  C 4.400026 -0.416487 -0.965816
  C 5.075980 -0.863469 -2.078390
  C 4.614767 -1.375736 -3.372233
  C 3.142864 -1.504535 -3.718979
  H 3.050832 -1.901679 -4.724617
  H 6.157178 -0.853039 -2.028623
  H 0.597448 0.533050 1.412380
  H 0.562898 -0.858135 0.299580
  H 0.535696 0.746327 -0.351383
  H 2.361443 -0.672009 -1.589159
  H 5.009174 -0.082780 -0.134634
  H 5.099224 -2.355188 -3.496676
  H 5.108668 -0.753712 -4.133019
  H 2.646540 -0.537127 -3.697166
  H 2.637378 -2.190922 -3.043695
 19
 0.798180
  C 0.978936 0.013163 0.602167
  C 2.386696 0.217116 0.283211
  H 3.033908 0.630730 1.045818
  C 2.938542 -0.184135 -0.910686
  C 4.331357 -0.263602 -1.069101
  C 5.027780 -0.941225 -2.044438
  C 4.618816 -1.510824 -3.325709
  C 3.205351 -1.336605 -3.849293
  H 3.152475 -1.716204 -4.866852
  H 6.084139 -1.079572 -1.843554
  H 0.685341 0.490444 1.530588
  H 0.813074 -1.066091 0.694514
  H 0.330476 0.324337 -0.218193
  H 2.281225 -0.535242 -1.689075
  H 4.919926 0.132698 -0.249630
  H 4.880344 -2.579308 -3.304003
  H 5.330938 -1.113404 -4.066035
  H 2.916444 -0.288715 -3.866667
  H 2.490389 -1.901085 -3.256878
 19
 5.610226
  C 1.068368 -0.156864 0.589395
  C 2.400730 0.322711 0.235958
  H 3.028948 0.736254 1.014772
  C 2.946244 0.065981 -1.000716
  C 4.334947 -0.116805 -1.115572
  C 4.942636 -1.013132 -1.963473
  C 4.532994 -1.596060 -3.240430
  C 3.202433 -1.235426 -3.874493
  H 3.149185 -1.676955 -4.866594
  H 5.938971 -1.321944 -1.666182
  H 0.763294 0.135601 1.587075
  H 1.124766 -1.249696 0.530829
  H 0.319639 0.130298 -0.148477
  H 2.290819 -0.210666 -1.810972
  H 4.933774 0.261734 -0.296478
  H 4.632994 -2.688574 -3.165070
  H 5.341756 -1.327607 -3.938137
  H 3.091132 -0.159357 -3.979401
  H 2.368880 -1.634337 -3.300677
 19
 12.039397
  C 1.179683 -0.332515 0.518397
  C 2.432809 0.359123 0.222216
  H 3.025634 0.740260 1.042884
  C 2.990717 0.263834 -1.037304
  C 4.364940 -0.036087 -1.113417
  C 4.854647 -1.051278 -1.898927
  C 4.414435 -1.628211 -3.172364
  C 3.160744 -1.129798 -3.866592
  H 3.063491 -1.630260 -4.826728
  H 5.799740 -1.468927 -1.566882
  H 0.809371 -0.140742 1.519045
  H 1.445503 -1.392992 0.421165
  H 0.412762 -0.148068 -0.232355
  H 2.347349 0.104775 -1.888288
  H 4.985757 0.310151 -0.295810
  H 4.375465 -2.718930 -3.065064
  H 5.272529 -1.470879 -3.844551
  H 3.206484 -0.060149 -4.050378
  H 2.269824 -1.364830 -3.291578
 19
 20.298966
  C 1.297566 -0.455756 0.447295
  C 2.478194 0.375731 0.204736
  H 3.078386 0.691221 1.044242
  C 3.011453 0.420523 -1.073326
  C 4.376024 0.051043 -1.135996
  C 4.734743 -1.081889 -1.815411
  C 4.325589 -1.641691 -3.112700
  C 3.109801 -1.093108 -3.841930
  H 3.026101 -1.580804 -4.808898
  H 5.618755 -1.576129 -1.422169
  H 0.968553 -0.440963 1.477204
  H 1.660073 -1.460364 0.176703
  H 0.477185 -0.243779 -0.237954
  H 2.365308 0.288345 -1.927389
  H 5.029364 0.406166 -0.347757
  H 4.247767 -2.733136 -3.017451
  H 5.209103 -1.495895 -3.750165
  H 3.196975 -0.025820 -4.013650
  H 2.191398 -1.303955 -3.293732
 19
 31.775207
  C 1.502171 -0.626868 0.338304
  C 2.501778 0.433840 0.164934
  H 3.088721 0.739340 1.022294
  C 3.015671 0.588279 -1.112305
  C 4.362419 0.139399 -1.140885
  C 4.575507 -1.087235 -1.719334
  C 4.175215 -1.674105 -3.007134
  C 3.061767 -1.033220 -3.821657
  H 2.977968 -1.545569 -4.777416
  H 5.417504 -1.622733 -1.286832
  H 1.194079 -0.765353 1.366517
  H 2.064287 -1.504379 -0.027909
  H 0.644135 -0.530176 -0.326243
  H 2.374869 0.484718 -1.974075
  H 5.019206 0.451252 -0.338547
  H 3.963741 -2.738972 -2.861651
  H 5.098390 -1.655824 -3.605413
  H 3.268989 0.013259 -4.023039
  H 2.101269 -1.128828 -3.319562
 19
 45.581274
  C 1.681442 -0.744761 0.258313
  C 2.537766 0.444311 0.160820
  H 3.110812 0.752973 1.026656
  C 2.989632 0.714940 -1.124933
  C 4.310794 0.184830 -1.141192
  C 4.396298 -1.105940 -1.618931
  C 4.061416 -1.700020 -2.925575
  C 3.038478 -1.007153 -3.811826
  H 2.934469 -1.563568 -4.740506
  H 5.209396 -1.652978 -1.145882
  H 1.435783 -1.030634 1.271987
  H 2.359605 -1.491990 -0.218953
  H 0.804582 -0.727223 -0.386276
  H 2.328340 0.611522 -1.974127
  H 5.043729 0.537883 -0.430727
  H 3.766679 -2.745070 -2.769295
  H 5.013763 -1.758817 -3.467789
  H 3.351225 0.004005 -4.060389
  H 2.060538 -0.983757 -3.338378
 19
 65.270956
  C 1.866178 -0.774527 0.152469
  C 2.599927 0.473422 0.161896
  H 3.157700 0.761357 1.037216
  C 2.996301 0.818519 -1.130549
  C 4.261269 0.212119 -1.111572
  C 4.214213 -1.142060 -1.504260
  C 3.951413 -1.729165 -2.859725
  C 2.982345 -1.028018 -3.783773
  H 2.966283 -1.543730 -4.735422
  H 4.994383 -1.712043 -0.989740
  H 1.687377 -1.209144 1.116634
  H 2.668362 -1.402824 -0.447373
  H 1.013800 -0.832687 -0.496325
  H 2.306506 0.704094 -1.976223
  H 5.003422 0.514943 -0.413158
  H 3.643931 -2.764184 -2.719783
  H 4.917788 -1.790192 -3.368561
  H 3.280859 0.005050 -3.965942
  H 1.978499 -1.058381 -3.379732
 19
 78.941452
  C 1.943705 -0.761521 0.104079
  C 2.631965 0.505681 0.162113
  H 3.195040 0.792123 1.035581
  C 2.973613 0.861083 -1.153604
  C 4.212302 0.222311 -1.105070
  C 4.113623 -1.218955 -1.438230
  C 3.908367 -1.772290 -2.811515
  C 2.945614 -1.039356 -3.734888
  H 2.957312 -1.513778 -4.712956
  H 4.881571 -1.782917 -0.913421
  H 1.817824 -1.286362 1.039641
  H 2.972104 -1.424127 -0.673198
  H 1.107481 -0.870164 -0.574487
  H 2.273712 0.725850 -1.963862
  H 4.986476 0.519503 -0.411881
  H 3.598411 -2.816963 -2.711814
  H 4.892770 -1.810955 -3.296875
  H 3.237841 -0.001752 -3.870832
  H 1.925838 -1.089251 -3.361597
 19
 59.875234
  C 1.750656 -0.568701 0.286926
  C 2.517787 0.541168 0.261680
  H 3.050218 0.892503 1.133088
  C 2.994183 0.770289 -1.081830
  C 4.234785 0.123252 -1.118448
  C 4.207662 -1.319936 -1.475862
  C 3.994580 -1.819567 -2.919591
  C 2.949282 -1.098854 -3.753626
  H 2.962538 -1.508632 -4.767983
  H 5.047401 -1.844940 -1.028103
  H 1.565653 -1.042198 1.238529
  H 3.284238 -1.601894 -0.865043
  H 1.021012 -0.784840 -0.471716
  H 2.300161 0.716049 -1.911494
  H 5.005377 0.421637 -0.429424
  H 3.756086 -2.885938 -2.854017
  H 4.952323 -1.750782 -3.430740
  H 3.163457 -0.035885 -3.828216
  H 1.944502 -1.246631 -3.363387
 19
 47.658807
  C 1.586523 -0.408079 0.384969
  C 2.537186 0.534009 0.309468
  H 3.140968 0.823731 1.157091
  C 3.015917 0.662876 -1.032545
  C 4.251021 0.035288 -1.098183
  C 4.258717 -1.383116 -1.515534
  C 4.096782 -1.785569 -2.994409
  C 2.940988 -1.161597 -3.754113
  H 2.994498 -1.471822 -4.795849
  H 5.142778 -1.878020 -1.115564
  H 1.309410 -0.817067 1.345846
  H 3.370323 -1.737980 -0.953253
  H 0.901275 -0.602908 -0.420033
  H 2.291380 0.508560 -1.826785
  H 5.050738 0.362890 -0.447717
  H 3.976954 -2.869624 -2.995252
  H 5.031842 -1.569646 -3.512759
  H 2.991066 -0.078365 -3.745679
  H 1.985067 -1.494287 -3.363441
 19
 37.774220
  C 1.470614 -0.319048 0.560120
  C 2.440780 0.580883 0.313817
  H 3.037478 1.011189 1.101878
  C 2.965436 0.471671 -1.016350
  C 4.225429 -0.095028 -1.083059
  C 4.347684 -1.482007 -1.565838
  C 4.163529 -1.811625 -3.066943
  C 3.012850 -1.131074 -3.783788
  H 2.997891 -1.465470 -4.819401
  H 5.287485 -1.915274 -1.227306
  H 1.212078 -0.578078 1.572509
  H 3.511773 -1.948173 -1.016188
  H 0.817769 -0.692622 -0.210830
  H 2.259451 0.360785 -1.831430
  H 5.017688 0.291955 -0.450474
  H 4.046345 -2.893645 -3.136253
  H 5.096471 -1.548909 -3.568647
  H 3.132838 -0.052552 -3.799108
  H 2.053693 -1.399603 -3.346171
 19
 29.254885
  C 1.342427 -0.128030 0.688189
  C 2.445559 0.571223 0.355540
  H 3.085444 1.022952 1.098733
  C 2.941792 0.323508 -0.959786
  C 4.212605 -0.203149 -1.057451
  C 4.401105 -1.551919 -1.616837
  C 4.282998 -1.776042 -3.145386
  C 3.058310 -1.202515 -3.831586
  H 3.112542 -1.432775 -4.894061
  H 5.354303 -1.959677 -1.285608
  H 1.046462 -0.255430 1.715693
  H 3.583082 -2.109595 -1.136146
  H 0.690080 -0.549640 -0.059040
  H 2.210851 0.128249 -1.735865
  H 4.997040 0.198826 -0.426800
  H 4.304609 -2.856711 -3.295212
  H 5.180274 -1.354032 -3.601207
  H 3.015793 -0.120780 -3.743856
  H 2.142066 -1.650373 -3.453013
 19
 22.308089
  C 1.222257 0.057369 0.684999
  C 2.435039 0.547872 0.355485
  H 3.087657 0.990573 1.094921
  C 2.968065 0.161315 -0.906440
  C 4.247036 -0.345101 -0.981101
  C 4.527893 -1.615728 -1.656408
  C 4.377604 -1.712372 -3.198764
  C 3.053578 -1.290498 -3.802296
  H 3.083637 -1.478547 -4.875474
  H 5.524363 -1.969631 -1.396176
  H 0.840455 0.106774 1.690269
  H 3.780868 -2.297144 -1.220158
  H 0.588690 -0.401774 -0.055503
  H 2.255299 -0.040953 -1.697152
  H 5.001340 0.048675 -0.310363
  H 4.567541 -2.755916 -3.450291
  H 5.176299 -1.105252 -3.629291
  H 2.866444 -0.229505 -3.672576
  H 2.228671 -1.875267 -3.400142
 19
 17.790849
  C 1.178015 0.180258 0.822715
  C 2.372290 0.567723 0.326489
  H 3.056017 1.157918 0.917255
  C 2.837439 -0.067404 -0.862535
  C 4.153202 -0.452525 -0.983135
  C 4.547991 -1.672354 -1.696106
  C 4.426000 -1.721336 -3.240845
  C 3.147219 -1.200698 -3.859917
  H 3.207775 -1.321203 -4.941797
  H 5.562455 -1.958279 -1.425823
  H 0.861672 0.439903 1.817698
  H 3.857418 -2.447945 -1.322254
  H 0.514872 -0.442082 0.244213
  H 2.086450 -0.512731 -1.500581
  H 4.898181 0.045402 -0.377419
  H 4.588801 -2.754411 -3.548358
  H 5.261655 -1.124262 -3.614171
  H 2.995444 -0.146923 -3.648673
  H 2.279840 -1.774160 -3.533215
