 19
 0.000000
  C -0.186848 -0.772730 -2.470166
  C -0.147570 -1.158312 -1.021860
  C 0.936294 -2.155350 -0.682214
  C -0.000723 0.001243 0.038398
  C 0.234534 1.362641 -0.514216
  O -0.067712 -0.254041 1.197102
  H -0.395267 -1.668904 -3.057441
  H 0.766421 -0.396594 -2.832709
  H -0.983198 -0.067909 -2.687553
  H -1.129125 -1.558592 -0.731060
  H 1.947945 -1.782772 -0.868352
  H 0.826233 -3.028390 -1.327852
  H 0.880938 -2.457385 0.361011
  H 0.222107 1.417486 -1.593258
  H 1.186266 1.725081 -0.122166
  H -0.540326 2.007267 -0.093967
  O 3.507930 -0.224259 0.043858
  H 2.571347 -0.008637 0.000608
  H 3.945026 0.149007 -0.728527
 19
 -1.870013
  C -0.162731 -0.754207 -2.464797
  C -0.131960 -1.143333 -1.013623
  C 0.933405 -2.147084 -0.662528
  C 0.001441 0.020791 0.052790
  C 0.138722 1.391485 -0.502842
  O -0.014276 -0.247883 1.210788
  H -0.379462 -1.649584 -3.053232
  H 0.799533 -0.393003 -2.822150
  H -0.952453 -0.041123 -2.687979
  H -1.126062 -1.517247 -0.713926
  H 1.957684 -1.791255 -0.836038
  H 0.832596 -3.014204 -1.314175
  H 0.863652 -2.446003 0.382868
  H 0.226679 1.436438 -1.581682
  H 0.991830 1.865795 -0.018864
  H -0.743154 1.946032 -0.177719
  O 3.527803 -0.417825 -0.073540
  H 2.690835 0.051710 -0.086558
  H 4.114895 -0.006677 -0.717693
 19
 -3.638408
  C -0.100809 -0.722481 -2.438654
  C -0.127586 -1.123856 -0.992251
  C 0.893557 -2.164154 -0.619866
  C 0.013784 0.023201 0.084956
  C 0.072887 1.402895 -0.460728
  O 0.043302 -0.260273 1.239985
  H -0.307560 -1.607665 -3.043961
  H 0.880807 -0.375677 -2.754432
  H -0.867923 0.006329 -2.683657
  H -1.144238 -1.455258 -0.726997
  H 1.926367 -1.819023 -0.766922
  H 0.792024 -3.027683 -1.275754
  H 0.792986 -2.456919 0.422730
  H 0.320379 1.456085 -1.513039
  H 0.770982 1.978728 0.145757
  H -0.916424 1.838074 -0.301363
  O 3.524979 -0.515382 -0.298183
  H 2.788531 0.097911 -0.221106
  H 4.192269 -0.116147 -0.868867
 19
 -2.563438
  C -0.064380 -0.721938 -2.423744
  C -0.112848 -1.127615 -0.979957
  C 0.845731 -2.228986 -0.616529
  C 0.090344 0.020095 0.103547
  C 0.110154 1.398949 -0.439616
  O 0.166495 -0.276296 1.251415
  H -0.322052 -1.594728 -3.033613
  H 0.936148 -0.433476 -2.738224
  H -0.786780 0.044038 -2.670161
  H -1.146735 -1.390742 -0.699727
  H 1.897143 -1.983487 -0.817584
  H 0.638706 -3.096663 -1.246399
  H 0.759435 -2.495943 0.432688
  H 0.390419 1.463154 -1.481802
  H 0.765293 2.002161 0.188723
  H -0.901388 1.792313 -0.316594
  O 3.492070 -0.397886 -0.369148
  H 2.635602 0.042265 -0.367502
  H 4.115421 0.164437 -0.842200
 19
 -1.059327
  C -0.047640 -0.724179 -2.414617
  C -0.112636 -1.138105 -0.976744
  C 0.828663 -2.260951 -0.615774
  C 0.132413 0.012815 0.113182
  C 0.143521 1.391541 -0.427044
  O 0.181494 -0.296012 1.257566
  H -0.302590 -1.596385 -3.024833
  H 0.958859 -0.438397 -2.720323
  H -0.773408 0.040968 -2.669652
  H -1.144742 -1.361425 -0.677569
  H 1.877883 -2.061321 -0.862909
  H 0.561978 -3.135741 -1.219178
  H 0.759894 -2.516844 0.436272
  H 0.392706 1.465583 -1.479955
  H 0.833511 1.986372 0.178597
  H -0.855673 1.794073 -0.258193
  O 3.463474 -0.303880 -0.404868
  H 2.549281 -0.002441 -0.416265
  H 3.997671 0.342554 -0.874405
 19
 -0.001983
  C -0.021048 -0.716938 -2.402835
  C -0.107059 -1.137107 -0.968201
  C 0.819149 -2.278272 -0.606288
  C 0.164096 0.009150 0.127942
  C 0.167228 1.387031 -0.411018
  O 0.208367 -0.309276 1.268982
  H -0.265579 -1.586469 -3.018463
  H 0.987548 -0.428523 -2.695879
  H -0.745661 0.043465 -2.665616
  H -1.144594 -1.334967 -0.666354
  H 1.871122 -2.103267 -0.856000
  H 0.537021 -3.149341 -1.210085
  H 0.741544 -2.536115 0.448925
  H 0.425129 1.459601 -1.462207
  H 0.852190 1.984014 0.191377
  H -0.837715 1.789026 -0.243484
  O 3.399787 -0.254482 -0.461860
  H 2.457076 -0.065304 -0.468548
  H 3.853295 0.441133 -0.944097
 19
 1.827004
  C 0.046772 -0.715440 -2.396522
  C -0.079955 -1.146854 -0.973241
  C 0.800278 -2.306415 -0.600416
  C 0.226386 0.013973 0.138098
  C 0.181961 1.387299 -0.396425
  O 0.256024 -0.333792 1.269523
  H -0.249121 -1.566214 -3.025731
  H 1.073453 -0.493108 -2.678955
  H -0.627962 0.089464 -2.661733
  H -1.121249 -1.265558 -0.657382
  H 1.851000 -2.181483 -0.883361
  H 0.468686 -3.176982 -1.170848
  H 0.731653 -2.544810 0.462240
  H 0.421427 1.471642 -1.452130
  H 0.867251 2.003406 0.192098
  H -0.825246 1.760515 -0.207047
  O 3.278592 -0.214541 -0.540528
  H 2.322939 -0.125549 -0.470380
  H 3.629223 0.567037 -0.976819
 19
 7.586262
  C 0.064853 -0.721084 -2.412870
  C -0.056195 -1.193177 -1.012048
  C 0.826703 -2.334538 -0.622151
  C 0.287315 0.073368 0.173181
  C 0.185340 1.412808 -0.393064
  O 0.219785 -0.347516 1.270874
  H -0.316917 -1.531552 -3.053989
  H 1.096902 -0.571853 -2.715103
  H -0.551753 0.140920 -2.641373
  H -1.070312 -1.216457 -0.606475
  H 1.864460 -2.229506 -0.946070
  H 0.470275 -3.225915 -1.150048
  H 0.775989 -2.554254 0.444116
  H 0.354810 1.483420 -1.458488
  H 0.899754 2.058737 0.127131
  H -0.813698 1.775938 -0.145373
  O 3.180701 -0.198845 -0.485352
  H 2.229962 -0.137401 -0.356872
  H 3.461635 0.543848 -1.030027
 19
 15.798178
  C 0.051613 -0.752323 -2.439651
  C -0.069841 -1.281823 -1.070522
  C 0.819382 -2.386450 -0.659332
  C 0.382474 0.185355 0.256416
  C 0.199419 1.464632 -0.374156
  O 0.274939 -0.325584 1.302556
  H -0.375572 -1.512323 -3.106009
  H 1.085100 -0.630350 -2.751349
  H -0.538298 0.141040 -2.619127
  H -1.042379 -1.231326 -0.592535
  H 1.855343 -2.297001 -0.995499
  H 0.451794 -3.294643 -1.151579
  H 0.774847 -2.577342 0.413082
  H 0.358605 1.473958 -1.446305
  H 0.897274 2.178781 0.078707
  H -0.809885 1.797231 -0.129769
  O 3.084279 -0.200026 -0.451418
  H 2.136114 -0.079547 -0.296434
  H 3.401648 0.545683 -0.971870
 19
 22.613619
  C 0.024696 -0.771354 -2.471307
  C -0.106006 -1.353171 -1.129932
  C 0.775536 -2.448518 -0.708700
  C 0.440065 0.284872 0.345832
  C 0.247269 1.525404 -0.334274
  O 0.287669 -0.295118 1.340141
  H -0.435631 -1.473736 -3.172513
  H 1.063462 -0.675301 -2.779515
  H -0.524644 0.156412 -2.597217
  H -1.049597 -1.248757 -0.610964
  H 1.819010 -2.346145 -1.031638
  H 0.419388 -3.365598 -1.200399
  H 0.715778 -2.634107 0.362870
  H 0.410008 1.483348 -1.407852
  H 0.931897 2.273371 0.079415
  H -0.769223 1.853882 -0.116184
  O 3.036525 -0.219345 -0.408773
  H 2.092574 -0.070407 -0.231990
  H 3.362504 0.517086 -0.937103
 19
 26.940646
  C 0.011980 -0.830799 -2.495259
  C -0.136271 -1.432785 -1.168973
  C 0.761255 -2.499490 -0.715628
  C 0.464117 0.379454 0.410233
  C 0.239923 1.578369 -0.306086
  O 0.313492 -0.240909 1.377552
  H -0.447786 -1.510853 -3.220980
  H 1.063379 -0.737458 -2.789561
  H -0.526708 0.108848 -2.602007
  H -1.069326 -1.304047 -0.641769
  H 1.803881 -2.371392 -1.039130
  H 0.431997 -3.436837 -1.186435
  H 0.700336 -2.660829 0.360405
  H 0.401450 1.496550 -1.382722
  H 0.907866 2.359125 0.069980
  H -0.789447 1.892419 -0.097862
  O 2.996689 -0.188817 -0.435621
  H 2.071436 -0.026275 -0.223611
  H 3.324279 0.563914 -0.943417
 19
 28.258948
  C -0.020237 -0.850973 -2.505720
  C -0.162504 -1.478420 -1.188759
  C 0.765488 -2.505877 -0.722976
  C 0.430335 0.432993 0.456536
  C 0.205790 1.605508 -0.290258
  O 0.268774 -0.217925 1.397334
  H -0.483074 -1.516855 -3.246155
  H 1.022903 -0.746670 -2.799829
  H -0.561714 0.088001 -2.590779
  H -1.099553 -1.372636 -0.660695
  H 1.801082 -2.341728 -1.040947
  H 0.475755 -3.459871 -1.175627
  H 0.704748 -2.654151 0.352702
  H 0.396027 1.496048 -1.358241
  H 0.854998 2.408621 0.083785
  H -0.832199 1.912540 -0.122726
  O 3.016598 -0.235488 -0.454250
  H 2.100518 -0.002075 -0.227211
  H 3.388358 0.489489 -0.972191
 19
 31.726444
  C -0.064279 -0.901773 -2.587012
  C -0.265484 -1.570549 -1.303646
  C 0.655507 -2.577487 -0.794524
  C 0.497156 0.534603 0.540793
  C 0.290769 1.719641 -0.195695
  O 0.282144 -0.137789 1.457148
  H -0.538410 -1.510181 -3.366038
  H 0.988536 -0.830538 -2.850688
  H -0.561773 0.062673 -2.638454
  H -1.204477 -1.431237 -0.787913
  H 1.692021 -2.398374 -1.089963
  H 0.390693 -3.544706 -1.241068
  H 0.567760 -2.710694 0.281959
  H 0.477349 1.605135 -1.264693
  H 0.966456 2.498482 0.176204
  H -0.737228 2.057458 -0.025863
  O 2.980068 -0.333410 -0.425483
  H 2.097803 -0.003695 -0.175034
  H 3.467209 0.395935 -0.822501
 19
 36.641833
  C -0.169876 -1.260811 -2.775235
  C -0.341232 -1.947457 -1.506256
  C 0.698558 -2.741854 -0.883049
  C 0.614495 0.898358 0.743060
  C 0.315625 2.082367 0.013768
  O 0.337125 0.213705 1.645731
  H -0.591900 -1.890829 -3.568220
  H 0.875357 -1.097755 -3.019374
  H -0.745671 -0.337905 -2.821406
  H -1.301751 -1.883238 -1.015212
  H 1.701840 -2.409779 -1.149783
  H 0.620697 -3.767296 -1.268651
  H 0.576950 -2.821998 0.194183
  H 0.537602 1.984232 -1.048011
  H 0.952223 2.878378 0.407952
  H -0.731239 2.366342 0.158405
  O 2.828273 -0.215258 -0.443385
  H 2.047638 0.235221 -0.060263
  H 3.424022 0.461382 -0.779850
 19
 37.434146
  C -0.151794 -1.204282 -2.742929
  C -0.324033 -1.883847 -1.469767
  C 0.700731 -2.712234 -0.864687
  C 0.591641 0.825902 0.697476
  C 0.296433 2.011203 -0.029898
  O 0.328989 0.149981 1.610938
  H -0.583418 -1.835410 -3.529943
  H 0.894662 -1.055586 -2.993907
  H -0.717367 -0.275667 -2.791482
  H -1.279731 -1.804205 -0.971343
  H 1.708315 -2.406452 -1.138055
  H 0.590731 -3.731111 -1.260813
  H 0.587867 -2.799877 0.213139
  H 0.504668 1.912089 -1.094922
  H 0.938251 2.808574 0.356587
  H -0.747399 2.297421 0.129043
  O 2.852861 -0.223163 -0.431588
  H 2.038203 0.201337 -0.082730
  H 3.419127 0.471131 -0.780713
