 23
 0.000000
  C 1.028121 0.108285 0.351852
  C 2.500296 0.130097 0.422857
  C 3.235539 0.617896 1.607757
  C 2.413228 1.111316 2.794518
  C 3.327153 1.575190 3.924801
  C 3.172612 -0.334559 -0.700874
  C 4.552643 -0.405978 -0.897334
  C 5.121271 -0.857947 -2.066848
  H 4.552971 -1.194399 -2.924954
  O 6.403075 -0.933452 -2.283054
  H 0.544486 0.486326 1.244720
  H 0.684131 -0.910816 0.168895
  H 0.687632 0.698851 -0.502545
  H 3.900305 1.429226 1.288953
  H 3.895083 -0.185419 1.956445
  H 1.771933 0.311431 3.168743
  H 1.777681 1.945878 2.493343
  H 3.959816 0.762175 4.273945
  H 2.736848 1.925587 4.767806
  H 3.965615 2.393652 3.599731
  H 2.547386 -0.667454 -1.519420
  H 5.211062 -0.092685 -0.097638
  H 6.957284 -0.636714 -1.532821
 23
 -0.375916
  C 1.028537 0.097586 0.365120
  C 2.498301 0.075533 0.436810
  C 3.232719 0.592618 1.611176
  C 2.406817 1.107399 2.785584
  C 3.318435 1.586606 3.912372
  C 3.176104 -0.399099 -0.682856
  C 4.559547 -0.410463 -0.868133
  C 5.121367 -0.880981 -2.037918
  H 4.496914 -1.257750 -2.841095
  O 6.386873 -0.927251 -2.313237
  H 0.547337 0.249636 1.323588
  H 0.639816 -0.795210 -0.120279
  H 0.763442 0.932411 -0.289557
  H 3.894149 1.399916 1.276709
  H 3.900355 -0.196660 1.974581
  H 1.762986 0.315094 3.172096
  H 1.775265 1.938478 2.466649
  H 3.949525 0.777384 4.274766
  H 2.726702 1.950008 4.749615
  H 3.959143 2.399951 3.577286
  H 2.575431 -0.785597 -1.495470
  H 5.209036 -0.042357 -0.087213
  H 6.972877 -0.594030 -1.603771
 23
 4.856906
  C 1.029911 0.053017 0.405874
  C 2.490730 0.084447 0.425429
  C 3.237346 0.574549 1.608783
  C 2.407928 1.112471 2.771857
  C 3.318134 1.597867 3.897113
  C 3.159563 -0.422370 -0.684592
  C 4.537515 -0.358418 -0.897236
  C 5.112737 -0.897515 -2.023485
  H 4.505584 -1.370845 -2.786851
  O 6.381917 -0.914269 -2.301858
  H 0.511465 0.181493 1.342561
  H 0.588653 -0.658651 -0.279355
  H 1.005368 1.032952 -0.123908
  H 3.936252 1.355943 1.295922
  H 3.848813 -0.257416 1.975537
  H 1.756612 0.331279 3.166906
  H 1.787511 1.945643 2.439387
  H 3.943707 0.788994 4.268564
  H 2.726298 1.972135 4.728740
  H 3.964877 2.403881 3.556594
  H 2.574238 -0.908610 -1.452211
  H 5.174577 0.105443 -0.158140
  H 6.947910 -0.474462 -1.635345
 23
 22.535646
  C 1.008972 -0.023942 0.457264
  C 2.447446 0.082432 0.410018
  C 3.227213 0.587281 1.587948
  C 2.405906 1.094859 2.774232
  C 3.326351 1.618972 3.871058
  C 3.136113 -0.461464 -0.685319
  C 4.515108 -0.414762 -0.878356
  C 5.100103 -0.913858 -2.013557
  H 4.510898 -1.402063 -2.781813
  O 6.375943 -0.878288 -2.299888
  H 0.445041 0.182312 1.348105
  H 0.501452 -0.534194 -0.348055
  H 1.388175 1.021008 -0.021040
  H 3.893236 1.393343 1.264075
  H 3.856101 -0.233426 1.930678
  H 1.800955 0.286757 3.188411
  H 1.741554 1.904866 2.461739
  H 3.994822 0.837868 4.222962
  H 2.744317 1.971410 4.720774
  H 3.928505 2.447298 3.511196
  H 2.553353 -0.887769 -1.491436
  H 5.146742 0.020929 -0.123462
  H 6.916484 -0.398689 -1.637912
 23
 36.676151
  C 0.987097 -0.108225 0.515328
  C 2.399712 0.104454 0.402997
  C 3.209517 0.621201 1.574114
  C 2.403027 1.138085 2.767147
  C 3.339326 1.599076 3.880623
  C 3.110847 -0.441633 -0.707420
  C 4.487879 -0.377899 -0.898918
  C 5.084001 -0.885373 -2.028173
  H 4.499809 -1.341377 -2.816272
  O 6.369548 -0.885014 -2.287340
  H 0.434523 0.152236 1.397634
  H 0.462100 -0.617949 -0.277501
  H 1.655668 0.976422 -0.066639
  H 3.866061 1.424548 1.231127
  H 3.844872 -0.195254 1.917415
  H 1.761301 0.348070 3.161915
  H 1.776317 1.981211 2.468914
  H 3.967090 0.780263 4.223546
  H 2.768385 1.963556 4.731858
  H 3.983645 2.404536 3.539532
  H 2.528704 -0.933275 -1.475450
  H 5.114965 0.079964 -0.148972
  H 6.906938 -0.506917 -1.570350
 23
 41.026546
  C 0.976745 -0.139571 0.553265
  C 2.364503 0.189713 0.385323
  C 3.195946 0.671858 1.576036
  C 2.393367 1.118850 2.797157
  C 3.330534 1.590965 3.905506
  C 3.095550 -0.411134 -0.739709
  C 4.464008 -0.364095 -0.926557
  C 5.057698 -0.933221 -2.032913
  H 4.464514 -1.423495 -2.795266
  O 6.336341 -0.973190 -2.279805
  H 0.440758 0.098221 1.450414
  H 0.437486 -0.616500 -0.245129
  H 2.060151 1.080924 -0.259739
  H 3.829209 1.506769 1.261766
  H 3.849752 -0.142051 1.880536
  H 1.793528 0.291112 3.180613
  H 1.725342 1.938368 2.531841
  H 4.000573 0.792024 4.212519
  H 2.761267 1.904999 4.776888
  H 3.931723 2.435155 3.574627
  H 2.499020 -0.922546 -1.482863
  H 5.093073 0.121035 -0.194269
  H 6.886274 -0.531995 -1.603378
 23
 43.360018
  C 0.975958 -0.092145 0.564281
  C 2.347401 0.181608 0.414375
  C 3.184189 0.688626 1.581170
  C 2.392755 1.118066 2.816204
  C 3.339222 1.583843 3.918466
  C 3.065281 -0.389407 -0.744672
  C 4.442760 -0.357356 -0.930887
  C 5.027708 -0.943172 -2.028251
  H 4.430814 -1.439645 -2.783629
  O 6.307659 -1.003063 -2.276346
  H 0.447511 0.119514 1.472064
  H 0.418277 -0.540559 -0.238566
  H 2.345391 0.956657 -0.469889
  H 3.791883 1.535616 1.260215
  H 3.865941 -0.111364 1.879729
  H 1.801183 0.284330 3.195931
  H 1.716619 1.937242 2.563864
  H 4.016797 0.784704 4.210720
  H 2.777298 1.884839 4.799248
  H 3.931522 2.435142 3.590385
  H 2.467707 -0.930459 -1.464811
  H 5.072144 0.136597 -0.205371
  H 6.861843 -0.558362 -1.607443
 23
 40.531838
  C 0.978851 -0.067901 0.572673
  C 2.323405 0.172864 0.440728
  C 3.170020 0.678678 1.586029
  C 2.397867 1.102397 2.835675
  C 3.360392 1.582723 3.917230
  C 3.030670 -0.330521 -0.763913
  C 4.430354 -0.325217 -0.941473
  C 5.013470 -0.954335 -2.003460
  H 4.419098 -1.469231 -2.748139
  O 6.298278 -1.039047 -2.238552
  H 0.452702 0.155911 1.480036
  H 0.400510 -0.488354 -0.230995
  H 2.501887 0.843459 -0.654424
  H 3.767851 1.531056 1.257742
  H 3.862101 -0.118249 1.868515
  H 1.823812 0.262699 3.228530
  H 1.707078 1.912189 2.594160
  H 4.053298 0.792737 4.197991
  H 2.812529 1.879782 4.807977
  H 3.935716 2.440038 3.575006
  H 2.434551 -0.890097 -1.472969
  H 5.057148 0.183984 -0.224720
  H 6.851367 -0.579398 -1.578061
 23
 29.662835
  C 0.960744 -0.067145 0.584353
  C 2.289978 0.199121 0.473714
  C 3.152528 0.684352 1.596838
  C 2.409220 1.064451 2.876899
  C 3.386223 1.589039 3.923241
  C 2.972092 -0.206848 -0.814850
  C 4.402200 -0.248046 -0.961356
  C 4.996900 -0.991568 -1.933913
  H 4.409375 -1.556787 -2.647320
  O 6.284945 -1.121025 -2.127143
  H 0.422006 0.125737 1.496706
  H 0.380453 -0.457559 -0.232762
  H 2.588735 0.865679 -0.958469
  H 3.725045 1.559834 1.273225
  H 3.868346 -0.104933 1.832441
  H 1.894180 0.195232 3.283961
  H 1.668862 1.837358 2.665565
  H 4.124140 0.834552 4.176395
  H 2.858379 1.859741 4.832394
  H 3.906921 2.471873 3.562068
  H 2.390379 -0.837246 -1.474518
  H 5.018154 0.309951 -0.271924
  H 6.836945 -0.601732 -1.508130
 23
 21.242714
  C 0.975944 -0.075497 0.589014
  C 2.291169 0.172343 0.481611
  C 3.150631 0.711739 1.570756
  C 2.428964 1.064917 2.870757
  C 3.423767 1.558915 3.916389
  C 2.938486 -0.149296 -0.839615
  C 4.384856 -0.229091 -0.950210
  C 4.992078 -1.016584 -1.886613
  H 4.410959 -1.622201 -2.573831
  O 6.276510 -1.147633 -2.065535
  H 0.429812 0.090851 1.499574
  H 0.407389 -0.475931 -0.233096
  H 2.631783 0.853579 -1.224592
  H 3.664317 1.610272 1.217951
  H 3.922620 -0.033941 1.787922
  H 1.912822 0.187417 3.262533
  H 1.689367 1.845991 2.688265
  H 4.168743 0.796813 4.133861
  H 2.910354 1.799607 4.844006
  H 3.936446 2.455119 3.574236
  H 2.390323 -0.875024 -1.435578
  H 4.990481 0.361042 -0.278401
  H 6.827859 -0.615630 -1.457219
 23
 18.798852
  C 0.944682 0.039784 0.570035
  C 2.280667 0.175375 0.479023
  C 3.149193 0.705335 1.563821
  C 2.448768 1.052506 2.875884
  C 3.462435 1.513717 3.918469
  C 2.912517 -0.203287 -0.825051
  C 4.369729 -0.212927 -0.937997
  C 5.013947 -0.998076 -1.851368
  H 4.466506 -1.663748 -2.509278
  O 6.304131 -1.059724 -2.036766
  H 0.396415 0.274953 1.463525
  H 0.360065 -0.333363 -0.253668
  H 2.527987 0.614287 -1.466063
  H 3.657056 1.605295 1.203435
  H 3.928143 -0.038313 1.764352
  H 1.919773 0.178244 3.258577
  H 1.721402 1.849568 2.714420
  H 4.191544 0.732989 4.123683
  H 2.961594 1.758319 4.851999
  H 3.992828 2.401046 3.579977
  H 2.461079 -1.102569 -1.250303
  H 4.948477 0.438097 -0.299770
  H 6.825323 -0.471820 -1.454972
 23
 18.933532
  C 0.930677 0.172216 0.533191
  C 2.277291 0.189939 0.479682
  C 3.146182 0.737579 1.554423
  C 2.451253 1.062899 2.874585
  C 3.474594 1.439922 3.940240
  C 2.908623 -0.316018 -0.779261
  C 4.359105 -0.215560 -0.939321
  C 5.036760 -0.989177 -1.839690
  H 4.526188 -1.725635 -2.450304
  O 6.320840 -0.956949 -2.065190
  H 0.370818 0.558473 1.365140
  H 0.345462 -0.251723 -0.266163
  H 2.423525 0.303614 -1.559532
  H 3.628353 1.650719 1.188784
  H 3.946021 0.013434 1.744314
  H 1.881352 0.197576 3.218030
  H 1.759691 1.896549 2.742097
  H 4.160215 0.616469 4.129496
  H 2.975600 1.682814 4.875786
  H 4.054029 2.308332 3.633202
  H 2.554188 -1.322601 -1.019258
  H 4.903488 0.506947 -0.351536
  H 6.810004 -0.304128 -1.526750
 23
 18.367270
  C 0.916467 0.155341 0.542230
  C 2.259695 0.221039 0.455704
  C 3.139169 0.724490 1.545605
  C 2.456640 1.039111 2.874946
  C 3.486163 1.463686 3.918565
  C 2.896723 -0.258730 -0.807607
  C 4.355732 -0.200361 -0.930397
  C 5.031476 -0.993472 -1.813567
  H 4.515203 -1.718936 -2.432922
  O 6.320973 -0.993929 -2.013079
  H 0.384167 0.417450 1.437268
  H 0.316160 -0.180468 -0.285947
  H 2.460171 0.351586 -1.617904
  H 3.637850 1.635496 1.198132
  H 3.925556 -0.018906 1.717508
  H 1.926283 0.157922 3.238324
  H 1.733337 1.845204 2.746741
  H 4.209590 0.670541 4.096558
  H 2.997080 1.689765 4.863606
  H 4.022252 2.354425 3.596825
  H 2.530995 -1.263892 -1.050130
  H 4.907482 0.509363 -0.331861
  H 6.815098 -0.351033 -1.466632
