 27
 0.000000
  C 0.805962 0.042609 0.326763
  C 2.294676 0.054160 0.118135
  C 3.195910 -0.014636 1.342590
  C 2.542498 -0.086705 2.720136
  C 3.602710 -0.148496 3.814762
  C 2.887683 0.123630 -1.072022
  C 2.349649 0.204281 -2.476820
  C 0.848522 0.218448 -2.750898
  C 0.586596 0.305475 -4.252113
  H 3.971862 0.125137 -1.082747
  H 0.540585 -0.025841 1.376420
  H 0.352486 -0.812790 -0.167587
  H 0.352379 0.955634 -0.051707
  H 3.847118 0.865250 1.332479
  H 3.841776 -0.892356 1.237959
  H 1.912915 -0.976227 2.794275
  H 1.917940 0.793378 2.888989
  H 4.232277 -1.027473 3.692667
  H 3.132595 -0.199703 4.794684
  H 4.237391 0.734847 3.787210
  H 2.776912 -0.642200 -3.029039
  H 2.774924 1.109932 -2.927324
  H 0.381430 1.076851 -2.269593
  H 0.383518 -0.691114 -2.372617
  H 1.017751 1.214039 -4.667919
  H -0.483520 0.315634 -4.448757
  H 1.019859 -0.547700 -4.770428
 27
 6.053129
  C 0.799597 -0.010405 0.347941
  C 2.239513 0.054274 0.131408
  C 3.171937 -0.022096 1.324762
  C 2.536488 -0.073302 2.709509
  C 3.610207 -0.145380 3.791724
  C 2.839702 0.136580 -1.042114
  C 2.345283 0.220431 -2.458627
  C 0.850435 0.208828 -2.744592
  C 0.595036 0.301877 -4.244913
  H 3.922212 0.157856 -1.017824
  H 0.501780 -0.043108 1.377291
  H 0.312791 -0.808010 -0.171192
  H 0.597984 0.948328 -0.099787
  H 3.840164 0.843193 1.291007
  H 3.801873 -0.909268 1.209104
  H 1.893782 -0.951618 2.796006
  H 1.929029 0.818798 2.876775
  H 4.223058 -1.035516 3.664075
  H 3.155247 -0.181885 4.779319
  H 4.259569 0.726769 3.746222
  H 2.800859 -0.610109 -3.005074
  H 2.767665 1.132039 -2.891417
  H 0.365284 1.052772 -2.255491
  H 0.405827 -0.712110 -2.369698
  H 1.013242 1.221853 -4.648956
  H -0.472555 0.292305 -4.451532
  H 1.051511 -0.538415 -4.764456
 27
 17.920302
  C 0.780997 -0.014439 0.378025
  C 2.224308 0.048964 0.160610
  C 3.182257 -0.046993 1.342680
  C 2.549412 -0.061062 2.724344
  C 3.617013 -0.154974 3.806906
  C 2.834373 0.160420 -1.046198
  C 2.332704 0.252112 -2.465562
  C 0.833598 0.176235 -2.771482
  C 0.591600 0.286427 -4.273928
  H 3.917724 0.222811 -1.022893
  H 0.449353 0.009000 1.411887
  H 0.246572 -0.769569 -0.187289
  H 0.825955 0.941831 -0.093351
  H 3.879944 0.788921 1.295277
  H 3.773482 -0.956266 1.230971
  H 1.876783 -0.917847 2.817228
  H 1.969304 0.853095 2.877683
  H 4.201327 -1.065777 3.689516
  H 3.160368 -0.165375 4.793942
  H 4.295098 0.695302 3.751537
  H 2.829264 -0.551866 -3.027595
  H 2.718723 1.194900 -2.880795
  H 0.298242 0.983933 -2.272228
  H 0.429576 -0.772765 -2.421673
  H 0.969969 1.233830 -4.654777
  H -0.472539 0.228881 -4.494940
  H 1.095906 -0.519737 -4.803820
 27
 31.858608
  C 0.775077 -0.034464 0.368942
  C 2.216603 0.042818 0.144586
  C 3.174699 -0.062304 1.335649
  C 2.541455 -0.043456 2.724937
  C 3.610993 -0.144519 3.807996
  C 2.836429 0.165460 -1.053099
  C 2.335333 0.266466 -2.471384
  C 0.843013 0.153122 -2.765951
  C 0.585069 0.286440 -4.259963
  H 3.917226 0.231318 -1.021260
  H 0.438915 -0.030628 1.389848
  H 0.211794 -0.708118 -0.250348
  H 1.015115 0.927504 -0.054853
  H 3.900441 0.753880 1.278510
  H 3.740320 -0.992935 1.231488
  H 1.852455 -0.884687 2.832583
  H 1.980778 0.884788 2.867555
  H 4.175758 -1.067896 3.701873
  H 3.156917 -0.132071 4.795888
  H 4.305635 0.689642 3.739915
  H 2.848286 -0.511178 -3.047809
  H 2.690794 1.224020 -2.871579
  H 0.287999 0.932283 -2.244552
  H 0.472472 -0.815951 -2.432995
  H 0.930370 1.250816 -4.623143
  H -0.476416 0.200984 -4.472856
  H 1.108405 -0.491348 -4.809521
 27
 44.030796
  C 0.752387 -0.059814 0.378299
  C 2.207077 0.041857 0.140914
  C 3.156512 -0.067564 1.335557
  C 2.537025 -0.029496 2.728547
  C 3.616245 -0.130410 3.798087
  C 2.847336 0.165343 -1.064192
  C 2.349658 0.270440 -2.480347
  C 0.854983 0.140062 -2.768806
  C 0.583759 0.289014 -4.259598
  H 3.922272 0.230051 -1.023216
  H 0.423442 -0.115736 1.396877
  H 0.153482 -0.634462 -0.309064
  H 1.148210 0.914282 0.042428
  H 3.897746 0.738579 1.271836
  H 3.704695 -1.011723 1.232948
  H 1.842203 -0.863848 2.854054
  H 1.986236 0.906166 2.869006
  H 4.169613 -1.057585 3.694144
  H 3.174596 -0.104901 4.788343
  H 4.316856 0.695265 3.714980
  H 2.871099 -0.495280 -3.065987
  H 2.690795 1.236403 -2.874785
  H 0.293171 0.906008 -2.232181
  H 0.501758 -0.838991 -2.446690
  H 0.912701 1.262591 -4.612599
  H -0.477317 0.191239 -4.466113
  H 1.113656 -0.473500 -4.822507
 27
 52.715717
  C 0.758973 -0.091489 0.375222
  C 2.212759 0.024589 0.127130
  C 3.151342 -0.084838 1.330961
  C 2.527947 -0.018794 2.719269
  C 3.605263 -0.101239 3.794290
  C 2.860988 0.149545 -1.073812
  C 2.361575 0.268999 -2.488731
  C 0.863488 0.127977 -2.764685
  C 0.571709 0.302673 -4.250532
  H 3.937242 0.218223 -1.027829
  H 0.437226 -0.222024 1.388917
  H 0.128862 -0.536066 -0.366022
  H 1.280393 0.888870 0.139683
  H 3.904905 0.708883 1.261696
  H 3.685907 -1.037601 1.241608
  H 1.833717 -0.847169 2.860727
  H 1.979498 0.918044 2.839521
  H 4.158813 -1.034397 3.708897
  H 3.159170 -0.056263 4.786579
  H 4.309619 0.723813 3.697518
  H 2.887346 -0.483916 -3.089799
  H 2.689289 1.242962 -2.873451
  H 0.302276 0.877681 -2.207088
  H 0.526420 -0.857481 -2.458273
  H 0.886226 1.285750 -4.588506
  H -0.490776 0.197673 -4.446264
  H 1.102500 -0.443242 -4.834098
 27
 59.171311
  C 0.749951 -0.124491 0.394793
  C 2.204542 0.022089 0.132199
  C 3.146709 -0.099953 1.328970
  C 2.529778 -0.013597 2.719612
  C 3.614170 -0.077281 3.791336
  C 2.856965 0.146168 -1.078042
  C 2.363728 0.272591 -2.491551
  C 0.865014 0.126221 -2.776968
  C 0.577863 0.309384 -4.264330
  H 3.936013 0.217061 -1.026608
  H 0.435423 -0.326374 1.399719
  H 0.089993 -0.442154 -0.379748
  H 1.364401 0.869778 0.240897
  H 3.911491 0.682231 1.250767
  H 3.665343 -1.060682 1.241932
  H 1.836922 -0.842143 2.879022
  H 1.977975 0.924906 2.828115
  H 4.169294 -1.008426 3.716887
  H 3.174078 -0.018768 4.783838
  H 4.312066 0.743578 3.679474
  H 2.897294 -0.477113 -3.094471
  H 2.687200 1.250015 -2.870327
  H 0.301306 0.869730 -2.219329
  H 0.531931 -0.859751 -2.478039
  H 0.891296 1.299321 -4.595648
  H -0.487444 0.201262 -4.466009
  H 1.116203 -0.434032 -4.852648
 27
 65.166264
  C 0.761183 -0.143836 0.361741
  C 2.218028 0.026618 0.123278
  C 3.149539 -0.106394 1.322690
  C 2.524786 -0.007845 2.702120
  C 3.598112 -0.066859 3.781495
  C 2.875628 0.149610 -1.079805
  C 2.378718 0.278385 -2.484242
  C 0.871998 0.125960 -2.750665
  C 0.567209 0.309446 -4.226325
  H 3.957993 0.223155 -1.033402
  H 0.435164 -0.362888 1.340086
  H 0.099237 -0.401454 -0.444802
  H 1.448424 0.855749 0.250248
  H 3.917841 0.662421 1.247643
  H 3.652517 -1.064855 1.242931
  H 1.831509 -0.828521 2.861181
  H 1.976883 0.929671 2.797469
  H 4.153013 -1.004610 3.717768
  H 3.148092 0.000405 4.772627
  H 4.305063 0.757752 3.668567
  H 2.916881 -0.476204 -3.099612
  H 2.699557 1.268479 -2.867288
  H 0.310706 0.867740 -2.183425
  H 0.540850 -0.873370 -2.444863
  H 0.870402 1.292570 -4.557569
  H -0.490553 0.198841 -4.412836
  H 1.096505 -0.425254 -4.817616
 27
 69.046511
  C 0.744300 -0.196590 0.393507
  C 2.194827 0.025351 0.138642
  C 3.145696 -0.119941 1.327576
  C 2.535880 -0.004321 2.721807
  C 3.624010 -0.048746 3.789538
  C 2.857398 0.148047 -1.085330
  C 2.369439 0.284996 -2.491780
  C 0.872195 0.134930 -2.779964
  C 0.589290 0.318048 -4.266660
  H 3.938328 0.226714 -1.027393
  H 0.415887 -0.419580 1.383723
  H 0.063986 -0.374595 -0.405318
  H 1.473407 0.847188 0.300733
  H 3.925805 0.641648 1.236422
  H 3.638012 -1.089808 1.244136
  H 1.843095 -0.825960 2.901151
  H 1.986372 0.935768 2.814189
  H 4.178109 -0.983322 3.729732
  H 3.187949 0.028183 4.782716
  H 4.326540 0.774317 3.658626
  H 2.908747 -0.461011 -3.100379
  H 2.691598 1.271142 -2.868849
  H 0.303922 0.883958 -2.220943
  H 0.536233 -0.865857 -2.476668
  H 0.900793 1.303822 -4.595735
  H -0.469885 0.209019 -4.470489
  H 1.127796 -0.421267 -4.850995
 27
 73.100336
  C 0.735418 -0.234910 0.395674
  C 2.179447 0.025155 0.144619
  C 3.144565 -0.127513 1.332642
  C 2.546259 0.001918 2.730288
  C 3.638273 -0.035698 3.786642
  C 2.836702 0.145313 -1.076448
  C 2.357545 0.287023 -2.481028
  C 0.874783 0.138462 -2.782870
  C 0.607905 0.326967 -4.275983
  H 3.912039 0.229351 -1.017631
  H 0.407848 -0.444091 1.377975
  H 0.048576 -0.378910 -0.410203
  H 1.505232 0.843005 0.304615
  H 3.928586 0.624873 1.230786
  H 3.631571 -1.110582 1.249788
  H 1.857569 -0.810389 2.920761
  H 2.002534 0.939494 2.818627
  H 4.187318 -0.970388 3.730347
  H 3.209891 0.049293 4.779765
  H 4.352242 0.797128 3.641620
  H 2.908933 -0.464223 -3.094137
  H 2.682429 1.278905 -2.851224
  H 0.300630 0.885981 -2.228011
  H 0.539787 -0.853915 -2.489564
  H 0.928546 1.331182 -4.603483
  H -0.464556 0.216377 -4.494604
  H 1.158770 -0.418219 -4.861979
 27
 75.416433
  C 0.752267 -0.288165 0.382942
  C 2.188558 0.029005 0.150763
  C 3.149492 -0.135468 1.335790
  C 2.548209 0.012589 2.733486
  C 3.641143 -0.023857 3.798119
  C 2.861114 0.147437 -1.088262
  C 2.372313 0.298148 -2.498524
  C 0.880458 0.146984 -2.788184
  C 0.597482 0.332581 -4.277374
  H 3.935559 0.234341 -1.023684
  H 0.400066 -0.469493 1.373875
  H 0.065660 -0.384567 -0.425608
  H 1.550197 0.863523 0.306218
  H 3.948434 0.606291 1.229782
  H 3.615648 -1.118878 1.258364
  H 1.846558 -0.798660 2.931110
  H 2.008533 0.960641 2.810628
  H 4.187249 -0.965794 3.751770
  H 3.209820 0.074952 4.794176
  H 4.346269 0.785187 3.650439
  H 2.908345 -0.435099 -3.107880
  H 2.690514 1.283293 -2.868682
  H 0.313045 0.893649 -2.229236
  H 0.547217 -0.850796 -2.486418
  H 0.908758 1.320560 -4.605356
  H -0.464432 0.222796 -4.482599
  H 1.138508 -0.407786 -4.864609
 27
 77.010527
  C 0.763090 -0.316958 0.375460
  C 2.192788 0.039840 0.154119
  C 3.154951 -0.142335 1.336244
  C 2.551611 0.019872 2.734041
  C 3.638862 -0.022644 3.800735
  C 2.866024 0.156719 -1.091154
  C 2.377626 0.307650 -2.497760
  C 0.880939 0.142797 -2.789329
  C 0.596898 0.330471 -4.271408
  H 3.940168 0.256287 -1.026101
  H 0.401638 -0.469221 1.366692
  H 0.079124 -0.376141 -0.434998
  H 1.597242 0.889846 0.302913
  H 3.962913 0.581875 1.227328
  H 3.603301 -1.133785 1.258628
  H 1.838834 -0.783047 2.934038
  H 2.021420 0.974215 2.804970
  H 4.171162 -0.963763 3.760669
  H 3.209320 0.084742 4.786369
  H 4.360567 0.786393 3.650085
  H 2.920883 -0.417398 -3.108066
  H 2.688896 1.299492 -2.866762
  H 0.306710 0.881439 -2.228378
  H 0.557469 -0.853204 -2.492197
  H 0.899921 1.324519 -4.596038
  H -0.463343 0.212243 -4.476109
  H 1.143203 -0.401452 -4.859727
 27
 76.695968
  C 0.762110 -0.385198 0.381546
  C 2.165594 0.050991 0.169262
  C 3.140600 -0.152204 1.341091
  C 2.561554 0.036183 2.746314
  C 3.664589 -0.012517 3.797348
  C 2.856277 0.162435 -1.090444
  C 2.374950 0.319976 -2.496191
  C 0.888170 0.141564 -2.801394
  C 0.615622 0.337193 -4.288474
  H 3.926021 0.278169 -1.012793
  H 0.384893 -0.476941 1.373487
  H 0.059745 -0.398874 -0.420810
  H 1.617841 0.942380 0.305073
  H 3.965287 0.550854 1.217576
  H 3.560653 -1.157935 1.263280
  H 1.839149 -0.751739 2.965798
  H 2.049155 0.999695 2.812940
  H 4.184103 -0.968021 3.759133
  H 3.249050 0.113358 4.795006
  H 4.390111 0.776133 3.628053
  H 2.931195 -0.393670 -3.106671
  H 2.676279 1.316326 -2.856170
  H 0.300305 0.872683 -2.238371
  H 0.574378 -0.860993 -2.513135
  H 0.911387 1.338327 -4.604280
  H -0.443697 0.208372 -4.504591
  H 1.176050 -0.386083 -4.877718
 27
 77.409661
  C 0.777431 -0.425391 0.364626
  C 2.169344 0.056959 0.168226
  C 3.142753 -0.155117 1.346321
  C 2.564068 0.047297 2.738993
  C 3.665951 -0.002715 3.795973
  C 2.859710 0.166451 -1.086318
  C 2.376073 0.329993 -2.491752
  C 0.894591 0.149882 -2.790934
  C 0.614539 0.352054 -4.283147
  H 3.927125 0.287932 -1.009677
  H 0.388463 -0.485629 1.355388
  H 0.080034 -0.418009 -0.443772
  H 1.664246 0.960555 0.292272
  H 3.990726 0.547727 1.221038
  H 3.546237 -1.160699 1.274782
  H 1.834442 -0.732009 2.961186
  H 2.058403 1.018006 2.794886
  H 4.174265 -0.957638 3.767217
  H 3.249615 0.132895 4.788189
  H 4.402560 0.781981 3.622922
  H 2.939090 -0.386384 -3.113703
  H 2.671715 1.323425 -2.847167
  H 0.314694 0.869521 -2.228060
  H 0.580680 -0.865682 -2.500336
  H 0.902903 1.342952 -4.592888
  H -0.440625 0.223429 -4.494936
  H 1.177404 -0.371926 -4.882680
