 13
 0.000000
  H 3.589157 -0.602844 -0.995797
  C 4.664253 -0.609331 -1.008903
  C 5.373911 -1.120060 -2.009829
  C 6.817284 -1.131413 -2.032644
  C 7.534555 -1.640167 -3.032941
  C 9.023125 -1.660576 -3.072083
  H 5.163303 -0.174572 -0.157154
  H 4.868901 -1.555141 -2.862728
  H 7.322734 -0.697175 -1.179816
  H 7.036156 -2.075543 -3.889436
  H 9.454658 -1.208794 -2.181915
  H 9.383249 -1.115658 -3.944783
  H 9.381943 -2.687579 -3.146413
 13
 0.554428
  H 3.597390 -0.491352 -1.080711
  C 4.673064 -0.522554 -1.062283
  C 5.377758 -1.210201 -1.954868
  C 6.822356 -1.227794 -1.978629
  C 7.540606 -1.736756 -2.978811
  C 9.025549 -1.651205 -3.077643
  H 5.155073 0.023701 -0.268042
  H 4.874138 -1.756418 -2.742305
  H 7.322882 -0.756594 -1.141930
  H 7.036982 -2.202527 -3.816596
  H 9.481472 -1.482530 -2.105155
  H 9.284532 -0.814822 -3.726388
  H 9.439560 -2.557043 -3.515503
 13
 1.638158
  H 3.595484 -0.378795 -1.193080
  C 4.670167 -0.415376 -1.145465
  C 5.383009 -1.229815 -1.916097
  C 6.827584 -1.244001 -1.949526
  C 7.531380 -1.738563 -2.966392
  C 9.011013 -1.597204 -3.106602
  H 5.139750 0.231050 -0.421942
  H 4.883234 -1.871379 -2.631386
  H 7.335739 -0.759192 -1.125497
  H 7.013119 -2.210633 -3.790884
  H 9.511824 -1.721477 -2.148477
  H 9.237288 -0.594088 -3.471598
  H 9.411503 -2.317020 -3.815502
 13
 6.287010
  H 3.710224 -0.200087 -1.411966
  C 4.759774 -0.376050 -1.251956
  C 5.395911 -1.394695 -1.820481
  C 6.836550 -1.541886 -1.788478
  C 7.538762 -1.910572 -2.862056
  C 8.970826 -1.552762 -3.083118
  H 5.262082 0.301229 -0.579625
  H 4.862766 -2.014206 -2.531446
  H 7.349555 -1.104211 -0.940490
  H 7.006077 -2.293548 -3.722917
  H 9.580515 -1.729602 -2.200635
  H 8.983899 -0.484561 -3.301965
  H 9.391234 -2.091261 -3.926890
 13
 16.159468
  H 3.936697 0.086068 -1.641846
  C 4.930039 -0.261706 -1.379274
  C 5.403289 -1.411833 -1.839875
  C 6.795121 -1.734646 -1.738958
  C 7.526105 -2.018359 -2.835393
  C 8.873494 -1.413584 -3.076119
  H 5.461654 0.339407 -0.664459
  H 4.809693 -1.955127 -2.576369
  H 7.322911 -1.344895 -0.867365
  H 6.998991 -2.387275 -3.701649
  H 9.546711 -1.508327 -2.221313
  H 8.598980 -0.365947 -3.202448
  H 9.335363 -1.791721 -3.976231
 13
 29.895769
  H 4.209602 0.193132 -1.823983
  C 5.142393 -0.242932 -1.505512
  C 5.441726 -1.497143 -1.821601
  C 6.798828 -1.950401 -1.648536
  C 7.535931 -2.193133 -2.749122
  C 8.740519 -1.369079 -3.034217
  H 5.630937 0.280865 -0.693541
  H 4.851071 -2.001330 -2.582121
  H 7.319450 -1.587135 -0.769405
  H 7.017484 -2.604435 -3.615535
  H 9.457223 -1.317810 -2.201734
  H 8.238491 -0.385341 -3.106189
  H 9.228554 -1.604497 -3.963854
 13
 46.251243
  H 4.477849 0.269329 -2.006649
  C 5.376484 -0.221307 -1.657465
  C 5.489694 -1.542513 -1.837957
  C 6.801303 -2.087514 -1.587198
  C 7.533648 -2.302902 -2.706583
  C 8.589028 -1.292629 -2.981182
  H 5.787626 0.261722 -0.786581
  H 4.890581 -2.017142 -2.606587
  H 7.316215 -1.690732 -0.718554
  H 7.017478 -2.711605 -3.568738
  H 9.321501 -1.166744 -2.186299
  H 7.935517 -0.386433 -2.941073
  H 9.058641 -1.369553 -3.951416
 13
 65.191571
  H 4.817212 0.342681 -2.167457
  C 5.633295 -0.251064 -1.772485
  C 5.544735 -1.591582 -1.887618
  C 6.786489 -2.230489 -1.559743
  C 7.535120 -2.370437 -2.703830
  C 8.404898 -1.199479 -2.894627
  H 6.075765 0.207960 -0.907726
  H 4.902628 -2.017146 -2.653525
  H 7.296885 -1.836663 -0.682052
  H 7.037438 -2.742992 -3.598001
  H 9.079698 -0.952773 -2.078901
  H 7.576432 -0.403188 -2.800076
  H 8.878062 -1.155499 -3.859829
 13
 79.091160
  H 5.099620 0.418207 -2.312733
  C 5.814198 -0.234145 -1.833389
  C 5.588058 -1.620289 -1.915180
  C 6.771123 -2.282784 -1.550722
  C 7.541356 -2.396247 -2.719194
  C 8.307280 -1.224675 -2.859377
  H 6.230583 0.176002 -0.923422
  H 4.994865 -2.004500 -2.734372
  H 7.288294 -1.880287 -0.682706
  H 7.105516 -2.844448 -3.602144
  H 8.904969 -0.886434 -2.023917
  H 7.122430 -0.278415 -2.632325
  H 8.762746 -1.036542 -3.820123
 13
 72.265824
  H 5.091753 0.456720 -2.333339
  C 5.798031 -0.159314 -1.824891
  C 5.621151 -1.623142 -1.944062
  C 6.806723 -2.271048 -1.568058
  C 7.590892 -2.399002 -2.723153
  C 8.365602 -1.291589 -2.886470
  H 6.069582 0.206289 -0.844802
  H 5.072020 -1.991912 -2.781423
  H 7.334134 -1.865899 -0.670762
  H 7.135232 -2.876618 -3.626766
  H 8.926739 -0.926280 -2.066537
  H 6.829209 -0.112410 -2.513718
  H 8.840081 -1.095099 -3.881628
 13
 54.194721
  H 4.847156 0.456973 -2.127360
  C 5.695810 -0.094148 -1.730232
  C 5.622877 -1.565516 -1.943655
  C 6.764767 -2.220125 -1.576494
  C 7.619983 -2.471823 -2.728907
  C 8.473128 -1.457359 -2.948728
  H 5.971853 0.225339 -0.729570
  H 5.057059 -1.916535 -2.811495
  H 7.273946 -1.851702 -0.693464
  H 7.186600 -3.012606 -3.573385
  H 9.018871 -1.004176 -2.120395
  H 6.597658 0.112278 -2.417551
  H 8.955575 -1.361020 -3.902423
 13
 45.039572
  H 4.668342 0.409650 -2.055774
  C 5.592814 -0.048344 -1.741651
  C 5.668719 -1.515199 -1.997522
  C 6.843081 -2.127730 -1.660910
  C 7.705793 -2.431844 -2.795769
  C 8.639296 -1.503355 -2.990722
  H 5.852128 0.235449 -0.727916
  H 5.087991 -1.890377 -2.863565
  H 7.325224 -1.721843 -0.826994
  H 7.272555 -2.975979 -3.629157
  H 9.105929 -1.005201 -2.146209
  H 6.475178 0.261306 -2.377596
  H 9.178722 -1.438877 -3.916496
 13
 32.494090
  H 4.492495 0.375578 -1.971740
  C 5.465212 -0.022835 -1.652756
  C 5.708906 -1.446966 -2.055635
  C 6.870912 -2.010662 -1.727787
  C 7.739100 -2.406700 -2.826512
  C 8.747494 -1.577241 -3.067750
  H 5.623697 0.160427 -0.607414
  H 5.206138 -1.792856 -2.959443
  H 7.367519 -1.619419 -0.815213
  H 7.308884 -3.001463 -3.611311
  H 9.200117 -1.037514 -2.260640
  H 6.290270 0.457091 -2.247781
  H 9.310826 -1.579586 -3.999325
 13
 21.374645
  H 4.329614 0.281895 -1.820788
  C 5.341042 -0.014531 -1.575643
  C 5.729780 -1.347668 -2.131767
  C 6.908443 -1.886352 -1.804532
  C 7.770643 -2.367717 -2.880182
  C 8.861214 -1.638677 -3.104709
  H 5.504969 0.051381 -0.509672
  H 5.219040 -1.675132 -3.037452
  H 7.422050 -1.463114 -0.937515
  H 7.356649 -3.030256 -3.622925
  H 9.281058 -1.007773 -2.336378
  H 6.037434 0.621326 -2.120759
  H 9.458947 -1.741268 -3.993942
 13
 0.807398
  H 3.972280 -0.430275 -1.318079
  C 4.997493 -0.083886 -1.424958
  C 5.786024 -1.004776 -2.295075
  C 7.088711 -1.239284 -2.145401
  C 7.872369 -2.047223 -3.055265
  C 9.200777 -2.063539 -3.053820
  H 5.449800 0.000419 -0.439225
  H 5.252983 -1.464321 -3.117040
  H 7.632030 -0.769940 -1.329060
  H 7.317633 -2.619474 -3.790829
  H 9.759205 -1.482959 -2.340170
  H 4.976775 0.918874 -1.868261
  H 9.777004 -2.633456 -3.761728
