 23
 0.000000
  C 1.007100 0.112392 0.329957
  C 2.481130 0.126937 0.368034
  C 3.231651 0.603305 1.553776
  C 2.412236 1.082089 2.744293
  H 3.084399 1.401250 3.539460
  C 3.143907 -0.329137 -0.766087
  C 4.527205 -0.393668 -0.927257
  C 5.184238 -0.851609 -2.070813
  C 4.530005 -1.344459 -3.298266
  H 3.452881 -1.324769 -3.247264
  O 6.497635 -0.874390 -2.131835
  H 0.546449 0.478009 1.239130
  H 0.653170 -0.901828 0.138479
  H 0.654090 0.712559 -0.510128
  H 3.891598 1.417423 1.235798
  H 3.890979 -0.204791 1.887864
  H 1.782877 0.288371 3.139009
  H 1.783749 1.928835 2.479891
  H 2.520072 -0.657828 -1.584811
  H 5.151373 -0.064648 -0.107290
  H 4.870721 -2.359079 -3.497572
  H 4.869589 -0.748636 -4.143617
  H 6.954062 -0.552091 -1.331653
 23
 -0.052446
  C 1.005950 0.105667 0.335828
  C 2.480211 0.116151 0.370747
  C 3.229449 0.603839 1.551722
  C 2.409716 1.090525 2.740035
  H 3.081508 1.423784 3.527148
  C 3.143146 -0.340706 -0.764126
  C 4.526138 -0.399225 -0.928566
  C 5.183436 -0.852557 -2.069015
  C 4.531523 -1.349579 -3.299520
  H 3.451765 -1.333900 -3.248196
  O 6.493729 -0.868223 -2.128201
  H 0.552297 0.394920 1.275649
  H 0.642292 -0.880828 0.046635
  H 0.656480 0.788430 -0.442071
  H 3.886072 1.418240 1.226482
  H 3.892580 -0.197573 1.890443
  H 1.790346 0.296208 3.149687
  H 1.774795 1.930780 2.468438
  H 2.518003 -0.673437 -1.579786
  H 5.150581 -0.067907 -0.109713
  H 4.874649 -2.365006 -3.497055
  H 4.867525 -0.750146 -4.145844
  H 6.947834 -0.543422 -1.327191
 23
 -0.121497
  C 1.005794 0.097516 0.339465
  C 2.479192 0.107502 0.372112
  C 3.228758 0.606393 1.551334
  C 2.407362 1.098640 2.736845
  H 3.077579 1.446650 3.518342
  C 3.142053 -0.349597 -0.761891
  C 4.525184 -0.401802 -0.928218
  C 5.183420 -0.853525 -2.069127
  C 4.532508 -1.355031 -3.297832
  H 3.452428 -1.345279 -3.244626
  O 6.494182 -0.863196 -2.130097
  H 0.555855 0.307784 1.302064
  H 0.636661 -0.854818 -0.039490
  H 0.658582 0.855379 -0.369291
  H 3.880999 1.421860 1.220305
  H 3.896975 -0.190390 1.895174
  H 1.797533 0.304526 3.156883
  H 1.764187 1.928644 2.457635
  H 2.518192 -0.685244 -1.575353
  H 5.148686 -0.067292 -0.110849
  H 4.881152 -2.369548 -3.495151
  H 4.863668 -0.754280 -4.145166
  H 6.947776 -0.535432 -1.330342
 23
 -0.240452
  C 1.006292 0.091009 0.345756
  C 2.479797 0.098270 0.374285
  C 3.227825 0.611072 1.547769
  C 2.404365 1.104935 2.729687
  H 3.072531 1.468564 3.506348
  C 3.142764 -0.359689 -0.758825
  C 4.526098 -0.405881 -0.926538
  C 5.185037 -0.854997 -2.067982
  C 4.535099 -1.357531 -3.296257
  H 3.454891 -1.350237 -3.242683
  O 6.495575 -0.859619 -2.130209
  H 0.561933 0.225274 1.324479
  H 0.629799 -0.822185 -0.111976
  H 0.661552 0.911361 -0.289306
  H 3.871735 1.430221 1.209283
  H 3.904297 -0.176879 1.896040
  H 1.804380 0.306805 3.159959
  H 1.750011 1.924006 2.443593
  H 2.519028 -0.704087 -1.570314
  H 5.149333 -0.068245 -0.109405
  H 4.885985 -2.370792 -3.494085
  H 4.864229 -0.755962 -4.142884
  H 6.948278 -0.531415 -1.331084
 23
 -0.366849
  C 1.007397 0.079334 0.352517
  C 2.480539 0.089028 0.375825
  C 3.227002 0.620430 1.543373
  C 2.401367 1.111927 2.723298
  H 3.065970 1.492659 3.492978
  C 3.144228 -0.371681 -0.755644
  C 4.527380 -0.410269 -0.924271
  C 5.188425 -0.855253 -2.067407
  C 4.539284 -1.356713 -3.297933
  H 3.455768 -1.345867 -3.246683
  O 6.498874 -0.863308 -2.126513
  H 0.568732 0.136028 1.341837
  H 0.624854 -0.793056 -0.178430
  H 0.662231 0.954446 -0.203556
  H 3.857778 1.447486 1.196147
  H 3.915412 -0.153170 1.894212
  H 1.813352 0.306984 3.164245
  H 1.733406 1.917648 2.432083
  H 2.521756 -0.723595 -1.564438
  H 5.149175 -0.070362 -0.106895
  H 4.884881 -2.364794 -3.492770
  H 4.873112 -0.755044 -4.146881
  H 6.950573 -0.534615 -1.326486
 23
 -0.533946
  C 1.009186 0.079239 0.358318
  C 2.483345 0.088498 0.373890
  C 3.226850 0.624334 1.539732
  C 2.394115 1.111687 2.717752
  H 3.052878 1.499948 3.488308
  C 3.146872 -0.371149 -0.757752
  C 4.530078 -0.406670 -0.927190
  C 5.191792 -0.856887 -2.066979
  C 4.544838 -1.365892 -3.294994
  H 3.465580 -1.361407 -3.243040
  O 6.501751 -0.854670 -2.128651
  H 0.580929 0.050980 1.352487
  H 0.620756 -0.741473 -0.242494
  H 0.661280 1.004179 -0.107539
  H 3.851824 1.454781 1.192276
  H 3.920632 -0.144674 1.892660
  H 1.812985 0.301919 3.159593
  H 1.717938 1.909630 2.423235
  H 2.524870 -0.734170 -1.563850
  H 5.151210 -0.062234 -0.111285
  H 4.898188 -2.377852 -3.488174
  H 4.873844 -0.765979 -4.144758
  H 6.952688 -0.519738 -1.330515
 23
 -0.708259
  C 1.012886 0.074246 0.362351
  C 2.485235 0.080587 0.373649
  C 3.225638 0.625551 1.537125
  C 2.389816 1.118200 2.710567
  H 3.045039 1.515233 3.478468
  C 3.149568 -0.383641 -0.755538
  C 4.532821 -0.414197 -0.925432
  C 5.196209 -0.858816 -2.066688
  C 4.550349 -1.368933 -3.294159
  H 3.471502 -1.372068 -3.240066
  O 6.506111 -0.846224 -2.130841
  H 0.593388 -0.034333 1.356954
  H 0.616254 -0.692648 -0.299598
  H 0.662870 1.038237 -0.014946
  H 3.848666 1.455367 1.184272
  H 3.920808 -0.137800 1.896211
  H 1.811476 0.310714 3.157551
  H 1.709923 1.911090 2.408434
  H 2.528017 -0.743632 -1.563487
  H 5.152325 -0.063460 -0.112314
  H 4.911960 -2.379797 -3.491673
  H 4.872792 -0.764233 -4.142021
  H 6.956108 -0.505492 -1.335029
 23
 -0.883413
  C 1.010665 0.072518 0.371916
  C 2.484584 0.082739 0.368241
  C 3.227439 0.632587 1.528557
  C 2.391076 1.120788 2.703559
  H 3.043670 1.522545 3.467798
  C 3.146897 -0.382770 -0.761589
  C 4.529430 -0.407926 -0.930839
  C 5.198329 -0.855707 -2.068017
  C 4.561780 -1.376679 -3.295478
  H 3.482210 -1.388794 -3.244881
  O 6.507456 -0.840861 -2.127928
  H 0.610755 -0.123398 1.359382
  H 0.604880 -0.637920 -0.345258
  H 0.653419 1.064248 0.093914
  H 3.843810 1.464732 1.174740
  H 3.927512 -0.125881 1.885489
  H 1.820217 0.310191 3.152653
  H 1.699674 1.911840 2.401452
  H 2.526625 -0.748982 -1.568096
  H 5.146420 -0.051827 -0.114874
  H 4.932935 -2.386542 -3.487610
  H 4.881918 -0.771996 -4.145317
  H 6.953865 -0.502068 -1.327477
 23
 -1.046363
  C 1.015932 0.069526 0.374582
  C 2.487128 0.085095 0.364215
  C 3.226825 0.637391 1.525326
  C 2.385991 1.130429 2.694844
  H 3.035630 1.534209 3.462472
  C 3.151263 -0.382734 -0.762301
  C 4.535091 -0.407157 -0.931428
  C 5.202535 -0.855040 -2.068509
  C 4.562588 -1.378637 -3.294541
  H 3.482199 -1.398385 -3.239025
  O 6.512762 -0.839028 -2.128646
  H 0.634576 -0.214700 1.351501
  H 0.605826 -0.584538 -0.393044
  H 0.647907 1.080434 0.194851
  H 3.845846 1.467792 1.171031
  H 3.924850 -0.123230 1.888054
  H 1.809363 0.321853 3.142389
  H 1.700284 1.917875 2.387840
  H 2.531820 -0.749670 -1.569138
  H 5.151007 -0.050736 -0.118453
  H 4.938752 -2.382590 -3.489938
  H 4.873783 -0.772722 -4.142048
  H 6.959020 -0.495545 -1.332189
 23
 -1.173187
  C 1.019750 0.066445 0.379376
  C 2.490119 0.089819 0.359985
  C 3.227300 0.641315 1.523410
  C 2.380359 1.142019 2.684762
  H 3.027936 1.549710 3.455774
  C 3.155178 -0.377191 -0.765921
  C 4.539492 -0.403153 -0.933943
  C 5.206016 -0.853218 -2.070160
  C 4.564988 -1.383878 -3.292060
  H 3.485638 -1.408265 -3.233237
  O 6.516204 -0.832299 -2.133900
  H 0.659466 -0.307604 1.337145
  H 0.604878 -0.525325 -0.431077
  H 0.638401 1.086612 0.298807
  H 3.856462 1.465280 1.171751
  H 3.917095 -0.124334 1.895558
  H 1.800067 0.338794 3.131641
  H 1.697968 1.927707 2.370543
  H 2.536573 -0.745456 -1.571020
  H 5.156234 -0.043894 -0.121328
  H 4.945575 -2.387265 -3.485401
  H 4.871655 -0.778717 -4.144082
  H 6.963245 -0.488066 -1.338460
 23
 -1.171863
  C 1.021406 0.032797 0.399584
  C 2.489482 0.080234 0.361553
  C 3.226260 0.644637 1.518565
  C 2.377104 1.181359 2.661722
  H 3.023983 1.614183 3.421367
  C 3.158072 -0.385805 -0.763270
  C 4.542304 -0.409133 -0.930295
  C 5.210378 -0.850422 -2.069389
  C 4.570155 -1.351997 -3.304782
  H 3.488596 -1.331820 -3.265782
  O 6.521127 -0.842878 -2.125096
  H 0.701431 -0.403954 1.347245
  H 0.605332 -0.531991 -0.428983
  H 0.612385 1.043791 0.388553
  H 3.874049 1.449411 1.158669
  H 3.897747 -0.126490 1.912407
  H 1.794687 0.396087 3.131895
  H 1.696993 1.958175 2.320499
  H 2.540936 -0.748804 -1.571088
  H 5.158596 -0.068280 -0.109120
  H 4.910742 -2.368581 -3.492378
  H 4.918362 -0.760362 -4.149914
  H 6.967339 -0.522763 -1.319273
 23
 -1.207649
  C 1.063863 -0.451165 0.486705
  C 2.480034 -0.064373 0.370584
  C 3.098169 0.740718 1.456364
  C 2.187688 1.143535 2.605742
  H 2.742503 1.765218 3.306349
  C 3.214017 -0.457229 -0.740898
  C 4.570497 -0.202732 -0.946700
  C 5.295481 -0.562876 -2.079045
  C 4.749586 -1.250121 -3.268087
  H 3.684255 -1.430481 -3.206086
  O 6.576102 -0.291023 -2.173057
  H 0.910035 -0.951411 1.442786
  H 0.740180 -1.102071 -0.322825
  H 0.432615 0.435060 0.514147
  H 3.524322 1.645891 1.013514
  H 3.946072 0.177263 1.863779
  H 1.821546 0.274866 3.150162
  H 1.334045 1.715852 2.257456
  H 2.676043 -1.002166 -1.501153
  H 5.113630 0.319463 -0.168358
  H 5.273346 -2.194045 -3.404508
  H 4.970303 -0.655389 -4.153678
  H 6.961584 0.157684 -1.397775
 23
 -1.274923
  C 1.043193 -0.304557 0.446248
  C 2.478457 -0.006770 0.359624
  C 3.125603 0.742616 1.464445
  C 2.234851 1.108992 2.641206
  H 2.814218 1.664133 3.374790
  C 3.196660 -0.430667 -0.751000
  C 4.566780 -0.252134 -0.943955
  C 5.282807 -0.656825 -2.066782
  C 4.715131 -1.334486 -3.252531
  H 3.651090 -1.504903 -3.178941
  O 6.575878 -0.447367 -2.152181
  H 0.852699 -0.879131 1.356295
  H 0.682147 -0.861457 -0.413400
  H 0.467818 0.612431 0.556516
  H 3.551665 1.662162 1.050102
  H 3.976167 0.158436 1.834894
  H 1.838951 0.223218 3.131439
  H 1.401986 1.734194 2.334301
  H 2.636982 -0.940670 -1.517359
  H 5.129898 0.238078 -0.160228
  H 5.230009 -2.282772 -3.399678
  H 4.928618 -0.738055 -4.137040
  H 6.975585 -0.007454 -1.377391
 23
 -1.241584
  C 1.036561 -0.279692 0.430657
  C 2.474629 0.009139 0.348543
  C 3.119425 0.760512 1.455050
  C 2.239194 1.084536 2.654328
  H 2.822690 1.624926 3.396841
  C 3.197284 -0.426233 -0.753302
  C 4.567452 -0.248901 -0.944537
  C 5.285972 -0.664401 -2.062388
  C 4.723861 -1.364049 -3.234981
  H 3.665531 -1.569823 -3.143857
  O 6.577335 -0.448713 -2.151332
  H 0.856155 -0.892774 1.313080
  H 0.666117 -0.797324 -0.448336
  H 0.463129 0.635447 0.591941
  H 3.506868 1.700674 1.043689
  H 3.993583 0.204570 1.800372
  H 1.859079 0.179764 3.123340
  H 1.393792 1.710283 2.376874
  H 2.636882 -0.938061 -1.523841
  H 5.127505 0.258537 -0.169307
  H 5.269042 -2.295175 -3.387881
  H 4.903046 -0.761604 -4.126677
  H 6.972061 0.015373 -1.388900
