25

C 1.003838 0.114512 0.371283
C 2.483509 0.127864 0.408732
C 3.243849 0.612524 1.586201
C 2.440362 1.106958 2.786233
C 3.364395 1.568843 3.908432
C 3.114265 -0.34062 -0.731863
C 4.487249 -0.433583 -0.976476
C 5.139251 -0.877936 -2.116155
C 4.618347 -1.386967 -3.416357
H 3.56811140491811 -1.4631888809851834 -3.6063449461494055
H 6.209201400850169 -0.8793797610345443 -2.126355748729257
H 0.542682 0.489481 1.278452
H 0.645641 -0.902866 0.208661
H 0.641306 0.72027 -0.464066
H 3.900705 1.425831 1.256607
H 3.900325 -0.197329 1.924987
H 1.800797 0.308369 3.167584
H 1.80129 1.942847 2.494526
H 4.000078 0.75492 4.25138
H 2.779282 1.918109 4.756221
H 4.000515 2.387949 3.578848
H 2.450995 -0.661077 -1.51899
H 5.123166 -0.112008 -0.158233
H 5.066842 -2.376945 -3.558888
H 5.063768 -0.754402 -4.192883
