 25
 0.000000
  C 1.028628 0.095472 0.329216
  C 2.498940 0.109167 0.383652
  C 3.241397 0.596045 1.557176
  C 2.433793 1.095379 2.748377
  C 3.361139 1.558314 3.867396
  C 3.166649 -0.359574 -0.741572
  C 4.555256 -0.427147 -0.928864
  C 5.173634 -0.864353 -2.077724
  C 4.548596 -1.332769 -3.311060
  H 3.463352 -1.327991 -3.297027
  H 6.257396 -0.865054 -2.084721
  H 0.559881 0.479008 1.227227
  H 0.676240 -0.921820 0.149511
  H 0.685322 0.676459 -0.530519
  H 3.911778 1.398786 1.229152
  H 3.906494 -0.205899 1.897752
  H 1.793678 0.298715 3.131480
  H 1.799712 1.932355 2.450971
  H 3.994224 0.743721 4.211699
  H 2.782282 1.913862 4.715854
  H 4.000034 2.372528 3.532967
  H 2.538988 -0.693295 -1.557107
  H 5.195413 -0.114181 -0.115551
  H 4.909256 -2.339149 -3.532122
  H 4.907689 -0.726404 -4.144629
 25
 0.137730
  C 1.025703 0.092176 0.336000
  C 2.494688 0.075346 0.391551
  C 3.241891 0.580130 1.560442
  C 2.432707 1.089751 2.748279
  C 3.359416 1.550051 3.869551
  C 3.156018 -0.398633 -0.737199
  C 4.542258 -0.393966 -0.945672
  C 5.166672 -0.835069 -2.087347
  C 4.548364 -1.375477 -3.295722
  H 3.465855 -1.409838 -3.269636
  H 6.247214 -0.779308 -2.110513
  H 0.549002 0.313580 1.281939
  H 0.628235 -0.825826 -0.092923
  H 0.773760 0.882786 -0.377642
  H 3.909104 1.383135 1.225543
  H 3.909623 -0.217315 1.908176
  H 1.786745 0.298800 3.133407
  H 1.805345 1.929473 2.444995
  H 3.986028 0.732192 4.218405
  H 2.779965 1.911901 4.715177
  H 4.005068 2.358976 3.535126
  H 2.535926 -0.797327 -1.527628
  H 5.175334 -0.012102 -0.157802
  H 4.943041 -2.377843 -3.478375
  H 4.875838 -0.790149 -4.157889
 25
 2.124583
  C 1.030649 0.048333 0.371725
  C 2.495459 0.068038 0.387865
  C 3.246888 0.559480 1.561954
  C 2.430121 1.095577 2.733703
  C 3.349860 1.561309 3.858640
  C 3.146360 -0.400115 -0.748824
  C 4.529130 -0.340283 -0.975127
  C 5.162291 -0.800730 -2.104680
  C 4.553787 -1.405093 -3.288462
  H 3.470950 -1.440902 -3.264309
  H 6.240544 -0.711938 -2.136272
  H 0.541978 0.085039 1.334450
  H 0.599311 -0.668951 -0.316596
  H 0.907216 1.035309 -0.104055
  H 3.944950 1.339427 1.239902
  H 3.872339 -0.265849 1.922279
  H 1.771551 0.318716 3.125310
  H 1.816099 1.937683 2.410531
  H 3.955715 0.739019 4.232709
  H 2.766110 1.951723 4.688442
  H 4.016208 2.350253 3.517133
  H 2.530589 -0.846667 -1.515747
  H 5.153865 0.093292 -0.207871
  H 4.948531 -2.416280 -3.413316
  H 4.883426 -0.865705 -4.178631
 25
 13.820311
  C 1.017676 0.011261 0.404169
  C 2.465199 0.104805 0.366563
  C 3.237895 0.591588 1.540426
  C 2.424781 1.089840 2.733886
  C 3.352742 1.524092 3.864781
  C 3.125376 -0.393791 -0.758430
  C 4.505120 -0.301992 -0.990568
  C 5.150418 -0.760492 -2.116611
  C 4.564707 -1.460212 -3.264715
  H 3.492669 -1.603439 -3.195594
  H 6.215702 -0.581830 -2.183877
  H 0.477863 0.145503 1.324998
  H 0.529013 -0.552721 -0.377279
  H 1.203439 1.046053 -0.051240
  H 3.913419 1.391845 1.224922
  H 3.869171 -0.237806 1.874644
  H 1.774168 0.298192 3.107436
  H 1.807493 1.941691 2.443800
  H 3.946575 0.686789 4.224167
  H 2.776791 1.910652 4.701826
  H 4.031244 2.307390 3.534071
  H 2.522738 -0.909147 -1.491470
  H 5.115991 0.193172 -0.249620
  H 5.050888 -2.431708 -3.375983
  H 4.800825 -0.914228 -4.179807
 25
 29.254470
  C 1.002705 -0.063750 0.456942
  C 2.416422 0.111113 0.359651
  C 3.219634 0.607436 1.527396
  C 2.419412 1.090376 2.737001
  C 3.361957 1.543829 3.847923
  C 3.103200 -0.420364 -0.762993
  C 4.478369 -0.327434 -0.977340
  C 5.136675 -0.776133 -2.094567
  C 4.556539 -1.425854 -3.279143
  H 3.476930 -1.513677 -3.248450
  H 6.209289 -0.641248 -2.126126
  H 0.454746 0.165368 1.351771
  H 0.476719 -0.573626 -0.335306
  H 1.505312 0.995560 -0.088614
  H 3.871279 1.420723 1.199687
  H 3.866681 -0.212613 1.847375
  H 1.794206 0.284983 3.124027
  H 1.778888 1.929853 2.461230
  H 3.989269 0.721724 4.184886
  H 2.796434 1.906771 4.702509
  H 4.008613 2.349138 3.506391
  H 2.506792 -0.926171 -1.507231
  H 5.084613 0.138670 -0.214961
  H 4.993884 -2.419660 -3.392518
  H 4.849391 -0.874809 -4.174054
 25
 38.542054
  C 0.987678 -0.101708 0.486303
  C 2.387774 0.146515 0.352521
  C 3.210700 0.639006 1.526454
  C 2.414847 1.085731 2.752476
  C 3.360535 1.539815 3.860340
  C 3.091073 -0.407900 -0.781894
  C 4.461417 -0.323158 -0.991050
  C 5.121646 -0.788220 -2.102121
  C 4.541730 -1.442845 -3.284241
  H 3.461054 -1.519562 -3.259929
  H 6.195921 -0.666614 -2.127508
  H 0.444889 0.146260 1.378503
  H 0.447287 -0.580496 -0.313836
  H 1.784576 1.026819 -0.176691
  H 3.839825 1.470666 1.203750
  H 3.876254 -0.172820 1.826581
  H 1.810254 0.261322 3.132253
  H 1.754205 1.916330 2.497410
  H 4.009364 0.725574 4.174951
  H 2.797574 1.875261 4.727943
  H 3.985471 2.364854 3.525462
  H 2.488498 -0.919016 -1.517850
  H 5.067208 0.145263 -0.229514
  H 4.969830 -2.441940 -3.386338
  H 4.845842 -0.902520 -4.181991
 25
 41.018916
  C 0.980902 -0.105358 0.504566
  C 2.367242 0.194114 0.344058
  C 3.204003 0.667988 1.527563
  C 2.412008 1.077123 2.768404
  C 3.359145 1.522594 3.878354
  C 3.078070 -0.378685 -0.803034
  C 4.445681 -0.301863 -1.012197
  C 5.102134 -0.802025 -2.111427
  C 4.518672 -1.473150 -3.278830
  H 3.436727 -1.531846 -3.261775
  H 6.179112 -0.704013 -2.130765
  H 0.449958 0.122847 1.408149
  H 0.430515 -0.563699 -0.299026
  H 2.051046 1.074110 -0.312136
  H 3.819067 1.515396 1.221594
  H 3.880385 -0.142251 1.806550
  H 1.822144 0.236327 3.135240
  H 1.736813 1.901908 2.533694
  H 4.026560 0.713543 4.166540
  H 2.797984 1.825329 4.758999
  H 3.964557 2.367737 3.558182
  H 2.466492 -0.890143 -1.531731
  H 5.053823 0.173227 -0.256594
  H 4.932266 -2.480515 -3.355449
  H 4.839508 -0.959314 -4.186308
 25
 42.399058
  C 0.982003 -0.087039 0.514395
  C 2.351216 0.210833 0.351749
  C 3.194664 0.684895 1.531289
  C 2.408527 1.077589 2.780953
  C 3.360336 1.514991 3.889755
  C 3.058304 -0.359761 -0.814090
  C 4.433667 -0.293099 -1.022268
  C 5.082617 -0.809957 -2.112891
  C 4.493900 -1.488725 -3.273967
  H 3.411210 -1.532884 -3.262681
  H 6.160804 -0.725330 -2.132276
  H 0.461274 0.107414 1.431411
  H 0.418306 -0.517887 -0.294518
  H 2.310100 1.027071 -0.476334
  H 3.797958 1.542883 1.231553
  H 3.881263 -0.119767 1.802662
  H 1.823026 0.231700 3.142882
  H 1.728887 1.901673 2.556474
  H 4.030702 0.704610 4.167377
  H 2.802992 1.808568 4.775682
  H 3.962259 2.364381 3.574100
  H 2.443600 -0.892401 -1.525168
  H 5.042219 0.185507 -0.269501
  H 4.894662 -2.502234 -3.334865
  H 4.826976 -0.992191 -4.186844
 25
 40.277393
  C 0.979337 -0.063874 0.524231
  C 2.323910 0.207257 0.378324
  C 3.174004 0.673224 1.541611
  C 2.403015 1.058292 2.804614
  C 3.366786 1.517290 3.894423
  C 3.020472 -0.280922 -0.836728
  C 4.417887 -0.239306 -1.036840
  C 5.068034 -0.795418 -2.098391
  C 4.481406 -1.504499 -3.245282
  H 3.398569 -1.536697 -3.242763
  H 6.146730 -0.722997 -2.111699
  H 0.460128 0.122438 1.444059
  H 0.398242 -0.459859 -0.290248
  H 2.471874 0.922783 -0.659424
  H 3.771530 1.535553 1.240796
  H 3.868056 -0.131151 1.796402
  H 1.838611 0.203627 3.179318
  H 1.705075 1.868625 2.587714
  H 4.059318 0.721684 4.159571
  H 2.820166 1.799979 4.790700
  H 3.944141 2.379059 3.566852
  H 2.405586 -0.816016 -1.547006
  H 5.022254 0.251133 -0.288447
  H 4.869807 -2.524083 -3.270666
  H 4.827483 -1.040163 -4.169438
 25
 30.250991
  C 0.982795 -0.043961 0.512582
  C 2.307245 0.207020 0.404034
  C 3.165022 0.674113 1.537633
  C 2.418541 1.018535 2.827236
  C 3.399155 1.480373 3.900309
  C 2.977130 -0.176166 -0.883047
  C 4.401602 -0.170901 -1.062956
  C 5.061883 -0.789833 -2.079360
  C 4.483577 -1.553161 -3.192300
  H 3.400289 -1.578153 -3.200349
  H 6.141887 -0.726790 -2.082233
  H 0.446733 0.130679 1.426725
  H 0.405119 -0.420575 -0.313771
  H 2.568085 0.908387 -0.949640
  H 3.730897 1.558007 1.233721
  H 3.891705 -0.113806 1.754846
  H 1.883050 0.143356 3.197261
  H 1.696206 1.815285 2.642407
  H 4.116503 0.696559 4.133249
  H 2.869110 1.733500 4.815172
  H 3.947460 2.361542 3.574361
  H 2.374538 -0.771954 -1.557887
  H 4.995804 0.352760 -0.329106
  H 4.866380 -2.575177 -3.161231
  H 4.844522 -1.141580 -4.136133
 25
 20.659358
  C 0.972908 -0.025864 0.508312
  C 2.294770 0.213238 0.408050
  C 3.156945 0.693257 1.520483
  C 2.440214 0.983633 2.838816
  C 3.437818 1.440467 3.898319
  C 2.925189 -0.074497 -0.924806
  C 4.371374 -0.098598 -1.074582
  C 5.046854 -0.774757 -2.043011
  C 4.482540 -1.593803 -3.120005
  H 3.399315 -1.617710 -3.141872
  H 6.127372 -0.715576 -2.031420
  H 0.428538 0.117935 1.423716
  H 0.398507 -0.384363 -0.328799
  H 2.572593 0.931599 -1.260687
  H 3.675664 1.605636 1.212196
  H 3.928864 -0.063681 1.694770
  H 1.935588 0.084537 3.195466
  H 1.692861 1.765618 2.696247
  H 4.180698 0.669333 4.090081
  H 2.926376 1.653989 4.833715
  H 3.954274 2.344639 3.583661
  H 2.367935 -0.786973 -1.526567
  H 4.952461 0.466923 -0.361913
  H 4.865231 -2.613298 -3.034150
  H 4.860288 -1.234421 -4.079182
 25
 17.459999
  C 0.945243 0.053841 0.502663
  C 2.283356 0.206559 0.408289
  C 3.149560 0.688026 1.513612
  C 2.456063 0.971964 2.843915
  C 3.470526 1.417438 3.892437
  C 2.896673 -0.097449 -0.920672
  C 4.354469 -0.083611 -1.061425
  C 5.046816 -0.741343 -2.029566
  C 4.501211 -1.583042 -3.098986
  H 3.418772 -1.635447 -3.117673
  H 6.124920 -0.647517 -2.025337
  H 0.405296 0.246614 1.411524
  H 0.355577 -0.284249 -0.332457
  H 2.492347 0.745735 -1.513411
  H 3.657134 1.603782 1.192841
  H 3.935957 -0.058501 1.673101
  H 1.950890 0.072774 3.200441
  H 1.710049 1.758396 2.719854
  H 4.225262 0.650793 4.053451
  H 2.976291 1.606542 4.842215
  H 3.970815 2.333464 3.586089
  H 2.438368 -0.978426 -1.375454
  H 4.919776 0.508339 -0.358039
  H 4.911118 -2.591847 -3.009942
  H 4.868940 -1.220591 -4.060959
 25
 18.077233
  C 0.936737 0.167198 0.476755
  C 2.289124 0.169217 0.431689
  C 3.154048 0.656069 1.535111
  C 2.453611 0.990843 2.849404
  C 3.468902 1.410272 3.907922
  C 2.903083 -0.237630 -0.863014
  C 4.352544 -0.112390 -1.049958
  C 5.045475 -0.681050 -2.071216
  C 4.510727 -1.538089 -3.135387
  H 3.435076 -1.668444 -3.103205
  H 6.112086 -0.505026 -2.116524
  H 0.386523 0.583868 1.300461
  H 0.347087 -0.278164 -0.306550
  H 2.402222 0.449056 -1.571044
  H 3.693858 1.548072 1.198849
  H 3.916326 -0.108934 1.721096
  H 1.902143 0.121353 3.211029
  H 1.744995 1.807302 2.701758
  H 4.179903 0.609719 4.100929
  H 2.968059 1.648300 4.842859
  H 4.023956 2.289823 3.589086
  H 2.538774 -1.221149 -1.177892
  H 4.903562 0.487551 -0.342485
  H 4.992614 -2.517346 -3.089586
  H 4.803992 -1.128179 -4.103574
 25
 16.793531
  C 0.930235 0.139415 0.492786
  C 2.278013 0.209932 0.413296
  C 3.145528 0.688383 1.518736
  C 2.454326 0.994819 2.844497
  C 3.475700 1.411590 3.898379
  C 2.900902 -0.206568 -0.875419
  C 4.358269 -0.123727 -1.031426
  C 5.050079 -0.706634 -2.046990
  C 4.502408 -1.526671 -3.132885
  H 3.421048 -1.606898 -3.127036
  H 6.122566 -0.566584 -2.070834
  H 0.386769 0.425396 1.374834
  H 0.336370 -0.210702 -0.334612
  H 2.433514 0.429007 -1.648161
  H 3.664900 1.593677 1.185814
  H 3.923183 -0.063814 1.690751
  H 1.919791 0.111873 3.199095
  H 1.732951 1.803502 2.716574
  H 4.199424 0.618336 4.074027
  H 2.980504 1.629030 4.841887
  H 4.013109 2.304909 3.587751
  H 2.539375 -1.206952 -1.145812
  H 4.917618 0.453946 -0.313029
  H 4.939210 -2.527243 -3.084774
  H 4.839635 -1.125777 -4.090937
