 19
 0.000000
  C 0.990777 0.162548 0.455797
  C 2.449572 0.125026 0.362327
  H 3.041243 0.462101 1.201535
  C 3.046557 -0.338137 -0.791069
  C 4.432080 -0.421046 -0.998027
  C 5.094892 -0.869939 -2.117294
  C 4.634241 -1.386654 -3.405496
  C 3.157482 -1.517386 -3.731523
  H 3.046551 -1.919756 -4.734774
  H 6.177083 -0.846826 -2.059927
  H 0.639726 0.545562 1.409534
  H 0.578212 -0.837140 0.300207
  H 0.578056 0.776944 -0.347949
  H 2.385250 -0.655806 -1.581933
  H 5.066787 -0.094545 -0.184540
  H 5.117589 -2.366824 -3.529632
  H 5.117769 -0.764140 -4.172590
  H 2.661800 -0.550045 -3.703968
  H 2.661792 -2.197636 -3.043190
 19
 -0.356087
  C 0.729271 -0.012699 0.304033
  C 2.188356 -0.065096 0.330489
  H 2.705628 0.236295 1.231129
  C 2.898621 -0.476970 -0.775536
  C 4.297234 -0.595248 -0.798407
  C 5.102591 -0.960267 -1.854640
  C 4.818794 -1.271214 -3.254058
  C 3.404267 -1.254093 -3.802844
  H 3.430839 -1.489724 -4.863800
  H 6.161185 -1.017976 -1.627667
  H 0.301728 0.206542 1.277085
  H 0.314610 -0.942996 -0.088028
  H 0.402840 0.760135 -0.399036
  H 2.333114 -0.733492 -1.657103
  H 4.811298 -0.388787 0.129330
  H 5.276863 -2.251631 -3.452217
  H 5.446371 -0.589263 -3.848063
  H 2.949124 -0.272908 -3.691684
  H 2.782535 -2.001142 -3.315212
 19
 -0.365952
  C 0.682584 -0.062165 0.272573
  C 2.144325 -0.008035 0.288122
  H 2.652082 0.444885 1.130455
  C 2.874694 -0.485494 -0.783961
  C 4.273721 -0.518747 -0.798645
  C 5.105565 -0.905672 -1.824741
  C 4.847526 -1.280542 -3.212202
  C 3.437205 -1.342506 -3.766736
  H 3.481023 -1.596769 -4.823569
  H 6.162210 -0.908238 -1.579552
  H 0.251752 0.113064 1.256377
  H 0.322500 -1.001438 -0.149814
  H 0.300357 0.715948 -0.400554
  H 2.325190 -0.868385 -1.629372
  H 4.761074 -0.229661 0.112720
  H 5.354270 -2.243261 -3.377167
  H 5.450326 -0.593075 -3.826386
  H 2.933327 -0.383813 -3.675906
  H 2.850032 -2.110750 -3.269259
 19
 -0.224883
  C 0.599321 -0.133521 0.196609
  C 2.055620 -0.027395 0.219347
  H 2.520807 0.472608 1.053951
  C 2.830821 -0.494333 -0.819658
  C 4.232503 -0.545253 -0.757874
  C 5.120336 -0.921431 -1.741163
  C 4.939641 -1.239203 -3.156585
  C 3.564933 -1.249089 -3.794939
  H 3.666476 -1.457852 -4.856359
  H 6.158551 -0.957755 -1.433592
  H 0.166307 -0.051665 1.188439
  H 0.267333 -1.041480 -0.306825
  H 0.193334 0.699861 -0.393999
  H 2.321325 -0.876019 -1.688792
  H 4.664670 -0.293526 0.201458
  H 5.438192 -2.203935 -3.331675
  H 5.588922 -0.539972 -3.705069
  H 3.074188 -0.286636 -3.690360
  H 2.937124 -2.026924 -3.368086
 19
 1.468312
  C 0.344255 -0.353245 -0.193074
  C 1.773931 -0.129096 -0.017085
  H 2.090576 0.379836 0.880222
  C 2.710003 -0.479594 -0.966771
  C 4.056057 -0.680585 -0.624786
  C 5.115279 -1.006548 -1.438257
  C 5.239923 -1.080027 -2.895196
  C 4.041877 -0.846040 -3.792637
  H 4.354688 -0.914413 -4.829496
  H 6.043772 -1.220618 -0.924157
  H -0.171622 -0.426901 0.760586
  H 0.142167 -1.219185 -0.822004
  H -0.090899 0.509558 -0.714223
  H 2.361144 -0.705116 -1.962965
  H 4.252877 -0.638685 0.438167
  H 5.698621 -2.050640 -3.131341
  H 6.034603 -0.367685 -3.160716
  H 3.618800 0.140546 -3.636129
  H 3.276785 -1.601379 -3.632928
 19
 7.831213
  C 1.044016 -0.061358 0.702537
  C 2.305286 0.359849 0.107973
  H 2.778325 1.232445 0.545683
  C 2.869030 -0.180254 -1.032592
  C 4.250625 -0.417736 -1.031226
  C 5.043906 -0.993718 -1.991760
  C 4.748065 -1.441059 -3.358626
  C 3.326937 -1.390315 -3.889200
  H 3.309114 -1.785964 -4.901300
  H 6.074220 -1.157408 -1.705279
  H 0.980401 0.230339 1.747545
  H 0.874948 -1.130228 0.576937
  H 0.214967 0.437607 0.185440
  H 2.224976 -0.560404 -1.808648
  H 4.714526 -0.154192 -0.088716
  H 5.145724 -2.459148 -3.460841
  H 5.398984 -0.843175 -4.012303
  H 2.955840 -0.371974 -3.923552
  H 2.662112 -2.004131 -3.286533
 19
 20.249707
  C 1.253586 -0.036858 0.852482
  C 2.298139 0.484008 -0.021747
  H 2.666928 1.476391 0.214608
  C 2.687071 -0.099021 -1.235991
  C 4.054167 -0.377867 -1.128264
  C 4.943596 -1.027388 -1.941293
  C 4.760159 -1.548668 -3.300257
  C 3.389070 -1.440552 -3.944566
  H 3.419969 -1.887825 -4.934463
  H 5.925734 -1.214294 -1.528634
  H 1.324486 0.374166 1.854207
  H 1.249472 -1.125296 0.873129
  H 0.275964 0.258346 0.445840
  H 1.987572 -0.506186 -1.950559
  H 4.411956 -0.003231 -0.168223
  H 5.088312 -2.594940 -3.302132
  H 5.501017 -1.028775 -3.923229
  H 3.087883 -0.396071 -4.055870
  H 2.643814 -1.974571 -3.361670
 19
 32.746765
  C 1.410030 -0.163779 0.854542
  C 2.241735 0.537475 -0.117297
  H 2.469866 1.564725 0.105541
  C 2.547828 0.050115 -1.407660
  C 3.911636 -0.196540 -1.219385
  C 4.880387 -0.888382 -1.893653
  C 4.780464 -1.565853 -3.195697
  C 3.436088 -1.556993 -3.899116
  H 3.509798 -2.114738 -4.825430
  H 5.851036 -0.979292 -1.411838
  H 1.588590 0.178003 1.868777
  H 1.524584 -1.237702 0.785169
  H 0.354545 0.049250 0.606245
  H 1.852746 -0.317133 -2.130426
  H 4.186051 0.263051 -0.256179
  H 5.133012 -2.598065 -3.067735
  H 5.531945 -1.089442 -3.845286
  H 3.131512 -0.544055 -4.141716
  H 2.675185 -2.027553 -3.282309
 19
 44.333917
  C 1.676131 -0.190896 0.934180
  C 2.248747 0.517335 -0.226874
  H 2.342011 1.598450 -0.143563
  C 2.250631 -0.061596 -1.561769
  C 3.594250 -0.208794 -1.333773
  C 4.731910 -0.767532 -1.831828
  C 4.827043 -1.468201 -3.134445
  C 3.532253 -1.637467 -3.912463
  H 3.731050 -2.175707 -4.835882
  H 5.652885 -0.691463 -1.273673
  H 1.934440 0.279250 1.878699
  H 1.945830 -1.244207 0.953701
  H 0.590561 -0.148007 0.808335
  H 1.501768 -0.489527 -2.183777
  H 3.747706 0.341368 -0.315189
  H 5.283677 -2.447525 -2.952534
  H 5.553588 -0.917256 -3.742882
  H 3.103721 -0.672857 -4.168524
  H 2.810057 -2.210740 -3.339010
 19
 41.986044
  C 1.793027 -0.228652 0.970145
  C 2.334723 0.491234 -0.237420
  H 2.297991 1.582008 -0.202100
  C 2.128253 -0.121813 -1.580386
  C 3.450338 -0.312113 -1.446212
  C 4.654043 -0.783087 -1.826933
  C 4.855439 -1.455803 -3.130477
  C 3.601280 -1.661841 -3.965514
  H 3.857596 -2.172915 -4.887459
  H 5.528458 -0.666295 -1.209672
  H 2.102976 0.256448 1.890829
  H 2.101156 -1.269126 0.989157
  H 0.706731 -0.209971 0.916953
  H 1.293227 -0.491841 -2.121868
  H 3.541484 0.342185 -0.259893
  H 5.343286 -2.419966 -2.935817
  H 5.585267 -0.865662 -3.693440
  H 3.142171 -0.710172 -4.221075
  H 2.878507 -2.270204 -3.432473
 19
 36.765470
  C 1.744793 -0.092146 1.091446
  C 2.366782 0.555958 -0.132594
  H 2.188375 1.627610 -0.235553
  C 2.120678 -0.236695 -1.400307
  C 3.394207 -0.522762 -1.542102
  C 4.603337 -0.930786 -1.883268
  C 4.893140 -1.463282 -3.239818
  C 3.694376 -1.578406 -4.160786
  H 4.004840 -2.011211 -5.112046
  H 5.448595 -0.843946 -1.222679
  H 1.985839 0.488473 1.975633
  H 2.104505 -1.109142 1.225509
  H 0.661245 -0.132257 0.984384
  H 1.201041 -0.684023 -1.722007
  H 3.482500 0.490003 -0.016933
  H 5.366279 -2.438981 -3.101649
  H 5.654987 -0.824804 -3.695168
  H 3.256325 -0.600775 -4.357706
  H 2.932078 -2.222450 -3.727616
 19
 22.451285
  C 1.746654 -0.051803 1.284599
  C 2.313646 0.545291 0.004463
  H 1.915706 1.545078 -0.202452
  C 2.144721 -0.401781 -1.153115
  C 3.317799 -0.733174 -1.626067
  C 4.495628 -1.186810 -1.977204
  C 4.928355 -1.478810 -3.362097
  C 3.834058 -1.359531 -4.406329
  H 4.234932 -1.596859 -5.384203
  H 5.266579 -1.293282 -1.222871
  H 1.865583 0.653094 2.093532
  H 2.260674 -0.963778 1.544480
  H 0.687407 -0.277964 1.173965
  H 1.182912 -0.817037 -1.410483
  H 3.394360 0.654772 0.101059
  H 5.362448 -2.479568 -3.364588
  H 5.757642 -0.801212 -3.599895
  H 3.428912 -0.343497 -4.435416
  H 3.020223 -2.050269 -4.200277
 19
 14.686079
  C 1.627768 0.287882 1.265614
  C 2.294696 0.594677 -0.068352
  H 1.767105 1.412874 -0.571579
  C 2.302873 -0.592124 -0.976774
  C 3.434537 -0.931427 -1.532145
  C 4.618307 -1.252935 -1.994913
  C 4.975813 -1.525621 -3.400304
  C 3.808492 -1.517989 -4.361720
  H 4.158975 -1.724697 -5.367964
  H 5.441567 -1.313144 -1.289220
  H 1.566165 1.194639 1.863257
  H 2.205448 -0.445219 1.822894
  H 0.623228 -0.101022 1.125213
  H 1.422344 -1.221082 -0.998472
  H 3.331002 0.904167 0.076653
  H 5.500496 -2.483843 -3.446788
  H 5.724436 -0.778586 -3.685638
  H 3.313510 -0.553068 -4.358595
  H 3.077766 -2.278161 -4.099119
 19
 12.795854
  C 1.456775 0.292450 1.235409
  C 2.472235 0.431340 0.115586
  H 2.190229 1.282282 -0.521037
  C 2.517907 -0.742131 -0.799668
  C 3.595230 -1.096573 -1.448764
  C 4.708176 -1.412224 -2.054711
  C 4.941544 -1.477882 -3.513503
  C 3.711089 -1.226423 -4.363451
  H 3.979644 -1.251387 -5.418113
  H 5.565831 -1.669305 -1.440074
  H 1.359027 1.237274 1.770002
  H 1.777152 -0.458974 1.952798
  H 0.480480 0.007759 0.853155
  H 1.606742 -1.323104 -0.891566
  H 3.471899 0.643607 0.502397
  H 5.383865 -2.447401 -3.763558
  H 5.726620 -0.743244 -3.730153
  H 3.276537 -0.256171 -4.135864
  H 2.952757 -1.988670 -4.194172
 19
 13.077947
  C 1.361466 0.346260 1.147587
  C 2.573645 0.344063 0.238251
  H 2.567392 1.240179 -0.397161
  C 2.624522 -0.816405 -0.689647
  C 3.642478 -1.136301 -1.445467
  C 4.748019 -1.358416 -2.104601
  C 4.925677 -1.413169 -3.573333
  C 3.641438 -1.253121 -4.367581
  H 3.864284 -1.240037 -5.431103
  H 5.649703 -1.548070 -1.524767
  H 1.287261 1.300605 1.662807
  H 1.441934 -0.428652 1.906996
  H 0.444156 0.183408 0.587470
  H 1.737792 -1.443505 -0.718702
  H 3.499339 0.405596 0.818084
  H 5.421302 -2.351648 -3.843243
  H 5.647178 -0.626033 -3.825749
  H 3.138213 -0.325720 -4.104370
  H 2.957939 -2.077810 -4.180760
