11

H 1.3416395074946446 0.05167076785999148 0.21999307443634797
C 2.403241 0.059205 0.086406
H 2.9925412350792966 0.008895651604348548 0.9780865495240384
C 2.996884 0.127487 -1.123676
H 2.544167676596036 0.18210613755031516 -2.0916453591931807
C 4.454305 0.13233 -1.209419
C 5.195353 0.194929 -2.318927
O 6.554842 0.195897 -2.33598
H 4.998468 0.079716 -0.276963
H 4.818973 0.251812 -3.326934
H 6.883419 0.14474 -1.429341
