 17
 0.000000
  H 1.491259 0.173679 0.482969
  C 2.568882 0.145333 0.412142
  C 3.308827 0.631349 1.622020
  C 2.357067 1.075338 2.727616
  H 2.914390 1.423605 3.594596
  C 3.129325 -0.305764 -0.711165
  C 4.554297 -0.394215 -0.931732
  C 5.106910 -0.846012 -2.057537
  H 4.535778 -1.186696 -2.906334
  O 6.438145 -0.936024 -2.282034
  H 3.958431 1.468804 1.344924
  H 3.958571 -0.164998 2.001155
  H 1.721841 0.248357 3.039216
  H 1.721729 1.888035 2.380639
  H 2.503611 -0.634514 -1.529625
  H 5.203450 -0.071053 -0.126679
  H 6.894817 -0.619731 -1.493877
 17
 0.501379
  H 1.519256 0.493379 0.353166
  C 2.582336 0.296065 0.363505
  C 3.299163 0.770641 1.592781
  C 2.344282 0.959442 2.766734
  H 2.885280 1.291780 3.650111
  C 3.145831 -0.298344 -0.689595
  C 4.563569 -0.483998 -0.877245
  C 5.095300 -0.948095 -2.009646
  H 4.498930 -1.290819 -2.842399
  O 6.421198 -1.064289 -2.263029
  H 3.794961 1.724326 1.378195
  H 4.075368 0.054702 1.872471
  H 1.843759 0.022817 3.002777
  H 1.587186 1.703661 2.528704
  H 2.524321 -0.603206 -1.521206
  H 5.221436 -0.161227 -0.080323
  H 6.918497 -0.612798 -1.568901
 17
 4.191079
  H 1.591618 0.739413 0.260117
  C 2.613344 0.387907 0.318327
  C 3.327418 0.816837 1.565254
  C 2.365364 0.919901 2.746114
  H 2.897097 1.222812 3.645565
  C 3.113944 -0.364953 -0.661797
  C 4.518403 -0.659326 -0.812219
  C 5.079752 -0.992952 -1.975249
  H 4.513385 -1.301053 -2.842392
  O 6.422670 -1.014587 -2.194024
  H 3.791253 1.796397 1.399701
  H 4.122157 0.112030 1.813127
  H 1.892234 -0.041654 2.933259
  H 1.586819 1.652712 2.544697
  H 2.486924 -0.639948 -1.499534
  H 5.168010 -0.416746 0.019368
  H 6.830404 -0.359236 -1.614475
 17
 10.244979
  H 1.673397 0.877092 0.178802
  C 2.650028 0.414839 0.272680
  C 3.375910 0.824502 1.519446
  C 2.416255 0.917758 2.703845
  H 2.949713 1.223060 3.602114
  C 3.055621 -0.467584 -0.640122
  C 4.444590 -0.850183 -0.774058
  C 5.056295 -0.944882 -1.953392
  H 4.533310 -1.097435 -2.889245
  O 6.413652 -0.863143 -2.094681
  H 3.841743 1.802123 1.365102
  H 4.167324 0.115298 1.757255
  H 1.951591 -0.046730 2.889889
  H 1.631630 1.644878 2.506982
  H 2.415951 -0.712756 -1.478183
  H 5.064939 -0.774726 0.111037
  H 6.706957 -0.162145 -1.500019
 17
 18.819585
  H 1.775549 0.923900 0.161407
  C 2.709121 0.379153 0.249819
  C 3.441759 0.685724 1.524114
  C 2.454874 0.979722 2.649678
  H 2.987506 1.158806 3.582476
  C 3.001246 -0.562168 -0.645897
  C 4.379433 -0.988404 -0.799424
  C 5.046091 -0.897740 -1.954411
  H 4.597949 -1.019399 -2.931534
  O 6.380504 -0.569770 -1.980501
  H 4.088393 1.561296 1.384248
  H 4.074601 -0.151078 1.818865
  H 1.781108 0.134970 2.791797
  H 1.860445 1.859559 2.420401
  H 2.312213 -0.805363 -1.443689
  H 4.985643 -0.944206 0.099625
  H 6.453240 0.155482 -1.348195
 17
 30.852280
  H 1.952957 1.092838 0.073295
  C 2.814152 0.444338 0.189351
  C 3.519354 0.672795 1.491878
  C 2.506733 0.917643 2.610202
  H 3.019449 1.033835 3.561713
  C 2.942724 -0.588240 -0.646664
  C 4.281280 -1.138620 -0.785926
  C 4.997503 -0.934105 -1.903811
  H 4.610649 -1.009249 -2.911422
  O 6.274115 -0.431670 -1.800803
  H 4.174130 1.551772 1.410195
  H 4.145984 -0.177264 1.763545
  H 1.819325 0.076404 2.685714
  H 1.929617 1.819211 2.418898
  H 2.316134 -0.650487 -1.528487
  H 4.876595 -1.089114 0.126629
  H 6.137156 0.304467 -1.190278
 17
 44.387894
  H 2.099523 1.132749 0.024608
  C 2.904615 0.424682 0.164716
  C 3.581113 0.584812 1.497649
  C 2.553149 0.932958 2.572851
  H 3.038418 1.012764 3.542101
  C 2.943966 -0.615719 -0.671580
  C 4.248540 -1.244070 -0.817902
  C 4.988912 -0.916598 -1.906380
  H 4.637446 -0.951883 -2.926457
  O 6.131836 -0.178076 -1.686648
  H 4.325131 1.378992 1.446910
  H 4.092377 -0.330777 1.786248
  H 1.786892 0.158424 2.632879
  H 2.073481 1.881698 2.355697
  H 2.281343 -0.654081 -1.518402
  H 4.841849 -1.219736 0.098595
  H 5.786011 0.485426 -1.064577
 17
 61.053127
  H 2.258086 1.191895 -0.023845
  C 3.027214 0.440172 0.130209
  C 3.659144 0.555114 1.490468
  C 2.598820 0.920332 2.532095
  H 3.045840 0.970505 3.515424
  C 2.960694 -0.632815 -0.680617
  C 4.207761 -1.358210 -0.821051
  C 4.955324 -0.890983 -1.901487
  H 4.670519 -0.955176 -2.928424
  O 5.920710 0.011777 -1.570839
  H 4.419040 1.306442 1.481472
  H 4.127134 -0.389195 1.783446
  H 1.797478 0.160701 2.554109
  H 2.159293 1.888311 2.315800
  H 2.299844 -0.614004 -1.535373
  H 4.813813 -1.338010 0.096250
  H 5.405391 0.594324 -0.963119
 17
 72.880837
  H 2.419801 1.298866 -0.061757
  C 3.142319 0.478436 0.105291
  C 3.734195 0.507301 1.491907
  C 2.663464 0.860245 2.506795
  H 3.090021 0.886592 3.504820
  C 2.969862 -0.597353 -0.718828
  C 4.165012 -1.397015 -0.832717
  C 4.865752 -0.871941 -1.898532
  H 4.547783 -0.863369 -2.930020
  O 5.702987 0.110430 -1.486827
  H 4.530600 1.233091 1.540259
  H 4.164032 -0.476662 1.771316
  H 1.864355 0.127345 2.498880
  H 2.249693 1.835862 2.273077
  H 2.346150 -0.504687 -1.622651
  H 4.770977 -1.389002 0.098016
  H 5.132810 0.593656 -0.844054
 17
 82.863967
  H 2.526883 1.288941 -0.093232
  C 3.243743 0.488205 0.063679
  C 3.802853 0.499932 1.473463
  C 2.710160 0.865280 2.478406
  H 3.107783 0.854848 3.490806
  C 3.031440 -0.634887 -0.728260
  C 4.184353 -1.461681 -0.843818
  C 4.852812 -0.826407 -1.920811
  H 4.593630 -0.900584 -2.969514
  O 5.503768 0.204251 -1.470814
  H 4.616455 1.224689 1.563246
  H 4.198656 -0.480884 1.738365
  H 1.889688 0.153112 2.421759
  H 2.317889 1.859383 2.274465
  H 2.359800 -0.561330 -1.573719
  H 4.804659 -1.461438 0.054344
  H 4.700462 0.690575 -0.720063
 17
 66.122373
  H 2.607926 1.398678 -0.099580
  C 3.326223 0.609147 0.054435
  C 3.828166 0.570129 1.470710
  C 2.708099 0.804026 2.467538
  H 3.085857 0.717680 3.486129
  C 3.112215 -0.596434 -0.714907
  C 4.210234 -1.454099 -0.786745
  C 4.874151 -0.908120 -1.966096
  H 4.562338 -1.104405 -3.015989
  O 5.510997 0.132370 -1.647818
  H 4.621384 1.316649 1.573766
  H 4.252035 -0.410162 1.673351
  H 1.900552 0.087606 2.326131
  H 2.269099 1.798206 2.340043
  H 2.412375 -0.529823 -1.590076
  H 4.867965 -1.453239 0.071706
  H 4.388510 0.795810 -0.569692
 17
 46.138136
  H 2.602445 1.376200 -0.065420
  C 3.402765 0.656174 0.080652
  C 3.816069 0.578718 1.561442
  C 2.635341 0.822343 2.484300
  H 2.931289 0.702649 3.527188
  C 3.233812 -0.600935 -0.711798
  C 4.337534 -1.397801 -0.841631
  C 4.854845 -0.971872 -2.118994
  H 4.392111 -1.296280 -3.073990
  O 5.616129 -0.030305 -2.035967
  H 4.598440 1.312179 1.761051
  H 4.218828 -0.413251 1.782346
  H 1.838396 0.116416 2.276813
  H 2.245642 1.828303 2.349174
  H 2.516279 -0.570385 -1.518281
  H 5.066644 -1.359060 -0.040885
  H 4.325287 0.963834 -0.497122
 17
 33.625083
  H 2.591077 1.402211 -0.016207
  C 3.446540 0.745953 0.118719
  C 3.797892 0.621941 1.608903
  C 2.566411 0.783630 2.481299
  H 2.823949 0.647569 3.529801
  C 3.332880 -0.510439 -0.683809
  C 4.436308 -1.301222 -0.855731
  C 4.871707 -1.124174 -2.226845
  H 4.305883 -1.580767 -3.062615
  O 5.726959 -0.286725 -2.378670
  H 4.537504 1.376152 1.878745
  H 4.230449 -0.361639 1.810799
  H 1.817651 0.042670 2.220028
  H 2.137826 1.775435 2.356670
  H 2.557777 -0.530561 -1.447591
  H 5.227865 -1.216873 -0.108663
  H 4.319206 1.143029 -0.431024
 17
 21.265260
  H 2.666658 1.532584 0.056891
  C 3.524940 0.894642 0.175126
  C 3.801383 0.676947 1.669080
  C 2.511984 0.685317 2.462205
  H 2.718253 0.505941 3.515174
  C 3.424213 -0.319191 -0.679253
  C 4.478702 -1.130327 -0.877762
  C 4.808995 -1.314533 -2.277337
  H 4.093630 -1.829042 -2.958382
  O 5.755162 -0.693399 -2.686216
  H 4.472536 1.446930 2.019389
  H 4.288740 -0.289625 1.833993
  H 1.840053 -0.098564 2.113985
  H 2.009586 1.641493 2.358366
  H 2.613866 -0.347293 -1.409819
  H 5.314374 -1.081319 -0.199359
  H 4.404807 1.345628 -0.322268
 17
 13.753733
  H 2.580960 1.613395 0.112354
  C 3.497917 1.023338 0.182531
  C 3.797558 0.699949 1.640573
  C 2.517556 0.589810 2.464624
  H 2.748334 0.347862 3.496336
  C 3.474558 -0.145315 -0.773178
  C 4.486556 -1.025141 -0.868953
  C 4.803694 -1.459345 -2.230626
  H 4.025905 -2.016233 -2.804721
  O 5.803257 -1.060326 -2.758045
  H 4.430747 1.476589 2.071259
  H 4.342689 -0.249041 1.702634
  H 1.871331 -0.188798 2.061172
  H 1.977555 1.531046 2.456510
  H 2.717969 -0.121059 -1.536552
  H 5.314133 -0.986581 -0.178034
  H 4.337165 1.596042 -0.244075
