 20
 0.000000
  C 1.111111 0.034000 0.057760
  C 2.607737 0.044036 0.037225
  C 3.323233 0.540084 -0.978533
  C 4.760906 0.549970 -0.998778
  C 5.480769 1.048472 -2.019545
  C 6.919234 1.057283 -2.037600
  C 7.637182 1.552465 -3.051583
  C 9.127092 1.570696 -3.088916
  H 0.749595 -0.416850 0.980967
  H 0.715643 -0.546441 -0.775222
  H 0.715643 1.047814 0.003339
  H 3.107114 -0.377035 0.899433
  H 2.812024 0.958915 -1.836177
  H 5.265144 0.129677 -0.138152
  H 4.977072 1.468852 -2.880367
  H 7.425963 0.637437 -1.177884
  H 7.138791 1.974169 -3.915085
  H 9.561548 1.132837 -2.192305
  H 9.486077 2.597059 -3.177769
  H 9.486081 1.009688 -3.952968
 20
 13.618381
  C 0.948596 0.013004 0.100758
  C 2.615651 0.016947 0.092694
  C 3.370641 0.548782 -0.996347
  C 4.800665 0.558556 -1.016362
  C 5.524757 1.056838 -2.036684
  C 6.960371 1.067842 -2.059224
  C 7.680268 1.561117 -3.069298
  C 9.168884 1.581011 -3.110034
  H 0.595312 -0.436954 1.022141
  H 0.578272 -0.562649 -0.741059
  H 0.578273 1.030837 0.037125
  H 3.106954 -0.402982 0.952569
  H 2.848569 0.963845 -1.846273
  H 5.306018 0.138416 -0.156049
  H 5.020088 1.477099 -2.897253
  H 7.465734 0.647634 -1.198766
  H 7.181272 1.982647 -3.932442
  H 9.599073 1.142578 -2.212250
  H 9.528850 2.606478 -3.201520
  H 9.528851 1.022630 -3.975002
 20
 40.629106
  C 0.773246 0.016443 0.093689
  C 2.669096 -0.016415 0.160987
  C 3.405286 0.535864 -0.969850
  C 4.831269 0.550550 -0.999935
  C 5.557495 1.055392 -2.033694
  C 6.992052 1.074721 -2.073300
  C 7.704557 1.568190 -3.083793
  C 9.188555 1.595510 -3.139738
  H 0.469205 -0.433900 1.015828
  H 0.532494 -0.557425 -0.778771
  H 0.532481 1.057356 0.009820
  H 3.091259 -0.442874 1.034230
  H 2.847930 0.937639 -1.792559
  H 5.346687 0.133180 -0.145299
  H 5.042375 1.473201 -2.889212
  H 7.503191 0.656140 -1.216139
  H 7.195311 1.986469 -3.940322
  H 9.619775 1.158716 -2.245307
  H 9.544547 2.620106 -3.239696
  H 9.544533 1.044321 -4.009208
 20
 70.231444
  C 0.573638 0.022691 0.080889
  C 2.766293 -0.025304 0.179180
  C 3.462426 0.517992 -0.933246
  C 4.886879 0.541651 -0.981707
  C 5.586096 1.046215 -2.014905
  C 7.023494 1.074984 -2.073811
  C 7.719512 1.574066 -3.095807
  C 9.210799 1.611411 -3.172285
  H 0.312045 -0.434692 1.017440
  H 0.389403 -0.565836 -0.802785
  H 0.389392 1.081467 0.001693
  H 3.165020 -0.459875 1.069025
  H 2.891506 0.915433 -1.747082
  H 5.414876 0.130120 -0.139025
  H 5.056761 1.458422 -2.858960
  H 7.546550 0.662021 -1.228146
  H 7.195552 1.987782 -3.942997
  H 9.656830 1.177900 -2.284542
  H 9.559702 2.639893 -3.275107
  H 9.559738 1.060051 -4.046665
 20
 94.815319
  C 0.342471 0.027861 0.070225
  C 2.859711 -0.030561 0.189889
  C 3.519247 0.489034 -0.873973
  C 4.957530 0.525124 -0.947801
  C 5.628770 1.033730 -1.989267
  C 7.071438 1.075895 -2.075664
  C 7.740453 1.580515 -3.108999
  C 9.231434 1.632838 -3.216092
  H 0.126691 -0.430659 1.009195
  H 0.215379 -0.568384 -0.828173
  H 0.215396 1.103065 -0.011900
  H 3.219857 -0.476698 1.103437
  H 2.962985 0.890294 -1.695616
  H 5.500306 0.117747 -0.113635
  H 5.084303 1.439372 -2.819900
  H 7.612908 0.668973 -1.242350
  H 7.199853 1.985292 -3.937901
  H 9.699023 1.207255 -2.344559
  H 9.566940 2.664854 -3.328923
  H 9.567064 1.087075 -4.099608
 20
 110.994923
  C 0.139844 0.035796 0.054062
  C 2.920049 -0.048912 0.227482
  C 3.580471 0.467536 -0.829987
  C 5.021548 0.512264 -0.921506
  C 5.675697 1.027532 -1.976614
  C 7.104745 1.078292 -2.080646
  C 7.757232 1.589917 -3.128335
  C 9.239293 1.652183 -3.255775
  H -0.032014 -0.425528 0.998738
  H 0.093951 -0.556757 -0.834623
  H 0.094003 1.100991 -0.025046
  H 3.212438 -0.497640 1.146344
  H 3.029731 0.875645 -1.665625
  H 5.577890 0.104120 -0.085768
  H 5.115294 1.433315 -2.807546
  H 7.663581 0.671236 -1.247084
  H 7.199476 1.994333 -3.956463
  H 9.726009 1.225152 -2.381293
  H 9.565931 2.688455 -3.372177
  H 9.565982 1.106796 -4.144570
 20
 121.796388
  C -0.072664 0.034465 0.056654
  C 2.978375 -0.058712 0.247587
  C 3.636233 0.452784 -0.799626
  C 5.074912 0.505381 -0.907069
  C 5.713472 1.024093 -1.969245
  C 7.145940 1.083061 -2.090692
  C 7.782199 1.597699 -3.144529
  C 9.264323 1.669057 -3.290362
  H -0.197054 -0.430348 1.008402
  H -0.063841 -0.561300 -0.829527
  H -0.063832 1.099669 -0.018357
  H 3.227401 -0.508946 1.169533
  H 3.090799 0.861647 -1.636710
  H 5.639792 0.100131 -0.077477
  H 5.140799 1.427484 -2.795171
  H 7.717774 0.678924 -1.263168
  H 7.211071 1.999523 -3.967286
  H 9.764250 1.244846 -2.421597
  H 9.583389 2.706589 -3.410408
  H 9.583596 1.125799 -4.182430
 20
 128.228458
  C -0.297339 0.021181 0.083874
  C 3.031269 -0.058497 0.247147
  C 3.687171 0.445990 -0.785815
  C 5.129947 0.504060 -0.904583
  C 5.757772 1.025019 -1.971310
  C 7.186879 1.089314 -2.103202
  C 7.812257 1.606200 -3.161646
  C 9.300719 1.683766 -3.320440
  H -0.371702 -0.443355 1.035112
  H -0.255116 -0.578417 -0.802939
  H -0.255078 1.089274 0.011451
  H 3.247055 -0.511574 1.174934
  H 3.145364 0.855149 -1.623554
  H 5.702707 0.099193 -0.075589
  H 5.178995 1.425758 -2.791934
  H 7.766210 0.687514 -1.280433
  H 7.230642 2.006960 -3.982234
  H 9.809350 1.262790 -2.458358
  H 9.613994 2.717178 -3.442574
  H 9.614136 1.144549 -4.210770
 20
 131.759752
  C -0.526850 -0.002847 0.133118
  C 3.077680 -0.048609 0.226975
  C 3.734097 0.449615 -0.793165
  C 5.184335 0.510013 -0.916701
  C 5.808324 1.031225 -1.983952
  C 7.235743 1.096425 -2.117998
  C 7.858396 1.614809 -3.179536
  C 9.332531 1.692606 -3.338669
  H -0.554060 -0.472085 1.093984
  H -0.470838 -0.601515 -0.752373
  H -0.470793 1.063466 0.060787
  H 3.273239 -0.506622 1.164862
  H 3.192252 0.861272 -1.635960
  H 5.756032 0.106696 -0.090972
  H 5.226182 1.432323 -2.805304
  H 7.817171 0.694976 -1.295990
  H 7.274763 2.016172 -4.001317
  H 9.841430 1.272461 -2.478264
  H 9.644800 2.730348 -3.461062
  H 9.644883 1.151235 -4.232172
 20
 133.654883
  C -0.765924 -0.039439 0.207886
  C 3.118690 -0.029518 0.187925
  C 3.775070 0.459455 -0.813223
  C 5.224597 0.520473 -0.938029
  C 5.849053 1.041379 -2.004626
  C 7.280756 1.106861 -2.139021
  C 7.903615 1.624650 -3.199286
  C 9.383701 1.702670 -3.358959
  H -0.739183 -0.511817 1.175172
  H -0.703995 -0.634170 -0.675114
  H -0.703960 1.022533 0.134019
  H 3.289585 -0.489333 1.129454
  H 3.235916 0.876707 -1.667533
  H 5.789777 0.118990 -0.116052
  H 5.268448 1.441797 -2.824525
  H 7.858560 0.707015 -1.320317
  H 7.329624 2.020007 -4.008801
  H 9.904679 1.274197 -2.481559
  H 9.689039 2.722232 -3.481558
  H 9.689453 1.171894 -4.239470
 20
 134.349996
  C -1.006428 -0.092973 0.317952
  C 3.140143 -0.003506 0.134592
  C 3.803076 0.480303 -0.856288
  C 5.263908 0.536844 -0.972670
  C 5.894664 1.054742 -2.033244
  C 7.324426 1.114534 -2.153569
  C 7.955861 1.629890 -3.208836
  C 9.453357 1.703161 -3.359790
  H -0.940038 -0.557997 1.270289
  H -0.964231 -0.687015 -0.567323
  H -0.964069 0.970140 0.242077
  H 3.297824 -0.468702 1.087097
  H 3.268423 0.901061 -1.718351
  H 5.819303 0.136621 -0.152591
  H 5.308618 1.466985 -2.877419
  H 7.900039 0.708483 -1.321950
  H 7.379024 2.033682 -4.035995
  H 9.956767 1.283711 -2.500795
  H 9.767629 2.733501 -3.481980
  H 9.767884 1.165041 -4.249159
 20
 134.472296
  C -1.233452 -0.148994 0.432563
  C 3.149427 0.027857 0.069861
  C 3.833707 0.511300 -0.920463
  C 5.288461 0.557827 -1.016116
  C 5.936013 1.072447 -2.069986
  C 7.372839 1.126592 -2.179300
  C 8.019131 1.639266 -3.229144
  C 9.488086 1.703327 -3.360711
  H -1.138702 -0.618180 1.393503
  H -1.224332 -0.744601 -0.454080
  H -1.224056 0.917633 0.356768
  H 3.293107 -0.434180 1.016104
  H 3.323315 0.927585 -1.773280
  H 5.851059 0.139932 -0.159797
  H 5.383714 1.470772 -2.885813
  H 7.932515 0.723048 -1.352692
  H 7.455783 2.045028 -4.060362
  H 9.977739 1.277137 -2.488235
  H 9.813292 2.746380 -3.478215
  H 9.812129 1.155729 -4.253280
 20
 134.365596
  C -1.466338 -0.224816 0.589054
  C 3.150511 0.068905 -0.014013
  C 3.847368 0.547051 -0.993507
  C 5.308934 0.583498 -1.068634
  C 5.973174 1.093027 -2.111988
  C 7.409633 1.135470 -2.197952
  C 8.075814 1.643073 -3.237344
  C 9.560645 1.696850 -3.347634
  H -1.345809 -0.691682 1.545150
  H -1.505229 -0.821695 -0.295283
  H -1.504714 0.838594 0.515948
  H 3.290689 -0.395982 0.937947
  H 3.345357 0.970291 -1.860253
  H 5.852152 0.165719 -0.212817
  H 5.421913 1.506026 -2.957732
  H 7.951884 0.729102 -1.365749
  H 7.529361 2.052127 -4.075034
  H 10.034702 1.269225 -2.472690
  H 9.893996 2.731100 -3.459525
  H 9.892149 1.150975 -4.228273
 20
 134.440752
  C -1.692189 -0.307137 0.751339
  C 3.143279 0.106622 -0.092946
  C 3.856826 0.580130 -1.062236
  C 5.317074 0.607475 -1.117236
  C 6.005330 1.113628 -2.153049
  C 7.438228 1.145885 -2.217405
  C 8.120184 1.648860 -3.246846
  C 9.609546 1.693416 -3.337421
  H -1.546036 -0.771081 1.700829
  H -1.769441 -0.902530 -0.123005
  H -1.770743 0.761950 0.681904
  H 3.271327 -0.358547 0.859715
  H 3.372103 1.005580 -1.933853
  H 5.829892 0.196830 -0.275767
  H 5.483458 1.520606 -2.986933
  H 7.985262 0.720117 -1.345114
  H 7.586236 2.061990 -4.093152
  H 10.071108 1.261209 -2.451508
  H 9.948686 2.719999 -3.444577
  H 9.951985 1.143276 -4.219246
