 13
 0.000000
  H 1.397296 0.134013 0.385460
  C 2.468498 0.095379 0.289166
  H 3.051792 0.433662 1.129439
  C 3.063382 -0.361556 -0.847118
  C 4.469487 -0.411054 -0.973059
  C 5.161538 -0.858885 -2.088745
  C 4.597017 -1.352538 -3.320800
  H 3.513877 -1.366138 -3.358149
  H 6.243284 -0.836753 -2.031860
  H 2.443580 -0.692396 -1.667947
  H 5.047540 -0.069555 -0.123843
  H 5.001843 -2.352260 -3.530006
  H 5.003803 -0.775475 -4.162641
 13
 9.858100
  H 1.364426 0.147977 0.420343
  C 2.436663 0.113006 0.333150
  H 3.012024 0.453520 1.179143
  C 3.042762 -0.342473 -0.799656
  C 4.435636 -0.385855 -0.910328
  C 5.205081 -0.885570 -2.155294
  C 4.627359 -1.372353 -3.370182
  H 3.542902 -1.380743 -3.394504
  H 6.283196 -0.861878 -2.094518
  H 2.431539 -0.675831 -1.626967
  H 5.017823 -0.047031 -0.067758
  H 5.025372 -2.373038 -3.582955
  H 5.027313 -0.797130 -4.215270
 13
 29.742477
  H 1.333998 0.130296 0.376175
  C 2.410332 0.110818 0.327758
  H 2.951749 0.459478 1.194600
  C 3.055783 -0.332422 -0.774960
  C 4.432947 -0.353278 -0.829180
  C 5.266949 -0.907574 -2.210172
  C 4.616387 -1.377730 -3.383543
  H 3.534539 -1.364740 -3.354002
  H 6.338094 -0.873464 -2.123568
  H 2.479120 -0.673035 -1.620943
  H 5.051032 -0.026471 -0.016458
  H 4.985288 -2.383195 -3.615387
  H 4.987048 -0.812314 -4.245760
 13
 51.607075
  H 1.286685 0.121608 0.354636
  C 2.367436 0.116991 0.342873
  H 2.878252 0.474436 1.230095
  C 3.059791 -0.321346 -0.746630
  C 4.433543 -0.324986 -0.758044
  C 5.326228 -0.934907 -2.277938
  C 4.619540 -1.386282 -3.405060
  H 3.543864 -1.352303 -3.323711
  H 6.387007 -0.886182 -2.155043
  H 2.511139 -0.668903 -1.608955
  H 5.100575 -0.014803 0.012706
  H 4.956097 -2.396378 -3.653468
  H 4.958095 -0.828691 -4.282163
 13
 73.880777
  H 1.252358 0.140690 0.402487
  C 2.327601 0.139627 0.399227
  H 2.826517 0.496343 1.284238
  C 3.034490 -0.299370 -0.691788
  C 4.398888 -0.299424 -0.694303
  C 5.367547 -0.961537 -2.344173
  C 4.652639 -1.412309 -3.470000
  H 3.569934 -1.375355 -3.381476
  H 6.432869 -0.909614 -2.213243
  H 2.492838 -0.649251 -1.559637
  H 5.076073 0.010450 0.075616
  H 4.987033 -2.429734 -3.722115
  H 4.989216 -0.851940 -4.354905
 13
 94.042183
  H 1.212580 0.147405 0.419538
  C 2.290985 0.153447 0.433598
  H 2.776594 0.514432 1.328657
  C 3.014970 -0.280508 -0.644677
  C 4.378104 -0.273315 -0.629237
  C 5.412267 -0.989762 -2.414329
  C 4.677739 -1.430650 -3.515831
  H 3.601727 -1.384741 -3.405202
  H 6.472329 -0.934390 -2.274740
  H 2.486172 -0.633072 -1.518854
  H 5.071138 0.029358 0.122688
  H 4.997097 -2.449148 -3.773783
  H 4.999410 -0.873474 -4.405581
 13
 111.307418
  H 1.176413 0.157826 0.445468
  C 2.252291 0.171307 0.477897
  H 2.720096 0.534981 1.378907
  C 3.000686 -0.260785 -0.595169
  C 4.351390 -0.246342 -0.561644
  C 5.456465 -1.015873 -2.479282
  C 4.703271 -1.454008 -3.574224
  H 3.624557 -1.402061 -3.448599
  H 6.517260 -0.957007 -2.331009
  H 2.486176 -0.616869 -1.477663
  H 5.057729 0.052422 0.180394
  H 5.012824 -2.476198 -3.837356
  H 5.015189 -0.897616 -4.470188
 13
 125.526236
  H 1.138738 0.165021 0.463432
  C 2.214087 0.186016 0.514412
  H 2.665724 0.552377 1.421869
  C 2.980625 -0.240903 -0.545569
  C 4.330477 -0.219954 -0.495793
  C 5.497498 -1.044432 -2.550336
  C 4.730199 -1.474053 -3.624262
  H 3.655921 -1.414611 -3.479871
  H 6.556760 -0.984345 -2.399016
  H 2.478320 -0.599553 -1.434227
  H 5.053467 0.072516 0.230516
  H 5.027100 -2.498965 -3.892645
  H 5.029488 -0.919181 -4.525894
 13
 136.834589
  H 1.101308 0.174730 0.487816
  C 2.174737 0.204031 0.559163
  H 2.607883 0.573570 1.474203
  C 2.967015 -0.220079 -0.493634
  C 4.303616 -0.192346 -0.427016
  C 5.538680 -1.070628 -2.615395
  C 4.757023 -1.499315 -3.687375
  H 3.681150 -1.435599 -3.532440
  H 6.598885 -1.009553 -2.461488
  H 2.479420 -0.581975 -1.389967
  H 5.038836 0.095327 0.287258
  H 5.046380 -2.526579 -3.960257
  H 5.048859 -0.945738 -4.593788
 13
 145.447874
  H 1.064584 0.183106 0.508551
  C 2.135310 0.219894 0.598479
  H 2.551808 0.591453 1.517866
  C 2.944708 -0.198855 -0.440371
  C 4.281446 -0.165712 -0.360355
  C 5.574086 -1.099669 -2.687644
  C 4.787132 -1.522085 -3.744308
  H 3.714563 -1.453675 -3.577636
  H 6.635677 -1.040710 -2.538979
  H 2.467894 -0.563149 -1.342158
  H 5.033631 0.115899 0.338620
  H 5.068846 -2.550377 -4.021376
  H 5.071355 -0.970484 -4.654430
 13
 151.452503
  H 1.025009 0.198882 0.547455
  C 2.094457 0.241366 0.651817
  H 2.498227 0.615119 1.576279
  C 2.922407 -0.175480 -0.381819
  C 4.249838 -0.139074 -0.293666
  C 5.608990 -1.126923 -2.755538
  C 4.822299 -1.552407 -3.820026
  H 3.745571 -1.484932 -3.655350
  H 6.674963 -1.072047 -2.617185
  H 2.455315 -0.541868 -1.288731
  H 5.009289 0.139587 0.397960
  H 5.107139 -2.581385 -4.100245
  H 5.109505 -1.002300 -4.732872
 13
 155.420486
  H 0.987434 0.214374 0.585303
  C 2.054742 0.260783 0.700036
  H 2.449426 0.635323 1.626109
  C 2.891204 -0.152395 -0.323903
  C 4.222811 -0.114094 -0.231003
  C 5.641050 -1.157132 -2.830984
  C 4.861607 -1.581572 -3.892837
  H 3.786640 -1.514805 -3.729380
  H 6.709190 -1.108322 -2.708049
  H 2.429618 -0.520060 -1.234096
  H 4.991330 0.161617 0.453394
  H 5.148448 -2.609379 -4.174497
  H 5.150546 -1.033116 -4.805894
 13
 158.134135
  H 0.948695 0.232430 0.629222
  C 2.016064 0.282262 0.753318
  H 2.403262 0.658801 1.683871
  C 2.865009 -0.129844 -0.267150
  C 4.190390 -0.089819 -0.169966
  C 5.677533 -1.186117 -2.903426
  C 4.902374 -1.615920 -3.978620
  H 3.824441 -1.552137 -3.821949
  H 6.748754 -1.142157 -2.792987
  H 2.410604 -0.498937 -1.180967
  H 4.961397 0.184433 0.510998
  H 5.194481 -2.642980 -4.260483
  H 5.196244 -1.067899 -4.891281
 13
 159.939541
  H 0.914174 0.248516 0.668162
  C 1.979613 0.300592 0.798856
  H 2.361019 0.677469 1.729623
  C 2.832932 -0.108707 -0.213882
  C 4.163303 -0.067625 -0.114379
  C 5.711300 -1.218764 -2.985038
  C 4.946505 -1.648679 -4.060532
  H 3.870050 -1.586856 -3.908263
  H 6.785116 -1.180456 -2.888970
  H 2.382169 -0.478633 -1.129796
  H 4.941060 0.204505 0.561626
  H 5.241911 -2.674091 -4.341418
  H 5.243420 -1.100961 -4.971298
