 28
 0.000000
  C 0.959199 0.139363 0.404368
  C 2.433016 0.142610 0.396758
  C 3.222721 0.608978 1.557936
  C 2.457844 1.098523 2.784142
  C 3.422923 1.539653 3.880371
  C 3.052093 -0.321747 -0.760388
  C 4.435431 -0.409028 -0.969859
  C 5.097507 -0.859728 -2.086752
  C 4.626919 -1.379555 -3.382552
  C 3.145104 -1.504723 -3.703473
  H 3.019443 -1.905685 -4.701936
  H 6.178004 -0.849595 -2.054776
  H 0.530454 0.501361 1.331570
  H 0.591752 -0.872896 0.228621
  H 0.575466 0.754734 -0.411145
  H 3.880407 1.418116 1.219818
  H 3.883864 -0.207418 1.870801
  H 1.823225 0.302304 3.177604
  H 1.819644 1.943761 2.519980
  H 4.060402 0.716029 4.194226
  H 2.870953 1.886881 4.750330
  H 4.056898 2.354543 3.537945
  H 2.394702 -0.640186 -1.552276
  H 5.061929 -0.079212 -0.150903
  H 5.095720 -2.365330 -3.501997
  H 5.099973 -0.752928 -4.150270
  H 2.659183 -0.531967 -3.668475
  H 2.654975 -2.180604 -3.005947
 28
 0.096541
  C 0.952849 0.387839 0.324184
  C 2.418663 0.255202 0.350815
  C 3.210607 0.569644 1.557800
  C 2.460649 1.059542 2.791923
  C 3.431365 1.305067 3.944143
  C 3.029949 -0.206165 -0.813162
  C 4.406477 -0.173524 -1.072878
  C 5.064591 -0.614542 -2.195221
  C 4.626443 -1.368675 -3.376539
  C 3.181213 -1.809657 -3.538166
  H 3.092393 -2.406311 -4.443480
  H 6.125678 -0.394266 -2.221988
  H 0.554698 0.896516 1.192719
  H 0.496119 -0.601883 0.261987
  H 0.646943 0.912811 -0.581969
  H 3.968302 1.317043 1.292270
  H 3.783886 -0.324420 1.831766
  H 1.724380 0.317644 3.106607
  H 1.937824 1.992759 2.571130
  H 3.954816 0.390259 4.215047
  H 2.895243 1.657302 4.822686
  H 4.170601 2.058219 3.678221
  H 2.370545 -0.564720 -1.587825
  H 5.030324 0.307006 -0.331008
  H 5.279363 -2.251976 -3.425068
  H 4.931319 -0.784104 -4.255717
  H 2.516207 -0.956594 -3.645586
  H 2.860458 -2.424942 -2.701737
 28
 2.043278
  C 0.964521 0.550853 0.274253
  C 2.406095 0.256273 0.354202
  C 3.184181 0.451083 1.589851
  C 2.482029 1.091735 2.781671
  C 3.434426 1.193313 3.969331
  C 3.015042 -0.220118 -0.807103
  C 4.358558 -0.043694 -1.145081
  C 5.003564 -0.434170 -2.294586
  C 4.612150 -1.323647 -3.396921
  C 3.258389 -2.014925 -3.395985
  H 3.206356 -2.693108 -4.244468
  H 6.005549 -0.039907 -2.418570
  H 0.582177 1.039835 1.160347
  H 0.397966 -0.364724 0.100062
  H 0.789076 1.182352 -0.599440
  H 4.087282 1.026903 1.355647
  H 3.565958 -0.531110 1.897043
  H 1.616912 0.496407 3.079003
  H 2.138572 2.094451 2.519607
  H 3.778408 0.208839 4.278663
  H 2.934546 1.655380 4.816745
  H 4.303721 1.798638 3.721879
  H 2.358684 -0.660908 -1.539987
  H 4.948973 0.562376 -0.469884
  H 5.404136 -2.083374 -3.458693
  H 4.732860 -0.754892 -4.328658
  H 2.447365 -1.299750 -3.505881
  H 3.115075 -2.599759 -2.491104
 28
 5.182874
  C 0.975142 0.721968 0.228817
  C 2.365702 0.252407 0.348852
  C 3.136715 0.342908 1.603075
  C 2.526610 1.115748 2.765715
  C 3.459966 1.085902 3.971674
  C 2.970011 -0.255220 -0.810096
  C 4.261475 0.070616 -1.225658
  C 4.907440 -0.284393 -2.385322
  C 4.602178 -1.292444 -3.404984
  C 3.376500 -2.179467 -3.260455
  H 3.382394 -2.925140 -4.051852
  H 5.820638 0.260258 -2.595838
  H 0.606633 1.189482 1.135460
  H 0.305595 -0.092220 -0.055777
  H 0.944746 1.441945 -0.594776
  H 4.133829 0.736369 1.384333
  H 3.327994 -0.685555 1.931742
  H 1.570465 0.678402 3.056247
  H 2.358275 2.153899 2.473695
  H 3.633917 0.064466 4.305132
  H 3.024631 1.640074 4.800377
  H 4.421029 1.538060 3.733362
  H 2.329958 -0.803851 -1.488708
  H 4.789399 0.785898 -0.607594
  H 5.498038 -1.924099 -3.473593
  H 4.572154 -0.779353 -4.374351
  H 2.458301 -1.607943 -3.365624
  H 3.378825 -2.701617 -2.307317
 28
 10.420692
  C 1.050391 0.890415 0.172275
  C 2.370360 0.273809 0.354537
  C 3.115537 0.299447 1.622600
  C 2.549469 1.128940 2.774755
  C 3.441288 1.005098 4.008129
  C 2.969685 -0.300801 -0.784187
  C 4.176422 0.147717 -1.302029
  C 4.809798 -0.210910 -2.467556
  C 4.562121 -1.297314 -3.429873
  C 3.448864 -2.300386 -3.175128
  H 3.479041 -3.066897 -3.946080
  H 5.645467 0.415720 -2.752060
  H 0.710590 1.429431 1.048160
  H 0.297792 0.154503 -0.111182
  H 1.144361 1.569905 -0.676560
  H 4.154474 0.596419 1.419791
  H 3.205529 -0.745428 1.951901
  H 1.546863 0.786970 3.034154
  H 2.492635 2.179366 2.483814
  H 3.504464 -0.028390 4.341873
  H 3.039306 1.597625 4.826403
  H 4.447423 1.360396 3.799454
  H 2.373271 -1.003413 -1.346977
  H 4.643570 0.960719 -0.757998
  H 5.515261 -1.834554 -3.526512
  H 4.417269 -0.834905 -4.414689
  H 2.470989 -1.829411 -3.228913
  H 3.573585 -2.789452 -2.212923
 28
 17.338616
  C 1.157242 1.093945 0.130025
  C 2.401247 0.355751 0.347973
  C 3.098978 0.280433 1.632492
  C 2.565971 1.117905 2.790980
  C 3.402445 0.883047 4.043394
  C 2.991208 -0.274690 -0.787971
  C 4.088083 0.257392 -1.437004
  C 4.709508 -0.155839 -2.593853
  C 4.516491 -1.341508 -3.449642
  C 3.504196 -2.405355 -3.052075
  H 3.554612 -3.225521 -3.763891
  H 5.475589 0.509937 -2.970151
  H 0.848998 1.674943 0.988467
  H 0.344191 0.420729 -0.152852
  H 1.319399 1.737360 -0.736464
  H 4.164729 0.495439 1.467854
  H 3.097484 -0.778723 1.927399
  H 1.529968 0.852388 3.006883
  H 2.606135 2.177901 2.534171
  H 3.369985 -0.159553 4.343781
  H 3.024165 1.480350 4.866952
  H 4.440311 1.160288 3.877113
  H 2.468315 -1.128224 -1.196922
  H 4.491135 1.165053 -1.000305
  H 5.505078 -1.807000 -3.555255
  H 4.280342 -0.978252 -4.457851
  H 2.490974 -2.015826 -3.080048
  H 3.724341 -2.807463 -2.067370
 28
 24.784330
  C 1.348969 1.256787 0.075784
  C 2.489326 0.402804 0.364067
  C 3.094585 0.253234 1.681475
  C 2.568936 1.122180 2.820158
  C 3.306552 0.801593 4.116930
  C 3.099377 -0.274694 -0.758641
  C 4.039672 0.329560 -1.562521
  C 4.599023 -0.125198 -2.741069
  C 4.413901 -1.372243 -3.512812
  C 3.513184 -2.472620 -2.970461
  H 3.552000 -3.325405 -3.644695
  H 5.287378 0.559834 -3.218865
  H 1.053182 1.883685 0.908921
  H 0.496653 0.638118 -0.223140
  H 1.568987 1.849672 -0.815728
  H 4.181849 0.371781 1.577199
  H 2.991752 -0.805323 1.965528
  H 1.502836 0.948714 2.970633
  H 2.718515 2.176302 2.582149
  H 3.164442 -0.238564 4.401048
  H 2.934053 1.423351 4.926709
  H 4.373616 0.987405 4.015687
  H 2.684487 -1.236097 -1.020773
  H 4.399807 1.294489 -1.226906
  H 5.416887 -1.785353 -3.681518
  H 4.065781 -1.082786 -4.513095
  H 2.478233 -2.145835 -2.920285
  H 3.850291 -2.809354 -1.993759
 28
 17.883028
  C 1.521656 1.444051 0.051882
  C 2.585519 0.486491 0.334794
  C 3.107335 0.229228 1.684745
  C 2.569448 1.087594 2.828818
  C 3.217951 0.678804 4.147739
  C 3.175690 -0.200204 -0.768907
  C 3.993881 0.414736 -1.704573
  C 4.510650 -0.120395 -2.862808
  C 4.334910 -1.426640 -3.523918
  C 3.504904 -2.518123 -2.861339
  H 3.537387 -3.411827 -3.482534
  H 5.158962 0.540564 -3.425586
  H 1.282368 2.087927 0.889057
  H 0.627093 0.868893 -0.214698
  H 1.730086 2.020760 -0.852067
  H 4.201378 0.296940 1.642267
  H 2.926826 -0.831155 1.927698
  H 1.489440 0.969929 2.917219
  H 2.790108 2.139814 2.642140
  H 3.000516 -0.359909 4.384757
  H 2.840781 1.294178 4.960425
  H 4.297482 0.802894 4.106645
  H 2.903732 -1.238118 -0.892481
  H 4.299562 1.427369 -1.473353
  H 5.341662 -1.816222 -3.720124
  H 3.926212 -1.217599 -4.520961
  H 2.461761 -2.221616 -2.770031
  H 3.909283 -2.783499 -1.886963
 28
 11.314603
  C 1.720928 1.590565 0.006317
  C 2.708560 0.554131 0.312123
  C 3.127166 0.224415 1.686159
  C 2.571386 1.085628 2.815617
  C 3.104500 0.603907 4.161323
  C 3.298127 -0.141574 -0.762749
  C 3.973423 0.473283 -1.815189
  C 4.418470 -0.101592 -2.978330
  C 4.237597 -1.442258 -3.561263
  C 3.509653 -2.530879 -2.786889
  H 3.512457 -3.444534 -3.377215
  H 4.992460 0.551533 -3.625199
  H 1.522316 2.262838 0.833025
  H 0.788030 1.074338 -0.243186
  H 1.967449 2.129519 -0.907981
  H 4.221838 0.231420 1.716948
  H 2.864685 -0.823611 1.887364
  H 1.482384 1.035535 2.830439
  H 2.869570 2.125806 2.675077
  H 2.807617 -0.424654 4.353387
  H 2.713247 1.221705 4.965738
  H 4.190316 0.659530 4.193252
  H 3.174701 -1.214307 -0.774702
  H 4.227874 1.514854 -1.668239
  H 5.237384 -1.804962 -3.831748
  H 3.738009 -1.289903 -4.527024
  H 2.472401 -2.260380 -2.604586
  H 4.011876 -2.751117 -1.848620
 28
 6.141983
  C 1.914097 1.682927 -0.003792
  C 2.841280 0.594680 0.320081
  C 3.146846 0.196852 1.711966
  C 2.548815 1.047561 2.829032
  C 2.955996 0.500341 4.193681
  C 3.437431 -0.109118 -0.730260
  C 3.962542 0.486411 -1.881916
  C 4.323317 -0.124013 -3.055519
  C 4.117141 -1.491658 -3.566507
  C 3.502286 -2.563325 -2.682026
  H 3.441669 -3.492543 -3.243727
  H 4.810505 0.515390 -3.779168
  H 1.772231 2.391211 0.802641
  H 0.941194 1.221986 -0.212591
  H 2.185410 2.168446 -0.939916
  H 4.237258 0.156421 1.823708
  H 2.821359 -0.842813 1.853570
  H 1.461198 1.049918 2.760467
  H 2.902156 2.075109 2.748314
  H 2.598422 -0.517822 4.328255
  H 2.534699 1.111251 4.987234
  H 4.038240 0.501904 4.307351
  H 3.481425 -1.180839 -0.639861
  H 4.167432 1.545699 -1.814011
  H 5.088667 -1.843649 -3.938164
  H 3.510566 -1.383945 -4.476892
  H 2.494914 -2.293307 -2.376921
  H 4.118545 -2.755417 -1.806741
 28
 6.329806
  C 2.061964 1.568218 -0.092912
  C 2.982172 0.512349 0.344400
  C 3.193331 0.164617 1.764649
  C 2.493803 1.036158 2.801381
  C 2.815262 0.555457 4.213248
  C 3.683667 -0.170137 -0.646155
  C 4.113648 0.452580 -1.835159
  C 4.322206 -0.109176 -3.063795
  C 3.956814 -1.431520 -3.594063
  C 3.419938 -2.498459 -2.653752
  H 3.195662 -3.396897 -3.223996
  H 4.743038 0.544664 -3.818826
  H 1.861699 2.325384 0.655549
  H 1.112250 1.097397 -0.361936
  H 2.427374 1.974722 -1.036286
  H 4.269423 0.139908 1.963331
  H 2.863428 -0.873994 1.905665
  H 1.413249 1.004595 2.653907
  H 2.824876 2.072478 2.704199
  H 2.477626 -0.467619 4.363690
  H 2.318988 1.183280 4.949402
  H 3.885227 0.595105 4.404018
  H 3.875630 -1.223023 -0.506185
  H 4.373348 1.500612 -1.741120
  H 4.835958 -1.820829 -4.122268
  H 3.228420 -1.251977 -4.395946
  H 2.502758 -2.171739 -2.170151
  H 4.156112 -2.766094 -1.901653
