 17
 0.000000
  C 1.009283 -0.070369 0.049915
  C 2.505317 -0.083264 0.024600
  C 3.218449 -0.596429 -0.982834
  C 4.654986 -0.607652 -1.004863
  C 5.376782 -1.122473 -2.015542
  C 6.814437 -1.131847 -2.033943
  C 7.532052 -1.641660 -3.034795
  H 8.604155 -1.653769 -3.058565
  H 0.648715 0.395830 0.965136
  H 0.612903 -1.084414 0.010686
  H 0.612903 0.494115 -0.793399
  H 3.008400 0.351284 0.877692
  H 2.705662 -1.029204 -1.832430
  H 5.158989 -0.172791 -0.151163
  H 4.872981 -1.557289 -2.869159
  H 7.319374 -0.697095 -1.180449
  H 7.036916 -2.077903 -3.891199
 17
 0.979559
  C 1.012731 -0.116296 0.064798
  C 2.504935 -0.029692 0.011825
  C 3.243441 -0.512122 -0.997536
  C 4.677819 -0.436913 -1.029154
  C 5.396264 -0.910433 -2.061121
  C 6.822660 -1.096605 -2.045203
  C 7.495961 -1.715588 -3.012685
  H 8.559811 -1.869661 -2.970853
  H 0.627308 0.341992 0.971831
  H 0.686777 -1.156044 0.040743
  H 0.568982 0.390941 -0.791567
  H 2.994172 0.447009 0.850795
  H 2.750820 -0.984195 -1.837768
  H 5.180774 -0.092458 -0.134564
  H 4.887876 -1.223414 -2.965516
  H 7.350770 -0.717283 -1.178767
  H 6.991735 -2.102491 -3.883900
 17
 5.287553
  C 1.039404 -0.224447 0.052411
  C 2.514134 0.005779 -0.014159
  C 3.283736 -0.425046 -1.003587
  C 4.709742 -0.221073 -1.040937
  C 5.441299 -0.709854 -2.059207
  C 6.823101 -1.097171 -2.032359
  C 7.394806 -1.822024 -2.982655
  H 8.416255 -2.151961 -2.913080
  H 0.614923 0.211670 0.952364
  H 0.815263 -1.291301 0.047514
  H 0.544805 0.217420 -0.812602
  H 2.961633 0.536950 0.814310
  H 2.830855 -0.942366 -1.837772
  H 5.197352 -0.001990 -0.098554
  H 4.938174 -0.918910 -2.998782
  H 7.394224 -0.805164 -1.159201
  H 6.850515 -2.126937 -3.861352
 17
 18.236888
  C 1.071829 -0.335525 0.009562
  C 2.525574 0.013187 -0.034273
  C 3.358396 -0.393674 -1.002066
  C 4.756950 0.004352 -1.008819
  C 5.492396 -0.556781 -1.989330
  C 6.814079 -1.115672 -2.005683
  C 7.230411 -1.929465 -2.960451
  H 8.200418 -2.392771 -2.929419
  H 0.594500 0.087197 0.889247
  H 0.930152 -1.416104 0.027354
  H 0.564540 0.045910 -0.876532
  H 2.904462 0.617241 0.778070
  H 2.965557 -0.995886 -1.807015
  H 5.238776 0.174919 -0.053108
  H 5.067434 -0.529300 -2.991980
  H 7.463740 -0.891757 -1.165790
  H 6.604472 -2.178122 -3.800947
 17
 54.492244
  C 1.209773 -0.508079 -0.050164
  C 2.638333 -0.048502 -0.077201
  C 3.476577 -0.320686 -1.093050
  C 4.791353 0.428708 -1.063925
  C 5.447576 -0.386777 -1.935312
  C 6.665112 -1.147861 -1.908368
  C 6.955668 -2.043159 -2.838070
  H 7.841620 -2.650045 -2.787333
  H 0.722609 -0.198280 0.870004
  H 1.135222 -1.593678 -0.124894
  H 0.665580 -0.082148 -0.891668
  H 2.982505 0.507320 0.781191
  H 3.080443 -0.885738 -1.916640
  H 5.336603 0.496618 -0.129888
  H 5.186133 -0.266472 -2.987436
  H 7.329931 -1.013307 -1.060888
  H 6.310947 -2.204257 -3.685674
 17
 91.529836
  C 1.467725 -0.700367 -0.163829
  C 2.874823 -0.176562 -0.168860
  C 3.668308 -0.289226 -1.258202
  C 4.882934 0.828544 -1.047204
  C 5.294988 -0.179550 -1.908087
  C 6.345134 -1.204397 -1.764948
  C 6.574145 -2.126113 -2.673756
  H 7.333593 -2.879190 -2.548418
  H 0.999460 -0.517568 0.798636
  H 1.442837 -1.772383 -0.365608
  H 0.873358 -0.207099 -0.932411
  H 3.216207 0.302735 0.733313
  H 3.249886 -0.796426 -2.114721
  H 5.421011 0.782821 -0.096266
  H 5.116800 0.002473 -2.971292
  H 6.921591 -1.184954 -0.846545
  H 6.009801 -2.167552 -3.591881
 17
 91.517148
  C 1.605800 -0.790452 -0.263973
  C 3.019765 -0.297855 -0.321740
  C 3.722601 -0.313969 -1.450070
  C 5.119798 1.037147 -0.837729
  C 5.222898 -0.010568 -1.812668
  C 6.095927 -1.210172 -1.658965
  C 6.298189 -2.092851 -2.614992
  H 6.918926 -2.961112 -2.471162
  H 1.207026 -0.698550 0.741865
  H 1.556125 -1.836409 -0.563971
  H 0.970320 -0.220930 -0.940767
  H 3.427052 0.092013 0.598118
  H 3.278354 -0.741405 -2.343120
  H 5.630056 0.742258 0.100916
  H 5.201053 0.321573 -2.852605
  H 6.554922 -1.338447 -0.685132
  H 5.848342 -1.988112 -3.589291
 17
 91.839921
  C 1.573344 -0.861728 -0.323689
  C 2.982269 -0.360371 -0.400795
  C 3.694979 -0.384443 -1.511169
  C 5.263153 1.099294 -0.717247
  C 5.150912 0.035005 -1.679662
  C 6.065865 -1.169603 -1.608376
  C 6.178812 -2.068144 -2.567224
  H 6.814735 -2.932965 -2.468238
  H 1.177128 -0.744267 0.680565
  H 1.527680 -1.918307 -0.591621
  H 0.931780 -0.316174 -1.014259
  H 3.404057 0.059011 0.501566
  H 3.289170 -0.818560 -2.417822
  H 6.103704 0.899971 -0.023018
  H 5.221651 0.387599 -2.715665
  H 6.618772 -1.278948 -0.682237
  H 5.651399 -1.975170 -3.504844
