 19
 0.000000
  C -3.234798 -1.723186 -0.610123
  C -1.748351 -1.508986 -0.710423
  C -1.254782 -1.530281 -2.144340
  C -1.179338 -0.198201 -0.064323
  C -2.185236 0.786834 0.431454
  O -0.011474 -0.008822 -0.002266
  H -3.473842 -2.703566 -1.024628
  H -3.799193 -0.996728 -1.191982
  H -3.579863 -1.723275 0.421059
  H -1.241698 -2.293021 -0.129269
  H -1.688401 -0.724624 -2.735755
  H -1.565540 -2.467928 -2.604340
  H -0.171917 -1.453470 -2.206814
  H -3.209444 0.445736 0.358850
  H -2.051253 1.697987 -0.153000
  H -1.934353 1.006713 1.469278
  O 2.726109 -0.012821 0.002668
  H 3.427658 0.477741 -0.444386
  H 3.165201 -0.704548 0.514351
 19
 -0.758993
  C -3.235508 -1.678737 -0.719050
  C -1.754160 -1.467202 -0.654788
  C -1.077807 -1.517314 -2.004850
  C -1.238234 -0.123579 0.023551
  C -2.300596 0.778814 0.539693
  O -0.076077 0.098959 0.057940
  H -3.414872 -2.660295 -1.162998
  H -3.730356 -0.960091 -1.373711
  H -3.702682 -1.697797 0.264409
  H -1.300310 -2.185657 0.043587
  H -1.496851 -0.793141 -2.701957
  H -1.253349 -2.500779 -2.442397
  H -0.007258 -1.346904 -1.920507
  H -3.298095 0.366427 0.514945
  H -2.254696 1.686261 -0.069239
  H -2.018264 1.059352 1.556373
  O 2.672785 -0.175441 -0.260899
  H 3.324546 0.314014 -0.772206
  H 3.149280 -0.831855 0.257145
 19
 -1.306499
  C -3.223423 -1.585660 -0.868685
  C -1.760757 -1.397947 -0.608378
  C -0.908485 -1.546124 -1.848953
  C -1.313961 -0.039312 0.083534
  C -2.414095 0.763505 0.674068
  O -0.167670 0.264434 0.079074
  H -3.359142 -2.547009 -1.368713
  H -3.614675 -0.837952 -1.557830
  H -3.819969 -1.621414 0.037157
  H -1.424238 -2.082858 0.185944
  H -1.249576 -0.907341 -2.662678
  H -0.989773 -2.573152 -2.207063
  H 0.131922 -1.310100 -1.639463
  H -3.369839 0.258123 0.717709
  H -2.499674 1.664667 0.064254
  H -2.090485 1.074868 1.666850
  O 2.547494 -0.298029 -0.564172
  H 3.161689 0.184077 -1.126224
  H 3.066563 -0.918529 -0.042425
 19
 -0.853795
  C -3.153246 -1.544017 -0.992994
  C -1.732329 -1.356850 -0.550288
  C -0.741343 -1.552597 -1.681848
  C -1.343615 0.003070 0.136596
  C -2.454759 0.740161 0.791006
  O -0.215073 0.371117 0.080594
  H -3.250158 -2.535065 -1.442876
  H -3.426358 -0.830476 -1.767375
  H -3.868887 -1.511514 -0.177125
  H -1.510358 -2.041377 0.284049
  H -1.009002 -0.987131 -2.573007
  H -0.695979 -2.604727 -1.952003
  H 0.228732 -1.167494 -1.358337
  H -3.381547 0.185743 0.841343
  H -2.602515 1.659522 0.221669
  H -2.117315 1.029063 1.786906
  O 2.332022 -0.415682 -0.795770
  H 2.908704 0.015275 -1.434877
  H 2.865425 -1.061358 -0.319677
 19
 2.594323
  C -3.065908 -1.581814 -1.052311
  C -1.688445 -1.319920 -0.487263
  C -0.611409 -1.486811 -1.558210
  C -1.398125 0.032938 0.157226
  C -2.483018 0.770474 0.849036
  O -0.271998 0.450892 0.046607
  H -3.108349 -2.585480 -1.475938
  H -3.297535 -0.876929 -1.846225
  H -3.831033 -1.537747 -0.280939
  H -1.512372 -2.025031 0.338553
  H -0.798822 -0.921236 -2.469022
  H -0.356251 -2.518184 -1.761932
  H 0.236381 -0.883715 -1.116273
  H -3.389909 0.185184 0.939173
  H -2.682546 1.676628 0.275337
  H -2.129354 1.098287 1.825722
  O 2.108321 -0.597586 -0.981522
  H 2.648287 -0.229887 -1.690615
  H 2.633959 -1.269279 -0.532994
 19
 9.205607
  C -3.050403 -1.618784 -1.065863
  C -1.677874 -1.333422 -0.468904
  C -0.563125 -1.478798 -1.492175
  C -1.437659 0.023492 0.139727
  C -2.472955 0.795289 0.843478
  O -0.294805 0.441477 -0.018561
  H -3.075466 -2.625151 -1.476194
  H -3.274223 -0.917970 -1.864804
  H -3.820756 -1.555134 -0.302534
  H -1.514045 -2.036215 0.360541
  H -0.694546 -0.911809 -2.408442
  H -0.147797 -2.464057 -1.629547
  H 0.199883 -0.660365 -0.934180
  H -3.383951 0.226227 0.987953
  H -2.688823 1.686819 0.252350
  H -2.088624 1.160689 1.794953
  O 1.986379 -0.675330 -1.082178
  H 2.504779 -0.325257 -1.813802
  H 2.524682 -1.332929 -0.629043
 19
 14.173493
  C -3.067660 -1.639984 -1.046862
  C -1.674904 -1.352645 -0.481980
  C -0.587242 -1.498389 -1.508948
  C -1.439725 0.001057 0.118991
  C -2.451225 0.790346 0.813777
  O -0.274774 0.418881 -0.037230
  H -3.097682 -2.647671 -1.450968
  H -3.309363 -0.942672 -1.843210
  H -3.820233 -1.569368 -0.267503
  H -1.492002 -2.051596 0.348141
  H -0.683350 -0.898895 -2.402017
  H -0.133834 -2.462759 -1.651121
  H 0.220917 -0.435062 -0.751993
  H -3.375015 0.244406 0.963934
  H -2.650830 1.684228 0.219471
  H -2.060447 1.159289 1.762564
  O 1.977599 -0.687783 -1.090921
  H 2.490414 -0.337824 -1.825187
  H 2.519698 -1.343187 -0.641160
 19
 10.466374
  C -3.098471 -1.604449 -1.043389
  C -1.674528 -1.378655 -0.509694
  C -0.644115 -1.589060 -1.568302
  C -1.419833 -0.041179 0.104066
  C -2.418612 0.746674 0.810111
  O -0.248203 0.412119 -0.021603
  H -3.173666 -2.605358 -1.456875
  H -3.327865 -0.890155 -1.827852
  H -3.831856 -1.513923 -0.249073
  H -1.502975 -2.089568 0.313067
  H -0.691626 -0.959669 -2.439914
  H -0.217606 -2.562725 -1.713611
  H 0.313411 -0.245390 -0.599250
  H -3.348628 0.213790 0.964499
  H -2.613730 1.651118 0.228685
  H -2.013695 1.104920 1.757082
  O 2.011718 -0.632114 -1.062973
  H 2.534808 -0.257310 -1.782504
  H 2.562359 -1.278760 -0.613244
 19
 7.313224
  C -3.104865 -1.584179 -1.017916
  C -1.652381 -1.381427 -0.539237
  C -0.697133 -1.637195 -1.644689
  C -1.387737 -0.059272 0.094111
  C -2.405251 0.720495 0.798586
  O -0.227377 0.438963 0.027889
  H -3.200887 -2.574940 -1.452763
  H -3.358069 -0.850278 -1.777866
  H -3.807036 -1.511505 -0.194805
  H -1.471473 -2.112796 0.264986
  H -0.629651 -0.928144 -2.449450
  H -0.341042 -2.632192 -1.829354
  H 0.471053 -0.105108 -0.468837
  H -3.335716 0.187501 0.943165
  H -2.600183 1.629855 0.224690
  H -2.005993 1.070972 1.751483
  O 1.997723 -0.622739 -1.027496
  H 2.517613 -0.228877 -1.730649
  H 2.552035 -1.271696 -0.582528
 19
 7.390086
  C -3.148152 -1.649683 -0.898382
  C -1.661823 -1.378585 -0.588528
  C -0.818550 -1.591933 -1.788901
  C -1.380023 -0.072627 0.057211
  C -2.402195 0.754423 0.707289
  O -0.200142 0.398967 0.065914
  H -3.239561 -2.622475 -1.371926
  H -3.534850 -0.902161 -1.581421
  H -3.743563 -1.662914 0.009122
  H -1.368487 -2.128711 0.165152
  H -0.608902 -0.780318 -2.458290
  H -0.556829 -2.583378 -2.089377
  H 0.553855 -0.115754 -0.364657
  H -3.360287 0.259882 0.813322
  H -2.535222 1.663476 0.113491
  H -2.034470 1.102148 1.671327
  O 2.127193 -0.610869 -0.899853
  H 2.643459 -0.192120 -1.588880
  H 2.693475 -1.252375 -0.456513
 19
 5.202094
  C -3.055435 -1.647120 -0.898759
  C -1.574604 -1.337737 -0.581282
  C -0.737057 -1.530953 -1.782275
  C -1.339073 -0.023661 0.074892
  C -2.413630 0.751213 0.702609
  O -0.182563 0.489558 0.107177
  H -3.113328 -2.598370 -1.419884
  H -3.473412 -0.880983 -1.543769
  H -3.647496 -1.728511 0.006710
  H -1.266714 -2.082103 0.171098
  H -0.508623 -0.711145 -2.433524
  H -0.480197 -2.522017 -2.095730
  H 0.594840 -0.043922 -0.303374
  H -3.323324 0.186132 0.853598
  H -2.637185 1.605184 0.058429
  H -2.061039 1.181522 1.638882
  O 1.844893 -0.762243 -0.948059
  H 2.383156 -0.340706 -1.624928
  H 2.415720 -1.369143 -0.465710
