 20
 0.000000
  H 1.522448 0.177333 0.491967
  C 2.603023 0.159594 0.443823
  C 3.327312 0.634041 1.623487
  C 2.430808 1.091286 2.768487
  C 3.253584 1.570128 3.960418
  C 3.177127 -0.307387 -0.719420
  C 4.554777 -0.399369 -0.949451
  C 5.082133 -0.877922 -2.133276
  H 4.456056 -1.209104 -2.954165
  O 6.346825 -0.976699 -2.372679
  H 3.994901 1.456010 1.335045
  H 3.997448 -0.157730 1.982050
  H 1.789378 0.267789 3.087002
  H 1.786357 1.904859 2.431242
  H 3.888975 0.773487 4.340626
  H 2.601151 1.892130 4.767524
  H 3.885990 2.410955 3.684886
  H 2.520688 -0.628929 -1.515931
  H 5.264358 -0.093963 -0.193514
  H 6.916133 -0.678720 -1.631425
 20
 2.069815
  H 1.534228 0.073813 0.535225
  C 2.614846 0.095713 0.479442
  C 3.326374 0.595260 1.657989
  C 2.422608 1.112902 2.771188
  C 3.233880 1.637808 3.950951
  C 3.201159 -0.345020 -0.691738
  C 4.580383 -0.392856 -0.931003
  C 5.092850 -0.752777 -2.161783
  H 4.436320 -0.888293 -3.015144
  O 6.348566 -0.825309 -2.459859
  H 4.036349 1.379431 1.365192
  H 3.963120 -0.207040 2.057129
  H 1.764824 0.312713 3.116403
  H 1.788661 1.914595 2.386909
  H 3.849053 0.851617 4.382307
  H 2.572661 2.009566 4.729627
  H 3.882694 2.455279 3.645223
  H 2.551207 -0.683829 -1.486448
  H 5.271306 -0.082791 -0.164149
  H 6.947676 -1.010704 -1.707968
 20
 8.593487
  H 1.527270 0.011995 0.561427
  C 2.607370 0.043814 0.506699
  C 3.312918 0.558162 1.678205
  C 2.412302 1.119300 2.770757
  C 3.224067 1.679007 3.933444
  C 3.197030 -0.389237 -0.660385
  C 4.579125 -0.415489 -0.899307
  C 5.110130 -0.646971 -2.148648
  H 4.468202 -0.674314 -3.026422
  O 6.389263 -0.651515 -2.413673
  H 4.050923 1.313286 1.379929
  H 3.925736 -0.252316 2.099662
  H 1.746933 0.336977 3.141642
  H 1.783906 1.911157 2.358048
  H 3.840570 0.906683 4.387396
  H 2.563316 2.072401 4.701499
  H 3.871933 2.487713 3.603522
  H 2.552798 -0.731649 -1.458424
  H 5.278488 -0.202675 -0.103963
  H 6.955949 -1.273726 -1.921756
 20
 14.500446
  H 1.516142 -0.021132 0.570894
  C 2.596691 0.013115 0.521781
  C 3.296573 0.536610 1.689994
  C 2.400784 1.124834 2.769884
  C 3.213055 1.697036 3.925600
  C 3.195101 -0.418341 -0.641569
  C 4.581772 -0.432837 -0.871496
  C 5.136383 -0.595014 -2.116066
  H 4.518146 -0.606892 -3.012707
  O 6.442084 -0.570876 -2.303474
  H 4.057435 1.268891 1.392056
  H 3.890557 -0.282954 2.124070
  H 1.724864 0.356605 3.151752
  H 1.780413 1.915207 2.341845
  H 3.828013 0.929606 4.389596
  H 2.552887 2.100463 4.688694
  H 3.862924 2.500189 3.586649
  H 2.559331 -0.768947 -1.443148
  H 5.284672 -0.329975 -0.056676
  H 6.946054 -1.397061 -2.234207
 20
 12.383392
  H 1.516055 -0.045075 0.581576
  C 2.597044 -0.018672 0.542307
  C 3.290187 0.521367 1.708672
  C 2.388615 1.154544 2.758618
  C 3.192068 1.724651 3.921517
  C 3.204921 -0.455525 -0.611322
  C 4.594720 -0.476360 -0.825973
  C 5.173940 -0.552279 -2.069613
  H 4.593121 -0.493875 -2.987534
  O 6.485363 -0.572176 -2.154062
  H 4.077750 1.223458 1.412328
  H 3.849585 -0.307491 2.171278
  H 1.681208 0.414641 3.138894
  H 1.802497 1.955208 2.302003
  H 3.754493 0.943873 4.428256
  H 2.529227 2.183977 4.650213
  H 3.890655 2.484200 3.578604
  H 2.577111 -0.807755 -1.418980
  H 5.300720 -0.551176 -0.008372
  H 6.890556 -1.307670 -2.646747
 20
 17.585537
  H 1.457752 -0.118602 0.640724
  C 2.536358 -0.083974 0.565919
  C 3.267854 0.480692 1.700499
  C 2.397306 1.162006 2.746951
  C 3.233837 1.774037 3.864319
  C 3.115470 -0.557699 -0.579823
  C 4.507712 -0.597098 -0.812270
  C 5.193991 -0.401805 -1.981973
  H 4.806255 0.088645 -2.868449
  O 6.486046 -0.664896 -1.912097
  H 4.048180 1.169181 1.358015
  H 3.829006 -0.339329 2.174087
  H 1.697013 0.441740 3.175182
  H 1.805101 1.948091 2.273067
  H 3.824854 1.014495 4.370457
  H 2.591618 2.246524 4.603005
  H 3.909623 2.532235 3.475567
  H 2.478243 -0.973685 -1.349502
  H 5.228483 -0.984954 -0.094315
  H 6.867392 -1.166062 -2.654886
 20
 30.346691
  H 1.418278 -0.155157 0.664877
  C 2.495928 -0.171333 0.581349
  C 3.262286 0.416877 1.677085
  C 2.426574 1.170047 2.701240
  C 3.294999 1.789269 3.789385
  C 3.035754 -0.641626 -0.578378
  C 4.413387 -0.606698 -0.885405
  C 5.195655 -0.227463 -1.935608
  H 5.002808 0.494343 -2.716961
  O 6.454060 -0.646499 -1.757381
  H 4.051392 1.066895 1.285047
  H 3.804556 -0.394201 2.184804
  H 1.704117 0.492844 3.160845
  H 1.862073 1.960641 2.201858
  H 3.815278 1.021710 4.357022
  H 2.683892 2.362523 4.481251
  H 4.035449 2.461320 3.362490
  H 2.383533 -1.095083 -1.314157
  H 5.210727 -1.136424 -0.324990
  H 6.856513 -1.151974 -2.482409
 20
 51.073191
  H 1.392011 -0.222399 0.723679
  C 2.459779 -0.155554 0.567973
  C 3.261094 0.447701 1.636685
  C 2.435177 1.139109 2.717077
  C 3.328547 1.800403 3.760917
  C 2.964229 -0.595282 -0.628581
  C 4.307487 -0.516924 -0.996804
  C 5.213158 -0.156199 -1.911161
  H 5.228857 0.594584 -2.683505
  O 6.398239 -0.767258 -1.566028
  H 3.977053 1.156074 1.205195
  H 3.872713 -0.333525 2.107034
  H 1.788631 0.411120 3.211002
  H 1.793271 1.895553 2.261341
  H 3.948410 1.062987 4.265357
  H 2.725770 2.303041 4.512960
  H 3.979352 2.541110 3.302162
  H 2.301724 -1.103642 -1.319945
  H 5.271174 -1.159153 -0.512916
  H 6.799468 -1.347574 -2.240071
 20
 62.475927
  H 1.380658 -0.240076 0.743038
  C 2.440364 -0.147695 0.556482
  C 3.263577 0.465007 1.613550
  C 2.445864 1.115078 2.727490
  C 3.348604 1.795774 3.750246
  C 2.923858 -0.565381 -0.657009
  C 4.233061 -0.458426 -1.063882
  C 5.180201 -0.131409 -1.907303
  H 5.276329 0.613213 -2.675981
  O 6.357872 -0.809377 -1.474823
  H 3.943159 1.201516 1.171323
  H 3.908617 -0.302373 2.057893
  H 1.840134 0.359085 3.231163
  H 1.765246 1.854159 2.300393
  H 4.012626 1.075182 4.222134
  H 2.753514 2.266261 4.529078
  H 3.954618 2.566420 3.279277
  H 2.254417 -1.088828 -1.330903
  H 5.470210 -1.167368 -0.585250
  H 6.749957 -1.428131 -2.128016
 20
 52.586295
  H 1.359609 -0.265135 0.758526
  C 2.414326 -0.170713 0.553537
  C 3.261308 0.439785 1.601869
  C 2.458269 1.103071 2.718270
  C 3.372196 1.786973 3.728554
  C 2.876993 -0.569102 -0.671625
  C 4.147310 -0.415812 -1.118445
  C 5.126853 -0.112566 -1.893185
  H 5.252936 0.593868 -2.690143
  O 6.346906 -0.767261 -1.382223
  H 3.938399 1.171925 1.148629
  H 3.907355 -0.327401 2.045790
  H 1.854403 0.351872 3.232243
  H 1.774607 1.841505 2.294040
  H 4.046872 1.068960 4.188939
  H 2.785534 2.250834 4.517976
  H 3.965222 2.563265 3.250167
  H 2.196491 -1.088258 -1.338046
  H 5.724564 -1.123490 -0.627998
  H 6.765647 -1.386755 -2.025125
 20
 42.168533
  H 1.382797 -0.370307 0.825724
  C 2.421105 -0.198994 0.590169
  C 3.255634 0.465177 1.617396
  C 2.431601 1.108297 2.731725
  C 3.322016 1.836068 3.732411
  C 2.883376 -0.572441 -0.652808
  C 4.137881 -0.396983 -1.114817
  C 5.173982 -0.058748 -1.800748
  H 5.374186 0.784338 -2.435926
  O 6.376770 -0.903390 -1.531893
  H 3.896853 1.218527 1.148937
  H 3.927872 -0.274082 2.069109
  H 1.854864 0.341479 3.252880
  H 1.724074 1.818465 2.297485
  H 4.028190 1.148297 4.192676
  H 2.722252 2.283600 4.521251
  H 3.882870 2.629338 3.243257
  H 2.208389 -1.103801 -1.313468
  H 5.939580 -1.458037 -0.844452
  H 6.726710 -1.384325 -2.319008
 20
 38.352718
  H 1.353628 -0.312207 0.803077
  C 2.396781 -0.158662 0.577218
  C 3.231474 0.509451 1.603536
  C 2.411166 1.091310 2.753100
  C 3.295598 1.827719 3.752730
  C 2.869590 -0.557945 -0.655093
  C 4.134458 -0.424231 -1.099010
  C 5.198811 -0.119154 -1.754922
  H 5.388232 0.758609 -2.353785
  O 6.422619 -0.912966 -1.614346
  H 3.824841 1.303180 1.137415
  H 3.949469 -0.209189 2.015554
  H 1.878585 0.288105 3.267139
  H 1.664402 1.782273 2.355531
  H 4.028078 1.152985 4.190306
  H 2.695417 2.244010 4.558335
  H 3.825331 2.645363 3.268894
  H 2.188988 -1.071985 -1.323373
  H 6.271161 -1.502029 -0.840844
  H 6.642373 -1.422156 -2.431559
 20
 38.924634
  H 1.311796 -0.179736 0.739593
  C 2.367367 -0.092349 0.537353
  C 3.207173 0.587610 1.552242
  C 2.409663 1.074033 2.759983
  C 3.305251 1.775425 3.774808
  C 2.849719 -0.576095 -0.659172
  C 4.137007 -0.544999 -1.065775
  C 5.178430 -0.198604 -1.742034
  H 5.281759 0.667829 -2.381309
  O 6.465395 -0.874057 -1.624581
  H 3.718225 1.439490 1.089208
  H 3.994096 -0.091893 1.895825
  H 1.917366 0.225152 3.239748
  H 1.630720 1.764792 2.429602
  H 4.075934 1.100697 4.140805
  H 2.721971 2.116143 4.626932
  H 3.788392 2.641525 3.327935
  H 2.162195 -1.098720 -1.313536
  H 6.518580 -1.320480 -0.749550
  H 6.629961 -1.503282 -2.368175
 20
 37.529100
  H 1.348703 -0.328752 0.810904
  C 2.381195 -0.146172 0.563858
  C 3.209661 0.581556 1.553928
  C 2.409624 1.067469 2.760704
  C 3.294117 1.815110 3.752925
  C 2.850686 -0.574963 -0.661128
  C 4.106651 -0.426105 -1.119453
  C 5.224496 -0.120799 -1.674758
  H 5.451614 0.772719 -2.238363
  O 6.428633 -0.949966 -1.585311
  H 3.693041 1.436128 1.068432
  H 4.020386 -0.066148 1.904906
  H 1.947170 0.213701 3.262106
  H 1.607003 1.728752 2.424516
  H 4.087680 1.170222 4.124636
  H 2.709095 2.156359 4.603923
  H 3.748203 2.685477 3.283774
  H 2.168846 -1.102636 -1.315264
  H 6.358875 -1.614980 -0.861151
  H 6.625322 -1.384490 -2.449283
