 20
 0.000000
  H 1.558052 0.047869 0.287344
  C 2.634346 0.053178 0.193264
  C 3.397548 -0.019607 1.483230
  C 2.484403 -0.088540 2.704775
  C 3.283500 -0.161677 4.001001
  C 3.189030 0.121519 -1.017852
  H 2.573447 0.171583 -1.905127
  C 4.609782 0.135782 -1.270542
  C 5.135435 0.204907 -2.495757
  O 6.458684 0.221306 -2.786367
  H 4.048120 0.856722 1.575922
  H 4.048128 -0.900803 1.476745
  H 1.842039 -0.969050 2.630289
  H 1.842031 0.794755 2.729825
  H 3.917098 -1.046293 4.011991
  H 2.615963 -0.210068 4.858524
  H 3.917089 0.716088 4.111438
  H 5.276307 0.087715 -0.418634
  H 4.541413 0.255730 -3.396494
  H 6.971775 0.175203 -1.969212
 20
 7.001287
  H 1.591969 0.049023 0.266894
  C 2.667991 0.054753 0.165347
  C 3.438445 -0.017492 1.445746
  C 2.432809 -0.093738 2.796880
  C 3.237261 -0.166397 4.084625
  C 3.212935 0.123339 -1.050096
  H 2.587339 0.173022 -1.930635
  C 4.631162 0.138417 -1.317242
  C 5.142665 0.207820 -2.547373
  O 6.462112 0.225080 -2.853242
  H 4.085568 0.857645 1.540246
  H 4.085576 -0.897706 1.441192
  H 1.793300 -0.972801 2.719530
  H 1.793290 0.788443 2.818921
  H 3.871184 -1.050807 4.092338
  H 2.573601 -0.214949 4.945013
  H 3.871177 0.711537 4.191782
  H 5.306423 0.090743 -0.472303
  H 4.537642 0.258225 -3.440699
  H 6.984793 0.179317 -2.042109
 20
 21.983735
  H 1.633473 0.049145 0.264752
  C 2.709402 0.055419 0.153562
  C 3.488763 -0.015694 1.413882
  C 2.377882 -0.098715 2.885087
  C 3.186361 -0.170365 4.154929
  C 3.240857 0.124364 -1.068263
  H 2.599048 0.173400 -1.937348
  C 4.655121 0.140702 -1.357731
  C 5.144729 0.210634 -2.597243
  O 6.458173 0.229307 -2.928159
  H 4.123935 0.857731 1.527658
  H 4.123942 -0.896374 1.428675
  H 1.748349 -0.975173 2.786424
  H 1.748341 0.783273 2.885656
  H 3.820679 -1.054727 4.159920
  H 2.524429 -0.219050 5.017675
  H 3.820678 0.707831 4.259378
  H 5.343872 0.093625 -0.523361
  H 4.521484 0.260329 -3.478024
  H 6.996502 0.184121 -2.127251
 20
 38.502697
  H 1.669676 0.049941 0.250634
  C 2.744726 0.056646 0.131813
  C 3.538676 -0.013988 1.383643
  C 2.321867 -0.103749 2.974305
  C 3.140773 -0.174953 4.236257
  C 3.264581 0.125974 -1.096801
  H 2.610249 0.174495 -1.956770
  C 4.674200 0.143230 -1.402563
  C 5.147069 0.213458 -2.647288
  O 6.455402 0.233152 -2.996285
  H 4.165240 0.864441 1.520103
  H 4.165244 -0.902184 1.420415
  H 1.699413 -0.984347 2.851687
  H 1.699401 0.785051 2.951532
  H 3.775542 -1.059249 4.239177
  H 2.481496 -0.223882 5.103361
  H 3.775531 0.703396 4.338638
  H 5.372446 0.096601 -0.576094
  H 4.510574 0.262612 -3.518491
  H 7.004887 0.188400 -2.203077
 20
 54.974089
  H 1.706352 0.050233 0.245475
  C 2.780011 0.057525 0.116255
  C 3.585885 -0.012079 1.349808
  C 2.267356 -0.108759 3.063078
  C 3.095550 -0.179021 4.308335
  C 3.284984 0.127074 -1.116287
  H 2.618197 0.175062 -1.966789
  C 4.691237 0.145274 -1.438791
  C 5.149589 0.215983 -2.692029
  O 6.453488 0.236650 -3.058272
  H 4.200226 0.867004 1.506052
  H 4.200234 -0.903159 1.406166
  H 1.655775 -0.989364 2.919758
  H 1.655768 0.782372 3.019736
  H 3.730091 -1.062891 4.306652
  H 2.442703 -0.228272 5.181157
  H 3.730089 0.699436 4.406096
  H 5.398626 0.099065 -0.619787
  H 4.500841 0.264641 -3.554416
  H 7.013525 0.192307 -2.272311
 20
 69.911683
  H 1.739500 0.050822 0.235028
  C 2.812925 0.058633 0.096610
  C 3.632923 -0.010441 1.320785
  C 2.211218 -0.113976 3.155519
  C 3.050877 -0.183682 4.390924
  C 3.307058 0.128861 -1.147960
  H 2.629515 0.176394 -1.990390
  C 4.708988 0.147884 -1.485059
  C 5.151303 0.218536 -2.737265
  O 6.450006 0.240008 -3.117790
  H 4.237138 0.872716 1.497939
  H 4.237142 -0.907913 1.397462
  H 1.608561 -0.998159 2.991014
  H 1.608554 0.783093 3.091529
  H 3.685687 -1.068013 4.385403
  H 2.404120 -0.233333 5.270805
  H 3.685688 0.695668 4.484924
  H 5.424152 0.102082 -0.673259
  H 4.492211 0.266727 -3.591373
  H 7.018697 0.196029 -2.338285
