 11
 0.000000
  H 1.363789 0.138534 0.394016
  C 2.438759 0.112343 0.330826
  H 2.997512 0.456121 1.187788
  C 3.069460 -0.338694 -0.791602
  C 4.468638 -0.377772 -0.888368
  C 5.136985 -0.832587 -2.022769
  H 4.596249 -1.183510 -2.897020
  O 6.408836 -0.877035 -2.135413
  H 2.487034 -0.678108 -1.638017
  H 5.078602 -0.044714 -0.058413
  H 6.910241 -0.560997 -1.348714
 11
 3.625319
  H 1.340550 0.207470 0.342589
  C 2.411460 0.097970 0.335499
  H 2.937130 0.309810 1.253047
  C 3.074869 -0.297852 -0.788512
  C 4.475532 -0.402496 -0.829597
  C 5.147554 -0.877624 -1.950870
  H 4.583247 -1.318397 -2.770665
  O 6.420122 -0.996308 -2.070318
  H 2.516681 -0.531313 -1.685154
  H 5.039766 -0.153123 0.059247
  H 6.975405 -0.312907 -1.635478
 11
 13.032322
  H 1.301717 0.163021 0.321465
  C 2.377297 0.108547 0.320209
  H 2.890259 0.416938 1.217644
  C 3.063516 -0.324172 -0.777099
  C 4.466724 -0.418537 -0.787124
  C 5.162384 -0.837369 -1.915651
  H 4.609038 -1.066491 -2.828099
  O 6.434103 -1.066765 -1.955411
  H 2.522654 -0.614958 -1.667960
  H 5.011395 -0.172638 0.115399
  H 7.119037 -0.374036 -1.911331
 11
 14.251799
  H 1.262523 0.143207 0.309752
  C 2.343312 0.115746 0.319682
  H 2.840746 0.472086 1.209802
  C 3.050470 -0.350129 -0.749972
  C 4.454963 -0.453098 -0.723440
  C 5.180199 -0.806254 -1.853247
  H 4.659980 -0.848443 -2.812062
  O 6.447470 -1.068111 -1.829404
  H 2.525838 -0.676290 -1.639006
  H 4.970056 -0.192659 0.195032
  H 7.138020 -0.474987 -2.177545
 11
 5.213490
  H 1.239700 0.125338 0.307814
  C 2.315710 0.095596 0.339713
  H 2.793985 0.417959 1.250843
  C 3.045637 -0.328292 -0.731081
  C 4.446976 -0.413705 -0.686798
  C 5.213100 -0.741209 -1.802592
  H 4.731976 -0.836234 -2.776141
  O 6.476091 -0.952027 -1.687109
  H 2.540482 -0.624214 -1.640712
  H 4.969578 -0.159889 0.228797
  H 7.090172 -0.672012 -2.397148
 11
 1.625683
  H 1.224834 0.063064 0.299200
  C 2.299918 0.028092 0.348962
  H 2.757409 0.174155 1.314476
  C 3.053330 -0.222345 -0.758898
  C 4.454841 -0.284545 -0.709213
  C 5.227414 -0.714691 -1.786936
  H 4.742953 -1.044107 -2.703306
  O 6.504711 -0.757746 -1.667595
  H 2.565782 -0.393475 -1.709968
  H 4.985093 0.049691 0.172919
  H 7.044693 -0.930125 -2.467705
 11
 7.620780
  H 1.236437 0.003412 0.322299
  C 2.311612 -0.046624 0.345036
  H 2.785492 -0.119385 1.310853
  C 3.038836 -0.112981 -0.799006
  C 4.442705 -0.222704 -0.801091
  C 5.208877 -0.817977 -1.799790
  H 4.774111 -1.410066 -2.600280
  O 6.485514 -0.764692 -1.635945
  H 2.532978 -0.094681 -1.757002
  H 5.068978 0.267600 -0.060959
  H 7.088698 -0.871793 -2.400495
 11
 21.881716
  H 1.247608 0.033932 0.400715
  C 2.326353 -0.071409 0.362919
  H 2.842208 -0.311341 1.287158
  C 2.993522 -0.048932 -0.819468
  C 4.363231 -0.254310 -0.915458
  C 5.185617 -0.942084 -1.809388
  H 4.904233 -1.710903 -2.502710
  O 6.454595 -0.718286 -1.543961
  H 2.456659 0.157880 -1.723218
  H 5.125240 0.293778 -0.343756
  H 7.100786 -0.625206 -2.286926
 11
 44.822733
  H 1.287473 0.110718 0.516959
  C 2.356961 -0.096305 0.382924
  H 2.918092 -0.392567 1.247230
  C 2.940737 -0.029960 -0.847823
  C 4.279841 -0.356862 -1.072486
  C 5.159015 -1.024352 -1.841363
  H 5.046781 -1.884645 -2.457136
  O 6.390761 -0.653450 -1.429158
  H 2.362399 0.344815 -1.694495
  H 5.228107 0.196070 -0.606964
  H 7.071274 -0.420719 -2.117955
 11
 59.624071
  H 1.306791 0.207092 0.526923
  C 2.330469 -0.086507 0.378467
  H 2.866313 -0.458421 1.235503
  C 2.902158 -0.023157 -0.852401
  C 4.187007 -0.447741 -1.128903
  C 5.102573 -1.094850 -1.807228
  H 5.089535 -1.957275 -2.448857
  O 6.346310 -0.573096 -1.378263
  H 2.361179 0.438976 -1.672552
  H 5.477003 0.104250 -0.651630
  H 6.955711 -0.268406 -2.085723
 11
 55.127111
  H 1.343219 0.277147 0.549108
  C 2.337968 -0.091721 0.367315
  H 2.874104 -0.471185 1.205062
  C 2.885362 -0.055102 -0.872345
  C 4.146049 -0.492927 -1.175799
  C 5.096870 -1.119402 -1.810960
  H 5.137353 -2.000938 -2.448413
  O 6.332082 -0.547001 -1.334222
  H 2.340983 0.436772 -1.670396
  H 5.634328 0.042259 -0.691252
  H 6.969870 -0.199700 -2.074657
 11
 45.976900
  H 1.317160 0.256025 0.525929
  C 2.310070 -0.093557 0.348815
  H 2.843025 -0.492016 1.195677
  C 2.861352 -0.039099 -0.864941
  C 4.121168 -0.494562 -1.168818
  C 5.085567 -1.120116 -1.758764
  H 5.143742 -2.032416 -2.354975
  O 6.362753 -0.545744 -1.380399
  H 2.355061 0.480147 -1.676767
  H 5.851503 0.090027 -0.739818
  H 6.919966 -0.250102 -2.131485
 11
 38.653467
  H 1.264539 0.217869 0.504095
  C 2.268586 -0.133342 0.348703
  H 2.763239 -0.588875 1.180852
  C 2.875486 0.001775 -0.865412
  C 4.106025 -0.463458 -1.174582
  C 5.091386 -1.093247 -1.746875
  H 5.125255 -2.015916 -2.283609
  O 6.399960 -0.570438 -1.410641
  H 2.377103 0.568102 -1.646859
  H 6.067609 0.144896 -0.791191
  H 6.936003 -0.331939 -2.183152
 11
 33.935282
  H 1.238064 0.258651 0.493488
  C 2.234794 -0.111651 0.333265
  H 2.726465 -0.588555 1.160617
  C 2.843037 0.013614 -0.886738
  C 4.060236 -0.482054 -1.195258
  C 5.084143 -1.092516 -1.682845
  H 5.121255 -2.052818 -2.174047
  O 6.421365 -0.583567 -1.399782
  H 2.347612 0.579713 -1.667446
  H 6.251857 0.202710 -0.828781
  H 6.946362 -0.408101 -2.221144
 11
 32.972879
  H 1.208039 0.283976 0.463326
  C 2.197408 -0.103412 0.312868
  H 2.672549 -0.592083 1.143826
  C 2.815222 0.002489 -0.901241
  C 4.055339 -0.455287 -1.176136
  C 5.088238 -1.066286 -1.608472
  H 5.104355 -2.050884 -2.054393
  O 6.445621 -0.584879 -1.426739
  H 2.312065 0.530337 -1.703258
  H 6.471602 0.198407 -0.831574
  H 6.904753 -0.426950 -2.286877
