 20
 0.000000
  C 1.006862 -0.072327 0.045713
  C 2.502874 -0.082892 0.024988
  C 3.219773 -0.596026 -0.980483
  C 4.657776 -0.605457 -0.999586
  C 5.378944 -1.120116 -2.010715
  C 6.817586 -1.129764 -2.029587
  C 7.533712 -1.641531 -3.035906
  C 9.023780 -1.662385 -3.075568
  H 0.646168 0.395549 0.961117
  H 0.610132 -1.087101 0.010212
  H 0.610486 0.492505 -0.798068
  H 3.002305 0.353959 0.879953
  H 2.709734 -1.030349 -1.831885
  H 5.161265 -0.170087 -0.145207
  H 4.875211 -1.554923 -2.865183
  H 7.325731 -0.696555 -1.176669
  H 7.033268 -2.076508 -3.892245
  H 9.459672 -1.210479 -2.185979
  H 9.382433 -1.115845 -3.949353
  H 9.381689 -2.690651 -3.149000
 20
 2.426505
  C 1.060428 -0.183074 0.018981
  C 2.538171 0.018481 0.043130
  C 3.275212 -0.436479 -0.968992
  C 4.692897 -0.456539 -1.009318
  C 5.357894 -1.029777 -2.006019
  C 6.765182 -1.126382 -2.019948
  C 7.483744 -1.657196 -3.025109
  C 8.969988 -1.729868 -3.057041
  H 0.577174 0.141154 0.944142
  H 0.896895 -1.239727 -0.125661
  H 0.597152 0.349871 -0.821695
  H 2.994756 0.467090 0.922146
  H 2.768509 -0.891575 -1.816992
  H 5.227766 -0.031831 -0.165677
  H 4.818499 -1.453841 -2.849008
  H 7.280933 -0.711154 -1.158600
  H 6.977056 -2.072703 -3.884537
  H 9.403932 -1.295270 -2.161192
  H 9.354411 -1.196216 -3.926578
  H 9.297724 -2.766705 -3.137092
 20
 5.667881
  C 1.130550 -0.419798 -0.015583
  C 2.531757 0.095803 0.047984
  C 3.322055 -0.168655 -0.993143
  C 4.732135 -0.130891 -1.029047
  C 5.373741 -0.791522 -1.999047
  C 6.767247 -1.037999 -2.000802
  C 7.411352 -1.663448 -2.988868
  C 8.884143 -1.901308 -3.028621
  H 0.602735 -0.355578 0.939783
  H 1.232864 -1.453942 -0.325096
  H 0.541186 0.108866 -0.778605
  H 2.906961 0.522232 0.972004
  H 2.859328 -0.623034 -1.866222
  H 5.267713 0.290746 -0.189005
  H 4.804348 -1.211840 -2.824854
  H 7.331376 -0.660191 -1.153822
  H 6.851171 -2.048412 -3.831597
  H 9.372371 -1.492334 -2.144914
  H 9.316338 -1.434340 -3.916569
  H 9.097572 -2.971841 -3.085979
 20
 10.404766
  C 1.290683 -0.657059 -0.029076
  C 2.573078 0.093462 0.023141
  C 3.316581 0.091911 -1.079199
  C 4.732930 0.157545 -1.110321
  C 5.361554 -0.540672 -2.061247
  C 6.720355 -0.934316 -2.000904
  C 7.319607 -1.669210 -2.943585
  C 8.757571 -2.060432 -2.927822
  H 0.833215 -0.781677 0.949154
  H 1.570193 -1.636169 -0.445295
  H 0.562793 -0.188444 -0.698859
  H 2.954849 0.427343 0.979268
  H 2.856241 -0.281616 -1.988418
  H 5.264884 0.525686 -0.242804
  H 4.791663 -0.922114 -2.902938
  H 7.303060 -0.587094 -1.154100
  H 6.743997 -2.033063 -3.783976
  H 9.261766 -1.663717 -2.049279
  H 9.258933 -1.681519 -3.822772
  H 8.860041 -3.146159 -2.933042
 20
 15.398850
  C 1.533353 -0.914906 -0.054507
  C 2.695515 0.002580 -0.014903
  C 3.296303 0.316086 -1.155475
  C 4.709565 0.433904 -1.214803
  C 5.327109 -0.268695 -2.171939
  C 6.646904 -0.778613 -2.044895
  C 7.195544 -1.652164 -2.894452
  C 8.565486 -2.219075 -2.756441
  H 1.170179 -1.175783 0.938800
  H 1.931935 -1.810471 -0.554252
  H 0.708704 -0.526904 -0.642787
  H 3.168140 0.190344 0.936245
  H 2.790472 0.085844 -2.090187
  H 5.244603 0.767054 -0.338826
  H 4.759880 -0.618386 -3.024857
  H 7.227857 -0.435308 -1.195994
  H 6.623489 -2.007176 -3.743482
  H 9.066069 -1.822015 -1.876772
  H 9.157128 -1.978641 -3.634200
  H 8.526272 -3.308898 -2.678429
 20
 21.250294
  C 1.780326 -1.127891 -0.111833
  C 2.812358 -0.067935 -0.062013
  C 3.278665 0.460176 -1.186469
  C 4.694062 0.633659 -1.275309
  C 5.295547 -0.082259 -2.230665
  C 6.581872 -0.667705 -2.061088
  C 7.061607 -1.646682 -2.832185
  C 8.370246 -2.330136 -2.616893
  H 1.454637 -1.446268 0.871852
  H 2.317260 -1.953748 -0.621101
  H 0.916417 -0.855661 -0.710598
  H 3.365937 0.035200 0.857023
  H 2.733982 0.318002 -2.112340
  H 5.237998 0.962078 -0.399593
  H 4.714593 -0.431348 -3.079656
  H 7.169291 -0.313215 -1.221498
  H 6.478260 -2.004121 -3.666328
  H 8.887179 -1.921045 -1.756038
  H 9.003761 -2.214819 -3.491836
  H 8.220772 -3.399687 -2.461953
 20
 27.472521
  C 1.991854 -1.266934 -0.178388
  C 2.879482 -0.086541 -0.080209
  C 3.264359 0.535707 -1.189223
  C 4.676283 0.747462 -1.302142
  C 5.257872 -0.004773 -2.244554
  C 6.517811 -0.635286 -2.053309
  C 6.957275 -1.664120 -2.782857
  C 8.228265 -2.397174 -2.527265
  H 1.684503 -1.655042 0.786183
  H 2.657116 -1.993958 -0.695246
  H 1.117712 -1.094821 -0.799574
  H 3.460566 0.009257 0.825307
  H 2.702652 0.401465 -2.103909
  H 5.229749 1.088033 -0.438785
  H 4.663250 -0.362378 -3.078031
  H 7.117726 -0.275916 -1.224009
  H 6.362723 -2.028337 -3.610327
  H 8.755807 -1.978246 -1.679448
  H 8.875782 -2.346894 -3.401656
  H 8.026053 -3.455403 -2.329849
 20
 33.862655
  C 2.201114 -1.380517 -0.234246
  C 2.919148 -0.091696 -0.088225
  C 3.241768 0.580917 -1.194610
  C 4.648957 0.828742 -1.324157
  C 5.219771 0.048569 -2.256709
  C 6.453673 -0.630457 -2.035419
  C 6.869328 -1.682394 -2.745857
  C 8.104802 -2.459593 -2.455659
  H 1.917907 -1.831959 0.710388
  H 2.986940 -1.990285 -0.741158
  H 1.335354 -1.318339 -0.887245
  H 3.511685 0.027454 0.807515
  H 2.674567 0.422718 -2.102885
  H 5.207492 1.177531 -0.466373
  H 4.618312 -0.310547 -3.083271
  H 7.052343 -0.284394 -1.199913
  H 6.278619 -2.033556 -3.580510
  H 8.634037 -2.047829 -1.597906
  H 8.771235 -2.445586 -3.318357
  H 7.859501 -3.503193 -2.250112
 20
 40.942693
  C 2.428394 -1.479244 -0.284624
  C 2.961055 -0.108789 -0.095407
  C 3.216877 0.599362 -1.201142
  C 4.612342 0.883000 -1.349949
  C 5.180361 0.090522 -2.277946
  C 6.381633 -0.629700 -2.016698
  C 6.788360 -1.691904 -2.717424
  C 7.982151 -2.516276 -2.380118
  H 2.195427 -1.990516 0.642562
  H 3.302266 -1.960386 -0.791668
  H 1.575405 -1.520847 -0.954037
  H 3.554324 0.049760 0.793207
  H 2.647246 0.405682 -2.102461
  H 5.173868 1.231050 -0.494745
  H 4.582938 -0.260872 -3.110795
  H 6.957330 -0.308687 -1.157522
  H 6.218785 -2.018259 -3.576260
  H 8.489094 -2.128351 -1.501536
  H 8.684152 -2.523434 -3.215028
  H 7.691514 -3.550116 -2.190034
 20
 48.509678
  C 2.672561 -1.570369 -0.333420
  C 2.997768 -0.140401 -0.100937
  C 3.182245 0.599204 -1.210672
  C 4.564640 0.925939 -1.373139
  C 5.138510 0.127772 -2.300914
  C 6.310972 -0.632240 -2.000210
  C 6.716054 -1.701558 -2.694575
  C 7.862725 -2.572269 -2.306259
  H 2.501741 -2.135643 0.577205
  H 3.617505 -1.917777 -0.845079
  H 1.840215 -1.714790 -1.021480
  H 3.577190 0.072266 0.790080
  H 2.616774 0.365410 -2.104302
  H 5.128115 1.276435 -0.516396
  H 4.550142 -0.214374 -3.136675
  H 6.863645 -0.330158 -1.122406
  H 6.173538 -2.004456 -3.574674
  H 8.343272 -2.205880 -1.398828
  H 8.601026 -2.600397 -3.105087
  H 7.526656 -3.597500 -2.136802
 20
 56.426582
  C 2.907475 -1.636131 -0.373009
  C 3.021346 -0.178805 -0.099696
  C 3.150773 0.569311 -1.221889
  C 4.512687 0.945088 -1.397682
  C 5.099480 0.145207 -2.323924
  C 6.235981 -0.652908 -1.972701
  C 6.653996 -1.717062 -2.668486
  C 7.764697 -2.614378 -2.242383
  H 2.814216 -2.242219 0.521688
  H 3.904912 -1.836352 -0.890025
  H 2.110821 -1.881518 -1.070065
  H 3.579079 0.090042 0.786324
  H 2.598982 0.280074 -2.107515
  H 5.072911 1.293039 -0.539124
  H 4.524625 -0.189997 -3.176233
  H 6.756032 -0.376731 -1.061807
  H 6.145177 -1.996195 -3.579720
  H 8.208441 -2.271401 -1.310652
  H 8.540259 -2.645215 -3.008416
  H 7.402947 -3.633423 -2.104187
 20
 64.979169
  C 3.154759 -1.684318 -0.403066
  C 3.048460 -0.232528 -0.094424
  C 3.110771 0.514127 -1.234662
  C 4.446782 0.944690 -1.428056
  C 5.052581 0.141808 -2.350475
  C 6.150869 -0.686009 -1.946235
  C 6.610423 -1.728444 -2.651235
  C 7.683398 -2.649212 -2.179755
  H 3.157200 -2.314624 0.479588
  H 4.168776 -1.732191 -0.932358
  H 2.397691 -2.032583 -1.102519
  H 3.586018 0.097687 0.784795
  H 2.568036 0.173290 -2.108005
  H 5.004745 1.305156 -0.572358
  H 4.500993 -0.182811 -3.220702
  H 6.619030 -0.437836 -1.002054
  H 6.158674 -1.975581 -3.599974
  H 8.067114 -2.337925 -1.210131
  H 8.507749 -2.664302 -2.892915
  H 7.306329 -3.669439 -2.095962
 20
 75.115295
  C 3.403916 -1.723555 -0.426998
  C 3.095440 -0.307918 -0.091751
  C 3.070856 0.427652 -1.248554
  C 4.367198 0.930643 -1.466884
  C 4.996370 0.127247 -2.384182
  C 6.062275 -0.721940 -1.919303
  C 6.582580 -1.734512 -2.630613
  C 7.624347 -2.666577 -2.112684
  H 3.510484 -2.354306 0.448636
  H 4.412736 -1.631443 -0.987169
  H 2.687711 -2.169184 -1.115200
  H 3.610442 0.086458 0.774167
  H 2.532276 0.038310 -2.103994
  H 4.921706 1.320074 -0.620724
  H 4.466505 -0.201638 -3.264821
  H 6.478075 -0.485794 -0.948735
  H 6.194207 -1.955324 -3.612059
  H 7.937621 -2.383133 -1.109861
  H 8.497350 -2.657356 -2.766005
  H 7.248933 -3.690417 -2.084729
 20
 85.659303
  C 3.619717 -1.767968 -0.435070
  C 3.145258 -0.399949 -0.089793
  C 3.035209 0.316447 -1.264173
  C 4.284438 0.902124 -1.513958
  C 4.947429 0.107309 -2.426982
  C 5.990028 -0.753329 -1.899912
  C 6.576151 -1.738201 -2.606232
  C 7.611150 -2.654235 -2.045335
  H 3.823440 -2.374053 0.440951
  H 4.611693 -1.554324 -1.036188
  H 2.947029 -2.303247 -1.103071
  H 3.630613 0.057473 0.762677
  H 2.500917 -0.120846 -2.098438
  H 4.829857 1.339406 -0.685836
  H 4.433297 -0.245173 -3.308004
  H 6.391313 -0.487184 -0.929824
  H 6.227448 -1.965386 -3.600975
  H 7.874626 -2.368122 -1.028902
  H 8.512641 -2.626454 -2.658700
  H 7.255402 -3.685843 -2.035215
