 20
 0.000000
  C 1.009068 0.117710 0.342043
  C 2.481960 0.115596 0.340945
  C 3.210639 0.593339 1.530541
  H 2.530830 0.908803 2.314119
  C 3.133124 -0.340885 -0.793628
  C 4.517639 -0.400626 -0.943876
  C 5.190075 -0.854153 -2.077464
  C 4.551122 -1.351056 -3.313848
  H 3.472061 -1.335939 -3.272613
  O 6.498082 -0.868894 -2.120600
  H 0.596506 0.492027 1.272337
  H 0.630343 -0.889653 0.163922
  H 0.632372 0.722836 -0.483719
  H 3.858680 1.431581 1.272597
  H 3.857674 -0.190837 1.924883
  H 2.508662 -0.668882 -1.610409
  H 5.129335 -0.068113 -0.115912
  H 4.897319 -2.365974 -3.509141
  H 4.895320 -0.751923 -4.156873
  H 6.942654 -0.544112 -1.314436
 20
 12.924021
  C 0.959558 0.142934 0.404767
  C 2.426665 0.148707 0.423333
  C 3.156524 0.623125 1.604968
  H 2.478010 0.939222 2.390363
  C 3.148878 -0.348497 -0.812625
  C 4.512309 -0.397392 -0.936086
  C 5.255119 -0.891928 -2.171923
  C 4.612067 -1.385238 -3.398900
  H 3.531032 -1.367508 -3.351276
  O 6.555528 -0.899333 -2.196702
  H 0.535034 0.515508 1.330912
  H 0.587337 -0.866929 0.221671
  H 0.589390 0.746575 -0.426210
  H 3.805722 1.460769 1.344928
  H 3.804756 -0.162163 1.997202
  H 2.529039 -0.676863 -1.630153
  H 5.119756 -0.065071 -0.108873
  H 4.955263 -2.401301 -3.595176
  H 4.953306 -0.786246 -4.243551
  H 6.989195 -0.572468 -1.385167
 20
 39.751115
  C 0.928551 0.144295 0.408757
  C 2.380426 0.173361 0.484710
  C 3.150063 0.633397 1.629995
  H 2.493029 0.956323 2.432649
  C 3.173926 -0.360355 -0.841767
  C 4.491725 -0.377701 -0.887258
  C 5.308839 -0.916751 -2.233883
  C 4.612057 -1.395647 -3.425623
  H 3.533681 -1.356778 -3.327187
  O 6.617533 -0.903469 -2.205969
  H 0.477652 0.512974 1.324978
  H 0.572018 -0.870566 0.219329
  H 0.573790 0.746689 -0.430433
  H 3.801350 1.465304 1.352027
  H 3.800906 -0.159753 2.005141
  H 2.530407 -0.680011 -1.636902
  H 5.126997 -0.055126 -0.084981
  H 4.925732 -2.419861 -3.637506
  H 4.924710 -0.801872 -4.286953
  H 7.034802 -0.569398 -1.374658
 20
 71.952796
  C 0.860171 0.163700 0.456491
  C 2.321025 0.205132 0.564498
  C 3.114422 0.663275 1.704234
  H 2.469531 0.991482 2.518475
  C 3.180603 -0.366197 -0.853751
  C 4.494846 -0.369775 -0.864806
  C 5.385940 -0.952916 -2.323863
  C 4.674434 -1.424706 -3.498487
  H 3.598026 -1.378098 -3.379223
  O 6.664074 -0.930987 -2.276277
  H 0.385301 0.530558 1.366636
  H 0.514194 -0.853515 0.256777
  H 0.516590 0.760274 -0.392241
  H 3.768269 1.487590 1.417081
  H 3.767310 -0.130883 2.068407
  H 2.522132 -0.679383 -1.633319
  H 5.147226 -0.055481 -0.083348
  H 4.977829 -2.450550 -3.717261
  H 4.976098 -0.833505 -4.365495
  H 7.062064 -0.601724 -1.456975
 20
 103.763030
  C 0.817465 0.177177 0.490037
  C 2.265076 0.235084 0.638679
  C 3.074716 0.685547 1.760306
  H 2.439173 1.015684 2.580322
  C 3.188770 -0.366957 -0.857737
  C 4.480585 -0.352444 -0.822986
  C 5.451163 -0.985814 -2.406136
  C 4.711755 -1.449744 -3.560012
  H 3.640609 -1.390898 -3.410065
  O 6.723451 -0.955975 -2.338802
  H 0.321396 0.539655 1.390337
  H 0.483426 -0.846865 0.283842
  H 0.485569 0.774613 -0.367694
  H 3.731873 1.511721 1.464851
  H 3.730900 -0.115868 2.119087
  H 2.511577 -0.673754 -1.621657
  H 5.161141 -0.046999 -0.062996
  H 4.997715 -2.480915 -3.787321
  H 4.995901 -0.860993 -4.437238
  H 7.117690 -0.624892 -1.515009
 20
 132.998380
  C 0.759398 0.201584 0.551165
  C 2.202050 0.268842 0.722589
  C 3.017151 0.717133 1.838807
  H 2.383652 1.048013 2.661253
  C 3.191764 -0.367700 -0.860205
  C 4.473573 -0.344223 -0.803024
  C 5.521958 -1.024181 -2.501746
  C 4.775411 -1.485573 -3.649447
  H 3.705042 -1.422719 -3.489971
  O 6.790663 -0.991730 -2.427257
  H 0.249836 0.561540 1.445443
  H 0.433830 -0.821174 0.342141
  H 0.435721 0.796065 -0.307630
  H 3.671702 1.539657 1.543184
  H 3.671096 -0.081675 2.194686
  H 2.507537 -0.672057 -1.617898
  H 5.165087 -0.043340 -0.054112
  H 5.055398 -2.516976 -3.878975
  H 5.053836 -0.898391 -4.528422
  H 7.182926 -0.659955 -1.601234
 20
 156.489382
  C 0.726963 0.218094 0.590010
  C 2.143941 0.303067 0.807461
  C 2.969241 0.738874 1.898084
  H 2.340340 1.069973 2.723784
  C 3.170555 -0.349326 -0.819790
  C 4.424159 -0.311896 -0.728856
  C 5.576196 -1.057769 -2.586764
  C 4.834684 -1.520787 -3.732521
  H 3.758976 -1.457110 -3.570481
  O 6.843232 -1.033188 -2.533344
  H 0.195627 0.571577 1.471018
  H 0.414878 -0.806374 0.375099
  H 0.417157 0.812089 -0.272733
  H 3.622151 1.560070 1.601843
  H 3.620868 -0.060968 2.250622
  H 2.473198 -0.647474 -1.562351
  H 5.139312 -0.020957 -0.006775
  H 5.114354 -2.551231 -3.959161
  H 5.111854 -0.935231 -4.610725
  H 7.252365 -0.696182 -1.699629
 20
 136.973963
  C 0.768294 0.233944 0.553583
  C 2.200954 0.256542 0.820526
  C 2.713612 0.764240 2.089941
  H 1.912080 1.000708 2.787413
  C 3.084131 -0.143600 -0.237159
  C 4.411202 -0.055522 -0.230827
  C 5.726719 -1.183608 -2.881706
  C 4.907360 -1.656386 -4.020078
  H 3.850078 -1.615241 -3.788460
  O 7.005211 -1.215580 -3.069022
  H 0.179714 0.577049 1.398163
  H 0.459704 -0.772030 0.271478
  H 0.538341 0.850103 -0.321161
  H 3.314594 1.660001 1.930249
  H 3.389967 0.038599 2.539500
  H 2.601078 -0.479028 -1.150525
  H 5.154292 0.171674 0.501642
  H 5.192239 -2.672331 -4.281565
  H 5.117149 -1.045097 -4.894651
  H 7.522076 -0.864599 -2.318766
 20
 123.279265
  C 0.872150 0.182810 0.327134
  C 2.328208 0.148766 0.620446
  C 2.857793 0.714026 1.888224
  H 2.070376 0.858945 2.621291
  C 3.206407 -0.329035 -0.400982
  C 4.549213 -0.206846 -0.387341
  C 5.530470 -1.025142 -2.549650
  C 4.634708 -1.473378 -3.593575
  H 3.601337 -1.453249 -3.272636
  O 6.759811 -1.051685 -2.775052
  H 0.293908 0.564666 1.160817
  H 0.521396 -0.819001 0.064026
  H 0.671318 0.797784 -0.552773
  H 3.338820 1.678123 1.709318
  H 3.632672 0.063198 2.302921
  H 2.722918 -0.684222 -1.309582
  H 5.300596 -0.024807 0.346194
  H 4.910143 -2.480956 -3.907700
  H 4.760607 -0.833604 -4.469136
  H 7.328390 -0.736410 -2.037543
