 26
 0.000000
  C 0.989000 0.144830 0.413410
  C 2.463523 0.138155 0.395535
  C 3.237065 0.606538 1.559304
  H 2.639010 0.942746 2.395925
  C 3.068265 -0.328362 -0.765129
  C 4.442585 -0.415307 -0.982385
  C 5.120995 -0.867046 -2.108914
  C 4.620626 -1.388509 -3.409709
  C 3.129341 -1.504317 -3.699948
  C 2.909785 -2.066414 -5.102142
  O 6.441618 -0.862719 -2.098244
  H 0.576043 0.518570 1.342931
  H 0.609104 -0.864454 0.248941
  H 0.608389 0.758876 -0.403981
  H 3.890302 1.425560 1.250196
  H 3.890998 -0.197900 1.903182
  H 2.390986 -0.640095 -1.540206
  H 5.067812 -0.085301 -0.160774
  H 5.077957 -2.376506 -3.536775
  H 5.078632 -0.762395 -4.184103
  H 2.655259 -0.523762 -3.646665
  H 2.654612 -2.176167 -2.984173
  H 3.350709 -1.418773 -5.856306
  H 1.846028 -2.149348 -5.310044
  H 3.350117 -3.055957 -5.199917
  H 6.827526 -0.529874 -1.266218
 26
 1.555648
  C 1.015569 -0.104397 0.514754
  C 2.476703 0.078055 0.385676
  C 3.214816 0.896228 1.368154
  H 2.566414 1.252569 2.164041
  C 3.083920 -0.522811 -0.710560
  C 4.455653 -0.650842 -0.911730
  C 5.142824 -1.059086 -2.050067
  C 4.638086 -1.437360 -3.395530
  C 3.146856 -1.441096 -3.699733
  C 2.913335 -1.855694 -5.148129
  O 6.459886 -1.123040 -2.013981
  H 0.585059 0.612723 1.200885
  H 0.796576 -1.111325 0.873702
  H 0.508899 0.011681 -0.443229
  H 3.674864 1.751767 0.871280
  H 4.038353 0.329355 1.805839
  H 2.343840 -0.837444 -1.424199
  H 5.075411 -0.419209 -0.051933
  H 5.047445 -2.431917 -3.607162
  H 5.142295 -0.768685 -4.103875
  H 2.729460 -0.444377 -3.549242
  H 2.632073 -2.150617 -3.050360
  H 3.399519 -1.164637 -5.833171
  H 1.849979 -1.862106 -5.372782
  H 3.303760 -2.853530 -5.336050
  H 6.858026 -0.888526 -1.154553
 26
 5.139194
  C 1.075301 -0.321020 0.728457
  C 2.454249 0.039422 0.349041
  C 3.119942 1.174863 1.007086
  H 2.519193 1.582491 1.814138
  C 3.075869 -0.717485 -0.636195
  C 4.442256 -0.887576 -0.824980
  C 5.139826 -1.242899 -1.972456
  C 4.652186 -1.446429 -3.364371
  C 3.168909 -1.334345 -3.691488
  C 2.946856 -1.565128 -5.184121
  O 6.449217 -1.396066 -1.909735
  H 0.513310 0.548940 1.045788
  H 1.117903 -1.029897 1.557144
  H 0.535633 -0.806302 -0.081363
  H 3.300654 1.962036 0.274052
  H 4.101298 0.888650 1.385880
  H 2.341310 -1.041674 -1.354520
  H 5.046359 -0.766647 0.068304
  H 5.012547 -2.433280 -3.675429
  H 5.208997 -0.736168 -3.986713
  H 2.801564 -0.340759 -3.433812
  H 2.605716 -2.087757 -3.140951
  H 3.485742 -0.828906 -5.776051
  H 1.890492 -1.485557 -5.427226
  H 3.287422 -2.554838 -5.479331
  H 6.831324 -1.279409 -1.020073
 26
 19.865759
  C 1.192190 -0.520316 0.854677
  C 2.435565 0.024809 0.271416
  C 2.911695 1.367000 0.650581
  H 2.278169 1.817477 1.408868
  C 3.173025 -0.836918 -0.545231
  C 4.511938 -1.087155 -0.765765
  C 5.181800 -1.402535 -1.931092
  C 4.675773 -1.457048 -3.331218
  C 3.199713 -1.204493 -3.610745
  C 2.925619 -1.302946 -5.109128
  O 6.478532 -1.661142 -1.888840
  H 0.458865 0.263236 0.967927
  H 1.426597 -0.958256 1.824180
  H 0.752260 -1.304141 0.240426
  H 2.916528 2.014732 -0.225912
  H 3.942496 1.320986 1.002896
  H 2.356724 -0.995770 -1.262760
  H 5.108055 -1.093851 0.141387
  H 4.951795 -2.441812 -3.723139
  H 5.276840 -0.742049 -3.904087
  H 2.922437 -0.206072 -3.271339
  H 2.591927 -1.951335 -3.100253
  H 3.511494 -0.570558 -5.659813
  H 1.874480 -1.120257 -5.316506
  H 3.177572 -2.291586 -5.485487
  H 6.861153 -1.643363 -0.994745
 26
 44.403964
  C 1.298896 -0.673243 0.904829
  C 2.443167 -0.042239 0.186405
  C 2.623898 1.431456 0.290492
  H 1.872317 1.872188 0.939407
  C 3.384246 -0.854211 -0.421758
  C 4.658632 -1.220468 -0.720137
  C 5.269259 -1.527114 -1.923355
  C 4.704064 -1.461749 -3.305151
  C 3.247090 -1.049661 -3.471686
  C 2.860656 -1.037346 -4.948048
  O 6.549960 -1.921921 -1.943649
  H 0.483596 0.028439 0.933620
  H 1.616216 -0.933571 1.912588
  H 0.949340 -1.582215 0.424918
  H 2.548332 1.896356 -0.688620
  H 3.616728 1.659265 0.676184
  H 2.409711 -0.804247 -1.084897
  H 5.262298 -1.344005 0.175596
  H 4.855841 -2.447560 -3.757706
  H 5.341213 -0.777494 -3.876590
  H 3.100037 -0.047490 -3.067020
  H 2.602737 -1.761397 -2.953548
  H 3.479390 -0.337046 -5.504026
  H 1.821617 -0.741275 -5.068648
  H 2.985169 -2.023338 -5.388828
  H 6.952736 -1.976235 -1.062263
 26
 51.083802
  C 1.401600 -0.820915 0.957219
  C 2.447073 -0.125996 0.102731
  C 2.449825 1.391909 0.135857
  H 1.647918 1.758831 0.767290
  C 3.525583 -0.815041 -0.393872
  C 4.741101 -1.245105 -0.739425
  C 5.327391 -1.563747 -1.954292
  C 4.726953 -1.447072 -3.316644
  C 3.288528 -0.954471 -3.410713
  C 2.837408 -0.889233 -4.866929
  O 6.582967 -2.031605 -2.002138
  H 0.502391 -0.221476 0.983552
  H 1.783270 -0.932606 1.968977
  H 1.155009 -1.810814 0.585534
  H 2.323446 1.806819 -0.859869
  H 3.395833 1.757055 0.526996
  H 2.238154 -0.560988 -0.987686
  H 5.336756 -1.424027 0.155504
  H 4.808874 -2.429749 -3.793943
  H 5.378290 -0.785410 -3.898460
  H 3.215229 0.044972 -2.979775
  H 2.631721 -1.642539 -2.875950
  H 3.467781 -0.210829 -5.436787
  H 1.811731 -0.535743 -4.934347
  H 2.888620 -1.870736 -5.332145
  H 7.003587 -2.112599 -1.129999
 26
 52.712855
  C 1.474200 -0.928526 1.007743
  C 2.438942 -0.195449 0.023144
  C 2.361952 1.329375 0.016323
  H 1.568563 1.671327 0.671282
  C 3.562700 -0.845560 -0.432088
  C 4.774471 -1.262005 -0.769290
  C 5.381746 -1.544975 -1.989195
  C 4.766379 -1.380469 -3.335614
  C 3.324422 -0.893226 -3.363815
  C 2.821377 -0.772783 -4.799113
  O 6.632634 -2.003737 -2.047661
  H 0.591888 -0.321163 1.143237
  H 1.971964 -1.047108 1.968997
  H 1.190068 -1.917849 0.666247
  H 2.173317 1.703589 -0.985721
  H 3.299031 1.758878 0.360743
  H 1.844065 -0.624031 -0.831042
  H 5.356337 -1.487755 0.128107
  H 4.840744 -2.342212 -3.855416
  H 5.403611 -0.691971 -3.900710
  H 3.261022 0.084459 -2.885058
  H 2.694731 -1.606154 -2.830203
  H 3.427351 -0.067319 -5.362564
  H 1.792063 -0.424397 -4.816630
  H 2.862519 -1.734494 -5.304984
  H 7.054705 -2.116582 -1.179733
 26
 63.509137
  C 1.388383 -1.002625 0.858637
  C 2.521842 -0.184554 0.017391
  C 2.438824 1.327347 0.115539
  H 1.612110 1.633328 0.746576
  C 3.590443 -0.845397 -0.456277
  C 4.831884 -1.219730 -0.780814
  C 5.414462 -1.482291 -2.010696
  C 4.767611 -1.338399 -3.347885
  C 3.308409 -0.904168 -3.342490
  C 2.764297 -0.807257 -4.764258
  O 6.692788 -1.891234 -2.101021
  H 0.561249 -0.340706 1.072590
  H 1.888189 -1.257049 1.793143
  H 1.034929 -1.942685 0.441508
  H 2.309160 1.769800 -0.869265
  H 3.356690 1.726882 0.538868
  H 1.713398 -0.631690 -0.622332
  H 5.439230 -1.416493 0.101465
  H 4.865409 -2.298918 -3.865808
  H 5.365268 -0.628256 -3.929850
  H 3.223399 0.072097 -2.864237
  H 2.719773 -1.635846 -2.788333
  H 3.330728 -0.083279 -5.345361
  H 1.723150 -0.495469 -4.756724
  H 2.827289 -1.768973 -5.268065
  H 7.125264 -1.995012 -1.238294
 26
 67.792000
  C 1.244394 -1.004841 0.689379
  C 2.649764 -0.151500 0.010465
  C 2.563947 1.332751 0.233225
  H 1.700869 1.601936 0.831905
  C 3.647119 -0.823786 -0.474745
  C 4.911944 -1.173205 -0.793157
  C 5.459516 -1.433143 -2.033809
  C 4.782772 -1.328781 -3.361096
  C 3.310609 -0.939117 -3.343149
  C 2.745598 -0.889665 -4.759180
  O 6.750130 -1.801136 -2.154209
  H 0.491057 -0.286716 1.004865
  H 1.777503 -1.365512 1.564003
  H 0.791085 -1.890241 0.232071
  H 2.505142 1.861165 -0.717048
  H 3.456504 1.677515 0.749244
  H 1.589091 -0.582132 -0.422287
  H 5.551059 -1.343179 0.069307
  H 4.902358 -2.294965 -3.863747
  H 5.348494 -0.610993 -3.965356
  H 3.202620 0.043242 -2.883207
  H 2.752749 -1.675345 -2.764179
  H 3.282330 -0.161605 -5.363369
  H 1.695560 -0.609401 -4.744654
  H 2.831734 -1.859784 -5.243532
  H 7.202138 -1.882831 -1.298342
 26
 63.037671
  C 1.072318 -1.042480 0.511451
  C 2.818129 -0.062434 0.002457
  C 2.614917 1.351423 0.377821
  H 1.690557 1.507378 0.924038
  C 3.780281 -0.721189 -0.468856
  C 5.034446 -1.113048 -0.813279
  C 5.519048 -1.413720 -2.069677
  C 4.780928 -1.344749 -3.363335
  C 3.312637 -0.943434 -3.304769
  C 2.700009 -0.942417 -4.701909
  O 6.784791 -1.792481 -2.235948
  H 0.364098 -0.294711 0.863204
  H 1.617341 -1.458923 1.346420
  H 0.568966 -1.865053 0.002077
  H 2.600344 1.980222 -0.511474
  H 3.439733 1.672184 1.010082
  H 1.603585 -0.548090 -0.400131
  H 5.705074 -1.265935 0.027377
  H 4.875218 -2.326983 -3.838664
  H 5.326838 -0.651872 -4.012392
  H 3.224946 0.055234 -2.877753
  H 2.769353 -1.652849 -2.679832
  H 3.219118 -0.240738 -5.350677
  H 1.652972 -0.654387 -4.661046
  H 2.762982 -1.930141 -5.152804
  H 7.286403 -1.851505 -1.404587
 26
 52.993894
  C 0.979530 -1.133789 0.275777
  C 3.003707 0.080191 0.044176
  C 2.593659 1.391056 0.515279
  H 1.608983 1.382392 0.973781
  C 3.954789 -0.565674 -0.426883
  C 5.167176 -1.047104 -0.821872
  C 5.559758 -1.420548 -2.098171
  C 4.745102 -1.370703 -3.341148
  C 3.300883 -0.900370 -3.225661
  C 2.618042 -0.936828 -4.589573
  O 6.781225 -1.863033 -2.316959
  H 0.260640 -0.401820 0.632473
  H 1.473808 -1.612477 1.108424
  H 0.489216 -1.898925 -0.320859
  H 2.578860 2.097445 -0.314137
  H 3.308497 1.731965 1.262514
  H 1.664720 -0.608106 -0.433843
  H 5.877243 -1.202597 -0.015118
  H 4.769984 -2.375445 -3.777096
  H 5.284127 -0.734414 -4.051170
  H 3.275222 0.119493 -2.843385
  H 2.759517 -1.554312 -2.541431
  H 3.130969 -0.289221 -5.296642
  H 1.587959 -0.600666 -4.509333
  H 2.614602 -1.945970 -4.994935
  H 7.342302 -1.912380 -1.520994
 26
 44.518866
  C 0.969877 -1.266940 0.157168
  C 3.188059 0.262571 0.064847
  C 2.557266 1.456974 0.535578
  H 1.565192 1.269422 0.941175
  C 4.112065 -0.412579 -0.395578
  C 5.259070 -1.016337 -0.826268
  C 5.570728 -1.452078 -2.111394
  C 4.709968 -1.385702 -3.317374
  C 3.305706 -0.815794 -3.171862
  C 2.576654 -0.854123 -4.511527
  O 6.741234 -1.985028 -2.356782
  H 0.214535 -0.556846 0.472790
  H 1.408493 -1.751374 1.018479
  H 0.517332 -2.021258 -0.476888
  H 2.456146 2.168345 -0.283711
  H 3.165304 1.886732 1.330870
  H 1.729769 -0.738066 -0.422948
  H 5.994836 -1.192170 -0.047331
  H 4.653081 -2.402619 -3.721898
  H 5.264271 -0.811523 -4.068474
  H 3.355688 0.215232 -2.823695
  H 2.744932 -1.409172 -2.450058
  H 3.104101 -0.264878 -5.257736
  H 1.573702 -0.449399 -4.408993
  H 2.493777 -1.873734 -4.880083
  H 7.341511 -2.045337 -1.589220
 26
 40.285506
  C 0.907375 -1.278592 0.089984
  C 3.332316 0.433485 0.063402
  C 2.572224 1.548474 0.513882
  H 1.595055 1.240792 0.888037
  C 4.206660 -0.309522 -0.384532
  C 5.317280 -0.974376 -0.828106
  C 5.576064 -1.482907 -2.101171
  C 4.685745 -1.440196 -3.284923
  C 3.309129 -0.808671 -3.135678
  C 2.549494 -0.871768 -4.457609
  O 6.720140 -2.067384 -2.348998
  H 0.168328 -0.510932 0.285408
  H 1.219846 -1.731262 1.023606
  H 0.462919 -2.042657 -0.538134
  H 2.402548 2.238115 -0.315370
  H 3.097630 2.047807 1.328504
  H 1.757410 -0.838870 -0.420373
  H 6.081139 -1.118262 -0.069301
  H 4.581002 -2.471309 -3.643150
  H 5.242030 -0.928580 -4.079899
  H 3.405930 0.233286 -2.831038
  H 2.740617 -1.346538 -2.377418
  H 3.081296 -0.334411 -5.239458
  H 1.566447 -0.421925 -4.349000
  H 2.415869 -1.901428 -4.781296
  H 7.344810 -2.109072 -1.599141
 26
 37.096169
  C 0.975599 -1.448296 0.217458
  C 3.378624 0.606687 -0.034596
  C 2.501247 1.614418 0.436019
  H 1.617211 1.165029 0.892983
  C 4.257512 -0.132871 -0.463674
  C 5.310293 -0.921396 -0.841129
  C 5.517767 -1.550655 -2.068960
  C 4.646234 -1.488658 -3.264728
  C 3.361021 -0.677176 -3.194581
  C 2.617141 -0.745839 -4.524731
  O 6.586900 -2.280498 -2.255616
  H 0.162069 -0.738850 0.308446
  H 1.343688 -1.713329 1.200052
  H 0.601012 -2.337634 -0.274020
  H 2.158351 2.235774 -0.391689
  H 2.999339 2.217069 1.194805
  H 1.776372 -1.018476 -0.369802
  H 6.066939 -1.056578 -0.074374
  H 4.414323 -2.522505 -3.547254
  H 5.269553 -1.116986 -4.087374
  H 3.587931 0.364512 -2.966660
  H 2.715996 -1.072334 -2.410476
  H 3.224956 -0.345192 -5.332469
  H 1.699626 -0.166201 -4.474477
  H 2.354366 -1.771697 -4.771240
  H 7.194982 -2.344938 -1.493797
 26
 36.399788
  C 1.030444 -1.539530 0.492739
  C 3.306916 0.647870 -0.160964
  C 2.426919 1.653851 0.306810
  H 1.658985 1.209645 0.944680
  C 4.195187 -0.107944 -0.534946
  C 5.219883 -0.962020 -0.839319
  C 5.464472 -1.590070 -2.060998
  C 4.656076 -1.479806 -3.297061
  C 3.407712 -0.609938 -3.287182
  C 2.720897 -0.654094 -4.648788
  O 6.502748 -2.373501 -2.198472
  H 0.147207 -0.920282 0.580848
  H 1.528847 -1.612961 1.450955
  H 0.730870 -2.529002 0.172041
  H 1.930241 2.156197 -0.522662
  H 2.977253 2.364724 0.923887
  H 1.710613 -1.112899 -0.235888
  H 5.915709 -1.145304 -0.027263
  H 4.390059 -2.500720 -3.596789
  H 5.334702 -1.136469 -4.087724
  H 3.671997 0.421966 -3.054721
  H 2.710311 -0.966471 -2.528913
  H 3.382761 -0.290093 -5.430979
  H 1.831684 -0.029876 -4.643740
  H 2.419889 -1.668071 -4.900505
  H 7.066670 -2.471821 -1.406930
