17

C 1.111638 0.033201 0.059335
C 2.60743 0.044089 0.035568
C 3.321422 0.541088 -0.980202
C 4.759526 0.551269 -1.000136
C 5.480461 1.048712 -2.020326
C 6.919157 1.057859 -2.038113
C 7.637939 1.551867 -3.051283
H 8.707529384428252 1.5651193257969367 -3.0777553516068257
H 0.752335 -0.419654 0.982789
H 0.714041 -0.545305 -0.774549
H 0.715185 1.04731 0.007882
H 3.109054 -0.37769 0.896758
H 2.809212 0.960002 -1.837902
H 5.263512 0.13144 -0.138361
H 4.976979 1.468625 -2.882288
H 7.425378 0.638434 -1.177159
H 7.139792 1.973043 -3.915811
