 17
 0.000000
  C 1.112250 0.032741 0.060161
  C 2.608104 0.044350 0.034925
  C 3.321867 0.541183 -0.980155
  C 4.759028 0.551941 -1.001129
  C 5.480604 1.049139 -2.021217
  C 6.918447 1.058738 -2.039779
  C 7.635274 1.551057 -3.049885
  H 8.707374 1.563172 -3.073913
  H 0.752963 -0.420181 0.982829
  H 0.714530 -0.544254 -0.774123
  H 0.715660 1.046372 0.008260
  H 3.110562 -0.377156 0.895123
  H 2.809918 0.959874 -1.837451
  H 5.262919 0.132463 -0.139609
  H 4.977405 1.468700 -2.882918
  H 7.424025 0.639510 -1.178764
  H 7.139660 1.971761 -3.913909
 17
 -0.344454
  C 1.105998 0.033303 0.070359
  C 2.599222 0.022902 0.039333
  C 3.322698 0.539067 -0.960815
  C 4.758822 0.529008 -1.009979
  C 5.480162 1.061686 -2.010803
  C 6.916852 1.050994 -2.055390
  C 7.638110 1.581613 -3.054601
  H 8.718695 1.557392 -3.058582
  H 0.732301 -0.180713 1.068845
  H 0.708197 -0.722061 -0.609315
  H 0.722467 1.000579 -0.249873
  H 3.101969 -0.453827 0.872477
  H 2.816154 1.005863 -1.796738
  H 5.267931 0.058788 -0.178157
  H 4.974112 1.531833 -2.843417
  H 7.417153 0.579683 -1.218693
  H 7.164696 2.057747 -3.901323
 17
 -0.615138
  C 1.108766 0.051506 0.056863
  C 2.597783 -0.039135 0.018695
  C 3.334154 0.513037 -0.947671
  C 4.768318 0.498977 -1.011071
  C 5.480566 1.065682 -1.999896
  C 6.917289 1.058983 -2.056331
  C 7.623611 1.609551 -3.042066
  H 8.699528 1.586758 -3.056193
  H 0.753966 0.090140 1.085103
  H 0.653866 -0.815963 -0.422346
  H 0.777936 0.951485 -0.459865
  H 3.076810 -0.578864 0.824663
  H 2.834520 1.019082 -1.765994
  H 5.285578 0.004349 -0.197626
  H 4.966350 1.561539 -2.813665
  H 7.426046 0.569761 -1.234960
  H 7.143113 2.102598 -3.871347
 17
 -0.398845
  C 1.114024 0.067733 0.055485
  C 2.592905 -0.100458 -0.016074
  C 3.331649 0.487422 -0.958929
  C 4.765999 0.469808 -1.026007
  C 5.478084 1.068034 -1.996153
  C 6.914982 1.070272 -2.048650
  C 7.620993 1.643380 -3.021792
  H 8.697042 1.626384 -3.033511
  H 0.824012 0.372431 1.061579
  H 0.588136 -0.857312 -0.175920
  H 0.817228 0.855671 -0.634171
  H 3.058690 -0.708919 0.747358
  H 2.835304 1.015747 -1.764910
  H 5.284027 -0.042138 -0.223880
  H 4.963537 1.583507 -2.797468
  H 7.424205 0.568061 -1.235420
  H 7.140058 2.149634 -3.842818
 17
 3.283049
  C 1.134795 0.109288 0.069978
  C 2.586971 -0.196466 -0.059341
  C 3.322824 0.426447 -0.986362
  C 4.756989 0.435705 -1.037915
  C 5.468806 1.040055 -2.006131
  C 6.904326 1.104357 -2.022186
  C 7.609530 1.694154 -2.984181
  H 8.685011 1.726826 -2.966349
  H 0.969241 0.630544 1.016708
  H 0.492627 -0.765743 0.049685
  H 0.909211 0.837425 -0.705937
  H 3.020925 -0.928919 0.606295
  H 2.829913 0.869136 -1.843834
  H 5.276710 -0.030968 -0.209617
  H 4.953230 1.519274 -2.829048
  H 7.413419 0.640374 -1.186563
  H 7.128986 2.163989 -3.826678
 17
 14.114351
  C 1.149417 0.114908 0.055300
  C 2.572857 -0.292075 -0.077051
  C 3.317178 0.405745 -0.960140
  C 4.750917 0.490587 -0.979591
  C 5.461125 1.079912 -1.977433
  C 6.896709 1.176091 -1.989450
  C 7.602449 1.682768 -3.003486
  H 8.676735 1.724841 -2.985820
  H 1.048180 0.678530 0.989652
  H 0.416453 -0.682643 0.052327
  H 1.042501 0.913828 -0.685532
  H 2.950794 -1.140110 0.470919
  H 2.850473 0.711490 -1.891471
  H 5.273845 0.122372 -0.104525
  H 4.941897 1.455232 -2.851737
  H 7.410572 0.765462 -1.127452
  H 7.120861 2.080227 -3.882368
 17
 35.814669
  C 1.224447 0.162112 0.087640
  C 2.555129 -0.445499 -0.126875
  C 3.288644 0.285670 -1.006774
  C 4.703152 0.469130 -0.974572
  C 5.426229 1.048428 -1.989160
  C 6.846780 1.241236 -1.949837
  C 7.562130 1.713716 -2.969813
  H 8.628954 1.821600 -2.916227
  H 1.224438 0.906005 0.896077
  H 0.380818 -0.501984 0.191618
  H 1.374260 0.956333 -0.690087
  H 2.877918 -1.368426 0.324701
  H 2.855782 0.496887 -1.978789
  H 5.214831 0.166606 -0.068148
  H 4.914989 1.380072 -2.887238
  H 7.339522 0.981399 -1.021207
  H 7.097491 1.992527 -3.901281
 17
 63.398622
  C 1.292446 0.218697 0.100912
  C 2.547689 -0.500880 -0.092081
  C 3.273399 0.223788 -1.020062
  C 4.688659 0.419864 -0.993127
  C 5.394425 0.980197 -1.999959
  C 6.799080 1.251650 -1.936069
  C 7.502303 1.778536 -2.938421
  H 8.559724 1.962798 -2.859642
  H 1.303619 1.088859 0.765020
  H 0.382939 -0.353754 0.234681
  H 1.707661 1.001700 -0.730482
  H 2.824626 -1.446312 0.343572
  H 2.871180 0.242119 -2.025613
  H 5.194939 0.179022 -0.064935
  H 4.889989 1.243829 -2.921487
  H 7.296070 0.984832 -1.011472
  H 7.034725 2.055008 -3.869161
 17
 80.204352
  C 1.323530 0.157040 0.171022
  C 2.502411 -0.538029 -0.123410
  C 3.210766 0.264169 -1.065425
  C 4.640857 0.479219 -1.008586
  C 5.367929 1.018568 -2.002782
  C 6.780966 1.264998 -1.919320
  C 7.512651 1.749007 -2.922177
  H 8.572479 1.911391 -2.830001
  H 1.367565 1.070847 0.748667
  H 0.400306 -0.385028 0.380525
  H 1.976933 1.061451 -0.826056
  H 2.814161 -1.492100 0.272750
  H 2.823105 0.264464 -2.080485
  H 5.123518 0.244098 -0.067455
  H 4.886484 1.272580 -2.939562
  H 7.254744 1.013400 -0.978419
  H 7.068969 2.002894 -3.871093
 17
 66.002477
  C 1.374456 0.092540 0.246586
  C 2.459271 -0.548981 -0.159021
  C 3.170817 0.329987 -1.121167
  C 4.612513 0.528265 -1.045981
  C 5.341329 1.046133 -2.001218
  C 6.758877 1.249716 -1.903199
  C 7.496391 1.728214 -2.873315
  H 8.558694 1.861432 -2.770319
  H 1.422160 1.062471 0.710865
  H 0.456312 -0.419316 0.525641
  H 2.228907 1.097389 -0.912610
  H 2.796100 -1.515497 0.173204
  H 2.792206 0.310768 -2.149639
  H 5.078223 0.266879 -0.106219
  H 4.875263 1.329973 -2.935275
  H 7.216834 0.978112 -0.960743
  H 7.068407 1.997978 -3.824519
 17
 40.016390
  C 1.327359 0.012362 0.332630
  C 2.388606 -0.546833 -0.258460
  C 3.099545 0.415763 -1.160959
  C 4.565314 0.587938 -1.053765
  C 5.346316 1.080898 -2.022753
  C 6.773235 1.263228 -1.890793
  C 7.562640 1.686118 -2.877509
  H 8.624359 1.809773 -2.748039
  H 1.409090 0.971696 0.818092
  H 0.498363 -0.560181 0.740931
  H 2.398043 1.271176 -0.938806
  H 2.770781 -1.534007 -0.047415
  H 2.766726 0.326166 -2.205327
  H 5.001032 0.327779 -0.096196
  H 4.910739 1.364025 -2.973525
  H 7.193373 1.044373 -0.916711
  H 7.167808 1.924232 -3.852600
 17
 22.307826
  C 1.345935 -0.039582 0.401996
  C 2.393670 -0.496251 -0.269763
  C 3.086174 0.484804 -1.168900
  C 4.560099 0.609288 -1.063027
  C 5.350168 1.077091 -2.029938
  C 6.778155 1.238225 -1.892922
  C 7.569892 1.674013 -2.867659
  H 8.632630 1.782126 -2.736307
  H 1.284814 0.981493 0.744129
  H 0.595730 -0.668523 0.862785
  H 2.497558 1.392949 -0.939742
  H 2.778646 -1.499922 -0.169537
  H 2.760250 0.346008 -2.209044
  H 4.985701 0.346766 -0.102581
  H 4.925481 1.352537 -2.987562
  H 7.198536 0.967100 -0.932746
  H 7.175321 1.954186 -3.830778
 17
 10.864548
  C 1.378703 -0.167618 0.464828
  C 2.399589 -0.426807 -0.337522
  C 3.032967 0.649811 -1.162253
  C 4.514757 0.738833 -1.040466
  C 5.329641 1.123463 -2.017907
  C 6.764840 1.213012 -1.878258
  C 7.587694 1.557077 -2.871715
  H 8.654557 1.610705 -2.738303
  H 1.106109 0.842444 0.726669
  H 0.817149 -0.941771 0.962253
  H 2.538102 1.580420 -0.862816
  H 2.827602 -1.418033 -0.411060
  H 2.742629 0.507172 -2.211041
  H 4.919848 0.487707 -0.069074
  H 4.925661 1.374931 -2.990351
  H 7.163959 0.970826 -0.900808
  H 7.214951 1.800136 -3.853773
 17
 7.713964
  C 1.535458 -0.359228 0.481533
  C 2.427045 -0.352363 -0.490614
  C 2.946399 0.892314 -1.147016
  C 4.431422 0.989789 -0.997459
  C 5.289849 1.113356 -2.008379
  C 6.722530 1.204360 -1.839885
  C 7.577893 1.332869 -2.848379
  H 8.641576 1.397367 -2.692025
  H 1.113175 0.554274 0.868381
  H 1.185826 -1.272603 0.931791
  H 2.471817 1.760172 -0.679427
  H 2.844155 -1.278388 -0.863726
  H 2.683667 0.882581 -2.208326
  H 4.797305 0.943124 0.020415
  H 4.924183 1.155196 -3.026810
  H 7.085778 1.161407 -0.820717
  H 7.240680 1.378082 -3.870952
