 11
 0.000000
  H 1.355489 0.130350 0.374743
  C 2.431133 0.114964 0.337887
  H 2.982010 0.459598 1.197942
  C 3.070501 -0.334575 -0.781906
  C 4.469090 -0.375305 -0.882737
  C 5.134608 -0.830798 -2.017438
  H 4.608801 -1.185695 -2.900859
  O 6.407121 -0.883494 -2.149585
  H 2.482381 -0.672534 -1.624900
  H 5.052749 -0.034966 -0.035093
  H 6.935933 -0.573601 -1.379611
 11
 16.240045
  H 1.308027 0.140751 0.399512
  C 2.383890 0.126478 0.366463
  H 2.928058 0.472529 1.230777
  C 3.032171 -0.321710 -0.749853
  C 4.424135 -0.355185 -0.831917
  C 5.155077 -0.857184 -2.082505
  H 4.636318 -1.210025 -2.960630
  O 6.547996 -0.908414 -2.211719
  H 2.453924 -0.661861 -1.599073
  H 5.006848 -0.016225 0.012776
  H 7.054158 -0.595199 -1.435596
 11
 50.672802
  H 1.268843 0.147821 0.419591
  C 2.344609 0.135852 0.389954
  H 2.878021 0.484860 1.259331
  C 3.003996 -0.309623 -0.719179
  C 4.391580 -0.326232 -0.760940
  C 5.175346 -0.890676 -2.168564
  H 4.669677 -1.240943 -3.041007
  O 6.657956 -0.929331 -2.263017
  H 2.443166 -0.653801 -1.576072
  H 4.999867 0.003800 0.059445
  H 7.088216 -0.605804 -1.456791
 11
 87.982321
  H 1.215643 0.136971 0.426796
  C 2.291132 0.145901 0.429235
  H 2.787303 0.515281 1.310474
  C 2.994270 -0.288336 -0.657339
  C 4.348580 -0.266542 -0.634455
  C 5.267591 -0.938764 -2.313334
  H 4.771913 -1.287329 -3.204727
  O 6.692225 -0.967142 -2.332434
  H 2.470211 -0.645221 -1.530679
  H 5.020008 0.056986 0.135907
  H 7.043163 -0.642251 -1.477794
 11
 113.923754
  H 1.082558 0.092170 0.347214
  C 2.141222 0.169879 0.474721
  H 2.518798 0.556260 1.404299
  C 2.990459 -0.237333 -0.540584
  C 4.316817 -0.174188 -0.417627
  C 5.397195 -0.979943 -2.408581
  H 4.828905 -1.303563 -3.269495
  O 6.703378 -1.038313 -2.485844
  H 2.542873 -0.620827 -1.448213
  H 5.114094 0.101139 0.216192
  H 7.240442 -0.740607 -1.709215
 11
 128.888864
  H 0.984411 0.046736 0.251658
  C 2.014363 0.174253 0.501381
  H 2.270731 0.593673 1.456309
  C 2.998807 -0.193132 -0.412047
  C 4.295024 -0.092785 -0.219134
  C 5.485718 -0.989602 -2.462600
  H 4.876929 -1.312533 -3.314346
  O 6.746947 -1.102982 -2.655290
  H 2.646628 -0.593689 -1.354039
  H 5.189570 0.143562 0.288129
  H 7.346765 -0.847895 -1.916820
 11
 136.633864
  H 0.903007 -0.055173 0.137097
  C 1.891595 0.169735 0.506286
  H 2.001016 0.647036 1.464449
  C 3.016517 -0.128120 -0.258349
  C 4.289563 0.047948 -0.040219
  C 5.556213 -0.978352 -2.507697
  H 4.887456 -1.256357 -3.335125
  O 6.778810 -1.186985 -2.816855
  H 2.791020 -0.597754 -1.221224
  H 5.281391 0.144676 0.335565
  H 7.435394 -0.985598 -2.112245
 11
 140.585677
  H 0.847640 -0.076631 0.087004
  C 1.784466 0.168927 0.545312
  H 1.790323 0.633477 1.514137
  C 2.980463 -0.076076 -0.097995
  C 4.244767 0.073015 0.097887
  C 5.660295 -1.023103 -2.596883
  H 4.968759 -1.274200 -3.422231
  O 6.856211 -1.246548 -2.972801
  H 2.862568 -0.528911 -1.103734
  H 5.259563 0.185796 0.378626
  H 7.550126 -1.038473 -2.304102
 11
 136.646295
  H 1.804582 -1.573166 0.786506
  C 1.787444 -0.527115 0.536605
  H 0.938145 0.058397 0.836285
  C 2.777703 0.056052 -0.180848
  C 3.424976 0.969308 -0.781504
  C 5.984201 -1.119274 -1.997742
  H 5.810979 -2.206151 -1.862231
  O 7.096498 -0.965430 -2.606578
  H 3.702637 -0.517295 -0.613610
  H 4.117149 1.634551 -1.227471
  H 7.326590 -0.028180 -2.801169
 11
 132.383405
  H 1.898849 1.647359 -0.662710
  C 1.979059 0.989058 0.181377
  H 1.310958 1.138887 1.011276
  C 2.894089 0.020415 0.246799
  C 3.644897 -0.960156 0.538711
  C 5.793412 -0.926025 -2.571660
  H 5.646641 -0.045088 -3.226398
  O 6.703868 -1.663601 -3.085025
  H 3.810636 -0.291765 -0.556687
  H 4.229139 -1.830058 0.696168
  H 6.911804 -2.467538 -2.556404
 11
 130.053479
  H 1.464447 1.099905 -0.827683
  C 1.791334 0.846214 0.241261
  H 1.214995 1.142464 1.104535
  C 2.917629 0.099917 0.376054
  C 3.970539 -0.539775 0.686832
  C 5.714204 -1.023730 -2.796067
  H 5.269544 -0.433858 -3.618818
  O 6.713309 -1.681235 -3.256480
  H 3.960028 -0.304141 -0.488208
  H 4.724519 -1.199554 1.057881
  H 7.203397 -2.242266 -2.596522
