9

C -3.504514 0.983651 -0.132454
C -2.060714 0.58829 -0.032348
C -1.648352 -0.474549 0.638104
H -1.2460729816386307 -0.6088670139956363 0.6844052615717516
H -4.107983 0.161342 -0.514413
H -3.641065 1.852529 -0.769904
H -3.890436 1.232254 0.85619
H -1.348935 1.224415 -0.539076
H -2.383408 -1.098985 1.137283
