 17
 0.000000
  H 1.435726 0.109539 0.325380
  C 2.516669 0.109943 0.325828
  C 3.188467 0.596990 1.534773
  H 2.474435 0.901494 2.292644
  C 3.146389 -0.347630 -0.811713
  C 4.534078 -0.408266 -0.963062
  C 5.211746 -0.863202 -2.098945
  C 4.569479 -1.356066 -3.330591
  H 3.488620 -1.338211 -3.288727
  O 6.516510 -0.878125 -2.136447
  H 3.839370 1.441289 1.301436
  H 3.840570 -0.172634 1.950965
  H 2.517488 -0.674385 -1.625032
  H 5.139788 -0.075026 -0.131566
  H 4.913552 -2.370575 -3.529371
  H 4.915242 -0.760013 -4.174639
  H 6.969127 -0.554047 -1.327918
 17
 0.866452
  H 1.452920 -0.181141 0.438797
  C 2.522298 -0.046264 0.381481
  C 3.161147 0.757515 1.428654
  H 2.444950 1.090290 2.172117
  C 3.168806 -0.581305 -0.709214
  C 4.557164 -0.572796 -0.884117
  C 5.218837 -0.898183 -2.071405
  C 4.549517 -1.137796 -3.362767
  H 3.480708 -0.978643 -3.323705
  O 6.519908 -0.984428 -2.117464
  H 3.658051 1.629666 0.997258
  H 3.949901 0.187700 1.924194
  H 2.573819 -1.125546 -1.427886
  H 5.175068 -0.312319 -0.031720
  H 4.762517 -2.154970 -3.692950
  H 4.990467 -0.485850 -4.118224
  H 6.984146 -0.836944 -1.271163
 17
 3.720008
  H 1.513306 -0.451281 0.585553
  C 2.546983 -0.180694 0.427224
  C 3.112356 0.873747 1.275034
  H 2.426126 1.169020 2.065550
  C 3.209926 -0.761065 -0.623113
  C 4.604850 -0.728199 -0.807714
  C 5.238122 -0.921896 -2.035873
  C 4.520772 -0.922581 -3.325957
  H 3.472438 -0.682462 -3.219738
  O 6.529938 -1.078000 -2.129937
  H 3.356012 1.753047 0.675404
  H 4.059108 0.551534 1.710544
  H 2.665083 -1.473542 -1.227962
  H 5.230679 -0.561707 0.060033
  H 4.636503 -1.900654 -3.803222
  H 4.995255 -0.210848 -3.999651
  H 7.015830 -1.100115 -1.281738
 17
 10.358168
  H 1.717038 -0.770833 0.852067
  C 2.623578 -0.279867 0.519996
  C 3.031515 0.945177 1.216386
  H 2.379632 1.177391 2.052523
  C 3.265837 -0.758982 -0.589240
  C 4.657278 -0.849322 -0.803823
  C 5.255753 -0.911145 -2.055588
  C 4.490715 -0.830472 -3.317504
  H 3.439062 -0.618033 -3.146278
  O 6.552206 -1.024366 -2.202088
  H 3.035841 1.787320 0.524137
  H 4.062805 0.849661 1.568176
  H 2.718432 -1.510089 -1.143370
  H 5.292858 -0.879400 0.074205
  H 4.602244 -1.767266 -3.864478
  H 4.918426 -0.060778 -3.955123
  H 7.060365 -1.119183 -1.373043
 17
 22.608486
  H 1.904132 -0.910158 0.912232
  C 2.716374 -0.277957 0.575253
  C 2.838635 1.041269 1.220703
  H 2.159907 1.143650 2.055057
  C 3.444299 -0.670112 -0.500870
  C 4.807975 -0.907792 -0.811589
  C 5.307485 -0.941492 -2.104176
  C 4.467270 -0.718098 -3.298593
  H 3.445511 -0.480552 -3.035701
  O 6.545026 -1.298092 -2.363379
  H 2.629244 1.838659 0.501795
  H 3.862906 1.196388 1.556159
  H 2.980055 -1.571265 -0.949950
  H 5.492401 -1.052254 0.016622
  H 4.499538 -1.607892 -3.926276
  H 4.885742 0.090083 -3.900266
  H 7.095140 -1.488908 -1.579258
 17
 35.807064
  H 1.999237 -0.962458 0.911687
  C 2.784432 -0.288871 0.601268
  C 2.680387 1.106419 1.126588
  H 1.838568 1.207691 1.797490
  C 3.677817 -0.686005 -0.297772
  C 4.954467 -1.057207 -0.796014
  C 5.319496 -1.028730 -2.132591
  C 4.398172 -0.584881 -3.206174
  H 3.442159 -0.258510 -2.806472
  O 6.522860 -1.373590 -2.535934
  H 2.563070 1.815839 0.308747
  H 3.590628 1.373964 1.653731
  H 3.364223 -1.716205 -0.670969
  H 5.711043 -1.286485 -0.054605
  H 4.250889 -1.389291 -3.920069
  H 4.856295 0.228296 -3.763229
  H 7.115185 -1.700815 -1.837275
 17
 40.369924
  H 1.991386 -0.851995 0.908342
  C 2.855973 -0.298011 0.592669
  C 2.848576 1.172676 0.914698
  H 1.937465 1.429552 1.434153
  C 3.802910 -0.889885 -0.060516
  C 5.032763 -1.075636 -0.754867
  C 5.204073 -0.971592 -2.112350
  C 4.074601 -0.726657 -3.035375
  H 3.135336 -0.592825 -2.488565
  O 6.378429 -1.122206 -2.685373
  H 2.917212 1.763623 0.000594
  H 3.709483 1.420839 1.532643
  H 3.861942 -2.013647 -0.286223
  H 5.920327 -1.173306 -0.138738
  H 3.979890 -1.537721 -3.746746
  H 4.280789 0.160677 -3.628379
  H 7.124662 -1.235622 -2.067660
 17
 48.164942
  H 1.834149 -0.825159 0.647855
  C 2.738572 -0.245283 0.489218
  C 2.686906 1.162726 1.023288
  H 1.722586 1.358359 1.477805
  C 3.762820 -0.754273 -0.103498
  C 4.922160 -1.268751 -0.738495
  C 5.263613 -1.013696 -2.097987
  C 4.293114 -0.475677 -3.076493
  H 3.339519 -0.252005 -2.611242
  O 6.465799 -1.303355 -2.574721
  H 2.854800 1.877761 0.221124
  H 3.465671 1.309893 1.767624
  H 4.017202 -2.056411 -0.640853
  H 5.728469 -1.564545 -0.070262
  H 4.153267 -1.184770 -3.892645
  H 4.694063 0.429436 -3.532365
  H 7.093068 -1.646616 -1.915381
 17
 44.537013
  H 1.920672 -0.791630 0.614584
  C 2.803854 -0.166096 0.488622
  C 2.659958 1.221509 1.063196
  H 1.662941 1.365045 1.457777
  C 3.858557 -0.619913 -0.082141
  C 4.956139 -1.273247 -0.726793
  C 5.234152 -1.040192 -2.135031
  C 4.203981 -0.547225 -3.066146
  H 3.269747 -0.342523 -2.557324
  O 6.406308 -1.320236 -2.654445
  H 2.849482 1.966723 0.294244
  H 3.380934 1.372131 1.861330
  H 4.295527 -2.174736 -0.676384
  H 5.818773 -1.447622 -0.083443
  H 4.042848 -1.270201 -3.861750
  H 4.557583 0.362617 -3.559546
  H 7.080220 -1.625708 -2.020198
 17
 41.255069
  H 1.853754 -0.689285 0.462796
  C 2.779557 -0.112735 0.447307
  C 2.659034 1.241623 1.102746
  H 1.659664 1.384057 1.497938
  C 3.841142 -0.590176 -0.087860
  C 4.852595 -1.370816 -0.739522
  C 5.234973 -1.039976 -2.118271
  C 4.267408 -0.479312 -3.072375
  H 3.305398 -0.299043 -2.607908
  O 6.428865 -1.295698 -2.572720
  H 2.868999 2.023314 0.379765
  H 3.376029 1.332392 1.914488
  H 4.252152 -2.292591 -0.859818
  H 5.684965 -1.622828 -0.079184
  H 4.153006 -1.148814 -3.926100
  H 4.654840 0.455103 -3.483726
  H 7.059715 -1.669285 -1.928338
 17
 40.189524
  H 1.815048 -0.617265 0.370065
  C 2.754914 -0.063327 0.407559
  C 2.641523 1.267788 1.111135
  H 1.653190 1.386735 1.540996
  C 3.818224 -0.542515 -0.124149
  C 4.836411 -1.343643 -0.728342
  C 5.221403 -1.068108 -2.122536
  C 4.276230 -0.474061 -3.077414
  H 3.315881 -0.271065 -2.615583
  O 6.391888 -1.402154 -2.582073
  H 2.818134 2.076327 0.405937
  H 3.383990 1.340995 1.901438
  H 4.346502 -2.332698 -0.788962
  H 5.689724 -1.470671 -0.056507
  H 4.151122 -1.132047 -3.939316
  H 4.690179 0.452228 -3.477234
  H 7.014483 -1.786002 -1.934959
 17
 39.884063
  H 1.814901 -0.524191 0.199765
  C 2.766104 -0.006651 0.343737
  C 2.635454 1.288693 1.101060
  H 1.618711 1.419026 1.461193
  C 3.858563 -0.512281 -0.099449
  C 4.833107 -1.356215 -0.719335
  C 5.196609 -1.088973 -2.122733
  C 4.260008 -0.440879 -3.053083
  H 3.317588 -0.211192 -2.575259
  O 6.341907 -1.463997 -2.608067
  H 2.887820 2.123869 0.450883
  H 3.317834 1.302836 1.949639
  H 4.354096 -2.351394 -0.763442
  H 5.708378 -1.475443 -0.068218
  H 4.099236 -1.076942 -3.924773
  H 4.702754 0.476335 -3.442868
  H 6.959534 -1.887568 -1.982236
 17
 39.274742
  H 1.820962 -0.489864 0.117011
  C 2.770062 0.012757 0.315793
  C 2.617794 1.287987 1.104043
  H 1.628425 1.348052 1.542750
  C 3.871572 -0.482087 -0.118168
  C 4.849899 -1.340541 -0.712531
  C 5.179936 -1.134827 -2.133451
  C 4.268974 -0.428830 -3.040925
  H 3.288802 -0.296974 -2.596166
  O 6.290581 -1.578410 -2.642670
  H 2.759743 2.144879 0.447164
  H 3.362149 1.340385 1.893835
  H 4.439844 -2.364434 -0.642479
  H 5.749373 -1.359754 -0.085527
  H 4.198823 -0.957886 -3.991210
  H 4.679720 0.554685 -3.280086
  H 6.895944 -2.040107 -2.030569
