 24
 0.000000
  C 0.818420 0.049451 0.308120
  C 2.308889 0.060556 0.112823
  C 3.199119 -0.008983 1.345240
  C 2.533129 -0.091714 2.716171
  C 3.583250 -0.153731 3.820461
  C 2.912841 0.125043 -1.071854
  C 2.388079 0.203144 -2.482519
  C 0.889255 0.220130 -2.761618
  H 0.726469 0.278926 -3.834369
  H 3.996843 0.124236 -1.072941
  H 0.543834 -0.000438 1.356501
  H 0.368539 -0.815051 -0.174470
  H 0.369093 0.955374 -0.090521
  H 3.845425 0.874640 1.345608
  H 3.850835 -0.882509 1.242246
  H 1.907493 -0.984892 2.779471
  H 1.902394 0.784165 2.883992
  H 4.218624 -1.028721 3.699709
  H 3.104178 -0.212639 4.795625
  H 4.213443 0.733105 3.803578
  H 2.818067 -0.646085 -3.027845
  H 2.820011 1.105896 -2.931920
  H 0.412069 1.080814 -2.302181
  H 0.410028 -0.684342 -2.398452
 24
 3.890086
  C 0.795892 0.081749 0.329580
  C 2.262740 0.061310 0.125619
  C 3.183213 -0.001404 1.346394
  C 2.535502 -0.100256 2.722966
  C 3.598904 -0.155079 3.813974
  C 2.873616 0.111321 -1.056471
  C 2.388181 0.187535 -2.479762
  C 0.892336 0.232887 -2.772419
  H 0.744280 0.287308 -3.849914
  H 3.959823 0.087357 -1.032671
  H 0.497016 0.006101 1.362945
  H 0.556478 -0.798893 -0.196018
  H 0.313982 0.947550 -0.107423
  H 3.818966 0.888293 1.338535
  H 3.847970 -0.860974 1.226236
  H 1.922427 -1.002186 2.785782
  H 1.896768 0.767359 2.901521
  H 4.244009 -1.020588 3.677336
  H 3.135335 -0.225573 4.795591
  H 4.217416 0.739835 3.791050
  H 2.815791 -0.673367 -3.008212
  H 2.850452 1.076798 -2.925291
  H 0.429362 1.107421 -2.327220
  H 0.387298 -0.657572 -2.411608
 24
 11.022433
  C 0.789633 0.093303 0.343484
  C 2.259351 0.066087 0.130686
  C 3.187124 0.017616 1.340909
  C 2.535411 -0.110156 2.716608
  C 3.595125 -0.151145 3.814813
  C 2.865234 0.090547 -1.054597
  C 2.378597 0.161338 -2.473421
  C 0.886365 0.269550 -2.766339
  H 0.741582 0.313189 -3.846584
  H 3.949475 0.031156 -1.035580
  H 0.470041 -0.009158 1.371358
  H 0.759370 -0.815846 -0.201136
  H 0.273234 0.909809 -0.141195
  H 3.797002 0.926636 1.338365
  H 3.876003 -0.821388 1.212676
  H 1.941767 -1.027143 2.765710
  H 1.874923 0.741456 2.898578
  H 4.261600 -1.000303 3.673227
  H 3.128143 -0.241729 4.793886
  H 4.193610 0.758348 3.803214
  H 2.768240 -0.726163 -2.987990
  H 2.877016 1.023329 -2.933395
  H 0.465533 1.175014 -2.337816
  H 0.337636 -0.589246 -2.392353
 24
 21.594233
  C 0.788590 0.114981 0.358758
  C 2.273243 0.069032 0.130612
  C 3.189053 0.023609 1.327052
  C 2.526829 -0.116684 2.694342
  C 3.579702 -0.154426 3.803877
  C 2.880912 0.083085 -1.056517
  C 2.378900 0.148217 -2.473621
  C 0.884426 0.275400 -2.743728
  H 0.722581 0.311589 -3.821585
  H 3.960406 0.016136 -1.041847
  H 0.458219 -0.003148 1.389335
  H 0.924333 -0.788502 -0.190339
  H 0.257095 0.897139 -0.144470
  H 3.787216 0.939177 1.329207
  H 3.885657 -0.806779 1.198239
  H 1.938399 -1.040238 2.732694
  H 1.855527 0.730023 2.874177
  H 4.256046 -0.998690 3.664242
  H 3.103851 -0.253931 4.779740
  H 4.171922 0.761756 3.802233
  H 2.747937 -0.748020 -2.985735
  H 2.880883 0.998317 -2.947672
  H 0.484832 1.192084 -2.316134
  H 0.328456 -0.570419 -2.352243
 24
 31.668896
  C 0.766051 0.133243 0.356533
  C 2.248478 0.069730 0.130503
  C 3.176103 0.028762 1.343456
  C 2.534725 -0.128439 2.712579
  C 3.597399 -0.158298 3.801190
  C 2.867739 0.075355 -1.050285
  C 2.378031 0.137966 -2.481759
  C 0.886231 0.288539 -2.761135
  H 0.730389 0.317960 -3.835665
  H 3.949631 -0.004139 -1.020486
  H 0.421191 0.026144 1.370106
  H 1.037110 -0.781706 -0.169790
  H 0.216661 0.878772 -0.190601
  H 3.758254 0.952189 1.347864
  H 3.888850 -0.789630 1.207798
  H 1.962553 -1.057010 2.753194
  H 1.858554 0.705070 2.906597
  H 4.281198 -0.990480 3.647022
  H 3.137616 -0.269661 4.780079
  H 4.174952 0.763386 3.796362
  H 2.735443 -0.769403 -2.985356
  H 2.898311 0.975601 -2.960663
  H 0.502741 1.214279 -2.345134
  H 0.312324 -0.545459 -2.363525
 24
 40.914180
  C 0.759416 0.142873 0.373289
  C 2.243209 0.071537 0.118935
  C 3.180041 0.035661 1.329586
  C 2.531666 -0.135385 2.702820
  C 3.593482 -0.162560 3.803297
  C 2.865607 0.071587 -1.066599
  C 2.378963 0.128495 -2.482096
  C 0.892774 0.300677 -2.757287
  H 0.731893 0.319087 -3.835225
  H 3.945355 -0.016316 -1.037103
  H 0.440529 0.044225 1.390811
  H 1.133792 -0.772721 -0.121584
  H 0.188114 0.838886 -0.205664
  H 3.748272 0.969662 1.335058
  H 3.903000 -0.772411 1.191774
  H 1.964199 -1.071511 2.734776
  H 1.844717 0.693656 2.897933
  H 4.286830 -0.989974 3.648770
  H 3.128237 -0.283181 4.781738
  H 4.164925 0.766163 3.806754
  H 2.718543 -0.787528 -2.977222
  H 2.910484 0.950055 -2.971403
  H 0.528059 1.241587 -2.351692
  H 0.307940 -0.518005 -2.346267
 24
 47.726533
  C 0.760277 0.160974 0.385991
  C 2.238432 0.075732 0.122099
  C 3.164449 0.040408 1.330710
  C 2.528625 -0.141572 2.693380
  C 3.590867 -0.171489 3.776598
  C 2.872219 0.074157 -1.062374
  C 2.387935 0.124225 -2.480252
  C 0.899774 0.302562 -2.750731
  H 0.733628 0.311125 -3.824624
  H 3.955887 -0.013950 -1.026305
  H 0.450049 0.096369 1.407132
  H 1.215844 -0.768310 -0.056377
  H 0.168763 0.802667 -0.242434
  H 3.720162 0.974937 1.339930
  H 3.893072 -0.759087 1.189980
  H 1.969012 -1.074889 2.722355
  H 1.844855 0.678004 2.899324
  H 4.284279 -0.992339 3.611443
  H 3.134698 -0.300267 4.752956
  H 4.155833 0.756561 3.781663
  H 2.720924 -0.800902 -2.970394
  H 2.923886 0.941289 -2.977532
  H 0.542780 1.249922 -2.353189
  H 0.311019 -0.511845 -2.326580
 24
 52.726560
  C 0.747970 0.181640 0.382122
  C 2.230149 0.079310 0.113637
  C 3.160714 0.046094 1.331928
  C 2.529790 -0.148842 2.712772
  C 3.610955 -0.185919 3.798574
  C 2.869807 0.078117 -1.069690
  C 2.386766 0.122785 -2.502928
  C 0.903175 0.303339 -2.776379
  H 0.737919 0.303821 -3.845456
  H 3.945483 -0.009143 -1.026082
  H 0.435666 0.161994 1.406310
  H 1.274486 -0.769779 -0.005228
  H 0.146160 0.751874 -0.283347
  H 3.713175 0.990283 1.341682
  H 3.896629 -0.748360 1.185221
  H 1.967879 -1.089408 2.740020
  H 1.841271 0.675581 2.934248
  H 4.309349 -1.010381 3.621495
  H 3.159434 -0.323395 4.785902
  H 4.179255 0.749537 3.806372
  H 2.714940 -0.803028 -2.987640
  H 2.923746 0.933625 -3.004094
  H 0.550632 1.250839 -2.388249
  H 0.316552 -0.500639 -2.349145
 24
 56.820677
  C 0.758226 0.194734 0.388102
  C 2.237373 0.075712 0.110175
  C 3.162391 0.047658 1.329221
  C 2.528774 -0.150299 2.698292
  C 3.601135 -0.192873 3.783360
  C 2.881345 0.076676 -1.078209
  C 2.393678 0.121193 -2.499043
  C 0.907183 0.302253 -2.755882
  H 0.725592 0.302866 -3.839357
  H 3.963180 -0.007037 -1.036032
  H 0.450301 0.213029 1.417087
  H 1.337249 -0.768770 0.047347
  H 0.134965 0.709364 -0.313888
  H 3.707437 0.987714 1.342499
  H 3.898390 -0.738626 1.187248
  H 1.966666 -1.086438 2.718568
  H 1.844931 0.669024 2.918926
  H 4.297172 -1.015915 3.606308
  H 3.146180 -0.332853 4.766241
  H 4.169396 0.739719 3.796417
  H 2.716940 -0.805826 -2.988514
  H 2.926849 0.932581 -3.005290
  H 0.561281 1.245557 -2.364193
  H 0.329148 -0.498631 -2.322626
 24
 60.031243
  C 0.761044 0.209774 0.396901
  C 2.233981 0.075469 0.112151
  C 3.163712 0.053052 1.326504
  C 2.532009 -0.154914 2.710110
  C 3.606287 -0.206248 3.785466
  C 2.877279 0.077946 -1.080873
  C 2.395127 0.118781 -2.507234
  C 0.914046 0.300049 -2.776533
  H 0.744875 0.295523 -3.845524
  H 3.946098 -0.003928 -1.036158
  H 0.457686 0.265186 1.417762
  H 1.382764 -0.763865 0.098844
  H 0.124347 0.659179 -0.328938
  H 3.709916 1.006566 1.337731
  H 3.901966 -0.727978 1.177452
  H 1.970549 -1.087193 2.729304
  H 1.849107 0.665813 2.943040
  H 4.296981 -1.026025 3.599988
  H 3.158091 -0.351135 4.766282
  H 4.173903 0.721868 3.800968
  H 2.717905 -0.804540 -2.990181
  H 2.930121 0.924384 -3.010939
  H 0.562445 1.255942 -2.388132
  H 0.329598 -0.503675 -2.343521
 24
 62.820349
  C 0.753984 0.225227 0.391285
  C 2.234446 0.076279 0.113815
  C 3.164274 0.060046 1.334041
  C 2.537150 -0.154632 2.700023
  C 3.614360 -0.213992 3.779388
  C 2.883055 0.079770 -1.080564
  C 2.401799 0.116232 -2.504164
  C 0.915315 0.301669 -2.769431
  H 0.741036 0.292997 -3.842544
  H 3.960191 -0.006314 -1.033931
  H 0.437040 0.311381 1.414746
  H 1.420584 -0.760803 0.131667
  H 0.114767 0.615245 -0.358769
  H 3.698379 1.007942 1.350397
  H 3.913491 -0.721535 1.184780
  H 1.971562 -1.091472 2.710943
  H 1.856968 0.662477 2.936351
  H 4.304650 -1.032941 3.589562
  H 3.165154 -0.364906 4.759531
  H 4.183155 0.713171 3.801753
  H 2.724916 -0.821805 -2.991236
  H 2.943368 0.926417 -3.015089
  H 0.569470 1.253456 -2.385891
  H 0.331828 -0.496934 -2.332349
 24
 65.213797
  C 0.756892 0.244664 0.406122
  C 2.238218 0.077379 0.118325
  C 3.170539 0.065660 1.328264
  C 2.540180 -0.157337 2.702115
  C 3.615655 -0.227396 3.778973
  C 2.884333 0.082863 -1.082044
  C 2.403655 0.113661 -2.507104
  C 0.923691 0.293171 -2.778454
  H 0.754594 0.282376 -3.852349
  H 3.958934 -0.001775 -1.036161
  H 0.447626 0.348835 1.420109
  H 1.454530 -0.751304 0.167228
  H 0.100042 0.587357 -0.361903
  H 3.705423 1.024724 1.344818
  H 3.926320 -0.716731 1.173101
  H 1.970587 -1.092625 2.707450
  H 1.860710 0.662693 2.944969
  H 4.299028 -1.043122 3.585074
  H 3.169084 -0.381762 4.752985
  H 4.184677 0.692026 3.806712
  H 2.728633 -0.819026 -2.989974
  H 2.940386 0.919461 -3.015250
  H 0.572596 1.246631 -2.396136
  H 0.341741 -0.507971 -2.343318
 24
 67.744718
  C 0.767320 0.260617 0.392890
  C 2.242001 0.073890 0.112811
  C 3.176366 0.068908 1.331629
  C 2.543995 -0.159179 2.699302
  C 3.614446 -0.235788 3.777314
  C 2.891793 0.080740 -1.090821
  C 2.410391 0.109208 -2.505559
  C 0.921341 0.289142 -2.769219
  H 0.745984 0.278951 -3.838331
  H 3.964503 -0.005113 -1.045680
  H 0.447309 0.377846 1.413852
  H 1.487882 -0.744620 0.176630
  H 0.116324 0.557789 -0.380977
  H 3.703563 1.026101 1.351196
  H 3.931384 -0.704615 1.179063
  H 1.975498 -1.088805 2.698641
  H 1.869421 0.654884 2.942770
  H 4.298648 -1.054213 3.580827
  H 3.162580 -0.394365 4.753353
  H 4.186829 0.685964 3.810531
  H 2.736559 -0.831082 -2.992719
  H 2.950758 0.923139 -3.021118
  H 0.571174 1.241638 -2.384100
  H 0.343215 -0.511098 -2.332669
 24
 69.872985
  C 0.763874 0.280522 0.401175
  C 2.244386 0.071544 0.118590
  C 3.182045 0.073409 1.334084
  C 2.550969 -0.161568 2.701286
  C 3.623945 -0.245009 3.778798
  C 2.894863 0.080145 -1.087046
  C 2.413104 0.106024 -2.510313
  C 0.928627 0.285428 -2.782119
  H 0.757814 0.273912 -3.859586
  H 3.980420 -0.010412 -1.038735
  H 0.441943 0.398114 1.418635
  H 1.509588 -0.742783 0.195670
  H 0.099897 0.539832 -0.383639
  H 3.701955 1.031628 1.354260
  H 3.946146 -0.699475 1.177977
  H 1.977063 -1.098654 2.696142
  H 1.869732 0.660221 2.952378
  H 4.306446 -1.062299 3.577762
  H 3.174991 -0.407275 4.750332
  H 4.195805 0.673611 3.816012
  H 2.735602 -0.821141 -2.988699
  H 2.949023 0.906983 -3.020070
  H 0.578487 1.235745 -2.401089
  H 0.345790 -0.518163 -2.345765
