10

H 1.43371228896096 -0.07466808621983616 0.041475674147296734
C 2.503573 -0.082504 0.026092
C 3.219137 -0.595398 -0.980807
C 4.656855 -0.605983 -1.001584
C 5.377827 -1.121115 -2.012873
H 6.4477110209759765 -1.1282666162405244 -2.0269099528539964
H 3.004022 0.352902 0.880869
H 2.706748 -1.028678 -1.831395
H 5.16098 -0.171012 -0.147668
H 4.873583 -1.555882 -2.866394
