 20
 0.000000
  C 1.007199 -0.071788 0.046696
  C 2.503396 -0.082351 0.026100
  C 3.219241 -0.595125 -0.980553
  C 4.657207 -0.605740 -1.001248
  C 5.377399 -1.121120 -2.013015
  C 6.816056 -1.130677 -2.031633
  C 7.534128 -1.642528 -3.036480
  C 9.024236 -1.661755 -3.074075
  H 0.646214 0.395206 0.963480
  H 0.612702 -1.088081 0.008545
  H 0.611671 0.494173 -0.796605
  H 3.003311 0.353241 0.881341
  H 2.708050 -1.028613 -1.831646
  H 5.161819 -0.170831 -0.147353
  H 4.873282 -1.556116 -2.867083
  H 7.322889 -0.696195 -1.178574
  H 7.035361 -2.078828 -3.893094
  H 9.458369 -1.208578 -2.184323
  H 9.383475 -1.115607 -3.947839
  H 9.383396 -2.689667 -3.146091
 20
 2.744817
  C 1.023632 -0.060277 0.034825
  C 2.505942 -0.076951 0.018475
  C 3.223944 -0.585207 -0.977867
  C 4.658442 -0.601756 -1.004816
  C 5.385734 -1.116826 -2.013688
  C 6.819567 -1.133703 -2.039693
  C 7.535468 -1.639622 -3.030632
  C 9.022907 -1.664994 -3.073338
  H 0.609546 0.312521 0.946416
  H 0.586676 -1.037540 0.075602
  H 0.622707 0.485308 -0.809829
  H 3.008627 0.356086 0.871999
  H 2.717689 -1.017997 -1.832430
  H 5.163769 -0.168042 -0.149813
  H 4.880467 -1.550513 -2.868453
  H 7.323038 -0.699933 -1.184658
  H 7.034341 -2.073749 -3.886338
  H 9.448749 -1.211834 -2.180597
  H 9.385648 -1.124535 -3.948662
  H 9.381786 -2.692090 -3.151118
 20
 7.985502
  C 1.007263 -0.040020 0.030332
  C 2.494319 -0.069100 0.024296
  C 3.221683 -0.577459 -0.981322
  C 4.659635 -0.597905 -1.005211
  C 5.400154 -1.117040 -2.027388
  C 6.836934 -1.139126 -2.049557
  C 7.555959 -1.642330 -3.040726
  C 9.044140 -1.672476 -3.078836
  H 0.553301 0.276636 0.950439
  H 0.533397 -0.995415 0.182866
  H 0.581382 0.464400 -0.824810
  H 2.993944 0.357206 0.875744
  H 2.718808 -1.001935 -1.839098
  H 5.162061 -0.171135 -0.148026
  H 4.897959 -1.543836 -2.884339
  H 7.336693 -0.712369 -1.192620
  H 7.057168 -2.069089 -3.897688
  H 9.466480 -1.226496 -2.184745
  H 9.411482 -1.130397 -3.949896
  H 9.399863 -2.699048 -3.161911
 20
 15.066727
  C 1.018314 -0.035182 0.015771
  C 2.509099 -0.071717 0.013750
  C 3.230177 -0.575807 -0.989269
  C 4.661397 -0.599794 -1.012774
  C 5.388692 -1.110122 -2.022247
  C 6.831719 -1.136920 -2.043950
  C 7.550437 -1.639371 -3.038286
  C 9.046127 -1.674367 -3.076240
  H 0.534324 0.243148 0.938007
  H 0.510479 -0.960102 0.257995
  H 0.580234 0.441106 -0.847194
  H 3.012082 0.349247 0.867108
  H 2.725027 -0.994464 -1.849567
  H 5.166328 -0.177771 -0.153493
  H 4.882407 -1.532899 -2.882834
  H 7.334422 -0.714180 -1.183336
  H 7.049028 -2.062005 -3.898700
  H 9.472067 -1.231504 -2.176823
  H 9.416942 -1.128289 -3.948110
  H 9.399934 -2.705288 -3.163526
 20
 22.857428
  C 1.028513 -0.027795 0.006824
  C 2.498635 -0.068714 0.014522
  C 3.225346 -0.574347 -0.994543
  C 4.657693 -0.599291 -1.014968
  C 5.386931 -1.107502 -2.023086
  C 6.829819 -1.136185 -2.040647
  C 7.558565 -1.641773 -3.044115
  C 9.051206 -1.678249 -3.077448
  H 0.522073 0.213335 0.933023
  H 0.501955 -0.929354 0.314286
  H 0.581749 0.423737 -0.856670
  H 3.000682 0.349907 0.872666
  H 2.721604 -0.988582 -1.857132
  H 5.160120 -0.180728 -0.154172
  H 4.883451 -1.526899 -2.885371
  H 7.330471 -0.716162 -1.176900
  H 7.060437 -2.061962 -3.908216
  H 9.474484 -1.238756 -2.176332
  H 9.424876 -1.130552 -3.945699
  H 9.403639 -2.708450 -3.166164
 20
 28.784875
  C 1.026372 -0.025780 -0.002000
  C 2.507549 -0.077646 0.006771
  C 3.229696 -0.574690 -0.998083
  C 4.669440 -0.602310 -1.016788
  C 5.399677 -1.106081 -2.028106
  C 6.825326 -1.138911 -2.041040
  C 7.552388 -1.637614 -3.043096
  C 9.045638 -1.678265 -3.072304
  H 0.509407 0.221766 0.925166
  H 0.488098 -0.896021 0.391412
  H 0.555397 0.381308 -0.890993
  H 3.016173 0.336004 0.871593
  H 2.722869 -0.981169 -1.868933
  H 5.175881 -0.188816 -0.145928
  H 4.898601 -1.516951 -2.893799
  H 7.322713 -0.727751 -1.174493
  H 7.054881 -2.049702 -3.911725
  H 9.466613 -1.248002 -2.169117
  H 9.422636 -1.126693 -3.932880
  H 9.394512 -2.705679 -3.167473
 20
 34.171203
  C 1.022257 -0.021876 -0.003896
  C 2.499137 -0.082378 0.005849
  C 3.227097 -0.576282 -1.006526
  C 4.658190 -0.605884 -1.021595
  C 5.390897 -1.103749 -2.032901
  C 6.825542 -1.140778 -2.039759
  C 7.561438 -1.636766 -3.048785
  C 9.058194 -1.680697 -3.071089
  H 0.503566 0.240692 0.920454
  H 0.479116 -0.855634 0.463106
  H 0.537929 0.331883 -0.894310
  H 3.008873 0.324379 0.873777
  H 2.723959 -0.971175 -1.877357
  H 5.160675 -0.202409 -0.150825
  H 4.893121 -1.505902 -2.901962
  H 7.318859 -0.738133 -1.169062
  H 7.067927 -2.040354 -3.921807
  H 9.475869 -1.258341 -2.162559
  H 9.440415 -1.122532 -3.925660
  H 9.406989 -2.711420 -3.172787
 20
 38.449284
  C 1.039890 -0.024427 -0.011210
  C 2.494261 -0.089803 0.000899
  C 3.218738 -0.576332 -1.010806
  C 4.658685 -0.609061 -1.024404
  C 5.392175 -1.101433 -2.037914
  C 6.821222 -1.144858 -2.041156
  C 7.551798 -1.630633 -3.042955
  C 9.053627 -1.679679 -3.062074
  H 0.514932 0.264965 0.913656
  H 0.490367 -0.822941 0.529666
  H 0.545751 0.274945 -0.919141
  H 3.001548 0.306901 0.868817
  H 2.711700 -0.964355 -1.892915
  H 5.164357 -0.211561 -0.143037
  H 4.893441 -1.495791 -2.914290
  H 7.314533 -0.751083 -1.164932
  H 7.057449 -2.025844 -3.922585
  H 9.471006 -1.265360 -2.146369
  H 9.441922 -1.113980 -3.913538
  H 9.399685 -2.711075 -3.171666
 20
 42.405942
  C 1.023015 -0.024971 -0.011622
  C 2.489668 -0.095758 -0.000516
  C 3.216839 -0.576898 -1.015465
  C 4.660407 -0.612943 -1.027639
  C 5.396178 -1.098841 -2.041458
  C 6.825012 -1.146963 -2.039703
  C 7.562511 -1.629483 -3.048372
  C 9.056157 -1.681128 -3.060504
  H 0.501251 0.290893 0.906276
  H 0.476043 -0.781153 0.592548
  H 0.522610 0.219228 -0.920470
  H 3.000248 0.295154 0.875281
  H 2.714057 -0.952460 -1.894159
  H 5.161158 -0.227235 -0.149534
  H 4.900523 -1.483364 -2.919325
  H 7.316575 -0.761565 -1.158479
  H 7.070932 -2.017696 -3.936082
  H 9.471058 -1.272898 -2.135334
  H 9.449146 -1.108355 -3.906443
  H 9.401546 -2.718458 -3.177207
 20
 45.621283
  C 1.033248 -0.028486 -0.012145
  C 2.484925 -0.100035 -0.002682
  C 3.214652 -0.576215 -1.022382
  C 4.650652 -0.617430 -1.029796
  C 5.388932 -1.097025 -2.045761
  C 6.824839 -1.151103 -2.038583
  C 7.563878 -1.626182 -3.046814
  C 9.056960 -1.681268 -3.053706
  H 0.508231 0.322836 0.906104
  H 0.485106 -0.744313 0.660531
  H 0.517200 0.159365 -0.938390
  H 2.991246 0.278450 0.871555
  H 2.713148 -0.941782 -1.906161
  H 5.147658 -0.243169 -0.149362
  H 4.894018 -1.472365 -2.930544
  H 7.315819 -0.774279 -1.149904
  H 7.075323 -2.004885 -3.938662
  H 9.469542 -1.281910 -2.122842
  H 9.455734 -1.101532 -3.894591
  H 9.399274 -2.715497 -3.177388
 20
 48.902669
  C 1.027751 -0.032704 -0.011425
  C 2.476911 -0.110964 -0.005590
  C 3.204912 -0.579001 -1.025687
  C 4.650315 -0.626066 -1.031234
  C 5.389000 -1.097879 -2.047936
  C 6.829230 -1.154604 -2.039921
  C 7.567492 -1.620490 -3.045958
  C 9.056923 -1.679841 -3.049630
  H 0.513513 0.355755 0.890779
  H 0.487646 -0.690543 0.716429
  H 0.496475 0.098403 -0.947458
  H 2.987154 0.259424 0.878788
  H 2.707154 -0.931598 -1.906653
  H 5.148646 -0.259970 -0.143953
  H 4.897928 -1.461415 -2.930457
  H 7.319989 -0.786506 -1.146484
  H 7.081106 -1.989098 -3.939596
  H 9.466602 -1.290820 -2.116759
  H 9.459550 -1.095123 -3.882046
  H 9.398173 -2.713687 -3.181486
 20
 51.294197
  C 1.037789 -0.037335 -0.014385
  C 2.483444 -0.113625 -0.009273
  C 3.214518 -0.577278 -1.033118
  C 4.644275 -0.632572 -1.029903
  C 5.388651 -1.099983 -2.050770
  C 6.818094 -1.154122 -2.036847
  C 7.561222 -1.613943 -3.044029
  C 9.052565 -1.678189 -3.038693
  H 0.517673 0.390018 0.888216
  H 0.494700 -0.652349 0.774243
  H 0.501343 0.036612 -0.944145
  H 2.990462 0.245824 0.876450
  H 2.713244 -0.925692 -1.930136
  H 5.138295 -0.274883 -0.138249
  H 4.896236 -1.459809 -2.949128
  H 7.304863 -0.793119 -1.136584
  H 7.077849 -1.975252 -3.945325
  H 9.458361 -1.298192 -2.099389
  H 9.461490 -1.088603 -3.862349
  H 9.389920 -2.706063 -3.176380
 20
 54.019843
  C 1.026724 -0.040450 -0.009427
  C 2.475998 -0.125281 -0.011352
  C 3.205013 -0.582232 -1.037393
  C 4.644981 -0.638971 -1.034303
  C 5.389483 -1.098400 -2.055166
  C 6.821165 -1.157140 -2.035587
  C 7.567177 -1.610062 -3.044114
  C 9.059894 -1.676816 -3.033229
  H 0.515134 0.429051 0.882892
  H 0.488704 -0.595441 0.832075
  H 0.476234 -0.019259 -0.930169
  H 2.987467 0.225733 0.880298
  H 2.701960 -0.920904 -1.936368
  H 5.139218 -0.290124 -0.139564
  H 4.898934 -1.449756 -2.958269
  H 7.306656 -0.803689 -1.127377
  H 7.088844 -1.961661 -3.948086
  H 9.461623 -1.307062 -2.092250
  H 9.470904 -1.085273 -3.844777
  H 9.394041 -2.700223 -3.177810
 20
 56.546290
  C 1.036412 -0.047740 -0.008979
  C 2.476528 -0.134444 -0.010760
  C 3.211147 -0.586609 -1.041642
  C 4.630958 -0.645145 -1.033211
  C 5.383557 -1.099061 -2.057646
  C 6.810991 -1.158464 -2.031842
  C 7.563558 -1.604442 -3.040332
  C 9.056597 -1.671903 -3.022269
  H 0.525712 0.466804 0.874339
  H 0.499324 -0.540896 0.877362
  H 0.477329 -0.075458 -0.921829
  H 2.986064 0.209091 0.888155
  H 2.714123 -0.915010 -1.938493
  H 5.119581 -0.305144 -0.137043
  H 4.899532 -1.441611 -2.961651
  H 7.290001 -0.813422 -1.122173
  H 7.089184 -1.949922 -3.950984
  H 9.455872 -1.307180 -2.071656
  H 9.475202 -1.071020 -3.831911
  H 9.393766 -2.700500 -3.173535
