 10
 0.000000
  H 1.383155 0.142914 0.403090
  C 2.459748 0.111225 0.329194
  H 3.030611 0.452264 1.181924
  C 3.082175 -0.345259 -0.806494
  C 4.489848 -0.388045 -0.917387
  C 5.112174 -0.844408 -2.053157
  H 4.542579 -1.184643 -2.904896
  H 6.189124 -0.876606 -2.127751
  H 2.489745 -0.684277 -1.647295
  H 5.082947 -0.049193 -0.076619
 10
 15.087227
  H 1.320598 0.170320 0.471492
  C 2.395169 0.145684 0.415006
  H 2.957952 0.487010 1.268392
  C 3.091804 -0.351099 -0.821094
  C 4.478133 -0.381998 -0.902252
  C 5.174670 -0.878658 -2.138426
  H 4.612368 -1.219653 -2.991932
  H 6.249290 -0.903708 -2.195420
  H 2.506643 -0.690562 -1.663111
  H 5.063741 -0.042739 -0.060399
 10
 46.306049
  H 1.264519 0.180857 0.498157
  C 2.345494 0.173034 0.483060
  H 2.936019 0.509262 1.323603
  C 3.109160 -0.365345 -0.856886
  C 4.457785 -0.368096 -0.867377
  C 5.221406 -0.906357 -2.207276
  H 4.634227 -1.240468 -3.043306
  H 6.303074 -0.914492 -2.222722
  H 2.489396 -0.695070 -1.674814
  H 5.078313 -0.038172 -0.048717
 10
 83.248222
  H 1.211528 0.199101 0.543958
  C 2.279172 0.205159 0.563097
  H 2.877800 0.533523 1.383666
  C 3.115571 -0.373695 -0.877791
  C 4.450665 -0.359099 -0.844781
  C 5.286987 -0.937777 -2.285620
  H 4.687355 -1.266474 -3.107734
  H 6.353479 -0.931918 -2.266506
  H 2.475064 -0.693350 -1.670835
  H 5.091036 -0.039619 -0.051903
 10
 120.045168
  H 1.150066 0.216910 0.587719
  C 2.216983 0.236199 0.640397
  H 2.827520 0.561583 1.454215
  C 3.128952 -0.382656 -0.899880
  C 4.434481 -0.350222 -0.822870
  C 5.346367 -0.968842 -2.362998
  H 4.735902 -1.293834 -3.176652
  H 6.413811 -0.949779 -2.310302
  H 2.464000 -0.694581 -1.673127
  H 5.099359 -0.038412 -0.049574
 10
 153.459869
  H 1.087196 0.235873 0.635049
  C 2.152510 0.267015 0.717034
  H 2.772490 0.590901 1.527301
  C 3.139262 -0.391948 -0.922985
  C 4.421120 -0.340993 -0.799859
  C 5.407708 -0.999635 -2.439556
  H 4.788573 -1.322678 -3.248573
  H 6.477344 -0.968566 -2.357182
  H 2.445605 -0.695116 -1.674454
  H 5.114624 -0.037913 -0.048319
 10
 181.774263
  H 1.028298 0.256118 0.685425
  C 2.088390 0.297180 0.792084
  H 2.711061 0.620241 1.600601
  C 3.152257 -0.401436 -0.946526
  C 4.406602 -0.331126 -0.775384
  C 5.470065 -1.029259 -2.513242
  H 4.844989 -1.353120 -3.324629
  H 6.536166 -0.988125 -2.405754
  H 2.429022 -0.694869 -1.673654
  H 5.128936 -0.038034 -0.048810
 10
 204.190357
  H 0.964691 0.277999 0.739290
  C 2.025931 0.326720 0.865614
  H 2.646796 0.650512 1.676454
  C 3.166927 -0.411683 -0.971654
  C 4.392411 -0.320613 -0.749309
  C 5.532567 -1.058085 -2.585125
  H 4.905972 -1.384379 -3.403345
  H 6.591707 -1.009640 -2.458717
  H 2.416520 -0.694570 -1.672023
  H 5.141399 -0.038211 -0.049791
 10
 220.810774
  H 0.894825 0.301428 0.796884
  C 1.965640 0.355752 0.938044
  H 2.583665 0.680890 1.752677
  C 3.180066 -0.423240 -1.000110
  C 4.378358 -0.309840 -0.722685
  C 5.591386 -1.087349 -2.658146
  H 4.973017 -1.412347 -3.473704
  H 6.647515 -1.033977 -2.518643
  H 2.410001 -0.694233 -1.670347
  H 5.148341 -0.038760 -0.051818
 10
 232.573387
  H 0.840751 0.325666 0.857373
  C 1.904366 0.384220 1.008930
  H 2.518475 0.710269 1.826534
  C 3.192206 -0.435453 -1.030794
  C 4.361391 -0.298266 -0.694449
  C 5.646062 -1.116090 -2.729427
  H 5.033928 -1.440280 -3.543498
  H 6.708502 -1.057788 -2.577155
  H 2.403819 -0.697538 -1.678477
  H 5.150497 -0.035809 -0.045339
 10
 240.555601
  H 0.785724 0.352114 0.920898
  C 1.845329 0.412449 1.078446
  H 2.450814 0.740477 1.902691
  C 3.207925 -0.448890 -1.062378
  C 4.344750 -0.286110 -0.663801
  C 5.701132 -1.143321 -2.797785
  H 5.094939 -1.469724 -3.619414
  H 6.765100 -1.082511 -2.637701
  H 2.401168 -0.704146 -1.691896
  H 5.152435 -0.030410 -0.032640
 10
 245.837413
  H 0.711503 0.382806 0.996733
  C 1.774939 0.445039 1.159319
  H 2.371161 0.776458 1.992356
  C 3.217945 -0.455604 -1.078581
  C 4.335235 -0.279496 -0.647063
  C 5.770540 -1.175077 -2.877105
  H 5.172032 -1.505277 -3.708503
  H 6.833211 -1.112480 -2.712329
  H 2.404980 -0.707147 -1.698695
  H 5.147337 -0.028020 -0.026639
 10
 248.874739
  H 0.637597 0.414270 1.074968
  C 1.703409 0.477409 1.239659
  H 2.287768 0.812527 2.082144
  C 3.227329 -0.462238 -1.094946
  C 4.324430 -0.273167 -0.631149
  C 5.839040 -1.207099 -2.956973
  H 5.251974 -1.540821 -3.797108
  H 6.902679 -1.143543 -2.789823
  H 2.407758 -0.709830 -1.705237
  H 5.144588 -0.025145 -0.019403
 10
 250.657253
  H 0.562557 0.447044 1.156699
  C 1.630372 0.510140 1.320804
  H 2.201202 0.849404 2.173695
  C 3.236142 -0.468224 -1.109739
  C 4.314403 -0.267207 -0.616021
  C 5.909132 -1.239335 -3.037224
  H 5.334989 -1.576987 -3.887178
  H 6.975357 -1.175631 -2.870193
  H 2.410135 -0.712693 -1.712412
  H 5.139650 -0.022703 -0.012960
