 20
 0.000000
  H 1.495418 0.138755 0.398903
  C 2.576298 0.134164 0.387089
  C 3.273107 0.616552 1.584968
  C 2.345233 1.067039 2.704704
  H 2.919913 1.411085 3.559393
  C 3.186927 -0.326898 -0.759461
  C 4.568148 -0.404086 -0.952000
  C 5.199767 -0.866870 -2.108257
  C 4.527685 -1.354159 -3.326324
  H 3.447414 -1.337877 -3.286802
  O 6.505960 -0.893797 -2.176130
  H 3.935374 1.445518 1.306669
  H 3.935798 -0.173707 1.958477
  H 1.705846 0.249651 3.029397
  H 1.705572 1.881308 2.372739
  H 2.542152 -0.649778 -1.563215
  H 5.214106 -0.081092 -0.145545
  H 4.871823 -2.369527 -3.529325
  H 4.872504 -0.759490 -4.173734
  H 6.951031 -0.570588 -1.368627
 20
 0.974313
  H 1.501991 0.105217 0.429432
  C 2.583380 0.094834 0.403717
  C 3.271303 0.583614 1.605714
  C 2.328865 1.113114 2.677262
  H 2.890243 1.469737 3.535156
  C 3.185128 -0.361983 -0.746984
  C 4.567519 -0.439438 -0.937322
  C 5.205958 -0.877751 -2.098926
  C 4.527195 -1.329519 -3.327173
  H 3.447488 -1.338619 -3.245741
  O 6.510525 -0.963566 -2.150267
  H 3.989709 1.361003 1.329937
  H 3.874676 -0.226285 2.023065
  H 1.650388 0.337037 3.017510
  H 1.734373 1.938491 2.295074
  H 2.532311 -0.687647 -1.545626
  H 5.205665 -0.173210 -0.106669
  H 4.884507 -2.320252 -3.595815
  H 4.829913 -0.677668 -4.147152
  H 7.008364 -0.445311 -1.489072
 20
 6.025136
  H 1.495159 0.259151 0.371686
  C 2.574833 0.192894 0.370641
  C 3.253721 0.572064 1.614238
  C 2.310722 1.058082 2.704865
  H 2.867470 1.316663 3.601241
  C 3.182838 -0.232709 -0.789513
  C 4.564599 -0.388110 -0.940510
  C 5.209672 -0.887805 -2.070401
  C 4.539632 -1.425353 -3.265870
  H 3.460996 -1.446513 -3.186939
  O 6.524295 -1.021224 -2.070807
  H 4.006032 1.341638 1.405585
  H 3.827376 -0.287083 1.985368
  H 1.587890 0.288900 2.966001
  H 1.764246 1.940203 2.379864
  H 2.540525 -0.459786 -1.627028
  H 5.195159 -0.164339 -0.091782
  H 4.914763 -2.428795 -3.471647
  H 4.838088 -0.824935 -4.126985
  H 7.054037 -0.241164 -1.832664
 20
 6.025136
  H 1.495159 0.259151 0.371686
  C 2.574833 0.192894 0.370641
  C 3.253721 0.572064 1.614238
  C 2.310722 1.058082 2.704865
  H 2.867470 1.316663 3.601241
  C 3.182838 -0.232709 -0.789513
  C 4.564599 -0.388110 -0.940510
  C 5.209672 -0.887805 -2.070401
  C 4.539632 -1.425353 -3.265870
  H 3.460996 -1.446513 -3.186939
  O 6.524295 -1.021224 -2.070807
  H 4.006032 1.341638 1.405585
  H 3.827376 -0.287083 1.985368
  H 1.587890 0.288900 2.966001
  H 1.764246 1.940203 2.379864
  H 2.540525 -0.459786 -1.627028
  H 5.195159 -0.164339 -0.091782
  H 4.914763 -2.428795 -3.471647
  H 4.838088 -0.824935 -4.126985
  H 7.054037 -0.241164 -1.832664
 20
 11.161499
  H 1.483406 0.217446 0.392578
  C 2.563937 0.160421 0.396259
  C 3.234853 0.574558 1.630287
  C 2.287842 1.085349 2.705219
  H 2.840789 1.365029 3.597488
  C 3.178329 -0.288673 -0.752628
  C 4.563154 -0.434033 -0.898383
  C 5.217255 -0.912713 -2.029058
  C 4.562905 -1.366559 -3.265417
  H 3.482297 -1.340432 -3.219505
  O 6.540927 -1.070146 -1.969704
  H 3.987715 1.339115 1.404035
  H 3.812213 -0.272300 2.024418
  H 1.563893 0.322459 2.981458
  H 1.742099 1.959181 2.357346
  H 2.538434 -0.545652 -1.583423
  H 5.193348 -0.174389 -0.058583
  H 4.899033 -2.380083 -3.492893
  H 4.908225 -0.756607 -4.102058
  H 7.111401 -0.320191 -2.192095
 20
 7.737301
  H 1.475310 0.146578 0.420528
  C 2.556807 0.114643 0.422773
  C 3.221514 0.589404 1.639096
  C 2.265012 1.126119 2.693217
  H 2.812684 1.451430 3.573202
  C 3.178984 -0.364733 -0.708935
  C 4.565482 -0.482799 -0.853344
  C 5.232811 -0.933963 -1.990293
  C 4.596274 -1.284460 -3.272410
  H 3.516805 -1.216503 -3.244806
  O 6.544502 -1.083982 -1.882064
  H 3.961288 1.356771 1.381793
  H 3.812518 -0.231479 2.065924
  H 1.555010 0.361928 3.000366
  H 1.703830 1.975230 2.310503
  H 2.543025 -0.672654 -1.525486
  H 5.197898 -0.173571 -0.030800
  H 4.893933 -2.298820 -3.544073
  H 4.970115 -0.642530 -4.071520
  H 7.124557 -0.582847 -2.478567
 20
 1.353812
  H 1.472530 0.082976 0.444439
  C 2.554202 0.082344 0.439865
  C 3.214378 0.604384 1.641469
  C 2.247969 1.144755 2.685437
  H 2.790278 1.502689 3.556107
  C 3.185132 -0.403201 -0.683522
  C 4.571277 -0.488178 -0.830810
  C 5.253657 -0.907138 -1.975628
  C 4.632059 -1.211430 -3.277182
  H 3.552707 -1.133671 -3.251698
  O 6.551121 -1.034653 -1.837016
  H 3.934269 1.382208 1.362575
  H 3.823349 -0.193555 2.085601
  H 1.555612 0.372473 3.011900
  H 1.668234 1.972578 2.284212
  H 2.556275 -0.747966 -1.491041
  H 5.210868 -0.186604 -0.012069
  H 4.914630 -2.219582 -3.583895
  H 5.008186 -0.537039 -4.047531
  H 7.081396 -0.941641 -2.650639
 20
 4.147700
  H 1.487713 -0.302703 0.590364
  C 2.563119 -0.207161 0.529476
  C 3.212432 0.619453 1.555233
  C 2.235986 1.377779 2.442323
  H 2.769195 1.918280 3.219446
  C 3.208641 -0.834567 -0.504862
  C 4.598489 -0.824505 -0.696438
  C 5.263334 -0.974208 -1.911960
  C 4.618934 -0.894453 -3.234954
  H 3.548477 -0.748605 -3.153916
  O 6.556303 -1.165978 -1.815902
  H 3.921594 1.315513 1.097682
  H 3.828713 -0.045390 2.176103
  H 1.533953 0.699185 2.920762
  H 1.667564 2.099208 1.859987
  H 2.608238 -1.391305 -1.211917
  H 5.276549 -0.756364 0.144998
  H 4.821703 -1.814419 -3.786193
  H 5.038444 -0.079947 -3.825540
  H 7.099513 -0.868274 -2.569529
 20
 13.599669
  H 1.493691 -0.421313 0.677508
  C 2.568414 -0.357851 0.576239
  C 3.269313 0.553641 1.495614
  C 2.341251 1.479415 2.268230
  H 2.898671 2.048981 3.006866
  C 3.171732 -1.093939 -0.398696
  C 4.560105 -1.081949 -0.673784
  C 5.186104 -1.022985 -1.909519
  C 4.552043 -0.571701 -3.160540
  H 3.498297 -0.365014 -3.011704
  O 6.464924 -1.341725 -1.873532
  H 4.024748 1.138374 0.965173
  H 3.824768 -0.077638 2.202070
  H 1.563805 0.918701 2.780794
  H 1.860773 2.187215 1.595394
  H 2.566178 -1.777073 -0.982236
  H 5.321998 -1.291049 0.070497
  H 4.671443 -1.352616 -3.913527
  H 5.034954 0.320605 -3.557427
  H 7.082137 -0.796804 -2.395789
 20
 26.695425
  H 1.459262 -0.457099 0.792574
  C 2.527300 -0.399787 0.623694
  C 3.277628 0.577680 1.427469
  C 2.399196 1.522864 2.234332
  H 3.007604 2.153665 2.878049
  C 3.065865 -1.188903 -0.344987
  C 4.429563 -1.162733 -0.724284
  C 5.108405 -1.027879 -1.919388
  C 4.638596 -0.467795 -3.196136
  H 3.596739 -0.179240 -3.128065
  O 6.360638 -1.468873 -1.784118
  H 3.963376 1.151819 0.798000
  H 3.922456 0.010904 2.111833
  H 1.706199 0.970089 2.863202
  H 1.819062 2.167465 1.575460
  H 2.437349 -1.930171 -0.827288
  H 5.284744 -1.485142 -0.108946
  H 4.754829 -1.226984 -3.970037
  H 5.231862 0.392164 -3.502187
  H 7.074190 -0.888245 -2.111338
 20
 55.607287
  H 1.424210 -0.525468 0.988268
  C 2.457307 -0.421170 0.682512
  C 3.254621 0.610491 1.349321
  C 2.442252 1.565810 2.209698
  H 3.097398 2.264968 2.721547
  C 2.916790 -1.228208 -0.323451
  C 4.201454 -1.160359 -0.867680
  C 4.973897 -0.977508 -1.939180
  C 4.788465 -0.317165 -3.245891
  H 3.771791 0.050931 -3.336398
  O 6.205684 -1.564148 -1.630849
  H 3.822202 1.176260 0.599298
  H 4.025344 0.133889 1.968256
  H 1.888229 1.025041 2.972984
  H 1.732057 2.125407 1.606213
  H 2.277874 -2.034405 -0.675682
  H 5.275658 -1.679603 -0.392448
  H 4.965231 -1.045673 -4.038802
  H 5.489032 0.505526 -3.379199
  H 6.981182 -0.978303 -1.736586
 20
 63.957172
  H 1.426912 -0.556610 1.064923
  C 2.431960 -0.422792 0.693465
  C 3.253051 0.629160 1.324570
  C 2.446209 1.578496 2.201133
  H 3.101705 2.293589 2.691058
  C 2.857122 -1.217622 -0.337662
  C 4.095330 -1.134522 -0.938188
  C 4.905305 -0.951919 -1.953089
  C 4.834956 -0.271749 -3.259549
  H 3.841238 0.135837 -3.414332
  O 6.143068 -1.585582 -1.558700
  H 3.786558 1.188897 0.550031
  H 4.025947 0.152597 1.938948
  H 1.904855 1.033407 2.970854
  H 1.724588 2.133531 1.605950
  H 2.220412 -2.034136 -0.660927
  H 5.389038 -1.762297 -0.529805
  H 5.055423 -0.983763 -4.053957
  H 5.561053 0.537633 -3.316451
  H 6.934791 -1.007867 -1.548535
 20
 43.630263
  H 1.436565 -0.616351 1.225956
  C 2.389466 -0.445966 0.748529
  C 3.216997 0.671183 1.250580
  C 2.440100 1.617307 2.149736
  H 3.091427 2.397224 2.536228
  C 2.759280 -1.264435 -0.298699
  C 3.916278 -1.169274 -0.995507
  C 4.822846 -0.979776 -1.891441
  C 4.868052 -0.180400 -3.135345
  H 3.903542 0.273080 -3.314506
  O 6.126790 -1.688184 -1.639556
  H 3.636650 1.224487 0.403328
  H 4.063365 0.266334 1.814842
  H 2.013596 1.084445 2.994293
  H 1.627305 2.091368 1.599473
  H 2.107866 -2.089050 -0.563553
  H 5.901787 -2.132604 -0.797781
  H 5.113646 -0.825921 -3.975699
  H 5.613567 0.608032 -3.065597
  H 6.890393 -1.087211 -1.575539
