 17
 0.000000
  H 1.423316 0.186608 0.516157
  C 2.487953 0.131746 0.379446
  H 3.124589 0.455981 1.185439
  C 3.004732 -0.338666 -0.791192
  C 4.389585 -0.416097 -0.984565
  C 5.111097 -0.863204 -2.099824
  C 4.626987 -1.383813 -3.398570
  C 3.143124 -1.503659 -3.697998
  H 3.025107 -1.905384 -4.700109
  O 6.417141 -0.842673 -2.048655
  H 2.327795 -0.650591 -1.567441
  H 4.989501 -0.079084 -0.145460
  H 5.099851 -2.366079 -3.523185
  H 5.100174 -0.759992 -4.167292
  H 2.650717 -0.535639 -3.670116
  H 2.650487 -2.184313 -3.009167
  H 6.806720 -0.509872 -1.215498
 17
 12.135185
  H 1.370004 0.205722 0.563204
  C 2.431382 0.139755 0.399345
  H 3.088625 0.458491 1.192049
  C 2.910080 -0.331060 -0.772317
  C 4.424074 -0.424217 -1.004403
  C 5.109521 -0.869860 -2.116221
  C 4.631537 -1.385782 -3.403402
  C 3.150075 -1.503176 -3.696643
  H 3.028723 -1.904910 -4.698839
  O 6.542122 -0.851044 -2.069807
  H 2.225519 -0.639091 -1.539361
  H 5.028761 -0.089943 -0.171552
  H 5.106258 -2.368518 -3.530966
  H 5.106587 -0.763604 -4.174575
  H 2.658952 -0.534155 -3.667214
  H 2.658778 -2.183489 -3.006076
  H 6.920511 -0.519379 -1.239993
 17
 36.530239
  H 1.362177 0.246076 0.659463
  C 2.415998 0.158223 0.444260
  H 3.097234 0.467102 1.217715
  C 2.827325 -0.315595 -0.736310
  C 4.458524 -0.420373 -0.992138
  C 5.057511 -0.874410 -2.127588
  C 4.635953 -1.392681 -3.421551
  C 3.155114 -1.521120 -3.739414
  H 3.041105 -1.923460 -4.742985
  O 6.630670 -0.855828 -2.083681
  H 2.179128 -0.632745 -1.530496
  H 5.022657 -0.080533 -0.140594
  H 5.139770 -2.360866 -3.556209
  H 5.139201 -0.785165 -4.187722
  H 2.656299 -0.554992 -3.704934
  H 2.657546 -2.196524 -3.046993
  H 6.919129 -0.519260 -1.242306
 17
 66.023900
  H 1.339502 0.266038 0.705530
  C 2.389268 0.166525 0.463904
  H 3.086802 0.469274 1.224242
  C 2.755919 -0.306787 -0.715578
  C 4.483190 -0.424734 -1.000238
  C 5.012308 -0.877696 -2.134826
  C 4.631342 -1.392671 -3.421992
  C 3.151282 -1.527541 -3.753830
  H 3.045415 -1.929934 -4.758273
  O 6.746110 -0.862855 -2.103245
  H 2.130287 -0.628855 -1.524395
  H 5.030974 -0.083944 -0.143972
  H 5.149379 -2.353369 -3.556532
  H 5.147743 -0.789039 -4.182432
  H 2.647464 -0.563420 -3.719331
  H 2.649768 -2.202281 -3.063043
  H 7.000553 -0.518897 -1.242138
 17
 94.721746
  H 1.307035 0.272655 0.720816
  C 2.353773 0.169285 0.470443
  H 3.055946 0.470342 1.227025
  C 2.697899 -0.302724 -0.706164
  C 4.489971 -0.427949 -1.007154
  C 4.962768 -0.879790 -2.139713
  C 4.617160 -1.391569 -3.419774
  C 3.148524 -1.525593 -3.748290
  H 3.042961 -1.928959 -4.755378
  O 6.890253 -0.871351 -2.125450
  H 2.099341 -0.630481 -1.529943
  H 5.023644 -0.086675 -0.148957
  H 5.142262 -2.359184 -3.549841
  H 5.140136 -0.779222 -4.181756
  H 2.643894 -0.557838 -3.709369
  H 2.646700 -2.200488 -3.051718
  H 7.132349 -0.527506 -1.262607
 17
 106.223363
  H 1.388248 0.198618 0.788231
  C 2.437084 0.178950 0.521317
  H 3.124478 0.534366 1.268838
  C 2.802678 -0.278824 -0.673628
  C 4.293802 -0.370397 -0.998733
  C 4.682594 -0.844106 -2.133254
  C 4.540715 -1.381317 -3.404156
  C 3.084667 -1.564344 -3.871311
  H 3.101289 -1.986397 -4.871448
  O 7.160984 -0.865549 -2.032552
  H 2.164625 -0.641802 -1.460233
  H 4.890279 -0.010649 -0.176651
  H 5.101580 -2.325737 -3.475881
  H 5.102941 -0.765970 -4.123182
  H 2.559218 -0.612508 -3.901474
  H 2.545588 -2.241879 -3.213554
  H 7.403468 -0.574916 -1.148039
 17
 108.837616
  H 1.371850 0.238128 0.835135
  C 2.416999 0.206044 0.562511
  H 3.122520 0.547765 1.306464
  C 2.766154 -0.265924 -0.635675
  C 4.178456 -0.393011 -1.005634
  C 4.562950 -0.858189 -2.138697
  C 4.521212 -1.385164 -3.410550
  C 3.075736 -1.583977 -3.922223
  H 3.141248 -1.996766 -4.918941
  O 7.364371 -0.860737 -2.011266
  H 2.055976 -0.608226 -1.376347
  H 4.847326 -0.060527 -0.217828
  H 5.084352 -2.331152 -3.457889
  H 5.091080 -0.749245 -4.108702
  H 2.547045 -0.639249 -3.962375
  H 2.534251 -2.273606 -3.287157
  H 7.702846 -0.553901 -1.165800
 17
 108.671661
  H 1.357141 0.305053 0.904429
  C 2.394639 0.219891 0.607184
  H 3.135314 0.552364 1.323189
  C 2.696220 -0.267507 -0.595120
  C 4.084384 -0.416227 -1.026109
  C 4.474680 -0.871628 -2.158196
  C 4.521472 -1.388215 -3.426043
  C 3.076770 -1.600627 -3.962384
  H 3.169212 -2.008119 -4.964300
  O 7.539083 -0.851269 -1.990761
  H 1.933971 -0.584037 -1.306003
  H 4.801303 -0.096693 -0.273185
  H 5.090225 -2.332755 -3.446759
  H 5.089214 -0.724146 -4.097928
  H 2.540410 -0.660864 -4.005777
  H 2.534387 -2.301070 -3.339499
  H 7.955185 -0.555678 -1.175978
 17
 107.889100
  H 1.351290 0.365617 0.980596
  C 2.374363 0.238367 0.651916
  H 3.147470 0.553112 1.339401
  C 2.628211 -0.264340 -0.558116
  C 3.980671 -0.437952 -1.046708
  C 4.378118 -0.888624 -2.176155
  C 4.522142 -1.397775 -3.441012
  C 3.082994 -1.615252 -4.003568
  H 3.200226 -2.013322 -5.002630
  O 7.713159 -0.835758 -1.966008
  H 1.832237 -0.557020 -1.235862
  H 4.740416 -0.133832 -0.335423
  H 5.089373 -2.338648 -3.437421
  H 5.090260 -0.713392 -4.086431
  H 2.539352 -0.677547 -4.052052
  H 2.534339 -2.325689 -3.397341
  H 8.207580 -0.547254 -1.190760
 17
 106.859767
  H 1.313146 0.363329 1.018144
  C 2.322297 0.260894 0.661710
  H 3.106040 0.584060 1.336409
  C 2.557635 -0.263001 -0.551536
  C 3.893058 -0.449350 -1.069251
  C 4.317121 -0.915301 -2.186871
  C 4.545135 -1.410002 -3.458873
  C 3.083158 -1.599038 -3.992734
  H 3.184555 -1.991741 -5.010982
  O 7.918409 -0.855617 -1.938703
  H 1.755464 -0.573275 -1.212108
  H 4.687185 -0.134192 -0.375062
  H 5.083687 -2.374837 -3.466842
  H 5.098756 -0.708519 -4.108279
  H 2.549911 -0.646955 -4.021581
  H 2.530969 -2.316826 -3.381103
  H 8.498571 -0.562158 -1.232762
