 18
 0.000000
  C 0.901676 0.055725 0.201765
  C 2.401660 0.060494 0.088810
  C 3.251589 -0.008096 1.343472
  C 2.523822 -0.091727 2.679062
  H 3.251209 -0.135426 3.484055
  C 3.012509 0.124744 -1.089043
  C 2.364148 0.200617 -2.433115
  H 1.280594 0.200374 -2.394069
  H 4.095027 0.124736 -1.124987
  H 0.570715 0.010804 1.233717
  H 0.476328 -0.805484 -0.311850
  H 0.481884 0.961123 -0.235617
  H 3.897383 0.874998 1.364130
  H 3.908237 -0.879387 1.260435
  H 1.904613 -0.983990 2.733823
  H 1.894509 0.780487 2.839439
  H 2.689413 -0.645018 -3.043431
  H 2.692860 1.107394 -2.946027
 18
 3.863649
  C 0.901394 0.098321 0.210646
  C 2.375848 0.064489 0.093276
  C 3.242731 -0.003795 1.345161
  C 2.520303 -0.103071 2.680903
  H 3.253702 -0.146672 3.482815
  C 2.992602 0.114255 -1.084446
  C 2.351641 0.195032 -2.432538
  H 1.267882 0.216364 -2.375225
  H 4.075564 0.088639 -1.107537
  H 0.535536 0.028427 1.221828
  H 0.685322 -0.781442 -0.335835
  H 0.460742 0.969845 -0.264130
  H 3.881129 0.883531 1.366397
  H 3.908729 -0.865382 1.250915
  H 1.911472 -1.002982 2.734028
  H 1.887866 0.764698 2.853458
  H 2.652425 -0.660590 -3.038635
  H 2.689571 1.093031 -2.951036
 18
 11.520436
  C 0.886712 0.135235 0.226926
  C 2.367989 0.074583 0.098674
  C 3.245186 0.006232 1.342357
  C 2.516317 -0.114658 2.677238
  H 3.244678 -0.158800 3.481788
  C 2.981088 0.101997 -1.080710
  C 2.340911 0.192959 -2.429283
  H 1.259023 0.251236 -2.372479
  H 4.060751 0.034523 -1.104497
  H 0.499226 0.036641 1.229770
  H 0.868489 -0.765512 -0.331723
  H 0.425722 0.974408 -0.289782
  H 3.871429 0.904602 1.370032
  H 3.925395 -0.846768 1.239071
  H 1.916851 -1.021484 2.718058
  H 1.874602 0.745010 2.855213
  H 2.611974 -0.677992 -3.029836
  H 2.706370 1.076866 -2.954998
 18
 22.064895
  C 0.883181 0.163574 0.254154
  C 2.366211 0.075081 0.103864
  C 3.234388 0.006438 1.328748
  C 2.504532 -0.123520 2.658735
  H 3.229439 -0.167437 3.462990
  C 2.980570 0.094381 -1.078159
  C 2.337920 0.186887 -2.427006
  H 1.258629 0.253953 -2.369032
  H 4.057951 0.017273 -1.102446
  H 0.491266 0.052781 1.255644
  H 1.015235 -0.738086 -0.298338
  H 0.411797 0.971680 -0.278634
  H 3.853167 0.909955 1.357429
  H 3.918805 -0.841827 1.221222
  H 1.909410 -1.032516 2.693762
  H 1.858302 0.732029 2.837929
  H 2.600216 -0.688607 -3.026750
  H 2.708832 1.067567 -2.956789
 18
 32.165204
  C 0.857715 0.191273 0.243538
  C 2.349485 0.076907 0.097760
  C 3.230844 0.007472 1.338247
  C 2.519278 -0.137680 2.670654
  H 3.258241 -0.180288 3.469075
  C 2.974001 0.085636 -1.081623
  C 2.335985 0.187222 -2.432114
  H 1.253984 0.271030 -2.372511
  H 4.052416 -0.012367 -1.098515
  H 0.446502 0.095310 1.231937
  H 1.126039 -0.729854 -0.274975
  H 0.377738 0.959947 -0.336763
  H 3.836090 0.913789 1.368821
  H 3.923107 -0.827046 1.224883
  H 1.932868 -1.053488 2.706597
  H 1.868028 0.711549 2.863447
  H 2.583854 -0.689869 -3.029937
  H 2.718095 1.058698 -2.961261
 18
 41.272884
  C 0.855880 0.209640 0.259670
  C 2.349951 0.074823 0.093043
  C 3.233773 0.006354 1.328181
  C 2.505640 -0.146609 2.669958
  H 3.238151 -0.189336 3.476463
  C 2.977180 0.079715 -1.089718
  C 2.334373 0.189271 -2.438408
  H 1.254032 0.279795 -2.370567
  H 4.050642 -0.030294 -1.106598
  H 0.463144 0.128128 1.252595
  H 1.220753 -0.721296 -0.213284
  H 0.362684 0.934179 -0.360564
  H 3.835894 0.927276 1.358264
  H 3.939635 -0.833184 1.212995
  H 1.918755 -1.066329 2.698995
  H 1.847718 0.701177 2.860461
  H 2.571722 -0.691176 -3.043212
  H 2.718947 1.062219 -2.970961
 18
 48.213197
  C 0.856680 0.234417 0.268335
  C 2.343745 0.078046 0.088486
  C 3.219366 0.004015 1.326174
  C 2.504294 -0.158978 2.653601
  H 3.247913 -0.209207 3.463511
  C 2.978805 0.081131 -1.095180
  C 2.339522 0.186337 -2.436679
  H 1.247225 0.268989 -2.368224
  H 4.061854 -0.025885 -1.108672
  H 0.473251 0.192662 1.270124
  H 1.294243 -0.719124 -0.145896
  H 0.347935 0.902724 -0.401005
  H 3.810095 0.918154 1.362299
  H 3.924515 -0.826742 1.207920
  H 1.920270 -1.074831 2.675483
  H 1.853321 0.680619 2.853300
  H 2.581904 -0.687302 -3.038569
  H 2.713731 1.053800 -2.965190
 18
 52.932750
  C 0.850568 0.250589 0.270342
  C 2.343335 0.075056 0.087620
  C 3.221612 0.004912 1.325138
  C 2.506500 -0.172473 2.661406
  H 3.246256 -0.230155 3.459885
  C 2.980959 0.074288 -1.100107
  C 2.340525 0.196194 -2.444285
  H 1.260061 0.287344 -2.373496
  H 4.052702 -0.055305 -1.112989
  H 0.472704 0.279802 1.266612
  H 1.357274 -0.734240 -0.058009
  H 0.317455 0.825929 -0.465514
  H 3.807726 0.930680 1.362725
  H 3.936896 -0.822157 1.201043
  H 1.922152 -1.089022 2.677984
  H 1.854692 0.667150 2.875304
  H 2.571738 -0.678348 -3.054964
  H 2.722539 1.068620 -2.972321
 18
 57.203295
  C 0.859834 0.268858 0.273605
  C 2.338050 0.077476 0.074518
  C 3.215318 0.003087 1.314455
  C 2.504643 -0.186541 2.665969
  H 3.246436 -0.254193 3.452486
  C 2.980327 0.076064 -1.114508
  C 2.345480 0.191275 -2.445578
  H 1.278341 0.272573 -2.373320
  H 4.066832 -0.049997 -1.124591
  H 0.488982 0.335695 1.279249
  H 1.408746 -0.725532 -0.007111
  H 0.311523 0.785372 -0.485139
  H 3.795074 0.919115 1.353963
  H 3.915245 -0.801758 1.184525
  H 1.914089 -1.107502 2.680741
  H 1.850402 0.662891 2.900020
  H 2.579632 -0.675580 -3.053345
  H 2.718055 1.064582 -2.971992
 18
 60.131838
  C 0.853496 0.287306 0.285834
  C 2.341222 0.076362 0.081981
  C 3.216726 0.002569 1.324105
  C 2.505515 -0.194425 2.654654
  H 3.245610 -0.271136 3.446416
  C 2.988683 0.073453 -1.108533
  C 2.350810 0.191472 -2.456954
  H 1.270956 0.273839 -2.386657
  H 4.055548 -0.055494 -1.113234
  H 0.488161 0.389150 1.280440
  H 1.451130 -0.728970 0.049932
  H 0.286218 0.743599 -0.503311
  H 3.799641 0.931513 1.371926
  H 3.935184 -0.816991 1.191660
  H 1.915000 -1.108425 2.657254
  H 1.858614 0.646429 2.890295
  H 2.586588 -0.678129 -3.069954
  H 2.724921 1.067656 -2.983959
 18
 63.160059
  C 0.863352 0.298651 0.288728
  C 2.342116 0.073142 0.083002
  C 3.218976 0.003523 1.318020
  C 2.503244 -0.204706 2.659437
  H 3.240359 -0.287606 3.445957
  C 2.989208 0.069033 -1.113384
  C 2.354208 0.191741 -2.456969
  H 1.268662 0.280220 -2.388284
  H 4.060036 -0.070864 -1.118951
  H 0.500005 0.424322 1.277806
  H 1.493453 -0.723548 0.086181
  H 0.282286 0.705033 -0.522759
  H 3.798409 0.937443 1.367544
  H 3.936383 -0.807036 1.181239
  H 1.910739 -1.119918 2.655917
  H 1.853743 0.639959 2.903487
  H 2.586050 -0.675404 -3.071334
  H 2.732240 1.063714 -2.979711
 18
 65.610522
  C 0.853154 0.323991 0.285890
  C 2.337016 0.075239 0.085514
  C 3.222079 0.002043 1.330101
  C 2.512057 -0.216323 2.657716
  H 3.249779 -0.309143 3.446391
  C 2.986396 0.071096 -1.111294
  C 2.353937 0.182263 -2.462667
  H 1.275476 0.260981 -2.400144
  H 4.071948 -0.062460 -1.112905
  H 0.480370 0.469258 1.276293
  H 1.513982 -0.715206 0.105619
  H 0.276423 0.684171 -0.531012
  H 3.794544 0.933790 1.386834
  H 3.945396 -0.807820 1.189169
  H 1.920935 -1.123660 2.643416
  H 1.871730 0.617460 2.905652
  H 2.597706 -0.692776 -3.079132
  H 2.732423 1.070204 -2.993790
 18
 68.093232
  C 0.861652 0.336829 0.287288
  C 2.340149 0.066369 0.090836
  C 3.227515 -0.000577 1.334436
  C 2.516579 -0.224762 2.653182
  H 3.248667 -0.321062 3.442337
  C 2.992531 0.064335 -1.107794
  C 2.356720 0.180231 -2.468439
  H 1.275337 0.260481 -2.409079
  H 4.076428 -0.075116 -1.106987
  H 0.479998 0.488910 1.274785
  H 1.542824 -0.713607 0.122578
  H 0.282483 0.661338 -0.544584
  H 3.801474 0.946104 1.395722
  H 3.953305 -0.804820 1.193805
  H 1.922790 -1.134698 2.632045
  H 1.870967 0.612532 2.903482
  H 2.594406 -0.678431 -3.077708
  H 2.729342 1.053601 -2.991187
 18
 70.325895
  C 0.863339 0.352209 0.285302
  C 2.339763 0.060635 0.093093
  C 3.229218 0.000512 1.335875
  C 2.524924 -0.230847 2.650071
  H 3.260634 -0.330375 3.438432
  C 2.994499 0.058859 -1.109723
  C 2.364442 0.178059 -2.458203
  H 1.275477 0.263703 -2.398023
  H 4.071687 -0.090105 -1.108934
  H 0.473571 0.504275 1.265992
  H 1.564512 -0.713310 0.133659
  H 0.279884 0.641278 -0.559274
  H 3.790198 0.941197 1.397653
  H 3.957181 -0.795976 1.192915
  H 1.931930 -1.143657 2.625231
  H 1.876628 0.606957 2.906859
  H 2.602864 -0.694333 -3.078402
  H 2.746648 1.063705 -2.987266
