 6
 0.000000
  H 5.752796 -1.124875 -2.020252
  C 6.829319 -1.132820 -2.035849
  C 7.519687 -1.641524 -3.034527
  H 8.596752 -1.650244 -3.051639
  H 7.328522 -0.698933 -1.184062
  H 7.033541 -2.077855 -3.891104
 6
 5.117545
  H 5.774847 -1.166023 -2.098801
  C 6.852195 -1.148206 -2.066729
  C 7.585850 -1.637262 -3.028190
  H 8.656571 -1.672976 -3.098058
  H 7.272203 -0.693773 -1.178168
  H 6.919260 -2.007623 -3.746722
 6
 16.184649
  H 5.787266 -1.193538 -2.153190
  C 6.861928 -1.160307 -2.089924
  C 7.635637 -1.637908 -3.028613
  H 8.694938 -1.692461 -3.136854
  H 7.226160 -0.693387 -1.176834
  H 6.840335 -1.946011 -3.626378
 6
 30.311908
  H 5.787869 -1.210261 -2.185532
  C 6.862300 -1.171785 -2.112667
  C 7.671732 -1.641000 -3.034590
  H 8.720670 -1.705412 -3.161909
  H 7.190055 -0.695790 -1.181158
  H 6.787318 -1.894666 -3.526489
 6
 44.943803
  H 5.777273 -1.217855 -2.200460
  C 6.855102 -1.181491 -2.131647
  C 7.695371 -1.646889 -3.046067
  H 8.743089 -1.712898 -3.176436
  H 7.161610 -0.699286 -1.187537
  H 6.752307 -1.852634 -3.444503
 6
 57.914002
  H 5.765223 -1.222167 -2.208419
  C 6.846331 -1.188706 -2.145805
  C 7.707943 -1.652732 -3.058110
  H 8.754874 -1.713007 -3.175832
  H 7.145082 -0.703118 -1.194868
  H 6.724078 -1.819566 -3.380284
 6
 68.519668
  H 5.752343 -1.223167 -2.210165
  C 6.839205 -1.193878 -2.155725
  C 7.710234 -1.659108 -3.071634
  H 8.762848 -1.706390 -3.161907
  H 7.136635 -0.707437 -1.203082
  H 6.696919 -1.793565 -3.329478
 6
 77.091920
  H 5.742748 -1.219825 -2.207014
  C 6.832831 -1.197168 -2.163935
  C 7.708709 -1.665632 -3.084422
  H 8.761680 -1.694500 -3.140152
  H 7.131558 -0.711257 -1.207250
  H 6.672623 -1.775019 -3.289032
 6
 83.987229
  H 5.732695 -1.215517 -2.199296
  C 6.825840 -1.203277 -2.167383
  C 7.701907 -1.669401 -3.092422
  H 8.754820 -1.682024 -3.114953
  H 7.129280 -0.711933 -1.211626
  H 6.655184 -1.756242 -3.255818
 6
 87.621577
  H 5.720122 -1.216385 -2.180960
  C 6.816156 -1.197910 -2.163381
  C 7.699143 -1.673509 -3.094732
  H 8.753846 -1.674294 -3.094708
  H 7.122896 -0.708060 -1.208231
  H 6.636130 -1.737107 -3.239698
 6
 90.130523
  H 5.720117 -1.190853 -2.188203
  C 6.813719 -1.207888 -2.158799
  C 7.672578 -1.671292 -3.060812
  H 8.734315 -1.649267 -3.096492
  H 7.113427 -0.722452 -1.208960
  H 6.640858 -1.730807 -3.201501
 6
 91.478556
  H 5.692645 -1.193868 -2.177872
  C 6.790539 -1.183617 -2.141529
  C 7.690937 -1.633139 -3.061845
  H 8.750678 -1.679746 -3.105238
  H 7.099468 -0.702789 -1.181474
  H 6.622762 -1.735596 -3.187484
 6
 95.929119
  H 5.695431 -1.167578 -2.166474
  C 6.792269 -1.191642 -2.138316
  C 7.682230 -1.656079 -3.087865
  H 8.730917 -1.646948 -3.070498
  H 7.086643 -0.712000 -1.174555
  H 6.604979 -1.738840 -3.156327
 6
 100.569218
  H 5.677973 -1.136332 -2.167615
  C 6.779129 -1.196696 -2.127428
  C 7.674324 -1.628556 -3.080941
  H 8.730772 -1.630798 -3.054811
  H 7.085845 -0.723179 -1.162554
  H 6.581073 -1.753471 -3.105335
