 23
 0.000000
  H 1.387704 0.148699 0.423436
  C 2.466570 0.138961 0.397801
  C 3.215451 0.609744 1.566988
  H 2.589068 0.939085 2.386664
  C 3.048703 -0.328400 -0.765190
  C 4.426786 -0.412249 -0.975619
  C 5.116405 -0.864373 -2.103209
  C 4.617972 -1.385399 -3.402093
  C 3.129200 -1.505004 -3.700912
  C 2.928713 -2.068505 -5.105828
  O 6.429674 -0.855512 -2.082139
  H 3.871477 1.433961 1.276358
  H 3.872439 -0.185396 1.927816
  H 2.379023 -0.642723 -1.546385
  H 5.055478 -0.082926 -0.156351
  H 5.082965 -2.370631 -3.528459
  H 5.083376 -0.760921 -4.174337
  H 2.651338 -0.526141 -3.652586
  H 2.651056 -2.179019 -2.989614
  H 3.376151 -1.418831 -5.854233
  H 1.868693 -2.157760 -5.328791
  H 3.375999 -3.055382 -5.197810
  H 6.819820 -0.522534 -1.250752
 23
 0.126385
  H 1.455321 0.663102 0.255089
  C 2.510045 0.433976 0.280779
  C 3.187870 0.551863 1.572027
  H 2.510123 0.885987 2.347228
  C 3.094268 0.037981 -0.904967
  C 4.451452 -0.274706 -1.027808
  C 5.122139 -0.778964 -2.144630
  C 4.594203 -1.182348 -3.474930
  C 3.140533 -1.616239 -3.659062
  C 2.938537 -2.145221 -5.078105
  O 6.423515 -0.925016 -2.095669
  H 4.024868 1.247712 1.508189
  H 3.617767 -0.405237 1.871154
  H 2.462634 0.010606 -1.778676
  H 5.037801 -0.174652 -0.123858
  H 5.245038 -1.998231 -3.808892
  H 4.804831 -0.352867 -4.161737
  H 2.452110 -0.786337 -3.512786
  H 2.895377 -2.406555 -2.947636
  H 3.149476 -1.372696 -5.815184
  H 1.909991 -2.471298 -5.215904
  H 3.589692 -2.994266 -5.276605
  H 6.845430 -0.636620 -1.265074
 23
 -1.332452
  H 1.524106 0.941666 0.052878
  C 2.539653 0.589188 0.157981
  C 3.118642 0.607560 1.503147
  H 2.422177 1.011518 2.231264
  C 3.173606 0.148069 -0.986165
  C 4.484774 -0.335478 -1.010941
  C 5.148529 -0.879070 -2.114060
  C 4.579320 -1.104843 -3.468699
  C 3.265121 -1.889483 -3.566596
  C 2.879720 -2.081467 -5.027331
  O 6.433236 -1.102586 -2.059401
  H 4.036531 1.198730 1.523000
  H 3.405985 -0.398036 1.812672
  H 2.633768 0.230909 -1.913436
  H 5.008420 -0.363550 -0.063675
  H 5.340224 -1.637986 -4.042377
  H 4.448742 -0.123536 -3.939436
  H 2.454557 -1.377414 -3.056540
  H 3.395798 -2.867646 -3.100888
  H 2.719089 -1.122656 -5.517152
  H 1.958830 -2.659151 -5.100888
  H 3.656428 -2.617226 -5.568663
  H 6.864224 -0.872732 -1.213405
 23
 3.731786
  H 1.554989 0.957669 0.074282
  C 2.565790 0.589111 0.184729
  C 3.149721 0.629996 1.529297
  H 2.464014 1.062741 2.246302
  C 3.185025 0.116958 -0.951310
  C 4.487247 -0.399409 -0.971269
  C 5.095250 -1.025237 -2.062041
  C 4.552335 -1.144491 -3.441433
  C 3.273550 -1.984960 -3.609192
  C 2.881042 -2.065765 -5.078228
  O 6.408220 -1.070715 -2.063691
  H 4.078625 1.201815 1.536008
  H 3.410825 -0.377374 1.865866
  H 2.653448 0.209724 -1.882437
  H 4.976592 -0.421780 -0.009852
  H 5.338103 -1.551198 -4.079708
  H 4.349326 -0.120630 -3.778472
  H 2.448270 -1.550191 -3.053613
  H 3.449131 -2.994004 -3.225850
  H 2.642155 -1.079742 -5.471695
  H 2.007327 -2.703240 -5.203475
  H 3.686632 -2.481235 -5.671210
  H 6.841988 -0.777851 -1.236943
 23
 30.977692
  H 1.547839 0.796152 0.424987
  C 2.601816 0.572137 0.420355
  C 3.312681 0.710263 1.702660
  H 2.650676 1.071410 2.479431
  C 3.120992 0.058694 -0.744730
  C 4.425931 -0.476348 -0.860152
  C 4.805590 -1.177501 -1.989570
  C 4.487138 -1.288286 -3.441594
  C 3.188071 -2.048643 -3.800363
  C 3.013312 -2.127015 -5.306295
  O 6.183271 -1.046486 -2.052471
  H 4.157367 1.400197 1.613518
  H 3.711345 -0.248755 2.034573
  H 2.504173 0.086392 -1.631192
  H 4.822934 -0.523532 0.147171
  H 5.325442 -1.828447 -3.881290
  H 4.459247 -0.273604 -3.863594
  H 2.322779 -1.565705 -3.340041
  H 3.268653 -3.058209 -3.401714
  H 2.975794 -1.128559 -5.744218
  H 2.079560 -2.618114 -5.553596
  H 3.834138 -2.665800 -5.767620
  H 6.635012 -0.668366 -1.272164
 23
 79.755131
  H 1.563656 0.708162 0.657130
  C 2.622728 0.512841 0.590290
  C 3.401601 0.638588 1.828006
  H 2.780231 0.960071 2.650732
  C 3.070509 0.080179 -0.616773
  C 4.465799 -0.388451 -0.836430
  C 4.520353 -1.071896 -2.010348
  C 4.428303 -1.367766 -3.455663
  C 3.092119 -1.939052 -3.932901
  C 3.147135 -2.221631 -5.430866
  O 6.063094 -0.866936 -2.143517
  H 4.210460 1.366131 1.708000
  H 3.846491 -0.311443 2.118773
  H 2.393696 0.073909 -1.456209
  H 4.749614 -0.291688 0.198022
  H 5.227417 -2.075074 -3.690174
  H 4.627235 -0.442940 -3.986951
  H 2.291104 -1.225368 -3.736396
  H 2.867457 -2.864433 -3.397558
  H 3.319301 -1.302834 -5.991972
  H 2.211967 -2.657426 -5.772961
  H 3.946825 -2.925220 -5.661452
  H 6.593441 -0.436324 -1.460399
 23
 117.201062
  H 1.513919 0.612196 0.536247
  C 2.584190 0.420213 0.534895
  C 3.334883 0.586647 1.777107
  H 2.702326 0.913400 2.599931
  C 3.099449 -0.002374 -0.672906
  C 4.601361 -0.441642 -0.835146
  C 4.522002 -1.020151 -2.027292
  C 4.418302 -1.383353 -3.415857
  C 3.010322 -1.824330 -3.886050
  C 3.078561 -2.206363 -5.377826
  O 6.411875 -0.736641 -2.139972
  H 4.122289 1.334259 1.643035
  H 3.786868 -0.334154 2.114853
  H 2.456394 0.005530 -1.554162
  H 4.711264 -0.265381 0.199053
  H 5.089311 -2.216606 -3.566542
  H 4.737181 -0.568223 -4.004332
  H 2.301557 -1.011339 -3.749749
  H 2.678112 -2.685956 -3.298709
  H 3.444933 -1.347511 -5.955083
  H 2.114205 -2.494674 -5.747610
  H 3.756413 -3.066769 -5.518384
  H 6.976356 -0.317970 -1.491377
 23
 124.241398
  H 1.651293 0.696383 0.278965
  C 2.689562 0.382361 0.305506
  C 3.358458 0.417061 1.630929
  H 2.671179 0.766011 2.396897
  C 3.199027 0.036065 -0.874376
  C 4.731136 -0.458172 -0.907562
  C 4.519353 -0.972888 -2.044506
  C 4.362272 -1.368873 -3.370536
  C 2.934642 -1.786758 -3.794758
  C 2.933363 -2.252933 -5.241293
  O 6.733396 -0.519211 -1.760027
  H 4.213850 1.090912 1.619837
  H 3.697064 -0.574993 1.927654
  H 2.612670 0.120383 -1.778433
  H 4.930944 -0.296061 0.121604
  H 5.027222 -2.237651 -3.490832
  H 4.726945 -0.577421 -4.035049
  H 2.264784 -0.934355 -3.698146
  H 2.584322 -2.590607 -3.153500
  H 3.248552 -1.453756 -5.909202
  H 1.930472 -2.556100 -5.525319
  H 3.592369 -3.104418 -5.386730
  H 7.212640 -0.059261 -1.065042
 23
 109.103645
  H 1.820193 0.781937 -0.194904
  C 2.816418 0.394287 -0.024897
  C 3.255937 0.291573 1.383842
  H 2.468204 0.629214 2.051399
  C 3.513398 0.093862 -1.138837
  C 5.005241 -0.446164 -0.883529
  C 4.606880 -1.009031 -1.996024
  C 4.316232 -1.422989 -3.314596
  C 2.840717 -1.727659 -3.649342
  C 2.725936 -2.211867 -5.086724
  O 6.695319 -0.273475 -1.337935
  H 4.137332 0.902925 1.573569
  H 3.493770 -0.740338 1.642546
  H 3.043224 0.303865 -2.093264
  H 5.254443 -0.448843 0.159713
  H 4.894803 -2.345214 -3.458173
  H 4.713170 -0.688065 -4.026778
  H 2.236988 -0.827526 -3.534641
  H 2.468437 -2.494443 -2.973278
  H 3.053953 -1.446274 -5.786203
  H 1.689399 -2.452919 -5.313598
  H 3.319322 -3.107888 -5.251638
  H 7.101442 0.183158 -0.590538
 23
 67.399185
  H 2.131394 1.059478 -0.598712
  C 3.020903 0.508002 -0.314353
  C 3.139191 0.141313 1.108791
  H 2.278888 0.498710 1.668942
  C 3.936163 0.274254 -1.336404
  C 5.329850 -0.343525 -0.899038
  C 4.751687 -0.984092 -1.973415
  C 4.363530 -1.324800 -3.321044
  C 2.893313 -1.756458 -3.435984
  C 2.569058 -2.219901 -4.848722
  O 6.670972 0.035379 -1.109536
  H 4.039330 0.578683 1.562754
  H 3.202416 -0.934391 1.235874
  H 3.719145 0.750110 -2.281274
  H 5.339616 -0.639237 0.149446
  H 5.025926 -2.128784 -3.675352
  H 4.544861 -0.479158 -3.990305
  H 2.244571 -0.917158 -3.174151
  H 2.709372 -2.571603 -2.736647
  H 2.677816 -1.407284 -5.560716
  H 1.535197 -2.569362 -4.897277
  H 3.221336 -3.029024 -5.161008
  H 7.046784 0.417019 -0.298676
 23
 46.642439
  H 1.949652 0.888001 -0.153374
  C 2.893014 0.366531 -0.066395
  C 3.352534 0.103785 1.308494
  H 2.609525 0.440091 2.021121
  C 3.517576 0.121326 -1.263295
  C 5.372052 -0.247337 -1.019010
  C 4.471523 -0.943965 -1.774117
  C 4.268676 -1.458208 -3.133955
  C 2.836656 -1.563576 -3.627127
  C 2.804421 -2.187148 -5.021155
  O 6.579097 0.093274 -1.465873
  H 4.283847 0.622810 1.531292
  H 3.526212 -0.961728 1.469012
  H 2.993995 0.473947 -2.145042
  H 5.402961 -0.264712 0.069871
  H 4.723605 -2.454786 -3.171314
  H 4.855215 -0.847960 -3.832529
  H 2.364171 -0.579084 -3.679016
  H 2.258611 -2.183014 -2.937051
  H 3.383477 -1.597280 -5.726992
  H 1.783688 -2.230912 -5.384314
  H 3.202629 -3.205672 -5.008736
  H 7.071652 0.657412 -0.842250
 23
 20.807536
  H 1.723413 0.674296 0.137225
  C 2.738690 0.301170 0.079927
  C 3.468722 0.288449 1.361574
  H 2.852985 0.702854 2.151064
  C 3.123681 -0.094131 -1.165319
  C 5.393069 -0.319373 -1.104180
  C 4.255680 -0.847725 -1.669685
  C 4.195986 -1.426854 -3.036880
  C 2.843779 -1.488437 -3.743888
  C 2.986550 -2.149782 -5.109693
  O 6.590272 -0.210309 -1.602314
  H 4.380632 0.879136 1.303083
  H 3.753029 -0.730975 1.648861
  H 2.391526 0.059725 -1.950522
  H 5.363917 -0.201907 -0.022466
  H 4.582774 -2.448708 -2.956044
  H 4.918469 -0.889805 -3.658746
  H 2.439970 -0.489022 -3.896958
  H 2.136198 -2.060861 -3.142631
  H 3.657358 -1.580402 -5.748154
  H 2.023199 -2.208189 -5.603889
  H 3.380925 -3.161853 -5.017980
  H 7.214527 0.293558 -1.050852
 23
 7.377310
  H 1.576132 0.511744 0.263952
  C 2.604727 0.195716 0.151597
  C 3.453092 0.420907 1.335060
  H 2.851172 0.757291 2.171090
  C 2.903368 -0.345636 -1.067084
  C 5.320521 -0.411423 -1.089693
  C 4.114618 -0.856459 -1.622019
  C 4.128244 -1.508171 -2.959235
  C 2.868166 -1.439138 -3.812106
  C 3.075883 -2.184595 -5.127938
  O 6.451900 -0.417450 -1.728284
  H 4.200455 1.188698 1.139109
  H 3.978460 -0.485721 1.627775
  H 2.065833 -0.412353 -1.742049
  H 5.330923 -0.071325 -0.064056
  H 4.365872 -2.566579 -2.799797
  H 4.981908 -1.115862 -3.522175
  H 2.627757 -0.393766 -4.034234
  H 2.025246 -1.888049 -3.291867
  H 3.893405 -1.750001 -5.696359
  H 2.175980 -2.131507 -5.738666
  H 3.300755 -3.235866 -4.950230
  H 7.178712 0.059926 -1.284765
 23
 3.515155
  H 1.494933 0.204811 0.405018
  C 2.552187 0.095399 0.203712
  C 3.441252 0.566806 1.277706
  H 2.860813 0.928609 2.122122
  C 2.849212 -0.467538 -1.008971
  C 5.323029 -0.436107 -1.063495
  C 4.087520 -0.770597 -1.624786
  C 4.134783 -1.428610 -2.963654
  C 2.855615 -1.463208 -3.790386
  C 3.119891 -2.094222 -5.153897
  O 6.424872 -0.649610 -1.720276
  H 4.075781 1.382620 0.928131
  H 4.092663 -0.234866 1.627430
  H 1.989921 -0.728113 -1.609696
  H 5.377427 0.008884 -0.080121
  H 4.477664 -2.460270 -2.813060
  H 4.928344 -0.952607 -3.549219
  H 2.481902 -0.447434 -3.936158
  H 2.083451 -2.045802 -3.286180
  H 3.874416 -1.534597 -5.703116
  H 2.209614 -2.105283 -5.749190
  H 3.464619 -3.120710 -5.047136
  H 7.238197 -0.334385 -1.282947
 23
 3.293948
  H 1.530234 0.388932 0.340093
  C 2.577748 0.186767 0.164075
  C 3.459227 0.421382 1.318648
  H 2.877632 0.707434 2.190425
  C 2.871672 -0.269755 -1.091775
  C 5.341043 -0.433226 -1.074610
  C 4.101852 -0.615416 -1.696784
  C 4.150422 -1.186610 -3.073670
  C 2.831710 -1.567475 -3.737082
  C 3.081152 -2.186924 -5.109197
  O 6.436751 -0.792323 -1.668774
  H 4.163270 1.226995 1.110665
  H 4.036190 -0.471893 1.563487
  H 2.011162 -0.398135 -1.736167
  H 5.389466 0.018287 -0.094886
  H 4.802198 -2.064263 -3.043557
  H 4.678807 -0.473886 -3.717465
  H 2.198700 -0.689809 -3.866425
  H 2.296369 -2.287678 -3.115520
  H 3.587320 -1.485849 -5.765081
  H 2.141947 -2.464405 -5.575917
  H 3.692041 -3.080541 -5.027670
  H 7.257992 -0.619107 -1.159086
