 23
 0.000000
  C 0.984013 0.150397 0.425158
  C 2.458213 0.135464 0.387720
  C 3.232686 0.603621 1.552868
  H 2.615825 0.935278 2.378931
  C 3.067798 -0.329947 -0.771374
  C 4.443504 -0.413990 -0.980760
  C 5.123120 -0.866103 -2.107867
  C 4.626618 -1.388667 -3.410379
  C 3.137777 -1.504588 -3.699641
  H 3.002036 -1.905297 -4.698460
  O 6.444041 -0.861032 -2.095549
  H 0.592084 0.527751 1.364483
  H 0.594159 -0.855593 0.263774
  H 0.593976 0.765118 -0.387291
  H 3.885485 1.426121 1.254495
  H 3.885811 -0.196465 1.906307
  H 2.409555 -0.647287 -1.561568
  H 5.070726 -0.084684 -0.160550
  H 5.088217 -2.374850 -3.534040
  H 5.088434 -0.761630 -4.181415
  H 2.654353 -0.531748 -3.661825
  H 2.654215 -2.181489 -2.999954
  H 6.834781 -0.528600 -1.265528
 23
 -0.239874
  C 0.990722 0.275172 0.395472
  C 2.461469 0.173591 0.361632
  C 3.234998 0.495184 1.576772
  H 2.585528 0.653894 2.431284
  C 3.058845 -0.226092 -0.827555
  C 4.433915 -0.362677 -1.007280
  C 5.120472 -0.844434 -2.118577
  C 4.618476 -1.307300 -3.440612
  C 3.150549 -1.659377 -3.634428
  H 3.038828 -2.135998 -4.605865
  O 6.435359 -0.926761 -2.069256
  H 0.625117 0.682044 1.333593
  H 0.548636 -0.713026 0.248400
  H 0.627399 0.885847 -0.432294
  H 3.814390 1.406873 1.416480
  H 3.947884 -0.293531 1.816075
  H 2.396851 -0.454229 -1.645404
  H 5.059983 -0.081386 -0.169251
  H 5.237938 -2.169250 -3.706791
  H 4.896149 -0.526754 -4.159276
  H 2.518844 -0.775862 -3.636989
  H 2.808571 -2.360475 -2.878613
  H 6.838084 -0.594917 -1.244971
 23
 2.405157
  C 1.000433 0.234569 0.403044
  C 2.473995 0.210680 0.332147
  C 3.255025 0.443279 1.562925
  H 2.628104 0.381726 2.447098
  C 3.063403 -0.054475 -0.894780
  C 4.440576 -0.115300 -1.117976
  C 5.105093 -0.841471 -2.102304
  C 4.619305 -1.377427 -3.404328
  C 3.140510 -1.665121 -3.621781
  H 3.023368 -2.134787 -4.595265
  O 6.384911 -1.106828 -1.940666
  H 0.640053 0.501802 1.391028
  H 0.597867 -0.744903 0.138859
  H 0.593092 0.929276 -0.332285
  H 3.689772 1.445021 1.531392
  H 4.078779 -0.259671 1.661972
  H 2.390572 -0.276741 -1.705904
  H 5.071852 0.275998 -0.328121
  H 5.204512 -2.280646 -3.598499
  H 4.945540 -0.648023 -4.156435
  H 2.547406 -0.756341 -3.631714
  H 2.758530 -2.351047 -2.871171
  H 6.803470 -0.679170 -1.169636
 23
 8.911893
  C 1.020597 0.197859 0.428711
  C 2.492965 0.212262 0.307400
  C 3.302041 0.390534 1.527573
  H 2.744487 0.102565 2.416310
  C 3.053369 0.022912 -0.939224
  C 4.425476 0.072174 -1.230987
  C 5.061283 -0.850859 -2.060697
  C 4.620165 -1.443196 -3.352650
  C 3.139480 -1.637285 -3.642923
  H 3.038869 -2.125514 -4.613405
  O 6.277742 -1.253058 -1.753322
  H 0.693504 0.408807 1.444394
  H 0.626205 -0.776259 0.132397
  H 0.574163 0.924077 -0.253554
  H 3.554799 1.446718 1.630061
  H 4.229522 -0.165507 1.492942
  H 2.362255 -0.194421 -1.740424
  H 5.055335 0.658220 -0.576119
  H 5.151410 -2.389661 -3.462450
  H 5.033227 -0.765333 -4.111974
  H 2.611409 -0.690825 -3.701778
  H 2.675196 -2.275051 -2.896642
  H 6.723389 -0.750893 -1.044034
 23
 23.129531
  C 1.061758 0.099319 0.464220
  C 2.530073 0.176375 0.270141
  C 3.394429 0.329087 1.466681
  H 2.911827 -0.071583 2.354075
  C 3.041984 0.104864 -0.995567
  C 4.403199 0.286780 -1.368161
  C 4.949930 -0.851288 -1.971353
  C 4.593797 -1.529096 -3.243620
  C 3.141400 -1.567594 -3.693669
  H 3.079627 -2.123506 -4.626225
  O 6.093772 -1.315910 -1.503764
  H 0.792930 0.200018 1.508457
  H 0.677166 -0.853508 0.100490
  H 0.558510 0.874508 -0.112040
  H 3.563532 1.392624 1.642616
  H 4.358858 -0.145122 1.340670
  H 2.325094 -0.041338 -1.794912
  H 5.016928 1.067383 -0.941096
  H 4.998927 -2.538911 -3.195359
  H 5.174750 -0.979084 -3.993540
  H 2.753982 -0.572901 -3.878782
  H 2.521365 -2.073268 -2.964962
  H 6.543658 -0.754447 -0.842704
 23
 42.272447
  C 1.159322 0.025717 0.405481
  C 2.626171 0.119598 0.194360
  C 3.516888 0.155652 1.378454
  H 3.050423 -0.325359 2.233535
  C 3.113544 0.162736 -1.081789
  C 4.433364 0.585056 -1.511186
  C 4.777620 -0.726347 -1.869241
  C 4.497448 -1.532607 -3.097114
  C 3.094848 -1.516243 -3.690981
  H 3.097375 -2.097049 -4.609326
  O 5.781939 -1.287022 -1.206581
  H 0.904364 0.060140 1.459315
  H 0.771562 -0.901709 -0.016053
  H 0.645688 0.834798 -0.112364
  H 3.701764 1.196050 1.654534
  H 4.478513 -0.309303 1.183695
  H 2.380246 0.104367 -1.879370
  H 5.018726 1.416556 -1.171530
  H 4.797780 -2.557567 -2.873106
  H 5.199011 -1.127483 -3.833468
  H 2.778324 -0.507822 -3.940668
  H 2.377660 -1.970758 -3.014540
  H 6.260614 -0.693926 -0.595303
 23
 50.925007
  C 1.288806 -0.131911 0.332532
  C 2.740238 0.049428 0.150114
  C 3.603849 0.073370 1.332744
  H 3.162207 -0.491072 2.146330
  C 3.226617 0.202271 -1.151912
  C 4.482749 0.800665 -1.633183
  C 4.566090 -0.606573 -1.777696
  C 4.383634 -1.513061 -2.975572
  C 3.042279 -1.456976 -3.697545
  H 3.072701 -2.135667 -4.548025
  O 5.489875 -1.207741 -0.965067
  H 1.017747 -0.220654 1.380277
  H 0.950430 -1.026075 -0.194220
  H 0.741453 0.697936 -0.114374
  H 3.700873 1.104736 1.679730
  H 4.601756 -0.294834 1.128608
  H 2.461755 0.193138 -1.929643
  H 5.090327 1.633259 -1.365135
  H 4.580600 -2.525098 -2.622055
  H 5.180105 -1.231664 -3.668907
  H 2.836771 -0.457034 -4.079243
  H 2.230180 -1.776557 -3.049576
  H 5.972859 -0.583201 -0.398330
 23
 63.792384
  C 1.280146 -0.012743 0.376807
  C 2.732606 -0.001642 0.147494
  C 3.620585 -0.238879 1.281266
  H 3.101349 -0.771966 2.073698
  C 3.171829 0.269235 -1.162980
  C 4.394540 0.973333 -1.695305
  C 4.429692 -0.427884 -1.862480
  C 4.443225 -1.487751 -2.942318
  C 3.126739 -1.641465 -3.693620
  H 3.247900 -2.364292 -4.493254
  O 5.477576 -0.905704 -1.019784
  H 1.029719 -0.154014 1.423785
  H 0.812490 -0.807199 -0.207444
  H 0.830531 0.911620 0.013973
  H 3.927045 0.722301 1.700258
  H 4.525068 -0.774259 1.001240
  H 2.372291 0.487018 -1.870125
  H 4.921609 1.862780 -1.457630
  H 4.720504 -2.418641 -2.456207
  H 5.236040 -1.209554 -3.634834
  H 2.818782 -0.699725 -4.136625
  H 2.343565 -1.998104 -3.034248
  H 5.817157 -0.230205 -0.408912
 23
 82.825538
  C 1.286909 0.164457 0.434325
  C 2.719363 0.050038 0.140134
  C 3.619386 -0.415888 1.202139
  H 3.096724 -1.097670 1.881078
  C 3.126125 0.395948 -1.167721
  C 4.407233 1.030674 -1.633825
  C 4.296791 -0.330562 -1.956245
  C 4.419318 -1.490703 -2.920768
  C 3.141820 -1.775362 -3.708151
  H 3.309260 -2.613053 -4.375065
  O 5.516382 -0.781406 -1.144472
  H 1.058897 -0.069631 1.466708
  H 0.714964 -0.499952 -0.216046
  H 0.926607 1.171688 0.198328
  H 3.926101 0.440835 1.806925
  H 4.529952 -0.881025 0.814348
  H 2.313157 0.646077 -1.855723
  H 5.005372 1.854518 -1.341441
  H 4.687788 -2.364170 -2.325064
  H 5.249457 -1.261778 -3.596729
  H 2.857536 -0.916904 -4.312198
  H 2.324881 -2.027757 -3.043654
  H 5.801610 -0.162439 -0.446714
 23
 99.683539
  C 1.199606 0.159900 0.350759
  C 2.624149 0.028810 0.038725
  C 3.539761 -0.457551 1.056340
  H 3.049658 -1.150321 1.735607
  C 3.062572 0.387751 -1.249319
  C 4.467716 0.930214 -1.584060
  C 4.268942 -0.307028 -1.978366
  C 4.387941 -1.472300 -2.830951
  C 3.116771 -1.721664 -3.647015
  H 3.266387 -2.591367 -4.280959
  O 5.946499 -0.773312 -0.887165
  H 0.976051 -0.097573 1.382868
  H 0.611858 -0.480292 -0.311655
  H 0.853280 1.175337 0.138086
  H 3.854084 0.394677 1.668113
  H 4.441280 -0.893774 0.626772
  H 2.293857 0.739708 -1.938098
  H 4.972919 1.785488 -1.212378
  H 4.590604 -2.334557 -2.194525
  H 5.256284 -1.328255 -3.479744
  H 2.895757 -0.871165 -4.286762
  H 2.265579 -1.912338 -2.997006
  H 6.349906 -0.161000 -0.263085
 23
 100.849284
  C 1.286051 0.294674 0.388319
  C 2.681143 0.013270 0.028495
  C 3.573262 -0.527155 1.043926
  H 3.030192 -1.132314 1.767024
  C 3.095354 0.288262 -1.278809
  C 4.631881 0.711390 -1.602928
  C 4.220959 -0.455242 -2.022769
  C 4.252214 -1.604693 -2.892905
  C 2.956739 -1.749327 -3.708449
  H 3.043013 -2.612676 -4.357183
  O 6.061156 -0.356231 -0.659615
  H 1.080405 0.085492 1.434893
  H 0.612690 -0.301227 -0.233490
  H 1.035780 1.330114 0.167446
  H 3.994662 0.310105 1.605411
  H 4.410840 -1.076097 0.616219
  H 2.348045 0.699032 -1.944049
  H 5.096463 1.598995 -1.278603
  H 4.385078 -2.506174 -2.271311
  H 5.126578 -1.522093 -3.537713
  H 2.801621 -0.870753 -4.333378
  H 2.099212 -1.883613 -3.060070
  H 6.428110 0.294395 -0.056518
 23
 85.301151
  C 1.069335 0.335674 0.322521
  C 2.464739 -0.029810 -0.062453
  C 3.329422 -0.677856 0.966443
  H 2.750018 -1.335417 1.600252
  C 2.941934 0.273370 -1.285008
  C 5.013587 0.764092 -1.608352
  C 4.178490 -0.269722 -1.878815
  C 4.296988 -1.517994 -2.626552
  C 3.058012 -1.780315 -3.490859
  H 3.184501 -2.719190 -4.021544
  O 6.244056 -0.172699 -1.243485
  H 0.855825 0.081478 1.350619
  H 0.359091 -0.186452 -0.315472
  H 0.892231 1.396075 0.166018
  H 3.745713 0.088126 1.609976
  H 4.153441 -1.227414 0.524625
  H 2.305306 0.830817 -1.964213
  H 5.692744 1.553273 -1.229580
  H 4.404964 -2.354643 -1.918868
  H 5.207065 -1.490980 -3.225872
  H 2.930557 -0.994689 -4.218188
  H 2.163028 -1.842434 -2.880902
  H 6.977159 0.308566 -0.801611
 23
 27.104762
  C 1.064269 0.352391 0.333652
  C 2.453935 -0.013103 -0.050210
  C 3.341840 -0.560862 1.012176
  H 2.774201 -1.126828 1.744958
  C 2.878575 0.190296 -1.317790
  C 5.273620 0.524673 -1.517621
  C 4.160726 -0.223444 -1.842204
  C 4.255546 -1.463037 -2.644677
  C 3.021171 -1.773332 -3.487897
  H 3.140328 -2.737460 -3.972785
  O 6.427025 -0.165015 -1.602549
  H 0.887136 0.190386 1.388580
  H 0.350379 -0.246759 -0.227481
  H 0.855030 1.393746 0.088970
  H 3.793318 0.279107 1.540759
  H 4.136940 -1.181454 0.616563
  H 2.164825 0.582842 -2.031151
  H 5.409763 1.231941 -0.707896
  H 4.374778 -2.271990 -1.913243
  H 5.161933 -1.451249 -3.259176
  H 2.893201 -1.015986 -4.263117
  H 2.122101 -1.803474 -2.876146
  H 7.215723 0.307639 -1.282244
 23
 4.504346
  C 1.050267 0.371357 0.349694
  C 2.463753 0.013579 0.093271
  C 3.364890 -0.108307 1.258729
  H 2.802663 -0.347559 2.157744
  C 2.844236 -0.232894 -1.203700
  C 5.286123 -0.017501 -1.170871
  C 4.126489 -0.558111 -1.707571
  C 4.274386 -1.442463 -2.907429
  C 3.030253 -1.643426 -3.759873
  H 3.275263 -2.277110 -4.608262
  O 6.457848 -0.390289 -1.616652
  H 0.876644 0.629454 1.389172
  H 0.403214 -0.467782 0.091453
  H 0.738763 1.198973 -0.286988
  H 3.848412 0.852846 1.441270
  H 4.136552 -0.856966 1.104121
  H 2.053580 -0.210870 -1.941922
  H 5.239320 0.720172 -0.380927
  H 4.598269 -2.417880 -2.526120
  H 5.095428 -1.073653 -3.526970
  H 2.666787 -0.694865 -4.147948
  H 2.235217 -2.128727 -3.200013
  H 7.216797 0.048030 -1.192796
 23
 5.252087
  C 1.023172 0.126869 0.356307
  C 2.482906 0.010003 0.139926
  C 3.376181 0.339527 1.270615
  H 2.802955 0.586442 2.159062
  C 2.885820 -0.402036 -1.117576
  C 5.367595 -0.317258 -1.064477
  C 4.156152 -0.621609 -1.680731
  C 4.280955 -1.284883 -3.021454
  C 3.007206 -1.528712 -3.815822
  H 3.260112 -2.050763 -4.734496
  O 6.484881 -0.649450 -1.661748
  H 0.777459 0.448915 1.363239
  H 0.531689 -0.827346 0.164640
  H 0.589578 0.831754 -0.354310
  H 3.998550 1.197618 1.019898
  H 4.027393 -0.501322 1.505635
  H 2.068496 -0.599628 -1.796932
  H 5.430773 0.047023 -0.051439
  H 4.781516 -2.245148 -2.852209
  H 4.978538 -0.700557 -3.629573
  H 2.524449 -0.592735 -4.084840
  H 2.302756 -2.150379 -3.268689
  H 7.288824 -0.473699 -1.138937
