 32
 0.000000
  C 0.995919 0.133184 0.382278
  C 2.474959 0.139601 0.397843
  C 3.241344 0.613250 1.576887
  C 2.445617 1.098677 2.785688
  C 3.377959 1.548692 3.905838
  C 3.094363 -0.323385 -0.755027
  C 4.472149 -0.412359 -0.976867
  C 5.131358 -0.866652 -2.109178
  C 4.616701 -1.387686 -3.407683
  C 3.123042 -1.500963 -3.690680
  C 2.885980 -2.062364 -5.089851
  O 6.456643 -0.870279 -2.118454
  H 0.547709 0.501033 1.298355
  H 0.631306 -0.881026 0.213363
  H 0.630991 0.748750 -0.441136
  H 3.897308 1.429116 1.252057
  H 3.897520 -0.200470 1.906587
  H 1.806897 0.298207 3.164382
  H 1.806711 1.938605 2.505543
  H 4.013999 0.730430 4.237557
  H 2.799162 1.891828 4.760395
  H 4.013784 2.369219 3.579324
  H 2.434931 -0.640573 -1.544794
  H 5.098162 -0.082698 -0.155609
  H 5.066315 -2.378812 -3.537783
  H 5.066609 -0.761636 -4.186830
  H 2.650971 -0.519072 -3.634450
  H 2.650588 -2.171419 -2.971371
  H 3.320398 -1.416427 -5.849794
  H 1.818747 -2.140050 -5.284078
  H 3.320021 -3.054609 -5.192431
  H 6.842557 -0.536863 -1.286960
 32
 0.186543
  C 0.928885 0.110184 0.439580
  C 2.402915 0.153242 0.398633
  C 3.202097 0.670992 1.534603
  C 2.451232 1.077914 2.799682
  C 3.430518 1.541120 3.872992
  C 3.010845 -0.326451 -0.757678
  C 4.385957 -0.373103 -0.978703
  C 5.073175 -0.962251 -2.036697
  C 4.597931 -1.402201 -3.376692
  C 3.113048 -1.559220 -3.680573
  C 2.927978 -2.029001 -5.121326
  O 6.379728 -1.109089 -1.941947
  H 0.513931 0.473330 1.372459
  H 0.582861 -0.910204 0.269447
  H 0.520372 0.698890 -0.383705
  H 3.769025 1.540073 1.181604
  H 3.948935 -0.080134 1.809562
  H 1.880854 0.231741 3.187751
  H 1.758337 1.893522 2.585372
  H 4.132190 0.750617 4.127580
  H 2.896807 1.818844 4.777601
  H 3.994654 2.407746 3.537352
  H 2.352142 -0.711279 -1.514947
  H 5.017767 0.018914 -0.191173
  H 5.113549 -2.342175 -3.596019
  H 5.019986 -0.678291 -4.084546
  H 2.597645 -0.605617 -3.564048
  H 2.668832 -2.300630 -3.014614
  H 3.340598 -1.306657 -5.822164
  H 1.871429 -2.151970 -5.346438
  H 3.421151 -2.984596 -5.286228
  H 6.768266 -0.805078 -1.100285
 32
 4.321247
  C 0.897823 0.197421 0.441845
  C 2.372416 0.247145 0.364404
  C 3.202242 0.694266 1.509865
  C 2.486935 0.991642 2.825702
  C 3.494332 1.387722 3.901666
  C 2.948822 -0.150043 -0.833912
  C 4.309792 -0.079159 -1.137212
  C 5.000971 -0.911816 -2.015132
  C 4.606114 -1.470905 -3.336662
  C 3.129929 -1.594413 -3.698170
  C 2.982591 -2.142487 -5.114940
  O 6.296607 -1.072516 -1.826258
  H 0.508268 0.524848 1.397452
  H 0.547737 -0.818381 0.250175
  H 0.467747 0.812115 -0.350416
  H 3.738005 1.601077 1.200988
  H 3.973416 -0.057753 1.704140
  H 1.941088 0.109391 3.164172
  H 1.776544 1.809749 2.696838
  H 4.215774 0.591555 4.072963
  H 2.985400 1.586335 4.841941
  H 4.035049 2.287814 3.616495
  H 2.287623 -0.592311 -1.562396
  H 4.935675 0.452838 -0.430196
  H 5.094415 -2.444491 -3.435116
  H 5.089953 -0.817943 -4.072643
  H 2.647142 -0.618112 -3.653871
  H 2.632238 -2.275148 -3.006286
  H 3.448495 -1.477908 -5.839095
  H 1.931853 -2.242390 -5.375720
  H 3.446795 -3.122331 -5.202847
  H 6.645207 -0.704270 -0.991645
 32
 13.231572
  C 0.849872 0.354696 0.450716
  C 2.324653 0.391972 0.323314
  C 3.202485 0.731994 1.467475
  C 2.548142 0.879325 2.836251
  C 3.605744 1.101635 3.909214
  C 2.842138 0.078123 -0.914816
  C 4.182422 0.227485 -1.304284
  C 4.871968 -0.757078 -2.001208
  C 4.614287 -1.493650 -3.270361
  C 3.162914 -1.668722 -3.709786
  C 3.096496 -2.345626 -5.073611
  O 6.171883 -0.826404 -1.741838
  H 0.500675 0.650341 1.431897
  H 0.481128 -0.651296 0.241134
  H 0.398613 1.000725 -0.300337
  H 3.713454 1.672774 1.225404
  H 3.988664 -0.021299 1.547860
  H 1.983879 -0.019272 3.080881
  H 1.865858 1.727861 2.841407
  H 4.293143 0.262135 3.958856
  H 3.138558 1.208673 4.883068
  H 4.177743 2.004433 3.710656
  H 2.162654 -0.362046 -1.629648
  H 4.779076 0.961842 -0.778113
  H 5.106290 -2.466143 -3.195501
  H 5.152042 -0.924020 -4.038199
  H 2.673291 -0.696743 -3.777164
  H 2.628583 -2.282516 -2.984024
  H 3.617450 -1.756572 -5.824768
  H 2.064796 -2.459147 -5.391029
  H 3.550400 -3.333292 -5.039382
  H 6.455040 -0.442275 -0.892639
 32
 30.859672
  C 0.810993 0.430024 0.487526
  C 2.280624 0.506872 0.297987
  C 3.214700 0.708419 1.438608
  C 2.608291 0.799011 2.837386
  C 3.709544 0.963421 3.886114
  C 2.731177 0.405694 -1.006014
  C 4.083382 0.545610 -1.443631
  C 4.639218 -0.603207 -1.989885
  C 4.564762 -1.422059 -3.233577
  C 3.161641 -1.741283 -3.758307
  C 3.241422 -2.518031 -5.067312
  O 5.975980 -0.657409 -1.690853
  H 0.508399 0.556206 1.521269
  H 0.437349 -0.534461 0.134760
  H 0.318498 1.184674 -0.125405
  H 3.754394 1.643995 1.246224
  H 3.966680 -0.085901 1.437569
  H 2.046983 -0.113338 3.062168
  H 1.928594 1.653022 2.905563
  H 4.410683 0.134456 3.849890
  H 3.278119 0.993182 4.885422
  H 4.260633 1.889817 3.732156
  H 2.000009 0.154869 -1.761873
  H 4.708192 1.192764 -0.844196
  H 5.116319 -2.343320 -3.057062
  H 5.123058 -0.853163 -3.984745
  H 2.601451 -0.822497 -3.919018
  H 2.634547 -2.351630 -3.022184
  H 3.734900 -1.929067 -5.836982
  H 2.245772 -2.770061 -5.421211
  H 3.797164 -3.439677 -4.933967
  H 6.232515 -0.312249 -0.816706
 32
 51.648716
  C 0.830493 0.306461 0.579882
  C 2.283984 0.443601 0.347467
  C 3.236495 0.768252 1.433240
  C 2.685249 0.846928 2.853773
  C 3.814305 1.059132 3.858510
  C 2.698054 0.345291 -0.968249
  C 4.030969 0.641816 -1.449913
  C 4.404090 -0.564108 -1.994962
  C 4.486086 -1.433636 -3.204905
  C 3.163643 -1.709366 -3.926337
  C 3.405423 -2.473315 -5.224275
  O 5.706467 -0.791739 -1.525770
  H 0.555243 0.473386 1.614101
  H 0.508693 -0.701298 0.309283
  H 0.275220 0.984272 -0.060945
  H 3.737096 1.713502 1.195432
  H 4.032989 0.015522 1.436315
  H 2.160439 -0.077603 3.102073
  H 1.978378 1.675147 2.942857
  H 4.545901 0.252697 3.792474
  H 3.422626 1.062770 4.873697
  H 4.327075 2.002073 3.684025
  H 1.952725 0.094580 -1.713647
  H 4.630004 1.241063 -0.776335
  H 4.932601 -2.375901 -2.895684
  H 5.184497 -0.929461 -3.876784
  H 2.662019 -0.767991 -4.149272
  H 2.514159 -2.302269 -3.278740
  H 4.016796 -1.885435 -5.905977
  H 2.462178 -2.679059 -5.723923
  H 3.908969 -3.414924 -5.033784
  H 5.900250 -0.467944 -0.632907
 32
 77.298970
  C 0.885976 0.395538 0.468867
  C 2.345422 0.472438 0.280718
  C 3.275505 0.731218 1.394049
  C 2.707630 0.655465 2.809052
  C 3.812372 0.884094 3.835397
  C 2.774039 0.440799 -1.042075
  C 4.104360 0.846847 -1.516435
  C 4.283684 -0.435936 -1.968303
  C 4.403035 -1.413300 -3.083690
  C 3.109235 -1.727224 -3.844784
  C 3.409286 -2.594003 -5.059457
  O 5.707939 -0.643707 -1.548303
  H 0.593801 0.510229 1.506274
  H 0.507438 -0.555011 0.089594
  H 0.389654 1.176822 -0.114603
  H 3.672992 1.747619 1.256130
  H 4.129013 0.049726 1.320453
  H 2.251105 -0.319327 2.986387
  H 1.953645 1.427798 2.947061
  H 4.595368 0.133867 3.740183
  H 3.411973 0.817142 4.842017
  H 4.259505 1.864841 3.714748
  H 2.000709 0.359508 -1.798399
  H 4.672935 1.500909 -0.878497
  H 4.866250 -2.323169 -2.706244
  H 5.114786 -0.940684 -3.769025
  H 2.659209 -0.798794 -4.193454
  H 2.402719 -2.249265 -3.200142
  H 4.090960 -2.096699 -5.736134
  H 2.494437 -2.822310 -5.595203
  H 3.852597 -3.535905 -4.755883
  H 5.947353 -0.332680 -0.663518
 32
 103.261199
  C 0.997341 0.194604 0.323767
  C 2.456602 0.336636 0.197328
  C 3.325310 0.672695 1.343817
  C 2.687860 0.678779 2.733655
  C 3.742383 0.970061 3.797770
  C 2.980253 0.270339 -1.103886
  C 4.338463 0.880648 -1.452843
  C 4.241913 -0.374589 -1.909384
  C 4.317522 -1.341184 -3.012690
  C 3.007139 -1.529498 -3.793544
  C 3.231291 -2.476966 -4.967638
  O 5.898268 -0.753621 -1.384091
  H 0.649785 0.343430 1.338139
  H 0.697392 -0.800481 -0.009236
  H 0.483257 0.899044 -0.329562
  H 3.759798 1.665167 1.175680
  H 4.167208 -0.030720 1.352443
  H 2.235414 -0.292180 2.943608
  H 1.910769 1.442045 2.792150
  H 4.543512 0.235000 3.769019
  H 3.296231 0.939570 4.789017
  H 4.174111 1.959285 3.659733
  H 2.237946 0.124010 -1.884025
  H 4.716581 1.635796 -0.808003
  H 4.630347 -2.302198 -2.602633
  H 5.115282 -0.992255 -3.671547
  H 2.661262 -0.568356 -4.178335
  H 2.245273 -1.953401 -3.137926
  H 3.972022 -2.079744 -5.656496
  H 2.302025 -2.627480 -5.512702
  H 3.572379 -3.449870 -4.619199
  H 6.197024 -0.465970 -0.512863
 32
 116.503507
  C 0.980394 0.187114 0.314034
  C 2.445779 0.301025 0.182945
  C 3.306785 0.660793 1.330663
  C 2.658886 0.699259 2.714978
  C 3.707131 1.016087 3.778161
  C 2.968660 0.165101 -1.095297
  C 4.426289 0.713863 -1.393844
  C 4.221209 -0.461684 -1.895528
  C 4.263583 -1.396762 -2.985035
  C 2.960654 -1.495192 -3.798454
  C 3.166707 -2.407007 -5.001718
  O 6.327050 -0.667878 -1.319114
  H 0.638847 0.370389 1.324979
  H 0.664211 -0.810722 0.008404
  H 0.475590 0.886058 -0.351825
  H 3.733420 1.653277 1.144678
  H 4.151068 -0.037735 1.358192
  H 2.206806 -0.265973 2.946758
  H 1.885655 1.467046 2.753186
  H 4.504893 0.276512 3.773395
  H 3.255077 1.013431 4.766654
  H 4.146832 1.997305 3.614015
  H 2.219596 0.053448 -1.878458
  H 4.782712 1.458897 -0.727828
  H 4.516162 -2.386708 -2.594406
  H 5.094429 -1.079040 -3.620848
  H 2.671771 -0.503452 -4.150490
  H 2.164274 -1.907748 -3.177593
  H 3.940535 -2.017558 -5.658751
  H 2.245756 -2.482731 -5.574604
  H 3.454313 -3.407716 -4.688776
  H 6.725508 -0.404948 -0.484602
 32
 120.832128
  C 1.037679 -0.260727 0.452963
  C 2.473066 0.052170 0.234764
  C 3.328256 0.555537 1.341887
  C 2.741819 0.533409 2.753603
  C 3.781485 1.016336 3.761465
  C 2.936729 -0.061383 -1.049167
  C 4.433171 0.697976 -1.368874
  C 4.174475 -0.425960 -1.937351
  C 4.221701 -1.260617 -3.107886
  C 2.888820 -1.379854 -3.871743
  C 3.093064 -2.171275 -5.155343
  O 6.376778 0.069991 -1.121323
  H 0.736116 -0.105691 1.480871
  H 0.845445 -1.298264 0.183414
  H 0.404445 0.353961 -0.184407
  H 3.600416 1.592822 1.122324
  H 4.258802 -0.022904 1.342772
  H 2.440095 -0.479617 3.022399
  H 1.871687 1.187611 2.815823
  H 4.674187 0.395414 3.729906
  H 3.378756 0.971933 4.770127
  H 4.070909 2.045729 3.561250
  H 2.159826 -0.296832 -1.780930
  H 4.729943 1.492880 -0.734730
  H 4.548975 -2.264701 -2.821640
  H 4.994616 -0.836246 -3.753503
  H 2.524134 -0.383060 -4.122271
  H 2.152248 -1.896733 -3.255948
  H 3.806404 -1.677711 -5.810586
  H 2.150946 -2.258718 -5.691068
  H 3.456464 -3.173679 -4.944269
  H 6.737204 0.451141 -0.311312
 32
 94.196253
  C 0.965065 -0.360501 0.505456
  C 2.406652 -0.083352 0.236860
  C 3.288095 0.482889 1.299922
  C 2.733192 0.556171 2.726602
  C 3.790467 1.115680 3.669221
  C 2.819611 -0.347790 -1.044606
  C 4.728562 0.638316 -1.240202
  C 4.122635 -0.478826 -1.731606
  C 4.165659 -1.264780 -2.971844
  C 2.888641 -1.298200 -3.817184
  C 3.161672 -2.043882 -5.121316
  O 6.173000 0.018939 -1.168725
  H 0.673125 -0.122099 1.522643
  H 0.751504 -1.408777 0.305328
  H 0.333902 0.211113 -0.180580
  H 3.532406 1.511199 0.998508
  H 4.228449 -0.080250 1.317333
  H 2.448325 -0.437914 3.071313
  H 1.863246 1.215005 2.761098
  H 4.687121 0.499241 3.661728
  H 3.412832 1.141089 4.688937
  H 4.064252 2.128510 3.386851
  H 2.025490 -0.702603 -1.693917
  H 5.217982 1.416357 -0.679275
  H 4.436709 -2.293016 -2.723896
  H 4.979827 -0.834567 -3.578024
  H 2.589770 -0.269812 -4.053706
  H 2.084212 -1.805777 -3.288261
  H 3.951224 -1.557981 -5.692775
  H 2.264543 -2.054486 -5.737337
  H 3.452400 -3.074934 -4.933171
  H 6.699109 0.429568 -0.460137
 32
 52.322475
  C 0.869952 -0.327759 0.587042
  C 2.270947 -0.017617 0.226921
  C 3.201191 0.555891 1.227183
  C 2.747975 0.586168 2.685503
  C 3.881372 1.038059 3.597197
  C 2.658136 -0.402273 -1.035643
  C 4.795993 0.629029 -1.268761
  C 3.948371 -0.406679 -1.627194
  C 4.154462 -1.202826 -2.866528
  C 2.952186 -1.326055 -3.806727
  C 3.355017 -2.029147 -5.102224
  O 6.075301 -0.001361 -1.399021
  H 0.638200 -0.072700 1.614553
  H 0.677083 -1.399015 0.449739
  H 0.184903 0.213289 -0.058805
  H 3.492583 1.557971 0.914353
  H 4.109232 -0.065704 1.201452
  H 2.426203 -0.413688 2.988457
  H 1.893741 1.251741 2.818442
  H 4.753566 0.398283 3.484151
  H 3.568562 0.997501 4.635228
  H 4.172443 2.062775 3.375626
  H 1.842370 -0.807663 -1.619275
  H 5.217965 1.305064 -0.547813
  H 4.422156 -2.217016 -2.550125
  H 5.008561 -0.794573 -3.408806
  H 2.539786 -0.342642 -4.027250
  H 2.165602 -1.917269 -3.341586
  H 4.111643 -1.452533 -5.645883
  H 2.489364 -2.142689 -5.750643
  H 3.757350 -3.013907 -4.899696
  H 6.802395 0.402142 -0.890306
 32
 16.658820
  C 0.892625 -0.466182 0.665862
  C 2.306395 -0.198491 0.322375
  C 3.212833 0.440451 1.306398
  C 2.707338 0.608620 2.739226
  C 3.777609 1.280655 3.594183
  C 2.694728 -0.570887 -0.951911
  C 4.968813 0.351055 -1.231929
  C 3.958432 -0.540634 -1.582269
  C 4.120710 -1.296906 -2.869654
  C 2.956292 -1.203671 -3.862390
  C 3.335153 -1.892699 -5.170453
  O 6.180359 -0.006881 -1.641348
  H 0.643609 -0.207112 1.686962
  H 0.667338 -1.519889 0.503400
  H 0.235532 0.088081 -0.004432
  H 3.421224 1.445738 0.926680
  H 4.163463 -0.099618 1.329069
  H 2.470091 -0.364644 3.172890
  H 1.816988 1.235339 2.757118
  H 4.686407 0.683906 3.622154
  H 3.425201 1.398183 4.615610
  H 4.021301 2.267963 3.209085
  H 1.892781 -0.995116 -1.539331
  H 5.072184 0.950819 -0.340509
  H 4.302305 -2.348918 -2.636581
  H 5.018924 -0.928013 -3.368593
  H 2.742915 -0.151677 -4.064488
  H 2.060298 -1.683972 -3.469208
  H 4.210233 -1.428517 -5.619889
  H 2.513468 -1.832743 -5.881669
  H 3.554450 -2.944630 -5.001505
  H 6.932977 0.388443 -1.184472
 32
 5.183181
  C 0.935411 -0.508530 0.656411
  C 2.350701 -0.219041 0.335597
  C 3.218090 0.475254 1.318115
  C 2.653861 0.720098 2.718543
  C 3.710466 1.373646 3.605029
  C 2.779888 -0.663958 -0.904956
  C 5.108801 0.154408 -1.178876
  C 4.007726 -0.589662 -1.592315
  C 4.139757 -1.332771 -2.892016
  C 2.969251 -1.163695 -3.868667
  C 3.305715 -1.793535 -5.216147
  O 6.227850 0.111224 -1.853251
  H 0.645286 -0.189700 1.648416
  H 0.740758 -1.576227 0.556272
  H 0.287137 -0.021201 -0.073247
  H 3.487159 1.451315 0.897815
  H 4.145483 -0.096245 1.426076
  H 2.351162 -0.224645 3.172947
  H 1.785480 1.377926 2.673087
  H 4.594161 0.744856 3.686757
  H 3.318255 1.530468 4.606684
  H 4.008757 2.341087 3.207552
  H 2.017519 -1.191336 -1.462036
  H 5.084911 0.752093 -0.279372
  H 4.258679 -2.398483 -2.671846
  H 5.050636 -1.005540 -3.393083
  H 2.766257 -0.100342 -4.009397
  H 2.063960 -1.636606 -3.486610
  H 4.186097 -1.327990 -5.655368
  H 2.476799 -1.670453 -5.910358
  H 3.501175 -2.858665 -5.106659
  H 6.965777 0.612610 -1.456346
 32
 5.492231
  C 0.997009 -0.639094 0.669530
  C 2.418734 -0.360888 0.364914
  C 3.244870 0.446773 1.294565
  C 2.617477 0.866967 2.623305
  C 3.632550 1.635547 3.465096
  C 2.878515 -0.859472 -0.843723
  C 5.271106 -0.189515 -1.032835
  C 4.097717 -0.744596 -1.539084
  C 4.177952 -1.254987 -2.952355
  C 2.907527 -1.127243 -3.797780
  C 3.182059 -1.562734 -5.235014
  O 6.350324 -0.175555 -1.771157
  H 0.666776 -0.211653 1.607449
  H 0.825411 -1.716299 0.692721
  H 0.366219 -0.258143 -0.134605
  H 3.556146 1.355608 0.767368
  H 4.153482 -0.115904 1.524990
  H 2.293394 -0.012558 3.181796
  H 1.752393 1.509420 2.453080
  H 4.500237 1.019731 3.689658
  H 3.186561 1.940846 4.408371
  H 3.967663 2.532131 2.948246
  H 2.137131 -1.424328 -1.389547
  H 5.356381 0.190260 -0.026527
  H 4.473569 -2.309881 -2.928854
  H 4.981860 -0.722216 -3.464608
  H 2.571899 -0.088376 -3.797815
  H 2.099510 -1.746149 -3.408299
  H 3.972788 -0.963377 -5.680561
  H 2.288587 -1.447896 -5.843903
  H 3.483950 -2.607022 -5.271207
  H 7.130283 0.224011 -1.343983
