 26
 0.000000
  C 0.970016 0.140089 0.399806
  C 2.445866 0.138362 0.395244
  C 3.233799 0.606720 1.560752
  C 2.457813 1.095984 2.778688
  H 3.136977 1.409700 3.559476
  C 3.062275 -0.326163 -0.761247
  C 4.439433 -0.410117 -0.970729
  C 5.117188 -0.861465 -2.096098
  C 4.622197 -1.384102 -3.399048
  C 3.133101 -1.501911 -3.693006
  H 2.984348 -1.900686 -4.687231
  O 6.439753 -0.857238 -2.085972
  H 0.538292 0.510659 1.322083
  H 0.598124 -0.871439 0.231616
  H 0.597914 0.753941 -0.421482
  H 3.890464 1.417350 1.225599
  H 3.890624 -0.210318 1.879580
  H 1.823145 0.303256 3.171442
  H 1.823061 1.940048 2.513886
  H 2.408474 -0.644425 -1.553859
  H 5.059367 -0.078975 -0.145918
  H 5.079998 -2.371923 -3.523592
  H 5.080137 -0.756301 -4.171744
  H 2.654742 -0.525864 -3.645982
  H 2.654615 -2.174850 -2.984558
  H 6.819311 -0.523070 -1.251640
 26
 -0.209265
  C 0.969362 0.329141 0.329617
  C 2.439356 0.221775 0.355019
  C 3.225000 0.532979 1.573054
  C 2.446335 0.957099 2.811291
  H 3.141518 1.149669 3.624666
  C 3.056864 -0.197708 -0.816147
  C 4.432300 -0.315498 -1.002029
  C 5.113692 -0.758886 -2.132842
  C 4.615062 -1.406702 -3.378257
  C 3.130636 -1.647782 -3.599171
  H 3.008860 -2.192095 -4.532683
  O 6.430392 -0.649355 -2.169709
  H 0.547886 0.665233 1.268315
  H 0.532071 -0.636511 0.070994
  H 0.662270 1.012688 -0.463432
  H 3.939155 1.326097 1.325300
  H 3.828061 -0.345889 1.825338
  H 1.762687 0.177288 3.137393
  H 1.883049 1.869924 2.634255
  H 2.409240 -0.417142 -1.647003
  H 5.065375 0.004239 -0.182868
  H 5.142242 -2.366571 -3.432409
  H 5.017296 -0.822207 -4.212856
  H 2.583305 -0.714620 -3.695655
  H 2.702870 -2.253393 -2.805514
  H 6.830713 -0.250534 -1.374158
 26
 0.543653
  C 1.004854 0.553586 0.237752
  C 2.455089 0.297263 0.311354
  C 3.205125 0.385337 1.588017
  C 2.407204 0.730428 2.838365
  H 3.074841 0.752140 3.696170
  C 3.095787 -0.064775 -0.867503
  C 4.470089 -0.220000 -1.035020
  C 5.115946 -0.646877 -2.192107
  C 4.598985 -1.460911 -3.326209
  C 3.132875 -1.855642 -3.400384
  H 3.008454 -2.547826 -4.229610
  O 6.404853 -0.407735 -2.336576
  H 0.577275 0.861087 1.183573
  H 0.488387 -0.343693 -0.107270
  H 0.800749 1.317657 -0.513500
  H 3.998223 1.131652 1.465765
  H 3.717355 -0.568847 1.750592
  H 1.638103 -0.011835 3.036360
  H 1.942190 1.709782 2.757087
  H 2.490038 -0.166359 -1.750295
  H 5.114866 0.096895 -0.224868
  H 5.207184 -2.373623 -3.302223
  H 4.894335 -0.954874 -4.251038
  H 2.492198 -1.001821 -3.598698
  H 2.809263 -2.358535 -2.493703
  H 6.820482 0.064342 -1.591073
 26
 3.261048
  C 1.098694 0.897099 0.125885
  C 2.486037 0.410598 0.245011
  C 3.147806 0.218325 1.559171
  C 2.314792 0.506258 2.800977
  H 2.911728 0.310126 3.688286
  C 3.155527 0.081872 -0.924587
  C 4.520205 -0.156789 -1.062376
  C 5.104473 -0.547484 -2.267768
  C 4.575502 -1.536155 -3.247018
  C 3.159551 -2.070281 -3.096783
  H 3.018093 -2.874684 -3.813977
  O 6.317579 -0.153121 -2.587531
  H 0.676823 1.209384 1.072949
  H 0.467755 0.111243 -0.293292
  H 1.052416 1.725385 -0.581377
  H 4.042732 0.850823 1.584846
  H 3.514054 -0.812061 1.609216
  H 1.435840 -0.131777 2.844797
  H 2.000024 1.546251 2.838573
  H 2.611798 0.105048 -1.855585
  H 5.186736 0.117834 -0.254795
  H 5.276671 -2.376340 -3.166367
  H 4.725430 -1.137756 -4.254827
  H 2.412100 -1.314278 -3.311939
  H 2.990156 -2.470721 -2.101407
  H 6.758011 0.406708 -1.920805
 26
 9.491640
  C 1.254684 1.260041 0.074100
  C 2.525932 0.522402 0.202601
  C 3.053683 0.068297 1.511538
  C 2.192388 0.352728 2.733647
  H 2.675309 -0.056878 3.617467
  C 3.204057 0.185681 -0.961273
  C 4.533395 -0.195862 -1.073280
  C 5.050354 -0.504891 -2.348218
  C 4.583305 -1.634759 -3.191142
  C 3.258756 -2.287581 -2.827646
  H 3.107619 -3.154915 -3.461629
  O 6.100504 0.105302 -2.835686
  H 0.847796 1.562385 1.029704
  H 0.515362 0.638172 -0.432221
  H 1.392796 2.139862 -0.553537
  H 4.039991 0.521189 1.663500
  H 3.229558 -1.008802 1.446285
  H 1.214758 -0.111705 2.642856
  H 2.064058 1.420311 2.894031
  H 2.692715 0.277271 -1.908767
  H 5.227258 -0.017014 -0.262336
  H 5.384073 -2.377940 -3.076102
  H 4.602664 -1.343265 -4.244486
  H 2.422052 -1.615971 -2.983992
  H 3.254449 -2.617214 -1.794558
  H 6.516908 0.764427 -2.244160
 26
 18.736573
  C 1.448553 1.566540 0.032670
  C 2.564360 0.607807 0.159822
  C 2.914588 -0.060103 1.439441
  C 2.039993 0.260426 2.643696
  H 2.409191 -0.281143 3.511018
  C 3.269593 0.263078 -0.986478
  C 4.575788 -0.185772 -1.089416
  C 4.957238 -0.466336 -2.430127
  C 4.547517 -1.707271 -3.136131
  C 3.372013 -2.466002 -2.530748
  H 3.214165 -3.386269 -3.086171
  O 5.877174 0.221164 -3.047607
  H 1.034636 1.850459 0.991881
  H 0.647768 1.130415 -0.566585
  H 1.776993 2.459204 -0.496332
  H 3.950109 0.205960 1.687155
  H 2.926938 -1.140686 1.273759
  H 1.009470 -0.041515 2.473932
  H 2.063430 1.320544 2.884496
  H 2.816045 0.404143 -1.964333
  H 5.297353 -0.131483 -0.290092
  H 5.447719 -2.333028 -3.111213
  H 4.354229 -1.481607 -4.189635
  H 2.456027 -1.885073 -2.582760
  H 3.563690 -2.721606 -1.492499
  H 6.378027 0.852397 -2.499487
 26
 30.869197
  C 1.700936 1.780937 0.007445
  C 2.723143 0.728363 0.165732
  C 2.886864 -0.064063 1.414846
  C 1.836613 0.169132 2.487970
  H 2.020439 -0.499033 3.317591
  C 3.452032 0.341971 -0.954374
  C 4.712944 -0.220240 -1.052607
  C 4.904468 -0.524709 -2.445739
  C 4.451640 -1.801421 -3.050861
  C 3.361481 -2.543717 -2.293076
  H 3.256140 -3.546077 -2.699987
  O 5.621411 0.210820 -3.238740
  H 1.302745 2.111701 0.965968
  H 0.869439 1.419080 -0.600588
  H 2.121765 2.635471 -0.512990
  H 3.880341 0.135174 1.833652
  H 2.872697 -1.123197 1.130964
  H 0.841090 -0.038947 2.108770
  H 1.865989 1.183243 2.867823
  H 3.018374 0.394081 -1.958953
  H 5.505542 -0.164080 -0.325128
  H 5.361276 -2.405098 -3.030812
  H 4.194441 -1.664077 -4.109308
  H 2.406759 -2.039786 -2.380480
  H 3.615347 -2.632491 -1.239913
  H 6.089245 0.967980 -2.825106
 26
 48.629531
  C 1.901746 1.856354 -0.077634
  C 2.787520 0.696597 0.175325
  C 2.740835 -0.137667 1.425284
  C 1.698169 0.273628 2.460821
  H 1.753363 -0.404082 3.310371
  C 3.620581 0.252409 -0.843943
  C 4.853453 -0.294700 -1.009440
  C 4.713582 -0.460314 -2.465536
  C 4.389689 -1.793092 -3.034868
  C 3.496041 -2.670271 -2.169228
  H 3.352019 -3.638667 -2.657009
  O 5.219559 0.376838 -3.319663
  H 1.343181 2.138971 0.811915
  H 1.186385 1.644130 -0.872639
  H 2.493701 2.710304 -0.406936
  H 3.733376 -0.118842 1.896334
  H 2.571327 -1.185526 1.139587
  H 0.685455 0.220872 2.050028
  H 1.879314 1.275666 2.831208
  H 3.197311 0.253119 -1.919368
  H 5.712753 -0.365593 -0.372640
  H 5.361598 -2.273602 -3.182887
  H 3.937081 -1.653910 -4.023872
  H 2.519529 -2.216772 -2.032251
  H 3.943005 -2.838982 -1.191929
  H 5.750497 1.111525 -2.951745
 26
 58.803150
  C 2.055588 1.834970 -0.098921
  C 2.921175 0.681231 0.230376
  C 2.738361 -0.163523 1.455249
  C 1.544326 0.192486 2.328794
  H 1.510276 -0.490569 3.173824
  C 3.856517 0.246824 -0.661636
  C 5.023257 -0.269549 -1.025435
  C 4.597039 -0.384783 -2.454724
  C 4.225921 -1.751702 -2.995841
  C 3.448531 -2.613718 -2.011515
  H 3.271549 -3.590871 -2.450877
  O 5.095544 0.447938 -3.376444
  H 1.445416 2.131470 0.743950
  H 1.390606 1.589062 -0.928562
  H 2.657813 2.683753 -0.420580
  H 3.654474 -0.095155 2.051235
  H 2.661602 -1.210959 1.147031
  H 0.610642 0.097231 1.780855
  H 1.623550 1.200906 2.726489
  H 3.458314 0.149238 -2.017249
  H 5.983596 -0.337436 -0.558963
  H 5.172370 -2.239304 -3.248763
  H 3.667718 -1.618632 -3.923141
  H 2.483067 -2.169864 -1.780899
  H 4.004542 -2.750679 -1.087782
  H 5.711474 1.115059 -3.028893
 26
 52.063807
  C 2.101304 1.871482 -0.016177
  C 2.942264 0.694109 0.300814
  C 2.698049 -0.178300 1.498701
  C 1.477169 0.172871 2.334890
  H 1.396015 -0.540508 3.151319
  C 3.896061 0.286398 -0.545609
  C 4.988971 -0.185173 -1.084328
  C 4.524369 -0.349857 -2.515929
  C 4.247161 -1.779931 -2.988183
  C 3.453827 -2.605597 -1.990275
  H 3.332425 -3.613427 -2.375532
  O 5.088182 0.444751 -3.476381
  H 1.482514 2.164120 0.825156
  H 1.446955 1.645390 -0.860118
  H 2.723105 2.714890 -0.319999
  H 3.592615 -0.136816 2.129665
  H 2.623517 -1.217232 1.159184
  H 0.565592 0.118884 1.745915
  H 1.559042 1.164380 2.775776
  H 3.471271 0.097624 -2.267237
  H 5.991983 -0.247330 -0.700769
  H 5.223188 -2.244004 -3.156060
  H 3.736278 -1.723781 -3.948482
  H 2.463842 -2.184413 -1.835225
  H 3.967978 -2.665078 -1.034539
  H 5.697784 1.111961 -3.121487
 26
 43.882663
  C 2.127599 1.888361 0.057203
  C 2.941911 0.689905 0.360038
  C 2.661618 -0.194495 1.537232
  C 1.433486 0.161336 2.357953
  H 1.344954 -0.548129 3.176912
  C 3.896187 0.291182 -0.488322
  C 4.932607 -0.126551 -1.159990
  C 4.477895 -0.331816 -2.589930
  C 4.307408 -1.812916 -2.983295
  C 3.458181 -2.607484 -2.007599
  H 3.402357 -3.639617 -2.342931
  O 5.141315 0.390689 -3.563305
  H 1.489432 2.162747 0.888535
  H 1.496951 1.701534 -0.812920
  H 2.773853 2.726460 -0.203994
  H 3.543655 -0.181725 2.186450
  H 2.579843 -1.223085 1.172658
  H 0.528281 0.104486 1.759262
  H 1.509212 1.153327 2.796470
  H 3.434117 0.077439 -2.483068
  H 5.961428 -0.144625 -0.841700
  H 5.308172 -2.246572 -3.051578
  H 3.865970 -1.823881 -3.979545
  H 2.445624 -2.214402 -1.961885
  H 3.890913 -2.597633 -1.011104
  H 5.719265 1.076081 -3.199318
 26
 38.526310
  C 2.078487 1.859349 0.117189
  C 2.894040 0.652269 0.371685
  C 2.656336 -0.238953 1.546872
  C 1.462862 0.110230 2.417966
  H 1.389439 -0.622424 3.218324
  C 3.837873 0.300443 -0.500807
  C 4.843342 -0.019078 -1.244076
  C 4.502548 -0.313966 -2.690784
  C 4.382540 -1.835663 -2.936632
  C 3.393735 -2.533821 -2.019512
  H 3.368903 -3.592888 -2.264369
  O 5.365582 0.248795 -3.626945
  H 1.478071 2.128101 0.978416
  H 1.408576 1.688321 -0.727485
  H 2.721757 2.691997 -0.168290
  H 3.563196 -0.242845 2.162961
  H 2.558408 -1.263079 1.170824
  H 0.537337 0.088456 1.847980
  H 1.569713 1.086771 2.885300
  H 3.490542 0.118049 -2.801851
  H 5.877569 0.059767 -0.941196
  H 5.377528 -2.272749 -2.828945
  H 4.077640 -1.939968 -3.978827
  H 2.390890 -2.134165 -2.151317
  H 3.685185 -2.436958 -0.977757
  H 5.880626 0.981518 -3.263430
 26
 35.207463
  C 2.023838 1.808907 0.146431
  C 2.849065 0.611119 0.395451
  C 2.643830 -0.272121 1.573354
  C 1.479617 0.074440 2.482176
  H 1.425961 -0.658370 3.282984
  C 3.805710 0.289668 -0.493103
  C 4.778296 0.076535 -1.304924
  C 4.548478 -0.318659 -2.763934
  C 4.459950 -1.849447 -2.871254
  C 3.330495 -2.464356 -2.063865
  H 3.317137 -3.538839 -2.224741
  O 5.551144 0.129146 -3.623536
  H 1.422884 2.072780 1.008521
  H 1.354823 1.632820 -0.698347
  H 2.657027 2.645873 -0.147160
  H 3.570218 -0.285028 2.160290
  H 2.535521 -1.298179 1.203215
  H 0.537518 0.058122 1.940793
  H 1.603541 1.050209 2.946235
  H 3.578709 0.119455 -3.043463
  H 5.812625 0.221891 -1.020433
  H 5.421497 -2.278613 -2.587395
  H 4.309081 -2.050706 -3.934431
  H 2.369440 -2.063359 -2.374857
  H 3.465748 -2.287159 -1.001364
  H 5.927168 0.970565 -3.332497
 26
 33.970666
  C 1.821055 1.660700 0.120155
  C 2.777068 0.564132 0.365043
  C 2.725777 -0.294847 1.577091
  C 1.612178 -0.006026 2.566714
  H 1.684759 -0.704376 3.396558
  C 3.733720 0.326321 -0.551576
  C 4.720951 0.210571 -1.359299
  C 4.662500 -0.321768 -2.793663
  C 4.497185 -1.847710 -2.763360
  C 3.202489 -2.310458 -2.122309
  H 3.132964 -3.393216 -2.182745
  O 5.803232 -0.022269 -3.535307
  H 1.169153 1.833218 0.967643
  H 1.208541 1.436011 -0.755219
  H 2.362136 2.574566 -0.128967
  H 3.694140 -0.225899 2.087583
  H 2.664265 -1.337960 1.244491
  H 0.633639 -0.126815 2.108712
  H 1.688895 0.997615 2.978736
  H 3.773024 0.125787 -3.261860
  H 5.711671 0.533740 -1.058187
  H 5.365914 -2.289234 -2.273222
  H 4.521063 -2.160259 -3.810525
  H 2.343938 -1.884889 -2.635730
  H 3.162711 -2.030000 -1.073766
  H 6.109229 0.880355 -3.372044
 26
 33.868622
  C 1.645531 1.473132 0.051261
  C 2.732024 0.513265 0.326747
  C 2.810982 -0.277227 1.585503
  C 1.747724 0.003605 2.630243
  H 1.941513 -0.608808 3.507382
  C 3.696510 0.344333 -0.596929
  C 4.708371 0.273898 -1.380252
  C 4.783621 -0.333769 -2.777793
  C 4.455843 -1.833725 -2.697809
  C 3.053685 -2.127298 -2.207380
  H 2.863129 -3.195976 -2.262275
  O 6.029655 -0.195391 -3.383129
  H 0.904838 1.495894 0.840829
  H 1.157726 1.236423 -0.895088
  H 2.068869 2.471120 -0.078536
  H 3.805807 -0.127308 2.020948
  H 2.789900 -1.338053 1.307521
  H 0.753980 -0.245568 2.265824
  H 1.758860 1.043594 2.947033
  H 3.999412 0.159052 -3.373212
  H 5.636725 0.744515 -1.068077
  H 5.214389 -2.326631 -2.088077
  H 4.574487 -2.205688 -3.719229
  H 2.316356 -1.617533 -2.822717
  H 2.925051 -1.819041 -1.172939
  H 6.407359 0.680587 -3.225176
