 21
 0.000000
  C 0.822127 0.042743 0.312551
  C 2.310914 0.057814 0.109840
  C 3.229003 -0.008748 1.323044
  C 2.573242 -0.088163 2.696670
  H 3.345346 -0.129854 3.461167
  C 2.903643 0.126675 -1.078363
  C 2.376282 0.205046 -2.486451
  C 0.877015 0.223219 -2.756606
  H 0.716304 0.282653 -3.831260
  H 3.988722 0.121401 -1.098157
  H 0.560252 -0.011710 1.363714
  H 0.375372 -0.819665 -0.178223
  H 0.368541 0.946719 -0.086312
  H 3.876094 0.873353 1.306597
  H 3.880174 -0.880390 1.207254
  H 1.958028 -0.980688 2.789238
  H 1.954149 0.785465 2.889636
  H 2.807224 -0.643223 -3.032251
  H 2.810796 1.106210 -2.936200
  H 0.400177 1.084289 -2.298805
  H 0.396140 -0.680576 -2.395794
 21
 -0.136450
  C 0.816319 -0.006310 0.329241
  C 2.302292 0.029646 0.107792
  C 3.225620 0.007995 1.318874
  C 2.572456 -0.031982 2.695340
  H 3.347574 -0.002900 3.459149
  C 2.890800 0.071148 -1.083384
  C 2.382471 0.162763 -2.496713
  C 0.886053 0.256760 -2.767070
  H 0.729008 0.395296 -3.835939
  H 3.977819 0.060727 -1.088158
  H 0.574725 -0.324165 1.336890
  H 0.351792 -0.704773 -0.359281
  H 0.377608 0.978194 0.173665
  H 3.858810 0.899215 1.270889
  H 3.891119 -0.855716 1.228001
  H 2.000616 -0.946265 2.839449
  H 1.919065 0.824366 2.846303
  H 2.781277 -0.700384 -3.043287
  H 2.861269 1.046996 -2.935193
  H 0.445527 1.103128 -2.249011
  H 0.367832 -0.651287 -2.473646
 21
 0.059531
  C 0.829917 -0.074036 0.341678
  C 2.311201 0.006895 0.111523
  C 3.231108 0.043029 1.323190
  C 2.560288 0.023139 2.691838
  H 3.319917 0.109934 3.466522
  C 2.886787 0.003186 -1.085262
  C 2.373250 0.108361 -2.497218
  C 0.888289 0.312071 -2.772347
  H 0.751821 0.500132 -3.836566
  H 3.973476 -0.031201 -1.112016
  H 0.614799 -0.639373 1.243268
  H 0.366341 -0.591219 -0.490113
  H 0.387119 0.915478 0.447593
  H 3.835366 0.952795 1.253702
  H 3.925390 -0.800582 1.262322
  H 2.022222 -0.907046 2.859251
  H 1.868698 0.855005 2.800793
  H 2.712116 -0.780662 -3.042903
  H 2.910059 0.957253 -2.938377
  H 0.503238 1.167884 -2.224786
  H 0.302613 -0.567899 -2.520817
 21
 2.032799
  C 0.849387 -0.201635 0.338903
  C 2.322046 -0.038270 0.114337
  C 3.229290 0.122178 1.320731
  C 2.539075 0.106441 2.679593
  H 3.276671 0.261629 3.464617
  C 2.879795 -0.135692 -1.092695
  C 2.355979 0.037828 -2.497968
  C 0.908907 0.445371 -2.749803
  H 0.790747 0.674452 -3.807874
  H 3.962792 -0.225421 -1.153121
  H 0.691568 -0.953828 1.110436
  H 0.420578 -0.595428 -0.573565
  H 0.353769 0.714021 0.651799
  H 3.756702 1.074809 1.211388
  H 3.991861 -0.662679 1.303510
  H 2.049791 -0.847079 2.864716
  H 1.797319 0.898371 2.749760
  H 2.570845 -0.873798 -3.067612
  H 2.989261 0.822213 -2.928945
  H 0.651845 1.332883 -2.178050
  H 0.205378 -0.347137 -2.511313
 21
 8.126043
  C 0.873384 -0.402784 0.307448
  C 2.339986 -0.151164 0.107672
  C 3.222384 0.163168 1.292998
  C 2.500103 0.245888 2.632004
  H 3.208420 0.499443 3.418023
  C 2.865008 -0.324699 -1.103422
  C 2.338331 0.003518 -2.483365
  C 0.951148 0.614870 -2.650270
  H 0.824798 0.918314 -3.688338
  H 3.940427 -0.467856 -1.203233
  H 0.777174 -1.252387 0.987815
  H 0.519514 -0.778992 -0.646909
  H 0.300771 0.425039 0.711286
  H 3.710563 1.120708 1.091762
  H 4.018956 -0.585690 1.364115
  H 2.038882 -0.705264 2.886700
  H 1.728212 1.010827 2.611302
  H 2.420789 -0.877383 -3.132063
  H 3.055292 0.739021 -2.864807
  H 0.844071 1.494101 -2.019879
  H 0.151229 -0.081119 -2.414475
 21
 16.819159
  C 0.892849 -0.522976 0.291455
  C 2.358896 -0.235846 0.111885
  C 3.226490 0.173743 1.268900
  C 2.481064 0.335234 2.588768
  H 3.173863 0.609452 3.378428
  C 2.832812 -0.450874 -1.119001
  C 2.333750 0.022092 -2.468158
  C 0.968578 0.693072 -2.571233
  H 0.833137 1.038536 -3.596370
  H 3.898926 -0.658422 -1.239265
  H 0.809439 -1.433961 0.890684
  H 0.585424 -0.864132 -0.692334
  H 0.288589 0.248014 0.757381
  H 3.707499 1.121109 1.005544
  H 4.032957 -0.557888 1.404432
  H 1.974244 -0.587448 2.864326
  H 1.733339 1.123163 2.513931
  H 2.384346 -0.790072 -3.204153
  H 3.082504 0.761609 -2.771691
  H 0.919635 1.564366 -1.922722
  H 0.146652 0.022627 -2.346739
 21
 33.648589
  C 0.899121 -0.595555 0.237277
  C 2.355040 -0.279755 0.123928
  C 3.206866 0.261125 1.239296
  C 2.467667 0.388043 2.570658
  H 3.127100 0.807726 3.332915
  C 2.797695 -0.580368 -1.117890
  C 2.305529 -0.021963 -2.442654
  C 1.022281 0.802866 -2.472527
  H 0.912548 1.255825 -3.450759
  H 3.837698 -0.856903 -1.303852
  H 0.775011 -1.599977 0.676512
  H 0.794794 -1.002297 -0.808917
  H 0.231297 0.086175 0.738967
  H 3.568758 1.243829 0.927320
  H 4.096004 -0.376416 1.369169
  H 2.122366 -0.589520 2.912088
  H 1.608407 1.041077 2.470607
  H 2.255496 -0.814627 -3.202548
  H 3.120491 0.647161 -2.742883
  H 1.072562 1.591636 -1.724412
  H 0.133075 0.211618 -2.260365
 21
 56.804707
  C 0.894201 -0.753648 0.222765
  C 2.305295 -0.304665 0.113645
  C 3.160915 0.323863 1.161711
  C 2.461740 0.470709 2.510425
  H 3.125400 0.946155 3.231174
  C 2.696220 -0.703850 -1.127755
  C 2.342615 0.034700 -2.402455
  C 1.075459 0.887082 -2.367979
  H 0.979781 1.442948 -3.300417
  H 3.730307 -1.055474 -1.247183
  H 0.797297 -1.776927 0.593095
  H 0.960098 -1.156482 -0.836616
  H 0.179334 -0.094250 0.696799
  H 3.511734 1.293071 0.800021
  H 4.059250 -0.300554 1.294341
  H 2.185349 -0.507960 2.900654
  H 1.563806 1.075243 2.417631
  H 2.234077 -0.695511 -3.231354
  H 3.203762 0.654934 -2.652852
  H 1.108155 1.583219 -1.533629
  H 0.185146 0.270731 -2.246804
 21
 75.645602
  C 0.927268 -0.766812 0.253829
  C 2.275079 -0.331084 0.146428
  C 3.141575 0.326808 1.168000
  C 2.454175 0.529250 2.512067
  H 3.137977 0.985801 3.224304
  C 2.672551 -0.763323 -1.146189
  C 2.312862 0.024532 -2.410873
  C 1.066936 0.894695 -2.324758
  H 0.964047 1.477402 -3.238371
  H 3.699288 -1.137296 -1.263623
  H 0.750129 -1.818980 0.434274
  H 1.298961 -1.232296 -1.059032
  H 0.187685 -0.165073 0.785971
  H 3.495849 1.291861 0.788169
  H 4.032969 -0.298692 1.296165
  H 2.119581 -0.424301 2.913956
  H 1.590177 1.178960 2.404602
  H 2.217820 -0.665843 -3.254114
  H 3.169151 0.674643 -2.629739
  H 1.138879 1.578435 -1.483388
  H 0.169310 0.294387 -2.199948
 21
 54.024951
  C 0.897350 -0.792204 0.341552
  C 2.186814 -0.393280 0.166999
  C 3.093084 0.323570 1.112395
  C 2.465460 0.609195 2.467100
  H 3.189142 1.072166 3.129127
  C 2.607829 -0.876398 -1.187755
  C 2.349658 0.071051 -2.386077
  C 1.082776 0.900559 -2.282515
  H 1.005153 1.566619 -3.138467
  H 3.596290 -1.313282 -1.272577
  H 0.675287 -1.840150 0.445185
  H 1.570093 -1.345416 -1.250999
  H 0.186304 -0.189730 0.922941
  H 3.474455 1.253501 0.675563
  H 3.958491 -0.333500 1.237634
  H 2.108628 -0.311714 2.919547
  H 1.621561 1.286937 2.361202
  H 2.323948 -0.532962 -3.292969
  H 3.208643 0.750640 -2.494359
  H 1.097389 1.510642 -1.381944
  H 0.199566 0.264725 -2.251151
 21
 31.655976
  C 0.860102 -0.822964 0.413575
  C 2.115867 -0.427733 0.143009
  C 3.054685 0.319289 1.036784
  C 2.475240 0.676654 2.400959
  H 3.213472 1.207939 2.998001
  C 2.565415 -0.957439 -1.193324
  C 2.378357 0.060854 -2.350221
  C 1.143191 0.938632 -2.221759
  H 1.129415 1.681385 -3.016050
  H 3.576637 -1.343165 -1.227849
  H 0.574548 -1.857183 0.329216
  H 1.607122 -1.499067 -1.327465
  H 0.198545 -0.293255 1.091455
  H 3.395403 1.242756 0.546522
  H 3.940097 -0.312913 1.153419
  H 2.187627 -0.222785 2.940752
  H 1.599473 1.310407 2.287676
  H 2.346963 -0.489964 -3.291987
  H 3.257423 0.714723 -2.385645
  H 1.135179 1.450806 -1.263351
  H 0.233983 0.344302 -2.295675
 21
 12.235233
  C 0.859018 -0.877985 0.479640
  C 2.077621 -0.461729 0.140313
  C 3.028838 0.328571 0.986760
  C 2.485590 0.721942 2.353837
  H 3.250812 1.240033 2.927628
  C 2.556034 -0.961482 -1.201496
  C 2.426809 0.139999 -2.278527
  C 1.120538 0.917767 -2.216378
  H 1.100559 1.672352 -3.000135
  H 3.572897 -1.339206 -1.211596
  H 0.507123 -1.869585 0.249958
  H 1.722346 -1.628751 -1.437616
  H 0.250684 -0.410762 1.246726
  H 3.364353 1.230987 0.461613
  H 3.909320 -0.310174 1.106944
  H 2.172632 -0.160718 2.906745
  H 1.629175 1.383647 2.250427
  H 2.523453 -0.335055 -3.257196
  H 3.260575 0.842869 -2.182081
  H 1.010570 1.415371 -1.256820
  H 0.269635 0.254459 -2.357011
 21
 -1.110619
  C 0.811035 -0.828283 0.561913
  C 2.021023 -0.471206 0.156012
  C 3.015817 0.304924 0.973291
  C 2.547285 0.701303 2.366951
  H 3.341690 1.229477 2.889910
  C 2.507177 -0.946435 -1.188222
  C 2.448902 0.173442 -2.243236
  C 1.099930 0.876739 -2.296703
  H 1.119017 1.669772 -3.041228
  H 3.523205 -1.334669 -1.145568
  H 0.265336 -1.644228 0.121203
  H 1.777282 -1.696113 -1.490532
  H 0.370857 -0.421587 1.458247
  H 3.323345 1.205564 0.431521
  H 3.903192 -0.330550 1.056979
  H 2.279515 -0.179501 2.945720
  H 1.681719 1.357164 2.311566
  H 2.662251 -0.269406 -3.219076
  H 3.232897 0.907869 -2.041371
  H 0.853784 1.314232 -1.332751
  H 0.313327 0.174041 -2.562892
 21
 -4.766038
  C 0.816980 -0.954781 0.660804
  C 1.975635 -0.546773 0.173470
  C 2.936760 0.351222 0.902564
  C 2.538798 0.716358 2.326371
  H 3.296590 1.359335 2.768354
  C 2.426309 -0.989014 -1.194500
  C 2.497444 0.160490 -2.207337
  C 1.197421 0.952536 -2.272879
  H 1.235710 1.681189 -3.080430
  H 3.412374 -1.453734 -1.122261
  H 0.174872 -1.613341 0.099004
  H 1.719710 -1.731640 -1.560261
  H 0.449852 -0.666777 1.632052
  H 3.065621 1.271181 0.324597
  H 3.910916 -0.147862 0.921022
  H 2.444915 -0.175599 2.940672
  H 1.592090 1.250554 2.338952
  H 2.708104 -0.261942 -3.193084
  H 3.324485 0.826389 -1.954554
  H 1.016672 1.479986 -1.339834
  H 0.357326 0.284771 -2.450990
 21
 -5.097854
  C 0.797921 -0.862485 0.665747
  C 1.982905 -0.514568 0.190399
  C 2.985027 0.318551 0.944172
  C 2.594386 0.682842 2.370382
  H 3.391368 1.260258 2.835556
  C 2.425961 -0.950741 -1.183450
  C 2.481381 0.201593 -2.194696
  C 1.123946 0.868801 -2.374938
  H 1.183832 1.664238 -3.115724
  H 3.419083 -1.403106 -1.114839
  H 0.118526 -1.464090 0.086145
  H 1.735337 -1.708553 -1.558822
  H 0.446570 -0.569587 1.638984
  H 3.161421 1.239288 0.382462
  H 3.934021 -0.227071 0.961981
  H 2.428804 -0.212408 2.965041
  H 1.687954 1.283807 2.382223
  H 2.820260 -0.195132 -3.154737
  H 3.213299 0.943258 -1.870809
  H 0.780569 1.294593 -1.435010
  H 0.386012 0.143063 -2.708333
