 23
 0.000000
  C 0.940707 0.053907 0.180374
  C 2.443621 0.058348 0.101629
  C 3.241935 -0.014279 1.388792
  C 2.459593 -0.088088 2.696730
  H 3.160435 -0.134930 3.526895
  C 3.065938 0.125702 -1.092007
  C 2.323443 0.199419 -2.398461
  H 1.248697 0.192597 -2.277551
  C 4.515200 0.132033 -1.204154
  C 5.213722 0.196176 -2.340993
  O 6.570832 0.200258 -2.413296
  H 0.592004 -0.003830 1.203557
  H 0.530775 -0.799102 -0.359962
  H 0.530776 0.962291 -0.260570
  H 3.890885 0.865794 1.444557
  H 3.890887 -0.895030 1.345199
  H 1.833992 -0.977360 2.735015
  H 1.833982 0.791228 2.834814
  H 2.603986 -0.645507 -3.026833
  H 2.603983 1.109670 -2.927789
  H 5.084653 0.080185 -0.285258
  H 4.786448 0.251917 -3.328865
  H 6.943030 0.150044 -1.523316
 23
 0.059023
  C 0.937142 0.029784 0.190149
  C 2.438152 0.034548 0.094688
  C 3.235142 0.025561 1.385939
  C 2.448671 -0.064484 2.689423
  H 3.145584 -0.035840 3.525551
  C 3.066389 0.092372 -1.096564
  C 2.329797 0.181528 -2.407320
  H 1.254590 0.170207 -2.280092
  C 4.515628 0.090820 -1.204616
  C 5.211728 0.183697 -2.339488
  O 6.568132 0.177482 -2.417606
  H 0.600803 -0.309816 1.162256
  H 0.497959 -0.630053 -0.555694
  H 0.541372 1.034562 0.029134
  H 3.832979 0.942927 1.422429
  H 3.932867 -0.815766 1.361958
  H 1.891252 -0.996887 2.755835
  H 1.762335 0.772008 2.797551
  H 2.610718 -0.649362 -3.053410
  H 2.597147 1.108264 -2.913418
  H 5.081781 0.006567 -0.286927
  H 4.777672 0.274545 -3.321007
  H 6.943206 0.095298 -1.531332
 23
 0.589072
  C 0.929517 0.170432 0.209762
  C 2.426258 0.083021 0.094701
  C 3.213247 0.138114 1.391398
  C 2.456627 -0.186554 2.674988
  H 3.142756 -0.114913 3.517402
  C 3.056477 0.084334 -1.096328
  C 2.335312 0.097683 -2.418863
  H 1.258880 0.049548 -2.310644
  C 4.508482 0.089791 -1.202827
  C 5.207212 0.127453 -2.339383
  O 6.563231 0.145675 -2.412292
  H 0.591475 -0.307382 1.124405
  H 0.432588 -0.338150 -0.609556
  H 0.616446 1.213989 0.204134
  H 3.636328 1.143974 1.494552
  H 4.047544 -0.563116 1.324839
  H 2.058441 -1.199554 2.650923
  H 1.643520 0.513687 2.851851
  H 2.655326 -0.750643 -3.024686
  H 2.575762 1.011509 -2.959134
  H 5.075665 0.098679 -0.283072
  H 4.776936 0.152936 -3.327409
  H 6.936690 0.117283 -1.521715
 23
 4.017299
  C 0.926661 0.312472 0.222448
  C 2.413451 0.097462 0.103192
  C 3.195775 0.176670 1.400293
  C 2.457463 -0.253124 2.669609
  H 3.129317 -0.163574 3.518262
  C 3.042983 0.056841 -1.092882
  C 2.326836 0.023296 -2.410776
  H 1.250397 -0.033662 -2.317835
  C 4.496217 0.064668 -1.198047
  C 5.197901 0.070306 -2.337163
  O 6.555188 0.148656 -2.401451
  H 0.628200 -0.248120 1.098353
  H 0.393327 -0.133728 -0.608594
  H 0.722955 1.379629 0.244454
  H 3.555985 1.204685 1.538820
  H 4.062409 -0.478917 1.316438
  H 2.184657 -1.306836 2.600532
  H 1.560974 0.333500 2.854072
  H 2.679225 -0.819852 -3.002665
  H 2.577954 0.925768 -2.975567
  H 5.057721 0.133994 -0.281462
  H 4.780866 0.042801 -3.328250
  H 6.913889 0.277632 -1.518082
 23
 20.857592
  C 0.911970 0.385458 0.178701
  C 2.430536 0.059856 0.110884
  C 3.191012 0.147954 1.421145
  C 2.448333 -0.286465 2.689338
  H 3.062399 -0.068618 3.553416
  C 3.053760 0.031977 -1.069695
  C 2.328621 0.011100 -2.391069
  H 1.253207 -0.042280 -2.247254
  C 4.510001 0.037567 -1.200913
  C 5.185997 0.160745 -2.342156
  O 6.540102 0.219677 -2.431723
  H 0.827827 -0.238383 1.027342
  H 0.407825 -0.140701 -0.628564
  H 0.853055 1.450095 0.050218
  H 3.503426 1.190809 1.555151
  H 4.116127 -0.428917 1.336069
  H 2.206212 -1.351104 2.660900
  H 1.526518 0.279754 2.819678
  H 2.591254 -0.903104 -2.929930
  H 2.553848 0.892181 -2.977142
  H 5.099812 -0.005580 -0.289506
  H 4.751038 0.232543 -3.325430
  H 6.925332 0.176287 -1.540491
 23
 65.023251
  C 0.800187 0.489182 0.202815
  C 2.484994 0.050760 0.123778
  C 3.204862 0.134918 1.462984
  C 2.391056 -0.329137 2.691262
  H 2.976274 -0.176446 3.600940
  C 3.072119 0.034158 -1.060900
  C 2.301999 -0.051811 -2.348376
  H 1.245636 -0.164635 -2.178085
  C 4.527299 0.112313 -1.198658
  C 5.192412 0.135887 -2.361814
  O 6.527813 0.261768 -2.489478
  H 1.133590 -0.255525 0.845230
  H 0.274108 -0.004752 -0.610830
  H 1.030473 1.508090 0.007492
  H 3.506774 1.181234 1.630000
  H 4.114148 -0.481496 1.409171
  H 2.142366 -1.394957 2.621706
  H 1.468976 0.236619 2.782212
  H 2.644536 -0.901907 -2.921615
  H 2.450409 0.855569 -2.945182
  H 5.105437 0.189647 -0.291354
  H 4.726995 0.063444 -3.328979
  H 6.942267 0.317316 -1.602558
 23
 92.015866
  C 0.646511 0.569693 0.243517
  C 2.534043 0.046681 0.166213
  C 3.228268 0.140113 1.494545
  C 2.399158 -0.372873 2.671122
  H 2.959081 -0.255527 3.596109
  C 3.100070 0.033417 -1.038903
  C 2.312696 -0.090652 -2.312803
  H 1.257464 -0.233992 -2.113749
  C 4.547125 0.136779 -1.194287
  C 5.198249 0.152890 -2.358751
  O 6.537674 0.287157 -2.496140
  H 1.291664 -0.192024 0.674595
  H 0.119172 0.022268 -0.549571
  H 0.951029 1.532642 -0.126159
  H 3.491413 1.186909 1.684162
  H 4.155948 -0.437232 1.450256
  H 2.163668 -1.428792 2.545597
  H 1.469432 0.182336 2.754181
  H 2.672771 -0.939699 -2.890007
  H 2.428473 0.808840 -2.916587
  H 5.130356 0.224881 -0.287488
  H 4.720777 0.089353 -3.321991
  H 6.956368 0.346701 -1.627589
 23
 99.498753
  C 0.509034 0.582298 0.280359
  C 2.591010 0.032398 0.188976
  C 3.270764 0.125518 1.520841
  C 2.403471 -0.392564 2.666997
  H 2.925035 -0.267950 3.616823
  C 3.137005 0.039661 -1.028373
  C 2.323452 -0.072795 -2.287402
  H 1.268749 -0.203589 -2.061246
  C 4.577971 0.147010 -1.192518
  C 5.218693 0.162547 -2.363449
  O 6.556242 0.282418 -2.513784
  H 1.431020 -0.116273 0.480475
  H -0.033847 -0.035277 -0.462462
  H 0.759449 1.516637 -0.225303
  H 3.531876 1.169809 1.719276
  H 4.200238 -0.451203 1.492777
  H 2.182627 -1.451984 2.531951
  H 1.460577 0.158298 2.704257
  H 2.659780 -0.927043 -2.876163
  H 2.437621 0.826603 -2.891847
  H 5.165983 0.243469 -0.287336
  H 4.732906 0.086378 -3.319477
  H 6.983794 0.355694 -1.650443
 23
 101.449324
  C 0.446524 0.656808 0.340484
  C 2.634417 0.030363 0.189434
  C 3.294510 0.089869 1.531690
  C 2.393227 -0.443259 2.642262
  H 2.883935 -0.343086 3.604842
  C 3.172781 0.071021 -1.030114
  C 2.340303 -0.018832 -2.274503
  H 1.291145 -0.141054 -2.030774
  C 4.611624 0.163910 -1.200137
  C 5.246996 0.167692 -2.374699
  O 6.584914 0.270762 -2.532699
  H 1.493766 -0.013173 0.346953
  H -0.179710 -0.102548 -0.176075
  H 0.582967 1.464262 -0.393922
  H 3.562101 1.129170 1.758103
  H 4.219164 -0.497008 1.507038
  H 2.167374 -1.493254 2.478781
  H 1.462863 0.112212 2.657504
  H 2.655020 -0.868098 -2.875015
  H 2.453542 0.883523 -2.872654
  H 5.201207 0.256256 -0.296970
  H 4.751964 0.093100 -3.331354
  H 7.017701 0.343276 -1.673021
 23
 102.850287
  C 0.677141 0.784584 0.374283
  C 2.589987 -0.006192 0.177832
  C 3.265498 0.017638 1.512346
  C 2.339524 -0.431440 2.637056
  H 2.846889 -0.356786 3.595379
  C 3.144743 0.043248 -1.043148
  C 2.322977 -0.050838 -2.295623
  H 1.274310 -0.221832 -2.066253
  C 4.579803 0.183055 -1.194639
  C 5.229191 0.236419 -2.361194
  O 6.564639 0.379198 -2.498160
  H 1.489208 -0.212954 0.267259
  H -0.156097 0.103887 0.096446
  H 0.809749 1.444408 -0.494266
  H 3.615432 1.032683 1.724271
  H 4.140809 -0.638406 1.482962
  H 2.031559 -1.464925 2.491346
  H 1.454249 0.199239 2.648206
  H 2.677637 -0.873801 -2.914774
  H 2.403423 0.868853 -2.873491
  H 5.156838 0.265863 -0.283164
  H 4.748700 0.176634 -3.324816
  H 6.983335 0.440790 -1.629512
 23
 83.648787
  C 1.122167 0.891784 0.259343
  C 2.483444 -0.011420 0.191296
  C 3.228688 -0.094354 1.499552
  C 2.280077 -0.394494 2.653299
  H 2.825714 -0.440664 3.586662
  C 3.098978 -0.048958 -1.076110
  C 2.280329 -0.165502 -2.321608
  H 1.239147 -0.407549 -2.089559
  C 4.493355 0.208662 -1.186189
  C 5.162397 0.402896 -2.338521
  O 6.501010 0.550491 -2.432344
  H 1.582664 -0.636282 0.183947
  H 0.135945 0.437914 0.267469
  H 1.177438 1.502215 -0.652652
  H 3.740166 0.857031 1.692496
  H 3.981171 -0.877412 1.440799
  H 1.782255 -1.354667 2.500534
  H 1.515834 0.388362 2.717947
  H 2.681606 -0.952671 -2.951033
  H 2.304221 0.758747 -2.892700
  H 5.041976 0.351341 -0.257108
  H 4.710330 0.358821 -3.312441
  H 6.899494 0.484469 -1.552406
 23
 72.208684
  C 1.014385 0.720833 0.248742
  C 2.383208 0.052048 0.140206
  C 3.176303 -0.040953 1.446507
  C 2.310358 -0.350027 2.656584
  H 2.923372 -0.334846 3.559953
  C 3.078366 0.065361 -1.107007
  C 2.333306 -0.000749 -2.393491
  H 1.293891 -0.229627 -2.236068
  C 4.507559 0.176658 -1.183603
  C 5.221059 0.276807 -2.314590
  O 6.579449 0.405014 -2.363185
  H 1.561052 -0.699200 0.027030
  H 0.174802 0.276831 0.783380
  H 0.731709 1.295396 -0.623613
  H 3.665950 0.917069 1.597021
  H 3.951751 -0.814100 1.357352
  H 1.845877 -1.340136 2.568990
  H 1.530706 0.393359 2.763148
  H 2.761355 -0.771284 -3.026540
  H 2.389033 0.961885 -2.942921
  H 5.066436 0.134426 -0.243986
  H 4.801564 0.311787 -3.298060
  H 6.932224 0.434695 -1.464577
 23
 34.530622
  C 1.012564 0.490864 0.206417
  C 2.447824 0.030498 0.113557
  C 3.240550 -0.037025 1.405729
  C 2.380985 -0.317477 2.631064
  H 3.004813 -0.396314 3.515176
  C 3.055051 0.032503 -1.093170
  C 2.348270 0.004229 -2.414743
  H 1.284076 -0.206746 -2.304678
  C 4.502137 0.179600 -1.144119
  C 5.235879 0.266709 -2.258894
  O 6.587829 0.415109 -2.285929
  H 0.832849 -0.503061 -0.335246
  H 0.283366 0.188871 0.942941
  H 0.708244 1.279068 -0.467394
  H 3.799698 0.894192 1.550392
  H 3.959089 -0.857394 1.326943
  H 1.850547 -1.263393 2.507885
  H 1.646435 0.468447 2.783828
  H 2.784193 -0.782764 -3.028776
  H 2.458074 0.948232 -2.948067
  H 5.023206 0.279696 -0.205358
  H 4.837422 0.220722 -3.257708
  H 6.922971 0.465952 -1.379462
 23
 3.780273
  C 0.955734 0.356976 0.124579
  C 2.431913 0.083807 0.084465
  C 3.180581 0.085697 1.404196
  C 2.381302 -0.355453 2.628606
  H 3.019602 -0.305631 3.508645
  C 3.080362 0.040552 -1.097874
  C 2.383518 0.005409 -2.428214
  H 1.315913 -0.147796 -2.329023
  C 4.532172 0.108658 -1.155502
  C 5.253288 0.259062 -2.268425
  O 6.606832 0.360121 -2.304798
  H 0.518326 -0.450659 -0.473795
  H 0.476564 0.209169 1.082532
  H 0.680926 1.284242 -0.366639
  H 3.548828 1.101169 1.590214
  H 4.042073 -0.577784 1.327112
  H 2.033755 -1.381383 2.515836
  H 1.526592 0.289602 2.809436
  H 2.792096 -0.804153 -3.031205
  H 2.541025 0.939308 -2.964754
  H 5.077624 0.056472 -0.224495
  H 4.841249 0.353981 -3.259557
  H 6.962616 0.265618 -1.410825
 23
 0.309000
  C 0.923826 -0.006049 0.102843
  C 2.431459 0.012914 0.051616
  C 3.196897 0.010143 1.357224
  C 2.376984 -0.078199 2.638960
  H 3.046717 -0.008762 3.493912
  C 3.078531 0.062639 -1.100961
  C 2.387239 0.158916 -2.431487
  H 1.314110 0.027995 -2.356925
  C 4.529567 0.067138 -1.163661
  C 5.263428 0.321668 -2.253439
  O 6.621543 0.304079 -2.294694
  H 0.527777 -0.678265 -0.657787
  H 0.558497 -0.343964 1.064398
  H 0.521499 0.990481 -0.085070
  H 3.792633 0.927794 1.404284
  H 3.898610 -0.830421 1.352335
  H 1.848071 -1.025980 2.707893
  H 1.660866 0.737197 2.708822
  H 2.781788 -0.593860 -3.111488
  H 2.573097 1.139785 -2.868901
  H 5.064654 -0.178289 -0.253884
  H 4.859263 0.591100 -3.216308
  H 6.967000 0.085640 -1.425524
