 17
 0.000000
  H 1.383975 0.137746 0.394054
  C 2.453972 0.138831 0.396445
  C 3.235887 0.609601 1.567949
  H 2.688339 0.952271 2.420984
  C 3.074760 -0.323868 -0.755623
  C 4.452396 -0.411652 -0.974602
  C 5.123831 -0.863395 -2.100714
  C 4.621920 -1.386396 -3.404454
  H 3.574840 -1.468216 -3.608977
  O 6.448567 -0.861790 -2.097024
  H 3.892013 1.422462 1.236076
  H 3.892206 -0.206765 1.890660
  H 2.419633 -0.642347 -1.548686
  H 5.073532 -0.080521 -0.149771
  H 5.075895 -2.376004 -3.531813
  H 5.076265 -0.759449 -4.180462
  H 6.820588 -0.526463 -1.260938
 17
 0.000000
  H 1.420242 0.132104 0.380013
  C 2.490179 0.136581 0.390839
  C 3.261338 0.609810 1.568468
  H 2.705997 0.950731 2.417156
  C 3.136592 -0.335153 -0.783739
  C 4.447554 -0.427498 -1.014108
  C 5.086820 -0.861407 -2.095769
  C 4.613430 -1.388088 -3.408669
  H 3.571018 -1.477786 -3.632809
  O 6.350153 -0.839049 -2.040356
  H 3.917480 1.424752 1.241770
  H 3.917677 -0.204476 1.896351
  H 2.488750 -0.655697 -1.581939
  H 5.078082 -0.098833 -0.195439
  H 5.077165 -2.374237 -3.527413
  H 5.077526 -0.757680 -4.176057
  H 6.668617 -0.480030 -1.145195
 17
 0.000000
  H 1.455424 0.127060 0.367455
  C 2.525208 0.135233 0.387478
  C 3.284577 0.611104 1.571687
  H 2.720787 0.950088 2.415568
  C 3.200156 -0.346261 -0.811418
  C 4.446622 -0.442847 -1.052372
  C 5.053953 -0.860086 -2.092485
  C 4.607211 -1.389991 -3.413406
  H 3.569513 -1.486970 -3.655673
  O 6.254736 -0.819655 -1.992030
  H 3.940685 1.428313 1.250631
  H 3.940884 -0.200916 1.905210
  H 2.560310 -0.669029 -1.615153
  H 5.087375 -0.116929 -0.240569
  H 5.079838 -2.372863 -3.523991
  H 5.080186 -0.756305 -4.172631
  H 6.512450 -0.436355 -1.036325
 17
 0.000000
  H 1.489070 0.122798 0.356844
  C 2.558580 0.135014 0.386927
  C 3.304975 0.613727 1.578221
  H 2.731995 0.950560 2.416758
  C 3.265553 -0.357107 -0.838449
  C 4.450080 -0.457547 -1.089017
  C 5.025834 -0.859527 -2.091096
  C 4.603185 -1.392171 -3.418830
  H 3.570039 -1.495667 -3.677321
  O 6.163236 -0.803842 -1.952627
  H 3.960981 1.433417 1.263339
  H 3.961182 -0.195814 1.917913
  H 2.634518 -0.682277 -1.648162
  H 5.101912 -0.134684 -0.284847
  H 5.083664 -2.372044 -3.521948
  H 5.084000 -0.755484 -4.170584
  H 6.352226 -0.396024 -0.935786
 17
 0.000000
  H 1.520363 0.119708 0.349150
  C 2.589449 0.136355 0.390258
  C 3.321533 0.618124 1.589177
  H 2.738547 0.952560 2.421758
  C 3.332864 -0.367600 -0.864602
  C 4.458505 -0.471482 -1.123753
  C 5.003286 -0.859993 -2.092262
  C 4.601363 -1.394862 -3.425528
  H 3.572350 -1.503918 -3.697851
  O 6.076818 -0.792015 -1.923155
  H 3.977350 1.440534 1.281062
  H 3.977552 -0.188699 1.935630
  H 2.711562 -0.695363 -1.680773
  H 5.122318 -0.152016 -0.328068
  H 5.088459 -2.372128 -3.522154
  H 5.088782 -0.755567 -4.170789
  H 6.188465 -0.359630 -0.845056
 17
 0.000000
  H 1.547859 0.118422 0.345944
  C 2.616333 0.139884 0.399041
  C 3.332747 0.624912 1.606089
  H 2.738957 0.956692 2.432073
  C 3.401683 -0.377587 -0.889499
  C 4.472384 -0.484424 -1.156016
  C 4.987505 -0.861915 -2.097053
  C 4.601854 -1.398448 -3.434450
  H 3.576223 -1.511838 -3.717553
  O 5.997630 -0.784818 -1.905220
  H 3.988267 1.450278 1.305332
  H 3.988469 -0.178958 1.959894
  H 2.791057 -0.708124 -1.712582
  H 5.148957 -0.168686 -0.369641
  H 5.094053 -2.373649 -3.525936
  H 5.094365 -0.757088 -4.174571
  H 6.023655 -0.328119 -0.766490
 17
 0.000000
  H 1.569629 0.120174 0.350303
  C 2.637248 0.146933 0.416588
  C 3.336292 0.635464 1.632380
  H 2.730709 0.964266 2.450964
  C 3.473243 -0.387206 -0.913482
  C 4.492750 -0.496474 -1.186054
  C 4.980002 -0.866295 -2.107968
  C 4.604961 -1.403877 -3.447960
  H 3.581602 -1.520080 -3.738054
  O 5.927158 -0.783369 -1.901603
  H 3.991376 1.464082 1.339720
  H 3.991575 -0.165157 1.994274
  H 2.874471 -0.720740 -1.744034
  H 5.182985 -0.184857 -0.409970
  H 5.100450 -2.377722 -3.536072
  H 5.100749 -0.761162 -4.184710
  H 5.858153 -0.301904 -0.701118
 17
 0.000000
  H 1.583734 0.125848 0.364424
  C 2.650216 0.158331 0.444968
  C 3.330322 0.650556 1.669981
  H 2.712099 0.976070 2.480392
  C 3.547252 -0.396318 -0.936200
  C 4.519413 -0.507263 -1.212946
  C 4.981684 -0.873714 -2.126455
  C 4.610460 -1.411671 -3.467360
  H 3.587929 -1.528888 -3.759961
  O 5.868112 -0.788308 -1.913902
  H 3.984804 1.482688 1.386076
  H 3.984999 -0.146554 2.040622
  H 2.961429 -0.733027 -1.774670
  H 5.223806 -0.200065 -0.447894
  H 5.107126 -2.385025 -3.554253
  H 5.107416 -0.768468 -4.202897
  H 5.696335 -0.282082 -0.651676
 17
 0.000000
  H 1.587655 0.136765 0.391598
  C 2.652687 0.175319 0.487266
  C 3.312529 0.671352 1.721793
  H 2.681022 0.993302 2.523342
  C 3.623814 -0.404904 -0.957609
  C 4.552386 -0.516606 -1.236230
  C 4.993596 -0.885201 -2.155074
  C 4.618202 -1.422765 -3.494979
  H 3.594764 -1.538888 -3.784838
  O 5.823674 -0.800562 -1.944422
  H 3.966225 1.507213 1.447177
  H 3.966411 -0.122033 2.101714
  H 3.051873 -0.744909 -1.804298
  H 5.271073 -0.214031 -0.482711
  H 5.113593 -2.396651 -3.583199
  H 5.113875 -0.780097 -4.231850
  H 5.543796 -0.269239 -0.619619
 17
 0.000000
  H 1.579074 0.153773 0.433935
  C 2.642342 0.198597 0.545230
  C 3.281052 0.698448 1.789298
  H 2.635957 1.016631 2.581476
  C 3.702217 -0.412899 -0.977539
  C 4.590803 -0.524222 -1.255204
  C 5.015858 -0.901383 -2.195387
  C 4.627946 -1.437721 -3.532219
  H 3.601832 -1.550536 -3.813823
  O 5.796949 -0.820298 -1.993584
  H 3.933775 1.538159 1.524279
  H 3.933950 -0.091090 2.178807
  H 3.144782 -0.756227 -1.832523
  H 5.323209 -0.226243 -0.513149
  H 5.119463 -2.413202 -3.624413
  H 5.119740 -0.796651 -4.273072
  H 5.408354 -0.263291 -0.604745
 17
 0.000000
  H 1.556683 0.177399 0.492748
  C 2.617887 0.228574 0.619878
  C 3.234983 0.732170 1.873308
  H 2.576261 1.046450 2.655772
  C 3.782571 -0.420290 -0.995962
  C 4.633747 -0.530046 -1.269702
  C 5.047384 -0.922558 -2.248138
  C 4.638869 -1.456779 -3.579677
  H 3.608509 -1.564108 -3.847605
  O 5.788629 -0.847177 -2.060539
  H 3.886551 1.575783 1.618017
  H 3.886712 -0.053470 2.272536
  H 3.240005 -0.766904 -1.859146
  H 5.378935 -0.236497 -0.538690
  H 5.123907 -2.434866 -3.678362
  H 5.124182 -0.818319 -4.327032
  H 5.294511 -0.263154 -0.604354
 17
 0.000000
  H 1.538727 0.189646 0.523237
  C 2.598899 0.243711 0.657576
  C 3.206086 0.748973 1.915169
  H 2.541207 1.061447 2.693135
  C 3.811538 -0.421281 -0.998428
  C 4.649167 -0.529764 -1.268988
  C 5.060948 -0.930169 -2.267096
  C 4.643713 -1.463458 -3.596306
  H 3.611615 -1.568452 -3.858413
  O 5.789690 -0.857208 -2.085520
  H 3.857072 1.594362 1.664307
  H 3.857226 -0.034892 2.318823
  H 3.275799 -0.769363 -1.865277
  H 5.398122 -0.237548 -0.541299
  H 5.125970 -2.442642 -3.697721
  H 5.126245 -0.826097 -4.346395
  H 5.254816 -0.261978 -0.601399
 17
 0.000000
  H 1.463949 0.250106 0.673739
  C 2.519205 0.316175 0.838024
  C 3.084775 0.828074 2.112217
  H 2.394642 1.132845 2.871000
  C 3.979456 -0.434217 -1.030658
  C 4.745219 -0.536532 -1.285802
  C 5.140491 -0.985405 -2.404700
  C 4.661865 -1.511498 -3.715957
  H 3.618555 -1.599812 -3.936498
  O 5.817650 -0.927645 -2.260983
  H 3.732961 1.680840 1.879756
  H 3.733078 0.051578 2.534255
  H 3.472456 -0.788207 -1.912265
  H 5.516818 -0.252617 -0.578792
  H 5.123877 -2.498270 -3.836272
  H 5.124157 -0.881734 -4.484967
  H 5.094872 -0.278538 -0.642580
