 20
 0.000000
  C -1.516120 -0.841372 0.884943
  C -0.890212 0.261265 0.034959
  C -1.343028 0.100643 -1.434001
  C -1.180874 1.630510 0.550221
  C -2.474204 2.082094 1.120613
  O -0.374456 2.664019 0.095556
  H -1.133711 -1.807855 0.567723
  H -2.597226 -0.851483 0.775653
  H -1.269884 -0.702277 1.933823
  H 0.199674 0.127597 0.053635
  H -2.428317 0.151363 -1.497702
  H -1.012540 -0.857480 -1.824032
  H -0.926154 0.889103 -2.056525
  H -3.021839 1.246412 1.541778
  H -3.103399 2.568242 0.362377
  H -2.297147 2.821868 1.903267
  H 0.349692 2.282846 -0.413008
  O 2.391519 -0.308908 -0.335092
  H 2.814881 0.263172 0.307960
  H 3.024459 -0.486266 -1.031010
 20
 -0.419929
  C -1.540134 -0.856330 0.865855
  C -0.913321 0.239507 0.002986
  C -1.397435 0.091946 -1.456099
  C -1.170442 1.610640 0.524553
  C -2.444237 2.086394 1.126058
  O -0.340200 2.624852 0.075916
  H -1.187746 -1.832369 0.532743
  H -2.626094 -0.841114 0.785711
  H -1.262636 -0.728462 1.910502
  H 0.176564 0.098985 -0.000054
  H -2.484589 0.154888 -1.497418
  H -1.086076 -0.866167 -1.858782
  H -0.983557 0.880633 -2.080329
  H -2.964127 1.270376 1.624534
  H -3.118491 2.518373 0.371586
  H -2.236000 2.875191 1.852245
  H 0.408728 2.222366 -0.377928
  O 2.410185 -0.195234 -0.337231
  H 2.791397 0.277585 0.406206
  H 3.116957 -0.374448 -0.959273
 20
 -0.307626
  C -1.570851 -0.865542 0.843267
  C -0.913712 0.218839 -0.009390
  C -1.370655 0.068927 -1.478464
  C -1.162379 1.598478 0.500743
  C -2.393587 2.079485 1.173085
  O -0.340604 2.608027 0.021972
  H -1.231924 -1.845967 0.513788
  H -2.653071 -0.830978 0.748655
  H -1.305455 -0.744539 1.891611
  H 0.173635 0.061718 0.011784
  H -2.453932 0.131552 -1.539835
  H -1.051359 -0.891955 -1.875065
  H -0.945637 0.856514 -2.097586
  H -2.889001 1.269083 1.696710
  H -3.105685 2.517230 0.461268
  H -2.139390 2.864045 1.886453
  H 0.389551 2.198132 -0.455049
  O 2.354024 -0.118768 -0.307534
  H 2.702547 0.343728 0.458007
  H 3.088810 -0.280678 -0.902733
 20
 0.469244
  C -1.624122 -0.853514 0.787933
  C -0.929686 0.211293 -0.057202
  C -1.321890 0.023907 -1.540851
  C -1.188796 1.603357 0.407776
  C -2.294340 2.076197 1.275141
  O -0.429256 2.617764 -0.159539
  H -1.286440 -1.840201 0.479407
  H -2.703396 -0.807224 0.660963
  H -1.387746 -0.726807 1.841628
  H 0.154937 0.039287 0.008821
  H -2.403687 0.068140 -1.649845
  H -0.972401 -0.940818 -1.901005
  H -0.884076 0.801195 -2.163536
  H -2.710870 1.260013 1.855469
  H -3.105497 2.531416 0.691624
  H -1.926522 2.847750 1.953781
  H 0.251145 2.210454 -0.706164
  O 2.273165 -0.059078 -0.204774
  H 2.561744 0.413405 0.579890
  H 3.051219 -0.212284 -0.744862
 20
 1.780820
  C -1.665169 -0.843927 0.730781
  C -0.948957 0.215181 -0.103889
  C -1.259982 -0.021397 -1.598206
  C -1.252210 1.615233 0.312987
  C -2.159023 2.073694 1.393561
  O -0.596789 2.645950 -0.348043
  H -1.320868 -1.831275 0.434095
  H -2.741239 -0.795098 0.579083
  H -1.453407 -0.718648 1.789666
  H 0.133914 0.048731 0.015685
  H -2.335050 0.004897 -1.766391
  H -0.882393 -0.994391 -1.904297
  H -0.798733 0.734554 -2.231177
  H -2.416180 1.263163 2.066440
  H -3.091654 2.489091 0.991454
  H -1.680421 2.874220 1.960788
  H 0.021181 2.257146 -0.975702
  O 2.192932 -0.036195 -0.054291
  H 2.391450 0.458913 0.744744
  H 3.026818 -0.201714 -0.495896
 20
 4.374121
  C -1.665874 -0.844515 0.702647
  C -0.976681 0.232570 -0.128497
  C -1.190317 -0.040343 -1.631329
  C -1.282193 1.631136 0.279035
  C -2.080721 2.081117 1.441722
  O -0.706329 2.673019 -0.435228
  H -1.261676 -1.814017 0.435816
  H -2.738263 -0.854335 0.525759
  H -1.487818 -0.696055 1.759247
  H 0.109139 0.084224 0.021275
  H -2.253101 -0.039894 -1.874959
  H -0.777302 -1.011554 -1.883762
  H -0.703527 0.702893 -2.253957
  H -2.256981 1.272536 2.141559
  H -3.056233 2.478078 1.130920
  H -1.560887 2.894006 1.952627
  H -0.124828 2.300645 -1.103595
  O 2.040371 -0.055021 0.031492
  H 2.238776 0.469659 0.812478
  H 2.893076 -0.224464 -0.384631
 20
 12.198656
  C -1.642452 -0.862552 0.645656
  C -1.025990 0.271514 -0.155328
  C -1.104314 -0.064236 -1.673985
  C -1.328260 1.665506 0.253216
  C -1.973298 2.079712 1.516401
  O -0.822706 2.713802 -0.506570
  H -1.200063 -1.806471 0.342384
  H -2.723408 -0.924466 0.455672
  H -1.530461 -0.704672 1.706987
  H 0.077119 0.127403 0.009362
  H -2.135230 -0.102011 -2.032141
  H -0.623662 -1.015765 -1.848629
  H -0.575081 0.672213 -2.280755
  H -2.028203 1.245597 2.203022
  H -3.005275 2.415699 1.358896
  H -1.434699 2.911886 1.968800
  H -0.326066 2.337757 -1.242600
  O 1.831243 -0.011079 0.111000
  H 2.011981 0.479170 0.919856
  H 2.724853 -0.187719 -0.215917
 20
 38.315596
  C -1.659536 -0.895775 0.620673
  C -1.042712 0.250054 -0.165958
  C -1.046062 -0.025419 -1.681878
  C -1.298479 1.602087 0.281177
  C -1.904499 2.027512 1.571778
  O -0.879581 2.693831 -0.453731
  H -1.165131 -1.822322 0.340925
  H -2.721656 -0.997885 0.399588
  H -1.497817 -0.788484 1.690630
  H 0.131193 0.125608 -0.006957
  H -2.075677 -0.121166 -2.027419
  H -0.565736 -0.980313 -1.882280
  H -0.547976 0.743219 -2.266616
  H -1.971938 1.222870 2.297273
  H -2.900408 2.443528 1.390713
  H -1.314724 2.844493 1.992029
  H -0.426516 2.401200 -1.247355
  O 1.578087 0.056509 0.065399
  H 1.801979 0.540113 0.872242
  H 2.689984 -0.080204 -0.258584
 20
 55.716039
  C -1.678392 -0.836719 0.663480
  C -1.083449 0.291775 -0.155398
  C -1.075319 -0.034279 -1.647804
  C -1.295305 1.608427 0.245798
  C -1.914951 2.057651 1.528143
  O -0.846220 2.669187 -0.486109
  H -1.209666 -1.776191 0.379841
  H -2.749609 -0.926032 0.479459
  H -1.523518 -0.695780 1.729180
  H 0.313065 0.108254 0.025309
  H -2.101725 -0.095172 -2.013168
  H -0.594980 -0.994240 -1.817628
  H -0.545578 0.703805 -2.246462
  H -2.003639 1.253032 2.248194
  H -2.912599 2.450261 1.324466
  H -1.328327 2.869324 1.956061
  H -0.389606 2.359714 -1.277637
  O 1.483802 0.013837 0.076399
  H 1.736366 0.469939 0.884078
  H 2.928502 -0.262628 -0.366436
 20
 50.666653
  C -1.734578 -0.829438 0.649562
  C -1.144802 0.307553 -0.154758
  C -1.097408 -0.015765 -1.638982
  C -1.324095 1.591882 0.256371
  C -1.939372 2.036308 1.545398
  O -0.865540 2.661882 -0.450499
  H -1.262081 -1.764885 0.356530
  H -2.804292 -0.921167 0.462255
  H -1.582609 -0.700772 1.717329
  H 0.456652 0.095044 0.043659
  H -2.116242 -0.076256 -2.021951
  H -0.613432 -0.976001 -1.802693
  H -0.554862 0.722092 -2.227523
  H -2.048150 1.226527 2.256224
  H -2.925765 2.447309 1.332937
  H -1.340888 2.832183 1.985468
  H -0.426770 2.370320 -1.258738
  O 1.475610 0.030863 0.078486
  H 1.745114 0.478802 0.884527
  H 3.143910 -0.280382 -0.472969
 20
 45.309133
  C -1.814613 -0.822660 0.669719
  C -1.238618 0.303003 -0.151348
  C -1.087985 -0.067773 -1.611952
  C -1.354770 1.586807 0.242411
  C -1.917224 2.069106 1.543929
  O -0.884471 2.641251 -0.485025
  H -1.327742 -1.757527 0.399168
  H -2.881237 -0.933973 0.475750
  H -1.675065 -0.671018 1.735880
  H 0.566013 0.097320 0.079190
  H -2.078969 -0.154549 -2.058794
  H -0.587071 -1.028201 -1.713066
  H -0.516323 0.655456 -2.190971
  H -2.033801 1.273879 2.269675
  H -2.893625 2.511735 1.352253
  H -1.276965 2.848267 1.952500
  H -0.484103 2.334764 -1.310883
  O 1.543026 0.066856 0.096477
  H 1.829891 0.545340 0.880185
  H 3.360310 -0.271772 -0.646563
 20
 42.520743
  C -1.943975 -0.830321 0.658107
  C -1.345179 0.284474 -0.157970
  C -1.060912 -0.115181 -1.588614
  C -1.361400 1.562755 0.250066
  C -1.883592 2.071206 1.560094
  O -0.851860 2.600432 -0.481107
  H -1.446763 -1.768614 0.418643
  H -3.003144 -0.948064 0.427503
  H -1.846252 -0.661683 1.726334
  H 0.636133 0.103858 0.149348
  H -2.003873 -0.204622 -2.130442
  H -0.564573 -1.083162 -1.622153
  H -0.428034 0.590391 -2.124481
  H -2.011428 1.284302 2.293509
  H -2.847611 2.548347 1.388836
  H -1.204846 2.827449 1.949199
  H -0.512408 2.286034 -1.327033
  O 1.605994 0.134960 0.160642
  H 1.874468 0.696743 0.889455
  H 3.445913 -0.152991 -0.911402
 20
 41.219609
  C -2.000800 -0.833602 0.621913
  C -1.441177 0.286752 -0.211738
  C -1.087907 -0.118698 -1.621540
  C -1.391261 1.555413 0.212074
  C -1.780196 2.058005 1.572413
  O -0.956124 2.596832 -0.559096
  H -1.491012 -1.767067 0.385241
  H -3.059414 -0.970729 0.403811
  H -1.900569 -0.652884 1.687228
  H 0.661978 0.103896 0.268846
  H -1.990767 -0.187524 -2.232694
  H -0.615691 -1.098507 -1.618340
  H -0.396817 0.568645 -2.107947
  H -1.788988 1.274037 2.319794
  H -2.772246 2.506309 1.525314
  H -1.080658 2.833879 1.868736
  H -0.736629 2.292305 -1.446141
  O 1.628900 0.132743 0.303409
  H 1.871745 0.748315 0.996675
  H 3.574292 -0.101807 -0.839422
 20
 40.917254
  C -2.008909 -0.829746 0.614142
  C -1.454381 0.288514 -0.224632
  C -1.095345 -0.117037 -1.634452
  C -1.390976 1.555214 0.203630
  C -1.750948 2.050417 1.573944
  O -0.965462 2.600670 -0.574708
  H -1.491305 -1.760500 0.388213
  H -3.066579 -0.976621 0.391310
  H -1.917146 -0.638418 1.678899
  H 0.660607 0.099333 0.286268
  H -1.989898 -0.163446 -2.258554
  H -0.644145 -1.107144 -1.630439
  H -0.382602 0.558432 -2.106286
  H -1.671719 1.276187 2.329180
  H -2.771455 2.431839 1.572049
  H -1.088298 2.874803 1.827781
  H -0.782107 2.300626 -1.470889
  O 1.624627 0.110505 0.354303
  H 1.855763 0.770385 1.011559
  H 3.576937 -0.097699 -0.802780
