 24
 0.000000
  C 0.821194 0.045611 0.327390
  C 2.309136 0.057556 0.115647
  C 3.229720 -0.010716 1.325647
  C 2.579251 -0.088391 2.702161
  H 3.352912 -0.131390 3.464254
  C 2.893861 0.124908 -1.077967
  C 2.340414 0.203832 -2.476677
  C 0.838928 0.219029 -2.745988
  C 0.577962 0.303760 -4.247598
  H 3.977813 0.126882 -1.112908
  H 0.550787 -0.013521 1.375300
  H 0.370829 -0.810803 -0.168843
  H 0.370834 0.952413 -0.069346
  H 3.878492 0.870281 1.309027
  H 3.878502 -0.884255 1.210022
  H 1.961689 -0.979508 2.795217
  H 1.961685 0.786595 2.894874
  H 2.766304 -0.643174 -3.029464
  H 2.766314 1.107667 -2.930678
  H 0.373630 1.078930 -2.265192
  H 0.373631 -0.689501 -2.364983
  H 1.012358 1.210712 -4.663475
  H -0.491417 0.315020 -4.447161
  H 1.012346 -0.550633 -4.762855
 24
 10.655490
  C 0.840811 0.050692 0.237368
  C 2.303173 0.056235 0.139138
  C 3.223867 -0.013152 1.368827
  C 2.576661 -0.090984 2.748066
  H 3.358513 -0.133639 3.503948
  C 2.842392 0.123346 -1.050167
  C 2.304807 0.203104 -2.463682
  C 0.805258 0.219910 -2.761526
  C 0.573430 0.304854 -4.266765
  H 3.941101 0.127035 -1.115514
  H 0.862879 -0.008650 1.288950
  H 0.366890 -0.826719 -0.228011
  H 0.366889 0.974894 -0.126346
  H 3.873731 0.866097 1.347801
  H 3.873738 -0.884453 1.249014
  H 1.964458 -0.985293 2.854176
  H 1.964430 0.785729 2.954131
  H 2.742682 -0.643917 -3.007423
  H 2.742661 1.105875 -2.908646
  H 0.331068 1.080422 -2.288005
  H 0.331047 -0.688444 -2.387811
  H 1.017936 1.210873 -4.673459
  H -0.491746 0.317343 -4.488060
  H 1.017937 -0.549671 -4.772817
