 19
 0.000000
  C 0.923030 0.044317 0.323321
  C 2.385416 0.060274 0.007908
  H 3.038587 0.014786 0.869296
  C 2.966291 0.130712 -1.198578
  C 2.339500 0.209677 -2.568320
  C 0.824500 0.218463 -2.733864
  H 0.587107 0.279402 -3.794414
  C 4.430298 0.131636 -1.217044
  C 5.230525 0.193144 -2.277052
  H 6.304128 0.187476 -2.181173
  H 0.759353 -0.013185 1.398145
  H 0.432387 -0.817804 -0.122750
  H 0.436354 0.950154 -0.032352
  H 2.730458 -0.637181 -3.142912
  H 2.729751 1.117427 -3.041413
  H 0.375010 1.075546 -2.241717
  H 0.376048 -0.689947 -2.343227
  H 4.900120 0.074929 -0.241843
  H 4.888928 0.252442 -3.296962
 19
 5.862626
  C 0.923997 0.015548 0.346457
  C 2.346884 0.039321 -0.008010
  H 3.031830 -0.029456 0.833058
  C 2.953221 0.121992 -1.213461
  C 2.338135 0.209971 -2.579201
  C 0.827456 0.197323 -2.727076
  H 0.581219 0.263865 -3.785696
  C 4.406940 0.141909 -1.210206
  C 5.213750 0.212125 -2.262165
  H 6.284289 0.212551 -2.138098
  H 0.757144 -0.006478 1.405965
  H 0.345933 -0.754756 -0.122198
  H 0.721946 0.983008 -0.071372
  H 2.738686 -0.624048 -3.160507
  H 2.717114 1.125694 -3.039631
  H 0.364311 1.043528 -2.227178
  H 0.398175 -0.724905 -2.343140
  H 4.855112 0.087280 -0.228708
  H 4.861343 0.266746 -3.279721
 19
 17.936284
  C 0.921354 0.034352 0.346171
  C 2.331587 0.010400 -0.000967
  H 3.018055 -0.097869 0.830684
  C 2.948719 0.106822 -1.207749
  C 2.323727 0.214290 -2.580800
  C 0.808092 0.154396 -2.724358
  H 0.554288 0.239944 -3.779603
  C 4.408227 0.145737 -1.199763
  C 5.220560 0.226282 -2.252232
  H 6.290343 0.244567 -2.122334
  H 0.723001 -0.004199 1.408142
  H 0.256288 -0.615841 -0.204018
  H 1.010569 1.024442 -0.050126
  H 2.745170 -0.593195 -3.184479
  H 2.673261 1.152739 -3.019985
  H 0.313941 0.967172 -2.200333
  H 0.416126 -0.792487 -2.367469
  H 4.858828 0.099415 -0.211638
  H 4.868750 0.270984 -3.267858
 19
 31.153988
  C 0.906263 0.038259 0.362989
  C 2.317092 0.013455 -0.010877
  H 3.006902 -0.094323 0.823988
  C 2.944250 0.107720 -1.219850
  C 2.320846 0.217090 -2.593423
  C 0.807938 0.125555 -2.731019
  H 0.546152 0.218229 -3.784371
  C 4.395942 0.147986 -1.197832
  C 5.218096 0.232484 -2.242452
  H 6.284175 0.254478 -2.104836
  H 0.713282 -0.050524 1.420489
  H 0.187353 -0.486678 -0.239897
  H 1.214227 1.022171 0.023246
  H 2.757741 -0.573561 -3.206987
  H 2.649939 1.166629 -3.024052
  H 0.298916 0.922234 -2.191961
  H 0.440973 -0.839009 -2.383486
  H 4.835283 0.102031 -0.210232
  H 4.878410 0.278553 -3.260291
 19
 41.970381
  C 0.890243 0.029125 0.380827
  C 2.302521 0.026861 -0.019537
  H 2.987603 -0.069489 0.821517
  C 2.941513 0.112166 -1.231502
  C 2.318012 0.213272 -2.609440
  C 0.807506 0.113334 -2.737104
  H 0.537555 0.198236 -3.787853
  C 4.395999 0.154888 -1.197777
  C 5.227894 0.239598 -2.235218
  H 6.293228 0.264613 -2.088194
  H 0.705716 -0.114547 1.430298
  H 0.136414 -0.384104 -0.258363
  H 1.355585 0.996526 0.097967
  H 2.757181 -0.577265 -3.222344
  H 2.639232 1.162546 -3.045904
  H 0.300219 0.913656 -2.198727
  H 0.447712 -0.855326 -2.379011
  H 4.827345 0.111557 -0.212168
  H 4.896776 0.284709 -3.256957
 19
 50.051182
  C 0.879852 0.006749 0.392841
  C 2.292862 0.047494 -0.023104
  H 2.977066 -0.041659 0.824737
  C 2.942958 0.119489 -1.240666
  C 2.324832 0.206530 -2.615120
  C 0.810541 0.107525 -2.739243
  H 0.534704 0.179364 -3.797865
  C 4.389669 0.164852 -1.199172
  C 5.226225 0.245402 -2.234531
  H 6.290862 0.268832 -2.083460
  H 0.700913 -0.178531 1.431588
  H 0.102588 -0.310893 -0.273609
  H 1.460980 0.976876 0.156023
  H 2.760111 -0.584725 -3.216224
  H 2.645615 1.149321 -3.062001
  H 0.308876 0.916220 -2.211899
  H 0.452997 -0.846513 -2.370080
  H 4.822344 0.124401 -0.203766
  H 4.897258 0.287154 -3.257602
 19
 56.776482
  C 0.877253 -0.016975 0.390631
  C 2.292275 0.063828 -0.022566
  H 2.963626 -0.022697 0.821297
  C 2.948238 0.126462 -1.238633
  C 2.330416 0.207370 -2.616676
  C 0.803003 0.110698 -2.737199
  H 0.524977 0.175426 -3.788310
  C 4.387570 0.172014 -1.192270
  C 5.231818 0.248209 -2.226137
  H 6.298984 0.269505 -2.069051
  H 0.695575 -0.203787 1.430780
  H 0.095744 -0.288774 -0.283284
  H 1.545683 0.962692 0.159081
  H 2.767254 -0.594941 -3.217715
  H 2.658263 1.155492 -3.075810
  H 0.305216 0.925195 -2.213482
  H 0.436633 -0.855062 -2.353159
  H 4.813389 0.134510 -0.204600
  H 4.906219 0.285750 -3.255600
 19
 61.697551
  C 0.871062 -0.046976 0.399199
  C 2.285598 0.079790 -0.014881
  H 2.966837 -0.008976 0.831029
  C 2.942324 0.131260 -1.242647
  C 2.324242 0.204057 -2.616605
  C 0.822462 0.114006 -2.735713
  H 0.549697 0.171353 -3.774912
  C 4.382264 0.177147 -1.197011
  C 5.226816 0.249871 -2.229443
  H 6.284044 0.272609 -2.072246
  H 0.688709 -0.220694 1.440131
  H 0.079783 -0.284547 -0.286911
  H 1.602591 0.960224 0.160252
  H 2.755330 -0.600894 -3.209312
  H 2.651742 1.140571 -3.080461
  H 0.334086 0.924687 -2.225876
  H 0.462261 -0.820140 -2.356441
  H 4.811680 0.143489 -0.205345
  H 4.906029 0.283339 -3.246244
 19
 64.822350
  C 0.872176 -0.097737 0.399879
  C 2.285013 0.103054 0.002315
  H 2.970549 -0.008003 0.843781
  C 2.952094 0.132575 -1.244609
  C 2.330709 0.199002 -2.617384
  C 0.821973 0.117511 -2.735646
  H 0.547615 0.172673 -3.783572
  C 4.383882 0.184036 -1.195572
  C 5.231677 0.252738 -2.229774
  H 6.294218 0.278905 -2.069795
  H 0.667520 -0.245373 1.440660
  H 0.078228 -0.260057 -0.294818
  H 1.653994 0.987270 0.170743
  H 2.759367 -0.617346 -3.209949
  H 2.661446 1.131410 -3.089021
  H 0.333776 0.943057 -2.223724
  H 0.452611 -0.823360 -2.348476
  H 4.816997 0.157647 -0.197087
  H 4.909982 0.279631 -3.250756
 19
 67.288287
  C 0.881163 -0.134423 0.388840
  C 2.291223 0.120514 0.008556
  H 2.977062 -0.000238 0.852323
  C 2.955412 0.135856 -1.239328
  C 2.337133 0.198781 -2.608812
  C 0.810785 0.122969 -2.736243
  H 0.546462 0.176016 -3.767600
  C 4.384437 0.188977 -1.189878
  C 5.234238 0.253385 -2.224318
  H 6.289676 0.280362 -2.063407
  H 0.663447 -0.257760 1.429093
  H 0.092097 -0.262180 -0.314572
  H 1.715227 1.011679 0.152204
  H 2.760886 -0.612071 -3.188636
  H 2.672908 1.120389 -3.080722
  H 0.326731 0.946228 -2.235408
  H 0.430227 -0.819118 -2.347650
  H 4.819852 0.166994 -0.188301
  H 4.912785 0.276314 -3.249876
 19
 66.653552
  C 0.890295 -0.203718 0.394855
  C 2.279793 0.140952 0.025948
  H 2.967935 0.006778 0.861086
  C 2.960490 0.132711 -1.243212
  C 2.339295 0.194151 -2.610820
  C 0.817681 0.130404 -2.735586
  H 0.549336 0.187409 -3.777613
  C 4.380143 0.192997 -1.188992
  C 5.236194 0.252090 -2.224064
  H 6.302303 0.287032 -2.057794
  H 0.658459 -0.275085 1.436567
  H 0.090996 -0.276185 -0.304516
  H 1.767564 1.081898 0.139471
  H 2.758797 -0.628160 -3.192026
  H 2.681653 1.114094 -3.090074
  H 0.338790 0.961245 -2.228490
  H 0.432594 -0.805377 -2.348069
  H 4.812751 0.182050 -0.192080
  H 4.918902 0.267620 -3.242475
 19
 65.689825
  C 0.906244 -0.251058 0.386734
  C 2.274700 0.158280 0.034124
  H 2.962885 0.013011 0.866413
  C 2.963450 0.137405 -1.241853
  C 2.337850 0.195861 -2.608903
  C 0.818486 0.134826 -2.729032
  H 0.545023 0.192757 -3.780722
  C 4.375248 0.203786 -1.181257
  C 5.239316 0.255767 -2.214650
  H 6.299646 0.285649 -2.041467
  H 0.662595 -0.290236 1.427182
  H 0.106893 -0.287154 -0.316274
  H 1.839351 1.137318 0.113289
  H 2.755143 -0.630498 -3.189689
  H 2.682822 1.120039 -3.096621
  H 0.342683 0.969227 -2.219036
  H 0.432356 -0.800288 -2.339148
  H 4.805572 0.195258 -0.180678
  H 4.924962 0.258239 -3.244703
 19
 63.633012
  C 0.923425 -0.306992 0.393653
  C 2.255582 0.181891 0.038443
  H 2.951355 0.036760 0.865903
  C 2.963512 0.144378 -1.245508
  C 2.341062 0.201541 -2.610750
  C 0.822731 0.148825 -2.730035
  H 0.547933 0.215394 -3.782931
  C 4.370592 0.220428 -1.175449
  C 5.241123 0.258986 -2.207654
  H 6.300857 0.276602 -2.029883
  H 0.676531 -0.313802 1.437012
  H 0.112042 -0.339045 -0.299823
  H 1.909932 1.210799 0.066273
  H 2.757100 -0.632320 -3.192829
  H 2.690053 1.120430 -3.100330
  H 0.355071 0.979756 -2.213665
  H 0.431732 -0.789254 -2.343525
  H 4.796823 0.214967 -0.175795
  H 4.931100 0.237759 -3.238174
