 23
 0.000000
  C 0.946517 0.054291 0.173579
  C 2.449489 0.058532 0.098395
  C 3.246549 -0.014202 1.387426
  C 2.460787 -0.087843 2.692385
  H 3.160660 -0.134893 3.526228
  C 3.078355 0.125663 -1.091285
  C 2.333229 0.199371 -2.397582
  H 1.259189 0.191678 -2.261217
  C 4.527933 0.131884 -1.201502
  C 5.223307 0.196211 -2.341635
  O 6.579794 0.200717 -2.421459
  H 0.592301 -0.003359 1.195199
  H 0.537675 -0.799511 -0.366614
  H 0.537677 0.963446 -0.267132
  H 3.895968 0.865731 1.440884
  H 3.895964 -0.894549 1.341555
  H 1.835998 -0.977429 2.729916
  H 1.835989 0.791870 2.829757
  H 2.605677 -0.646281 -3.027240
  H 2.605673 1.110485 -2.928113
  H 5.094523 0.079981 -0.281584
  H 4.787464 0.251724 -3.325523
  H 6.956671 0.150625 -1.533594
 23
 9.985759
  C 0.863016 0.054415 0.171390
  C 2.495139 0.059429 0.082511
  C 3.287202 -0.012902 1.364397
  C 2.427094 -0.092612 2.776918
  H 3.124288 -0.139590 3.609497
  C 3.111630 0.126528 -1.106608
  C 2.355376 0.199833 -2.405766
  H 1.282689 0.191522 -2.258441
  C 4.559638 0.133376 -1.227931
  C 5.243606 0.197869 -2.371013
  O 6.598261 0.203001 -2.461951
  H 0.519049 -0.003349 1.195039
  H 0.456583 -0.798795 -0.366534
  H 0.456585 0.962726 -0.267133
  H 3.933535 0.865838 1.424022
  H 3.933537 -0.892765 1.324789
  H 1.804530 -0.981053 2.807409
  H 1.804521 0.786753 2.907165
  H 2.622124 -0.646133 -3.037948
  H 2.622121 1.111544 -2.938771
  H 5.134028 0.081727 -0.312512
  H 4.799320 0.253171 -3.351174
  H 6.982679 0.153086 -1.577191
 23
 30.848063
  C 0.810143 0.053477 0.187975
  C 2.572835 0.058695 0.095493
  C 3.321118 -0.013993 1.383640
  C 2.328402 -0.097608 2.865358
  H 3.021912 -0.144384 3.694883
  C 3.157608 0.127819 -1.129484
  C 2.366981 0.200093 -2.410314
  H 1.301891 0.189699 -2.226158
  C 4.605856 0.136242 -1.278682
  C 5.262863 0.201390 -2.433378
  O 6.615262 0.208254 -2.554991
  H 0.510736 -0.004645 1.217916
  H 0.444459 -0.805515 -0.357879
  H 0.444460 0.968426 -0.257773
  H 3.953929 0.866304 1.494369
  H 3.953941 -0.901162 1.394633
  H 1.724947 -0.992700 2.836553
  H 1.724986 0.795049 2.937417
  H 2.616789 -0.645364 -3.050217
  H 2.616785 1.112160 -2.951041
  H 5.198816 0.085141 -0.373001
  H 4.795325 0.256088 -3.402840
  H 7.021510 0.158894 -1.680077
 23
 55.553824
  C 0.738159 0.054216 0.174976
  C 2.629480 0.059618 0.079244
  C 3.363812 -0.012949 1.365359
  C 2.282107 -0.102136 2.945767
  H 3.004615 -0.147180 3.744217
  C 3.169208 0.128508 -1.141657
  C 2.368930 0.200181 -2.411931
  H 1.307072 0.188803 -2.210283
  C 4.613996 0.137203 -1.295681
  C 5.266108 0.202635 -2.455441
  O 6.621430 0.210097 -2.587664
  H 0.495030 -0.004234 1.210824
  H 0.425039 -0.815470 -0.376294
  H 0.425041 0.980396 -0.274958
  H 3.974155 0.871865 1.544291
  H 3.974170 -0.912297 1.443617
  H 1.699476 -1.003372 2.860478
  H 1.699509 0.802935 2.962404
  H 2.610984 -0.646630 -3.053151
  H 2.610976 1.113731 -2.953812
  H 5.203827 0.085907 -0.386492
  H 4.789131 0.257167 -3.421991
  H 7.035083 0.160903 -1.715723
 23
 82.931762
  C 0.649299 0.054050 0.177819
  C 2.670272 0.060337 0.066403
  C 3.401388 -0.011539 1.340253
  C 2.247306 -0.106813 3.028539
  H 2.983923 -0.151400 3.818840
  C 3.193903 0.129434 -1.158137
  C 2.383621 0.200690 -2.420957
  H 1.322026 0.188695 -2.208368
  C 4.643916 0.138525 -1.319206
  C 5.293296 0.204138 -2.482088
  O 6.641251 0.211787 -2.617641
  H 0.423637 -0.005373 1.230901
  H 0.346281 -0.823563 -0.377080
  H 0.346282 0.988517 -0.274828
  H 4.003262 0.874887 1.535115
  H 4.003264 -0.914252 1.434156
  H 1.669165 -1.012708 2.930225
  H 1.669165 0.804392 3.032757
  H 2.620222 -0.645726 -3.063464
  H 2.620221 1.114014 -2.964171
  H 5.233763 0.087374 -0.412625
  H 4.814701 0.258459 -3.444848
  H 7.056184 0.162723 -1.748050
 23
 108.478297
  C 0.587026 0.053832 0.181656
  C 2.737871 0.060144 0.069766
  C 3.432039 -0.011096 1.332293
  C 2.173151 -0.111224 3.106681
  H 2.923347 -0.154709 3.877414
  C 3.224259 0.129756 -1.163844
  C 2.388592 0.200043 -2.409441
  H 1.333144 0.186510 -2.169544
  C 4.678464 0.140141 -1.347873
  C 5.315631 0.206846 -2.530057
  O 6.653140 0.215623 -2.685583
  H 0.402504 -0.006209 1.245641
  H 0.323683 -0.829360 -0.377638
  H 0.323685 0.994339 -0.274727
  H 4.008589 0.871439 1.582831
  H 4.008581 -0.916182 1.481949
  H 1.615867 -1.018268 2.962106
  H 1.615854 0.806345 3.065062
  H 2.611809 -0.646705 -3.056548
  H 2.611804 1.114196 -2.957174
  H 5.275815 0.089192 -0.444942
  H 4.822758 0.260640 -3.483397
  H 7.078218 0.167165 -1.826821
 23
 130.498539
  C 0.553585 0.053883 0.180832
  C 2.827803 0.059920 0.073806
  C 3.475116 -0.011628 1.341780
  C 2.083900 -0.115890 3.189534
  H 2.832344 -0.158682 3.947974
  C 3.265425 0.130333 -1.174022
  C 2.400592 0.199411 -2.398236
  H 1.354320 0.184359 -2.131428
  C 4.709816 0.142590 -1.391210
  C 5.313263 0.209637 -2.579461
  O 6.641545 0.220141 -2.765649
  H 0.409358 -0.005293 1.229488
  H 0.322845 -0.826016 -0.375707
  H 0.322847 0.990809 -0.273185
  H 4.000181 0.872718 1.671020
  H 4.000192 -0.927396 1.569444
  H 1.550009 -1.018712 3.001205
  H 1.550017 0.802368 3.103962
  H 2.609268 -0.648098 -3.050967
  H 2.609259 1.114928 -2.951452
  H 5.324625 0.092072 -0.495926
  H 4.796542 0.262750 -3.520727
  H 7.080993 0.172747 -1.925688
