 17
 0.000000
  H 1.405224 0.134920 0.386628
  C 2.475139 0.140018 0.399085
  C 3.241227 0.613797 1.578372
  C 2.445071 1.099206 2.786946
  H 3.098730 1.415018 3.573007
  C 3.096863 -0.322475 -0.752613
  C 4.472906 -0.413204 -0.978851
  C 5.132414 -0.867699 -2.111643
  H 4.763744 -1.241749 -3.043882
  O 6.457488 -0.870547 -2.119086
  H 3.897288 1.429656 1.253616
  H 3.897458 -0.199872 1.908184
  H 1.806291 0.298662 3.165430
  H 1.806160 1.939037 2.506526
  H 2.436796 -0.639606 -1.542199
  H 5.100515 -0.083792 -0.158214
  H 6.834017 -0.535875 -1.285013
 17
 0.000000
  H 1.434667 0.114443 0.335634
  C 2.534505 0.123406 0.357710
  C 3.289014 0.599760 1.543409
  C 2.481056 1.082454 2.745221
  H 3.126991 1.400466 3.536763
  C 3.130012 -0.323806 -0.755934
  C 4.442091 -0.408457 -0.967037
  C 5.078532 -0.846466 -2.058756
  H 4.729142 -1.223076 -2.997372
  O 6.340494 -0.831423 -2.021635
  H 3.945025 1.417840 1.224185
  H 3.945193 -0.211687 1.878755
  H 1.841821 0.279746 3.118317
  H 1.841692 1.920121 2.459412
  H 2.469899 -0.640924 -1.545488
  H 5.067826 -0.078547 -0.145170
  H 6.669371 -0.478355 -1.141722
 17
 0.000000
  H 1.462062 0.093740 0.284076
  C 2.595185 0.107200 0.317342
  C 3.336868 0.586344 1.509992
  C 2.515986 1.066000 2.704242
  H 3.153352 1.386406 3.501745
  C 3.166228 -0.325217 -0.759458
  C 4.413985 -0.404411 -0.956969
  C 5.027878 -0.826558 -2.009169
  H 4.697842 -1.205585 -2.953804
  O 6.225464 -0.795333 -1.931742
  H 3.992761 1.406871 1.196861
  H 3.992926 -0.222656 1.851432
  H 1.876310 0.260908 3.071398
  H 1.876183 1.901282 2.412492
  H 2.505870 -0.642265 -1.548835
  H 5.038366 -0.074141 -0.134217
  H 6.501782 -0.422488 -1.002544
 17
 0.000000
  H 1.487073 0.072793 0.231912
  C 2.657079 0.091454 0.278123
  C 3.384681 0.573589 1.478223
  C 2.549788 1.049877 2.664084
  H 3.177731 1.372858 3.468001
  C 3.205398 -0.326689 -0.763131
  C 4.388818 -0.400957 -0.948378
  C 4.980651 -0.807938 -1.962788
  H 4.669822 -1.189213 -2.913022
  O 6.112919 -0.762380 -1.849660
  H 4.040370 1.396785 1.171740
  H 4.040533 -0.232742 1.826311
  H 1.909704 0.242180 3.024753
  H 1.909580 1.882554 2.365847
  H 2.544641 -0.643621 -1.552220
  H 5.012385 -0.070470 -0.125096
  H 6.330784 -0.368714 -0.868576
 17
 0.000000
  H 1.508314 0.051647 0.179252
  C 2.720056 0.076340 0.240478
  C 3.432250 0.561661 1.448514
  C 2.582239 1.034222 2.625094
  H 3.199851 1.359960 3.435877
  C 3.247536 -0.328228 -0.766972
  C 4.366940 -0.398135 -0.941357
  C 4.937257 -0.790854 -1.920235
  H 4.645187 -1.174184 -2.875584
  O 6.003715 -0.732927 -1.776297
  H 4.087630 1.387758 1.149255
  H 4.087790 -0.241768 1.803828
  H 1.941798 0.223692 2.978708
  H 1.941677 1.864066 2.319801
  H 2.586157 -0.644980 -1.555612
  H 4.990410 -0.067616 -0.118013
  H 6.156340 -0.317227 -0.740303
 17
 0.000000
  H 1.523689 0.030211 0.125871
  C 2.784323 0.061999 0.204755
  C 3.479592 0.550718 1.421258
  C 2.613221 1.019137 2.587523
  H 3.219462 1.347829 3.405667
  C 3.292944 -0.329853 -0.771031
  C 4.348701 -0.395988 -0.936020
  C 4.897998 -0.775559 -1.882136
  H 4.623951 -1.160733 -2.842075
  O 5.898242 -0.707268 -1.712384
  H 4.134529 1.379979 1.129877
  H 4.134685 -0.249547 1.784451
  H 1.972493 0.205514 2.933434
  H 1.972375 1.845888 2.274527
  H 2.630604 -0.646327 -1.558976
  H 4.973044 -0.065693 -0.113249
  H 5.977265 -0.267837 -0.617249
 17
 0.000000
  H 1.532298 0.008705 0.072316
  C 2.848717 0.048705 0.171642
  C 3.525796 0.540961 1.396953
  C 2.642129 1.004872 2.551996
  H 3.236124 1.336657 3.377843
  C 3.340721 -0.331536 -0.775234
  C 4.334561 -0.394461 -0.932226
  C 4.863679 -0.762263 -1.849018
  H 4.606401 -1.149041 -2.812947
  O 5.798720 -0.685770 -1.658834
  H 4.180140 1.373593 1.113973
  H 4.180292 -0.255932 1.768547
  H 2.001212 0.187948 2.889684
  H 2.001098 1.828322 2.230777
  H 2.677116 -0.647642 -1.562262
  H 4.960777 -0.064651 -0.110682
  H 5.795780 -0.221701 -0.502299
 17
 0.000000
  H 1.531597 -0.012956 0.018376
  C 2.913055 0.036664 0.141646
  C 3.570564 0.532591 1.376107
  C 2.668610 0.991592 2.518921
  H 3.249400 1.326609 3.352821
  C 3.390868 -0.333297 -0.779629
  C 4.324890 -0.393603 -0.930098
  C 4.834736 -0.751280 -1.821660
  H 4.592593 -1.139414 -2.788959
  O 5.705953 -0.668703 -1.616320
  H 4.224137 1.368822 1.102090
  H 4.224284 -0.260703 1.756665
  H 2.027627 0.171141 2.847825
  H 2.027518 1.811514 2.188917
  H 2.725575 -0.648911 -1.565429
  H 4.954231 -0.064612 -0.110614
  H 5.611310 -0.178731 -0.395233
 17
 0.000000
  H 1.519244 -0.034754 -0.035904
  C 2.976556 0.026148 0.115450
  C 3.613201 0.525843 1.359300
  C 2.692110 0.979538 2.488901
  H 3.258790 1.317895 3.331124
  C 3.442839 -0.335127 -0.784198
  C 4.319987 -0.393428 -0.929672
  C 4.811647 -0.742920 -1.800837
  H 4.582517 -1.132152 -2.770861
  O 5.621232 -0.656336 -1.585512
  H 4.265801 1.365877 1.094754
  H 4.265943 -0.263648 1.749330
  H 2.051210 0.155355 2.808509
  H 2.051105 1.795729 2.149601
  H 2.775344 -0.650095 -1.568389
  H 4.953902 -0.065650 -0.113230
  H 5.424368 -0.139257 -0.296875
 17
 0.000000
  H 1.493217 -0.056639 -0.090399
  C 3.038237 0.017448 0.093777
  C 3.652913 0.520949 1.347111
  C 2.712068 0.968981 2.462608
  H 3.263855 1.310740 3.313308
  C 3.495816 -0.336964 -0.788785
  C 4.319902 -0.393881 -0.930809
  C 4.794594 -0.737374 -1.787022
  H 4.575902 -1.127442 -2.759115
  O 5.545551 -0.648736 -1.566579
  H 4.304326 1.364950 1.092445
  H 4.304463 -0.264575 1.747021
  H 2.071423 0.140900 2.772507
  H 2.071323 1.781273 2.113599
  H 2.825526 -0.651109 -1.570920
  H 4.959976 -0.067760 -0.118516
  H 5.235578 -0.103595 -0.208012
 17
 0.000000
  H 1.451171 -0.078574 -0.145016
  C 3.096952 0.010873 0.077397
  C 3.688762 0.518164 1.340174
  C 2.727777 0.960219 2.440789
  H 3.264024 1.305397 3.300004
  C 3.548879 -0.338736 -0.793207
  C 4.324711 -0.394907 -0.933369
  C 4.783792 -0.734838 -1.780704
  H 4.572532 -1.125479 -2.754209
  O 5.479954 -0.645913 -1.559543
  H 4.338766 1.366253 1.095694
  H 4.338896 -0.263271 1.750270
  H 2.087576 0.128114 2.740663
  H 2.087481 1.768487 2.081755
  H 2.875152 -0.651859 -1.572796
  H 4.972613 -0.070929 -0.126439
  H 5.046134 -0.071901 -0.129033
 17
 0.000000
  H 1.389210 -0.100283 -0.199069
  C 3.151122 0.006888 0.067468
  C 3.719744 0.517847 1.339385
  C 2.738764 0.953759 2.424701
  H 3.259214 1.302277 3.292239
  C 3.600631 -0.340367 -0.797278
  C 4.334388 -0.396581 -0.937545
  C 4.779163 -0.735819 -1.783147
  H 4.571515 -1.126734 -2.757318
  O 5.425452 -0.648214 -1.565267
  H 4.368141 1.370043 1.105134
  H 4.368265 -0.259482 1.759711
  H 2.099194 0.117606 2.714492
  H 2.099106 1.757980 2.055585
  H 2.922568 -0.652190 -1.573623
  H 4.992105 -0.075351 -0.137484
  H 4.858279 -0.044175 -0.059938
 17
 0.000000
  H 1.359761 -0.109534 -0.222105
  C 3.165868 0.005051 0.062893
  C 3.725095 0.517448 1.338393
  C 2.736131 0.950848 2.417453
  H 3.250170 1.300685 3.288278
  C 3.616591 -0.341986 -0.801310
  C 4.338312 -0.398187 -0.941544
  C 4.779626 -0.737911 -1.788352
  H 4.573159 -1.128915 -2.762738
  O 5.410365 -0.650844 -1.571813
  H 4.372792 1.371296 1.108259
  H 4.372913 -0.258229 1.762836
  H 2.096867 0.113065 2.703183
  H 2.096782 1.753438 2.044275
  H 2.937719 -0.653565 -1.577046
  H 4.998990 -0.077797 -0.143585
  H 4.794388 -0.036074 -0.039744
 17
 0.000000
  H 1.201233 -0.148248 -0.318494
  C 3.255424 0.006508 0.066513
  C 3.772108 0.525061 1.357355
  C 2.747864 0.946918 2.407668
  H 3.232793 1.302473 3.292741
  C 3.707489 -0.341817 -0.800903
  C 4.364134 -0.399841 -0.945671
  C 4.779077 -0.744841 -1.805616
  H 4.568843 -1.135581 -2.779302
  O 5.327653 -0.663914 -1.604357
  H 4.416276 1.386311 1.145660
  H 4.416386 -0.243213 1.800237
  H 2.110354 0.101819 2.675174
  H 2.110279 1.742193 2.016267
  H 3.017310 -0.649929 -1.567996
  H 5.048788 -0.086501 -0.165326
  H 4.432583 0.003727 0.059445
