13

C 1.007639 -0.073292 0.044176
C 2.503827 -0.082216 0.026658
C 3.220518 -0.59457 -0.97918
C 4.659585 -0.604704 -0.999074
C 5.377586 -1.12067 -2.011999
H 6.447472990855631 -1.127729602215034 -2.025855002830898
H 0.644977 0.393123 0.959824
H 0.612713 -1.088573 0.007324
H 0.612714 0.493845 -0.798744
H 3.001438 0.35395 0.882929
H 2.709582 -1.028064 -1.830192
H 5.164551 -0.169914 -0.145512
H 4.87261 -1.55545 -2.865545
