 13
 0.000000
  C 1.008976 -0.072913 0.044920
  C 2.505475 -0.083312 0.024506
  C 3.219564 -0.594543 -0.979126
  C 4.660757 -0.606893 -1.003371
  C 5.371244 -1.118502 -2.007741
  H 6.445017 -1.124694 -2.019896
  H 0.645532 0.392816 0.959219
  H 0.614179 -1.087309 0.005610
  H 0.614181 0.491714 -0.798727
  H 3.004889 0.352094 0.879284
  H 2.708349 -1.027633 -1.829346
  H 5.166497 -0.172460 -0.150509
  H 4.870555 -1.552632 -2.860013
 13
 0.471391
  C 1.000378 -0.047256 0.060515
  C 2.484712 -0.230449 0.047584
  C 3.206963 -0.659906 -0.996830
  C 4.648366 -0.623649 -1.012877
  C 5.385205 -1.083060 -2.017254
  H 6.458996 -1.016198 -2.017273
  H 0.706387 0.648021 0.841790
  H 0.493546 -0.995046 0.245429
  H 0.651284 0.330175 -0.900795
  H 2.999286 0.055180 0.957678
  H 2.714691 -0.972007 -1.910621
  H 5.125631 -0.180096 -0.148750
  H 4.933509 -1.534763 -2.886088
 13
 9.867494
  C 1.023888 0.051619 0.066468
  C 2.450108 -0.382971 -0.026075
  C 3.180533 -0.934409 -0.995240
  C 4.605524 -0.618534 -1.001421
  C 5.417082 -0.985599 -2.010613
  H 6.467115 -0.744693 -2.015637
  H 0.921352 0.807295 0.838086
  H 0.362811 -0.780886 0.317224
  H 0.683127 0.459568 -0.884804
  H 2.945179 -0.268830 0.939122
  H 2.721374 -1.196345 -1.941687
  H 5.015280 -0.116258 -0.135755
  H 5.042309 -1.494116 -2.884648
 13
 53.805759
  C 1.198469 0.160539 -0.035961
  C 2.532669 -0.536413 -0.080106
  C 3.189724 -1.401432 -0.883190
  C 4.492268 -0.601847 -0.883380
  C 5.253528 -0.786676 -1.979292
  H 6.283546 -0.462883 -2.003771
  H 1.189994 0.894236 0.763311
  H 0.391872 -0.556436 0.142772
  H 0.982895 0.656694 -0.981493
  H 2.850415 -0.584178 0.964157
  H 2.690248 -1.604420 -1.825654
  H 4.935932 -0.164064 -0.007630
  H 4.867718 -1.201132 -2.893042
 13
 84.298344
  C 1.648167 0.215553 -0.242010
  C 2.752534 -0.817043 -0.070708
  C 3.080388 -1.934936 -0.893109
  C 4.233552 -0.540159 -0.604058
  C 4.812823 -0.469066 -1.804362
  H 5.817103 -0.088427 -1.895915
  H 1.661123 0.933852 0.572275
  H 0.684851 -0.293396 -0.247469
  H 1.750854 0.757965 -1.185054
  H 2.857150 -1.020879 0.997267
  H 2.502361 -1.933263 -1.832795
  H 4.758761 -0.189471 0.273004
  H 4.339660 -0.782300 -2.718433
 13
 85.312723
  C 1.818630 0.189534 -0.275529
  C 2.866772 -0.955055 -0.237227
  C 2.762531 -2.080189 -1.138799
  C 4.272680 -0.417856 -0.467080
  C 4.845493 -0.318440 -1.648824
  H 5.814092 0.139141 -1.773632
  H 1.863546 0.789155 0.631415
  H 0.820931 -0.234893 -0.369409
  H 1.988875 0.839165 -1.133348
  H 2.840695 -1.291279 0.806947
  H 1.951321 -2.050893 -1.883291
  H 4.731868 -0.051415 0.441884
  H 4.369644 -0.686617 -2.541794
 13
 85.944954
  C 1.876143 0.190201 -0.348170
  C 2.938359 -0.918052 -0.248555
  C 2.691343 -2.165390 -1.067057
  C 4.248307 -0.340354 -0.446195
  C 4.820033 -0.246322 -1.635573
  H 5.784242 0.241029 -1.778675
  H 1.925667 0.863536 0.529522
  H 0.881180 -0.244182 -0.394612
  H 2.040777 0.784997 -1.251833
  H 2.899333 -1.310450 0.772395
  H 1.791290 -2.073208 -1.691897
  H 4.757886 0.073836 0.435967
  H 4.350354 -0.655392 -2.513615
 13
 95.522637
  C 1.906735 0.217670 -0.387538
  C 3.009941 -0.868071 -0.272997
  C 2.630793 -2.239068 -1.014271
  C 4.246335 -0.278657 -0.463598
  C 4.840869 -0.196996 -1.642893
  H 5.777635 0.315307 -1.781778
  H 1.979881 0.925768 0.435615
  H 0.914706 -0.230363 -0.366413
  H 2.024058 0.767285 -1.323803
  H 2.951033 -1.258904 0.762548
  H 1.653496 -2.136127 -1.519586
  H 4.734167 0.170315 0.396782
  H 4.398058 -0.649342 -2.524322
 13
 112.384045
  C 1.929941 0.256525 -0.409200
  C 3.052863 -0.801594 -0.259796
  C 2.578749 -2.322962 -0.972629
  C 4.245496 -0.224399 -0.482069
  C 4.841210 -0.169824 -1.664092
  H 5.769713 0.354185 -1.820898
  H 2.010362 1.008652 0.377136
  H 0.945348 -0.201199 -0.344440
  H 2.021637 0.757466 -1.373085
  H 2.998125 -1.163683 0.787547
  H 1.579910 -2.214088 -1.433064
  H 4.733512 0.262106 0.359131
  H 4.408375 -0.657321 -2.526069
 13
 131.586411
  C 1.951416 0.296065 -0.429866
  C 3.090715 -0.733538 -0.242796
  C 2.515724 -2.408802 -0.924607
  C 4.254136 -0.168790 -0.499415
  C 4.845426 -0.140224 -1.685998
  H 5.767821 0.387880 -1.862061
  H 2.033256 1.085883 0.317873
  H 0.973392 -0.168610 -0.328310
  H 2.024534 0.750893 -1.418142
  H 3.040298 -1.066694 0.812146
  H 1.504664 -2.280499 -1.358921
  H 4.749433 0.348144 0.322319
  H 4.414424 -0.657134 -2.531586
 13
 148.737448
  C 1.962694 0.308555 -0.464065
  C 3.129483 -0.654997 -0.211145
  C 2.394193 -2.508751 -0.860879
  C 4.297593 -0.107152 -0.523197
  C 4.879093 -0.087022 -1.717678
  H 5.803000 0.436507 -1.902791
  H 2.030652 1.147565 0.224887
  H 0.993183 -0.171313 -0.315071
  H 2.012555 0.699275 -1.477711
  H 3.076488 -0.982150 0.846490
  H 1.379926 -2.255835 -1.256580
  H 4.820212 0.414248 0.298367
  H 4.443217 -0.611408 -2.559659
 13
 164.702322
  C 1.983964 0.352565 -0.499346
  C 3.163169 -0.560907 -0.175722
  C 2.278969 -2.604011 -0.795154
  C 4.341019 -0.056058 -0.539504
  C 4.890891 -0.056033 -1.750673
  H 5.818684 0.437176 -1.959371
  H 2.039768 1.246528 0.132269
  H 1.028069 -0.123711 -0.311731
  H 2.025881 0.674984 -1.544562
  H 3.116001 -0.869630 0.880053
  H 1.289946 -2.255319 -1.181719
  H 4.895725 0.440131 0.268144
  H 4.424368 -0.571810 -2.573600
