 14
 0.000000
  H 1.387681 0.123108 0.357066
  C 2.460703 0.091210 0.278156
  H 3.031788 0.432538 1.126632
  C 3.070771 -0.363292 -0.852143
  C 4.469130 -0.407885 -0.964175
  C 5.196592 -0.855776 -2.081411
  C 4.595381 -1.354626 -3.325710
  H 3.513264 -1.349797 -3.315130
  O 6.494866 -0.848233 -2.063372
  H 2.459018 -0.695371 -1.677994
  H 5.042942 -0.065387 -0.111517
  H 4.961349 -2.364331 -3.520424
  H 4.962323 -0.759881 -4.164171
  H 6.906305 -0.516960 -1.235867
 14
 1.351127
  H 1.377960 0.228752 0.307236
  C 2.444174 0.079680 0.277033
  H 2.985794 0.204825 1.201226
  C 3.078040 -0.260827 -0.878983
  C 4.467873 -0.447188 -0.929890
  C 5.197991 -0.874944 -2.052661
  C 4.588201 -1.434736 -3.267910
  H 3.518464 -1.587442 -3.185288
  O 6.498721 -0.885515 -2.036356
  H 2.495149 -0.367540 -1.782587
  H 5.021710 -0.294413 -0.010739
  H 5.081975 -2.373733 -3.520725
  H 4.805003 -0.767930 -4.106093
  H 6.929304 -0.290962 -1.396026
 14
 6.739036
  H 1.346761 0.201002 0.320739
  C 2.415997 0.068848 0.289283
  H 2.960579 0.236297 1.205454
  C 3.051615 -0.296672 -0.860375
  C 4.441826 -0.464851 -0.906428
  C 5.183902 -0.903372 -2.010913
  C 4.595648 -1.406742 -3.252611
  H 3.518015 -1.451151 -3.238674
  O 6.489454 -0.998183 -1.933613
  H 2.468314 -0.446482 -1.755510
  H 4.994843 -0.280502 0.003052
  H 5.005196 -2.394397 -3.478951
  H 4.940173 -0.774915 -4.073643
  H 7.008953 -0.223388 -1.645876
 14
 12.250664
  H 1.309275 0.190527 0.322971
  C 2.380605 0.092044 0.287906
  H 2.928443 0.336323 1.183746
  C 3.017111 -0.324914 -0.841944
  C 4.413921 -0.459621 -0.885649
  C 5.175688 -0.897473 -1.979356
  C 4.622070 -1.343240 -3.258244
  H 3.541474 -1.310318 -3.301178
  O 6.480266 -1.025706 -1.806495
  H 2.429967 -0.552470 -1.719565
  H 4.970948 -0.220355 0.011917
  H 4.969697 -2.359652 -3.463616
  H 5.048244 -0.746580 -4.068194
  H 7.088353 -0.285609 -1.952465
 14
 8.852764
  H 1.283543 0.143981 0.313004
  C 2.358467 0.106203 0.272898
  H 2.898373 0.480409 1.127560
  C 3.009749 -0.396407 -0.812577
  C 4.410764 -0.465495 -0.856536
  C 5.192254 -0.910603 -1.935434
  C 4.668090 -1.281399 -3.254995
  H 3.593108 -1.185956 -3.331911
  O 6.480157 -1.026185 -1.698707
  H 2.429986 -0.757628 -1.649457
  H 4.966687 -0.110083 0.004441
  H 4.963477 -2.312713 -3.465732
  H 5.140064 -0.689080 -4.041473
  H 7.137048 -0.525986 -2.211889
 14
 1.415264
  H 1.255746 0.055256 0.323180
  C 2.328702 0.106297 0.271417
  H 2.838898 0.612139 1.074755
  C 3.013912 -0.439159 -0.770184
  C 4.414160 -0.393614 -0.832616
  C 5.215522 -0.847181 -1.898321
  C 4.707454 -1.194331 -3.229819
  H 3.640030 -1.044386 -3.324079
  O 6.483663 -0.924711 -1.638293
  H 2.461784 -0.939316 -1.553801
  H 4.952069 0.052407 -0.006089
  H 4.944794 -2.239130 -3.441635
  H 5.213221 -0.610781 -3.999917
  H 7.106908 -0.923059 -2.396778
 14
 0.994644
  H 1.248235 0.122512 0.285793
  C 2.321033 0.040187 0.286251
  H 2.826806 0.156558 1.230565
  C 3.011099 -0.234065 -0.854765
  C 4.405512 -0.374414 -0.856022
  C 5.205350 -0.806859 -1.930433
  C 4.702635 -1.347663 -3.198674
  H 3.621096 -1.392196 -3.230468
  O 6.479368 -0.757234 -1.682215
  H 2.469122 -0.342316 -1.783751
  H 4.978300 -0.055048 0.007576
  H 5.105943 -2.350986 -3.347067
  H 5.056170 -0.751662 -4.042091
  H 7.106518 -0.838971 -2.428199
 14
 8.001460
  H 1.244825 0.037444 0.250554
  C 2.315139 -0.077518 0.263685
  H 2.776239 -0.329289 1.205602
  C 3.041711 -0.031447 -0.880715
  C 4.431663 -0.256759 -0.901640
  C 5.199189 -0.764849 -1.959287
  C 4.669369 -1.456266 -3.135945
  H 3.581732 -1.450480 -3.145610
  O 6.479852 -0.740770 -1.694602
  H 2.550366 0.198380 -1.823462
  H 5.093632 0.078106 -0.106138
  H 5.033869 -2.486663 -3.134707
  H 5.031472 -1.006545 -4.066588
  H 7.116837 -0.650463 -2.427068
 14
 20.325748
  H 1.233792 0.176593 0.293594
  C 2.270344 -0.132921 0.251674
  H 2.682702 -0.608435 1.126202
  C 3.020075 0.090367 -0.843687
  C 4.378258 -0.295401 -0.928891
  C 5.138435 -0.814145 -1.965899
  C 4.686896 -1.569696 -3.137536
  H 3.618782 -1.737415 -3.088519
  O 6.416968 -0.662995 -1.681674
  H 2.592486 0.608963 -1.691402
  H 5.180252 -0.015721 -0.223178
  H 5.227125 -2.519688 -3.206807
  H 4.870932 -1.018486 -4.058358
  H 7.008920 -0.355947 -2.400461
 14
 43.374601
  H 1.314982 0.156914 0.570520
  C 2.330966 -0.138691 0.391273
  H 2.839933 -0.660908 1.186552
  C 2.931501 0.118164 -0.791001
  C 4.227019 -0.287925 -1.086722
  C 5.034959 -0.813453 -2.079485
  C 4.782499 -1.625499 -3.260154
  H 3.719116 -1.760138 -3.419732
  O 6.295690 -0.611619 -1.642759
  H 2.424098 0.703178 -1.545218
  H 5.243676 -0.098980 -0.486214
  H 5.242586 -2.602493 -3.118874
  H 5.276497 -1.189718 -4.130649
  H 6.955820 -0.135944 -2.167992
 14
 62.188344
  H 1.330985 0.216967 0.657481
  C 2.323149 -0.125033 0.423825
  H 2.847223 -0.671416 1.189229
  C 2.873050 0.107185 -0.794345
  C 4.124498 -0.340134 -1.178119
  C 4.954663 -0.828330 -2.078032
  C 4.828557 -1.650413 -3.292570
  H 3.782813 -1.846199 -3.506622
  O 6.256239 -0.587470 -1.526917
  H 2.343387 0.737608 -1.503169
  H 5.504719 -0.134880 -0.601698
  H 5.353911 -2.595877 -3.169147
  H 5.264419 -1.126784 -4.142646
  H 6.906772 -0.117793 -2.095570
 14
 56.593955
  H 1.310657 0.239579 0.704460
  C 2.295397 -0.120261 0.450110
  H 2.844838 -0.621727 1.222268
  C 2.809817 0.060107 -0.796140
  C 4.051112 -0.376528 -1.196314
  C 4.902236 -0.846264 -2.064990
  C 4.819795 -1.649924 -3.297914
  H 3.778701 -1.836034 -3.544527
  O 6.240437 -0.596853 -1.490295
  H 2.249957 0.653671 -1.514352
  H 5.667517 -0.192536 -0.641649
  H 5.336892 -2.598066 -3.180912
  H 5.271961 -1.098390 -4.120862
  H 6.876297 -0.110253 -2.049915
 14
 46.028543
  H 1.305924 0.241359 0.719699
  C 2.267480 -0.138874 0.433746
  H 2.803055 -0.721388 1.164942
  C 2.778361 0.100506 -0.805386
  C 3.991306 -0.338864 -1.248746
  C 4.888614 -0.814011 -2.052528
  C 4.837270 -1.653467 -3.268845
  H 3.804903 -1.829384 -3.560398
  O 6.273927 -0.590108 -1.524862
  H 2.234999 0.759325 -1.475924
  H 5.952678 -0.179224 -0.687522
  H 5.331921 -2.609152 -3.093070
  H 5.342772 -1.150294 -4.088563
  H 6.879907 -0.097436 -2.127333
 14
 42.892951
  H 1.253592 0.211514 0.655686
  C 2.242669 -0.124580 0.408095
  H 2.780103 -0.659938 1.165218
  C 2.767211 0.095815 -0.814805
  C 4.013676 -0.315632 -1.223289
  C 4.913929 -0.784671 -2.029680
  C 4.819526 -1.618717 -3.249834
  H 3.777908 -1.792573 -3.496786
  O 6.316824 -0.635355 -1.558836
  H 2.207070 0.713232 -1.515378
  H 6.181966 -0.260541 -0.661565
  H 5.309858 -2.576589 -3.105564
  H 5.289666 -1.094680 -4.079509
  H 6.914397 -0.141798 -2.166058
 14
 37.059598
  H 1.262745 0.199246 0.652118
  C 2.167302 -0.249089 0.291331
  H 2.521860 -1.132266 0.794400
  C 2.831946 0.274924 -0.786607
  C 3.978455 -0.224523 -1.296979
  C 4.916728 -0.758700 -1.999597
  C 4.817331 -1.713149 -3.140984
  H 3.778113 -1.955022 -3.336441
  O 6.333063 -0.548869 -1.640714
  H 2.451928 1.178814 -1.249320
  H 6.421678 -0.124788 -0.757748
  H 5.355188 -2.629555 -2.897680
  H 5.245546 -1.279311 -4.043427
  H 6.825805 -0.053303 -2.336369
