 26
 0.000000
  C 0.973061 0.139069 0.397075
  C 2.448754 0.138908 0.396165
  C 3.234077 0.607792 1.563200
  C 2.455546 1.096283 2.779713
  H 3.133380 1.410502 3.561845
  C 3.069251 -0.324585 -0.758226
  C 4.445562 -0.410478 -0.972212
  C 5.120550 -0.862890 -2.099792
  C 4.622451 -1.385179 -3.401508
  C 3.132652 -1.501572 -3.692212
  H 2.981745 -1.900460 -4.686386
  O 6.442934 -0.859643 -2.091848
  H 0.538984 0.509123 1.318453
  H 0.602579 -0.872798 0.227849
  H 0.602258 0.752597 -0.425034
  H 3.890873 1.418757 1.229091
  H 3.891148 -0.208753 1.882818
  H 1.820904 0.303123 3.171410
  H 1.820698 1.939905 2.514047
  H 2.414264 -0.642956 -1.551058
  H 5.068553 -0.080074 -0.149193
  H 5.079165 -2.373397 -3.526826
  H 5.079470 -0.757902 -4.175180
  H 2.655232 -0.525201 -3.644497
  H 2.654925 -2.174001 -2.982897
  H 6.824476 -0.525645 -1.258349
 26
 15.158304
  C 1.090445 0.080229 0.251636
  C 2.554012 0.121223 0.351575
  C 3.245226 0.606597 1.559606
  C 2.368611 1.072377 2.720578
  H 2.999326 1.402355 3.543018
  C 3.291339 -0.334054 -0.782639
  C 4.634571 -0.349762 -0.822814
  C 5.043997 -0.826406 -2.009007
  C 4.451926 -1.329419 -3.261633
  C 2.971534 -1.445575 -3.554847
  H 2.862888 -1.849575 -4.557833
  O 6.410544 -0.901455 -2.194214
  H 0.583655 0.436850 1.140263
  H 0.764026 -0.942696 0.042505
  H 0.763038 0.673931 -0.606752
  H 3.906120 1.434777 1.270348
  H 3.906943 -0.192214 1.920556
  H 1.738112 0.265703 3.085834
  H 1.738110 1.907777 2.427016
  H 2.675232 -0.666735 -1.610653
  H 5.291493 -0.030129 -0.027917
  H 4.919838 -2.310778 -3.383151
  H 4.916249 -0.707888 -4.032903
  H 2.479985 -0.475979 -3.546871
  H 2.477474 -2.137574 -2.877309
  H 6.922903 -0.591550 -1.419160
 26
 48.408268
  C 1.186900 0.024992 0.115244
  C 2.634398 0.115970 0.338533
  C 3.231180 0.620022 1.590162
  C 2.275633 1.058903 2.686530
  H 2.845612 1.404429 3.543960
  C 3.516752 -0.324938 -0.759751
  C 4.842770 -0.301757 -0.702784
  C 5.012763 -0.788947 -1.914183
  C 4.323531 -1.288753 -3.162459
  C 2.832594 -1.400646 -3.444920
  H 2.741911 -1.805095 -4.451631
  O 6.391338 -0.954156 -2.320880
  H 0.602702 0.363954 0.959328
  H 0.912079 -1.002311 -0.117614
  H 0.910211 0.603793 -0.764258
  H 3.888252 1.456076 1.338511
  H 3.892366 -0.153916 1.987351
  H 1.647069 0.235405 3.016356
  H 1.642854 1.879144 2.357214
  H 2.940288 -0.660670 -1.595036
  H 5.534358 -0.002817 0.041905
  H 4.762995 -2.281046 -3.311703
  H 4.766950 -0.675865 -3.955085
  H 2.326316 -0.442432 -3.449965
  H 2.328038 -2.096383 -2.784673
  H 7.006396 -0.679371 -1.630807
 26
 91.843887
  C 1.230777 0.002126 0.059143
  C 2.666374 0.107406 0.315700
  C 3.232937 0.615272 1.576214
  C 2.246259 1.044766 2.653944
  H 2.786973 1.393121 3.518044
  C 3.601366 -0.334761 -0.785683
  C 4.925071 -0.275511 -0.641954
  C 4.925481 -0.765775 -1.857530
  C 4.277466 -1.271728 -3.118051
  C 2.772838 -1.379105 -3.391202
  H 2.671880 -1.780187 -4.389822
  O 6.401736 -0.975175 -2.370092
  H 0.633084 0.334855 0.886809
  H 0.965746 -1.031654 -0.176767
  H 0.963282 0.582532 -0.827646
  H 3.889870 1.460373 1.339581
  H 3.895640 -0.154822 1.987412
  H 1.617545 0.215694 2.968157
  H 1.612365 1.857790 2.309333
  H 2.980876 -0.660146 -1.595939
  H 5.638697 0.019626 0.091629
  H 4.725359 -2.264198 -3.261397
  H 4.726790 -0.656940 -3.909691
  H 2.266126 -0.409460 -3.392279
  H 2.263362 -2.078116 -2.722466
  H 7.038262 -0.706756 -1.692021
 26
 131.018706
  C 1.217895 -0.005052 0.038546
  C 2.661842 0.100649 0.297573
  C 3.236792 0.608520 1.559178
  C 2.248822 1.036944 2.637571
  H 2.796167 1.390369 3.513469
  C 3.589130 -0.338724 -0.798035
  C 4.939066 -0.258055 -0.604095
  C 4.793964 -0.745325 -1.809588
  C 4.256178 -1.261512 -3.092145
  C 2.767502 -1.374317 -3.377940
  H 2.672411 -1.780594 -4.390143
  O 6.492231 -1.000887 -2.431192
  H 0.617904 0.332802 0.878501
  H 0.947301 -1.034652 -0.192947
  H 0.945461 0.576053 -0.841730
  H 3.893537 1.453203 1.323063
  H 3.899366 -0.159354 1.973626
  H 1.621654 0.205954 2.949916
  H 1.614417 1.849282 2.291942
  H 2.915475 -0.649985 -1.575228
  H 5.672773 0.032933 0.118225
  H 4.726112 -2.239033 -3.218233
  H 4.732905 -0.645160 -3.857106
  H 2.263817 -0.411272 -3.384346
  H 2.263375 -2.073979 -2.715791
  H 7.121098 -0.734774 -1.757532
 26
 144.698256
  C 1.162118 0.105387 0.029370
  C 2.624252 0.138487 0.264826
  C 3.233451 0.569673 1.550527
  C 2.260858 0.987709 2.645304
  H 2.814737 1.281256 3.532032
  C 3.472600 -0.264805 -0.797512
  C 4.918692 -0.293230 -0.578484
  C 4.618097 -0.635004 -1.783473
  C 4.245849 -1.262914 -3.042291
  C 2.776266 -1.480246 -3.362302
  H 2.720407 -1.948217 -4.342032
  O 6.772515 -0.919527 -2.587986
  H 0.600212 0.430304 0.894148
  H 0.838757 -0.900193 -0.245904
  H 0.896467 0.733333 -0.823134
  H 3.916727 1.402656 1.351265
  H 3.859547 -0.244809 1.930740
  H 1.598504 0.169453 2.917222
  H 1.652702 1.832311 2.330982
  H 2.749941 -0.519737 -1.592060
  H 5.680496 -0.105833 0.137020
  H 4.790571 -2.212796 -3.063832
  H 4.717000 -0.657395 -3.824882
  H 2.224409 -0.542580 -3.437466
  H 2.293497 -2.157363 -2.659109
  H 7.424109 -0.645495 -1.940148
 26
 138.372736
  C 1.042981 0.121860 0.126084
  C 2.525693 0.126808 0.306778
  C 3.172858 0.578591 1.569876
  C 2.248596 1.028300 2.704498
  H 2.848189 1.331400 3.560664
  C 3.304332 -0.288421 -0.763194
  C 4.805424 -0.340718 -0.573023
  C 4.459445 -0.661480 -1.756495
  C 4.251353 -1.267971 -3.041650
  C 2.812424 -1.501312 -3.471985
  H 2.820140 -1.958798 -4.458436
  O 7.341447 -0.968734 -2.855762
  H 0.537147 0.474950 1.016410
  H 0.675730 -0.881431 -0.086283
  H 0.744842 0.764252 -0.704138
  H 3.870842 1.393586 1.342786
  H 3.813705 -0.228280 1.944267
  H 1.592349 0.222978 3.029941
  H 1.637265 1.881344 2.411978
  H 2.593210 -0.554995 -1.564042
  H 5.522678 -0.155021 0.193167
  H 4.821646 -2.207706 -3.049975
  H 4.793574 -0.650352 -3.767938
  H 2.264912 -0.567788 -3.565366
  H 2.307454 -2.200211 -2.807609
  H 8.010012 -0.688555 -2.244823
 26
 120.749260
  C 0.879822 0.149789 0.449630
  C 2.363555 0.155551 0.484803
  C 3.122567 0.655692 1.663012
  C 2.298008 1.128865 2.852486
  H 2.968790 1.469310 3.637189
  C 3.005800 -0.289887 -0.635423
  C 4.480397 -0.374702 -0.695854
  C 4.441251 -0.771569 -1.910091
  C 4.419940 -1.333817 -3.186547
  C 3.053016 -1.573333 -3.841324
  H 3.197397 -2.014277 -4.821785
  O 7.467813 -1.075901 -3.000779
  H 0.451683 0.530396 1.367924
  H 0.504332 -0.859657 0.285099
  H 0.517885 0.753993 -0.381203
  H 3.765279 1.480378 1.338213
  H 3.792311 -0.138050 2.009541
  H 1.686758 0.326714 3.258327
  H 1.652240 1.962066 2.586953
  H 2.352961 -0.604552 -1.441646
  H 5.146829 -0.156022 0.108086
  H 4.960668 -2.289247 -3.107642
  H 5.044431 -0.680567 -3.817631
  H 2.533084 -0.629022 -3.971559
  H 2.451533 -2.263156 -3.257173
  H 8.191816 -0.789148 -2.441554
