15

C -3.470337 1.007309 -0.131873
C -2.03791 0.574005 -0.02801
C -1.647882 -0.497679 0.645625
C -0.240316 -0.982396 0.803809
C 0.793593 -0.109216 0.103585
H 1.2205773844047678 -0.25823191360459513 0.1759452062256536
H -4.094125 0.198009 -0.509736
H -3.572154 1.868403 -0.787775
H -3.855183 1.279957 0.851557
H -1.322251 1.193382 -0.545524
H -2.391503 -1.103525 1.151608
H -0.010616 -1.028587 1.875053
H -0.179239 -2.006689 0.419658
H 0.588514 -0.105261 -0.969721
H 0.690881 0.912563 0.477317
