 32
 0.000000
  C 0.950962 0.145598 0.408105
  C 2.425598 0.138956 0.397347
  C 3.223735 0.603858 1.556545
  C 2.462862 1.097947 2.784491
  C 3.437454 1.534556 3.874442
  C 3.035324 -0.328239 -0.765393
  C 4.411617 -0.407720 -0.967909
  C 5.105521 -0.856549 -2.087888
  C 4.615894 -1.380746 -3.392103
  C 3.127948 -1.504050 -3.695693
  C 2.934660 -2.068546 -5.101117
  O 6.423515 -0.845612 -2.065043
  H 0.530244 0.518326 1.333829
  H 0.573120 -0.862801 0.232660
  H 0.579287 0.754077 -0.417407
  H 3.883393 1.410800 1.217766
  H 3.881627 -0.214446 1.870593
  H 1.826403 0.305153 3.180760
  H 1.828339 1.945909 2.521828
  H 4.071722 0.707033 4.184220
  H 2.895304 1.886245 4.748575
  H 4.073657 2.345148 3.526254
  H 2.367284 -0.643985 -1.548238
  H 5.039144 -0.077441 -0.148996
  H 5.082999 -2.365058 -3.514203
  H 5.081599 -0.753582 -4.161342
  H 2.647597 -0.526705 -3.648490
  H 2.649182 -2.178178 -2.985439
  H 3.383629 -1.417828 -5.847685
  H 1.875921 -2.160955 -5.328803
  H 3.385255 -3.054101 -5.190666
  H 6.819924 -0.513815 -1.237880
 32
 2.399133
  C 1.049731 0.070277 0.339346
  C 2.509874 0.112227 0.418195
  C 3.261519 0.615407 1.585931
  C 2.441535 1.100467 2.779031
  C 3.358940 1.584019 3.898452
  C 3.107097 -0.344109 -0.728757
  C 4.473720 -0.443404 -0.965591
  C 5.133229 -0.886412 -2.103877
  C 4.601455 -1.383117 -3.401006
  C 3.103748 -1.472956 -3.661955
  C 2.855908 -2.013826 -5.068026
  O 6.450893 -0.897968 -2.113116
  H 0.539268 0.496740 1.193132
  H 0.698229 -0.952434 0.197012
  H 0.784530 0.596826 -0.586206
  H 3.909030 1.435253 1.253542
  H 3.936009 -0.177751 1.929973
  H 1.817162 0.291533 3.161503
  H 1.790314 1.923290 2.479902
  H 4.008110 0.782432 4.243697
  H 2.772719 1.928967 4.746574
  H 3.980917 2.410714 3.562482
  H 2.378718 -0.621579 -1.482067
  H 5.122253 -0.135030 -0.153813
  H 5.046947 -2.373698 -3.549838
  H 5.058697 -0.755077 -4.174561
  H 2.646527 -0.486363 -3.587552
  H 2.634365 -2.147630 -2.946100
  H 3.295656 -1.362067 -5.819318
  H 1.789071 -2.081840 -5.264513
  H 3.283690 -3.006804 -5.184486
  H 6.870921 -0.583528 -1.290827
 32
 6.515960
  C 1.096213 0.047436 0.357576
  C 2.552517 0.106333 0.470751
  C 3.281115 0.633230 1.630068
  C 2.426989 1.115150 2.807342
  C 3.310187 1.630055 3.940858
  C 3.139045 -0.356559 -0.704260
  C 4.475354 -0.468049 -0.958582
  C 5.142751 -0.914599 -2.132919
  C 4.594827 -1.398602 -3.450248
  C 3.092607 -1.470698 -3.708195
  C 2.832048 -1.995467 -5.118633
  O 6.488249 -0.937512 -2.147160
  H 0.525635 0.560462 1.125992
  H 0.780045 -0.999238 0.328784
  H 0.933953 0.424644 -0.660017
  H 3.920830 1.460716 1.289765
  H 3.970144 -0.146140 1.991760
  H 1.812389 0.296859 3.182048
  H 1.765994 1.919761 2.485651
  H 3.968895 0.846994 4.307873
  H 2.699767 1.971014 4.772526
  H 3.921081 2.465729 3.608700
  H 2.341186 -0.584854 -1.405670
  H 5.127177 -0.173988 -0.137118
  H 5.030266 -2.392299 -3.612796
  H 5.056313 -0.769065 -4.220747
  H 2.649334 -0.480032 -3.622389
  H 2.621212 -2.145954 -2.996447
  H 3.276217 -1.341945 -5.865610
  H 1.763933 -2.049835 -5.311478
  H 3.248340 -2.991507 -5.246559
  H 6.914874 -0.633906 -1.321606
 32
 12.575219
  C 1.140022 0.013335 0.283953
  C 2.597245 0.093436 0.454069
  C 3.301008 0.631052 1.622167
  C 2.411469 1.101658 2.776123
  C 3.256751 1.630317 3.932374
  C 3.189426 -0.363920 -0.720961
  C 4.549785 -0.486224 -0.990389
  C 5.177519 -0.921581 -2.142905
  C 4.596191 -1.388104 -3.429978
  C 3.087043 -1.432223 -3.631821
  C 2.764719 -1.948873 -5.031522
  O 6.504496 -0.957498 -2.182378
  H 0.526565 0.596763 0.949429
  H 0.832372 -1.027402 0.360148
  H 1.080905 0.255121 -0.799003
  H 3.936314 1.465584 1.290827
  H 3.993928 -0.136080 2.000516
  H 1.797802 0.274752 3.133545
  H 1.747253 1.895941 2.435608
  H 3.916900 0.856787 4.318056
  H 2.619144 1.963700 4.747480
  H 3.864697 2.474499 3.615166
  H 2.349216 -0.566280 -1.399919
  H 5.213554 -0.201937 -0.180249
  H 5.010026 -2.386956 -3.607110
  H 5.043249 -0.764170 -4.211615
  H 2.666319 -0.432667 -3.526958
  H 2.630359 -2.099761 -2.901972
  H 3.193195 -1.301973 -5.793765
  H 1.689183 -1.982986 -5.184518
  H 3.157673 -2.952675 -5.176164
  H 6.951150 -0.657248 -1.357909
 32
 21.218153
  C 1.166926 -0.003324 0.268773
  C 2.611766 0.091191 0.468898
  C 3.306602 0.643354 1.650363
  C 2.408964 1.105035 2.785501
  C 3.236489 1.643743 3.947119
  C 3.205309 -0.364332 -0.705845
  C 4.559302 -0.493862 -0.988049
  C 5.180433 -0.929415 -2.154793
  C 4.589579 -1.389505 -3.443709
  C 3.085215 -1.426003 -3.636710
  C 2.753372 -1.937753 -5.037880
  O 6.500410 -0.971319 -2.204741
  H 0.538673 0.619033 0.855105
  H 0.858377 -1.025162 0.417321
  H 1.192786 0.138217 -0.847674
  H 3.932394 1.474937 1.323299
  H 3.997937 -0.105405 2.038689
  H 1.798416 0.270937 3.137237
  H 1.739589 1.893349 2.434222
  H 3.900773 0.876213 4.341845
  H 2.586281 1.973774 4.755847
  H 3.840507 2.493718 3.633015
  H 2.318852 -0.537403 -1.360874
  H 5.222535 -0.220902 -0.195294
  H 4.996734 -2.390745 -3.624857
  H 5.034819 -0.762782 -4.225456
  H 2.670502 -0.424174 -3.526074
  H 2.629776 -2.093516 -2.904854
  H 3.181272 -1.290387 -5.800949
  H 1.675683 -1.966493 -5.185804
  H 3.141308 -2.943837 -5.187617
  H 6.946221 -0.680806 -1.396041
 32
 31.188651
  C 1.186092 0.009284 0.262633
  C 2.625628 0.100413 0.473739
  C 3.311845 0.645336 1.659501
  C 2.404418 1.100409 2.787078
  C 3.220601 1.632230 3.960025
  C 3.221048 -0.353062 -0.703869
  C 4.570874 -0.485626 -0.996816
  C 5.182778 -0.923624 -2.168278
  C 4.585432 -1.389774 -3.454920
  C 3.082046 -1.429395 -3.641543
  C 2.745196 -1.949320 -5.039522
  O 6.496146 -0.963949 -2.225265
  H 0.539123 0.695263 0.804820
  H 0.857146 -0.998777 0.474532
  H 1.281991 0.061654 -0.877758
  H 3.938096 1.475942 1.340230
  H 3.999578 -0.101441 2.051785
  H 1.788535 0.261477 3.127568
  H 1.736656 1.893097 2.432171
  H 3.880844 0.862203 4.357096
  H 2.562741 1.957865 4.763734
  H 3.827987 2.483650 3.656593
  H 2.282224 -0.500405 -1.332854
  H 5.245359 -0.207459 -0.206134
  H 4.992937 -2.392310 -3.634289
  H 5.026786 -0.765628 -4.242787
  H 2.667711 -0.427266 -3.535053
  H 2.631614 -2.093744 -2.904308
  H 3.168977 -1.306169 -5.807263
  H 1.667744 -1.980190 -5.183157
  H 3.133388 -2.954854 -5.185603
  H 6.954313 -0.664220 -1.404272
 32
 41.588968
  C 1.201440 0.035373 0.234524
  C 2.639732 0.115437 0.457894
  C 3.318327 0.641684 1.657903
  C 2.394846 1.092808 2.784256
  C 3.198443 1.601172 3.977939
  C 3.243082 -0.334171 -0.719568
  C 4.592150 -0.462862 -1.014037
  C 5.199422 -0.906138 -2.182818
  C 4.591175 -1.386859 -3.455915
  C 3.079401 -1.431345 -3.619253
  C 2.720428 -1.968508 -5.003566
  O 6.518671 -0.941751 -2.250742
  H 0.563083 0.761361 0.724539
  H 0.839301 -0.959186 0.491037
  H 1.351950 0.012792 -0.934123
  H 3.956835 1.476331 1.355896
  H 3.999243 -0.120440 2.048588
  H 1.765867 0.256969 3.104155
  H 1.740582 1.895572 2.431306
  H 3.844571 0.819841 4.374390
  H 2.532136 1.922532 4.775561
  H 3.818674 2.450009 3.695605
  H 2.253831 -0.464438 -1.340238
  H 5.271726 -0.168303 -0.224602
  H 4.999757 -2.390228 -3.629265
  H 5.021228 -0.770957 -4.255697
  H 2.665512 -0.428573 -3.518983
  H 2.642087 -2.086742 -2.866971
  H 3.130832 -1.334599 -5.786081
  H 1.641187 -2.002181 -5.128920
  H 3.107320 -2.975224 -5.143521
  H 6.976236 -0.636308 -1.446356
 32
 52.982329
  C 1.212591 0.056893 0.219333
  C 2.641397 0.125049 0.439860
  C 3.316630 0.636882 1.650892
  C 2.389214 1.083446 2.776176
  C 3.187659 1.571367 3.979790
  C 3.256452 -0.317810 -0.732399
  C 4.604412 -0.441790 -1.024230
  C 5.213924 -0.891899 -2.192902
  C 4.601799 -1.382993 -3.450084
  C 3.081346 -1.429948 -3.593352
  C 2.702987 -1.980723 -4.965042
  O 6.534923 -0.923961 -2.269349
  H 0.588875 0.809717 0.685216
  H 0.817599 -0.939029 0.497276
  H 1.390574 -0.012279 -0.990974
  H 3.961355 1.471226 1.362530
  H 3.989563 -0.134903 2.036522
  H 1.752543 0.253219 3.082337
  H 1.745901 1.892693 2.428965
  H 3.823878 0.780294 4.371907
  H 2.518795 1.889758 4.775695
  H 3.817255 2.417498 3.711119
  H 2.210465 -0.443253 -1.361887
  H 5.282207 -0.133488 -0.237920
  H 5.011439 -2.387339 -3.616707
  H 5.023295 -0.773706 -4.258471
  H 2.668004 -0.425998 -3.497673
  H 2.654174 -2.077264 -2.828217
  H 3.102313 -1.354952 -5.759860
  H 1.622464 -2.015452 -5.074399
  H 3.087883 -2.988851 -5.100074
  H 6.993658 -0.612214 -1.474469
 32
 63.124925
  C 1.190314 0.088002 0.231466
  C 2.624186 0.138159 0.434358
  C 3.312883 0.632470 1.649862
  C 2.396626 1.076412 2.783459
  C 3.203931 1.539696 3.984604
  C 3.242942 -0.299083 -0.738960
  C 4.590571 -0.419182 -1.032265
  C 5.205285 -0.874765 -2.195161
  C 4.602249 -1.382518 -3.449565
  C 3.091876 -1.442913 -3.594897
  C 2.721249 -2.011505 -4.962171
  O 6.526019 -0.896753 -2.268405
  H 0.581307 0.861388 0.691109
  H 0.782448 -0.877372 0.505048
  H 1.384532 -0.015265 -1.025876
  H 3.966592 1.466054 1.366119
  H 3.979748 -0.152429 2.025504
  H 1.754169 0.253899 3.082492
  H 1.764014 1.893385 2.450522
  H 3.831406 0.737984 4.363490
  H 2.543442 1.856536 4.786255
  H 3.840863 2.379371 3.722626
  H 2.140364 -0.417573 -1.376571
  H 5.266296 -0.095760 -0.248773
  H 5.018884 -2.382355 -3.603751
  H 5.019781 -0.778960 -4.260502
  H 2.671047 -0.439694 -3.510640
  H 2.668345 -2.086343 -2.822121
  H 3.117625 -1.391356 -5.762663
  H 1.641471 -2.055882 -5.073693
  H 3.114309 -3.017820 -5.085677
  H 6.982305 -0.572476 -1.470215
 32
 70.925384
  C 1.169743 0.167078 0.239751
  C 2.603705 0.177467 0.421419
  C 3.309198 0.625381 1.650431
  C 2.406066 1.063081 2.799399
  C 3.228002 1.470336 4.009450
  C 3.224299 -0.246262 -0.748776
  C 4.571617 -0.361779 -1.050256
  C 5.191636 -0.833359 -2.199032
  C 4.601658 -1.385382 -3.452301
  C 3.096836 -1.476352 -3.607540
  C 2.747039 -2.087770 -4.960391
  O 6.510057 -0.836440 -2.265755
  H 0.596829 0.961951 0.689440
  H 0.726906 -0.776845 0.504873
  H 1.363908 0.026566 -1.064943
  H 3.983077 1.450602 1.385875
  H 3.955941 -0.187535 2.005142
  H 1.741711 0.250478 3.077962
  H 1.795460 1.906103 2.491672
  H 3.833212 0.642493 4.363590
  H 2.579051 1.782760 4.820611
  H 3.886599 2.297957 3.768821
  H 2.071638 -0.363097 -1.399346
  H 5.244851 -0.004204 -0.278603
  H 5.035268 -2.380204 -3.577912
  H 5.013979 -0.796674 -4.274679
  H 2.660635 -0.481522 -3.554701
  H 2.680232 -2.104054 -2.822912
  H 3.139539 -1.482743 -5.774619
  H 1.668791 -2.153736 -5.078873
  H 3.158292 -3.090414 -5.053308
  H 6.961008 -0.484106 -1.464651
 32
 79.037221
  C 1.151565 0.234753 0.249831
  C 2.587951 0.211377 0.403455
  C 3.305363 0.615836 1.642349
  C 2.412205 1.046792 2.805547
  C 3.251410 1.404172 4.031141
  C 3.219748 -0.200411 -0.756732
  C 4.566548 -0.312134 -1.065542
  C 5.191098 -0.795677 -2.198584
  C 4.610198 -1.386504 -3.447068
  C 3.098789 -1.503522 -3.604445
  C 2.759043 -2.153844 -4.941836
  O 6.511817 -0.782348 -2.262458
  H 0.610203 1.042313 0.701788
  H 0.669110 -0.714275 0.490565
  H 1.335874 0.071277 -1.136333
  H 3.994221 1.429438 1.396888
  H 3.930486 -0.219020 1.974735
  H 1.723117 0.237273 3.066359
  H 1.817757 1.919670 2.518727
  H 3.838304 0.550268 4.363688
  H 2.610643 1.712485 4.853714
  H 3.932603 2.223762 3.809860
  H 2.005438 -0.309882 -1.456256
  H 5.235614 0.076281 -0.303281
  H 5.060578 -2.382777 -3.548960
  H 5.018859 -0.808943 -4.286169
  H 2.649884 -0.515496 -3.578666
  H 2.689909 -2.115499 -2.806552
  H 3.145078 -1.564604 -5.770451
  H 1.681561 -2.237325 -5.060405
  H 3.183857 -3.152865 -5.008532
  H 6.953775 -0.409808 -1.469324
 32
 86.739789
  C 1.135636 0.319003 0.250921
  C 2.571390 0.251045 0.374138
  C 3.298770 0.598312 1.629778
  C 2.416928 1.012276 2.802366
  C 3.266507 1.302230 4.041142
  C 3.223380 -0.136521 -0.773937
  C 4.566599 -0.243532 -1.092262
  C 5.195814 -0.748696 -2.210241
  C 4.620515 -1.386181 -3.431646
  C 3.111239 -1.529811 -3.570005
  C 2.767204 -2.234370 -4.882978
  O 6.522226 -0.716177 -2.283925
  H 0.622135 1.154312 0.715014
  H 0.617768 -0.606979 0.449506
  H 1.296822 0.129275 -1.243288
  H 4.006796 1.401133 1.412566
  H 3.896678 -0.262463 1.933456
  H 1.704754 0.213478 3.033977
  H 1.848414 1.911901 2.546031
  H 3.829763 0.417904 4.344141
  H 2.632117 1.600807 4.876364
  H 3.973122 2.111034 3.847991
  H 1.936809 -0.250406 -1.548105
  H 5.229551 0.185101 -0.346624
  H 5.085303 -2.378754 -3.502877
  H 5.014607 -0.830282 -4.292730
  H 2.646834 -0.541964 -3.575843
  H 2.716548 -2.120952 -2.741335
  H 3.137554 -1.670443 -5.736240
  H 1.689718 -2.336697 -4.988184
  H 3.205224 -3.229568 -4.918045
  H 6.958298 -0.316129 -1.512252
 32
 93.269423
  C 1.118128 0.385140 0.264769
  C 2.549526 0.283594 0.346080
  C 3.292317 0.580833 1.616226
  C 2.423722 0.979282 2.803161
  C 3.284251 1.206674 4.040148
  C 3.224581 -0.084305 -0.783907
  C 4.561194 -0.188958 -1.113137
  C 5.198152 -0.712058 -2.217238
  C 4.631635 -1.391095 -3.415810
  C 3.123460 -1.555501 -3.539309
  C 2.777494 -2.305850 -4.823596
  O 6.525356 -0.662393 -2.295743
  H 0.635878 1.224136 0.752938
  H 0.565552 -0.531719 0.406432
  H 1.242955 0.196745 -1.362917
  H 4.016058 1.375493 1.420359
  H 3.868539 -0.306054 1.889956
  H 1.695678 0.194958 3.012641
  H 1.880469 1.897709 2.580542
  H 3.824447 0.301449 4.310482
  H 2.663439 1.494212 4.885846
  H 4.008699 2.000869 3.867989
  H 1.859196 -0.184621 -1.660429
  H 5.217668 0.277789 -0.380368
  H 5.107086 -2.376239 -3.457273
  H 5.013484 -0.857396 -4.290810
  H 2.649444 -0.573513 -3.575547
  H 2.740616 -2.120923 -2.688762
  H 3.137162 -1.766342 -5.698201
  H 1.700337 -2.421674 -4.917463
  H 3.225304 -3.297817 -4.828514
  H 6.956170 -0.235902 -1.536605
 32
 97.985455
  C 1.096446 0.470609 0.280082
  C 2.518950 0.327299 0.314154
  C 3.280791 0.559721 1.598668
  C 2.431836 0.933734 2.807754
  C 3.312693 1.081986 4.040221
  C 3.220169 -0.011631 -0.796645
  C 4.548943 -0.119302 -1.139014
  C 5.194985 -0.665626 -2.224142
  C 4.639462 -1.399662 -3.396346
  C 3.136389 -1.593219 -3.507063
  C 2.798132 -2.404148 -4.753110
  O 6.520755 -0.594247 -2.307206
  H 0.654063 1.304985 0.801344
  H 0.498904 -0.429460 0.348613
  H 1.169231 0.303242 -1.505290
  H 4.024714 1.342926 1.428615
  H 3.832616 -0.355347 1.830081
  H 1.683008 0.162328 2.993259
  H 1.915506 1.877717 2.630837
  H 3.825954 0.153105 4.264633
  H 2.712023 1.351278 4.902001
  H 4.057121 1.858385 3.892965
  H 1.767540 -0.087226 -1.801141
  H 5.198653 0.386043 -0.421539
  H 5.132253 -2.378221 -3.401644
  H 5.011100 -0.896284 -4.294472
  H 2.649040 -0.623213 -3.585382
  H 2.765405 -2.123254 -2.631890
  H 3.147182 -1.899185 -5.651430
  H 1.723072 -2.539893 -4.837669
  H 3.260495 -3.387508 -4.714814
  H 6.945973 -0.132733 -1.562802
