 25
 0.000000
  H 1.457145 0.169846 0.474596
  C 2.535971 0.149243 0.422695
  C 3.301023 0.615517 1.582333
  C 2.462781 1.090088 2.763546
  C 3.346894 1.553679 3.916737
  C 3.087105 -0.322462 -0.751462
  C 4.468776 -0.423202 -1.002734
  C 5.100103 -0.878666 -2.138318
  C 4.596870 -1.391438 -3.417088
  C 3.108222 -1.503900 -3.698458
  H 2.957452 -1.903788 -4.695670
  H 6.182402 -0.870893 -2.118795
  H 3.965472 1.429863 1.267522
  H 3.965810 -0.189923 1.918541
  H 1.819814 0.280416 3.113756
  H 1.819515 1.916777 2.456160
  H 3.982140 0.745148 4.271179
  H 2.734964 1.888572 4.750440
  H 3.981815 2.382822 3.613021
  H 2.397312 -0.631022 -1.519470
  H 5.121874 -0.101419 -0.201020
  H 5.060636 -2.378486 -3.552514
  H 5.061156 -0.771871 -4.197017
  H 2.627209 -0.529104 -3.652531
  H 2.626756 -2.176647 -2.991801
 25
 8.700175
  H 1.410382 0.184797 0.511572
  C 2.489047 0.154447 0.435492
  C 3.275346 0.616224 1.584066
  C 2.453835 1.094456 2.774432
  C 3.350940 1.554517 3.918961
  C 3.003580 -0.316103 -0.735845
  C 4.538563 -0.433940 -1.029661
  C 5.140943 -0.887842 -2.161325
  C 4.615903 -1.397746 -3.432799
  C 3.124098 -1.499245 -3.686636
  H 2.953712 -1.898770 -4.682836
  H 6.225017 -0.884246 -2.152235
  H 3.941812 1.425498 1.260262
  H 3.942132 -0.191835 1.910208
  H 1.810254 0.287375 3.130356
  H 1.810003 1.923250 2.473014
  H 3.986418 0.743560 4.267028
  H 2.748930 1.891885 4.758871
  H 3.986126 2.381030 3.609006
  H 2.311450 -0.621927 -1.497178
  H 5.191280 -0.114461 -0.233502
  H 5.072732 -2.387344 -3.577570
  H 5.073194 -0.782833 -4.221310
  H 2.650561 -0.521727 -3.632934
  H 2.650194 -2.168571 -2.972430
 25
 27.049561
  H 1.357879 0.202809 0.556001
  C 2.435339 0.162262 0.454641
  C 3.246042 0.620202 1.593926
  C 2.445136 1.102626 2.794837
  C 3.356610 1.558408 3.928846
  C 2.915840 -0.310932 -0.723382
  C 4.604973 -0.444253 -1.055518
  C 5.185637 -0.900568 -2.193184
  C 4.639553 -1.409250 -3.461446
  C 3.144236 -1.498918 -3.685476
  H 2.951646 -1.896888 -4.677701
  H 6.270779 -0.900822 -2.193766
  H 3.914345 1.423510 1.259730
  H 3.914647 -0.190837 1.908314
  H 1.800792 0.298780 3.157827
  H 1.800549 1.934043 2.500812
  H 3.992403 0.744626 4.269656
  H 2.765958 1.898547 4.775722
  H 3.992092 2.381956 3.611750
  H 2.228372 -0.617435 -1.486608
  H 5.247808 -0.123019 -0.254784
  H 5.088459 -2.401288 -3.615757
  H 5.088793 -0.799164 -4.258594
  H 2.679342 -0.517564 -3.622219
  H 2.679090 -2.164454 -2.961640
 25
 46.808444
  H 1.303055 0.222974 0.605989
  C 2.376674 0.165991 0.463468
  C 3.219307 0.615156 1.581243
  C 2.450603 1.104042 2.798600
  C 3.381707 1.553979 3.918062
  C 2.798773 -0.306461 -0.712893
  C 4.646123 -0.447928 -1.065333
  C 5.207425 -0.900509 -2.193275
  C 4.663950 -1.410006 -3.463054
  C 3.168759 -1.496147 -3.678377
  H 2.968889 -1.894319 -4.670773
  H 6.294448 -0.898254 -2.187443
  H 3.891586 1.409129 1.231130
  H 3.892115 -0.200233 1.877461
  H 1.803502 0.307704 3.174778
  H 1.803175 1.939176 2.519398
  H 4.018393 0.736593 4.248641
  H 2.807152 1.897756 4.774188
  H 4.017976 2.373127 3.591126
  H 2.146417 -0.619340 -1.491745
  H 5.234423 -0.116130 -0.238109
  H 5.114116 -2.400259 -3.625099
  H 5.114438 -0.806730 -4.264655
  H 2.708065 -0.513661 -3.612259
  H 2.707720 -2.160346 -2.951505
 25
 66.473623
  H 1.248066 0.239886 0.647946
  C 2.320822 0.172711 0.480048
  C 3.188217 0.617676 1.587489
  C 2.442274 1.110671 2.815105
  C 3.390902 1.555188 3.921317
  C 2.711701 -0.303991 -0.706910
  C 4.713311 -0.460631 -1.097289
  C 5.252560 -0.912650 -2.223695
  C 4.689948 -1.418520 -3.484137
  C 3.190122 -1.490368 -3.663691
  H 2.961998 -1.886210 -4.650069
  H 6.342350 -0.914771 -2.228878
  H 3.860528 1.406068 1.225716
  H 3.860881 -0.201713 1.871313
  H 1.795086 0.317616 3.199377
  H 1.794901 1.949063 2.544057
  H 4.027765 0.734360 4.243197
  H 2.830076 1.902151 4.785360
  H 4.027479 2.370763 3.585794
  H 2.065631 -0.622034 -1.498590
  H 5.285413 -0.123391 -0.256546
  H 5.129634 -2.412572 -3.654602
  H 5.129902 -0.818365 -4.294552
  H 2.741273 -0.502753 -3.585057
  H 2.740996 -2.149487 -2.924175
 25
 74.110266
  H 1.240898 0.260325 0.701192
  C 2.311663 0.172690 0.485166
  C 3.191107 0.622708 1.601306
  C 2.446673 1.119392 2.835823
  C 3.417633 1.558788 3.924652
  C 2.575109 -0.295365 -0.675769
  C 4.727921 -0.471624 -1.117282
  C 5.211964 -0.910663 -2.215145
  C 4.729134 -1.432937 -3.520844
  C 3.219375 -1.504266 -3.703867
  H 2.999872 -1.899525 -4.695011
  H 6.313599 -0.905161 -2.200062
  H 3.855979 1.412441 1.237406
  H 3.854921 -0.199464 1.887010
  H 1.801984 0.326898 3.224002
  H 1.800035 1.958397 2.566872
  H 4.053180 0.732540 4.234313
  H 2.874065 1.909417 4.798201
  H 4.050914 2.370858 3.575257
  H 2.038747 -0.634425 -1.515737
  H 5.145503 -0.110034 -0.214772
  H 5.169996 -2.427502 -3.668740
  H 5.169667 -0.812695 -4.312490
  H 2.774821 -0.516033 -3.617924
  H 2.773049 -2.160808 -2.961343
 25
 82.381444
  H 1.196000 0.278649 0.749480
  C 2.263142 0.183933 0.510151
  C 3.165362 0.629302 1.613697
  C 2.435369 1.128123 2.858939
  C 3.421513 1.562475 3.935456
  C 2.493116 -0.285254 -0.655876
  C 4.797612 -0.482427 -1.144779
  C 5.261204 -0.925561 -2.251255
  C 4.755204 -1.447641 -3.556001
  C 3.240823 -1.504987 -3.704653
  H 2.995442 -1.897341 -4.687549
  H 6.364668 -0.924966 -2.248186
  H 3.825413 1.420309 1.240006
  H 3.827092 -0.199255 1.891170
  H 1.793721 0.337495 3.255585
  H 1.790069 1.971016 2.599487
  H 4.057654 0.733040 4.236041
  H 2.890682 1.914890 4.816614
  H 4.053910 2.372079 3.578221
  H 1.966459 -0.629479 -1.509853
  H 5.195083 -0.115810 -0.228738
  H 5.182340 -2.445458 -3.709374
  H 5.182875 -0.829872 -4.354342
  H 2.808511 -0.512542 -3.610944
  H 2.806340 -2.158575 -2.953168
 25
 88.554651
  H 1.148525 0.295052 0.795306
  C 2.210049 0.193588 0.531997
  C 3.136643 0.633850 1.620710
  C 2.426467 1.134290 2.875966
  C 3.430890 1.563103 3.938094
  C 2.406722 -0.276038 -0.637145
  C 4.863241 -0.493276 -1.171675
  C 5.307733 -0.938588 -2.281831
  C 4.782484 -1.457877 -3.579496
  C 3.263748 -1.501941 -3.697505
  H 2.993432 -1.892563 -4.675366
  H 6.411119 -0.942862 -2.290198
  H 3.790156 1.422370 1.236938
  H 3.794980 -0.198016 1.886964
  H 1.788246 0.346081 3.281827
  H 1.782405 1.980854 2.627109
  H 4.067573 0.730259 4.228224
  H 2.915500 1.917383 4.827350
  H 4.061903 2.369808 3.571711
  H 1.897585 -0.621618 -1.494813
  H 5.233610 -0.124488 -0.249285
  H 5.197277 -2.458384 -3.737239
  H 5.199219 -0.842562 -4.383123
  H 2.843274 -0.504616 -3.596076
  H 2.839865 -2.152565 -2.936758
 25
 93.182872
  H 1.099891 0.312101 0.841766
  C 2.155394 0.202616 0.553482
  C 3.106183 0.636156 1.623860
  C 2.417793 1.139886 2.890916
  C 3.442213 1.562357 3.936691
  C 2.319448 -0.267350 -0.617936
  C 4.928533 -0.503247 -1.195874
  C 5.355477 -0.950353 -2.309604
  C 4.808803 -1.466654 -3.600226
  C 3.287326 -1.496479 -3.684446
  H 2.990200 -1.884391 -4.655412
  H 6.460463 -0.959722 -2.330231
  H 3.755052 1.423394 1.227494
  H 3.762163 -0.202248 1.878677
  H 1.782529 0.354610 3.307447
  H 1.775386 1.991141 2.653208
  H 4.078696 0.725645 4.215708
  H 2.943907 1.919376 4.834639
  H 4.071917 2.365263 3.560024
  H 1.825991 -0.616750 -1.485651
  H 5.270374 -0.130840 -0.263788
  H 5.211409 -2.472240 -3.763337
  H 5.214402 -0.852235 -4.411383
  H 2.880082 -0.495215 -3.574286
  H 2.875840 -2.143330 -2.914522
 25
 96.495381
  H 1.050234 0.328785 0.886893
  C 2.098484 0.210722 0.573708
  C 3.074737 0.637721 1.626405
  C 2.410361 1.145103 2.904488
  C 3.455244 1.560809 3.932806
  C 2.230944 -0.259683 -0.599722
  C 4.993063 -0.512974 -1.219320
  C 5.403990 -0.961580 -2.336288
  C 4.835728 -1.474424 -3.618921
  C 3.312254 -1.489820 -3.668779
  H 2.988263 -1.874776 -4.632469
  H 6.509098 -0.976293 -2.369721
  H 3.717964 1.421753 1.217774
  H 3.726627 -0.205865 1.869227
  H 1.778319 0.363573 3.332006
  H 1.770430 2.000893 2.678092
  H 4.091086 0.719867 4.200625
  H 2.974899 1.920900 4.839222
  H 4.083703 2.359606 3.545287
  H 1.756480 -0.611485 -1.473927
  H 5.303657 -0.137621 -0.279415
  H 5.225305 -2.482740 -3.786981
  H 5.229268 -0.862137 -4.435666
  H 2.918177 -0.483941 -3.549774
  H 2.913192 -2.133433 -2.889192
 25
 98.820626
  H 1.000914 0.346389 0.932964
  C 2.040701 0.218928 0.594256
  C 3.042229 0.638313 1.627267
  C 2.403420 1.150019 2.917018
  C 3.469753 1.558304 3.926535
  C 2.141945 -0.251638 -0.580340
  C 5.057294 -0.521862 -1.240830
  C 5.453106 -0.971740 -2.360826
  C 4.862510 -1.481193 -3.635586
  C 3.337780 -1.482287 -3.650520
  H 2.987117 -1.864006 -4.606232
  H 6.558375 -0.992093 -2.407929
  H 3.680393 1.419601 1.205164
  H 3.690038 -0.212052 1.857868
  H 1.774500 0.372416 3.356362
  H 1.766314 2.011007 2.702318
  H 4.104396 0.712856 4.182665
  H 3.008569 1.921732 4.841510
  H 4.096820 2.352518 3.527560
  H 1.685766 -0.606898 -1.463820
  H 5.335522 -0.143271 -0.292548
  H 5.239672 -2.493749 -3.808724
  H 5.244232 -0.869821 -4.459026
  H 2.957033 -0.472688 -3.522846
  H 2.951745 -2.122444 -2.861966
 25
 100.378138
  H 0.950077 0.363466 0.977612
  C 1.980900 0.227138 0.614813
  C 3.007720 0.638945 1.628127
  C 2.396586 1.154782 2.929342
  C 3.484778 1.555213 3.918687
  C 2.054542 -0.243695 -0.561318
  C 5.123068 -0.531005 -1.262803
  C 5.504810 -0.982318 -2.386215
  C 4.889072 -1.487386 -3.650677
  C 3.364699 -1.473643 -3.629563
  H 2.986801 -1.851645 -4.576200
  H 6.609103 -1.009268 -2.449166
  H 3.640472 1.416333 1.192764
  H 3.651203 -0.217217 1.845744
  H 1.771279 0.381458 3.380626
  H 1.762566 2.020672 2.726767
  H 4.118056 0.705103 4.162688
  H 3.043634 1.921866 4.842221
  H 4.110045 2.344862 3.507849
  H 1.614424 -0.601271 -1.451138
  H 5.373337 -0.149983 -0.308283
  H 5.252763 -2.502628 -3.829107
  H 5.257984 -0.878145 -4.479939
  H 2.997678 -0.459978 -3.492786
  H 2.992031 -2.110227 -2.831559
 25
 101.414379
  H 0.899599 0.380333 1.021821
  C 1.920868 0.235624 0.636206
  C 2.971804 0.639602 1.629009
  C 2.389398 1.159504 2.941672
  C 3.499727 1.551760 3.909837
  C 1.969684 -0.235272 -0.540899
  C 5.190961 -0.540173 -1.284967
  C 5.558778 -0.992987 -2.411774
  C 4.915325 -1.493164 -3.664544
  C 3.392052 -1.464038 -3.606528
  H 2.986505 -1.837999 -4.543294
  H 6.661445 -1.027416 -2.492553
  H 3.599577 1.413186 1.180090
  H 3.611355 -0.222585 1.833419
  H 1.767845 0.390362 3.405135
  H 1.758455 2.030443 2.751397
  H 4.131357 0.696954 4.141412
  H 3.079327 1.921496 4.841730
  H 4.122760 2.336779 3.486921
  H 1.541849 -0.595194 -1.436982
  H 5.418192 -0.157206 -0.325617
  H 5.265378 -2.512132 -3.848703
  H 5.271332 -0.885765 -4.500655
  H 3.039375 -0.446685 -3.460572
  H 3.033046 -2.096560 -2.799160
 25
 102.054787
  H 0.849569 0.397478 1.065211
  C 1.861051 0.244507 0.657939
  C 2.935425 0.640442 1.630541
  C 2.382320 1.164373 2.953978
  C 3.514428 1.547811 3.900350
  C 1.886866 -0.226310 -0.519727
  C 5.260525 -0.549288 -1.307671
  C 5.614098 -1.003542 -2.437893
  C 4.941370 -1.498572 -3.677722
  C 3.420571 -1.454401 -3.582136
  H 2.987524 -1.824116 -4.508121
  H 6.714433 -1.045781 -2.538075
  H 3.558486 1.409634 1.168502
  H 3.570478 -0.227517 1.821855
  H 1.764515 0.399750 3.429433
  H 1.755068 2.040346 2.775953
  H 4.143811 0.688061 4.119503
  H 3.115096 1.920635 4.840260
  H 4.135223 2.328017 3.465354
  H 1.470005 -0.587579 -1.419829
  H 5.468158 -0.164807 -0.344797
  H 5.277534 -2.520449 -3.867714
  H 5.283575 -0.893385 -4.520361
  H 3.082119 -0.433460 -3.427014
  H 3.075836 -2.082997 -2.765459
