 13
 0.000000
  H 3.419309 -0.343735 -0.805627
  C 4.472906 -0.413204 -0.978851
  C 5.132414 -0.867699 -2.111643
  C 4.618673 -1.388937 -3.410716
  C 3.124514 -1.501358 -3.691727
  H 2.956077 -1.894820 -4.672399
  O 6.457488 -0.870547 -2.119086
  H 5.100515 -0.083792 -0.158214
  H 5.068655 -2.379864 -3.541239
  H 5.069011 -0.763340 -4.190016
  H 2.653353 -0.519100 -3.634327
  H 2.652914 -2.171265 -2.971344
  H 6.834017 -0.535875 -1.285013
 13
 0.000000
  H 3.374264 -0.337193 -0.803678
  C 4.549359 -0.423920 -0.999248
  C 5.163624 -0.875648 -2.127216
  C 4.631822 -1.393183 -3.420601
  C 3.133815 -1.498509 -3.683530
  H 2.951734 -1.890174 -4.662580
  O 6.377466 -0.876651 -2.133134
  H 5.177437 -0.093900 -0.179179
  H 5.075719 -2.386107 -3.557629
  H 5.075543 -0.768732 -4.204766
  H 2.667815 -0.514080 -3.619377
  H 2.667919 -2.167113 -2.958069
  H 6.713328 -0.508327 -1.221194
 13
 0.000000
  H 3.315233 -0.326847 -0.797013
  C 4.622567 -0.432995 -1.014040
  C 5.198162 -0.884673 -2.145156
  C 4.646231 -1.397907 -3.431931
  C 3.144204 -1.495567 -3.674461
  H 2.946876 -1.885053 -4.651531
  O 6.306472 -0.885439 -2.153790
  H 5.249736 -0.102016 -0.193631
  H 5.083400 -2.392893 -3.576327
  H 5.082278 -0.774516 -4.221381
  H 2.683898 -0.508870 -3.602650
  H 2.684968 -2.162928 -2.943470
  H 6.596625 -0.482048 -1.160368
 13
 0.000000
  H 3.247069 -0.314829 -0.788440
  C 4.694374 -0.439456 -1.024750
  C 5.235645 -0.893972 -2.164915
  C 4.661712 -1.403099 -3.443810
  C 3.155617 -1.492249 -3.663930
  H 2.941570 -1.879844 -4.638336
  O 6.240696 -0.896089 -2.178633
  H 5.319203 -0.107228 -0.203038
  H 5.091200 -2.400433 -3.595527
  H 5.089401 -0.781430 -4.239285
  H 2.701865 -0.503015 -3.584457
  H 2.703625 -2.157712 -2.926600
  H 6.477404 -0.457901 -1.102822
 13
 0.000000
  H 3.176455 -0.307739 -0.784372
  C 4.764580 -0.439501 -1.032492
  C 5.275364 -0.902147 -2.185471
  C 4.677703 -1.409241 -3.454365
  C 3.167616 -1.487198 -3.651015
  H 2.935476 -1.874964 -4.621251
  O 6.177551 -0.908670 -2.205079
  H 5.385399 -0.106090 -0.208235
  H 5.097115 -2.410083 -3.610764
  H 5.097809 -0.792437 -4.257570
  H 2.722758 -0.494406 -3.566461
  H 2.721969 -2.147716 -2.905488
  H 6.353091 -0.438948 -1.051744
 13
 0.000000
  H 3.107431 -0.316866 -0.778928
  C 4.833023 -0.441893 -1.035796
  C 5.315502 -0.908077 -2.205712
  C 4.693853 -1.410593 -3.465022
  C 3.180105 -1.480879 -3.636281
  H 2.929615 -1.866249 -4.602981
  O 6.114786 -0.916279 -2.231643
  H 5.448381 -0.108353 -0.207526
  H 5.105614 -2.413199 -3.629765
  H 5.103420 -0.794905 -4.274415
  H 2.741643 -0.486107 -3.542955
  H 2.743804 -2.140078 -2.884185
  H 6.220681 -0.423026 -1.007589
 13
 0.000000
  H 3.047248 -0.322745 -0.781717
  C 4.900742 -0.440949 -1.038609
  C 5.355116 -0.913873 -2.223418
  C 4.709394 -1.413256 -3.472073
  C 3.192326 -1.473379 -3.618600
  H 2.923364 -1.857888 -4.580814
  O 6.048825 -0.924632 -2.253475
  H 5.509605 -0.106303 -0.206013
  H 5.111593 -2.418708 -3.642643
  H 5.109942 -0.801169 -4.288612
  H 2.762202 -0.475643 -3.519001
  H 2.763807 -2.128842 -2.858880
  H 6.076565 -0.410981 -0.973735
 13
 0.000000
  H 3.006172 -0.333179 -0.794480
  C 4.966495 -0.439941 -1.041377
  C 5.392200 -0.917801 -2.236126
  C 4.723815 -1.414141 -3.474398
  C 3.203915 -1.464402 -3.597591
  H 2.917516 -1.848074 -4.555312
  O 5.975246 -0.929822 -2.267282
  H 5.567813 -0.103959 -0.203867
  H 5.116740 -2.422300 -3.650227
  H 5.115876 -0.805604 -4.297620
  H 2.781916 -0.463848 -3.492295
  H 2.782714 -2.116185 -2.830718
  H 5.917344 -0.404436 -0.954779
 13
 0.000000
  H 2.978911 -0.347011 -0.814446
  C 5.029688 -0.438247 -1.042191
  C 5.426960 -0.920170 -2.244485
  C 4.737003 -1.413477 -3.472572
  C 3.214679 -1.454068 -3.573515
  H 2.911641 -1.836881 -4.526727
  O 5.894784 -0.932137 -2.273859
  H 5.622325 -0.100710 -0.199157
  H 5.120850 -2.424228 -3.653231
  H 5.120992 -0.808438 -4.302096
  H 2.800665 -0.450810 -3.462959
  H 2.800434 -2.102221 -2.799876
  H 5.746154 -0.402935 -0.950296
 13
 0.000000
  H 2.929969 -0.349652 -0.811894
  C 5.068933 -0.432034 -1.029894
  C 5.450532 -0.923747 -2.254075
  C 4.741515 -1.413896 -3.472800
  C 3.217517 -1.445487 -3.553899
  H 2.899702 -1.827235 -4.502871
  O 5.852173 -0.936262 -2.283747
  H 5.656039 -0.093539 -0.183398
  H 5.116968 -2.427000 -3.657704
  H 5.118320 -0.811869 -4.307758
  H 2.810934 -0.439752 -3.438699
  H 2.809465 -2.090489 -2.774401
  H 5.646454 -0.399026 -0.941209
 13
 0.000000
  H 2.688700 -0.312105 -0.714178
  C 5.067659 -0.405658 -0.965458
  C 5.471408 -0.941636 -2.298197
  C 4.734839 -1.425919 -3.502271
  C 3.209870 -1.444901 -3.553296
  H 2.870466 -1.824020 -4.495476
  O 5.937736 -0.961912 -2.346746
  H 5.652949 -0.066491 -0.117980
  H 5.098139 -2.442159 -3.694064
  H 5.099955 -0.826980 -4.344594
  H 2.814029 -0.435772 -3.430564
  H 2.812083 -2.086557 -2.765777
  H 5.745389 -0.363933 -0.854266
 13
 0.000000
  H 2.506132 -0.255046 -0.584501
  C 4.965603 -0.383210 -0.904208
  C 5.429058 -0.945591 -2.305855
  C 4.702762 -1.430541 -3.514423
  C 3.179619 -1.454600 -3.575157
  H 2.848033 -1.833439 -4.519343
  O 6.097800 -0.976163 -2.382244
  H 5.560760 -0.045548 -0.063002
  H 5.070595 -2.445425 -3.704651
  H 5.070900 -0.828928 -4.353495
  H 2.779752 -0.446828 -3.454168
  H 2.779351 -2.098960 -2.791104
  H 6.062538 -0.329035 -0.769363
