 19
 0.000000
  C -1.058645 0.186286 0.065495
  C -1.857344 -0.977665 -0.435692
  C -1.499597 -1.398229 -1.842690
  C -1.808648 -2.323061 0.397842
  C -0.823075 -2.344295 1.508069
  O -2.514485 -3.223646 0.085729
  H -1.273573 1.047596 -0.570545
  H 0.014607 0.012929 0.008838
  H -1.337058 0.470817 1.076895
  H -2.926070 -0.739592 -0.364870
  H -0.463197 -1.721486 -1.933981
  H -1.609748 -0.532430 -2.498240
  H -2.142136 -2.202594 -2.189580
  H -0.310434 -1.410592 1.683588
  H -0.103788 -3.131465 1.269580
  H -1.362817 -2.659581 2.403489
  O 2.985164 -0.129269 0.014927
  H 2.039266 0.052193 -0.022182
  H 3.372123 0.242589 -0.782347
 19
 1.883673
  C -1.006317 0.179537 0.071720
  C -1.810730 -0.962708 -0.441178
  C -1.444020 -1.381063 -1.844371
  C -1.773242 -2.313057 0.397143
  C -0.786080 -2.322719 1.507581
  O -2.484113 -3.213110 0.087572
  H -1.207725 1.053296 -0.556703
  H 0.068209 -0.003135 0.012558
  H -1.283918 0.465293 1.089880
  H -2.881166 -0.729346 -0.366820
  H -0.407113 -1.702868 -1.926724
  H -1.543149 -0.512680 -2.498371
  H -2.084049 -2.177694 -2.200980
  H -0.270491 -1.385462 1.672223
  H -0.062073 -3.109021 1.271057
  H -1.319952 -2.627779 2.408313
  O 2.722760 -0.208656 0.012682
  H 1.779909 -0.004636 -0.018964
  H 3.125409 0.163947 -0.789885
 19
 2.780986
  C -0.963519 0.203454 0.070182
  C -1.776010 -0.941897 -0.442504
  C -1.404638 -1.382747 -1.843283
  C -1.750000 -2.291111 0.406377
  C -0.752076 -2.330916 1.505069
  O -2.475895 -3.176080 0.095102
  H -1.156158 1.075544 -0.565065
  H 0.122025 0.008076 0.005793
  H -1.236754 0.491151 1.085038
  H -2.847789 -0.705933 -0.362316
  H -0.367849 -1.709701 -1.913962
  H -1.496474 -0.525436 -2.510949
  H -2.048052 -2.182558 -2.195846
  H -0.215978 -1.413250 1.678458
  H -0.048144 -3.131227 1.253479
  H -1.282254 -2.641456 2.408122
  O 2.521936 -0.256931 0.011587
  H 1.581795 -0.005333 -0.026086
  H 2.952225 0.119550 -0.759839
 19
 6.772670
  C -0.922574 0.220927 0.055980
  C -1.743735 -0.931561 -0.447754
  C -1.373733 -1.378096 -1.829339
  C -1.727573 -2.285766 0.409228
  C -0.727080 -2.346183 1.502063
  O -2.466967 -3.161837 0.112077
  H -1.099858 1.086524 -0.579981
  H 0.164021 0.023515 -0.007993
  H -1.187567 0.521520 1.075986
  H -2.812082 -0.694245 -0.370252
  H -0.335885 -1.710137 -1.888102
  H -1.462510 -0.523557 -2.505319
  H -2.017193 -2.176694 -2.180771
  H -0.166635 -1.432890 1.678931
  H -0.046370 -3.155025 1.238324
  H -1.252228 -2.658680 2.405731
  O 2.348019 -0.287997 0.014828
  H 1.410874 0.008720 -0.035926
  H 2.814864 0.073006 -0.737052
 19
 13.410290
  C -0.917377 0.223156 0.060592
  C -1.726815 -0.921907 -0.445323
  C -1.351378 -1.365743 -1.836828
  C -1.703246 -2.273023 0.414375
  C -0.693134 -2.329724 1.497451
  O -2.444119 -3.155493 0.130359
  H -1.082498 1.091406 -0.581203
  H 0.203137 0.023336 -0.002905
  H -1.183863 0.516546 1.074782
  H -2.790141 -0.687303 -0.372463
  H -0.309421 -1.699847 -1.893561
  H -1.440028 -0.509255 -2.517892
  H -1.994951 -2.170802 -2.189964
  H -0.143133 -1.426211 1.664493
  H -0.008054 -3.139434 1.233089
  H -1.210849 -2.642763 2.404847
  O 2.236606 -0.354759 0.025347
  H 1.283969 -0.012906 -0.029875
  H 2.725416 0.013886 -0.716253
 19
 22.436150
  C -0.897251 0.219142 0.052742
  C -1.709036 -0.930533 -0.444747
  C -1.346605 -1.375829 -1.841241
  C -1.694689 -2.263095 0.419070
  C -0.676792 -2.325521 1.498769
  O -2.451648 -3.140392 0.154118
  H -1.028107 1.076988 -0.601940
  H 0.248224 -0.019073 -0.012608
  H -1.162093 0.515809 1.063122
  H -2.779682 -0.682979 -0.366767
  H -0.317534 -1.719854 -1.901355
  H -1.429553 -0.527178 -2.522165
  H -1.995393 -2.170165 -2.185280
  H -0.116017 -1.414982 1.663029
  H 0.005923 -3.139026 1.234387
  H -1.190259 -2.631570 2.407084
  O 2.178225 -0.346835 0.035685
  H 1.195110 0.000702 -0.045924
  H 2.678934 0.045517 -0.685055
 19
 36.861490
  C -0.923655 0.223100 0.052218
  C -1.720448 -0.932801 -0.444823
  C -1.355401 -1.370639 -1.844093
  C -1.694493 -2.266276 0.419615
  C -0.674608 -2.323353 1.500248
  O -2.437755 -3.154090 0.152952
  H -1.056885 1.078983 -0.603600
  H 0.314991 -0.014371 -0.020233
  H -1.188105 0.517470 1.065369
  H -2.790329 -0.694904 -0.368266
  H -0.318307 -1.707161 -1.905567
  H -1.447129 -0.520792 -2.523618
  H -2.001539 -2.175018 -2.191402
  H -0.125429 -1.408640 1.668106
  H 0.014846 -3.124020 1.232797
  H -1.185186 -2.641634 2.410967
  O 2.246138 -0.367350 0.038623
  H 1.174465 0.012033 -0.049673
  H 2.751713 0.027328 -0.674875
 19
 54.724928
  C -0.958541 0.226543 0.054188
  C -1.734863 -0.937084 -0.443969
  C -1.366865 -1.367357 -1.848403
  C -1.693419 -2.266898 0.418253
  C -0.673814 -2.316472 1.500791
  O -2.424330 -3.165572 0.149013
  H -1.089961 1.081397 -0.602082
  H 0.380460 -0.008950 -0.025340
  H -1.218442 0.515221 1.066392
  H -2.807741 -0.709891 -0.368119
  H -0.329964 -1.692268 -1.910978
  H -1.469324 -0.519425 -2.526490
  H -2.002235 -2.175622 -2.194812
  H -0.139075 -1.396131 1.673190
  H 0.029030 -3.108203 1.230728
  H -1.179526 -2.646048 2.407669
  O 2.328271 -0.391488 0.043090
  H 1.159867 0.021201 -0.051383
  H 2.835935 0.009538 -0.663954
 19
 75.365342
  C -1.004733 0.230820 0.057524
  C -1.754677 -0.942598 -0.443225
  C -1.383765 -1.364440 -1.853511
  C -1.693048 -2.266931 0.414033
  C -0.674757 -2.307601 1.499614
  O -2.412603 -3.175398 0.141907
  H -1.130140 1.085423 -0.598781
  H 0.447348 -0.002234 -0.029114
  H -1.256494 0.512924 1.071931
  H -2.830074 -0.728248 -0.367018
  H -0.342760 -1.676692 -1.917115
  H -1.499644 -0.518954 -2.530251
  H -2.010153 -2.183040 -2.200298
  H -0.155490 -1.378151 1.678298
  H 0.041486 -3.086330 1.227844
  H -1.177122 -2.652141 2.405137
  O 2.435619 -0.417153 0.048393
  H 1.154768 0.030773 -0.052441
  H 2.942777 -0.003468 -0.652414
 19
 97.089981
  C -1.094739 0.235265 0.061401
  C -1.792886 -0.953825 -0.443309
  C -1.411757 -1.356909 -1.857960
  C -1.697717 -2.274448 0.411435
  C -0.682944 -2.293750 1.500722
  O -2.389245 -3.205308 0.130167
  H -1.202641 1.095488 -0.588291
  H 0.515050 0.007438 -0.035114
  H -1.327248 0.514791 1.085319
  H -2.877906 -0.757586 -0.376225
  H -0.361126 -1.641329 -1.918298
  H -1.550126 -0.512046 -2.533189
  H -2.017933 -2.188188 -2.207435
  H -0.191827 -1.346680 1.684411
  H 0.058096 -3.046323 1.230658
  H -1.175009 -2.656607 2.403590
  O 2.625069 -0.461545 0.053717
  H 1.179129 0.046537 -0.058939
  H 3.126742 -0.033013 -0.647718
 19
 97.291704
  C -1.100403 0.216934 0.058472
  C -1.814707 -0.955589 -0.437634
  C -1.448562 -1.377155 -1.853857
  C -1.763846 -2.274992 0.420518
  C -0.746118 -2.329419 1.505244
  O -2.500756 -3.176991 0.156851
  H -1.152726 1.077725 -0.597702
  H 0.580415 -0.145795 -0.052426
  H -1.315409 0.498458 1.083318
  H -2.890135 -0.712202 -0.383656
  H -0.413577 -1.715975 -1.903613
  H -1.541975 -0.533178 -2.534914
  H -2.087577 -2.187358 -2.194924
  H -0.241203 -1.393579 1.700545
  H -0.016932 -3.092094 1.233277
  H -1.244776 -2.687997 2.404832
  O 2.873546 -0.290609 0.003579
  H 1.262075 0.040066 -0.050776
  H 3.292329 0.260703 -0.664883
 19
 113.612100
  C -1.168107 0.209319 0.050934
  C -1.850451 -0.970677 -0.436842
  C -1.501721 -1.386726 -1.864226
  C -1.788572 -2.283244 0.428365
  C -0.771012 -2.337434 1.510272
  O -2.518829 -3.186369 0.170139
  H -1.192136 1.067775 -0.610383
  H 0.662669 -0.182952 -0.076609
  H -1.347961 0.492375 1.081751
  H -2.930804 -0.722981 -0.375270
  H -0.466605 -1.717695 -1.925729
  H -1.613112 -0.544171 -2.543315
  H -2.139647 -2.200333 -2.199327
  H -0.267121 -1.400423 1.704490
  H -0.040125 -3.099117 1.233553
  H -1.263186 -2.703205 2.411436
  O 3.115517 -0.221730 0.044564
  H 1.293399 0.042027 -0.082273
  H 3.518730 0.345244 -0.627787
 19
 119.108373
  C -1.279497 0.198200 0.051012
  C -1.912421 -0.998269 -0.441470
  C -1.586477 -1.401471 -1.874563
  C -1.836744 -2.313311 0.429271
  C -0.799942 -2.339141 1.496269
  O -2.562575 -3.240260 0.165510
  H -1.271675 1.058700 -0.611676
  H 0.755788 -0.199391 -0.090457
  H -1.442791 0.489080 1.087172
  H -2.996455 -0.739584 -0.372154
  H -0.543939 -1.729298 -1.949668
  H -1.712630 -0.559538 -2.551082
  H -2.224719 -2.224711 -2.195025
  H -0.321026 -1.383989 1.681924
  H -0.056063 -3.092670 1.236315
  H -1.275523 -2.715278 2.403428
  O 3.483369 -0.152526 0.067895
  H 1.384805 0.086189 -0.090926
  H 3.881357 0.415013 -0.581219
 19
 121.128465
  C -1.416743 0.193406 0.054821
  C -1.980279 -1.017353 -0.446450
  C -1.642657 -1.402273 -1.878100
  C -1.864254 -2.334781 0.424410
  C -0.833295 -2.328135 1.495251
  O -2.563292 -3.275604 0.165620
  H -1.358802 1.049741 -0.608388
  H 0.805905 -0.206928 -0.096695
  H -1.553637 0.477310 1.094489
  H -3.068927 -0.784336 -0.373043
  H -0.591616 -1.695364 -1.951476
  H -1.806451 -0.563802 -2.555283
  H -2.255791 -2.241928 -2.204374
  H -0.375913 -1.363603 1.668299
  H -0.060013 -3.041947 1.213168
  H -1.283303 -2.719817 2.404421
  O 3.777040 -0.150815 0.073861
  H 1.423556 0.128792 -0.097831
  H 4.198961 0.424906 -0.562685
