 23
 0.000000
  C 0.984013 0.150397 0.425158
  C 2.458213 0.135464 0.387720
  C 3.232686 0.603621 1.552868
  H 2.615825 0.935278 2.378931
  C 3.067798 -0.329947 -0.771374
  C 4.443504 -0.413990 -0.980760
  C 5.123120 -0.866103 -2.107867
  C 4.626618 -1.388667 -3.410379
  C 3.137777 -1.504588 -3.699641
  H 3.002036 -1.905297 -4.698460
  O 6.444041 -0.861032 -2.095549
  H 0.592084 0.527751 1.364483
  H 0.594159 -0.855593 0.263774
  H 0.593976 0.765118 -0.387291
  H 3.885485 1.426121 1.254495
  H 3.885811 -0.196465 1.906307
  H 2.409555 -0.647287 -1.561568
  H 5.070726 -0.084684 -0.160550
  H 5.088217 -2.374850 -3.534040
  H 5.088434 -0.761630 -4.181415
  H 2.654353 -0.531748 -3.661825
  H 2.654215 -2.181489 -2.999954
  H 6.834781 -0.528600 -1.265528
 23
 14.682038
  C 1.068573 0.074147 0.236520
  C 2.546152 0.112869 0.331165
  C 3.199976 0.609278 1.565831
  H 2.473534 0.908259 2.311292
  C 3.301074 -0.333970 -0.781668
  C 4.648923 -0.344480 -0.808161
  C 5.058153 -0.820136 -1.992687
  C 4.462669 -1.332095 -3.269132
  C 2.973106 -1.464873 -3.602007
  H 2.902403 -1.869463 -4.610650
  O 6.405373 -0.902160 -2.195731
  H 0.583870 0.435235 1.135765
  H 0.730592 -0.941926 0.032858
  H 0.729759 0.666506 -0.613421
  H 3.841177 1.461221 1.343869
  H 3.842360 -0.158498 1.994695
  H 2.714518 -0.660035 -1.593380
  H 5.291362 -0.031817 -0.029723
  H 4.931212 -2.319120 -3.395607
  H 4.932112 -0.706805 -4.042692
  H 2.463427 -0.503281 -3.611804
  H 2.462474 -2.166185 -2.944730
  H 6.924699 -0.599268 -1.439005
 23
 48.782258
  C 1.154864 0.004121 0.062379
  C 2.594738 0.091701 0.277979
  C 3.146312 0.601855 1.547001
  H 2.361325 0.884035 2.251382
  C 3.480267 -0.339520 -0.796033
  C 4.806404 -0.298682 -0.695659
  C 5.008905 -0.785520 -1.906300
  C 4.345705 -1.294369 -3.174240
  C 2.850326 -1.409784 -3.465316
  H 2.760834 -1.813368 -4.471072
  O 6.396782 -0.932664 -2.270338
  H 0.585992 0.347670 0.918463
  H 0.871248 -1.023499 -0.167609
  H 0.869834 0.586230 -0.814668
  H 3.780816 1.470289 1.360615
  H 3.782307 -0.153301 2.012712
  H 2.922070 -0.680391 -1.644018
  H 5.483667 0.013636 0.081609
  H 4.785969 -2.286197 -3.323171
  H 4.786812 -0.681842 -3.968023
  H 2.345510 -0.446710 -3.468510
  H 2.343343 -2.106867 -2.802350
  H 7.004601 -0.640201 -1.540376
 23
 91.588237
  C 1.169704 -0.017602 0.007775
  C 2.611626 0.086202 0.264747
  C 3.126543 0.594342 1.529853
  H 2.327409 0.867824 2.213418
  C 3.562225 -0.348020 -0.817932
  C 4.878815 -0.275252 -0.640561
  C 4.922052 -0.763190 -1.851974
  C 4.303199 -1.273129 -3.121439
  C 2.809239 -1.395313 -3.428751
  H 2.734586 -1.801105 -4.439352
  O 6.410862 -0.955344 -2.325842
  H 0.577191 0.319915 0.848476
  H 0.897310 -1.047880 -0.228181
  H 0.896683 0.562845 -0.875236
  H 3.763230 1.468237 1.359709
  H 3.765222 -0.153348 2.010638
  H 2.968145 -0.674894 -1.631854
  H 5.562360 0.027776 0.113325
  H 4.763219 -2.258916 -3.254846
  H 4.764631 -0.654774 -3.900056
  H 2.295793 -0.435242 -3.442681
  H 2.294300 -2.097690 -2.775254
  H 7.026155 -0.680267 -1.638269
 23
 130.316420
  C 1.151175 -0.014367 0.014769
  C 2.593419 0.084670 0.262076
  C 3.124634 0.592836 1.529479
  H 2.333014 0.867972 2.217139
  C 3.533418 -0.352185 -0.829492
  C 4.883907 -0.263405 -0.616821
  C 4.771770 -0.750313 -1.822505
  C 4.301262 -1.269474 -3.111526
  C 2.811455 -1.403281 -3.447882
  H 2.751472 -1.808917 -4.454738
  O 6.526642 -0.984325 -2.396536
  H 0.571960 0.325552 0.861674
  H 0.868479 -1.039093 -0.214320
  H 0.868629 0.567982 -0.858969
  H 3.762457 1.463168 1.358811
  H 3.763465 -0.153737 2.006789
  H 2.873002 -0.668724 -1.620910
  H 5.593772 0.034092 0.121996
  H 4.791790 -2.244549 -3.217600
  H 4.793844 -0.641914 -3.863961
  H 2.296326 -0.447850 -3.470386
  H 2.294638 -2.106632 -2.802141
  H 7.126731 -0.705781 -1.702656
 23
 139.122322
  C 1.061703 -0.013658 0.138785
  C 2.536236 0.072062 0.280474
  C 3.139381 0.611080 1.520414
  H 2.377585 0.888579 2.241020
  C 3.339241 -0.357355 -0.778890
  C 4.829477 -0.201786 -0.659972
  C 4.514306 -0.765815 -1.758548
  C 4.303611 -1.271735 -3.089518
  C 2.870623 -1.403358 -3.582784
  H 2.902112 -1.787440 -4.600301
  O 6.836181 -1.114431 -2.463602
  H 0.560002 0.353391 1.026969
  H 0.746328 -1.042203 -0.039176
  H 0.711974 0.563332 -0.717510
  H 3.751496 1.487879 1.307704
  H 3.803313 -0.123243 1.977159
  H 2.627172 -0.690058 -1.553790
  H 5.572321 0.141582 0.015191
  H 4.828331 -2.232517 -3.151789
  H 4.889408 -0.624386 -3.754118
  H 2.365651 -0.441125 -3.634139
  H 2.301391 -2.124923 -3.000856
  H 7.482924 -0.852399 -1.805407
 23
 140.024040
  C 1.025573 -0.038383 0.149086
  C 2.504299 0.069203 0.277447
  C 3.104062 0.634407 1.504627
  H 2.339577 0.911924 2.221334
  C 3.304572 -0.370074 -0.772991
  C 4.816329 -0.193084 -0.647992
  C 4.442057 -0.778454 -1.716308
  C 4.269066 -1.261303 -3.057776
  C 2.845425 -1.368979 -3.572711
  H 2.875613 -1.735684 -4.597563
  O 7.165822 -1.200210 -2.574074
  H 0.526820 0.340291 1.035425
  H 0.717045 -1.072981 -0.003826
  H 0.660305 0.524675 -0.711539
  H 3.700050 1.517434 1.278272
  H 3.775256 -0.085094 1.973620
  H 2.591880 -0.709852 -1.547030
  H 5.550177 0.170185 0.031873
  H 4.790152 -2.224851 -3.126831
  H 4.880279 -0.614022 -3.696584
  H 2.356481 -0.397218 -3.607306
  H 2.263049 -2.091087 -3.003937
  H 7.838422 -0.939916 -1.945013
 23
 141.174253
  C 0.968922 -0.035694 0.210515
  C 2.451436 0.074500 0.304854
  C 3.068547 0.659094 1.513158
  H 2.313122 0.942936 2.237595
  C 3.231186 -0.382814 -0.759725
  C 4.778129 -0.175870 -0.664325
  C 4.341998 -0.791703 -1.686679
  C 4.256593 -1.268364 -3.042769
  C 2.851981 -1.358943 -3.618156
  H 2.916861 -1.699135 -4.649281
  O 7.503391 -1.293037 -2.694188
  H 0.488422 0.359870 1.100136
  H 0.654630 -1.069831 0.083589
  H 0.588036 0.518051 -0.646925
  H 3.653374 1.541608 1.266656
  H 3.743688 -0.054089 1.981022
  H 2.500424 -0.756199 -1.508830
  H 5.495259 0.221253 0.015543
  H 4.779072 -2.227961 -3.102439
  H 4.886056 -0.595411 -3.635900
  H 2.380353 -0.379281 -3.654982
  H 2.238389 -2.080381 -3.081641
  H 8.206241 -1.024104 -2.093868
 23
 139.405802
  C 0.898947 0.005136 0.273221
  C 2.382592 0.070989 0.336406
  C 3.040501 0.625196 1.538652
  H 2.307397 0.895622 2.289676
  C 3.110919 -0.355948 -0.760568
  C 4.694974 -0.090649 -0.692851
  C 4.236472 -0.730202 -1.689256
  C 4.237200 -1.241544 -3.036479
  C 2.854928 -1.396683 -3.661450
  H 2.947295 -1.779062 -4.674918
  O 7.966958 -1.385956 -2.828710
  H 0.454414 0.392395 1.183014
  H 0.549227 -1.017124 0.127288
  H 0.514027 0.593921 -0.561001
  H 3.622789 1.512863 1.296236
  H 3.723561 -0.105558 1.973551
  H 2.370094 -0.694431 -1.512876
  H 5.352244 0.352491 0.014804
  H 4.785503 -2.193246 -3.041228
  H 4.877046 -0.571292 -3.621147
  H 2.354945 -0.431221 -3.728137
  H 2.242481 -2.097943 -3.096692
  H 8.696279 -1.166892 -2.255153
 23
 141.663434
  C 0.848178 -0.002891 0.318407
  C 2.338370 0.064599 0.352670
  C 3.018064 0.632782 1.535904
  H 2.305673 0.899897 2.303627
  C 3.039072 -0.354849 -0.765473
  C 4.644538 -0.040218 -0.721917
  C 4.155427 -0.711785 -1.681622
  C 4.189803 -1.242852 -3.029544
  C 2.824551 -1.372585 -3.685581
  H 2.921552 -1.767441 -4.689484
  O 8.376020 -1.467760 -2.863567
  H 0.419196 0.374661 1.237078
  H 0.502620 -1.025727 0.179025
  H 0.444685 0.583767 -0.506739
  H 3.581735 1.525186 1.274137
  H 3.724400 -0.083429 1.952498
  H 2.274320 -0.698455 -1.488392
  H 5.263720 0.441983 -0.003647
  H 4.720368 -2.207774 -3.019210
  H 4.853556 -0.585779 -3.612883
  H 2.338790 -0.400669 -3.747855
  H 2.187322 -2.048860 -3.119092
  H 9.124804 -1.258136 -2.309086
 23
 140.351814
  C 0.790946 -0.037109 0.361130
  C 2.275466 0.074388 0.365869
  C 2.950603 0.666164 1.545020
  H 2.225085 0.923347 2.317747
  C 2.963513 -0.333889 -0.762829
  C 4.598099 0.002893 -0.719513
  C 4.103731 -0.675136 -1.667443
  C 4.144832 -1.213647 -3.006129
  C 2.789654 -1.340870 -3.682546
  H 2.916589 -1.768709 -4.681798
  O 8.869643 -1.588514 -3.015533
  H 0.367090 0.350563 1.285793
  H 0.467389 -1.067806 0.236937
  H 0.355330 0.534603 -0.465277
  H 3.491392 1.569520 1.279835
  H 3.665065 -0.038692 1.967932
  H 2.220941 -0.683024 -1.501648
  H 5.208048 0.506528 -0.007894
  H 4.633100 -2.192750 -2.959341
  H 4.813565 -0.574336 -3.573809
  H 2.322640 -0.360518 -3.799829
  H 2.125999 -2.001820 -3.122841
  H 9.604048 -1.417636 -2.431896
 23
 140.455816
  C 0.717023 0.008142 0.358749
  C 2.203987 0.088079 0.379816
  C 2.882185 0.630391 1.580929
  H 2.165999 0.869257 2.359677
  C 2.888571 -0.277776 -0.763983
  C 4.518893 0.071405 -0.698195
  C 4.047314 -0.623618 -1.647256
  C 4.108814 -1.201815 -2.970757
  C 2.750272 -1.371903 -3.634177
  H 2.886840 -1.835782 -4.608011
  O 9.338388 -1.673395 -3.203119
  H 0.293872 0.360390 1.289639
  H 0.381749 -1.018278 0.189892
  H 0.298101 0.606801 -0.444456
  H 3.437292 1.541772 1.341478
  H 3.593325 -0.089981 1.977334
  H 2.136691 -0.567137 -1.524687
  H 5.113001 0.584015 0.017422
  H 4.615699 -2.174371 -2.892652
  H 4.758314 -0.552040 -3.566266
  H 2.279911 -0.404302 -3.814160
  H 2.098768 -2.026354 -3.061883
  H 10.069272 -1.519452 -2.603470
 23
 141.362554
  C 0.665753 0.034727 0.361350
  C 2.148489 0.090689 0.384818
  C 2.834688 0.583919 1.599430
  H 2.132182 0.759965 2.406255
  C 2.828095 -0.228722 -0.780152
  C 4.447022 0.178526 -0.704188
  C 3.982977 -0.547708 -1.633796
  C 4.046541 -1.172200 -2.938136
  C 2.695875 -1.401924 -3.598588
  H 2.846813 -1.905778 -4.548693
  O 9.693331 -1.742101 -3.283422
  H 0.243143 0.327978 1.314068
  H 0.318770 -0.970436 0.125154
  H 0.259710 0.689846 -0.406684
  H 3.360970 1.519286 1.400852
  H 3.578334 -0.138133 1.935578
  H 2.075480 -0.491783 -1.549344
  H 5.040655 0.709341 -0.007480
  H 4.559146 -2.137074 -2.811488
  H 4.706137 -0.558807 -3.563491
  H 2.198562 -0.459172 -3.818129
  H 2.054319 -2.036930 -2.993150
  H 10.414169 -1.602807 -2.666448
 23
 142.484141
  C 0.619990 0.041540 0.410821
  C 2.099823 0.088268 0.397214
  C 2.821147 0.543398 1.604737
  H 2.143847 0.692488 2.436008
  C 2.749082 -0.202755 -0.803822
  C 4.353299 0.277136 -0.765236
  C 3.881892 -0.500219 -1.647873
  C 3.973068 -1.156123 -2.940305
  C 2.626011 -1.428232 -3.596579
  H 2.779446 -1.958814 -4.533178
  O 10.028461 -1.784813 -3.231111
  H 0.225528 0.280976 1.388356
  H 0.254593 -0.942550 0.121674
  H 0.201964 0.750380 -0.305962
  H 3.338094 1.485180 1.422400
  H 3.578726 -0.187477 1.895168
  H 1.968005 -0.444965 -1.552429
  H 4.939913 0.848835 -0.096565
  H 4.492391 -2.108359 -2.778300
  H 4.629451 -0.560564 -3.580356
  H 2.120154 -0.497522 -3.840666
  H 1.991155 -2.048832 -2.969487
  H 10.728004 -1.669499 -2.587626
