 23
 0.000000
  C 1.004253 0.112616 0.329627
  C 2.479470 0.126060 0.366091
  C 3.229924 0.603042 1.553875
  C 2.411600 1.082293 2.745498
  H 3.083078 1.399862 3.537359
  C 3.143030 -0.329781 -0.767310
  C 4.525446 -0.394086 -0.928378
  C 5.181832 -0.850013 -2.067036
  C 4.529672 -1.345031 -3.298248
  H 3.447928 -1.326830 -3.249540
  O 6.493007 -0.870812 -2.124680
  H 0.550174 0.479474 1.241364
  H 0.647813 -0.901228 0.138801
  H 0.649290 0.713174 -0.509826
  H 3.890700 1.417281 1.235826
  H 3.889815 -0.205432 1.887945
  H 1.783406 0.289187 3.141886
  H 1.784652 1.930068 2.482830
  H 2.519243 -0.658206 -1.585372
  H 5.149423 -0.064909 -0.108581
  H 4.872209 -2.361720 -3.496250
  H 4.870338 -0.746838 -4.144661
  H 6.946358 -0.547916 -1.324396
 23
 12.923124
  C 0.964704 0.135109 0.385679
  C 2.430565 0.155373 0.439180
  C 3.184197 0.627785 1.615518
  C 2.371092 1.108320 2.810256
  H 3.047459 1.425003 3.599894
  C 3.163139 -0.341196 -0.795377
  C 4.525154 -0.395107 -0.930694
  C 5.250316 -0.892761 -2.173702
  C 4.593832 -1.383734 -3.394851
  H 3.513081 -1.362588 -3.338932
  O 6.551375 -0.906346 -2.213344
  H 0.501160 0.500301 1.293173
  H 0.614273 -0.880382 0.190746
  H 0.615795 0.733996 -0.457905
  H 3.845917 1.440461 1.293608
  H 3.845072 -0.182208 1.945750
  H 1.743214 0.315719 3.209630
  H 1.744490 1.957788 2.550059
  H 2.542549 -0.669385 -1.612734
  H 5.145495 -0.066260 -0.111800
  H 4.932450 -2.400884 -3.594008
  H 4.930623 -0.786072 -4.242369
  H 6.994752 -0.581036 -1.406727
 23
 39.335841
  C 0.918934 0.138113 0.399939
  C 2.372802 0.178261 0.499591
  C 3.163763 0.639506 1.641633
  C 2.370002 1.126136 2.848473
  H 3.057128 1.442121 3.631274
  C 3.172577 -0.358117 -0.832048
  C 4.520306 -0.385027 -0.899865
  C 5.319396 -0.924094 -2.249724
  C 4.624354 -1.397568 -3.439042
  H 3.552273 -1.356263 -3.339651
  O 6.610160 -0.919613 -2.237777
  H 0.433794 0.500466 1.298829
  H 0.582315 -0.879674 0.199704
  H 0.582445 0.732731 -0.450079
  H 3.824525 1.445444 1.303163
  H 3.825607 -0.174758 1.957094
  H 1.743208 0.334827 3.254144
  H 1.742789 1.977156 2.591616
  H 2.517461 -0.674276 -1.618305
  H 5.173907 -0.069208 -0.110752
  H 4.934637 -2.420062 -3.653247
  H 4.937066 -0.803892 -4.297742
  H 7.031515 -0.593004 -1.417840
 23
 71.443893
  C 0.885406 0.151875 0.434947
  C 2.323587 0.205026 0.566002
  C 3.130763 0.656287 1.682675
  C 2.342943 1.144673 2.894392
  H 3.031460 1.458557 3.671472
  C 3.190835 -0.368052 -0.857341
  C 4.509585 -0.375660 -0.877180
  C 5.383423 -0.959701 -2.338298
  C 4.664784 -1.422557 -3.502027
  H 3.589191 -1.368532 -3.372489
  O 6.670493 -0.945441 -2.300078
  H 0.386716 0.511636 1.327729
  H 0.556582 -0.873427 0.229364
  H 0.556304 0.747989 -0.424137
  H 3.795976 1.462767 1.335245
  H 3.797590 -0.164295 1.991894
  H 1.718035 0.354834 3.301056
  H 1.717189 1.995058 2.639349
  H 2.520047 -0.679110 -1.630975
  H 5.180452 -0.065576 -0.103049
  H 4.959564 -2.452878 -3.724800
  H 4.963051 -0.829261 -4.372299
  H 7.085608 -0.614977 -1.469434
 23
 103.302137
  C 0.845747 0.163973 0.464878
  C 2.276708 0.231836 0.632522
  C 3.101625 0.677734 1.736089
  C 2.314916 1.166382 2.948276
  H 3.002669 1.480226 3.725477
  C 3.208786 -0.373584 -0.871408
  C 4.501402 -0.363443 -0.846733
  C 5.454103 -0.996222 -2.429424
  C 4.708437 -1.453629 -3.579465
  H 3.631919 -1.388991 -3.423013
  O 6.729311 -0.974053 -2.371499
  H 0.326634 0.521225 1.351581
  H 0.528632 -0.861096 0.254153
  H 0.528346 0.756340 -0.397710
  H 3.762665 1.479957 1.386517
  H 3.764166 -0.141448 2.040745
  H 1.689180 0.376210 3.351414
  H 1.688481 2.014618 2.690451
  H 2.522041 -0.679220 -1.631854
  H 5.194619 -0.061234 -0.092323
  H 4.987615 -2.486055 -3.809463
  H 4.990982 -0.863778 -4.456437
  H 7.137141 -0.642374 -1.538122
 23
 132.329697
  C 0.794014 0.187552 0.523132
  C 2.222363 0.262192 0.707692
  C 3.054419 0.706163 1.806938
  C 2.265818 1.196010 3.022427
  H 2.954659 1.509964 3.800246
  C 3.218435 -0.379621 -0.887238
  C 4.501613 -0.362137 -0.844072
  C 5.527623 -1.041007 -2.541215
  C 4.777276 -1.494700 -3.681181
  H 3.707886 -1.426700 -3.515873
  O 6.803073 -1.016841 -2.478647
  H 0.267772 0.542600 1.404753
  H 0.480430 -0.841798 0.310191
  H 0.480106 0.781685 -0.343896
  H 3.718506 1.511782 1.455224
  H 3.719885 -0.117076 2.112178
  H 1.639497 0.404631 3.425543
  H 1.638869 2.045254 2.763921
  H 2.526390 -0.682055 -1.639903
  H 5.203756 -0.064205 -0.100417
  H 5.051284 -2.528936 -3.913157
  H 5.054399 -0.905102 -4.561135
  H 7.208846 -0.685837 -1.647457
 23
 155.792832
  C 0.748295 0.195223 0.538357
  C 2.170674 0.290298 0.775814
  C 3.028245 0.728571 1.865052
  C 2.240450 1.219956 3.086499
  H 2.936815 1.531860 3.862049
  C 3.211977 -0.369491 -0.867400
  C 4.463843 -0.333316 -0.779402
  C 5.591260 -1.075566 -2.628321
  C 4.833427 -1.531846 -3.767543
  H 3.764538 -1.460608 -3.592286
  O 6.858721 -1.055545 -2.579112
  H 0.197454 0.545743 1.410474
  H 0.446322 -0.835792 0.320606
  H 0.446564 0.788941 -0.332294
  H 3.692077 1.532862 1.514929
  H 3.692907 -0.093696 2.169071
  H 1.613714 0.427253 3.489860
  H 1.613826 2.071352 2.828602
  H 2.505074 -0.664583 -1.601839
  H 5.192180 -0.046455 -0.066033
  H 5.101725 -2.564793 -3.998992
  H 5.103053 -0.945713 -4.648605
  H 7.268011 -0.725493 -1.755591
 23
 169.202024
  C 0.719761 0.223715 0.598743
  C 2.124252 0.331714 0.847522
  C 2.950216 0.760429 1.936609
  C 2.178633 1.238832 3.170803
  H 2.880169 1.542438 3.940287
  C 3.211864 -0.321970 -0.820065
  C 4.442800 -0.277270 -0.711211
  C 5.661130 -1.121302 -2.734783
  C 4.909465 -1.599559 -3.898117
  H 3.838723 -1.524034 -3.733122
  O 6.929999 -1.128764 -2.735636
  H 0.130665 0.556216 1.458977
  H 0.449131 -0.806360 0.360005
  H 0.436762 0.813959 -0.274566
  H 3.608798 1.560098 1.584474
  H 3.616411 -0.060977 2.216923
  H 1.558835 0.444055 3.571166
  H 1.551486 2.089705 2.928698
  H 2.486405 -0.615803 -1.539677
  H 5.200031 0.002567 -0.024848
  H 5.180140 -2.635768 -4.115260
  H 5.190589 -1.025678 -4.784521
  H 7.359891 -0.786507 -1.922164
 23
 172.945833
  C 0.713582 0.254697 0.673775
  C 2.100999 0.364561 0.907236
  C 2.840785 0.803568 2.030187
  C 2.058591 1.277579 3.267311
  H 2.750081 1.582249 4.045752
  C 3.246857 -0.288875 -0.714709
  C 4.467113 -0.236243 -0.591945
  C 5.729569 -1.172598 -2.877116
  C 4.977979 -1.662636 -4.054103
  H 3.909625 -1.593120 -3.887659
  O 7.017828 -1.223292 -2.988578
  H 0.078584 0.576647 1.510246
  H 0.481588 -0.781296 0.418913
  H 0.460312 0.830183 -0.218912
  H 3.509117 1.599160 1.678431
  H 3.516249 -0.016139 2.303698
  H 1.435359 0.479341 3.660874
  H 1.426475 2.126814 3.023250
  H 2.503722 -0.570081 -1.413833
  H 5.267321 0.027579 0.046329
  H 5.256329 -2.696474 -4.267653
  H 5.257006 -1.085286 -4.938059
  H 7.493601 -0.905667 -2.197331
 23
 176.848902
  C 0.664168 0.278573 0.739974
  C 2.052325 0.392522 0.986230
  C 2.780706 0.836801 2.111439
  C 1.994886 1.314629 3.339828
  H 2.683826 1.622698 4.120081
  C 3.260363 -0.295235 -0.684369
  C 4.471804 -0.235757 -0.545151
  C 5.799946 -1.215771 -2.991626
  C 5.044060 -1.701679 -4.171511
  H 3.976741 -1.634670 -3.999641
  O 7.086324 -1.273872 -3.129072
  H 0.016443 0.601250 1.563398
  H 0.440781 -0.760413 0.483914
  H 0.421951 0.846368 -0.162251
  H 3.452377 1.628861 1.758126
  H 3.456858 0.019024 2.388976
  H 1.370382 0.517717 3.733429
  H 1.364115 2.162601 3.088879
  H 2.507633 -0.569724 -1.375672
  H 5.287192 0.019972 0.075524
  H 5.323575 -2.733254 -4.391546
  H 5.318492 -1.119038 -5.052447
  H 7.576207 -0.969701 -2.336572
 23
 179.792844
  C 0.617146 0.302137 0.803333
  C 1.999863 0.420273 1.064304
  C 2.722145 0.869697 2.191848
  C 1.931109 1.353127 3.414081
  H 2.617062 1.664088 4.195584
  C 3.270808 -0.305107 -0.656376
  C 4.474009 -0.237747 -0.496819
  C 5.867922 -1.257053 -3.102632
  C 5.105874 -1.737920 -4.283861
  H 4.039161 -1.673235 -4.105187
  O 7.153884 -1.319698 -3.261294
  H -0.042771 0.626543 1.614771
  H 0.401753 -0.738831 0.547317
  H 0.386352 0.862058 -0.107068
  H 3.398155 1.658296 1.836740
  H 3.398842 0.052901 2.473842
  H 1.304564 0.557859 3.807818
  H 1.302069 2.200262 3.155961
  H 2.507945 -0.571693 -1.337170
  H 5.304509 0.009272 0.105083
  H 5.385903 -2.767249 -4.511011
  H 5.374704 -1.149681 -5.162242
  H 7.653832 -1.027895 -2.469245
 23
 181.666176
  C 0.567194 0.326567 0.866836
  C 1.945803 0.449125 1.144170
  C 2.664416 0.902280 2.271073
  C 1.869042 1.392271 3.487906
  H 2.552899 1.705780 4.270370
  C 3.279860 -0.317504 -0.628493
  C 4.474269 -0.242189 -0.446882
  C 5.933695 -1.296265 -3.210095
  C 5.164881 -1.770935 -4.390854
  H 4.099287 -1.708428 -4.204419
  O 7.219168 -1.361632 -3.387244
  H -0.105147 0.653468 1.666943
  H 0.358757 -0.716690 0.611499
  H 0.347674 0.878989 -0.051660
  H 3.344694 1.686790 1.914014
  H 3.340746 0.086135 2.557493
  H 1.240026 0.599100 3.882091
  H 1.242267 2.238954 3.222664
  H 2.505273 -0.575462 -1.297229
  H 5.319673 -0.004422 0.135657
  H 5.444918 -2.798079 -4.625728
  H 5.427421 -1.176882 -5.266709
  H 7.727837 -1.080841 -2.595913
 23
 182.664779
  C 0.514960 0.351936 0.931747
  C 1.888407 0.478783 1.225065
  C 2.605496 0.935510 2.350536
  C 1.807469 1.432916 3.563340
  H 2.490326 1.748681 4.345837
  C 3.285725 -0.331684 -0.600528
  C 4.471271 -0.248324 -0.395658
  C 5.997998 -1.333437 -3.314234
  C 5.221826 -1.800722 -4.494227
  H 4.157173 -1.739830 -4.299852
  O 7.282557 -1.400926 -3.507562
  H -0.169202 0.681613 1.720632
  H 0.312989 -0.693297 0.678033
  H 0.306528 0.896846 0.005917
  H 3.289911 1.715637 1.990837
  H 3.281092 0.119714 2.641082
  H 1.176013 0.642312 3.958773
  H 1.183158 2.279354 3.291582
  H 2.498574 -0.580519 -1.255745
  H 5.330577 -0.020059 0.167843
  H 5.501115 -2.825828 -4.737351
  H 5.478383 -1.200578 -5.367396
  H 7.799617 -1.131340 -2.717147
 23
 183.070734
  C 0.459393 0.378606 0.999300
  C 1.827913 0.508857 1.308246
  C 2.544625 0.969431 2.430825
  C 1.745619 1.475916 3.640088
  H 2.428479 1.794053 4.421725
  C 3.288823 -0.347724 -0.570494
  C 4.465432 -0.256711 -0.341340
  C 6.060151 -1.368781 -3.414573
  C 5.275933 -1.826079 -4.593628
  H 4.212464 -1.766029 -4.391100
  O 7.343458 -1.437575 -3.621994
  H -0.236121 0.712020 1.776968
  H 0.262803 -0.668628 0.748232
  H 0.262252 0.915893 0.066252
  H 3.233222 1.744394 2.067305
  H 3.218924 0.153757 2.725628
  H 1.111428 0.688668 4.037986
  H 1.124109 2.322338 3.361694
  H 2.488416 -0.587004 -1.210996
  H 5.338053 -0.038610 0.203712
  H 5.553302 -2.849091 -4.846353
  H 5.526991 -1.218960 -5.463270
  H 7.867965 -1.178383 -2.832632
