 17
 0.000000
  C 0.992706 0.128978 0.380265
  C 2.464047 0.136451 0.399553
  C 3.189745 0.614483 1.586501
  H 2.526943 0.936296 2.381888
  C 3.125533 -0.319900 -0.736826
  C 4.511006 -0.382768 -0.895385
  C 5.112761 -0.843430 -2.046166
  H 4.562750 -1.192197 -2.912155
  O 6.397255 -0.914183 -2.231109
  H 0.558328 0.495213 1.305246
  H 0.625277 -0.881180 0.192631
  H 0.623253 0.740681 -0.446148
  H 3.844312 1.444721 1.316226
  H 3.842040 -0.172388 1.968858
  H 2.512558 -0.651777 -1.563793
  H 5.145574 -0.056216 -0.082482
  H 6.933531 -0.606485 -1.472221
 17
 4.279751
  C 1.005510 0.079634 0.411353
  C 2.441819 0.126227 0.409259
  C 3.177526 0.624802 1.568969
  H 2.504029 0.977481 2.344409
  C 3.122901 -0.328237 -0.727886
  C 4.506682 -0.366970 -0.873926
  C 5.086656 -0.832042 -2.019401
  H 4.481416 -1.185057 -2.845033
  O 6.363673 -0.906532 -2.254270
  H 0.531783 0.451701 1.311556
  H 0.577551 -0.881080 0.113811
  H 0.905360 0.757273 -0.425274
  H 3.857659 1.432273 1.293977
  H 3.795044 -0.175876 1.983693
  H 2.527373 -0.679035 -1.556239
  H 5.141359 -0.026924 -0.066152
  H 6.934420 -0.588743 -1.519397
 17
 12.532737
  C 0.991079 0.034294 0.439999
  C 2.417912 0.113497 0.409191
  C 3.172711 0.652534 1.567914
  H 2.507346 1.041729 2.330065
  C 3.106649 -0.347408 -0.734061
  C 4.496952 -0.367950 -0.880862
  C 5.089939 -0.839168 -2.028210
  H 4.490006 -1.208748 -2.849438
  O 6.367489 -0.897665 -2.262017
  H 0.499594 0.363442 1.348851
  H 0.517651 -0.846262 0.002741
  H 1.108699 0.811068 -0.321872
  H 3.876087 1.431330 1.279437
  H 3.755763 -0.157951 2.004564
  H 2.516464 -0.723237 -1.557824
  H 5.124123 -0.011154 -0.076691
  H 6.929200 -0.564171 -1.524483
 17
 19.856246
  C 0.980985 -0.000804 0.469598
  C 2.405630 0.104165 0.403210
  C 3.158569 0.670660 1.552897
  H 2.496065 1.076737 2.298698
  C 3.100699 -0.364362 -0.746057
  C 4.494242 -0.371043 -0.892886
  C 5.094272 -0.845400 -2.031277
  H 4.503540 -1.229835 -2.855530
  O 6.380265 -0.892588 -2.260002
  H 0.488937 0.278570 1.393184
  H 0.469596 -0.785603 -0.081721
  H 1.264735 0.864070 -0.186411
  H 3.864886 1.435818 1.251390
  H 3.724747 -0.133455 2.010293
  H 2.511664 -0.759514 -1.563842
  H 5.117898 -0.002846 -0.091254
  H 6.927167 -0.548098 -1.524542
 17
 25.302977
  C 0.979752 -0.034657 0.486851
  C 2.399270 0.106784 0.392721
  C 3.146779 0.684370 1.540038
  H 2.475549 1.098573 2.282843
  C 3.101352 -0.370061 -0.755349
  C 4.484713 -0.370154 -0.899273
  C 5.090491 -0.852095 -2.031155
  H 4.503364 -1.248119 -2.858460
  O 6.382998 -0.894798 -2.254499
  H 0.489060 0.193280 1.414215
  H 0.452736 -0.723769 -0.155033
  H 1.384962 0.896807 -0.069405
  H 3.856223 1.460036 1.226881
  H 3.714261 -0.115006 2.010436
  H 2.517939 -0.779284 -1.566587
  H 5.108358 0.011617 -0.096373
  H 6.917164 -0.546661 -1.521263
 17
 29.719040
  C 0.975404 -0.060266 0.496914
  C 2.391090 0.117927 0.384870
  C 3.142686 0.696362 1.535911
  H 2.468594 1.109695 2.282329
  C 3.098602 -0.369334 -0.765266
  C 4.481522 -0.365527 -0.908591
  C 5.093080 -0.859032 -2.034487
  H 4.514686 -1.263014 -2.856237
  O 6.387001 -0.901789 -2.252100
  H 0.480138 0.146458 1.427887
  H 0.439322 -0.679277 -0.201226
  H 1.469012 0.903970 0.007430
  H 3.836140 1.470988 1.218576
  H 3.720226 -0.097769 2.009733
  H 2.516991 -0.785097 -1.568796
  H 5.100862 0.023825 -0.111492
  H 6.917172 -0.543781 -1.515508
 17
 33.432177
  C 0.971221 -0.085329 0.505491
  C 2.382055 0.133755 0.376790
  C 3.143859 0.704248 1.536180
  H 2.474832 1.111890 2.283033
  C 3.094057 -0.363262 -0.773122
  C 4.476568 -0.359850 -0.912553
  C 5.093174 -0.860715 -2.033571
  H 4.521335 -1.268688 -2.852166
  O 6.391083 -0.904740 -2.245753
  H 0.468654 0.131378 1.432267
  H 0.432996 -0.668722 -0.216216
  H 1.533714 0.906914 0.026809
  H 3.831689 1.481814 1.220140
  H 3.728405 -0.094654 2.006874
  H 2.510669 -0.781427 -1.573420
  H 5.094908 0.036376 -0.113394
  H 6.915910 -0.542322 -1.509771
 17
 36.527359
  C 0.973093 -0.108539 0.517356
  C 2.375963 0.152945 0.371815
  C 3.145134 0.707795 1.536473
  H 2.476600 1.113448 2.290742
  C 3.093477 -0.354914 -0.778681
  C 4.473569 -0.353045 -0.913883
  C 5.094820 -0.860022 -2.031290
  H 4.524091 -1.273324 -2.854256
  O 6.392921 -0.907079 -2.236659
  H 0.467468 0.123520 1.436237
  H 0.431754 -0.673545 -0.219659
  H 1.588412 0.918628 0.028229
  H 3.834840 1.489251 1.223753
  H 3.724285 -0.091449 1.996046
  H 2.507216 -0.775695 -1.581294
  H 5.086286 0.043910 -0.119024
  H 6.914154 -0.540917 -1.499594
 17
 39.409372
  C 0.972893 -0.126806 0.521776
  C 2.373771 0.163486 0.365803
  C 3.151149 0.712372 1.536081
  H 2.482433 1.121305 2.295550
  C 3.088155 -0.349471 -0.784360
  C 4.468755 -0.350014 -0.916336
  C 5.089188 -0.857428 -2.028924
  H 4.528618 -1.261881 -2.835984
  O 6.392377 -0.908375 -2.234460
  H 0.464221 0.115116 1.438041
  H 0.429882 -0.681896 -0.227531
  H 1.640460 0.922925 0.025743
  H 3.843050 1.489108 1.224647
  H 3.721337 -0.081587 1.988089
  H 2.496506 -0.771178 -1.589857
  H 5.090346 0.053450 -0.107464
  H 6.914483 -0.543220 -1.498478
 17
 40.921001
  C 0.975197 -0.154255 0.536508
  C 2.366662 0.186582 0.366400
  C 3.147661 0.720225 1.543416
  H 2.480819 1.127954 2.298388
  C 3.094423 -0.342521 -0.788848
  C 4.471672 -0.345310 -0.916801
  C 5.097169 -0.861022 -2.030433
  H 4.528120 -1.270944 -2.854030
  O 6.395550 -0.911377 -2.230648
  H 0.458148 0.100358 1.442024
  H 0.438060 -0.693542 -0.221529
  H 1.685914 0.965509 0.006816
  H 3.844483 1.497498 1.238209
  H 3.714734 -0.088030 1.996050
  H 2.503223 -0.762433 -1.589749
  H 5.082683 0.057391 -0.120870
  H 6.915289 -0.542799 -1.494538
 17
 42.642697
  C 0.979548 -0.174532 0.542187
  C 2.366155 0.201460 0.359567
  C 3.151062 0.726828 1.542235
  H 2.486854 1.132026 2.293685
  C 3.091002 -0.333207 -0.793095
  C 4.470505 -0.335510 -0.919854
  C 5.093740 -0.854245 -2.027372
  H 4.523598 -1.265806 -2.846865
  O 6.392613 -0.917555 -2.223002
  H 0.458282 0.084109 1.447735
  H 0.444090 -0.710686 -0.225195
  H 1.732912 0.985632 -0.005273
  H 3.849199 1.503067 1.240283
  H 3.716763 -0.085868 1.993839
  H 2.498793 -0.749457 -1.591301
  H 5.082671 0.067450 -0.119704
  H 6.917187 -0.550269 -1.485170
 17
 43.491730
  C 0.987239 -0.197677 0.550988
  C 2.365012 0.221490 0.358151
  C 3.147441 0.735458 1.548802
  H 2.477661 1.142470 2.298197
  C 3.098094 -0.322926 -0.797340
  C 4.471841 -0.324789 -0.923381
  C 5.096849 -0.851106 -2.033309
  H 4.522738 -1.268258 -2.850307
  O 6.392054 -0.927945 -2.223232
  H 0.463673 0.060413 1.448313
  H 0.458656 -0.727017 -0.219213
  H 1.777546 1.022152 -0.019003
  H 3.851384 1.511957 1.253789
  H 3.705085 -0.082609 2.000466
  H 2.504995 -0.741248 -1.595589
  H 5.082231 0.076017 -0.125511
  H 6.918569 -0.563284 -1.487862
 17
 43.006786
  C 1.003685 -0.224340 0.560104
  C 2.360266 0.243724 0.348274
  C 3.147366 0.739786 1.547748
  H 2.477174 1.154219 2.294730
  C 3.098416 -0.310037 -0.800023
  C 4.468137 -0.310830 -0.923152
  C 5.095778 -0.843916 -2.033804
  H 4.519730 -1.268723 -2.847240
  O 6.387446 -0.934330 -2.215472
  H 0.479256 0.035426 1.455377
  H 0.477532 -0.754203 -0.208865
  H 1.831552 1.071293 -0.049515
  H 3.861629 1.509091 1.260531
  H 3.689228 -0.087618 1.999359
  H 2.503340 -0.733332 -1.595699
  H 5.077641 0.088970 -0.125467
  H 6.916096 -0.571625 -1.481375
 17
 42.192033
  C 1.011473 -0.240027 0.572823
  C 2.355314 0.263742 0.340815
  C 3.143490 0.744033 1.551911
  H 2.472176 1.173673 2.290059
  C 3.103485 -0.310936 -0.803526
  C 4.471111 -0.313030 -0.921836
  C 5.101265 -0.853179 -2.031457
  H 4.522583 -1.265001 -2.850163
  O 6.389187 -0.929286 -2.219551
  H 0.487891 0.021954 1.467351
  H 0.489150 -0.783507 -0.188068
  H 1.896116 1.121015 -0.088990
  H 3.875210 1.499559 1.273647
  H 3.661901 -0.094018 2.009984
  H 2.506465 -0.734546 -1.598169
  H 5.078805 0.098674 -0.129307
  H 6.921433 -0.560009 -1.491725
