 16
 0.000000
  H 1.480072 0.159677 0.447702
  C 2.564395 0.148614 0.419169
  C 3.260526 0.625051 1.603674
  C 2.368298 1.080081 2.740408
  H 2.963208 1.419607 3.586110
  C 3.162863 -0.315533 -0.735899
  C 4.559881 -0.403994 -0.954956
  C 5.068580 -0.872908 -2.122676
  H 4.423619 -1.194873 -2.925268
  H 6.130380 -0.939645 -2.287578
  H 3.954146 1.432863 1.321178
  H 3.955992 -0.152498 1.957434
  H 1.722263 0.271539 3.078728
  H 1.720824 1.897383 2.426966
  H 2.518786 -0.638693 -1.541309
  H 5.233843 -0.089273 -0.169306
 16
 2.555381
  H 1.469227 0.118974 0.468081
  C 2.550627 0.146686 0.432207
  C 3.255037 0.658190 1.594710
  C 2.363577 1.081885 2.745960
  H 2.956831 1.438882 3.581623
  C 3.151256 -0.293488 -0.708838
  C 4.544478 -0.437115 -0.920603
  C 5.030292 -0.869045 -2.117560
  H 4.399610 -1.140958 -2.946811
  H 6.094044 -0.959703 -2.286874
  H 3.916174 1.488417 1.304345
  H 3.970866 -0.108649 1.932253
  H 1.745658 0.253250 3.086144
  H 1.684015 1.876180 2.442969
  H 2.646162 -0.615616 -1.615878
  H 5.274945 -0.213293 -0.153922
 16
 7.398131
  H 1.462600 0.027844 0.512193
  C 2.548036 0.119452 0.440061
  C 3.245004 0.712703 1.567746
  C 2.360220 1.096238 2.745073
  H 2.960127 1.511029 3.556237
  C 3.138827 -0.293995 -0.697346
  C 4.529718 -0.566576 -0.894601
  C 5.034259 -0.836045 -2.126223
  H 4.423699 -0.927280 -3.010500
  H 6.098145 -0.963518 -2.275967
  H 3.838293 1.580768 1.258554
  H 3.995829 -0.020163 1.900235
  H 1.815453 0.239640 3.118409
  H 1.640110 1.853579 2.459552
  H 2.700117 -0.573429 -1.653502
  H 5.235812 -0.543764 -0.081685
 16
 10.864905
  H 1.463427 -0.026458 0.568374
  C 2.533332 0.085086 0.468436
  C 3.242756 0.747743 1.570949
  C 2.350727 1.127841 2.732243
  H 2.958179 1.537870 3.539817
  C 3.139460 -0.337686 -0.667595
  C 4.519854 -0.652370 -0.912498
  C 5.040775 -0.768614 -2.151916
  H 4.451239 -0.729020 -3.049357
  H 6.097935 -0.937515 -2.287180
  H 3.804114 1.620736 1.199881
  H 3.976189 0.003006 1.902878
  H 1.847928 0.256351 3.131159
  H 1.618221 1.880703 2.459020
  H 2.761614 -0.618351 -1.639132
  H 5.205197 -0.784034 -0.074278
 16
 13.127394
  H 1.527667 -0.132535 0.624615
  C 2.573139 0.080449 0.480412
  C 3.269385 0.802926 1.567343
  C 2.351316 1.140850 2.723290
  H 2.914854 1.617602 3.514150
  C 3.172436 -0.340957 -0.652609
  C 4.500306 -0.783020 -0.934138
  C 5.051934 -0.721791 -2.163966
  H 4.506491 -0.426910 -3.035567
  H 6.099420 -0.959030 -2.304250
  H 3.736149 1.704288 1.168594
  H 4.022866 0.077693 1.902478
  H 1.880018 0.246828 3.133142
  H 1.579340 1.846251 2.419536
  H 2.705226 -0.641351 -1.583492
  H 5.118688 -1.118068 -0.100432
 16
 17.886379
  H 1.556583 -0.172250 0.645978
  C 2.608744 0.028650 0.509455
  C 3.253976 0.798589 1.592054
  C 2.315806 1.174550 2.724755
  H 2.847179 1.746149 3.482118
  C 3.224766 -0.372884 -0.592921
  C 4.517460 -0.873665 -1.006840
  C 5.077465 -0.647099 -2.215081
  H 4.540694 -0.199927 -3.026607
  H 6.099638 -0.953173 -2.408517
  H 3.703474 1.701263 1.180634
  H 4.073428 0.175535 1.978925
  H 1.887493 0.292925 3.194556
  H 1.504978 1.799729 2.368110
  H 2.712680 -0.729539 -1.479114
  H 5.082160 -1.384438 -0.216609
 16
 24.138250
  H 1.610752 -0.225231 0.677532
  C 2.653038 0.015867 0.536868
  C 3.263327 0.842991 1.614974
  C 2.285716 1.197858 2.719228
  H 2.784183 1.779389 3.483598
  C 3.291239 -0.391266 -0.549700
  C 4.519318 -0.926643 -1.044881
  C 5.075908 -0.621443 -2.240990
  H 4.574665 0.010014 -2.955449
  H 6.068545 -0.950849 -2.494059
  H 3.659308 1.763894 1.179808
  H 4.102258 0.271662 2.017820
  H 1.888766 0.308377 3.185608
  H 1.450219 1.791490 2.338234
  H 2.749697 -0.867142 -1.409094
  H 5.022653 -1.616051 -0.362572
 16
 32.038023
  H 1.661361 -0.291593 0.722741
  C 2.706336 -0.032659 0.604872
  C 3.267948 0.867682 1.645381
  C 2.236498 1.242725 2.709735
  H 2.692442 1.887558 3.448171
  C 3.358207 -0.470848 -0.455921
  C 4.503968 -1.034708 -1.124564
  C 5.054035 -0.554935 -2.273571
  H 4.593447 0.205743 -2.861271
  H 6.039468 -0.901248 -2.583056
  H 3.655287 1.783218 1.177855
  H 4.122379 0.349767 2.087823
  H 1.854070 0.361717 3.212614
  H 1.399415 1.784934 2.271986
  H 2.859601 -0.963555 -1.344793
  H 4.983425 -1.843971 -0.581709
 16
 38.795683
  H 1.686597 -0.272416 0.703142
  C 2.735431 -0.017833 0.600007
  C 3.280647 0.867629 1.690885
  C 2.201179 1.274446 2.685169
  H 2.633444 1.906037 3.458314
  C 3.439486 -0.494461 -0.377282
  C 4.482300 -1.055573 -1.153458
  C 5.002207 -0.520648 -2.305805
  H 4.507114 0.282928 -2.833482
  H 5.943261 -0.861795 -2.686159
  H 3.726673 1.758337 1.235324
  H 4.076467 0.327798 2.204962
  H 1.763128 0.405219 3.165350
  H 1.407508 1.844194 2.195689
  H 3.060755 -1.159771 -1.276135
  H 5.016538 -1.884510 -0.700261
 16
 42.676539
  H 1.690407 -0.193470 0.667722
  C 2.762812 -0.023912 0.629256
  C 3.285632 0.865836 1.733056
  C 2.177291 1.292308 2.687642
  H 2.593423 1.920993 3.470128
  C 3.483346 -0.525270 -0.310984
  C 4.437861 -1.095428 -1.182712
  C 4.972225 -0.490023 -2.324814
  H 4.452152 0.308103 -2.839264
  H 5.912304 -0.815481 -2.723014
  H 3.755185 1.745575 1.286342
  H 4.056601 0.320664 2.273533
  H 1.708353 0.431529 3.154684
  H 1.412366 1.871685 2.170238
  H 3.201121 -1.280409 -1.391680
  H 5.001680 -1.928059 -0.763015
 16
 43.571241
  H 1.734179 -0.158578 0.645014
  C 2.810086 -0.008301 0.647524
  C 3.295227 0.884742 1.771342
  C 2.154202 1.311955 2.682393
  H 2.540527 1.936370 3.484614
  C 3.542620 -0.510054 -0.264705
  C 4.364853 -1.143042 -1.202829
  C 4.923114 -0.477577 -2.332078
  H 4.407807 0.318373 -2.833841
  H 5.854122 -0.815111 -2.741176
  H 3.779504 1.760907 1.336007
  H 4.049804 0.341836 2.344171
  H 1.667198 0.449173 3.132562
  H 1.408090 1.886072 2.136430
  H 3.314867 -1.401722 -1.585398
  H 4.949712 -1.965043 -0.798756
