 20
 0.000000
  C 1.006771 -0.072965 0.044816
  C 2.503005 -0.082499 0.026102
  C 3.220933 -0.594489 -0.979023
  C 4.658445 -0.604365 -0.998406
  C 5.379234 -1.119297 -2.009303
  C 6.817415 -1.129526 -2.029382
  C 7.533279 -1.642092 -3.035643
  C 9.023223 -1.662902 -3.076489
  H 0.642896 0.393040 0.959658
  H 0.612046 -1.088137 0.006068
  H 0.612047 0.492571 -0.799128
  H 3.001484 0.353425 0.881897
  H 2.711407 -1.028378 -1.830810
  H 5.162101 -0.169244 -0.144195
  H 4.875032 -1.554270 -2.863228
  H 7.325823 -0.695451 -1.177221
  H 7.032405 -2.077888 -3.891166
  H 9.459285 -1.210143 -2.187654
  H 9.381284 -1.117307 -3.950993
  H 9.381284 -2.691061 -3.149350
 20
 0.337457
  C 1.031738 -0.177731 0.141428
  C 2.515629 -0.079223 -0.003285
  C 3.194733 -0.451452 -1.092614
  C 4.627640 -0.401597 -1.182362
  C 5.349667 -0.963987 -2.166678
  C 6.786127 -0.982960 -2.169211
  C 7.534736 -1.672171 -3.032968
  C 9.021374 -1.748559 -2.987174
  H 0.709149 0.163522 1.122202
  H 0.699549 -1.209178 0.009815
  H 0.528440 0.427210 -0.616035
  H 3.065895 0.295520 0.852118
  H 2.664464 -0.846685 -1.951561
  H 5.142795 0.088512 -0.363720
  H 4.848821 -1.469512 -2.983206
  H 7.268203 -0.443217 -1.360263
  H 7.059556 -2.217042 -3.841094
  H 9.416865 -1.165147 -2.157041
  H 9.450928 -1.374100 -3.918827
  H 9.340804 -2.786558 -2.872479
 20
 1.914120
  C 1.101980 -0.298186 0.249640
  C 2.557690 -0.113864 -0.032632
  C 3.156625 -0.326701 -1.205755
  C 4.588812 -0.246515 -1.342484
  C 5.317408 -0.921606 -2.245834
  C 6.754295 -0.939004 -2.216366
  C 7.524109 -1.742679 -2.952403
  C 9.009195 -1.807638 -2.861536
  H 0.880796 -0.108521 1.295980
  H 0.790627 -1.314537 0.008113
  H 0.501875 0.378861 -0.359176
  H 3.179420 0.146679 0.814838
  H 2.584348 -0.629864 -2.072887
  H 5.103504 0.336439 -0.587761
  H 4.828538 -1.529346 -2.996165
  H 7.216565 -0.286379 -1.484916
  H 7.069569 -2.400351 -3.682986
  H 9.388335 -1.095961 -2.131982
  H 9.459934 -1.592654 -3.830898
  H 9.324552 -2.810256 -2.570407
 20
 4.637081
  C 1.192835 -0.394387 0.329335
  C 2.604098 -0.140777 -0.092791
  C 3.104579 -0.224268 -1.322408
  C 4.536723 -0.093001 -1.529591
  C 5.281473 -0.925297 -2.268693
  C 6.720549 -0.887269 -2.266004
  C 7.501895 -1.805125 -2.836293
  C 8.990285 -1.804885 -2.777301
  H 1.074527 -0.238660 1.397457
  H 0.902634 -1.418953 0.095229
  H 0.504515 0.266763 -0.197656
  H 3.302304 0.047254 0.714741
  H 2.479854 -0.459479 -2.173903
  H 5.033560 0.666137 -0.936644
  H 4.809418 -1.706983 -2.849793
  H 7.170909 -0.074759 -1.708392
  H 7.054619 -2.619806 -3.392148
  H 9.360860 -0.931558 -2.245889
  H 9.410971 -1.811111 -3.783141
  H 9.346800 -2.701707 -2.269140
 20
 7.252375
  C 1.284446 -0.473266 0.378714
  C 2.659017 -0.205575 -0.145385
  C 3.059854 -0.133702 -1.407121
  C 4.492004 0.019459 -1.682126
  C 5.252932 -0.920301 -2.249675
  C 6.692150 -0.844966 -2.294563
  C 7.479607 -1.834657 -2.714513
  C 8.968830 -1.796287 -2.702393
  H 1.248123 -0.329800 1.454416
  H 0.989059 -1.499909 0.159375
  H 0.551828 0.184059 -0.088913
  H 3.427592 -0.132756 0.616710
  H 2.373765 -0.237665 -2.237241
  H 4.964671 0.906043 -1.274758
  H 4.797249 -1.819426 -2.644413
  H 7.132619 0.066101 -1.908254
  H 7.037060 -2.745232 -3.098786
  H 9.332723 -0.830607 -2.359691
  H 9.362390 -1.988504 -3.700700
  H 9.359705 -2.571964 -2.042685
 20
 8.420121
  C 1.400971 -0.530530 0.450878
  C 2.725284 -0.272608 -0.193706
  C 3.003564 -0.117042 -1.478275
  C 4.413753 0.059024 -1.866249
  C 5.216650 -0.949646 -2.208618
  C 6.646625 -0.815910 -2.346172
  C 7.470640 -1.838267 -2.571240
  C 8.955287 -1.732486 -2.636753
  H 1.448204 -0.332388 1.517696
  H 1.112982 -1.573292 0.310989
  H 0.620647 0.088262 0.009779
  H 3.564756 -0.255514 0.493397
  H 2.240702 -0.139448 -2.245305
  H 4.829136 1.052641 -1.738674
  H 4.806764 -1.943873 -2.333156
  H 7.048958 0.177985 -2.193183
  H 7.063973 -2.830214 -2.723823
  H 9.278710 -0.698921 -2.538768
  H 9.323933 -2.130348 -3.582323
  H 9.409326 -2.318527 -1.836714
 20
 7.542682
  C 1.521353 -0.571696 0.523255
  C 2.792788 -0.346285 -0.229243
  C 2.950810 -0.157581 -1.530531
  C 4.314263 0.020226 -2.050597
  C 5.191631 -0.982507 -2.129006
  C 6.597969 -0.806183 -2.393814
  C 7.481508 -1.803474 -2.406972
  C 8.950870 -1.632944 -2.584178
  H 1.638009 -0.293267 1.567014
  H 1.247853 -1.627185 0.483916
  H 0.700714 -0.000393 0.092393
  H 3.689781 -0.351461 0.380014
  H 2.114148 -0.127426 -2.216280
  H 4.628468 1.034726 -2.268458
  H 4.860983 -1.993655 -1.927690
  H 6.936241 0.215448 -2.516813
  H 7.138677 -2.823632 -2.287034
  H 9.204821 -0.591602 -2.767488
  H 9.306802 -2.236304 -3.419371
  H 9.477884 -1.969350 -1.690447
 20
 5.168724
  C 1.582999 -0.659308 0.549250
  C 2.830282 -0.471496 -0.249399
  C 2.923869 -0.200992 -1.546730
  C 4.239224 -0.044995 -2.158102
  C 5.204878 -0.958832 -2.003421
  C 6.579476 -0.777993 -2.389993
  C 7.519138 -1.715326 -2.257488
  C 8.964593 -1.515839 -2.557635
  H 1.732595 -0.339756 1.577406
  H 1.305040 -1.714671 0.563025
  H 0.752284 -0.102109 0.119894
  H 3.753567 -0.534130 0.314262
  H 2.044792 -0.064091 -2.163329
  H 4.435529 0.877126 -2.691348
  H 4.962960 -1.897966 -1.521728
  H 6.853386 0.209099 -2.742680
  H 7.243434 -2.704265 -1.912630
  H 9.146427 -0.525706 -2.968860
  H 9.314058 -2.264277 -3.269185
  H 9.554995 -1.630652 -1.647608
 20
 7.611901
  C 1.699329 -0.880247 0.499188
  C 2.919519 -0.553438 -0.297018
  C 2.942407 -0.061591 -1.539806
  C 4.211824 0.067500 -2.219836
  C 5.181079 -0.839442 -1.999812
  C 6.568471 -0.694985 -2.321356
  C 7.458454 -1.681904 -2.188228
  C 8.927819 -1.533287 -2.389918
  H 1.861017 -0.699170 1.559538
  H 1.453712 -1.937113 0.374010
  H 0.840325 -0.300636 0.163059
  H 3.858507 -0.586841 0.240225
  H 2.034496 0.257281 -2.036890
  H 4.377692 0.913723 -2.875154
  H 4.900770 -1.793810 -1.571799
  H 6.916549 0.295264 -2.589338
  H 7.119082 -2.675850 -1.920322
  H 9.179726 -0.525802 -2.714177
  H 9.285111 -2.243985 -3.135951
  H 9.457030 -1.745047 -1.459752
 20
 17.558642
  C 1.961941 -1.068485 0.434798
  C 3.086839 -0.524684 -0.380789
  C 2.958808 0.111754 -1.559072
  C 4.169723 0.254105 -2.321198
  C 5.074387 -0.747545 -2.168000
  C 6.490984 -0.655276 -2.283944
  C 7.308528 -1.707707 -2.140661
  C 8.795237 -1.627977 -2.095534
  H 2.154325 -0.972356 1.500946
  H 1.836495 -2.129232 0.210919
  H 1.023451 -0.571420 0.194129
  H 4.036154 -0.436856 0.124530
  H 1.998756 0.453164 -1.924230
  H 4.390114 1.140239 -2.899803
  H 4.695465 -1.747053 -1.998461
  H 6.927912 0.330103 -2.388539
  H 6.887514 -2.701165 -2.044032
  H 9.138722 -0.609327 -2.258172
  H 9.234799 -2.274404 -2.855938
  H 9.161402 -1.971250 -1.126899
 20
 30.572202
  C 2.195244 -1.278912 0.248894
  C 3.254776 -0.498010 -0.455219
  C 3.016584 0.325820 -1.516032
  C 4.170833 0.457720 -2.313367
  C 4.995452 -0.637671 -2.132761
  C 6.417397 -0.631365 -2.150928
  C 7.162236 -1.734189 -2.045659
  C 8.644654 -1.747785 -1.923156
  H 2.384047 -1.350689 1.317894
  H 2.161167 -2.292378 -0.153779
  H 1.214317 -0.833614 0.087170
  H 4.173606 -0.358469 0.088382
  H 2.044436 0.743340 -1.729772
  H 4.444369 1.314792 -2.908269
  H 4.543409 -1.618957 -2.156266
  H 6.909163 0.334676 -2.147932
  H 6.678523 -2.703032 -2.025061
  H 9.053963 -0.743658 -2.003343
  H 9.084841 -2.372249 -2.701191
  H 8.939967 -2.171020 -0.962020
 20
 38.627783
  C 2.462851 -1.453645 0.030290
  C 3.448205 -0.476724 -0.534126
  C 3.091604 0.556318 -1.432828
  C 4.174577 0.681067 -2.260530
  C 4.882591 -0.542633 -2.097099
  C 6.315557 -0.638936 -2.010391
  C 6.990454 -1.792430 -1.966615
  C 8.459686 -1.909305 -1.758782
  H 2.671468 -1.682437 1.073637
  H 2.489242 -2.391887 -0.527553
  H 1.452517 -1.055286 -0.055716
  H 4.339263 -0.341976 0.059250
  H 2.114666 1.009039 -1.499924
  H 4.539552 1.540234 -2.798791
  H 4.373549 -1.461466 -2.346896
  H 6.855777 0.291837 -1.885262
  H 6.455450 -2.727117 -2.077572
  H 8.928613 -0.929258 -1.716213
  H 8.914362 -2.483961 -2.566068
  H 8.666453 -2.437762 -0.827475
 20
 30.017818
  C 2.674076 -1.573626 -0.232836
  C 3.632034 -0.463632 -0.587740
  C 3.186914 0.748927 -1.278179
  C 4.221353 0.877497 -2.115953
  C 4.777648 -0.472891 -1.969074
  C 6.231372 -0.682606 -1.845979
  C 6.830620 -1.865620 -1.902455
  C 8.288076 -2.090937 -1.686882
  H 2.867648 -1.965075 0.762868
  H 2.749031 -2.404344 -0.935710
  H 1.652493 -1.202433 -0.278227
  H 4.475271 -0.380368 0.089367
  H 2.227682 1.233337 -1.224754
  H 4.659875 1.725669 -2.610202
  H 4.230324 -1.295864 -2.417619
  H 6.812335 0.203201 -1.621239
  H 6.245694 -2.752327 -2.114636
  H 8.811636 -1.149876 -1.539781
  H 8.725507 -2.608883 -2.539897
  H 8.442605 -2.719497 -0.809037
 20
 14.622024
  C 2.766199 -1.643934 -0.426935
  C 3.768863 -0.513642 -0.593100
  C 3.333001 0.851545 -1.021438
  C 4.274729 0.987029 -1.953966
  C 4.730437 -0.440424 -1.889829
  C 6.174353 -0.748839 -1.717815
  C 6.724927 -1.931018 -1.947184
  C 8.160483 -2.261011 -1.711945
  H 2.905093 -2.161405 0.518591
  H 2.862255 -2.376626 -1.226207
  H 1.752177 -1.250736 -0.461271
  H 4.514960 -0.509513 0.203326
  H 2.435644 1.395116 -0.788764
  H 4.733510 1.833774 -2.430665
  H 4.227522 -1.098268 -2.599087
  H 6.773523 0.062160 -1.322024
  H 6.117035 -2.740424 -2.332740
  H 8.713283 -1.384948 -1.382019
  H 8.617836 -2.645156 -2.623443
  H 8.245826 -3.036359 -0.950061
 20
 7.023771
  C 2.610246 -1.603394 -0.610315
  C 3.825678 -0.686824 -0.490566
  C 3.598362 0.799343 -0.599929
  C 4.378166 0.951037 -1.662968
  C 4.722958 -0.513049 -1.768022
  C 6.155398 -0.886127 -1.598048
  C 6.737606 -1.904084 -2.212834
  C 8.162853 -2.309019 -2.026518
  H 2.444632 -2.160093 0.310829
  H 2.748056 -2.321179 -1.416316
  H 1.712491 -1.023438 -0.825509
  H 4.425046 -0.955246 0.382962
  H 3.002335 1.464044 -0.001384
  H 4.695168 1.790916 -2.257035
  H 4.299252 -1.000516 -2.646217
  H 6.718429 -0.278605 -0.903522
  H 6.169590 -2.509775 -2.907711
  H 8.678249 -1.624858 -1.357609
  H 8.681067 -2.323480 -2.984688
  H 8.216578 -3.315169 -1.608485
