 29
 0.000000
  H 1.432071 0.156624 0.442288
  C 2.509744 0.143972 0.410380
  C 3.278067 0.611171 1.572399
  C 2.454591 1.090009 2.763865
  C 3.362882 1.547338 3.901620
  C 3.085038 -0.324546 -0.755974
  C 4.459213 -0.415400 -0.983506
  C 5.130247 -0.870672 -2.119055
  C 4.613096 -1.389404 -3.412394
  C 3.119684 -1.501202 -3.691626
  C 2.897302 -2.063602 -5.093689
  O 6.444848 -0.869311 -2.116420
  H 3.938643 1.427115 1.254853
  H 3.938864 -0.197393 1.907834
  H 1.814082 0.283942 3.125653
  H 1.814032 1.922230 2.467206
  H 3.998140 0.733688 4.244152
  H 2.769402 1.886950 4.746678
  H 3.998106 2.371730 3.585725
  H 2.406885 -0.636118 -1.531144
  H 5.100056 -0.089619 -0.172615
  H 5.070771 -2.377290 -3.544025
  H 5.071177 -0.766600 -4.190238
  H 2.647706 -0.519891 -3.636688
  H 2.647523 -2.172461 -2.973831
  H 3.338098 -1.416282 -5.848053
  H 1.833894 -2.147191 -5.302323
  H 3.338059 -3.052843 -5.191568
  H 6.845024 -0.538086 -1.289353
 29
 15.730628
  H 1.477336 0.195344 0.542413
  C 2.556722 0.155806 0.442885
  C 3.343929 0.622269 1.601049
  C 2.494435 1.095367 2.777227
  C 3.365507 1.563592 3.939385
  C 3.060209 -0.319894 -0.741384
  C 4.482917 -0.436372 -1.033589
  C 5.039517 -0.887977 -2.161567
  C 4.603870 -1.411216 -3.467369
  C 3.123938 -1.529651 -3.763047
  C 2.919153 -2.091203 -5.164511
  O 6.288641 -0.804735 -1.954958
  H 4.008332 1.437245 1.289084
  H 4.009149 -0.180967 1.940346
  H 1.850926 0.281878 3.117676
  H 1.850350 1.917434 2.459313
  H 4.000167 0.757265 4.299416
  H 2.745778 1.896885 4.767897
  H 3.999436 2.394914 3.640056
  H 2.355235 -0.627006 -1.505864
  H 5.110398 -0.110832 -0.220379
  H 5.076824 -2.386374 -3.583085
  H 5.076711 -0.786154 -4.224722
  H 2.649069 -0.549804 -3.709440
  H 2.648876 -2.201393 -3.047678
  H 3.365601 -1.441208 -5.914004
  H 1.858889 -2.179212 -5.384286
  H 3.365583 -3.078834 -5.257773
  H 6.607680 -0.463569 -1.101558
 29
 59.404126
  H 1.467315 0.207617 0.576615
  C 2.545797 0.159776 0.454078
  C 3.349922 0.624997 1.606985
  C 2.511077 1.100587 2.792401
  C 3.392099 1.567796 3.947073
  C 3.025111 -0.315647 -0.730411
  C 4.539133 -0.446523 -1.057731
  C 4.996695 -0.898964 -2.187707
  C 4.620919 -1.428527 -3.510437
  C 3.138502 -1.546734 -3.807519
  C 2.926315 -2.106342 -5.203910
  O 6.188085 -0.757462 -1.834939
  H 4.010684 1.441474 1.290710
  H 4.013744 -0.180663 1.943880
  H 1.868067 0.288451 3.137449
  H 1.864394 1.922698 2.479319
  H 4.028589 0.760680 4.301785
  H 2.779697 1.902052 4.780606
  H 4.024541 2.398198 3.642111
  H 2.334561 -0.621093 -1.491202
  H 5.083966 -0.103826 -0.200448
  H 5.100342 -2.399603 -3.611312
  H 5.101616 -0.796710 -4.253838
  H 2.667889 -0.568298 -3.746376
  H 2.667192 -2.211627 -3.087626
  H 3.370675 -1.457526 -5.954656
  H 1.865477 -2.192183 -5.419049
  H 3.370120 -3.094363 -5.298553
  H 6.480461 -0.415059 -0.972961
 29
 112.810256
  H 1.445368 0.197630 0.665070
  C 2.520456 0.184344 0.474233
  C 3.348893 0.667384 1.603376
  C 2.528288 1.091374 2.818212
  C 3.422378 1.567024 3.952996
  C 2.894867 -0.261754 -0.690247
  C 4.631342 -0.448985 -1.076108
  C 4.930968 -0.928061 -2.220958
  C 4.623276 -1.452071 -3.530660
  C 3.134584 -1.560275 -3.859570
  C 2.949757 -2.127601 -5.256667
  O 6.176364 -0.732098 -1.753448
  H 3.963774 1.515035 1.281212
  H 4.031873 -0.129667 1.909153
  H 1.920205 0.251058 3.170191
  H 1.844980 1.899790 2.540219
  H 4.095418 0.774335 4.274716
  H 2.822290 1.866637 4.809380
  H 4.018887 2.424045 3.643484
  H 2.259691 -0.566205 -1.494072
  H 5.019164 -0.105988 -0.122422
  H 5.100579 -2.434777 -3.607398
  H 5.130835 -0.820067 -4.269116
  H 2.671011 -0.575869 -3.814898
  H 2.641073 -2.215963 -3.142836
  H 3.415405 -1.490132 -5.998971
  H 1.895379 -2.205449 -5.494538
  H 3.385952 -3.117793 -5.333994
  H 6.520589 -0.433300 -0.894957
 29
 141.359128
  H 1.347225 0.243884 0.712183
  C 2.423630 0.192825 0.494311
  C 3.310445 0.654433 1.611438
  C 2.511754 1.104335 2.832922
  C 3.436640 1.559766 3.953970
  C 2.749798 -0.257110 -0.668237
  C 4.787840 -0.453147 -1.112148
  C 4.978282 -0.934262 -2.266894
  C 4.663554 -1.461576 -3.572429
  C 3.164090 -1.563040 -3.856895
  C 2.935283 -2.135117 -5.252374
  O 6.257877 -0.705416 -1.751110
  H 3.918453 1.493946 1.267669
  H 3.951785 -0.174652 1.920674
  H 1.894434 0.284096 3.202177
  H 1.854194 1.935368 2.568943
  H 4.092096 0.751897 4.267949
  H 2.859859 1.878405 4.816758
  H 4.050975 2.396601 3.632794
  H 2.159415 -0.574871 -1.493979
  H 5.074537 -0.091161 -0.152416
  H 5.129952 -2.449127 -3.639398
  H 5.149229 -0.817684 -4.310335
  H 2.715768 -0.572146 -3.796219
  H 2.691224 -2.215379 -3.123419
  H 3.384799 -1.500788 -6.013049
  H 1.871016 -2.206624 -5.460626
  H 3.364019 -3.131433 -5.340363
  H 6.640080 -0.429608 -0.897602
 29
 151.717916
  H 1.197355 0.278863 0.818898
  C 2.246140 0.189990 0.544353
  C 3.211323 0.646345 1.622227
  C 2.468856 1.124407 2.874957
  C 3.444491 1.573870 3.946791
  C 2.537219 -0.265979 -0.627996
  C 5.010589 -0.490201 -1.170141
  C 5.082016 -0.965437 -2.340827
  C 4.735198 -1.481797 -3.638487
  C 3.223602 -1.554258 -3.837362
  C 2.910757 -2.111332 -5.222088
  O 6.443206 -0.735661 -1.815932
  H 3.799804 1.476852 1.230725
  H 3.836359 -0.203496 1.908135
  H 1.859637 0.309980 3.262274
  H 1.818889 1.957699 2.612361
  H 4.100118 0.758535 4.238175
  H 2.912281 1.910951 4.829788
  H 4.057908 2.395155 3.588585
  H 1.939357 -0.580913 -1.455368
  H 5.173388 -0.106874 -0.191800
  H 5.186223 -2.483362 -3.708650
  H 5.197703 -0.814183 -4.380318
  H 2.804317 -0.555205 -3.736492
  H 2.790253 -2.201593 -3.077403
  H 3.325636 -1.478020 -6.000653
  H 1.837021 -2.163791 -5.370922
  H 3.315373 -3.111573 -5.339669
  H 6.913186 -0.509764 -0.987495
 29
 151.760624
  H 1.026689 0.234809 0.996327
  C 2.056191 0.168754 0.642078
  C 3.081936 0.644548 1.651938
  C 2.426565 1.073770 2.967490
  C 3.468588 1.551397 3.974120
  C 2.298737 -0.260715 -0.555272
  C 5.182927 -0.400957 -1.281958
  C 5.181513 -0.881388 -2.464546
  C 4.822153 -1.423237 -3.735589
  C 3.286244 -1.588617 -3.837742
  C 2.917805 -2.174580 -5.194321
  O 6.584762 -0.588596 -1.973716
  H 3.609334 1.498662 1.221415
  H 3.762785 -0.185443 1.860145
  H 1.876359 0.218005 3.372974
  H 1.718325 1.880022 2.753146
  H 4.178657 0.756169 4.197616
  H 2.995922 1.853697 4.907181
  H 4.018030 2.406184 3.580390
  H 1.679696 -0.571838 -1.365642
  H 5.296251 -0.048195 -0.236812
  H 5.329510 -2.393486 -3.828298
  H 5.200143 -0.739527 -4.507905
  H 2.816626 -0.610200 -3.710253
  H 2.943355 -2.251298 -3.039634
  H 3.243738 -1.521586 -6.002848
  H 1.838941 -2.293102 -5.272076
  H 3.373675 -3.152220 -5.332034
  H 7.140125 -0.388991 -1.188226
 29
 143.651981
  H 0.923904 0.313327 0.967728
  C 1.940113 0.212411 0.569131
  C 3.006612 0.607321 1.563677
  C 2.417559 1.044940 2.903313
  C 3.508832 1.444849 3.890538
  C 2.134834 -0.218726 -0.637942
  C 5.420728 -0.342494 -1.308681
  C 5.207462 -0.850898 -2.452056
  C 4.862811 -1.420752 -3.691248
  C 3.312526 -1.533403 -3.713978
  C 2.884744 -2.162066 -5.037089
  O 6.796684 -0.494878 -1.911386
  H 3.586714 1.436360 1.150704
  H 3.672692 -0.243634 1.732446
  H 1.825454 0.230556 3.328226
  H 1.748311 1.894723 2.745397
  H 4.177880 0.608366 4.083438
  H 3.072963 1.754215 4.837374
  H 4.094669 2.274434 3.500020
  H 1.523897 -0.539931 -1.449401
  H 5.129408 0.001651 -0.346525
  H 5.312282 -2.415117 -3.801348
  H 5.207116 -0.789528 -4.519735
  H 2.873191 -0.538926 -3.611372
  H 2.974799 -2.153227 -2.881039
  H 3.197092 -1.551615 -5.883608
  H 1.800040 -2.245266 -5.054999
  H 3.302674 -3.161034 -5.155916
  H 7.404504 -0.402557 -1.147412
 29
 139.380695
  H 0.929823 0.309387 0.969914
  C 1.944879 0.206139 0.565750
  C 3.017210 0.605669 1.551629
  C 2.439162 1.045840 2.895743
  C 3.539602 1.443177 3.874004
  C 2.130798 -0.226488 -0.639656
  C 5.411235 -0.327236 -1.300293
  C 5.156593 -0.850659 -2.438248
  C 4.841035 -1.414326 -3.683054
  C 3.290424 -1.547851 -3.737680
  C 2.891154 -2.173006 -5.068175
  O 6.775047 -0.439209 -1.791897
  H 3.599469 1.433096 1.137959
  H 3.685060 -0.241841 1.722828
  H 1.851865 0.232893 3.330280
  H 1.769483 1.897097 2.748725
  H 4.208484 0.605864 4.061338
  H 3.111245 1.752643 4.824548
  H 4.123329 2.272470 3.479987
  H 1.521526 -0.549298 -1.450440
  H 5.104001 0.023778 -0.344411
  H 5.301976 -2.400346 -3.792106
  H 5.192060 -0.779308 -4.501673
  H 2.840570 -0.561733 -3.637094
  H 2.946634 -2.172296 -2.914779
  H 3.214596 -1.555690 -5.901686
  H 1.808348 -2.268355 -5.113426
  H 3.326512 -3.161778 -5.183717
  H 7.348375 -0.399530 -0.996110
 29
 112.497278
  H 1.145212 0.147088 0.788408
  C 2.179242 0.075410 0.427599
  C 3.171191 0.555300 1.450608
  C 2.508218 1.002893 2.751341
  C 3.545507 1.480815 3.758150
  C 2.340545 -0.382841 -0.754333
  C 5.532095 -0.335909 -1.194885
  C 4.913829 -0.862167 -2.214125
  C 4.612840 -1.337015 -3.518710
  C 3.088549 -1.570948 -3.730314
  C 2.814521 -2.101161 -5.127053
  O 6.902235 -0.324897 -1.240813
  H 3.730738 1.394061 1.032453
  H 3.867849 -0.255202 1.671900
  H 1.941067 0.176816 3.183793
  H 1.806424 1.813907 2.549384
  H 4.247763 0.687357 3.998168
  H 3.064232 1.799293 4.677834
  H 4.103987 2.326882 3.363157
  H 1.856265 -0.756405 -1.616449
  H 5.100117 0.015046 -0.270732
  H 5.108158 -2.299428 -3.680606
  H 4.932986 -0.602283 -4.264488
  H 2.566365 -0.627626 -3.587344
  H 2.728682 -2.281472 -2.988456
  H 3.138589 -1.392633 -5.885271
  H 1.747519 -2.252745 -5.252952
  H 3.313760 -3.049359 -5.296027
  H 7.312010 -0.283676 -0.361979
