 29
 0.000000
  H 1.544518 0.062058 0.035909
  C 2.621004 0.065628 -0.027375
  C 3.334727 -0.008892 1.293354
  C 2.393329 -0.076538 2.492093
  C 3.165286 -0.150589 3.804479
  C 3.225920 0.132949 -1.220431
  C 2.476039 0.206638 -2.526366
  C 0.952513 0.202725 -2.456982
  C 0.345299 0.281561 -3.854163
  C 4.676390 0.139273 -1.332446
  C 5.385907 0.202898 -2.460147
  O 6.741867 0.206185 -2.518357
  H 3.980534 0.868057 1.410478
  H 3.980538 -0.893451 1.311080
  H 1.751549 -0.956549 2.407255
  H 1.751543 0.807425 2.506796
  H 3.797484 -1.035926 3.830623
  H 2.478199 -0.198109 4.646544
  H 3.797479 0.726185 3.930053
  H 2.790431 -0.638256 -3.147512
  H 2.790431 1.116049 -3.048525
  H 0.601643 1.057114 -1.875008
  H 0.601645 -0.711706 -1.974818
  H 0.656032 1.193652 -4.359406
  H -0.740921 0.278227 -3.795071
  H 0.656031 -0.567904 -4.458802
  H 5.233888 0.086976 -0.405576
  H 4.970801 0.258949 -3.453517
  H 7.104392 0.155731 -1.624121
 29
 12.500773
  H 1.565646 0.061121 0.052508
  C 2.640365 0.064902 -0.014516
  C 3.369785 -0.008502 1.286465
  C 2.320480 -0.083269 2.611369
  C 3.094471 -0.156898 3.916273
  C 3.272302 0.137401 -1.299336
  C 2.492486 0.209952 -2.585131
  C 0.971377 0.203297 -2.467143
  C 0.318542 0.280969 -3.843665
  C 4.716074 0.143879 -1.414066
  C 5.420732 0.207706 -2.545366
  O 6.776352 0.211354 -2.609953
  H 4.010540 0.867669 1.411837
  H 4.010542 -0.893211 1.312474
  H 1.683875 -0.961783 2.513513
  H 1.683863 0.800677 2.612967
  H 3.727005 -1.042140 3.940777
  H 2.408424 -0.204487 4.759553
  H 3.726997 0.719965 4.040207
  H 2.791505 -0.635144 -3.214115
  H 2.791504 1.120439 -3.115051
  H 0.640118 1.056520 -1.872257
  H 0.640119 -0.711428 -1.972018
  H 0.611846 1.193571 -4.358325
  H -0.765241 0.275702 -3.750305
  H 0.611842 -0.567938 -4.457717
  H 5.275707 0.091608 -0.487632
  H 4.998856 0.263586 -3.535730
  H 7.143685 0.161021 -1.717814
 29
 35.396428
  H 1.643715 0.063091 0.017609
  C 2.708811 0.066349 -0.040117
  C 3.471746 -0.005319 1.230055
  C 2.219216 -0.087404 2.684592
  C 2.987607 -0.160716 3.983827
  C 3.326198 0.141162 -1.366008
  C 2.504881 0.211721 -2.616483
  C 0.996008 0.201200 -2.429942
  C 0.282211 0.277023 -3.773668
  C 4.756381 0.147537 -1.478959
  C 5.449596 0.211493 -2.612523
  O 6.803976 0.215983 -2.691912
  H 4.065896 0.878617 1.447401
  H 4.065893 -0.908079 1.346578
  H 1.624126 -0.974934 2.481610
  H 1.624108 0.817337 2.582744
  H 3.618319 -1.046531 4.016128
  H 2.292011 -0.208138 4.824146
  H 3.618325 0.715859 4.115577
  H 2.781387 -0.630518 -3.253571
  H 2.781392 1.120278 -3.154778
  H 0.696189 1.053141 -1.816744
  H 0.696169 -0.714359 -1.916451
  H 0.552506 1.190365 -4.300105
  H -0.796357 0.269161 -3.634287
  H 0.552494 -0.571279 -4.399491
  H 5.313200 0.095212 -0.551518
  H 5.006568 0.267062 -3.597483
  H 7.181198 0.165851 -1.803223
 29
 61.759667
  H 1.694869 0.064845 -0.013607
  C 2.767544 0.068509 -0.078519
  C 3.555562 -0.000720 1.148337
  C 2.114559 -0.095465 2.827373
  C 2.904578 -0.167259 4.099466
  C 3.352609 0.142116 -1.382894
  C 2.520696 0.211776 -2.617382
  C 1.003428 0.200757 -2.422091
  C 0.282299 0.276583 -3.765656
  C 4.785142 0.150376 -1.529168
  C 5.453992 0.215602 -2.685163
  O 6.787791 0.221912 -2.796951
  H 4.125528 0.879528 1.394215
  H 4.125479 -0.902957 1.293574
  H 1.544916 -0.980244 2.593720
  H 1.544905 0.810027 2.694737
  H 3.531735 -1.048977 4.121332
  H 2.230362 -0.215332 4.951305
  H 3.531840 0.706493 4.220415
  H 2.788279 -0.634349 -3.259747
  H 2.788280 1.124765 -3.160459
  H 0.705180 1.055904 -1.805899
  H 0.705096 -0.718454 -1.905913
  H 0.549757 1.190588 -4.293898
  H -0.796791 0.268491 -3.622079
  H 0.549732 -0.572160 -4.393331
  H 5.352648 0.098523 -0.610164
  H 4.987072 0.270278 -3.654282
  H 7.183109 0.172728 -1.925151
