 16
 0.000000
  C -1.537257 -0.854165 0.855240
  C -0.884810 0.265638 0.053655
  H -1.165729 0.168173 -1.006196
  C -1.220422 1.610006 0.396291
  C -2.344450 2.026761 1.174169
  H -0.591331 2.395648 -0.008259
  H -1.113894 -1.806360 0.550703
  H -2.610463 -0.905354 0.694643
  H -1.342923 -0.726926 1.915956
  H 0.209493 0.143127 0.055633
  H -2.827282 1.228334 1.727934
  H -3.070682 2.460433 0.473336
  H -2.091863 2.872159 1.817136
  O 2.209944 -0.202212 -0.226470
  H 2.725135 0.237143 0.459049
  H 2.823264 -0.433368 -0.928952
 16
 -0.035165
  C -1.510342 -0.871945 0.850101
  C -0.838309 0.254616 0.056727
  H -1.053005 0.137804 -1.022724
  C -1.188371 1.600407 0.366663
  C -2.292958 2.031571 1.177200
  H -0.573498 2.381034 -0.084633
  H -1.071470 -1.829331 0.567160
  H -2.585352 -0.928550 0.657215
  H -1.352961 -0.735701 1.918228
  H 0.260434 0.154075 0.070151
  H -2.754801 1.243501 1.767009
  H -3.041719 2.439312 0.479701
  H -2.037752 2.899361 1.785507
  O 2.033722 -0.168933 -0.183968
  H 2.558750 0.265794 0.485145
  H 2.619778 -0.392831 -0.894823
 16
 1.203401
  C -1.496791 -0.883592 0.849279
  C -0.828931 0.239035 0.049415
  H -1.005532 0.101918 -1.032907
  C -1.167566 1.591386 0.344833
  C -2.252277 2.043763 1.172462
  H -0.562774 2.359578 -0.129957
  H -1.057656 -1.839163 0.578708
  H -2.566768 -0.943247 0.654054
  H -1.347886 -0.738539 1.912935
  H 0.345232 0.132756 0.047329
  H -2.703057 1.270347 1.778932
  H -3.009356 2.438910 0.480807
  H -1.982236 2.913076 1.766651
  O 1.905539 -0.132311 -0.148879
  H 2.430745 0.305898 0.522437
  H 2.490711 -0.380468 -0.865400
 16
 3.448276
  C -1.472295 -0.871721 0.841889
  C -0.821887 0.227512 0.030746
  H -0.941254 0.042253 -1.044109
  C -1.147833 1.564854 0.286929
  C -2.193804 2.051545 1.170943
  H -0.582839 2.322313 -0.244447
  H -1.014799 -1.827512 0.605028
  H -2.536943 -0.951230 0.629657
  H -1.352546 -0.693114 1.907651
  H 0.387549 0.148328 0.012393
  H -2.591720 1.297685 1.842896
  H -2.997885 2.393706 0.509352
  H -1.894934 2.947887 1.716160
  O 1.761416 -0.126612 -0.080238
  H 2.284025 0.334500 0.584042
  H 2.343825 -0.386593 -0.805362
 16
 5.195650
  C -1.478383 -0.882293 0.833227
  C -0.835249 0.224600 0.006907
  H -0.887392 0.017886 -1.064933
  C -1.133016 1.544975 0.256066
  C -2.147596 2.057290 1.174454
  H -0.596176 2.301656 -0.314440
  H -0.997370 -1.836774 0.619338
  H -2.533517 -0.990091 0.605065
  H -1.380770 -0.687804 1.899101
  H 0.454059 0.149440 -0.007258
  H -2.498402 1.325418 1.884427
  H -2.983842 2.357392 0.542447
  H -1.832917 2.959125 1.685063
  O 1.684302 -0.098986 -0.035462
  H 2.199751 0.376726 0.632799
  H 2.250589 -0.348591 -0.773133
