 18
 0.000000
  C 0.895872 0.046678 0.343259
  C 2.366730 0.058097 0.056892
  H 3.007096 0.011111 0.927503
  C 2.937130 0.123303 -1.136170
  C 2.349657 0.205167 -2.518424
  C 0.840884 0.215723 -2.744133
  C 0.533594 0.303758 -4.236683
  H 4.019964 0.132350 -1.193612
  H 0.703113 -0.006408 1.413141
  H 0.415524 -0.815505 -0.113207
  H 0.425897 0.953321 -0.031189
  H 2.762721 -0.638822 -3.085340
  H 2.759752 1.112121 -2.980468
  H 0.387037 1.072722 -2.247387
  H 0.390610 -0.695850 -2.352096
  H 0.950307 1.213700 -4.663991
  H -0.541756 0.311453 -4.401440
  H 0.953727 -0.547576 -4.768613
 18
 -0.352592
  C 0.876327 0.033955 0.369284
  C 2.335810 -0.003973 0.030664
  H 2.987681 -0.135001 0.885650
  C 2.915296 0.117230 -1.153607
  C 2.365752 0.263600 -2.544332
  C 0.855940 0.249035 -2.762287
  C 0.529690 0.292510 -4.251899
  H 4.000338 0.096565 -1.178264
  H 0.748666 0.199496 1.436952
  H 0.388588 -0.907103 0.118286
  H 0.375442 0.837990 -0.160353
  H 2.802091 -0.550010 -3.136731
  H 2.769377 1.193735 -2.962038
  H 0.398363 1.113300 -2.280637
  H 0.427972 -0.655840 -2.330576
  H 0.933916 1.194647 -4.706932
  H -0.546896 0.284330 -4.407010
  H 0.955359 -0.568191 -4.763990
 18
 0.283856
  C 0.881781 0.043192 0.384800
  C 2.329060 -0.092421 0.026552
  H 2.975184 -0.340508 0.859913
  C 2.903216 0.113579 -1.148410
  C 2.355051 0.318149 -2.533836
  C 0.849176 0.251853 -2.771027
  C 0.540745 0.283056 -4.264789
  H 3.988277 0.084424 -1.188726
  H 0.803978 0.419219 1.404491
  H 0.357089 -0.909782 0.339679
  H 0.401834 0.761475 -0.269556
  H 2.824438 -0.455784 -3.153161
  H 2.729549 1.277320 -2.910460
  H 0.352261 1.099624 -2.298339
  H 0.449735 -0.667563 -2.341290
  H 0.918858 1.198964 -4.714785
  H -0.532734 0.236676 -4.433871
  H 1.003503 -0.561968 -4.770768
 18
 2.382630
  C 0.896539 0.053965 0.399386
  C 2.325465 -0.181335 0.028047
  H 2.953422 -0.564782 0.822765
  C 2.889990 0.120059 -1.130544
  C 2.336591 0.366702 -2.509748
  C 0.838205 0.245043 -2.774426
  C 0.558063 0.274037 -4.274009
  H 3.975111 0.104219 -1.194761
  H 0.877270 0.614214 1.336238
  H 0.331840 -0.863273 0.548164
  H 0.447960 0.687998 -0.355342
  H 2.840300 -0.371830 -3.144874
  H 2.678122 1.349199 -2.856225
  H 0.295373 1.069151 -2.309439
  H 0.467728 -0.692530 -2.356932
  H 0.909459 1.206769 -4.710908
  H -0.509395 0.187869 -4.464147
  H 1.062424 -0.549297 -4.775869
 18
 9.343029
  C 0.911632 0.070805 0.388616
  C 2.319997 -0.269981 0.017105
  H 2.901442 -0.846249 0.724024
  C 2.873688 0.191515 -1.096326
  C 2.316751 0.421088 -2.481525
  C 0.830303 0.220829 -2.767665
  C 0.571704 0.245439 -4.271227
  H 3.959113 0.223265 -1.185740
  H 0.953238 0.703650 1.280697
  H 0.266333 -0.774021 0.602851
  H 0.563304 0.738928 -0.393116
  H 2.863268 -0.300269 -3.099520
  H 2.611976 1.416169 -2.835387
  H 0.231704 1.006799 -2.304809
  H 0.507337 -0.739257 -2.361384
  H 0.880965 1.197866 -4.697311
  H -0.486979 0.105783 -4.477649
  H 1.124801 -0.547711 -4.770247
 18
 21.190004
  C 0.927966 0.122473 0.366967
  C 2.304908 -0.342690 0.005788
  H 2.812511 -1.084409 0.603453
  C 2.852487 0.234808 -1.064136
  C 2.301301 0.451668 -2.457315
  C 0.832017 0.161600 -2.758394
  C 0.578621 0.220302 -4.261773
  H 3.940080 0.286291 -1.160455
  H 1.027303 0.786697 1.235335
  H 0.185847 -0.630083 0.596880
  H 0.744723 0.858958 -0.416773
  H 2.904066 -0.219937 -3.076189
  H 2.527399 1.471267 -2.795386
  H 0.179466 0.887823 -2.272987
  H 0.572112 -0.829286 -2.381543
  H 0.768784 1.221481 -4.643382
  H -0.453500 -0.040806 -4.483904
  H 1.228098 -0.475201 -4.789693
 18
 40.497551
  C 0.945090 0.127046 0.332237
  C 2.291735 -0.413595 -0.036839
  H 2.759685 -1.259659 0.437001
  C 2.816322 0.325939 -1.024264
  C 2.289800 0.488943 -2.436026
  C 0.832221 0.143756 -2.736252
  C 0.576318 0.172524 -4.239921
  H 3.905868 0.438581 -1.101730
  H 1.027747 0.805987 1.192887
  H 0.135095 -0.568051 0.498904
  H 0.988954 0.958510 -0.407924
  H 2.923219 -0.175358 -3.030791
  H 2.484314 1.509152 -2.794041
  H 0.157177 0.852852 -2.253954
  H 0.607108 -0.849522 -2.344371
  H 0.793972 1.158671 -4.646338
  H -0.463080 -0.064199 -4.453271
  H 1.204566 -0.553342 -4.752289
 18
 66.560632
  C 0.972458 0.136186 0.326721
  C 2.247063 -0.484890 -0.065418
  H 2.672988 -1.398004 0.320208
  C 2.779575 0.359677 -0.997097
  C 2.282145 0.509586 -2.427085
  C 0.835669 0.123702 -2.724794
  C 0.567048 0.146936 -4.225971
  H 3.872553 0.499230 -1.029898
  H 1.042260 0.904939 1.101308
  H 0.105393 -0.492191 0.496719
  H 1.277087 1.018537 -0.459942
  H 2.933644 -0.136232 -3.023307
  H 2.454385 1.537009 -2.771844
  H 0.147008 0.811535 -2.230799
  H 0.642264 -0.876703 -2.333312
  H 0.734819 1.143613 -4.629405
  H -0.461855 -0.137635 -4.432838
  H 1.224898 -0.546552 -4.745814
 18
 81.097905
  C 0.989053 0.098317 0.355597
  C 2.191154 -0.514434 -0.066928
  H 2.606186 -1.452543 0.271941
  C 2.752163 0.404160 -0.981217
  C 2.280904 0.522246 -2.436751
  C 0.834535 0.135480 -2.726681
  C 0.559215 0.130777 -4.227473
  H 3.842798 0.538325 -0.974302
  H 1.056244 0.923019 1.055334
  H 0.097323 -0.498747 0.560539
  H 1.532187 1.073558 -0.562231
  H 2.931665 -0.135528 -3.026074
  H 2.462573 1.541827 -2.789903
  H 0.151105 0.838184 -2.241527
  H 0.637402 -0.857209 -2.314592
  H 0.723399 1.120604 -4.649939
  H -0.470070 -0.159526 -4.425120
  H 1.216756 -0.570898 -4.736824
 18
 65.288470
  C 0.985431 0.008877 0.401124
  C 2.129637 -0.536649 -0.083592
  H 2.563455 -1.481957 0.205669
  C 2.733141 0.470116 -0.974510
  C 2.286801 0.551346 -2.459248
  C 0.829075 0.201659 -2.731512
  C 0.556362 0.099193 -4.227467
  H 3.810338 0.606164 -0.921415
  H 1.041080 0.868744 1.045155
  H 0.103041 -0.585891 0.646263
  H 1.785087 1.119774 -0.656241
  H 2.912184 -0.142619 -3.037379
  H 2.506713 1.553641 -2.829283
  H 0.170691 0.957490 -2.295826
  H 0.596625 -0.753301 -2.256047
  H 0.752213 1.050961 -4.717672
  H -0.481067 -0.172076 -4.408330
  H 1.193011 -0.656018 -4.682903
 18
 37.934176
  C 0.968500 -0.007262 0.473923
  C 2.040756 -0.497924 -0.143667
  H 2.433105 -1.489187 -0.002551
  C 2.704688 0.566113 -0.973936
  C 2.309080 0.522243 -2.471142
  C 0.857252 0.147077 -2.739178
  C 0.563904 0.106232 -4.234568
  H 3.782156 0.626788 -0.900559
  H 1.034796 0.882779 1.074227
  H 0.132783 -0.623078 0.800315
  H 1.950390 1.308240 -0.642852
  H 2.948937 -0.204382 -2.990679
  H 2.530201 1.497020 -2.904958
  H 0.200325 0.885344 -2.275252
  H 0.637538 -0.824341 -2.288468
  H 0.760231 1.076973 -4.686420
  H -0.477215 -0.152829 -4.413188
  H 1.189143 -0.633020 -4.729930
 18
 19.594183
  C 0.975115 -0.126423 0.528361
  C 2.030879 -0.503293 -0.186626
  H 2.471790 -1.486882 -0.130042
  C 2.685854 0.597903 -0.972850
  C 2.316165 0.540951 -2.473895
  C 0.843157 0.258353 -2.747765
  C 0.581260 0.074640 -4.237870
  H 3.763576 0.663428 -0.878796
  H 0.927020 0.829607 1.023159
  H 0.220300 -0.811544 0.896737
  H 2.027761 1.401279 -0.622787
  H 2.915918 -0.230383 -2.968583
  H 2.595152 1.498691 -2.918760
  H 0.232070 1.082172 -2.370975
  H 0.544015 -0.645795 -2.214871
  H 0.837971 0.978228 -4.787182
  H -0.468101 -0.149071 -4.416009
  H 1.176753 -0.746117 -4.631978
 18
 5.627313
  C 0.997696 -0.200662 0.593524
  C 2.017486 -0.483177 -0.197419
  H 2.470891 -1.463410 -0.225698
  C 2.659814 0.624630 -0.975956
  C 2.322701 0.514148 -2.476537
  C 0.839741 0.299561 -2.761930
  C 0.583913 0.093720 -4.250118
  H 3.741335 0.653268 -0.867296
  H 0.815649 0.804570 0.941367
  H 0.355738 -0.932780 1.059431
  H 2.136211 1.514178 -0.618464
  H 2.894711 -0.304325 -2.922641
  H 2.649962 1.437714 -2.961074
  H 0.274018 1.167405 -2.414623
  H 0.483130 -0.570247 -2.207774
  H 0.906556 0.963481 -4.818974
  H -0.475594 -0.064671 -4.437558
  H 1.129745 -0.774040 -4.614490
 18
 -1.216497
  C 0.996608 -0.228471 0.648163
  C 2.023828 -0.435464 -0.153829
  H 2.495762 -1.407939 -0.204494
  C 2.636180 0.643440 -0.989018
  C 2.331130 0.453036 -2.482802
  C 0.841207 0.293370 -2.771053
  C 0.571240 0.153083 -4.264170
  H 3.719904 0.650669 -0.857669
  H 0.583299 0.755042 0.801361
  H 0.534697 -1.024959 1.208018
  H 2.215210 1.594894 -0.660595
  H 2.868237 -0.422679 -2.855342
  H 2.706271 1.324837 -3.024767
  H 0.305222 1.163625 -2.385235
  H 0.462076 -0.586175 -2.247465
  H 0.919464 1.033364 -4.800822
  H -0.493696 0.036667 -4.451447
  H 1.087065 -0.716979 -4.665069
 18
 -2.083576
  C 1.053100 -0.374180 0.681438
  C 2.069113 -0.456183 -0.156186
  H 2.586827 -1.397505 -0.298172
  C 2.574391 0.687458 -0.975961
  C 2.315311 0.470840 -2.472772
  C 0.826865 0.470686 -2.808055
  C 0.576028 0.105016 -4.265081
  H 3.652233 0.791209 -0.820483
  H 0.523326 0.552564 0.833971
  H 0.704570 -1.220848 1.249529
  H 2.087193 1.607866 -0.648895
  H 2.755341 -0.480352 -2.780162
  H 2.811091 1.263019 -3.036515
  H 0.413380 1.461426 -2.607407
  H 0.312799 -0.240672 -2.158448
  H 1.078586 0.807367 -4.927572
  H -0.488036 0.125235 -4.487450
  H 0.951584 -0.893584 -4.478010
