 16
 0.000000
  C 0.981618 0.139502 0.399176
  C 2.430247 0.086286 0.268436
  H 3.037323 0.419767 1.097851
  C 3.060841 -0.369825 -0.866240
  C 4.459069 -0.412265 -0.975587
  C 5.160392 -0.853723 -2.076975
  C 4.612913 -1.355261 -3.327022
  H 3.531421 -1.372814 -3.371037
  H 6.240635 -0.828190 -2.014502
  H 0.661637 0.525475 1.359253
  H 0.550816 -0.852499 0.236975
  H 0.552009 0.744290 -0.404421
  H 2.452140 -0.703396 -1.693944
  H 5.028243 -0.068854 -0.122089
  H 5.011949 -2.357923 -3.516439
  H 5.012021 -0.761598 -4.156907
 16
 10.477744
  C 0.896615 0.148728 0.422089
  C 2.468147 0.087018 0.270274
  H 3.078799 0.419155 1.096267
  C 3.082367 -0.369187 -0.864625
  C 4.480363 -0.416302 -0.985669
  C 5.169280 -0.860076 -2.092803
  C 4.614784 -1.358691 -3.335620
  H 3.532277 -1.373284 -3.372382
  H 6.385612 -0.834997 -2.031524
  H 0.589190 0.535470 1.384092
  H 0.467279 -0.841607 0.264007
  H 0.468434 0.755106 -0.377365
  H 2.464482 -0.700715 -1.687185
  H 5.058317 -0.074709 -0.136713
  H 5.009868 -2.361481 -3.527576
  H 5.010009 -0.766725 -4.167414
 16
 32.228808
  C 0.834328 0.156848 0.442510
  C 2.477706 0.099886 0.302171
  H 3.054881 0.439366 1.146774
  C 3.072305 -0.365904 -0.857023
  C 4.478097 -0.418487 -0.991525
  C 5.142982 -0.867959 -2.112526
  C 4.615839 -1.367862 -3.358404
  H 3.530409 -1.386392 -3.405161
  H 6.548860 -0.837563 -2.037709
  H 0.552137 0.545589 1.409773
  H 0.457230 -0.846152 0.273392
  H 0.458289 0.764938 -0.373369
  H 2.442801 -0.694647 -1.672845
  H 5.065829 -0.079625 -0.149197
  H 5.017778 -2.369510 -3.548552
  H 5.018015 -0.775718 -4.188186
 16
 56.919540
  C 0.804309 0.152609 0.431623
  C 2.489469 0.102829 0.309784
  H 3.025329 0.450130 1.173382
  C 3.068891 -0.362449 -0.847619
  C 4.466517 -0.419077 -0.993180
  C 5.081544 -0.869614 -2.116678
  C 4.595966 -1.368408 -3.360117
  H 3.504324 -1.392220 -3.420810
  H 6.707269 -0.833553 -2.026942
  H 0.559034 0.543253 1.403486
  H 0.475524 -0.856516 0.279875
  H 0.476435 0.776694 -0.376044
  H 2.433728 -0.690621 -1.661552
  H 5.065190 -0.083843 -0.160556
  H 5.009732 -2.368240 -3.546793
  H 5.010259 -0.775328 -4.185992
 16
 78.537530
  C 0.871255 0.168156 0.462601
  C 2.421515 0.100624 0.313442
  H 3.003340 0.444100 1.155172
  C 2.989357 -0.369136 -0.839672
  C 4.393732 -0.427920 -1.002502
  C 4.972903 -0.877049 -2.132582
  C 4.605765 -1.379882 -3.393482
  H 3.525391 -1.426962 -3.509723
  H 6.985353 -0.804394 -1.969297
  H 0.615373 0.564470 1.432231
  H 0.481111 -0.839617 0.324581
  H 0.487365 0.795226 -0.341362
  H 2.350698 -0.697017 -1.646792
  H 5.004492 -0.093696 -0.175882
  H 5.048136 -2.367358 -3.558634
  H 5.044633 -0.774359 -4.192784
 16
 89.185333
  C 0.891863 0.196046 0.525159
  C 2.378597 0.111102 0.300960
  H 3.019283 0.426115 1.117639
  C 2.893209 -0.347909 -0.848833
  C 4.336628 -0.464169 -1.047560
  C 4.860478 -0.893885 -2.149941
  C 4.672129 -1.416440 -3.453892
  H 3.605459 -1.524027 -3.654161
  H 7.172962 -0.721004 -1.887679
  H 0.669694 0.581721 1.515881
  H 0.439684 -0.785508 0.410030
  H 0.440282 0.838610 -0.225160
  H 2.249733 -0.657379 -1.652774
  H 4.952792 -0.157000 -0.217525
  H 5.169176 -2.380288 -3.572896
  H 5.126445 -0.776452 -4.205654
 16
 89.380648
  C 0.879481 0.236274 0.619234
  C 2.359788 0.113835 0.323641
  H 3.029125 0.421050 1.113868
  C 2.807057 -0.354615 -0.842794
  C 4.242146 -0.492656 -1.125328
  C 4.700351 -0.927474 -2.235314
  C 4.802061 -1.441381 -3.528539
  H 3.777094 -1.604201 -3.853566
  H 7.235777 -0.682676 -1.791647
  H 0.735437 0.627418 1.612486
  H 0.408963 -0.742653 0.543424
  H 0.415580 0.903907 -0.105195
  H 2.125701 -0.660450 -1.627441
  H 4.883376 -0.183835 -0.305391
  H 5.320995 -2.411672 -3.564226
  H 5.287238 -0.749397 -4.231511
 16
 89.676772
  C 0.909667 0.409146 0.685232
  C 2.330351 0.114095 0.332771
  H 3.070384 0.275852 1.106873
  C 2.693391 -0.279122 -0.886008
  C 4.084989 -0.587701 -1.230967
  C 4.533291 -0.965942 -2.363767
  C 4.922629 -1.551733 -3.551297
  H 3.977859 -1.769287 -4.077737
  H 7.385004 -0.737459 -1.640090
  H 0.834579 0.718882 1.719073
  H 0.296165 -0.480184 0.569083
  H 0.516847 1.211289 0.062285
  H 1.964545 -0.438554 -1.659577
  H 4.753766 -0.395491 -0.408991
  H 5.395904 -2.530810 -3.393611
  H 5.520080 -0.906673 -4.183067
 16
 89.289818
  C 0.934238 0.398287 0.723975
  C 2.343048 0.113705 0.338294
  H 3.079732 0.273898 1.100976
  C 2.679657 -0.287337 -0.888301
  C 4.045064 -0.581452 -1.263334
  C 4.509599 -0.951138 -2.387724
  C 4.934331 -1.548176 -3.543549
  H 4.018968 -1.789536 -4.092797
  H 7.599751 -0.669321 -1.537006
  H 0.877143 0.715121 1.766320
  H 0.323440 -0.489436 0.593170
  H 0.525879 1.182954 0.094448
  H 1.927423 -0.442218 -1.651664
  H 4.762395 -0.391299 -0.471637
  H 5.411808 -2.504767 -3.369766
  H 5.523677 -0.904620 -4.183109
