 28
 0.000000
  C 0.950366 0.145313 0.413613
  C 2.423812 0.139465 0.398578
  C 3.220702 0.604261 1.554572
  C 2.463358 1.098311 2.783886
  C 3.439600 1.535434 3.871782
  C 3.030325 -0.328110 -0.764961
  C 4.411743 -0.411593 -0.974173
  C 5.089271 -0.857432 -2.086103
  C 4.618394 -1.377706 -3.383092
  C 3.136521 -1.504920 -3.700158
  H 3.013704 -1.905314 -4.698553
  H 6.168566 -0.843191 -2.051388
  H 0.531792 0.517929 1.340476
  H 0.574564 -0.864206 0.240400
  H 0.574191 0.753833 -0.410136
  H 3.880563 1.410402 1.214106
  H 3.880696 -0.213144 1.866716
  H 1.828199 0.305255 3.182267
  H 1.828247 1.946543 2.522709
  H 4.074973 0.708432 4.180767
  H 2.898382 1.886977 4.746618
  H 4.075071 2.346196 3.522597
  H 2.359034 -0.642229 -1.545987
  H 5.041571 -0.083086 -0.156917
  H 5.092026 -2.360921 -3.503406
  H 5.092136 -0.750273 -4.149543
  H 2.650054 -0.532694 -3.662440
  H 2.650152 -2.181774 -3.001164
 28
 0.831870
  C 0.960094 -0.006107 0.462341
  C 2.436598 0.034663 0.431681
  C 3.219865 0.597274 1.558295
  C 2.456060 1.161307 2.756982
  C 3.430996 1.670824 3.814254
  C 3.041070 -0.467916 -0.716515
  C 4.419340 -0.617905 -0.912528
  C 5.082927 -0.974239 -2.063079
  C 4.618687 -1.321785 -3.410181
  C 3.139147 -1.322629 -3.741385
  H 3.008847 -1.604024 -4.781644
  H 6.159064 -1.009031 -1.979777
  H 0.538020 0.381619 1.385915
  H 0.613041 -1.028674 0.319456
  H 0.555403 0.567428 -0.369029
  H 3.896387 1.373826 1.166209
  H 3.889960 -0.198944 1.924529
  H 1.839150 0.384761 3.204632
  H 1.815999 1.985841 2.443829
  H 4.074273 0.868401 4.169755
  H 2.890389 2.068936 4.668032
  H 4.061450 2.463094 3.415790
  H 2.313857 -0.703744 -1.478944
  H 5.047548 -0.430581 -0.050811
  H 5.041799 -2.309439 -3.631852
  H 5.145650 -0.646941 -4.095738
  H 2.708777 -0.333116 -3.609387
  H 2.599148 -2.041800 -3.131177
 28
 5.246157
  C 0.999582 -0.076858 0.461925
  C 2.470299 -0.011647 0.437133
  C 3.223037 0.591166 1.559403
  C 2.446547 1.160960 2.735050
  C 3.402167 1.714155 3.785016
  C 3.083782 -0.518419 -0.705858
  C 4.450848 -0.683755 -0.908978
  C 5.104203 -1.014021 -2.073240
  C 4.608075 -1.303329 -3.414919
  C 3.118982 -1.236419 -3.706264
  H 2.953919 -1.468335 -4.753106
  H 6.183901 -1.073496 -2.000682
  H 0.579365 0.311614 1.387661
  H 0.660766 -1.104608 0.347054
  H 0.582024 0.517011 -0.349493
  H 3.872166 1.372462 1.142692
  H 3.909952 -0.184092 1.926345
  H 1.837417 0.368993 3.191760
  H 1.778729 1.958270 2.391884
  H 4.061186 0.940189 4.171991
  H 2.840511 2.122262 4.623063
  H 4.008363 2.525355 3.380564
  H 2.283831 -0.706836 -1.411966
  H 5.085650 -0.541810 -0.039787
  H 4.985464 -2.302542 -3.677014
  H 5.143591 -0.625348 -4.098206
  H 2.734645 -0.233706 -3.532803
  H 2.568629 -1.951400 -3.107224
 28
 10.073283
  C 0.979113 -0.158017 0.540881
  C 2.423560 -0.070825 0.443345
  C 3.205545 0.582465 1.548279
  C 2.442829 1.159785 2.736053
  C 3.434659 1.773519 3.737706
  C 3.039099 -0.567993 -0.720263
  C 4.392736 -0.747970 -0.901466
  C 5.120643 -1.037428 -2.042357
  C 4.634822 -1.266292 -3.406003
  C 3.164741 -1.158229 -3.767009
  H 3.028562 -1.356018 -4.836587
  H 6.167016 -1.105086 -1.927647
  H 0.571088 0.190530 1.482711
  H 0.646237 -1.200605 0.439058
  H 0.491019 0.422092 -0.265715
  H 3.813648 1.355323 1.074845
  H 3.910234 -0.165539 1.929292
  H 1.879282 0.373881 3.248121
  H 1.747355 1.942339 2.404561
  H 4.135750 1.028474 4.113056
  H 2.914469 2.206560 4.601940
  H 4.015223 2.580930 3.284007
  H 2.210792 -0.708091 -1.421425
  H 4.975364 -0.663946 0.019930
  H 5.003383 -2.255480 -3.687442
  H 5.185612 -0.560360 -4.048504
  H 2.787157 -0.147387 -3.574896
  H 2.596812 -1.888931 -3.212818
 28
 15.706080
  C 1.055960 -0.302357 0.564650
  C 2.512516 -0.115946 0.480495
  C 3.216835 0.604079 1.558458
  C 2.409292 1.187391 2.704284
  C 3.341433 1.824366 3.716053
  C 3.141057 -0.598736 -0.679821
  C 4.492917 -0.784124 -0.904541
  C 5.118931 -1.067812 -2.099394
  C 4.595692 -1.232119 -3.456432
  C 3.108410 -1.021184 -3.733830
  H 2.928335 -1.171796 -4.796059
  H 6.181910 -1.220142 -2.012961
  H 0.656206 0.026880 1.518911
  H 0.794671 -1.356475 0.446526
  H 0.542638 0.262464 -0.225758
  H 3.809480 1.419471 1.118321
  H 3.916852 -0.137847 1.968974
  H 1.850787 0.399647 3.216767
  H 1.722407 1.945909 2.344170
  H 4.026835 1.106844 4.128651
  H 2.771397 2.247558 4.529882
  H 3.904967 2.631501 3.275300
  H 2.232013 -0.694931 -1.255672
  H 5.118723 -0.790934 -0.010615
  H 4.886965 -2.263933 -3.760249
  H 5.200303 -0.581921 -4.109744
  H 2.806362 -0.005600 -3.511036
  H 2.492808 -1.734875 -3.180113
 28
 18.880553
  C 1.097475 -0.287485 0.539152
  C 2.564976 -0.100716 0.475658
  C 3.217656 0.607910 1.592927
  C 2.379797 1.247162 2.694446
  C 3.290116 1.896128 3.731678
  C 3.186603 -0.638140 -0.658908
  C 4.515170 -0.938002 -0.908700
  C 5.111986 -1.181887 -2.123508
  C 4.563507 -1.259472 -3.473574
  C 3.082951 -1.016407 -3.691497
  H 2.855518 -1.110904 -4.751673
  H 6.174236 -1.378216 -2.075126
  H 0.689599 0.071248 1.468244
  H 0.869051 -1.349629 0.421798
  H 0.633525 0.266687 -0.282645
  H 3.880684 1.385614 1.186057
  H 3.900001 -0.136288 2.043089
  H 1.731844 0.525129 3.204000
  H 1.742284 2.036323 2.286326
  H 3.915959 1.160819 4.199637
  H 2.697656 2.360843 4.503557
  H 3.919551 2.648699 3.283683
  H 2.283471 -0.615305 -1.290563
  H 5.129588 -1.054558 -0.020396
  H 4.850718 -2.241146 -3.865306
  H 5.143930 -0.539619 -4.070862
  H 2.817245 -0.022776 -3.375145
  H 2.489754 -1.732107 -3.142648
 28
 22.424666
  C 1.194562 -0.454120 0.618652
  C 2.653742 -0.209091 0.516342
  C 3.236333 0.593834 1.626539
  C 2.334835 1.214525 2.686589
  C 3.178295 1.974916 3.697638
  C 3.254788 -0.724201 -0.625762
  C 4.574072 -0.994425 -0.944230
  C 5.111308 -1.209853 -2.191665
  C 4.523987 -1.160496 -3.524992
  C 3.047878 -0.836128 -3.689912
  H 2.806444 -0.836984 -4.744883
  H 6.165115 -1.469408 -2.183811
  H 0.800901 -0.091009 1.559281
  H 1.003953 -1.522653 0.545927
  H 0.667942 0.072808 -0.173399
  H 3.863671 1.385271 1.200636
  H 3.944830 -0.084571 2.128906
  H 1.773427 0.446111 3.224742
  H 1.638929 1.920621 2.226851
  H 3.873475 1.306414 4.202781
  H 2.536814 2.426235 4.455140
  H 3.742986 2.768915 3.216492
  H 2.290680 -0.716543 -1.183359
  H 5.220914 -1.149585 -0.089167
  H 4.766712 -2.122072 -4.006359
  H 5.127703 -0.430426 -4.088107
  H 2.825944 0.144246 -3.287151
  H 2.429517 -1.589108 -3.199725
 28
 24.492116
  C 1.249739 -0.623095 0.667450
  C 2.705777 -0.271415 0.540086
  C 3.235034 0.570506 1.638861
  C 2.304126 1.250995 2.640009
  C 3.129672 2.048216 3.645338
  C 3.278721 -0.813137 -0.586657
  C 4.582482 -1.104512 -0.956983
  C 5.109397 -1.197390 -2.219771
  C 4.496115 -1.061802 -3.540280
  C 3.025247 -0.708837 -3.637343
  H 2.749763 -0.655233 -4.689545
  H 6.155586 -1.478396 -2.245526
  H 0.861385 -0.310239 1.628588
  H 1.138344 -1.692019 0.572426
  H 0.676070 -0.096178 -0.076290
  H 3.873867 1.341600 1.211001
  H 3.910280 -0.095030 2.202107
  H 1.708347 0.531937 3.213335
  H 1.624607 1.946301 2.140541
  H 3.797051 1.394460 4.202994
  H 2.480234 2.529378 4.367359
  H 3.726165 2.813636 3.161480
  H 2.335824 -0.726967 -1.195182
  H 5.228808 -1.326586 -0.124177
  H 4.690493 -2.013480 -4.064456
  H 5.085849 -0.314513 -4.081909
  H 2.833956 0.260749 -3.186751
  H 2.417028 -1.471941 -3.173524
 28
 30.819179
  C 1.317660 -0.732070 0.731276
  C 2.739543 -0.269116 0.531291
  C 3.239785 0.620138 1.612582
  C 2.271174 1.259356 2.594129
  C 3.042825 2.120375 3.596783
  C 3.328779 -0.860345 -0.550257
  C 4.590390 -1.264441 -0.966542
  C 5.083886 -1.343768 -2.239061
  C 4.475056 -1.027772 -3.535167
  C 3.040108 -0.520667 -3.581520
  H 2.758789 -0.331942 -4.622171
  H 6.099424 -1.703945 -2.312789
  H 0.964477 -0.476703 1.723722
  H 1.269439 -1.801436 0.607758
  H 0.652539 -0.256630 0.026836
  H 3.835812 1.420930 1.169842
  H 3.949141 -0.005954 2.177643
  H 1.717316 0.523504 3.170126
  H 1.557862 1.900872 2.081657
  H 3.743954 1.520636 4.167708
  H 2.357822 2.598003 4.293386
  H 3.604024 2.902894 3.094078
  H 2.372141 -0.714346 -1.106456
  H 5.221738 -1.613210 -0.162114
  H 4.564926 -1.937912 -4.148191
  H 5.131359 -0.307179 -4.027446
  H 2.938872 0.404293 -3.030131
  H 2.352183 -1.268566 -3.187403
 28
 35.518910
  C 1.306373 -0.915609 0.821264
  C 2.682479 -0.363489 0.543641
  C 3.203108 0.604614 1.550552
  C 2.244983 1.288396 2.514466
  C 3.021329 2.236341 3.421947
  C 3.348978 -0.979330 -0.479786
  C 4.560872 -1.448779 -0.960087
  C 5.051292 -1.449893 -2.232561
  C 4.476873 -0.921129 -3.480196
  C 3.100465 -0.271962 -3.437329
  H 2.840843 0.078792 -4.435590
  H 6.024332 -1.910894 -2.364885
  H 0.988121 -0.674428 1.830676
  H 1.296767 -1.999960 0.713159
  H 0.555432 -0.496619 0.153779
  H 3.788557 1.370570 1.038460
  H 3.937585 0.017111 2.132878
  H 1.732834 0.567655 3.146473
  H 1.502587 1.854016 1.968001
  H 3.771172 1.698870 3.995537
  H 2.346439 2.722471 4.121016
  H 3.525228 3.011353 2.843788
  H 2.425041 -0.698821 -1.042851
  H 5.156982 -1.952400 -0.201457
  H 4.470563 -1.746547 -4.209335
  H 5.201367 -0.204654 -3.886973
  H 3.095189 0.587077 -2.775867
  H 2.340391 -0.984568 -3.135444
 28
 44.643387
  C 1.274349 -1.004240 0.861154
  C 2.634735 -0.424824 0.530584
  C 3.188160 0.578547 1.494997
  C 2.232255 1.292794 2.447998
  C 3.012709 2.306789 3.291666
  C 3.366415 -1.060601 -0.425804
  C 4.501980 -1.597724 -0.963531
  C 5.007029 -1.541159 -2.237618
  C 4.484816 -0.847093 -3.431402
  C 3.165931 -0.094043 -3.313110
  H 2.925757 0.357446 -4.269874
  H 5.933639 -2.073565 -2.410029
  H 0.961613 -0.714471 1.854381
  H 1.309053 -2.086329 0.817482
  H 0.498348 -0.655186 0.175609
  H 3.764382 1.333402 0.948963
  H 3.917092 0.018448 2.082624
  H 1.751627 0.586363 3.126382
  H 1.464781 1.819419 1.885449
  H 3.773016 1.813004 3.884490
  H 2.340992 2.828464 3.972404
  H 3.499120 3.050210 2.662999
  H 2.424022 -0.579806 -0.929892
  H 5.051144 -2.193982 -0.241701
  H 4.412370 -1.587239 -4.232688
  H 5.263956 -0.152608 -3.768614
  H 3.241322 0.704612 -2.582047
  H 2.354706 -0.771448 -3.058820
 28
 47.927935
  C 1.271270 -1.023570 0.825584
  C 2.623812 -0.440070 0.530749
  C 3.199987 0.551787 1.509798
  C 2.217717 1.310372 2.410525
  C 2.974909 2.352298 3.245146
  C 3.431367 -1.063398 -0.378755
  C 4.498477 -1.639795 -0.967547
  C 4.973016 -1.591932 -2.261013
  C 4.449574 -0.846506 -3.423524
  C 3.190517 -0.011387 -3.232049
  H 2.927261 0.462022 -4.172324
  H 5.861317 -2.163919 -2.469145
  H 0.984042 -0.814160 1.845153
  H 1.289589 -2.097392 0.695135
  H 0.494860 -0.601735 0.184882
  H 3.788013 1.293889 0.955134
  H 3.902775 -0.009374 2.119449
  H 1.702928 0.633464 3.095882
  H 1.471226 1.825800 1.804155
  H 3.718679 1.876950 3.872403
  H 2.287293 2.890700 3.894324
  H 3.479436 3.075310 2.607020
  H 2.486002 -0.385708 -0.798963
  H 5.051325 -2.261646 -0.264656
  H 4.280715 -1.573101 -4.222201
  H 5.258541 -0.205655 -3.794618
  H 3.358049 0.777099 -2.500005
  H 2.353476 -0.641091 -2.939639
 28
 47.734741
  C 1.267837 -1.063175 0.836020
  C 2.613993 -0.439062 0.507961
  C 3.200637 0.584506 1.466877
  C 2.209846 1.344980 2.349307
  C 2.952246 2.388059 3.181234
  C 3.465456 -1.094666 -0.332893
  C 4.455913 -1.705284 -0.979367
  C 4.929401 -1.650916 -2.275054
  C 4.441000 -0.829901 -3.399463
  C 3.240886 0.072951 -3.143197
  H 3.003018 0.620050 -4.048886
  H 5.769576 -2.287129 -2.513695
  H 1.014825 -0.887840 1.876219
  H 1.295309 -2.133277 0.670135
  H 0.471079 -0.638636 0.232204
  H 3.783317 1.309428 0.906281
  H 3.912390 0.048970 2.098223
  H 1.679407 0.676847 3.024645
  H 1.474298 1.862539 1.721225
  H 3.683797 1.915252 3.830552
  H 2.253635 2.938608 3.806468
  H 3.473045 3.102801 2.542794
  H 2.429624 -0.178291 -0.660135
  H 4.950303 -2.408059 -0.311833
  H 4.219236 -1.506851 -4.226830
  H 5.284276 -0.223521 -3.757317
  H 3.466431 0.802584 -2.365945
  H 2.367450 -0.514635 -2.876666
 28
 52.718572
  C 1.271179 -1.013840 0.841760
  C 2.607334 -0.306533 0.432526
  C 3.180111 0.688022 1.422358
  C 2.193999 1.403638 2.349977
  C 2.943264 2.403508 3.220717
  C 3.456083 -1.042428 -0.364981
  C 4.391014 -1.741811 -1.013518
  C 4.875681 -1.739645 -2.298690
  C 4.461206 -0.881377 -3.417407
  C 3.337969 0.104996 -3.138329
  H 3.131843 0.682493 -4.042422
  H 5.659103 -2.443297 -2.530636
  H 1.047956 -0.811940 1.890146
  H 1.364161 -2.094872 0.711824
  H 0.422388 -0.666150 0.256227
  H 3.734084 1.451849 0.873616
  H 3.906585 0.147842 2.025906
  H 1.718076 0.694341 3.022462
  H 1.423132 1.918730 1.784588
  H 3.700296 1.899739 3.817712
  H 2.255502 2.904130 3.899941
  H 3.433920 3.165078 2.615643
  H 2.193626 -0.121866 -0.634048
  H 4.817743 -2.485222 -0.335008
  H 4.173033 -1.540341 -4.252828
  H 5.352086 -0.339764 -3.777711
  H 3.622718 0.806079 -2.349256
  H 2.423669 -0.427822 -2.866727
