 20
 0.000000
  C 1.007308 -0.071545 0.047607
  C 2.503573 -0.082504 0.026092
  C 3.219137 -0.595398 -0.980807
  C 4.656855 -0.605983 -1.001584
  C 5.377827 -1.121115 -2.012873
  C 6.816234 -1.130730 -2.031745
  C 7.534677 -1.642508 -3.036461
  C 9.024665 -1.661765 -3.074258
  H 0.645147 0.394691 0.962900
  H 0.611775 -1.086345 0.008927
  H 0.611773 0.493830 -0.796000
  H 3.004022 0.352902 0.880869
  H 2.706748 -1.028678 -1.831395
  H 5.160980 -0.171012 -0.147668
  H 4.873583 -1.555882 -2.866394
  H 7.322790 -0.696228 -1.178747
  H 7.036047 -2.078798 -3.892956
  H 9.458381 -1.208581 -2.184586
  H 9.383938 -1.115821 -3.947986
  H 9.383940 -2.689509 -3.146384
 20
 1.692493
  C 0.987478 -0.135170 -0.077299
  C 2.474008 -0.072738 0.045270
  C 3.306181 -0.537319 -0.866775
  C 4.752973 -0.507629 -0.808488
  C 5.438890 -1.036006 -1.845781
  C 6.858292 -1.102022 -1.975391
  C 7.488088 -1.636352 -3.024374
  C 8.966972 -1.714360 -3.177514
  H 0.504153 0.306491 0.789735
  H 0.653262 -1.168239 -0.168794
  H 0.653261 0.398227 -0.966749
  H 2.872018 0.382348 0.938675
  H 2.946462 -1.008148 -1.791085
  H 5.245814 -0.069489 0.051648
  H 4.809183 -1.445918 -2.650510
  H 7.434048 -0.686414 -1.159482
  H 6.909686 -2.051629 -3.839624
  H 9.471734 -1.277339 -2.319561
  H 9.282991 -1.187146 -4.078019
  H 9.282980 -2.752737 -3.280526
 20
 6.861681
  C 0.999656 -0.190169 -0.185257
  C 2.467642 -0.070901 0.048875
  C 3.393382 -0.505267 -0.803865
  C 4.817359 -0.443161 -0.681945
  C 5.472330 -0.975285 -1.726576
  C 6.875539 -1.078748 -1.929712
  C 7.435849 -1.630564 -3.013024
  C 8.893153 -1.747146 -3.241863
  H 0.437533 0.228846 0.637336
  H 0.716487 -1.226354 -0.301075
  H 0.716467 0.325402 -1.091550
  H 2.776543 0.393980 0.961521
  H 3.168674 -0.992341 -1.760038
  H 5.300026 0.000211 0.188463
  H 4.752020 -1.356346 -2.474648
  H 7.495112 -0.683857 -1.154493
  H 6.803337 -2.029012 -3.795267
  H 9.449850 -1.327292 -2.417589
  H 9.173677 -1.231061 -4.153284
  H 9.173658 -2.787817 -3.360309
 20
 15.290318
  C 0.994085 -0.240821 -0.284693
  C 2.450711 -0.069487 0.051651
  C 3.447519 -0.472101 -0.738753
  C 4.869565 -0.385648 -0.569039
  C 5.497535 -0.923469 -1.624849
  C 6.910050 -1.065934 -1.904530
  C 7.390708 -1.625069 -3.002215
  C 8.843873 -1.781811 -3.309924
  H 0.359279 0.159280 0.500777
  H 0.754136 -1.293713 -0.420627
  H 0.754111 0.268306 -1.216358
  H 2.683017 0.410093 0.993144
  H 3.347697 -0.965012 -1.706393
  H 5.344006 0.057628 0.301183
  H 4.698993 -1.268267 -2.301738
  H 7.591144 -0.684668 -1.156044
  H 6.701455 -2.007592 -3.753182
  H 9.463236 -1.374316 -2.509944
  H 9.091452 -1.268586 -4.242959
  H 9.091439 -2.838274 -3.443396
 20
 26.315963
  C 1.022793 -0.279449 -0.360526
  C 2.452116 -0.072327 0.046073
  C 3.490078 -0.449184 -0.693775
  C 4.907152 -0.347573 -0.494306
  C 5.528682 -0.890230 -1.559613
  C 6.901499 -1.049450 -1.872225
  C 7.345431 -1.623570 -2.999322
  C 8.783122 -1.802617 -3.350741
  H 0.340037 0.105649 0.395498
  H 0.815457 -1.341392 -0.506748
  H 0.815442 0.226659 -1.305510
  H 2.624614 0.412528 0.997940
  H 3.489629 -0.961657 -1.699809
  H 5.367330 0.093163 0.370923
  H 4.665141 -1.215907 -2.198956
  H 7.608685 -0.678028 -1.143071
  H 6.631948 -1.993716 -3.726019
  H 9.431810 -1.405718 -2.571496
  H 9.009084 -1.294254 -4.289539
  H 9.009031 -2.860889 -3.491525
 20
 39.165287
  C 1.031832 -0.301008 -0.402858
  C 2.437840 -0.075129 0.040567
  C 3.497527 -0.438114 -0.672048
  C 4.920589 -0.330136 -0.460084
  C 5.539604 -0.873141 -1.526074
  C 6.922408 -1.047928 -1.869256
  C 7.334126 -1.623665 -2.999549
  C 8.753798 -1.816959 -3.378907
  H 0.327868 0.072433 0.330259
  H 0.844433 -1.358201 -0.553213
  H 0.844445 0.198935 -1.346352
  H 2.574076 0.411512 0.995943
  H 3.572965 -0.960517 -1.697575
  H 5.369979 0.105317 0.394766
  H 4.602653 -1.182356 -2.133093
  H 7.656190 -0.682693 -1.152277
  H 6.608003 -1.982812 -3.704667
  H 9.417946 -1.429123 -2.617444
  H 8.964816 -1.312849 -4.318634
  H 8.964765 -2.873589 -3.523710
 20
 52.571511
  C 1.027354 -0.313175 -0.426752
  C 2.438050 -0.076696 0.037484
  C 3.505826 -0.432337 -0.660685
  C 4.927698 -0.325631 -0.451188
  C 5.552999 -0.867529 -1.515032
  C 6.919955 -1.046441 -1.866285
  C 7.320024 -1.625194 -3.002471
  C 8.745453 -1.826421 -3.397511
  H 0.308776 0.057358 0.300619
  H 0.846994 -1.373653 -0.579554
  H 0.847008 0.186713 -1.374384
  H 2.558082 0.410427 0.993762
  H 3.633640 -0.972482 -1.721079
  H 5.378127 0.114738 0.413314
  H 4.554203 -1.170441 -2.109707
  H 7.656937 -0.687163 -1.160938
  H 6.581860 -1.982560 -3.704033
  H 9.420786 -1.440373 -2.639638
  H 8.951576 -1.321950 -4.341753
  H 8.951573 -2.886832 -3.544644
 20
 64.802414
  C 1.021197 -0.313436 -0.427211
  C 2.434590 -0.077952 0.035052
  C 3.500676 -0.435189 -0.666254
  C 4.923269 -0.334779 -0.469088
  C 5.555358 -0.873888 -1.527494
  C 6.924961 -1.051631 -1.876427
  C 7.326477 -1.630397 -3.012629
  C 8.741807 -1.828173 -3.401075
  H 0.303491 0.058773 0.303470
  H 0.838417 -1.379558 -0.580050
  H 0.838356 0.189841 -1.379717
  H 2.554199 0.410001 0.992918
  H 3.658416 -0.996414 -1.768110
  H 5.374695 0.107424 0.399043
  H 4.499795 -1.177976 -2.124542
  H 7.665547 -0.690854 -1.168038
  H 6.588892 -1.989477 -3.717431
  H 9.416081 -1.440262 -2.639728
  H 8.948158 -1.324239 -4.343024
  H 8.948354 -2.886615 -3.547321
 20
 74.923481
  C 1.009119 -0.307265 -0.415239
  C 2.426963 -0.078146 0.034557
  C 3.484826 -0.439739 -0.675261
  C 4.909962 -0.348687 -0.496358
  C 5.553536 -0.884822 -1.548945
  C 6.924325 -1.058041 -1.888899
  C 7.335657 -1.635365 -3.022235
  C 8.760605 -1.829408 -3.403475
  H 0.299170 0.068412 0.322172
  H 0.820519 -1.369464 -0.565930
  H 0.820578 0.195218 -1.362896
  H 2.554629 0.410912 0.994565
  H 3.652967 -1.026072 -1.826501
  H 5.360941 0.093531 0.371872
  H 4.442867 -1.197911 -2.163805
  H 7.660585 -0.695008 -1.175928
  H 6.606013 -1.995746 -3.729479
  H 9.426527 -1.440814 -2.640867
  H 8.972161 -1.324520 -4.344786
  H 8.972366 -2.887542 -3.548458
 20
 85.863448
  C 0.996966 -0.301363 -0.403902
  C 2.427203 -0.078258 0.034128
  C 3.474367 -0.443448 -0.682685
  C 4.891484 -0.368936 -0.536163
  C 5.552410 -0.894505 -1.567944
  C 6.922959 -1.063354 -1.899181
  C 7.344888 -1.639475 -3.030147
  C 8.777565 -1.829810 -3.404090
  H 0.290325 0.080326 0.345136
  H 0.802257 -1.359131 -0.553207
  H 0.802608 0.199236 -1.346190
  H 2.563718 0.413817 1.000061
  H 3.645405 -1.057107 -1.887565
  H 5.342182 0.075111 0.335715
  H 4.386385 -1.219807 -2.206881
  H 7.657034 -0.697465 -1.180579
  H 6.628728 -1.998271 -3.734320
  H 9.430049 -1.443876 -2.646577
  H 8.994118 -1.325335 -4.341703
  H 8.994074 -2.883990 -3.547055
 20
 95.981904
  C 0.987886 -0.280275 -0.362227
  C 2.416136 -0.072675 0.045270
  C 3.446166 -0.448194 -0.691889
  C 4.865163 -0.394476 -0.586287
  C 5.552636 -0.912052 -1.602407
  C 6.928441 -1.071307 -1.914911
  C 7.370570 -1.644131 -3.039456
  C 8.807932 -1.822935 -3.390758
  H 0.308090 0.104688 0.393378
  H 0.779651 -1.342456 -0.507476
  H 0.779725 0.226623 -1.306573
  H 2.571000 0.417691 1.007856
  H 3.589542 -1.117013 -2.005060
  H 5.316287 0.050193 0.286776
  H 4.301387 -1.275359 -2.315878
  H 7.648951 -0.702168 -1.190008
  H 6.661005 -2.011666 -3.760815
  H 9.450492 -1.428891 -2.617338
  H 9.035161 -1.314189 -4.329220
  H 9.035290 -2.880992 -3.530923
 20
 104.956849
  C 0.974940 -0.260213 -0.322751
  C 2.408558 -0.066400 0.057662
  C 3.419498 -0.451101 -0.697536
  C 4.839366 -0.420428 -0.637247
  C 5.556656 -0.928672 -1.635041
  C 6.936254 -1.078490 -1.929133
  C 7.396792 -1.648196 -3.047595
  C 8.839795 -1.817137 -3.379355
  H 0.315988 0.129835 0.442906
  H 0.754240 -1.322265 -0.463821
  H 0.754207 0.250117 -1.264830
  H 2.580260 0.422562 1.017492
  H 3.524500 -1.179878 -2.128351
  H 5.289656 0.025736 0.238685
  H 4.213364 -1.335257 -2.433368
  H 7.646907 -0.705529 -1.196826
  H 6.697613 -2.021170 -3.779789
  H 9.470324 -1.418103 -2.596033
  H 9.076308 -1.305814 -4.316446
  H 9.076413 -2.875842 -3.516749
 20
 112.449594
  C 0.960755 -0.240134 -0.283343
  C 2.409255 -0.059058 0.072093
  C 3.400110 -0.452735 -0.700721
  C 4.814617 -0.449194 -0.693721
  C 5.564001 -0.944985 -1.667052
  C 6.944898 -1.084774 -1.941496
  C 7.422777 -1.651742 -3.054592
  C 8.867664 -1.810496 -3.366305
  H 0.316932 0.157450 0.497147
  H 0.728716 -1.295085 -0.419775
  H 0.728667 0.269789 -1.217017
  H 2.596287 0.427182 1.026588
  H 3.445349 -1.250780 -2.267467
  H 5.259724 -0.003178 0.181893
  H 4.120562 -1.405438 -2.571070
  H 7.650678 -0.706038 -1.197894
  H 6.732853 -2.030565 -3.798318
  H 9.490424 -1.404395 -2.569078
  H 9.111370 -1.299562 -4.297586
  H 9.111438 -2.864289 -3.500634
 20
 117.637576
  C 0.952503 -0.221175 -0.246141
  C 2.411532 -0.051175 0.087562
  C 3.382757 -0.452962 -0.701164
  C 4.787151 -0.478461 -0.751193
  C 5.568456 -0.959779 -1.696101
  C 6.951273 -1.089764 -1.951330
  C 7.445509 -1.654014 -3.059097
  C 8.892666 -1.803453 -3.352421
  H 0.322487 0.182572 0.546452
  H 0.711064 -1.271452 -0.378784
  H 0.711033 0.289029 -1.173762
  H 2.611255 0.435089 1.042101
  H 3.350368 -1.326102 -2.415291
  H 5.225295 -0.032042 0.125187
  H 4.019609 -1.481837 -2.721008
  H 7.649051 -0.707771 -1.201364
  H 6.764167 -2.038341 -3.813689
  H 9.505993 -1.392113 -2.544847
  H 9.143208 -1.292648 -4.278694
  H 9.143210 -2.853059 -3.483934
