 26
 0.000000
  H 1.413636 0.057651 0.064483
  C 2.489722 0.056397 -0.004885
  C 3.233713 -0.006857 1.301768
  C 2.332819 -0.064646 2.529147
  H 2.928583 -0.111448 3.436389
  C 3.108576 0.119059 -1.187594
  C 2.444715 0.209470 -2.535848
  C 0.919312 0.194328 -2.563344
  C 0.401977 0.293415 -3.995058
  C 4.567636 0.126618 -1.254717
  C 5.316435 0.191877 -2.355404
  O 6.673718 0.195737 -2.361521
  H 3.889594 0.871571 1.385325
  H 3.876287 -0.893767 1.304755
  H 1.692375 -0.944011 2.491412
  H 1.697314 0.817818 2.579076
  H 2.804873 -0.623374 -3.147676
  H 2.784961 1.130543 -3.019312
  H 0.525651 1.036126 -1.990429
  H 0.545857 -0.730552 -2.119546
  H 0.737326 1.216235 -4.463837
  H -0.685867 0.282036 -4.005928
  H 0.757442 -0.543514 -4.592561
  H 5.099778 0.073816 -0.314143
  H 4.941631 0.249179 -3.364376
  H 7.002015 0.144320 -1.454219
 26
 -0.838007
  H 1.494868 -0.125384 -0.029271
  C 2.572348 -0.076347 -0.051249
  C 3.227825 -0.152234 1.297465
  C 2.228575 0.102754 2.422141
  H 2.720363 0.049279 3.390290
  C 3.205053 0.067501 -1.219036
  C 2.486417 0.217835 -2.539484
  C 0.964563 0.119510 -2.491010
  C 0.362813 0.293294 -3.880934
  C 4.658400 0.089893 -1.287762
  C 5.389154 0.315386 -2.375473
  O 6.740866 0.314331 -2.410679
  H 4.031075 0.590633 1.353917
  H 3.678041 -1.140190 1.437591
  H 1.432033 -0.638022 2.401485
  H 1.783636 1.089404 2.317586
  H 2.863091 -0.548766 -3.224159
  H 2.757007 1.190917 -2.961242
  H 0.566271 0.892467 -1.830535
  H 0.672392 -0.854722 -2.093151
  H 0.626155 1.265500 -4.292976
  H -0.721839 0.221276 -3.840309
  H 0.731877 -0.475746 -4.556709
  H 5.187165 -0.115997 -0.365474
  H 4.985571 0.527733 -3.350865
  H 7.089864 0.122074 -1.527364
 26
 -0.111011
  H 1.493618 -0.407307 -0.044762
  C 2.562537 -0.264557 -0.053974
  C 3.213574 -0.276608 1.299400
  C 2.256175 0.252334 2.363999
  H 2.738621 0.264383 3.339387
  C 3.193057 -0.008679 -1.204400
  C 2.482800 0.183432 -2.523602
  C 0.961252 0.062030 -2.487009
  C 0.359020 0.326387 -3.862489
  C 4.647623 0.051553 -1.275610
  C 5.370279 0.437041 -2.327906
  O 6.725712 0.440462 -2.376801
  H 4.091905 0.370273 1.258716
  H 3.527805 -1.289278 1.571675
  H 1.369386 -0.374831 2.428064
  H 1.944246 1.265773 2.121208
  H 2.875892 -0.542297 -3.241260
  H 2.739014 1.179531 -2.895505
  H 0.553294 0.779881 -1.772857
  H 0.680351 -0.941311 -2.160703
  H 0.609522 1.328636 -4.203725
  H -0.724378 0.236993 -3.829825
  H 0.739593 -0.387351 -4.590113
  H 5.188148 -0.288529 -0.400684
  H 4.957378 0.792859 -3.258023
  H 7.082784 0.119054 -1.538444
 26
 1.843507
  H 1.517834 -0.728563 -0.077680
  C 2.561058 -0.454302 -0.062434
  C 3.194641 -0.380423 1.295792
  C 2.279110 0.385452 2.252382
  H 2.751856 0.491970 3.226480
  C 3.182340 -0.073909 -1.183534
  C 2.475604 0.159976 -2.498871
  C 0.955407 0.022717 -2.466818
  C 0.345011 0.372042 -3.819304
  C 4.636437 0.016831 -1.256230
  C 5.346198 0.538249 -2.257547
  O 6.700908 0.540788 -2.326934
  H 4.114485 0.192389 1.173597
  H 3.396896 -1.370773 1.709632
  H 1.334910 -0.138941 2.385006
  H 2.069180 1.377180 1.858675
  H 2.877898 -0.526216 -3.249801
  H 2.720241 1.175325 -2.822444
  H 0.545607 0.686758 -1.703165
  H 0.683459 -1.002223 -2.206965
  H 0.584570 1.397173 -4.094247
  H -0.737389 0.270139 -3.788931
  H 0.729522 -0.288167 -4.593989
  H 5.189245 -0.432068 -0.439617
  H 4.921996 1.013551 -3.127306
  H 7.068212 0.108670 -1.544723
 26
 7.680362
  H 1.633948 -1.123802 -0.142510
  C 2.602934 -0.654091 -0.079822
  C 3.185856 -0.443933 1.287514
  C 2.245086 0.465732 2.088026
  H 2.695690 0.720224 3.044965
  C 3.196701 -0.109850 -1.152097
  C 2.482099 0.174921 -2.454604
  C 0.963094 0.027217 -2.409190
  C 0.329695 0.444055 -3.731431
  C 4.648903 -0.019997 -1.238637
  C 5.349248 0.571889 -2.207583
  O 6.701078 0.534319 -2.317991
  H 4.075691 0.154163 1.085276
  H 3.362573 -1.362713 1.843717
  H 1.293960 -0.028306 2.278610
  H 2.050728 1.382928 1.537825
  H 2.879160 -0.466868 -3.246730
  H 2.717930 1.207647 -2.724961
  H 0.563159 0.645686 -1.602891
  H 0.698472 -1.010664 -2.199569
  H 0.559801 1.483657 -3.955654
  H -0.751572 0.334457 -3.689733
  H 0.705339 -0.172151 -4.545710
  H 5.207769 -0.531626 -0.463482
  H 4.916623 1.118929 -3.029602
  H 7.073609 0.026747 -1.585244
 26
 19.224466
  H 1.789799 -1.435029 -0.200581
  C 2.624337 -0.762277 -0.098999
  C 3.187946 -0.435465 1.258497
  C 2.197921 0.477737 2.005200
  H 2.675317 0.882179 2.894525
  C 3.200385 -0.123159 -1.133070
  C 2.492845 0.181957 -2.436167
  C 0.971051 0.068828 -2.368118
  C 0.322488 0.525974 -3.669462
  C 4.650503 -0.051547 -1.223642
  C 5.354294 0.526096 -2.192056
  O 6.702593 0.464620 -2.303355
  H 3.947639 0.283890 0.936519
  H 3.445615 -1.281616 1.885174
  H 1.309364 -0.069812 2.318188
  H 1.883832 1.298564 1.366432
  H 2.863471 -0.468979 -3.234126
  H 2.753289 1.208436 -2.704687
  H 0.599429 0.674774 -1.538866
  H 0.688635 -0.967317 -2.174597
  H 0.568698 1.565673 -3.876203
  H -0.759896 0.435479 -3.611129
  H 0.672568 -0.079558 -4.502976
  H 5.201460 -0.556498 -0.438931
  H 4.928452 1.067900 -3.019728
  H 7.066670 -0.036447 -1.562286
 26
 40.433897
  H 1.961338 -1.716871 -0.287618
  C 2.678442 -0.929444 -0.126849
  C 3.118737 -0.450861 1.227442
  C 2.144075 0.573189 1.855301
  H 2.638322 1.070800 2.685640
  C 3.225050 -0.150809 -1.094134
  C 2.507246 0.236008 -2.370893
  C 0.992612 0.049785 -2.304575
  C 0.311448 0.578882 -3.560475
  C 4.675153 -0.129099 -1.214351
  C 5.389814 0.496148 -2.169303
  O 6.741416 0.400693 -2.307695
  H 3.767550 0.326981 0.749313
  H 3.381218 -1.209032 1.955502
  H 1.247040 0.086518 2.244395
  H 1.831189 1.314534 1.125314
  H 2.898698 -0.334186 -3.219159
  H 2.726160 1.290159 -2.556965
  H 0.602439 0.570816 -1.427601
  H 0.759792 -1.009593 -2.189569
  H 0.511277 1.640988 -3.686625
  H -0.765168 0.437545 -3.501616
  H 0.677915 0.055926 -4.441474
  H 5.216037 -0.723277 -0.485209
  H 4.970132 1.122411 -2.940447
  H 7.097390 -0.175447 -1.617962
 26
 68.258515
  H 2.076264 -1.897886 -0.348564
  C 2.694724 -1.038700 -0.145051
  C 3.034283 -0.486678 1.177266
  C 2.135117 0.609514 1.788745
  H 2.688242 1.158358 2.545973
  C 3.236064 -0.163624 -1.064154
  C 2.516648 0.254569 -2.336169
  C 1.002006 0.066703 -2.266073
  C 0.315351 0.612910 -3.511677
  C 4.694214 -0.152580 -1.194746
  C 5.397729 0.457711 -2.151801
  O 6.750855 0.379630 -2.281568
  H 3.600451 0.393170 0.494150
  H 3.325758 -1.193878 1.951644
  H 1.265429 0.157784 2.275122
  H 1.771236 1.306925 1.038397
  H 2.908657 -0.305793 -3.190856
  H 2.733884 1.311119 -2.512269
  H 0.614767 0.576331 -1.380990
  H 0.769368 -0.993853 -2.164254
  H 0.513496 1.676980 -3.623387
  H -0.760925 0.469131 -3.450802
  H 0.679214 0.102989 -4.401468
  H 5.233194 -0.727982 -0.449918
  H 4.972762 1.061473 -2.936289
  H 7.110165 -0.174179 -1.576972
 26
 83.362007
  H 2.162621 -1.989366 -0.362232
  C 2.716425 -1.094787 -0.125863
  C 2.932561 -0.528901 1.149102
  C 2.093745 0.622208 1.694836
  H 2.649219 1.189853 2.439839
  C 3.270749 -0.145665 -1.042024
  C 2.527329 0.274611 -2.300541
  C 1.015056 0.081817 -2.201083
  C 0.303650 0.620727 -3.436017
  C 4.747667 -0.153106 -1.192278
  C 5.439518 0.433360 -2.164954
  O 6.796284 0.368126 -2.297717
  H 3.544435 0.465706 0.231939
  H 3.178509 -1.210218 1.974577
  H 1.209832 0.205873 2.184809
  H 1.759231 1.305465 0.916314
  H 2.909380 -0.289412 -3.156505
  H 2.734455 1.331572 -2.488043
  H 0.641584 0.595276 -1.312104
  H 0.786510 -0.978762 -2.090060
  H 0.496654 1.684963 -3.555711
  H -0.770903 0.474079 -3.354243
  H 0.651814 0.108076 -4.330290
  H 5.287952 -0.717604 -0.439384
  H 5.006572 1.020933 -2.957073
  H 7.163011 -0.167182 -1.583451
 26
 67.410706
  H 2.296066 -2.039926 -0.377573
  C 2.775013 -1.120115 -0.093889
  C 2.836042 -0.582479 1.154296
  C 2.005803 0.586713 1.621152
  H 2.511384 1.166976 2.395202
  C 3.326014 -0.081594 -1.018477
  C 2.546773 0.325763 -2.256567
  C 1.038306 0.130417 -2.112955
  C 0.295058 0.615339 -3.351443
  C 4.820970 -0.134645 -1.206324
  C 5.491019 0.386701 -2.210455
  O 6.845016 0.321867 -2.357794
  H 3.525285 0.556653 -0.023235
  H 2.993932 -1.244734 2.018027
  H 1.095491 0.174466 2.055314
  H 1.731008 1.261841 0.813299
  H 2.908570 -0.252222 -3.110216
  H 2.743161 1.380911 -2.467496
  H 0.681582 0.676264 -1.237193
  H 0.818923 -0.926439 -1.954911
  H 0.478923 1.674755 -3.518249
  H -0.776446 0.466592 -3.238733
  H 0.625750 0.068913 -4.232250
  H 5.364989 -0.659832 -0.429006
  H 5.043736 0.922381 -3.030427
  H 7.223910 -0.167004 -1.618867
 26
 41.911459
  H 2.516615 -2.043211 -0.411893
  C 2.815595 -1.062721 -0.082455
  C 2.747323 -0.624751 1.175122
  C 1.998118 0.577854 1.671317
  H 2.529475 1.103432 2.466831
  C 3.328161 0.010983 -1.015447
  C 2.548932 0.343789 -2.275429
  C 1.043939 0.129191 -2.119759
  C 0.283148 0.606090 -3.350867
  C 4.826530 -0.092590 -1.206617
  C 5.506137 0.367062 -2.233343
  O 6.853989 0.250702 -2.392182
  H 3.416736 0.751741 -0.173657
  H 2.866494 -1.325013 2.007519
  H 1.064700 0.201142 2.087203
  H 1.766445 1.293920 0.885511
  H 2.921482 -0.275831 -3.094767
  H 2.728364 1.387649 -2.544329
  H 0.687964 0.670132 -1.240339
  H 0.839261 -0.930778 -1.960048
  H 0.450549 1.668356 -3.516246
  H -0.785172 0.442307 -3.229063
  H 0.613808 0.066685 -4.235892
  H 5.352575 -0.617998 -0.417479
  H 5.072422 0.917784 -3.051313
  H 7.223068 -0.237234 -1.647141
 26
 23.755418
  H 2.707120 -1.971036 -0.512468
  C 2.891737 -0.992961 -0.098625
  C 2.641153 -0.682776 1.166568
  C 1.953975 0.544599 1.689268
  H 2.440808 0.948012 2.578743
  C 3.368133 0.130885 -0.992733
  C 2.563619 0.407309 -2.256644
  C 1.063940 0.186261 -2.063752
  C 0.280987 0.546946 -3.320304
  C 4.851229 -0.047038 -1.224696
  C 5.515235 0.310598 -2.302455
  O 6.857445 0.169948 -2.477646
  H 3.382476 0.945692 -0.244519
  H 2.617146 -1.452932 1.937217
  H 0.951778 0.228751 1.976377
  H 1.867330 1.340610 0.954526
  H 2.926299 -0.236797 -3.060355
  H 2.726096 1.443076 -2.563704
  H 0.712447 0.797543 -1.229906
  H 0.875998 -0.857884 -1.808281
  H 0.433750 1.592604 -3.579530
  H -0.783593 0.383356 -3.169153
  H 0.606024 -0.063655 -4.160096
  H 5.386448 -0.505225 -0.400954
  H 5.064758 0.771741 -3.166036
  H 7.241696 -0.244105 -1.695070
 26
 12.330086
  H 2.792040 -1.893624 -0.580868
  C 2.865883 -0.919236 -0.120185
  C 2.539598 -0.730627 1.150004
  C 2.033065 0.523456 1.795384
  H 2.584003 0.760825 2.706158
  C 3.332941 0.217820 -0.993957
  C 2.547276 0.409395 -2.290100
  C 1.044465 0.207558 -2.098210
  C 0.273233 0.506867 -3.377978
  C 4.817079 0.026252 -1.203414
  C 5.498126 0.305161 -2.303678
  O 6.841451 0.147562 -2.455243
  H 3.276752 1.100692 -0.338680
  H 2.456650 -1.565919 1.839706
  H 0.996369 0.339307 2.076719
  H 2.059148 1.388737 1.139816
  H 2.914732 -0.292761 -3.041134
  H 2.717857 1.420939 -2.665044
  H 0.691187 0.863146 -1.299060
  H 0.848713 -0.820950 -1.790968
  H 0.433963 1.536820 -3.689728
  H -0.793341 0.356841 -3.227043
  H 0.601131 -0.148081 -4.182488
  H 5.345497 -0.365379 -0.341016
  H 5.058620 0.706101 -3.203001
  H 7.218215 -0.205598 -1.639478
 26
 6.146488
  H 3.073665 -1.855918 -0.575542
  C 2.919082 -0.881272 -0.130988
  C 2.430867 -0.786751 1.094441
  C 1.953284 0.449987 1.790541
  H 2.471562 0.582267 2.740662
  C 3.370474 0.278727 -0.980046
  C 2.565292 0.404026 -2.276939
  C 1.059134 0.312029 -2.037968
  C 0.276372 0.486757 -3.333621
  C 4.850144 0.097930 -1.208760
  C 5.501442 0.260687 -2.349615
  O 6.842263 0.101949 -2.515762
  H 3.264915 1.193953 -0.381790
  H 2.277394 -1.666940 1.708469
  H 0.891994 0.332776 2.009851
  H 2.081262 1.349273 1.196575
  H 2.870544 -0.384922 -2.967202
  H 2.788313 1.366207 -2.743214
  H 0.758505 1.083703 -1.325577
  H 0.819392 -0.656359 -1.595084
  H 0.484436 1.457680 -3.778600
  H -0.792977 0.416786 -3.147942
  H 0.550820 -0.283235 -4.051541
  H 5.407510 -0.180527 -0.320466
  H 5.034935 0.546322 -3.278729
  H 7.244026 -0.149833 -1.674640
 26
 4.332498
  H 3.309334 -1.844025 -0.522055
  C 3.007855 -0.884052 -0.121378
  C 2.372811 -0.841925 1.040095
  C 1.856190 0.363544 1.758100
  H 2.330819 0.443892 2.737083
  C 3.405709 0.289372 -0.975481
  C 2.577300 0.337363 -2.263921
  C 1.079778 0.441828 -1.985630
  C 0.272669 0.514661 -3.280103
  C 4.887130 0.185449 -1.218538
  C 5.506418 0.213078 -2.388120
  O 6.852659 0.113424 -2.564656
  H 3.234007 1.209473 -0.407602
  H 2.206127 -1.760837 1.591875
  H 0.782312 0.255388 1.922001
  H 2.027424 1.285433 1.211460
  H 2.773818 -0.562992 -2.850312
  H 2.888220 1.203274 -2.854422
  H 0.884947 1.334973 -1.386417
  H 0.758188 -0.423913 -1.402581
  H 0.565401 1.385596 -3.865885
  H -0.793633 0.587824 -3.064796
  H 0.439965 -0.375054 -3.884691
  H 5.477759 0.067823 -0.314435
  H 5.006951 0.321030 -3.336401
  H 7.284491 0.014678 -1.706672
