 16
 0.000000
  H 1.442581 0.114526 0.342557
  C 2.524363 0.113129 0.335989
  C 3.205327 0.596427 1.531193
  H 2.505854 0.905771 2.300883
  C 3.143544 -0.347055 -0.807300
  C 4.537570 -0.414706 -0.977207
  C 5.178587 -0.869166 -2.111581
  C 4.571777 -1.358684 -3.339372
  H 3.488293 -1.357988 -3.343956
  H 6.261170 -0.865159 -2.097646
  H 3.866226 1.431372 1.287216
  H 3.869060 -0.172135 1.934090
  H 2.508598 -0.673804 -1.617633
  H 5.159714 -0.086426 -0.156822
  H 4.944535 -2.365112 -3.544671
  H 4.948217 -0.772640 -4.181335
 16
 9.868969
  H 1.401420 0.147279 0.424018
  C 2.479574 0.146728 0.419559
  C 3.173986 0.622121 1.595016
  H 2.485636 0.934857 2.373104
  C 3.165566 -0.367514 -0.858002
  C 4.545577 -0.430302 -1.015928
  C 5.192197 -0.883779 -2.147923
  C 4.590877 -1.374683 -3.379384
  H 3.507410 -1.375405 -3.387723
  H 6.274684 -0.877841 -2.129122
  H 3.838305 1.453513 1.341187
  H 3.841204 -0.150600 1.988328
  H 2.524684 -0.690959 -1.660037
  H 5.163045 -0.100347 -0.191507
  H 4.965440 -2.381640 -3.582791
  H 4.969215 -0.786953 -4.220248
 16
 29.935113
  H 1.344881 0.165803 0.471286
  C 2.418213 0.174258 0.488559
  C 3.186669 0.630143 1.613963
  H 2.543829 0.956015 2.424709
  C 3.156291 -0.396963 -0.929837
  C 4.520285 -0.440587 -1.040533
  C 5.187157 -0.882623 -2.144600
  C 4.615108 -1.376580 -3.384807
  H 3.531239 -1.384790 -3.412834
  H 6.268184 -0.867350 -2.102336
  H 3.856014 1.448433 1.326998
  H 3.859189 -0.155704 1.974453
  H 2.476434 -0.706788 -1.697506
  H 5.115869 -0.106226 -0.205119
  H 5.000719 -2.382114 -3.579366
  H 5.004707 -0.783281 -4.217719
 16
 52.347110
  H 1.287211 0.195440 0.545269
  C 2.360538 0.211408 0.580638
  C 3.176702 0.646590 1.655023
  H 2.575181 0.986244 2.500754
  C 3.146670 -0.416958 -0.980305
  C 4.502979 -0.448787 -1.061538
  C 5.203242 -0.892456 -2.169446
  C 4.651430 -1.391495 -3.421729
  H 3.569548 -1.404713 -3.461721
  H 6.281331 -0.869978 -2.109317
  H 3.852922 1.448972 1.333636
  H 3.856555 -0.151733 1.979010
  H 2.427303 -0.713839 -1.715963
  H 5.083064 -0.109971 -0.214996
  H 5.040347 -2.392207 -3.608463
  H 5.044189 -0.796446 -4.245996
 16
 74.559920
  H 1.241305 0.225642 0.620081
  C 2.309489 0.245409 0.664998
  C 3.156140 0.671688 1.717812
  H 2.583104 1.016084 2.575488
  C 3.150538 -0.438823 -1.035332
  C 4.503006 -0.463792 -1.099484
  C 5.217957 -0.904522 -2.199881
  C 4.678224 -1.406789 -3.459539
  H 3.594815 -1.422978 -3.506487
  H 6.298333 -0.877250 -2.128068
  H 3.834227 1.463907 1.379022
  H 3.837752 -0.131466 2.021956
  H 2.413768 -0.727301 -1.750374
  H 5.073465 -0.122630 -0.247399
  H 5.071883 -2.411874 -3.642741
  H 5.075447 -0.806362 -4.284324
 16
 94.792440
  H 1.193089 0.257602 0.698990
  C 2.263240 0.280227 0.751240
  C 3.137294 0.695062 1.776348
  H 2.590017 1.047284 2.653513
  C 3.154384 -0.460711 -1.090386
  C 4.501886 -0.479296 -1.138631
  C 5.232969 -0.917346 -2.232268
  C 4.707783 -1.420918 -3.494271
  H 3.626296 -1.440333 -3.548453
  H 6.309878 -0.885239 -2.148937
  H 3.817294 1.478603 1.417747
  H 3.820629 -0.115850 2.060000
  H 2.395358 -0.741812 -1.787428
  H 5.062864 -0.135709 -0.280835
  H 5.103606 -2.422210 -3.672559
  H 5.106768 -0.819893 -4.313206
 16
 112.252684
  H 1.149484 0.290819 0.780895
  C 2.216897 0.315337 0.838252
  C 3.116197 0.721174 1.841948
  H 2.595790 1.078915 2.732824
  C 3.157827 -0.482157 -1.144724
  C 4.500282 -0.494892 -1.178343
  C 5.248479 -0.929907 -2.264173
  C 4.736835 -1.437499 -3.534964
  H 3.654215 -1.460758 -3.597842
  H 6.325526 -0.892214 -2.167494
  H 3.796563 1.496507 1.466176
  H 3.799596 -0.096050 2.107353
  H 2.382836 -0.755267 -1.822291
  H 5.051475 -0.148795 -0.314689
  H 5.137552 -2.440048 -3.709205
  H 5.140223 -0.833017 -4.352154
 16
 126.747872
  H 1.106147 0.326079 0.868033
  C 2.174773 0.350981 0.926776
  C 3.093783 0.747622 1.908357
  H 2.598635 1.111393 2.813980
  C 3.161681 -0.503612 -1.198979
  C 4.500138 -0.511795 -1.221169
  C 5.264813 -0.944203 -2.300324
  C 4.767502 -1.453179 -3.573467
  H 3.686811 -1.479695 -3.643679
  H 6.339081 -0.901598 -2.191921
  H 3.773700 1.515475 1.515845
  H 3.776404 -0.076069 2.156498
  H 2.368867 -0.769762 -1.859556
  H 5.042971 -0.163519 -0.352381
  H 5.171206 -2.453414 -3.743382
  H 5.173487 -0.847559 -4.386275
 16
 138.351526
  H 1.065117 0.362238 0.957053
  C 2.133161 0.386588 1.015034
  C 3.069445 0.777314 1.982394
  H 2.597557 1.146101 2.899737
  C 3.166868 -0.525452 -1.252823
  C 4.500198 -0.529382 -1.264555
  C 5.281861 -0.958568 -2.336292
  C 4.797866 -1.471021 -3.617905
  H 3.716544 -1.501391 -3.696864
  H 6.355225 -0.910415 -2.214788
  H 3.748854 1.538688 1.575703
  H 3.751042 -0.051849 2.216150
  H 2.360692 -0.784604 -1.896286
  H 5.034344 -0.179011 -0.390704
  H 5.206191 -2.471328 -3.784297
  H 5.207975 -0.862586 -4.428216
 16
 147.249514
  H 1.026605 0.401666 1.054669
  C 2.096973 0.422947 1.105237
  C 3.039808 0.808735 2.060485
  H 2.588681 1.181829 2.988240
  C 3.174295 -0.547011 -1.305837
  C 4.505791 -0.548815 -1.312390
  C 5.300970 -0.975468 -2.378407
  C 4.828484 -1.488205 -3.660898
  H 3.748737 -1.520996 -3.745478
  H 6.372059 -0.923331 -2.247275
  H 3.717823 1.563585 1.641377
  H 3.719817 -0.024439 2.280844
  H 2.354657 -0.800426 -1.935328
  H 5.034375 -0.196995 -0.434757
  H 5.239267 -2.486869 -3.824419
  H 5.240800 -0.878680 -4.467877
 16
 152.937124
  H 0.989773 0.446855 1.167186
  C 2.065540 0.459663 1.196627
  C 2.991577 0.850845 2.164766
  H 2.548373 1.226886 3.099549
  C 3.195728 -0.566835 -1.353989
  C 4.528492 -0.571868 -1.368628
  C 5.327449 -0.998641 -2.435687
  C 4.855123 -1.510578 -3.717298
  H 3.773843 -1.542971 -3.801185
  H 6.399985 -0.946058 -2.303195
  H 3.669812 1.600522 1.740699
  H 3.671917 0.018193 2.378114
  H 2.375569 -0.819806 -1.982696
  H 5.058373 -0.220173 -0.490729
  H 5.266346 -2.509804 -3.881831
  H 5.268036 -0.900919 -4.525016
 16
 155.677366
  H 0.956678 0.493193 1.282533
  C 2.034481 0.496423 1.288120
  C 2.937664 0.896476 2.278034
  H 2.494229 1.272004 3.211626
  C 3.222714 -0.585522 -1.400167
  C 4.556491 -0.595279 -1.426568
  C 5.354390 -1.023883 -2.498329
  C 4.878621 -1.533217 -3.774013
  H 3.797731 -1.564038 -3.854486
  H 6.427496 -0.972641 -2.368797
  H 3.617881 1.644855 1.854220
  H 3.620252 0.065099 2.490607
  H 2.405158 -0.840595 -2.034245
  H 5.090518 -0.244040 -0.549625
  H 5.289189 -2.532024 -3.940469
  H 5.291179 -0.925138 -4.582643
 16
 157.237268
  H 0.922354 0.539373 1.396636
  C 2.003110 0.533908 1.381147
  C 2.883407 0.942305 2.392669
  H 2.433097 1.316417 3.322774
  C 3.251991 -0.602625 -1.444005
  C 4.587221 -0.616925 -1.481842
  C 5.380404 -1.047535 -2.557812
  C 4.898488 -1.555761 -3.829528
  H 3.816400 -1.585158 -3.906385
  H 6.455130 -0.997875 -2.432312
  H 3.565716 1.690927 1.972835
  H 3.567813 0.113198 2.608271
  H 2.438869 -0.860000 -2.083731
  H 5.125927 -0.266287 -0.607077
  H 5.309126 -2.555096 -3.998259
  H 5.311136 -0.949459 -4.640541
 16
 158.199132
  H 0.887998 0.584842 1.509506
  C 1.970189 0.572086 1.476110
  C 2.829349 0.987936 2.506271
  H 2.369734 1.360141 3.431545
  C 3.280557 -0.619385 -1.485395
  C 4.617108 -0.637790 -1.533563
  C 5.404116 -1.070140 -2.614027
  C 4.916038 -1.575983 -3.880102
  H 3.834209 -1.603750 -3.953047
  H 6.479617 -1.022459 -2.493396
  H 3.513592 1.737828 2.091499
  H 3.515613 0.161448 2.726457
  H 2.470982 -0.879069 -2.130977
  H 5.160733 -0.288007 -0.660931
  H 5.326357 -2.574858 -4.051477
  H 5.328481 -0.971747 -4.692628
