 20
 0.000000
  C 1.007579 -0.070550 0.049559
  C 2.503816 -0.082481 0.026139
  C 3.218480 -0.595643 -0.981287
  C 4.655663 -0.607240 -1.004050
  C 5.377011 -1.122205 -2.015011
  C 6.815050 -1.131421 -2.033101
  C 7.535482 -1.642525 -3.036491
  C 9.025451 -1.661113 -3.072974
  H 0.646068 0.395689 0.964858
  H 0.611604 -1.085088 0.010491
  H 0.611605 0.494358 -0.794063
  H 3.005635 0.352555 0.880190
  H 2.705275 -1.028624 -1.831290
  H 5.160347 -0.172398 -0.150388
  H 4.873784 -1.557330 -2.869235
  H 7.320160 -0.696568 -1.179413
  H 7.037977 -2.079004 -3.893358
  H 9.457319 -1.207622 -2.182704
  H 9.385548 -1.115255 -3.946357
  H 9.385546 -2.688515 -3.144965
 20
 1.454194
  C 0.970796 -0.176480 -0.060936
  C 2.463209 -0.080795 0.034376
  C 3.303011 -0.530427 -0.911162
  C 4.738107 -0.478245 -0.851591
  C 5.475832 -0.943257 -1.870443
  C 6.904157 -1.029677 -1.937335
  C 7.494663 -1.615681 -2.974301
  C 8.960718 -1.772436 -3.180273
  H 0.498950 0.243427 0.822607
  H 0.661647 -1.215140 -0.163385
  H 0.609541 0.366685 -0.934480
  H 2.867762 0.371469 0.930495
  H 2.918351 -0.994271 -1.818622
  H 5.198809 -0.079596 0.042372
  H 4.951515 -1.279285 -2.756503
  H 7.482419 -0.630751 -1.114394
  H 6.847436 -2.023042 -3.749353
  H 9.512282 -1.351794 -2.341348
  H 9.267901 -1.264915 -4.087117
  H 9.215159 -2.824905 -3.283423
 20
 4.103963
  C 0.979229 -0.249974 -0.180070
  C 2.451936 -0.096358 0.023483
  C 3.370451 -0.497420 -0.857541
  C 4.795992 -0.392512 -0.708842
  C 5.557200 -0.830810 -1.723079
  C 6.973618 -0.948040 -1.855354
  C 7.439719 -1.586435 -2.931483
  C 8.864136 -1.839431 -3.268286
  H 0.423110 0.140254 0.667823
  H 0.717317 -1.300079 -0.311751
  H 0.658048 0.280414 -1.077437
  H 2.772693 0.370003 0.945722
  H 3.092493 -0.977689 -1.791476
  H 5.214116 0.003120 0.207550
  H 5.022222 -1.184381 -2.598294
  H 7.622624 -0.554432 -1.086973
  H 6.676043 -1.962250 -3.614438
  H 9.523523 -1.440368 -2.498686
  H 9.114787 -1.374620 -4.222212
  H 9.047311 -2.909952 -3.370035
 20
 8.530430
  C 0.994386 -0.335344 -0.296122
  C 2.449462 -0.110130 0.006530
  C 3.439750 -0.460808 -0.809906
  C 4.852577 -0.301132 -0.583832
  C 5.634257 -0.712652 -1.593448
  C 7.042783 -0.878698 -1.784799
  C 7.384925 -1.558692 -2.885371
  C 8.755217 -1.910132 -3.344985
  H 0.364847 0.023446 0.513434
  H 0.793519 -1.394422 -0.446235
  H 0.708725 0.181609 -1.209634
  H 2.685016 0.367414 0.946168
  H 3.264046 -0.961171 -1.773656
  H 5.218872 0.080268 0.343681
  H 5.089346 -1.038781 -2.462499
  H 7.756255 -0.512493 -1.065085
  H 6.528869 -1.890751 -3.474932
  H 9.501265 -1.544026 -2.651911
  H 8.946723 -1.478712 -4.329967
  H 8.859368 -2.989322 -3.437477
 20
 14.801853
  C 1.038706 -0.430187 -0.409345
  C 2.455514 -0.133779 -0.022699
  C 3.507312 -0.426404 -0.782723
  C 4.903804 -0.214835 -0.482312
  C 5.710530 -0.582211 -1.489019
  C 7.101097 -0.806626 -1.734687
  C 7.319031 -1.528243 -2.840389
  C 8.618545 -1.981793 -3.396630
  H 0.346251 -0.111557 0.365707
  H 0.902358 -1.499679 -0.577411
  H 0.778391 0.082907 -1.339493
  H 2.611568 0.348623 0.934902
  H 3.426779 -0.934357 -1.756282
  H 5.224755 0.137384 0.481803
  H 5.152416 -0.850394 -2.377627
  H 7.875975 -0.479626 -1.060448
  H 6.380052 -1.816836 -3.340722
  H 9.448445 -1.646160 -2.772131
  H 8.754815 -1.589449 -4.406835
  H 8.643833 -3.069255 -3.463855
 20
 23.357658
  C 1.104154 -0.520058 -0.531925
  C 2.470055 -0.158188 -0.066643
  C 3.578415 -0.402677 -0.760648
  C 4.950279 -0.136641 -0.380030
  C 5.788208 -0.479323 -1.368596
  C 7.152066 -0.748030 -1.688095
  C 7.241315 -1.502113 -2.792234
  C 8.460337 -2.036105 -3.442356
  H 0.352551 -0.233979 0.197439
  H 1.027551 -1.594075 -0.702907
  H 0.876524 -0.025593 -1.472131
  H 2.544772 0.331701 0.893668
  H 3.589303 -0.924831 -1.738486
  H 5.215600 0.200900 0.604796
  H 5.223288 -0.705483 -2.257135
  H 7.984708 -0.456482 -1.080319
  H 6.241691 -1.748405 -3.194421
  H 9.350143 -1.734478 -2.905585
  H 8.528901 -1.676763 -4.465856
  H 8.426399 -3.128025 -3.483313
 20
 32.100371
  C 1.172405 -0.629162 -0.641633
  C 2.505134 -0.203432 -0.106712
  C 3.653395 -0.367713 -0.760751
  C 4.996248 -0.059782 -0.317871
  C 5.852527 -0.322217 -1.308570
  C 7.194110 -0.666055 -1.669746
  C 7.159464 -1.461296 -2.747633
  C 8.288953 -2.117645 -3.450022
  H 0.376644 -0.405764 0.065409
  H 1.164173 -1.700150 -0.844360
  H 0.954725 -0.118237 -1.579355
  H 2.513357 0.262194 0.869787
  H 3.741046 -0.870659 -1.745888
  H 5.218066 0.193819 0.708100
  H 5.282511 -0.453068 -2.221298
  H 8.081283 -0.428141 -1.104182
  H 6.112492 -1.643118 -3.071908
  H 9.237019 -1.865789 -2.982138
  H 8.316317 -1.805322 -4.490987
  H 8.166464 -3.199775 -3.438878
 20
 42.398933
  C 1.257667 -0.737837 -0.750253
  C 2.545427 -0.250666 -0.156719
  C 3.723275 -0.340638 -0.768036
  C 5.043918 0.012769 -0.261061
  C 5.917414 -0.186550 -1.253164
  C 7.231302 -0.593513 -1.657261
  C 7.070484 -1.423572 -2.701680
  C 8.101027 -2.186083 -3.441804
  H 0.427107 -0.573470 -0.071403
  H 1.315812 -1.800264 -0.972679
  H 1.046591 -0.219868 -1.686232
  H 2.491626 0.193128 0.827664
  H 3.881097 -0.831005 -1.765576
  H 5.220329 0.205948 0.783609
  H 5.344325 -0.261085 -2.171026
  H 8.165536 -0.405588 -1.147605
  H 5.976030 -1.544044 -2.954620
  H 9.092814 -1.985747 -3.045597
  H 8.081494 -1.917003 -4.499121
  H 7.904794 -3.250623 -3.374599
 20
 52.255565
  C 1.361649 -0.856081 -0.855133
  C 2.599553 -0.311026 -0.210888
  C 3.798038 -0.314748 -0.788948
  C 5.094762 0.081439 -0.231101
  C 5.965679 -0.026522 -1.237139
  C 7.250925 -0.517316 -1.654917
  C 6.968261 -1.378992 -2.654898
  C 7.892862 -2.257657 -3.407982
  H 0.504506 -0.759831 -0.197399
  H 1.489671 -1.910018 -1.104322
  H 1.146899 -0.324804 -1.782497
  H 2.490348 0.102548 0.785357
  H 4.016734 -0.781086 -1.796137
  H 5.241698 0.188189 0.827271
  H 5.399687 -0.034745 -2.150583
  H 8.214097 -0.392729 -1.195696
  H 5.848643 -1.429852 -2.846021
  H 8.922894 -2.118108 -3.075496
  H 7.832916 -2.039792 -4.472084
  H 7.617545 -3.303640 -3.273617
 20
 51.020820
  C 1.470556 -0.992848 -0.929063
  C 2.689686 -0.429938 -0.267622
  C 3.865110 -0.291554 -0.874747
  C 5.163882 0.077022 -0.309896
  C 6.017174 0.300740 -1.324104
  C 7.248155 -0.390189 -1.699958
  C 6.840682 -1.300874 -2.599295
  C 7.647996 -2.360553 -3.258173
  H 0.630285 -1.026824 -0.245157
  H 1.667009 -2.006019 -1.294521
  H 1.194856 -0.389586 -1.797352
  H 2.588177 -0.124074 0.768235
  H 4.082122 -0.663808 -1.908151
  H 5.364115 -0.077368 0.733536
  H 5.480021 0.474185 -2.251891
  H 8.225334 -0.363149 -1.251549
  H 5.728833 -1.270659 -2.792837
  H 8.688657 -2.303865 -2.948515
  H 7.594328 -2.258974 -4.338750
  H 7.256703 -3.345471 -3.002302
 20
 52.285295
  C 1.540714 -1.114628 -0.957159
  C 2.728315 -0.461897 -0.330993
  C 3.897597 -0.301512 -0.945567
  C 5.197422 0.058304 -0.401920
  C 6.047761 0.455835 -1.365982
  C 7.223197 -0.328791 -1.764500
  C 6.735298 -1.307986 -2.530932
  C 7.485457 -2.430899 -3.153174
  H 0.699161 -1.146077 -0.267323
  H 1.780796 -2.136489 -1.262386
  H 1.235826 -0.572689 -1.857578
  H 2.611881 -0.105004 0.678825
  H 4.127351 -0.708534 -1.959944
  H 5.462130 -0.254747 0.594094
  H 5.551782 0.832784 -2.256408
  H 8.242192 -0.250496 -1.422924
  H 5.614031 -1.277744 -2.678783
  H 8.546419 -2.366642 -2.912924
  H 7.368952 -2.415623 -4.234878
  H 7.100835 -3.384029 -2.792927
 20
 58.584536
  C 1.594393 -1.205955 -0.973893
  C 2.749923 -0.480286 -0.369090
  C 3.932178 -0.349657 -0.958865
  C 5.213101 0.094174 -0.443032
  C 6.041262 0.521276 -1.423118
  C 7.194482 -0.308643 -1.823959
  C 6.660896 -1.342966 -2.460717
  C 7.377704 -2.483955 -3.098378
  H 0.729147 -1.179418 -0.316949
  H 1.854060 -2.257356 -1.175251
  H 1.314712 -0.751484 -1.924115
  H 2.587320 -0.023743 0.587676
  H 4.202686 -0.842502 -1.935194
  H 5.531814 -0.253140 0.530426
  H 5.531957 0.930154 -2.298838
  H 8.235319 -0.148915 -1.622576
  H 5.525173 -1.338746 -2.516700
  H 8.449189 -2.383598 -2.966783
  H 7.160126 -2.525325 -4.166067
  H 7.060574 -3.419168 -2.660637
 20
 62.551465
  C 1.582043 -1.247319 -0.967730
  C 2.733800 -0.481381 -0.404217
  C 3.937383 -0.444925 -0.955513
  C 5.225728 0.048324 -0.497761
  C 6.015971 0.547220 -1.469898
  C 7.159445 -0.278334 -1.900952
  C 6.626272 -1.383496 -2.412574
  C 7.342417 -2.517057 -3.059547
  H 0.697056 -1.130322 -0.350746
  H 1.822890 -2.313892 -1.035539
  H 1.347508 -0.898977 -1.976261
  H 2.543797 0.095924 0.484165
  H 4.253493 -1.055193 -1.864492
  H 5.640067 -0.412859 0.389808
  H 5.513750 1.056137 -2.294956
  H 8.205078 -0.030257 -1.849113
  H 5.485451 -1.449864 -2.350755
  H 8.416201 -2.352216 -3.046354
  H 7.018587 -2.632676 -4.094145
  H 7.123595 -3.445495 -2.540077
 20
 65.752123
  C 1.581386 -1.279560 -0.967217
  C 2.725986 -0.486059 -0.424129
  C 3.946055 -0.511269 -0.929669
  C 5.239484 0.002671 -0.506393
  C 5.997124 0.537091 -1.484397
  C 7.125955 -0.285196 -1.951721
  C 6.596536 -1.419806 -2.395880
  C 7.308186 -2.547604 -3.058922
  H 0.680498 -1.106804 -0.390115
  H 1.810344 -2.353926 -0.947446
  H 1.382975 -1.005167 -2.003383
  H 2.512622 0.164961 0.405577
  H 4.292986 -1.175105 -1.803427
  H 5.700452 -0.518628 0.325903
  H 5.487276 1.102352 -2.264218
  H 8.163692 -0.002874 -1.988823
  H 5.459470 -1.519813 -2.272930
  H 8.375242 -2.353271 -3.112867
  H 6.927954 -2.697998 -4.069862
  H 7.147058 -3.468406 -2.506894
