 19
 0.000000
  C -1.348591 0.960960 2.301914
  C -1.528675 -0.310121 1.527233
  C -1.048504 -0.216568 0.098168
  C -0.845856 -1.617638 2.086233
  C 0.059571 -1.413855 3.247437
  O -1.052069 -2.660201 1.557928
  H -1.951547 1.739475 1.828726
  H -0.321698 1.320616 2.272448
  H -1.699235 0.874613 3.326943
  H -2.587751 -0.602099 1.563964
  H 0.025072 -0.019219 0.030795
  H -1.542847 0.627814 -0.385134
  H -1.256960 -1.131548 -0.452010
  H 0.082528 -0.403459 3.628597
  H 1.056510 -1.715189 2.919183
  H -0.255729 -2.113170 4.024424
  O 2.309844 -0.039164 0.033610
  H 2.754983 -0.884187 -0.052162
  H 2.999366 0.619861 0.129638
 19
 -0.394189
  C -1.334636 0.967629 2.296985
  C -1.509962 -0.303646 1.513460
  C -1.006798 -0.219687 0.095107
  C -0.833578 -1.619849 2.086639
  C 0.064669 -1.415582 3.249786
  O -1.044269 -2.659397 1.557872
  H -1.945111 1.742170 1.828785
  H -0.312132 1.335005 2.262781
  H -1.685127 0.877474 3.321248
  H -2.566976 -0.614401 1.548717
  H 0.069304 -0.030747 0.045187
  H -1.474043 0.639868 -0.394388
  H -1.218938 -1.134186 -0.462961
  H 0.091053 -0.403959 3.630140
  H 1.061662 -1.721002 2.926201
  H -0.250999 -2.114997 4.026141
  O 2.203846 -0.049072 0.071179
  H 2.658448 -0.883456 -0.072948
  H 2.881312 0.622010 0.161631
 19
 -0.614291
  C -1.322616 0.964592 2.292576
  C -1.484130 -0.302573 1.505667
  C -0.961707 -0.217997 0.095622
  C -0.816058 -1.617259 2.087851
  C 0.063989 -1.413170 3.260444
  O -1.017341 -2.658413 1.553180
  H -1.929003 1.739540 1.818865
  H -0.298049 1.332038 2.273109
  H -1.684771 0.868780 3.313794
  H -2.538977 -0.618355 1.529083
  H 0.123915 -0.051692 0.062466
  H -1.385931 0.658974 -0.394067
  H -1.181196 -1.120047 -0.468002
  H 0.084560 -0.402266 3.639713
  H 1.064243 -1.717635 2.951275
  H -0.260061 -2.111063 4.032489
  O 2.091919 -0.068540 0.098977
  H 2.555571 -0.880352 -0.124267
  H 2.750705 0.626120 0.166754
 19
 -1.010275
  C -1.346148 0.960806 2.311052
  C -1.469219 -0.302261 1.508070
  C -0.933098 -0.193880 0.108963
  C -0.793793 -1.610814 2.086176
  C 0.062950 -1.411503 3.279707
  O -0.964619 -2.648856 1.531223
  H -1.952561 1.734064 1.829655
  H -0.325880 1.340787 2.325113
  H -1.727303 0.846148 3.321779
  H -2.519761 -0.631710 1.510583
  H 0.160888 -0.053916 0.101069
  H -1.312296 0.712317 -0.363999
  H -1.157760 -1.078470 -0.476164
  H 0.068317 -0.404338 3.668009
  H 1.072665 -1.707031 2.987025
  H -0.270871 -2.117528 4.040649
  O 2.071679 -0.132188 0.111023
  H 2.506544 -0.889193 -0.290550
  H 2.700528 0.595517 0.110331
 19
 -0.138740
  C -1.369389 0.992349 2.160547
  C -1.419705 -0.320202 1.418800
  C -0.802488 -0.276959 0.057778
  C -0.821460 -1.589162 2.120929
  C -0.061779 -1.340990 3.375855
  O -0.949318 -2.659681 1.607206
  H -1.926337 1.737844 1.588399
  H -0.350011 1.367621 2.259685
  H -1.835019 0.924690 3.143926
  H -2.475187 -0.630477 1.336216
  H 0.301394 -0.119983 0.119622
  H -1.105937 0.615014 -0.487245
  H -0.958452 -1.201724 -0.493760
  H -0.076919 -0.312613 3.712008
  H 0.965694 -1.663780 3.189052
  H -0.467290 -2.000583 4.145674
  O 2.066389 -0.172754 0.272473
  H 2.533518 -0.942394 -0.062374
  H 2.644467 0.599329 0.239162
 19
 2.511864
  C -1.271336 0.964084 2.277338
  C -1.382651 -0.320501 1.485992
  C -0.870029 -0.215667 0.090254
  C -0.785068 -1.613008 2.114091
  C 0.055526 -1.446960 3.329936
  O -0.972132 -2.670565 1.579121
  H -1.834012 1.744954 1.769177
  H -0.239755 1.299862 2.354661
  H -1.686238 0.858102 3.275121
  H -2.452670 -0.593836 1.430209
  H 0.261862 -0.060299 0.097838
  H -1.153335 0.712117 -0.406665
  H -1.016182 -1.117512 -0.495471
  H 0.091852 -0.434186 3.708546
  H 1.059508 -1.790293 3.076967
  H -0.319527 -2.122628 4.097204
  O 1.829523 -0.079369 0.113965
  H 2.265896 -0.843422 -0.269810
  H 2.342211 0.733789 0.078851
 19
 4.768071
  C -1.238931 0.963668 2.256548
  C -1.362152 -0.323183 1.471543
  C -0.858007 -0.223433 0.071329
  C -0.773247 -1.612708 2.109794
  C 0.073795 -1.447767 3.318595
  O -0.983666 -2.674161 1.586779
  H -1.790573 1.747305 1.737785
  H -0.205625 1.282244 2.343903
  H -1.663050 0.870425 3.251308
  H -2.430370 -0.587208 1.421799
  H 0.284037 -0.068302 0.094015
  H -1.109916 0.702872 -0.427020
  H -0.981636 -1.127740 -0.506511
  H 0.135821 -0.424446 3.682032
  H 1.068164 -1.821634 3.068929
  H -0.315101 -2.097171 4.100495
  O 1.729503 -0.081336 0.195374
  H 2.184581 -0.830038 -0.218978
  H 2.202766 0.755622 0.149941
 19
 9.441923
  C -1.249162 0.970351 2.258703
  C -1.376859 -0.335178 1.477405
  C -0.877690 -0.238268 0.086485
  C -0.797710 -1.612232 2.131078
  C 0.064166 -1.467004 3.341591
  O -1.025545 -2.686024 1.622468
  H -1.788982 1.756120 1.734269
  H -0.213050 1.280536 2.355373
  H -1.682646 0.880855 3.251848
  H -2.450326 -0.587830 1.413649
  H 0.539276 -0.046657 0.097413
  H -1.091411 0.694665 -0.420901
  H -0.960213 -1.144499 -0.499878
  H 0.148720 -0.451588 3.700277
  H 1.049604 -1.861294 3.105102
  H -0.335490 -2.103677 4.127954
  O 1.726024 -0.050157 0.150392
  H 2.152816 -0.792547 -0.304346
  H 2.190390 0.798383 0.074546
 19
 10.472818
  C -1.250065 0.967074 2.250954
  C -1.399644 -0.343377 1.479641
  C -0.885983 -0.252597 0.090845
  C -0.829706 -1.616306 2.144519
  C 0.080617 -1.470130 3.319896
  O -1.100859 -2.698202 1.670007
  H -1.772700 1.756753 1.718909
  H -0.210040 1.258402 2.353974
  H -1.694147 0.889942 3.239018
  H -2.476221 -0.577931 1.413495
  H 0.653016 -0.043708 0.127997
  H -1.061584 0.682922 -0.421247
  H -0.941075 -1.160292 -0.487683
  H 0.208796 -0.448019 3.648243
  H 1.043645 -1.906016 3.062510
  H -0.317406 -2.072035 4.136813
  O 1.734231 -0.042662 0.204430
  H 2.150239 -0.742080 -0.334261
  H 2.161119 0.824438 0.073745
 19
 12.180371
  C -1.261645 0.963116 2.253818
  C -1.441426 -0.351304 1.496852
  C -0.955863 -0.275305 0.098110
  C -0.864797 -1.619482 2.155275
  C 0.074312 -1.476723 3.310696
  O -1.155008 -2.704899 1.695983
  H -1.786572 1.751252 1.725637
  H -0.222333 1.244343 2.334073
  H -1.687132 0.897061 3.250640
  H -2.522898 -0.571775 1.464594
  H 0.818553 0.018289 0.114946
  H -1.101992 0.655623 -0.424518
  H -0.964649 -1.193680 -0.471085
  H 0.236651 -0.453287 3.616455
  H 1.017954 -1.946034 3.046744
  H -0.325701 -2.049157 4.146028
  O 1.837982 -0.017859 0.191920
  H 2.222771 -0.711042 -0.375577
  H 2.262197 0.853984 0.040548
 19
 13.594122
  C -1.274329 0.961518 2.258479
  C -1.460418 -0.354804 1.506459
  C -0.997097 -0.277505 0.102470
  C -0.870354 -1.617367 2.155469
  C 0.075727 -1.471748 3.305520
  O -1.155114 -2.704611 1.696458
  H -1.809996 1.749273 1.734227
  H -0.229807 1.246662 2.323672
  H -1.685842 0.897089 3.262027
  H -2.542546 -0.579523 1.491499
  H 0.906539 0.058799 0.090964
  H -1.149045 0.652423 -0.419594
  H -1.002007 -1.191491 -0.467245
  H 0.225500 -0.448964 3.619040
  H 1.026292 -1.924989 3.029673
  H -0.308669 -2.058161 4.138736
  O 1.906255 -0.013379 0.164612
  H 2.266590 -0.736374 -0.383042
  H 2.369390 0.836399 0.028840
 19
 13.198496
  C -1.292642 0.964375 2.258107
  C -1.453604 -0.349467 1.496795
  C -0.971503 -0.260637 0.100548
  C -0.855105 -1.608936 2.145475
  C 0.121686 -1.452013 3.267723
  O -1.142995 -2.698079 1.694690
  H -1.844207 1.745102 1.739955
  H -0.254720 1.271543 2.323333
  H -1.701092 0.884434 3.261341
  H -2.532375 -0.587715 1.467690
  H 0.891593 0.054486 0.107593
  H -1.110331 0.676865 -0.412931
  H -0.990595 -1.167567 -0.480349
  H 0.274952 -0.426478 3.570294
  H 1.066129 -1.903416 2.970446
  H -0.238561 -2.033611 4.114869
  O 1.876030 -0.054886 0.203475
  H 2.221310 -0.779007 -0.352543
  H 2.380257 0.773467 0.094654
 19
 13.696769
  C -1.341605 0.962431 2.265991
  C -1.492115 -0.350411 1.500703
  C -0.991488 -0.258761 0.110838
  C -0.880774 -1.604114 2.149145
  C 0.154362 -1.433911 3.218246
  O -1.202614 -2.699529 1.737780
  H -1.910015 1.737178 1.756601
  H -0.305972 1.285531 2.323408
  H -1.739249 0.872190 3.272247
  H -2.567866 -0.595021 1.464525
  H 0.952194 0.069820 0.125718
  H -1.089971 0.686727 -0.390548
  H -0.999858 -1.161408 -0.476109
  H 0.332602 -0.403890 3.488733
  H 1.079671 -1.904763 2.883424
  H -0.169138 -1.991984 4.097735
  O 1.929234 -0.093069 0.259263
  H 2.233416 -0.793727 -0.352171
  H 2.453413 0.725171 0.135636
