26

C 0.97579 0.137332 0.393142
C 2.453972 0.138831 0.396445
C 3.235887 0.609601 1.567949
H 2.6883388202276386 0.9522710266730456 2.420983725933164
C 3.07476 -0.323868 -0.755623
C 4.452396 -0.411652 -0.974602
C 5.123831 -0.863395 -2.100714
C 4.62192 -1.386396 -3.404454
C 3.129954 -1.50298 -3.695876
C 2.901042 -2.064737 -5.0963
O 6.448567 -0.86179 -2.097024
H 0.53639 0.506813 1.31287
H 0.606624 -0.875729 0.225913
H 0.606339 0.752985 -0.428456
H 3.892013 1.422462 1.236076
H 3.892206 -0.206765 1.89066
H 2.419633 -0.642347 -1.548686
H 5.073532 -0.080521 -0.149771
H 5.075895 -2.376004 -3.531813
H 5.076265 -0.759449 -4.180462
H 2.655656 -0.522022 -3.64148
H 2.655252 -2.174151 -2.978669
H 3.338077 -1.417822 -5.854009
H 1.834884 -2.144599 -5.296051
H 3.337677 -3.05613 -5.196764
H 6.820588 -0.526463 -1.260938
