 28
 0.000000
  C 0.964854 0.148605 0.415880
  C 2.438162 0.138079 0.403862
  C 3.234368 0.603528 1.560643
  C 2.470745 1.097676 2.783295
  H 3.162869 1.407802 3.555902
  C 3.050197 -0.328495 -0.756498
  C 4.432151 -0.412872 -0.976032
  C 5.086875 -0.860361 -2.098018
  C 4.608729 -1.379359 -3.391516
  C 3.124950 -1.509994 -3.709470
  C 2.929790 -2.073501 -5.115498
  H 6.167799 -0.847470 -2.073144
  H 0.542508 0.529646 1.338379
  H 0.578281 -0.859152 0.254904
  H 0.593602 0.758495 -0.409227
  H 3.894930 1.408064 1.217867
  H 3.892178 -0.215708 1.872616
  H 1.836789 0.310560 3.187037
  H 1.839865 1.946866 2.527736
  H 2.387966 -0.645334 -1.545164
  H 5.063982 -0.086080 -0.160022
  H 5.078740 -2.364124 -3.515751
  H 5.075218 -0.750839 -4.161911
  H 2.640834 -0.533377 -3.663156
  H 2.644467 -2.186477 -3.001091
  H 3.375729 -1.421941 -5.863510
  H 1.869818 -2.165365 -5.339060
  H 3.379380 -3.059570 -5.207695
 28
 -0.004750
  C 0.971793 -0.106315 0.552102
  C 2.429446 0.056887 0.434508
  C 3.220141 0.763327 1.464521
  C 2.467451 1.306327 2.670035
  H 3.165988 1.810888 3.332152
  C 3.031843 -0.466776 -0.707615
  C 4.412310 -0.589627 -0.910531
  C 5.063916 -1.082520 -2.016211
  C 4.601939 -1.487813 -3.347249
  C 3.131285 -1.429600 -3.734118
  C 2.948789 -1.827613 -5.196724
  H 6.139086 -1.171203 -1.913927
  H 0.582296 0.209717 1.511299
  H 0.703226 -1.147995 0.373342
  H 0.472839 0.464645 -0.233779
  H 3.748812 1.589775 0.976652
  H 4.009491 0.089744 1.815945
  H 1.992710 0.508087 3.236170
  H 1.710533 2.029109 2.374762
  H 2.366481 -0.846901 -1.466257
  H 5.051725 -0.310759 -0.084301
  H 4.980099 -2.505299 -3.518869
  H 5.179952 -0.885492 -4.063462
  H 2.748059 -0.417380 -3.597788
  H 2.553730 -2.119812 -3.117794
  H 3.492667 -1.154171 -5.855746
  H 1.897548 -1.789597 -5.471897
  H 3.305768 -2.840037 -5.373164
 28
 1.372299
  C 1.008009 -0.287374 0.662916
  C 2.420821 0.055615 0.433257
  C 3.180027 0.918965 1.357725
  C 2.469905 1.383117 2.620118
  H 3.135190 2.022219 3.192362
  C 3.015873 -0.477593 -0.709321
  C 4.385097 -0.695224 -0.880024
  C 5.026703 -1.254739 -1.960321
  C 4.578649 -1.585703 -3.316990
  C 3.142618 -1.338926 -3.759095
  C 2.977105 -1.665759 -5.241453
  H 6.078459 -1.471791 -1.811035
  H 0.647265 0.026416 1.633918
  H 0.891940 -1.366373 0.555679
  H 0.378675 0.159956 -0.109352
  H 3.509183 1.798574 0.791452
  H 4.108698 0.407741 1.634844
  H 2.193431 0.542674 3.249729
  H 1.579297 1.959144 2.388462
  H 2.342166 -0.842781 -1.472407
  H 5.018714 -0.481592 -0.028161
  H 4.837480 -2.639650 -3.496558
  H 5.254891 -1.043000 -3.994769
  H 2.876192 -0.293360 -3.598650
  H 2.460728 -1.975495 -3.192847
  H 3.624034 -1.040910 -5.853883
  H 1.950056 -1.494431 -5.555709
  H 3.220537 -2.707520 -5.440758
 28
 3.766851
  C 1.059255 -0.435671 0.780915
  C 2.404094 0.059216 0.432467
  C 3.133312 1.040091 1.257524
  C 2.497322 1.452164 2.578465
  H 3.128612 2.189401 3.067911
  C 2.984607 -0.475859 -0.717665
  C 4.336768 -0.796789 -0.848309
  C 4.972901 -1.395429 -1.906425
  C 4.553675 -1.658901 -3.293656
  C 3.166729 -1.257794 -3.784887
  C 3.029556 -1.533098 -5.281151
  H 5.990413 -1.716637 -1.713097
  H 0.729758 -0.112277 1.759690
  H 1.097102 -1.525870 0.737879
  H 0.322689 -0.126123 0.037278
  H 3.279129 1.933913 0.637295
  H 4.149948 0.670051 1.435194
  H 2.395233 0.601774 3.248695
  H 1.519767 1.904285 2.428509
  H 2.304019 -0.792524 -1.495531
  H 4.949837 -0.651584 0.032730
  H 4.711028 -2.730175 -3.486805
  H 5.308367 -1.171968 -3.930661
  H 3.000219 -0.194161 -3.606318
  H 2.401674 -1.835089 -3.263159
  H 3.760010 -0.963303 -5.851388
  H 2.038484 -1.252298 -5.630180
  H 3.176222 -2.589323 -5.498116
 28
 7.438360
  C 1.134161 -0.566370 0.897325
  C 2.386532 0.054066 0.438238
  C 3.085828 1.112165 1.184164
  C 2.524575 1.495932 2.545319
  H 3.116457 2.305497 2.963848
  C 2.945001 -0.460042 -0.740371
  C 4.265497 -0.885647 -0.834499
  C 4.907107 -1.495345 -1.883999
  C 4.524723 -1.698271 -3.289155
  C 3.187394 -1.187141 -3.810781
  C 3.070688 -1.434653 -5.312590
  H 5.888146 -1.895150 -1.657960
  H 0.851169 -0.256012 1.895568
  H 1.299093 -1.644917 0.864097
  H 0.309389 -0.360419 0.213570
  H 3.095670 1.998096 0.536296
  H 4.144795 0.841137 1.274136
  H 2.565706 0.659072 3.238020
  H 1.497714 1.843823 2.470597
  H 2.261087 -0.677367 -1.547520
  H 4.846322 -0.807343 0.076698
  H 4.607338 -2.772689 -3.500481
  H 5.331821 -1.253132 -3.888104
  H 3.099030 -0.115956 -3.623441
  H 2.367441 -1.709983 -3.316731
  H 3.856668 -0.914280 -5.855664
  H 2.113111 -1.077839 -5.683730
  H 3.145504 -2.496105 -5.538944
 28
 11.904635
  C 1.228025 -0.673852 1.013748
  C 2.405336 0.009404 0.472491
  C 3.060496 1.147713 1.138486
  C 2.522981 1.567820 2.496649
  H 3.100691 2.412888 2.867789
  C 2.942312 -0.478162 -0.741309
  C 4.216860 -1.023072 -0.822648
  C 4.868793 -1.589817 -1.889982
  C 4.511368 -1.706290 -3.312585
  C 3.181653 -1.159512 -3.818389
  C 3.070395 -1.339528 -5.331426
  H 5.840004 -2.015399 -1.666842
  H 1.043359 -0.426759 2.048249
  H 1.395400 -1.745276 0.895068
  H 0.332370 -0.439029 0.435655
  H 3.005605 1.993968 0.445515
  H 4.135315 0.937567 1.204590
  H 2.607994 0.760594 3.222177
  H 1.482298 1.879895 2.433913
  H 2.262131 -0.559004 -1.577957
  H 4.747638 -1.074873 0.121356
  H 4.587772 -2.767069 -3.581476
  H 5.326957 -1.232111 -3.874822
  H 3.104736 -0.095090 -3.586868
  H 2.355010 -1.695073 -3.349396
  H 3.861895 -0.798998 -5.847242
  H 2.115262 -0.963079 -5.691230
  H 3.142810 -2.391352 -5.604339
 28
 18.241193
  C 1.410856 -0.826133 1.147892
  C 2.438985 -0.015408 0.505797
  C 2.980594 1.221392 1.079311
  C 2.485184 1.635966 2.460033
  H 2.951099 2.577494 2.743216
  C 2.969264 -0.488702 -0.733549
  C 4.190044 -1.132435 -0.818261
  C 4.804597 -1.718346 -1.901250
  C 4.440078 -1.787570 -3.326028
  C 3.207454 -1.049557 -3.839786
  C 3.074226 -1.221611 -5.351092
  H 5.715746 -2.259014 -1.678421
  H 1.194616 -0.513595 2.162925
  H 1.727931 -1.871092 1.111379
  H 0.481344 -0.783769 0.570306
  H 2.774751 2.024325 0.357602
  H 4.078894 1.151333 1.068772
  H 2.747132 0.895811 3.212955
  H 1.407801 1.783653 2.468242
  H 2.306431 -0.445556 -1.589725
  H 4.739883 -1.208507 0.114657
  H 4.350044 -2.851262 -3.585279
  H 5.319196 -1.446863 -3.890214
  H 3.292132 0.015650 -3.617321
  H 2.308634 -1.451235 -3.369594
  H 3.946949 -0.825463 -5.865407
  H 2.198467 -0.693807 -5.719407
  H 2.971837 -2.271770 -5.615048
 28
 24.285436
  C 1.591061 -0.901654 1.229765
  C 2.511487 -0.018326 0.536120
  C 2.935310 1.277992 1.051794
  C 2.428370 1.693037 2.424614
  H 2.811147 2.680158 2.667950
  C 3.056255 -0.469821 -0.725458
  C 4.181298 -1.259717 -0.807902
  C 4.768589 -1.829106 -1.921079
  C 4.402405 -1.824086 -3.352536
  C 3.178068 -1.050880 -3.829408
  C 3.033439 -1.161868 -5.345264
  H 5.671316 -2.394039 -1.727296
  H 1.410475 -0.619079 2.260771
  H 1.912792 -1.940841 1.140794
  H 0.633904 -0.878000 0.695677
  H 2.653479 2.038445 0.309152
  H 4.033186 1.302653 1.017795
  H 2.768676 1.006317 3.194993
  H 1.343281 1.742458 2.449612
  H 2.459469 -0.264651 -1.600313
  H 4.702879 -1.436056 0.125414
  H 4.299284 -2.873298 -3.659569
  H 5.280928 -1.464910 -3.904552
  H 3.279511 0.003224 -3.569242
  H 2.277410 -1.457983 -3.367617
  H 3.903538 -0.746041 -5.849241
  H 2.155177 -0.618338 -5.686218
  H 2.928468 -2.201223 -5.650394
 28
 16.648849
  C 1.837179 -1.005981 1.319940
  C 2.615054 -0.046768 0.543640
  C 2.869786 1.329788 0.988935
  C 2.328368 1.727827 2.353900
  H 2.581758 2.765615 2.552657
  C 3.153875 -0.484659 -0.699544
  C 4.176583 -1.420448 -0.791042
  C 4.712536 -1.977213 -1.928994
  C 4.343428 -1.894659 -3.354416
  C 3.179210 -1.021973 -3.811170
  C 3.020724 -1.098496 -5.327818
  H 5.573543 -2.614175 -1.766746
  H 1.702642 -0.725764 2.358402
  H 2.217037 -2.022018 1.216169
  H 0.848885 -1.053722 0.848979
  H 2.478315 2.019904 0.228141
  H 3.952975 1.490812 0.945135
  H 2.765654 1.123428 3.144428
  H 1.246378 1.635670 2.395175
  H 2.685060 -0.109256 -1.595960
  H 4.651479 -1.693708 0.142469
  H 4.165439 -2.926071 -3.687979
  H 5.245902 -1.588578 -3.899845
  H 3.362381 0.018292 -3.539476
  H 2.251471 -1.364903 -3.349470
  H 3.917578 -0.742773 -5.830476
  H 2.185213 -0.484827 -5.655423
  H 2.834507 -2.121413 -5.648186
 28
 9.696745
  C 2.042795 -1.030867 1.367319
  C 2.682033 -0.009726 0.536229
  C 2.773790 1.408303 0.939777
  C 2.219974 1.767556 2.311417
  H 2.336810 2.835083 2.478802
  C 3.247801 -0.422785 -0.685840
  C 4.153551 -1.481637 -0.790218
  C 4.637803 -2.064466 -1.937097
  C 4.269850 -1.931505 -3.357582
  C 3.187738 -0.953717 -3.800740
  C 3.000005 -1.020087 -5.313990
  H 5.433507 -2.785609 -1.787621
  H 1.941292 -0.752914 2.409986
  H 2.517263 -2.001729 1.234454
  H 1.034262 -1.175016 0.963222
  H 2.271937 2.020318 0.178042
  H 3.826055 1.705529 0.868555
  H 2.756351 1.249642 3.103582
  H 1.162325 1.531350 2.387074
  H 2.920762 0.081566 -1.581661
  H 4.588628 -1.821628 0.140507
  H 3.998016 -2.940433 -3.698553
  H 5.194131 -1.707717 -3.906582
  H 3.472989 0.066219 -3.538732
  H 2.240287 -1.203237 -3.322403
  H 3.918579 -0.755668 -5.831662
  H 2.223277 -0.329177 -5.632071
  H 2.709248 -2.020405 -5.626341
 28
 9.324104
  C 2.165044 -1.046410 1.219495
  C 2.753753 0.068297 0.471526
  C 2.712140 1.465257 0.945808
  C 2.107819 1.691926 2.322299
  H 2.110225 2.755002 2.548593
  C 3.430060 -0.251596 -0.710102
  C 4.239491 -1.393630 -0.798655
  C 4.643465 -2.075478 -1.907873
  C 4.222448 -1.989561 -3.313630
  C 3.240091 -0.911664 -3.756197
  C 2.924073 -1.062667 -5.244761
  H 5.356299 -2.869685 -1.736180
  H 2.080256 -0.874349 2.286477
  H 2.713048 -1.961013 0.961141
  H 1.165288 -1.233735 0.823976
  H 2.134599 2.040761 0.210204
  H 3.721590 1.880911 0.896596
  H 2.685611 1.193835 3.092699
  H 1.081101 1.334346 2.367738
  H 3.265732 0.367978 -1.581172
  H 4.707396 -1.693930 0.131395
  H 3.819112 -2.972354 -3.581598
  H 5.137404 -1.905735 -3.914489
  H 3.676576 0.072034 -3.602270
  H 2.305934 -1.008818 -3.191049
  H 3.824870 -0.957649 -5.850133
  H 2.214438 -0.304992 -5.562748
  H 2.486993 -2.039031 -5.450024
