20

C 0.911634 0.048619 0.274103
C 2.403241 0.059205 0.086406
C 3.241848 -0.012388 1.355317
C 2.526737 -0.088322 2.700928
H 3.2248930498033754 -0.13399931719877312 3.510490667627695
C 2.996884 0.127487 -1.123676
H 2.544167676596036 0.18210613755031516 -2.0916453591931807
C 4.454305 0.13233 -1.209419
C 5.195353 0.194929 -2.318927
O 6.554842 0.195897 -2.33598
H 0.603824 -0.010018 1.313219
H 0.468728 -0.819717 -0.206124
H 0.468728 0.965465 -0.105392
H 3.887252 0.871678 1.38603
H 3.887254 -0.894302 1.286383
H 1.893203 -0.977392 2.741475
H 1.893197 0.79054 2.841235
H 4.998468 0.079716 -0.276963
H 4.818973 0.251812 -3.326934
H 6.883419 0.14474 -1.429341
