 19
 0.000000
  C 0.966585 0.053173 0.181551
  C 2.467238 0.058035 0.064143
  C 3.227149 -0.013124 1.362501
  H 2.541788 -0.060586 2.204490
  C 3.085736 0.126402 -1.130370
  C 2.328755 0.199991 -2.428599
  H 1.256329 0.191056 -2.274459
  C 4.537725 0.133009 -1.236053
  C 5.237412 0.197886 -2.365489
  H 6.315009 0.197773 -2.352153
  H 0.660284 -0.014733 1.222283
  H 0.534245 -0.794068 -0.350283
  H 0.540458 0.966250 -0.234124
  H 3.863199 0.861917 1.493818
  H 3.865173 -0.895910 1.396278
  H 2.594347 -0.645331 -3.062234
  H 2.593652 1.112027 -2.962000
  H 5.083122 0.080127 -0.305424
  H 4.784851 0.253292 -3.339999
 19
 6.092021
  C 0.967533 0.015519 0.191147
  C 2.430150 0.056897 0.060863
  C 3.230712 -0.019104 1.383500
  H 2.556804 -0.040711 2.232923
  C 3.059322 0.125157 -1.129532
  C 2.309017 0.186562 -2.436215
  H 1.234459 0.164735 -2.299513
  C 4.514992 0.152090 -1.229318
  C 5.221300 0.217882 -2.358101
  H 6.298303 0.225998 -2.338877
  H 0.615430 -0.010790 1.216460
  H 0.486689 -0.784535 -0.367228
  H 0.801393 0.979409 -0.268556
  H 3.884989 0.839098 1.494098
  H 3.840859 -0.915821 1.414318
  H 2.588432 -0.658483 -3.064230
  H 2.568601 1.100727 -2.969229
  H 5.057693 0.109134 -0.296627
  H 4.771598 0.262777 -3.334554
 19
 18.280449
  C 0.967924 0.003097 0.198598
  C 2.408524 0.048030 0.056223
  C 3.232241 -0.030235 1.375523
  H 2.551607 -0.024193 2.235190
  C 3.039025 0.117747 -1.127200
  C 2.296042 0.163181 -2.439467
  H 1.223119 0.124763 -2.316155
  C 4.488893 0.173504 -1.219763
  C 5.194849 0.242312 -2.334310
  H 6.271754 0.266361 -2.306706
  H 0.605407 0.021717 1.203451
  H 0.451350 -0.735651 -0.390667
  H 1.027163 0.958141 -0.255401
  H 3.915652 0.822908 1.465904
  H 3.817509 -0.958015 1.402096
  H 2.594150 -0.681042 -3.061477
  H 2.546701 1.080029 -2.975329
  H 5.028349 0.144413 -0.284450
  H 4.752130 0.272006 -3.312906
 19
 32.305570
  C 0.945807 -0.014529 0.205960
  C 2.401950 0.049448 0.061611
  C 3.216644 -0.028318 1.385917
  H 2.541493 -0.004205 2.227550
  C 3.044807 0.116050 -1.123450
  C 2.292217 0.148306 -2.431505
  H 1.215012 0.106284 -2.298555
  C 4.492571 0.185502 -1.223220
  C 5.198346 0.256558 -2.352131
  H 6.274025 0.297964 -2.329120
  H 0.567872 0.002264 1.200511
  H 0.404222 -0.695662 -0.429459
  H 1.215446 0.943324 -0.219380
  H 3.908023 0.798904 1.477450
  H 3.771622 -0.954831 1.418754
  H 2.588598 -0.698485 -3.048984
  H 2.534115 1.062577 -2.977791
  H 5.039487 0.167017 -0.291770
  H 4.750293 0.276497 -3.331247
 19
 43.742222
  C 0.934063 -0.045837 0.215370
  C 2.394507 0.049669 0.051976
  C 3.203748 -0.005729 1.389325
  H 2.521586 0.030151 2.234224
  C 3.047285 0.113578 -1.137066
  C 2.295104 0.143246 -2.441574
  H 1.220885 0.113815 -2.302152
  C 4.486408 0.184052 -1.230452
  C 5.195129 0.257863 -2.357275
  H 6.272332 0.300834 -2.332175
  H 0.561879 -0.088522 1.223104
  H 0.360493 -0.629105 -0.490156
  H 1.346036 0.928068 -0.114510
  H 3.901044 0.824146 1.472075
  H 3.758316 -0.939292 1.433141
  H 2.579872 -0.709158 -3.056752
  H 2.542488 1.050465 -2.993892
  H 5.029920 0.165417 -0.298407
  H 4.747327 0.277804 -3.337599
 19
 52.983465
  C 0.932395 -0.073257 0.228720
  C 2.388501 0.055299 0.052082
  C 3.178937 0.011173 1.372360
  H 2.513400 0.051414 2.215079
  C 3.047009 0.116775 -1.144820
  C 2.292263 0.144382 -2.447627
  H 1.209352 0.124171 -2.298455
  C 4.483570 0.184060 -1.230462
  C 5.201005 0.257026 -2.357559
  H 6.260519 0.300794 -2.326828
  H 0.570818 -0.136994 1.231547
  H 0.344672 -0.593399 -0.496339
  H 1.451015 0.901728 -0.051159
  H 3.882762 0.840332 1.463323
  H 3.738702 -0.927091 1.429362
  H 2.570299 -0.723966 -3.071139
  H 2.546080 1.057128 -3.009426
  H 5.026966 0.164244 -0.291208
  H 4.762865 0.278136 -3.327240
 19
 58.753151
  C 0.922130 -0.099541 0.235923
  C 2.381469 0.060914 0.052780
  C 3.179996 0.023956 1.376945
  H 2.505608 0.068989 2.228457
  C 3.043841 0.118323 -1.151698
  C 2.291307 0.144207 -2.452726
  H 1.225574 0.135405 -2.309300
  C 4.476962 0.180260 -1.233396
  C 5.198656 0.252253 -2.355656
  H 6.291720 0.307175 -2.318309
  H 0.557797 -0.192539 1.241194
  H 0.320324 -0.551647 -0.522121
  H 1.523457 0.890459 0.003470
  H 3.877546 0.849421 1.453536
  H 3.735942 -0.905796 1.434193
  H 2.559511 -0.721569 -3.064995
  H 2.550017 1.044003 -3.016701
  H 5.014820 0.160718 -0.298038
  H 4.754456 0.278599 -3.345479
 19
 63.632340
  C 0.918749 -0.126538 0.234873
  C 2.382036 0.069316 0.058243
  C 3.182755 0.033347 1.385566
  H 2.502362 0.078721 2.241935
  C 3.049609 0.125386 -1.152849
  C 2.289983 0.145810 -2.459011
  H 1.200370 0.139601 -2.311761
  C 4.477416 0.194076 -1.232502
  C 5.202928 0.257963 -2.356791
  H 6.268068 0.280893 -2.319761
  H 0.545505 -0.235888 1.231428
  H 0.313359 -0.521622 -0.553835
  H 1.586142 0.884206 0.038945
  H 3.879600 0.862710 1.456754
  H 3.741054 -0.896102 1.442867
  H 2.554627 -0.719000 -3.064608
  H 2.549704 1.042320 -3.030969
  H 5.015212 0.171820 -0.299148
  H 4.769627 0.272881 -3.331707
 19
 67.067702
  C 0.912574 -0.157474 0.241815
  C 2.372683 0.081406 0.059702
  C 3.181822 0.037861 1.382942
  H 2.505561 0.085278 2.233453
  C 3.045524 0.124193 -1.158746
  C 2.290640 0.140028 -2.456168
  H 1.221504 0.150600 -2.312243
  C 4.474827 0.196227 -1.234625
  C 5.203916 0.257933 -2.355065
  H 6.276261 0.287912 -2.312126
  H 0.533645 -0.274350 1.236858
  H 0.291371 -0.473911 -0.568215
  H 1.631955 0.894972 0.077720
  H 3.878404 0.865340 1.447501
  H 3.734668 -0.892216 1.435344
  H 2.544638 -0.739727 -3.053774
  H 2.559941 1.022713 -3.036162
  H 5.017144 0.185195 -0.287436
  H 4.769324 0.280705 -3.343008
 19
 69.323119
  C 0.918638 -0.214898 0.240446
  C 2.368039 0.099651 0.062379
  C 3.187450 0.049137 1.396682
  H 2.511807 0.086140 2.240437
  C 3.049125 0.133567 -1.160147
  C 2.286461 0.150567 -2.464944
  H 1.203611 0.181061 -2.315177
  C 4.474367 0.206140 -1.231092
  C 5.210046 0.254174 -2.351503
  H 6.286516 0.272859 -2.305277
  H 0.524319 -0.320841 1.227984
  H 0.281800 -0.462672 -0.584013
  H 1.665143 0.921657 0.104313
  H 3.877320 0.885981 1.462179
  H 3.747862 -0.880305 1.439731
  H 2.522802 -0.738452 -3.053972
  H 2.570431 1.025186 -3.057456
  H 5.006571 0.193634 -0.294569
  H 4.780043 0.250306 -3.336562
 19
 70.949649
  C 0.924980 -0.265558 0.238316
  C 2.363232 0.113565 0.069054
  C 3.186545 0.054623 1.396738
  H 2.512196 0.088999 2.246807
  C 3.050593 0.136187 -1.163928
  C 2.289361 0.156474 -2.460409
  H 1.215918 0.213931 -2.309241
  C 4.470065 0.209517 -1.231402
  C 5.210720 0.251643 -2.352244
  H 6.282341 0.274287 -2.302507
  H 0.510747 -0.335382 1.222757
  H 0.281657 -0.460183 -0.592991
  H 1.701460 0.945662 0.112711
  H 3.875199 0.889920 1.462890
  H 3.745313 -0.871683 1.435537
  H 2.503027 -0.748010 -3.042183
  H 2.589707 1.010433 -3.058554
  H 5.001319 0.206340 -0.292436
  H 4.782985 0.245695 -3.339248
 19
 70.846601
  C 0.941105 -0.326220 0.233142
  C 2.356352 0.131650 0.078793
  C 3.180363 0.060236 1.405110
  H 2.505998 0.096190 2.254345
  C 3.055725 0.143082 -1.162190
  C 2.289856 0.164925 -2.454663
  H 1.223103 0.254131 -2.298095
  C 4.470171 0.212260 -1.230574
  C 5.208212 0.246511 -2.355986
  H 6.279841 0.272656 -2.309925
  H 0.502352 -0.346371 1.208212
  H 0.298275 -0.485964 -0.606666
  H 1.743177 0.998228 0.110855
  H 3.873084 0.891325 1.473597
  H 3.731194 -0.866475 1.440354
  H 2.475087 -0.754433 -3.024647
  H 2.609821 0.999965 -3.067258
  H 5.006558 0.218688 -0.291093
  H 4.775517 0.242934 -3.342050
 19
 70.089874
  C 0.958656 -0.385903 0.233878
  C 2.349295 0.148751 0.089185
  C 3.176317 0.070403 1.404312
  H 2.507204 0.105992 2.253471
  C 3.057392 0.153167 -1.164575
  C 2.284821 0.176754 -2.453037
  H 1.219880 0.295019 -2.289239
  C 4.465274 0.219158 -1.227279
  C 5.211731 0.245081 -2.352642
  H 6.285499 0.259586 -2.300847
  H 0.497087 -0.356522 1.199424
  H 0.317226 -0.525334 -0.614553
  H 1.782039 1.041493 0.106461
  H 3.872936 0.901943 1.471752
  H 3.723109 -0.857068 1.434300
  H 2.439205 -0.747412 -3.004041
  H 2.624686 1.000336 -3.086502
  H 4.999863 0.227031 -0.282775
  H 4.784269 0.238125 -3.339621
 19
 69.368111
  C 0.982801 -0.438529 0.233786
  C 2.339453 0.170221 0.095864
  C 3.168870 0.091651 1.398042
  H 2.502276 0.121022 2.250885
  C 3.054642 0.176448 -1.166446
  C 2.281255 0.205424 -2.449784
  H 1.219039 0.352088 -2.282700
  C 4.461901 0.233906 -1.224551
  C 5.213251 0.243275 -2.347650
  H 6.287931 0.244685 -2.291227
  H 0.504922 -0.389650 1.194509
  H 0.349508 -0.582130 -0.616923
  H 1.811408 1.077014 0.102623
  H 3.860506 0.923222 1.467715
  H 3.723577 -0.837239 1.424315
  H 2.411591 -0.733509 -2.994226
  H 2.638661 1.012869 -3.092060
  H 4.993666 0.223914 -0.281680
  H 4.788889 0.192140 -3.333778
