 32
 0.000000
  C 0.963743 0.142425 0.405671
  C 2.441041 0.132074 0.397623
  C 3.232333 0.602983 1.563335
  C 2.461728 1.099783 2.783972
  C 3.417042 1.544374 3.886839
  C 3.054195 -0.335024 -0.757336
  C 4.433838 -0.418250 -0.974066
  C 5.116133 -0.861764 -2.096881
  C 4.626801 -1.383127 -3.404539
  C 3.136780 -1.507267 -3.701766
  C 2.915546 -2.065643 -5.104638
  O 6.442113 -0.848638 -2.080912
  H 0.534377 0.524181 1.325032
  H 0.579169 -0.866574 0.250496
  H 0.595175 0.756083 -0.417873
  H 3.890353 1.411593 1.225168
  H 3.886291 -0.215692 1.884915
  H 1.821809 0.306634 3.175925
  H 1.826136 1.944906 2.511982
  H 4.050841 0.721100 4.210456
  H 2.856024 1.895684 4.749955
  H 4.055084 2.357781 3.546991
  H 2.394750 -0.652686 -1.547395
  H 5.049574 -0.085035 -0.146203
  H 5.087519 -2.369461 -3.532896
  H 5.081021 -0.750638 -4.176068
  H 2.656838 -0.529178 -3.645492
  H 2.663458 -2.183191 -2.988117
  H 3.351407 -1.413852 -5.858774
  H 1.850540 -2.150763 -5.308069
  H 3.357977 -3.054252 -5.206939
  H 6.801081 -0.515314 -1.237275
 32
 2.085804
  C 1.037011 -0.001547 0.391006
  C 2.494678 0.166200 0.395187
  C 3.263883 0.687381 1.560220
  C 2.460429 1.101975 2.788470
  C 3.384262 1.615084 3.887402
  C 3.102250 -0.266643 -0.770947
  C 4.451588 -0.382635 -0.966498
  C 5.091409 -0.912540 -2.066296
  C 4.576547 -1.424459 -3.375777
  C 3.092616 -1.423373 -3.719255
  C 2.885914 -1.990839 -5.121091
  O 6.402749 -1.034450 -2.009019
  H 0.540109 0.262318 1.321108
  H 0.864607 -1.047156 0.151368
  H 0.588102 0.575277 -0.425402
  H 3.852386 1.548169 1.226179
  H 3.991159 -0.071646 1.865208
  H 1.896030 0.251273 3.174279
  H 1.753617 1.891336 2.526688
  H 4.088635 0.845594 4.195084
  H 2.806913 1.909170 4.760156
  H 3.947104 2.482397 3.549827
  H 2.441086 -0.599847 -1.555169
  H 5.093329 -0.077649 -0.147110
  H 4.955798 -2.447287 -3.468659
  H 5.111930 -0.857913 -4.144889
  H 2.698506 -0.407046 -3.698708
  H 2.538729 -2.045711 -3.016298
  H 3.408222 -1.393404 -5.864604
  H 1.829075 -1.994311 -5.374256
  H 3.251227 -3.013017 -5.185550
  H 6.796990 -0.717861 -1.170373
 32
 5.134638
  C 1.139343 -0.289362 0.482052
  C 2.542385 0.162705 0.411076
  C 3.263440 0.810912 1.527282
  C 2.448921 1.106992 2.785286
  C 3.312855 1.786648 3.841033
  C 3.159876 -0.214583 -0.769220
  C 4.515312 -0.359704 -0.966682
  C 5.078234 -1.044706 -2.030034
  C 4.521681 -1.510499 -3.337194
  C 3.081540 -1.259418 -3.767106
  C 2.869348 -1.791946 -5.183476
  O 6.326884 -1.415727 -1.926381
  H 0.655789 -0.153839 1.443381
  H 1.175270 -1.348554 0.199754
  H 0.545031 0.205380 -0.290211
  H 3.695462 1.748717 1.157527
  H 4.120486 0.185089 1.804232
  H 2.052684 0.182277 3.201335
  H 1.611853 1.759809 2.541758
  H 4.146625 1.153379 4.127608
  H 2.728731 1.994136 4.731275
  H 3.708032 2.728360 3.472854
  H 2.511085 -0.600385 -1.534567
  H 5.182447 -0.077172 -0.160494
  H 4.722969 -2.585532 -3.393771
  H 5.184728 -1.066486 -4.090348
  H 2.862588 -0.192798 -3.764302
  H 2.387425 -1.781038 -3.111253
  H 3.527725 -1.295032 -5.889408
  H 1.846015 -1.620444 -5.500310
  H 3.062401 -2.859208 -5.231257
  H 6.776819 -1.132207 -1.103981
 32
 8.408770
  C 1.251408 -0.585335 0.632843
  C 2.539315 0.091097 0.424086
  C 3.230322 0.889138 1.465232
  C 2.477092 1.110779 2.778912
  C 3.301699 1.973141 3.734126
  C 3.121205 -0.222633 -0.793446
  C 4.475739 -0.361387 -0.994513
  C 4.999583 -1.178360 -1.975805
  C 4.458125 -1.598329 -3.295662
  C 3.123757 -1.093274 -3.827814
  C 2.941105 -1.555130 -5.271599
  O 6.153605 -1.756564 -1.750911
  H 0.857591 -0.496415 1.636435
  H 1.407407 -1.645205 0.372354
  H 0.508158 -0.207528 -0.072101
  H 3.483424 1.865946 1.032255
  H 4.194290 0.417980 1.694064
  H 2.271152 0.152854 3.261417
  H 1.525355 1.610002 2.585092
  H 4.251238 1.494709 3.970753
  H 2.762354 2.128876 4.667198
  H 3.507760 2.949883 3.298125
  H 2.466347 -0.659737 -1.532224
  H 5.144504 -0.071159 -0.195397
  H 4.472762 -2.691842 -3.320872
  H 5.236540 -1.295957 -4.007489
  H 3.091574 -0.004190 -3.800285
  H 2.293028 -1.494257 -3.249212
  H 3.731956 -1.167571 -5.910203
  H 1.990022 -1.202335 -5.662724
  H 2.951513 -2.640903 -5.336199
  H 6.617094 -1.484817 -0.934637
 32
 12.534771
  C 1.379958 -0.834728 0.811064
  C 2.542058 -0.012487 0.464926
  C 3.199046 0.917594 1.413817
  C 2.518478 1.126050 2.764388
  C 3.288107 2.143755 3.599000
  C 3.058863 -0.292846 -0.788641
  C 4.405787 -0.372687 -1.034718
  C 4.891109 -1.303391 -1.931877
  C 4.369226 -1.693879 -3.271732
  C 3.188950 -0.947928 -3.885873
  C 3.056345 -1.314308 -5.361404
  O 5.936940 -2.003357 -1.591508
  H 1.081420 -0.744612 1.849283
  H 1.624026 -1.889001 0.578657
  H 0.526223 -0.576250 0.180371
  H 3.301023 1.888084 0.916059
  H 4.225151 0.581806 1.598188
  H 2.474507 0.185977 3.314646
  H 1.500213 1.488399 2.618831
  H 4.304233 1.805766 3.786061
  H 2.801757 2.291785 4.559328
  H 3.333717 3.105567 3.094059
  H 2.397353 -0.790988 -1.478734
  H 5.088789 -0.019797 -0.273437
  H 4.181802 -2.772262 -3.272874
  H 5.231526 -1.562076 -3.938543
  H 3.338356 0.128162 -3.797277
  H 2.253465 -1.213111 -3.395522
  H 3.951972 -1.042979 -5.915070
  H 2.215072 -0.789876 -5.806270
  H 2.891197 -2.381938 -5.481764
  H 6.401844 -1.715874 -0.781323
 32
 16.273365
  C 1.524179 -1.015604 0.893170
  C 2.579049 -0.065069 0.479929
  C 3.190173 0.949655 1.367963
  C 2.527636 1.149357 2.735390
  C 3.219824 2.271653 3.511612
  C 3.055948 -0.347427 -0.789924
  C 4.395881 -0.384225 -1.099902
  C 4.839411 -1.401627 -1.941913
  C 4.268283 -1.784929 -3.245582
  C 3.279231 -0.815001 -3.879045
  C 3.104126 -1.131380 -5.362740
  O 5.819583 -2.166742 -1.531486
  H 1.282768 -0.962138 1.945740
  H 1.917721 -2.007823 0.623665
  H 0.605907 -0.872412 0.324665
  H 3.198545 1.908333 0.831745
  H 4.248863 0.702962 1.531401
  H 2.587526 0.230731 3.323911
  H 1.473870 1.407466 2.605013
  H 4.270813 2.037964 3.682139
  H 2.744406 2.412015 4.482310
  H 3.161061 3.215351 2.968708
  H 2.393855 -0.925421 -1.429236
  H 5.099697 0.020691 -0.379544
  H 3.852156 -2.793703 -3.193135
  H 5.131024 -1.880821 -3.914243
  H 3.646746 0.204402 -3.770913
  H 2.300443 -0.876356 -3.405095
  H 4.049096 -1.040564 -5.897243
  H 2.393931 -0.442268 -5.815922
  H 2.728571 -2.144056 -5.501375
  H 6.258848 -1.864404 -0.716280
 32
 20.753433
  C 1.681480 -1.095315 0.920154
  C 2.614153 -0.042503 0.480090
  C 3.172747 1.011109 1.350311
  C 2.546286 1.151248 2.738180
  C 3.162765 2.326615 3.490074
  C 3.069110 -0.304219 -0.807770
  C 4.403423 -0.391777 -1.100799
  C 4.778991 -1.444883 -1.926224
  C 4.183730 -1.807176 -3.234290
  C 3.333067 -0.735854 -3.917896
  C 3.144359 -1.071432 -5.392189
  O 5.675274 -2.278357 -1.481022
  H 1.479223 -1.074496 1.984148
  H 2.179345 -2.047659 0.630583
  H 0.732769 -1.045246 0.385160
  H 3.085551 1.967678 0.819772
  H 4.252584 0.852170 1.470971
  H 2.707248 0.243215 3.319303
  H 1.472109 1.314319 2.646121
  H 4.232972 2.186463 3.621523
  H 2.713140 2.424804 4.474986
  H 3.002554 3.258667 2.953410
  H 2.394441 -0.851696 -1.450620
  H 5.122484 -0.009384 -0.387999
  H 3.628121 -2.744658 -3.142205
  H 5.033006 -2.049814 -3.882717
  H 3.823888 0.231931 -3.830121
  H 2.351728 -0.657430 -3.459481
  H 4.099867 -1.113635 -5.908784
  H 2.533660 -0.315379 -5.876885
  H 2.649864 -2.031801 -5.509976
  H 6.110797 -2.006254 -0.653208
 32
 25.690440
  C 1.840836 -1.161435 0.942763
  C 2.620367 -0.000064 0.478167
  C 3.141002 1.072922 1.341967
  C 2.587943 1.127457 2.764291
  C 3.131292 2.347982 3.505726
  C 3.027929 -0.215527 -0.840170
  C 4.357159 -0.346594 -1.123884
  C 4.687660 -1.437616 -1.916393
  C 4.059814 -1.818007 -3.207410
  C 3.427775 -0.670243 -3.996137
  C 3.227407 -1.073385 -5.450626
  O 5.527188 -2.304505 -1.430645
  H 1.686530 -1.167211 2.014774
  H 2.441299 -2.049284 0.629869
  H 0.871523 -1.230285 0.448141
  H 2.944676 2.027583 0.844203
  H 4.233620 1.005844 1.394877
  H 2.871639 0.229085 3.315650
  H 1.497528 1.185004 2.737521
  H 4.219227 2.312423 3.572273
  H 2.732639 2.385823 4.519296
  H 2.848168 3.270814 2.997889
  H 2.335025 -0.750011 -1.475010
  H 5.086008 0.014185 -0.410248
  H 3.330502 -2.621169 -3.045479
  H 4.855322 -2.273147 -3.808678
  H 4.075123 0.203345 -3.951637
  H 2.462638 -0.391300 -3.580311
  H 4.176834 -1.308475 -5.924393
  H 2.765076 -0.263065 -6.007626
  H 2.583507 -1.945630 -5.524810
  H 5.979926 -2.026470 -0.612390
 32
 31.317145
  C 1.966437 -1.177131 0.896283
  C 2.630512 0.064268 0.452671
  C 3.119450 1.134267 1.336833
  C 2.639014 1.091955 2.787379
  C 3.122186 2.322556 3.548231
  C 3.004473 -0.094179 -0.890427
  C 4.334206 -0.259323 -1.162790
  C 4.617790 -1.404593 -1.896852
  C 3.970876 -1.814092 -3.168191
  C 3.512247 -0.650758 -4.053113
  C 3.276970 -1.127189 -5.480760
  O 5.386710 -2.300123 -1.342928
  H 1.835149 -1.220768 1.972235
  H 2.641527 -2.005435 0.550438
  H 1.001016 -1.323317 0.419987
  H 2.828663 2.092255 0.890983
  H 4.215886 1.149062 1.330011
  H 3.021076 0.200440 3.286853
  H 1.547391 1.062849 2.817673
  H 4.208766 2.372760 3.558510
  H 2.777137 2.291522 4.578540
  H 2.741392 3.235041 3.093829
  H 2.300998 -0.611361 -1.528802
  H 5.064951 0.090045 -0.446759
  H 3.134099 -2.488893 -2.964367
  H 4.702453 -2.419072 -3.708828
  H 4.272699 0.127468 -4.054954
  H 2.590093 -0.212996 -3.676187
  H 4.192153 -1.520625 -5.915728
  H 2.935152 -0.304582 -6.103100
  H 2.522087 -1.908863 -5.508088
  H 5.856373 -2.004839 -0.541742
 32
 37.950227
  C 2.075232 -1.170912 0.823863
  C 2.643233 0.131743 0.413967
  C 3.106363 1.191317 1.324951
  C 2.700293 1.055058 2.792288
  C 3.135643 2.281616 3.585203
  C 2.994779 0.028494 -0.947242
  C 4.326364 -0.174573 -1.195421
  C 4.550912 -1.371998 -1.867553
  C 3.901732 -1.803427 -3.128161
  C 3.571880 -0.655707 -4.083344
  C 3.320007 -1.185934 -5.488479
  O 5.230435 -2.289659 -1.233754
  H 1.953452 -1.251045 1.896835
  H 2.802910 -1.949695 0.453362
  H 1.121476 -1.372797 0.348501
  H 2.732133 2.144211 0.938062
  H 4.197889 1.284297 1.266974
  H 3.164676 0.173282 3.231620
  H 1.616451 0.949611 2.871415
  H 4.216154 2.407119 3.547935
  H 2.844085 2.182460 4.628049
  H 2.671842 3.184580 3.190996
  H 2.285540 -0.465770 -1.597075
  H 5.054169 0.155896 -0.470123
  H 2.998215 -2.385537 -2.911718
  H 4.587912 -2.503771 -3.612043
  H 4.401341 0.048831 -4.108161
  H 2.685754 -0.114154 -3.748562
  H 4.202783 -1.684029 -5.880697
  H 3.066948 -0.371158 -6.160824
  H 2.497632 -1.895664 -5.491944
  H 5.719147 -1.978897 -0.448354
 32
 44.763917
  C 2.166000 -1.152069 0.745829
  C 2.654668 0.201852 0.380104
  C 3.099709 1.244570 1.317630
  C 2.769705 1.020077 2.794738
  C 3.172083 2.233632 3.627022
  C 2.989123 0.148960 -0.992509
  C 4.322538 -0.092402 -1.230285
  C 4.481898 -1.340219 -1.836554
  C 3.848630 -1.794087 -3.096893
  C 3.618953 -0.674209 -4.116460
  C 3.370334 -1.254415 -5.502987
  O 5.051748 -2.274467 -1.112280
  H 2.053571 -1.272949 1.814917
  H 2.937320 -1.871542 0.352795
  H 1.221182 -1.398296 0.265928
  H 2.654506 2.186879 0.993344
  H 4.179062 1.405306 1.213436
  H 3.303182 0.143913 3.172493
  H 1.694984 0.849329 2.914740
  H 4.239560 2.422638 3.549577
  H 2.934716 2.070888 4.674199
  H 2.641750 3.125079 3.297075
  H 2.267481 -0.312924 -1.653019
  H 5.049458 0.224964 -0.496100
  H 2.910010 -2.310549 -2.886285
  H 4.507109 -2.555234 -3.522870
  H 4.492308 -0.027027 -4.149471
  H 2.759153 -0.059424 -3.832995
  H 4.227054 -1.826319 -5.844355
  H 3.190554 -0.459644 -6.218840
  H 2.503861 -1.907811 -5.498567
  H 5.555640 -1.953961 -0.340759
 32
 53.038063
  C 2.263052 -1.133365 0.667180
  C 2.684281 0.256780 0.346761
  C 3.111486 1.282770 1.311494
  C 2.834000 0.986270 2.782492
  C 3.207179 2.182300 3.651926
  C 3.003982 0.246214 -1.033637
  C 4.333188 -0.024728 -1.261621
  C 4.421106 -1.308047 -1.810293
  C 3.797359 -1.781299 -3.065178
  C 3.666944 -0.694748 -4.138961
  C 3.409918 -1.317315 -5.506322
  O 4.869825 -2.240927 -0.997860
  H 2.160101 -1.287892 1.733796
  H 3.066520 -1.812694 0.249442
  H 1.326574 -1.406954 0.184749
  H 2.609640 2.218950 1.037376
  H 4.179791 1.500142 1.184212
  H 3.412890 0.122575 3.109572
  H 1.775634 0.764461 2.922751
  H 4.265170 2.421910 3.553191
  H 3.006862 1.967784 4.698561
  H 2.629341 3.062107 3.372527
  H 2.271187 -0.186265 -1.706203
  H 5.062385 0.277782 -0.518627
  H 2.820940 -2.228675 -2.863480
  H 4.418278 -2.601144 -3.435642
  H 4.585212 -0.106240 -4.177481
  H 2.847607 -0.015904 -3.902787
  H 4.234301 -1.959446 -5.801818
  H 3.299588 -0.543338 -6.260431
  H 2.499825 -1.912195 -5.496094
  H 5.395357 -1.916904 -0.240999
 32
 62.869539
  C 2.325517 -1.123364 0.610164
  C 2.710585 0.286790 0.316720
  C 3.135380 1.302026 1.295687
  C 2.901343 0.963716 2.765008
  C 3.269186 2.147810 3.655436
  C 3.018529 0.302853 -1.074448
  C 4.344343 0.014476 -1.286448
  C 4.365441 -1.291489 -1.787238
  C 3.767038 -1.775449 -3.047993
  C 3.710394 -0.711788 -4.147336
  C 3.459258 -1.353827 -5.505306
  O 4.684240 -2.211224 -0.890286
  H 2.223285 -1.292182 1.675824
  H 3.152028 -1.790494 0.179046
  H 1.395364 -1.408041 0.125255
  H 2.598223 2.228379 1.058187
  H 4.193973 1.554578 1.148478
  H 3.506908 0.105710 3.057045
  H 1.850825 0.714309 2.925036
  H 4.317616 2.414236 3.536802
  H 3.099903 1.903561 4.702024
  H 2.665552 3.019634 3.412203
  H 2.281702 -0.103076 -1.756329
  H 5.070339 0.307168 -0.538917
  H 2.770658 -2.186457 -2.871237
  H 4.373380 -2.628241 -3.378415
  H 4.652815 -0.165180 -4.175712
  H 2.915917 0.006789 -3.945386
  H 4.262595 -2.040383 -5.765777
  H 3.402444 -0.593777 -6.279095
  H 2.523531 -1.906649 -5.505016
  H 5.249194 -1.896605 -0.157874
 32
 74.177239
  C 2.365080 -1.105167 0.561076
  C 2.737548 0.315729 0.287213
  C 3.173557 1.317321 1.279296
  C 2.968123 0.945326 2.745889
  C 3.345130 2.111347 3.655599
  C 3.035523 0.351753 -1.110443
  C 4.360619 0.038457 -1.301156
  C 4.329256 -1.282273 -1.775132
  C 3.751707 -1.776540 -3.037509
  C 3.756313 -0.734463 -4.156827
  C 3.514750 -1.393367 -5.507865
  O 4.525897 -2.181797 -0.803179
  H 2.260684 -1.283182 1.626133
  H 3.206034 -1.769851 0.113615
  H 1.437074 -1.387095 0.071992
  H 2.622244 2.241984 1.071432
  H 4.226169 1.582658 1.120914
  H 3.583117 0.085233 3.007428
  H 1.920323 0.685783 2.919322
  H 4.389814 2.386756 3.523938
  H 3.195836 1.842876 4.700729
  H 2.731785 2.985489 3.442092
  H 2.296501 -0.019149 -1.806376
  H 5.084134 0.321552 -0.548480
  H 2.739843 -2.159665 -2.881901
  H 4.343591 -2.652156 -3.333872
  H 4.716952 -0.219932 -4.172863
  H 2.982781 0.012709 -3.986452
  H 4.299353 -2.111869 -5.736225
  H 3.502476 -0.646580 -6.297172
  H 2.560611 -1.913566 -5.519811
  H 5.143720 -1.892458 -0.101955
