 23
 0.000000
  C 1.002899 0.128296 0.369714
  C 2.475778 0.142359 0.404970
  C 3.230275 0.616385 1.584810
  C 2.429147 1.100558 2.789773
  C 3.364545 1.549602 3.908694
  C 3.126028 -0.317502 -0.739134
  C 4.508142 -0.388414 -0.916607
  C 5.130940 -0.845585 -2.054739
  H 4.613730 -1.201111 -2.938004
  O 6.421225 -0.905493 -2.207508
  H 0.544691 0.494356 1.280533
  H 0.647411 -0.886078 0.182152
  H 0.647592 0.731115 -0.467472
  H 3.891291 1.429907 1.263980
  H 3.891024 -0.193160 1.916061
  H 1.791557 0.299071 3.166817
  H 1.791996 1.940476 2.507625
  H 3.999942 0.730802 4.238759
  H 2.790151 1.893641 4.765138
  H 4.000444 2.368900 3.580946
  H 2.499625 -0.646445 -1.557404
  H 5.134571 -0.059075 -0.097351
  H 6.932947 -0.593052 -1.434035
 23
 13.730666
  C 0.979069 0.140426 0.397680
  C 2.522242 0.104192 0.310794
  C 3.276943 0.575776 1.484811
  C 2.487456 1.062583 2.694037
  C 3.447959 1.503474 3.795632
  C 2.992244 -0.365837 -0.855271
  C 4.358739 -0.347147 -0.811425
  C 5.132386 -0.777533 -1.882270
  H 4.663693 -1.145881 -2.789603
  O 6.423577 -0.794748 -1.938076
  H 0.589304 0.516956 1.332953
  H 0.598094 -0.862598 0.229149
  H 0.599539 0.748270 -0.418482
  H 3.927849 1.401498 1.183036
  H 3.926461 -0.230040 1.838869
  H 1.853700 0.265238 3.085433
  H 1.856160 1.910793 2.424486
  H 4.081925 0.679257 4.115680
  H 2.892110 1.852272 4.662029
  H 4.084634 2.318324 3.457425
  H 2.399564 -0.697850 -1.679789
  H 4.897435 -0.000696 0.047771
  H 6.876366 -0.467854 -1.139076
 23
 47.981499
  C 0.975108 0.139142 0.393162
  C 2.588564 0.071139 0.231247
  C 3.321307 0.555922 1.437903
  C 2.529212 1.047970 2.657209
  C 3.503593 1.484966 3.748702
  C 2.888943 -0.408752 -0.956175
  C 4.230930 -0.336555 -0.783643
  C 5.113619 -0.742834 -1.798981
  H 4.735675 -1.124639 -2.742026
  O 6.408601 -0.716965 -1.749939
  H 0.615426 0.519470 1.336941
  H 0.594008 -0.865771 0.237020
  H 0.596778 0.757368 -0.415585
  H 3.967613 1.398521 1.158716
  H 3.965526 -0.246671 1.820634
  H 1.899414 0.254633 3.058309
  H 1.902872 1.900481 2.396161
  H 4.136166 0.658950 4.064746
  H 2.956622 1.836537 4.619429
  H 4.139965 2.297212 3.405541
  H 2.284338 -0.736626 -1.770055
  H 4.735729 0.012990 0.088050
  H 6.788586 -0.377042 -0.915482
 23
 91.128700
  C 0.971281 0.150845 0.412150
  C 2.673271 0.045013 0.177669
  C 3.355881 0.541348 1.411134
  C 2.545874 1.036959 2.628356
  C 3.519344 1.474707 3.718933
  C 2.826306 -0.453090 -1.029397
  C 4.158509 -0.327238 -0.765094
  C 5.101152 -0.713558 -1.758237
  H 4.776119 -1.093421 -2.716838
  O 6.391381 -0.674050 -1.652444
  H 0.632324 0.534971 1.366950
  H 0.600386 -0.858179 0.261495
  H 0.601482 0.778272 -0.393056
  H 3.997267 1.395434 1.143601
  H 3.995131 -0.260481 1.813416
  H 1.918464 0.246721 3.028963
  H 1.924097 1.887295 2.365206
  H 4.149095 0.650588 4.037888
  H 2.971064 1.827913 4.586822
  H 4.155278 2.284745 3.376667
  H 2.207580 -0.778975 -1.828545
  H 4.689554 0.006253 0.098025
  H 6.739806 -0.335890 -0.795174
 23
 124.016339
  C 0.881132 0.174206 0.416607
  C 2.845288 0.008055 0.171694
  C 3.411417 0.530038 1.453107
  C 2.542333 1.037706 2.611663
  C 3.465598 1.494875 3.744084
  C 2.821758 -0.515817 -1.006828
  C 4.234413 -0.329490 -0.769943
  C 5.077171 -0.667761 -1.799687
  H 4.705692 -1.001242 -2.762428
  O 6.400207 -0.690971 -1.748566
  H 0.615686 0.541970 1.384207
  H 0.585486 -0.852312 0.270055
  H 0.551324 0.828725 -0.375621
  H 4.045638 1.378785 1.187918
  H 4.036903 -0.263030 1.879280
  H 1.899159 0.251885 3.009714
  H 1.934414 1.886361 2.294821
  H 4.077288 0.674434 4.106476
  H 2.875700 1.863522 4.578625
  H 4.121477 2.298073 3.420660
  H 2.180384 -0.825222 -1.791396
  H 4.834370 -0.088105 0.089271
  H 6.785227 -0.383080 -0.910713
 23
 131.787952
  C 0.607289 0.210880 0.486690
  C 3.096495 -0.002926 0.229056
  C 3.540954 0.519741 1.515217
  C 2.553791 1.004717 2.584773
  C 3.350394 1.524155 3.778323
  C 2.893074 -0.488872 -0.923483
  C 4.431097 -0.353476 -0.786506
  C 5.116791 -0.697730 -1.892995
  H 4.640723 -1.001243 -2.817050
  O 6.445302 -0.756394 -1.998138
  H 0.349323 0.578241 1.454324
  H 0.391729 -0.826281 0.311503
  H 0.417705 0.887968 -0.321687
  H 4.167555 1.393997 1.300948
  H 4.171582 -0.236428 1.995577
  H 1.904756 0.203787 2.925487
  H 1.957490 1.830931 2.204407
  H 3.962678 0.739162 4.215951
  H 2.672441 1.884296 4.546780
  H 3.997971 2.348916 3.491829
  H 2.223519 -0.766588 -1.695976
  H 5.115076 -0.170895 0.030431
  H 6.924346 -0.481587 -1.201300
 23
 125.737364
  C 0.310033 0.231424 0.520226
  C 3.346221 0.040152 0.320422
  C 3.752674 0.587902 1.586020
  C 2.622775 0.992936 2.535563
  C 3.224010 1.536072 3.829382
  C 3.001957 -0.445975 -0.782701
  C 4.598254 -0.357648 -0.791160
  C 5.119633 -0.716735 -1.977651
  H 4.525555 -0.959993 -2.844089
  O 6.413751 -0.870726 -2.231895
  H -0.007346 0.609304 1.465537
  H 0.197494 -0.821963 0.345554
  H 0.240608 0.896539 -0.312793
  H 4.360040 1.476994 1.396888
  H 4.379453 -0.144928 2.106914
  H 2.001257 0.133616 2.775966
  H 2.004813 1.764117 2.080061
  H 3.835189 0.787304 4.324206
  H 2.434730 1.825574 4.510886
  H 3.839137 2.413924 3.638642
  H 2.315088 -0.714127 -1.543588
  H 5.345356 -0.241639 -0.017119
  H 7.001101 -0.664629 -1.487458
 23
 106.214697
  C 0.071143 0.252656 0.470437
  C 3.489105 0.199408 0.572231
  C 3.879763 0.715915 1.818462
  C 2.593373 1.061166 2.645108
  C 2.991584 1.582578 4.018592
  C 3.449855 -0.399137 -0.564622
  C 4.848305 -0.479904 -1.033459
  C 5.115272 -0.881100 -2.293861
  H 4.344687 -1.075684 -3.018968
  O 6.334102 -1.077274 -2.805418
  H -0.306378 0.647448 1.394582
  H 0.156057 -0.807793 0.349799
  H 0.161262 0.896678 -0.377298
  H 4.466498 1.623410 1.705497
  H 4.457551 -0.022354 2.388801
  H 1.996680 0.157936 2.752338
  H 2.008976 1.812047 2.106818
  H 3.564075 0.836527 4.573358
  H 2.098078 1.807125 4.588907
  H 3.584835 2.493597 3.940852
  H 2.696234 -0.755284 -1.235364
  H 5.655857 -0.327412 -0.341774
  H 7.051846 -0.887814 -2.176834
