 29
 0.000000
  C 0.994636 0.134390 0.385443
  C 2.471835 0.139774 0.398361
  C 3.240435 0.612071 1.573856
  C 2.447225 1.097478 2.782561
  H 3.111558 1.414855 3.572443
  C 3.090669 -0.323872 -0.756057
  C 4.466312 -0.411885 -0.975547
  C 5.128296 -0.866494 -2.108710
  C 4.615112 -1.387123 -3.406262
  C 3.122242 -1.501042 -3.690962
  C 2.890707 -2.062805 -5.091087
  O 6.450606 -0.869570 -2.116650
  H 0.549522 0.502665 1.302512
  H 0.629280 -0.879080 0.215794
  H 0.628927 0.748844 -0.438023
  H 3.896738 1.426627 1.247337
  H 3.897004 -0.201803 1.901476
  H 1.810631 0.300077 3.164537
  H 1.810405 1.937405 2.506874
  H 2.431269 -0.640981 -1.545526
  H 5.092819 -0.082425 -0.154842
  H 5.066249 -2.377476 -3.535762
  H 5.066596 -0.761229 -4.184425
  H 2.649499 -0.519633 -3.635982
  H 2.649073 -2.172009 -2.972914
  H 3.327047 -1.416507 -5.849201
  H 1.824749 -2.142116 -5.289439
  H 3.326635 -3.054062 -5.192109
  H 6.839403 -0.536630 -1.286209
 29
 16.996716
  C 1.032332 0.125228 0.364542
  C 2.545369 0.100413 0.301527
  C 3.319267 0.578421 1.488980
  C 2.519363 1.062932 2.694292
  H 3.206510 1.378532 3.478192
  C 3.060753 -0.360668 -0.844836
  C 4.413975 -0.358322 -0.839890
  C 4.985371 -0.807019 -1.959121
  C 4.483675 -1.336520 -3.279460
  C 3.019992 -1.497057 -3.681158
  C 2.947374 -2.064614 -5.097864
  O 6.348150 -0.834298 -2.028107
  H 0.633106 0.499592 1.295561
  H 0.652464 -0.880868 0.197420
  H 0.651809 0.735103 -0.452575
  H 3.972257 1.401324 1.180036
  H 3.972977 -0.228576 1.835846
  H 1.894332 0.272246 3.098641
  H 1.893693 1.912972 2.438693
  H 2.445776 -0.688935 -1.660928
  H 5.006740 -0.021320 -0.000744
  H 4.970915 -2.313870 -3.385901
  H 4.971557 -0.703535 -4.031294
  H 2.506446 -0.535035 -3.682541
  H 2.505603 -2.193516 -3.018195
  H 3.431135 -1.400932 -5.809971
  H 1.910593 -2.185441 -5.400841
  H 3.430286 -3.036834 -5.154625
  H 6.796933 -0.511983 -1.224290
 29
 71.239642
  C 1.132756 0.071925 0.242076
  C 2.691375 0.050309 0.193984
  C 3.366657 0.557751 1.440364
  C 2.491811 1.032442 2.589261
  H 3.138661 1.362018 3.399441
  C 3.166122 -0.399900 -0.891527
  C 4.506621 -0.312636 -0.697807
  C 4.908961 -0.759401 -1.832686
  C 4.365211 -1.282425 -3.146259
  C 2.916243 -1.462913 -3.594729
  C 2.913748 -2.024791 -5.019777
  O 6.255323 -0.838726 -2.045768
  H 0.702191 0.446523 1.159711
  H 0.776593 -0.939702 0.063856
  H 0.777904 0.672638 -0.592023
  H 4.014814 1.401136 1.181290
  H 4.005236 -0.235285 1.844979
  H 1.864297 0.236903 2.976548
  H 1.872056 1.875387 2.303389
  H 2.616160 -0.738570 -1.712694
  H 5.099231 0.018822 0.116688
  H 4.862734 -2.254752 -3.258649
  H 4.858817 -0.648712 -3.895006
  H 2.380361 -0.511077 -3.623094
  H 2.383264 -2.180207 -2.965695
  H 3.413705 -1.347856 -5.708687
  H 1.891641 -2.163204 -5.365281
  H 3.417234 -2.987890 -5.061802
  H 6.783578 -0.539327 -1.301866
 29
 152.755174
  C 1.171241 -0.008339 0.220568
  C 2.882014 -0.062233 0.177016
  C 3.427686 0.583828 1.433855
  C 2.469437 1.114662 2.503003
  H 3.076976 1.530318 3.307830
  C 3.161805 -0.666883 -0.869583
  C 4.572469 -0.346460 -0.550194
  C 4.784442 -0.765763 -1.729188
  C 4.293131 -1.261152 -3.097367
  C 2.843520 -1.437389 -3.620940
  C 2.920027 -1.929831 -5.065804
  O 6.193564 -0.862926 -2.027683
  H 0.829287 0.432925 1.146090
  H 0.838081 -1.027287 0.138050
  H 0.833465 0.571328 -0.624283
  H 4.025369 1.438095 1.137134
  H 4.061492 -0.153303 1.929766
  H 1.861718 0.335729 2.935808
  H 1.846392 1.908692 2.132158
  H 2.575947 -1.080861 -1.656711
  H 5.195858 0.005620 0.211807
  H 4.802304 -2.215509 -3.204411
  H 4.800684 -0.586138 -3.789290
  H 2.295608 -0.486557 -3.625216
  H 2.283986 -2.196051 -3.064908
  H 3.447761 -1.217503 -5.699503
  H 1.918013 -2.063859 -5.468170
  H 3.442580 -2.888927 -5.121930
  H 6.764884 -0.578669 -1.302056
 29
 139.101652
  C 0.707359 -0.488862 0.161841
  C 3.532950 -0.225388 0.143658
  C 3.638474 0.819128 1.188440
  C 2.398424 1.303401 1.938314
  H 2.708173 2.072258 2.641589
  C 3.206619 -1.287475 -0.440434
  C 4.857120 -0.707824 -0.437720
  C 5.110453 -0.942136 -1.726905
  C 4.414460 -1.229059 -3.028688
  C 2.911837 -1.189795 -3.297823
  C 2.683055 -1.393637 -4.800229
  O 6.416621 -1.011666 -2.066690
  H 0.237336 0.153897 0.873793
  H 0.675977 -1.534841 0.398215
  H 0.582604 -0.198940 -0.863170
  H 4.091244 1.696015 0.711954
  H 4.320840 0.407756 1.934699
  H 1.927225 0.495348 2.494454
  H 1.669378 1.738137 1.261888
  H 2.489568 -1.917379 -0.885380
  H 5.648712 -0.406084 0.228883
  H 4.816356 -2.196984 -3.360675
  H 4.868799 -0.492994 -3.698312
  H 2.506564 -0.210902 -3.031303
  H 2.359861 -1.971880 -2.782238
  H 3.181623 -0.622755 -5.382162
  H 1.620788 -1.355806 -5.027298
  H 3.061973 -2.361311 -5.122277
  H 7.028012 -0.819699 -1.340499
 29
 102.227600
  C 0.526951 -0.752527 0.075686
  C 3.624396 -0.196081 0.150244
  C 3.689820 0.982480 0.999746
  C 2.360959 1.390718 1.629369
  H 2.517267 2.275175 2.241956
  C 3.344489 -1.395970 -0.197167
  C 4.824882 -0.984208 -0.451230
  C 5.264346 -1.056599 -1.775512
  C 4.499825 -1.181982 -3.045488
  C 2.982743 -1.028053 -3.116244
  C 2.541044 -1.095526 -4.577674
  O 6.539332 -1.146728 -2.031686
  H 0.015813 -0.018387 0.660661
  H 0.551377 -1.755970 0.448363
  H 0.547786 -0.619185 -0.986733
  H 4.084229 1.823367 0.423312
  H 4.404207 0.760294 1.799531
  H 1.962724 0.594672 2.253346
  H 1.629523 1.631085 0.863502
  H 2.654473 -2.124165 -0.522464
  H 5.610402 -0.972899 0.302330
  H 4.796809 -2.136093 -3.495338
  H 4.946029 -0.419042 -3.697588
  H 2.679513 -0.068584 -2.696466
  H 2.482405 -1.834470 -2.586731
  H 2.995229 -0.298652 -5.160744
  H 1.462157 -0.987720 -4.651028
  H 2.820633 -2.045715 -5.025353
  H 7.136600 -1.037353 -1.265998
