 25
 0.000000
  H 1.593588 0.057511 0.116488
  C 2.667901 0.063214 0.015412
  C 3.406806 -0.010309 1.318454
  C 2.446438 -0.077300 2.505576
  C 3.192148 -0.152161 3.832310
  C 3.208976 0.132264 -1.208303
  C 2.372084 0.203012 -2.462130
  C 0.862998 0.191322 -2.254925
  H 0.362709 0.245685 -3.218373
  C 4.654366 0.142734 -1.393799
  C 5.294704 0.208232 -2.554663
  H 6.370199 0.210603 -2.596656
  H 4.055336 0.864742 1.433116
  H 4.055334 -0.892696 1.333946
  H 1.805321 -0.955745 2.402199
  H 1.805312 0.807196 2.501680
  H 3.823396 -1.037712 3.866350
  H 2.492335 -0.199075 4.663705
  H 3.823387 0.723939 3.965754
  H 2.646431 -0.641009 -3.103923
  H 2.646430 1.113877 -3.004905
  H 0.545102 1.043384 -1.659496
  H 0.545102 -0.722307 -1.759128
  H 5.240347 0.091516 -0.486049
  H 4.791408 0.261796 -3.503970
 25
 12.677665
  H 1.593990 0.056093 0.141597
  C 2.665793 0.062363 0.030484
  C 3.432313 -0.009674 1.307189
  C 2.389612 -0.084920 2.640610
  C 3.165433 -0.158453 3.943806
  C 3.228920 0.136671 -1.286410
  C 2.372770 0.206491 -2.523780
  C 0.866762 0.193543 -2.294296
  H 0.351304 0.247511 -3.250750
  C 4.667764 0.147106 -1.471291
  C 5.309056 0.212524 -2.630711
  H 6.384857 0.214798 -2.670988
  H 4.076451 0.865317 1.419653
  H 4.076453 -0.891758 1.320504
  H 1.752714 -0.962960 2.539403
  H 1.752707 0.798926 2.638824
  H 3.798610 -1.043238 3.963811
  H 2.483625 -0.206219 4.790299
  H 3.798609 0.718475 4.063219
  H 2.637742 -0.637709 -3.168960
  H 2.637741 1.117917 -3.069902
  H 0.557412 1.045625 -1.693924
  H 0.557413 -0.720659 -1.793592
  H 5.253704 0.095882 -0.563424
  H 4.806645 0.266107 -3.580354
