19
 0
 C -3.12502563 -0.06390912 1.49082674
 C -1.65385811 0.31761385 1.38051834
 C -1.07721243 -0.18994145 0.05990678
 C -1.33374511 1.80583077 1.53069429
 C -2.43011210 2.83561062 1.62829905
 O -0.15621943 2.18234250 1.55139877
 H -3.24679997 -1.15150418 1.44083118
 H -3.71687925 0.37305392 0.67921171
 H -3.54865253 0.26977142 2.44385742
 H -1.12883092 -0.18107961 2.20582323
 H -1.54774070 0.30855985 -0.79463439
 H -1.23029897 -1.26931180 -0.04509241
 H 0.00000000 0.00000000 0.00000000
 H -3.42866730 2.40430413 1.66729149
 H -2.37582801 3.49476043 0.75776231
 H -2.28196265 3.41796427 2.54238667
 O 2.30000000 0.00000000 0.00000000
 H 2.86165789 -0.45890637 -0.64258244
 H 2.91189510 0.25197749 0.70784698
