 24
 0.000000
  H 1.521249 0.060519 0.063254
  C 2.596392 0.065812 -0.030595
  C 3.365220 -0.007008 1.259958
  C 2.464559 -0.076561 2.492483
  C 3.279134 -0.149271 3.781120
  C 3.174137 0.132742 -1.216709
  C 2.491297 0.207947 -2.549491
  C 0.964193 0.206436 -2.522641
  C 0.387729 0.286135 -3.935103
  H 4.256013 0.136413 -1.281750
  H 4.016649 0.869176 1.345226
  H 4.016654 -0.887226 1.246117
  H 1.821286 -0.958113 2.426140
  H 1.821299 0.806837 2.525729
  H 3.913815 -1.033599 3.784902
  H 2.620421 -0.198132 4.646989
  H 3.913827 0.729033 3.884357
  H 2.834152 -0.636298 -3.160125
  H 2.834146 1.115510 -3.061262
  H 0.604200 1.061150 -1.945014
  H 0.604187 -0.707857 -2.044824
  H 0.712361 1.198390 -4.432736
  H -0.701119 0.284311 -3.902723
  H 0.712369 -0.564371 -4.532217
 24
 10.621711
  H 1.518633 0.064380 -0.005207
  C 2.591181 0.070251 -0.109295
  C 3.437318 -0.008441 1.285338
  C 2.459406 -0.083966 2.623717
  C 3.277432 -0.156207 3.904031
  C 3.162225 0.137073 -1.293507
  C 2.472918 0.212001 -2.621372
  C 0.947518 0.209867 -2.583476
  C 0.361424 0.289233 -3.990060
  H 4.244250 0.141021 -1.363458
  H 4.083372 0.865536 1.367411
  H 4.083377 -0.886105 1.268571
  H 1.818834 -0.963806 2.554382
  H 1.818838 0.798077 2.653798
  H 3.912184 -1.040178 3.905131
  H 2.622176 -0.205148 4.771326
  H 3.912187 0.722036 4.004562
  H 2.812425 -0.631813 -3.233209
  H 2.812424 1.119281 -3.134395
  H 0.592198 1.063829 -2.002944
  H 0.592192 -0.703994 -2.102693
  H 0.682211 1.201242 -4.489679
  H -0.726114 0.286970 -3.949956
  H 0.682216 -0.560795 -4.589108
 24
 34.154800
  H 1.516758 0.066974 -0.051236
  C 2.581412 0.074253 -0.180266
  C 3.517900 -0.009690 1.307439
  C 2.448157 -0.090749 2.743914
  C 3.271804 -0.161940 4.005625
  C 3.150730 0.140608 -1.356182
  C 2.456935 0.215416 -2.681947
  C 0.932526 0.212706 -2.633884
  C 0.337298 0.291758 -4.034904
  H 4.233766 0.144663 -1.428031
  H 4.145861 0.862017 1.386155
  H 4.145866 -0.884716 1.287590
  H 1.816467 -0.967535 2.655990
  H 1.816454 0.790370 2.755182
  H 3.907019 -1.045821 4.003131
  H 2.619981 -0.211007 4.875171
  H 3.907010 0.716606 4.102574
  H 2.794676 -0.628372 -3.293555
  H 2.794678 1.122655 -3.194754
  H 0.582288 1.066013 -2.049693
  H 0.582292 -0.700892 -2.149401
  H 0.654840 1.203641 -4.536341
  H -0.749028 0.289102 -3.987867
  H 0.654839 -0.557922 -4.635730
 24
 62.280354
  H 1.502772 0.068722 -0.082168
  C 2.563693 0.077643 -0.240288
  C 3.594760 -0.011284 1.335731
  C 2.437171 -0.098129 2.874731
  C 3.277082 -0.168713 4.125676
  C 3.138423 0.144466 -1.424520
  C 2.439277 0.219352 -2.751667
  C 0.914383 0.216225 -2.696202
  C 0.311585 0.295145 -4.094857
  H 4.220695 0.148684 -1.499278
  H 4.211706 0.871964 1.411000
  H 4.211705 -0.897386 1.311159
  H 1.811344 -0.978627 2.767372
  H 1.811349 0.788845 2.867104
  H 3.913029 -1.052385 4.118288
  H 2.631471 -0.218192 5.002542
  H 3.913022 0.710175 4.217740
  H 2.775981 -0.625138 -3.363396
  H 2.775981 1.127292 -3.264510
  H 0.567779 1.069400 -2.109051
  H 0.567772 -0.697597 -2.208749
  H 0.626809 1.207269 -4.597925
  H -0.775110 0.292205 -4.042729
  H 0.626810 -0.554602 -4.697341
 24
 91.950706
  H 1.499643 0.071870 -0.137992
  C 2.553090 0.082055 -0.318495
  C 3.673605 -0.012020 1.348755
  C 2.426146 -0.104557 2.988619
  C 3.273943 -0.174267 4.224079
  C 3.119263 0.147155 -1.472193
  C 2.420997 0.222009 -2.798770
  C 0.897055 0.218736 -2.740728
  C 0.292027 0.297552 -4.137549
  H 4.200306 0.151274 -1.545185
  H 4.275143 0.875139 1.421936
  H 4.275149 -0.901780 1.321667
  H 1.809896 -0.984798 2.862170
  H 1.809890 0.784321 2.961995
  H 3.909547 -1.057406 4.212702
  H 2.633990 -0.223991 5.105287
  H 3.909542 0.704546 4.312120
  H 2.758154 -0.622721 -3.409159
  H 2.758157 1.130047 -3.310261
  H 0.552333 1.071459 -2.152306
  H 0.552335 -0.694761 -2.251972
  H 0.606486 1.209480 -4.640963
  H -0.794075 0.294515 -4.083729
  H 0.606488 -0.551964 -4.740357
 24
 117.948496
  H 1.493479 0.067961 -0.068585
  C 2.523001 0.083694 -0.347442
  C 3.762171 -0.010944 1.329770
  C 2.390038 -0.111152 3.105560
  C 3.265205 -0.179338 4.313903
  C 3.108672 0.149422 -1.512302
  C 2.413129 0.224763 -2.847559
  C 0.888814 0.221001 -2.780832
  C 0.272861 0.299625 -4.174139
  H 4.188302 0.153451 -1.583721
  H 4.325599 0.905593 1.398942
  H 4.325579 -0.929415 1.295393
  H 1.803916 -0.998309 2.910626
  H 1.803934 0.792273 3.011671
  H 3.900513 -1.064371 4.291546
  H 2.644580 -0.230217 5.215571
  H 3.900519 0.702595 4.391258
  H 2.752168 -0.621981 -3.454856
  H 2.752171 1.134433 -3.355736
  H 0.550085 1.073313 -2.187209
  H 0.550046 -0.692742 -2.286819
  H 0.584231 1.212175 -4.679932
  H -0.813766 0.296197 -4.113232
  H 0.584226 -0.550245 -4.779382
