 19
 0.000000
  C 0.984860 0.139501 0.379627
  C 2.450591 0.138948 0.379093
  C 3.226548 0.600694 1.544578
  C 2.449223 1.084116 2.757917
  H 3.145268 1.391291 3.533793
  C 3.100605 -0.322071 -0.772291
  C 4.497973 -0.385388 -0.935662
  C 5.117622 -0.843509 -2.052076
  H 4.631632 -1.217810 -2.937211
  H 6.195724 -0.852799 -2.085033
  H 0.553308 0.498202 1.305594
  H 0.613809 -0.867676 0.175768
  H 0.609845 0.751030 -0.443584
  H 3.896544 1.403643 1.212119
  H 3.894024 -0.213206 1.854451
  H 1.817753 0.298512 3.166306
  H 1.820301 1.937316 2.514822
  H 2.486821 -0.656543 -1.598290
  H 5.124483 -0.047781 -0.122520
 19
 0.474478
  C 1.048118 0.123479 0.335975
  C 2.504160 0.112021 0.447212
  C 3.233017 0.599023 1.624360
  C 2.394313 1.101301 2.798307
  H 3.049527 1.426784 3.604238
  C 3.169855 -0.351433 -0.697228
  C 4.546241 -0.381761 -0.924898
  C 5.025542 -0.815169 -2.123756
  H 4.382926 -1.150237 -2.921114
  H 6.088937 -0.862370 -2.295521
  H 0.533495 0.572952 1.163859
  H 0.674540 -0.881835 0.182597
  H 0.828552 0.643372 -0.612847
  H 3.923395 1.396265 1.299823
  H 3.899800 -0.209451 1.971975
  H 1.749904 0.318042 3.188436
  H 1.776623 1.948054 2.511049
  H 2.555511 -0.697167 -1.516052
  H 5.232572 -0.057221 -0.160512
 19
 0.487455
  C 1.040982 0.113061 0.342847
  C 2.497442 0.002716 0.464394
  C 3.224541 0.512561 1.637834
  C 2.406234 1.181208 2.728406
  H 3.067572 1.521237 3.520847
  C 3.178651 -0.552176 -0.621609
  C 4.550279 -0.405844 -0.911397
  C 5.037547 -0.725564 -2.135926
  H 4.401353 -1.149177 -2.896241
  H 6.063688 -0.547976 -2.406596
  H 0.547786 0.386351 1.268017
  H 0.608421 -0.797389 -0.069675
  H 0.835902 0.890936 -0.400299
  H 3.996648 1.211162 1.292186
  H 3.794940 -0.320672 2.069416
  H 1.691428 0.491999 3.172577
  H 1.866652 2.043939 2.346125
  H 2.584852 -1.058534 -1.372565
  H 5.207638 0.038872 -0.178568
 19
 4.706633
  C 1.123275 0.099120 0.280086
  C 2.550243 -0.116835 0.543913
  C 3.225894 0.424112 1.732547
  C 2.387442 1.253726 2.689823
  H 3.010402 1.598763 3.510675
  C 3.256839 -0.760330 -0.473653
  C 4.560764 -0.427672 -0.899720
  C 4.890252 -0.570629 -2.203267
  H 4.214599 -1.042569 -2.897739
  H 5.814064 -0.195491 -2.606977
  H 0.576634 0.488072 1.130840
  H 0.644826 -0.796472 -0.111993
  H 1.086473 0.834767 -0.530821
  H 4.094491 1.009930 1.408961
  H 3.667883 -0.423057 2.273816
  H 1.575967 0.671082 3.119720
  H 1.968270 2.125393 2.194686
  H 2.693362 -1.406946 -1.135769
  H 5.233301 0.078859 -0.222434
 19
 10.923966
  C 1.225722 0.090656 0.201448
  C 2.606830 -0.202188 0.605586
  C 3.226569 0.367394 1.809912
  C 2.370343 1.296660 2.652919
  H 2.947155 1.645897 3.505017
  C 3.343130 -0.908968 -0.350547
  C 4.571712 -0.450867 -0.889488
  C 4.703771 -0.437594 -2.230536
  H 3.987156 -0.932354 -2.863999
  H 5.512209 0.072681 -2.722902
  H 0.639028 0.579552 0.970189
  H 0.711749 -0.790203 -0.178908
  H 1.341816 0.768167 -0.653447
  H 4.154439 0.877036 1.525141
  H 3.569289 -0.474816 2.425310
  H 1.490811 0.788201 3.040750
  H 2.051918 2.165772 2.083060
  H 2.810396 -1.643131 -0.945478
  H 5.277590 0.064680 -0.255593
 19
 18.436163
  C 1.330861 0.083932 0.113049
  C 2.649890 -0.282509 0.653024
  C 3.227895 0.323635 1.857498
  C 2.366606 1.329299 2.604338
  H 2.908921 1.695862 3.471083
  C 3.408489 -1.037383 -0.251942
  C 4.568044 -0.478804 -0.867177
  C 4.499252 -0.297336 -2.196601
  H 3.748009 -0.787290 -2.793457
  H 5.214509 0.307630 -2.726222
  H 0.719091 0.651492 0.803020
  H 0.786212 -0.772251 -0.280732
  H 1.592078 0.703227 -0.753596
  H 4.191341 0.776945 1.598541
  H 3.498089 -0.499916 2.532073
  H 1.445216 0.876754 2.961596
  H 2.121388 2.183085 1.977552
  H 2.894558 -1.807326 -0.817949
  H 5.327025 -0.002081 -0.264584
 19
 27.020646
  C 1.460785 0.124484 0.015213
  C 2.704831 -0.298155 0.678844
  C 3.224809 0.303229 1.909200
  C 2.339938 1.330231 2.596556
  H 2.819181 1.664417 3.513475
  C 3.483356 -1.108432 -0.166689
  C 4.557681 -0.485149 -0.888598
  C 4.281114 -0.220458 -2.170574
  H 3.514648 -0.748255 -2.712549
  H 4.908588 0.429687 -2.753732
  H 0.838052 0.777428 0.613472
  H 0.889777 -0.704321 -0.396317
  H 1.866137 0.662455 -0.859504
  H 4.213280 0.732296 1.702626
  H 3.434875 -0.522035 2.602530
  H 1.375656 0.907577 2.863548
  H 2.182940 2.201316 1.967039
  H 2.987669 -1.933558 -0.670878
  H 5.362868 0.000105 -0.357493
 19
 37.631024
  C 1.578427 0.138641 -0.063873
  C 2.724879 -0.340708 0.697904
  C 3.221239 0.269276 1.929455
  C 2.346147 1.346288 2.559240
  H 2.807877 1.694524 3.476962
  C 3.517164 -1.188984 -0.103835
  C 4.515712 -0.489043 -0.882432
  C 4.058758 -0.109570 -2.077723
  H 3.330973 -0.675462 -2.633369
  H 4.618352 0.601390 -2.659054
  H 0.970162 0.870578 0.434682
  H 0.987681 -0.640341 -0.532676
  H 2.127247 0.578680 -0.934571
  H 4.228142 0.651912 1.748901
  H 3.366863 -0.546993 2.652088
  H 1.358367 0.962803 2.808990
  H 2.239274 2.201864 1.897899
  H 3.036936 -2.027301 -0.587258
  H 5.352045 -0.017613 -0.396862
 19
 53.731871
  C 1.672992 0.129112 -0.120785
  C 2.733907 -0.376778 0.699862
  C 3.226426 0.248962 1.966566
  C 2.353619 1.382864 2.544310
  H 2.794931 1.742104 3.468591
  C 3.532191 -1.239306 -0.065944
  C 4.461684 -0.482877 -0.885859
  C 3.858739 -0.026758 -2.007152
  H 3.199026 -0.630567 -2.592635
  H 4.381112 0.743905 -2.586545
  H 1.081845 0.927620 0.296281
  H 1.092135 -0.583485 -0.691263
  H 2.366070 0.489393 -1.039603
  H 4.244262 0.589447 1.808946
  H 3.310840 -0.562075 2.722394
  H 1.337331 1.025904 2.772872
  H 2.298499 2.213623 1.867077
  H 3.045240 -2.112616 -0.555914
  H 5.331651 -0.004625 -0.441893
 19
 64.105450
  C 1.691467 0.112856 -0.084299
  C 2.695863 -0.367907 0.731725
  C 3.199036 0.239542 1.979726
  C 2.360665 1.384819 2.528898
  H 2.794216 1.737414 3.460735
  C 3.544811 -1.237768 -0.062565
  C 4.428319 -0.476993 -0.891073
  C 3.753157 0.041722 -1.986689
  H 3.133285 -0.604304 -2.598393
  H 4.254207 0.811996 -2.554158
  H 1.106134 0.941439 0.281929
  H 1.143018 -0.548180 -0.739939
  H 2.623170 0.468862 -1.237359
  H 4.233763 0.561439 1.817375
  H 3.256882 -0.557419 2.729150
  H 1.342903 1.064443 2.735735
  H 2.335261 2.219320 1.833405
  H 3.065780 -2.105376 -0.506122
  H 5.305052 0.001483 -0.479339
 19
 51.034487
  C 1.595818 0.081236 0.033813
  C 2.653563 -0.320529 0.761360
  C 3.209954 0.291584 1.998342
  C 2.344452 1.392723 2.598598
  H 2.763133 1.705780 3.552394
  C 3.472226 -1.163455 -0.099582
  C 4.377670 -0.482693 -0.921983
  C 3.770502 0.060427 -2.116894
  H 3.258311 -0.650242 -2.763542
  H 4.382257 0.761285 -2.670147
  H 0.997116 0.898814 0.402727
  H 1.102647 -0.545957 -0.684415
  H 2.857339 0.535145 -1.622116
  H 4.214634 0.666416 1.802878
  H 3.324594 -0.516204 2.729636
  H 1.332009 1.040071 2.779785
  H 2.306725 2.260677 1.946711
  H 2.985169 -2.061086 -0.483756
  H 5.276894 -0.044924 -0.506968
 19
 38.426789
  C 1.475748 0.078862 0.143283
  C 2.604570 -0.293263 0.782949
  C 3.215677 0.338379 1.987099
  C 2.319660 1.357483 2.680072
  H 2.845075 1.783702 3.530256
  C 3.385268 -1.080446 -0.151712
  C 4.341377 -0.409986 -0.910249
  C 3.893691 0.004373 -2.237224
  H 3.378157 -0.775812 -2.796470
  H 4.625562 0.531817 -2.835793
  H 0.858770 0.867094 0.537415
  H 1.045880 -0.492259 -0.659215
  H 3.075437 0.671971 -1.912544
  H 4.167911 0.800999 1.723941
  H 3.447862 -0.472176 2.683159
  H 1.409701 0.891597 3.049138
  H 2.056759 2.169287 2.009086
  H 2.823223 -1.863834 -0.658930
  H 5.229598 0.024261 -0.470724
 19
 27.667366
  C 1.321852 0.061913 0.303686
  C 2.559980 -0.217351 0.767533
  C 3.210027 0.369928 1.975412
  C 2.338487 1.359503 2.738234
  H 2.866247 1.698625 3.624579
  C 3.305157 -0.937164 -0.241361
  C 4.297681 -0.310903 -0.979207
  C 4.036396 -0.062263 -2.393065
  H 3.641074 -0.931269 -2.917819
  H 4.858876 0.400122 -2.926682
  H 0.701257 0.810858 0.760029
  H 0.879409 -0.493738 -0.504017
  H 3.197844 0.652840 -2.329691
  H 4.149885 0.847740 1.704416
  H 3.462942 -0.467995 2.629081
  H 1.409168 0.897046 3.058480
  H 2.110500 2.232386 2.132336
  H 2.789091 -1.773780 -0.705232
  H 5.108047 0.215228 -0.493684
 19
 19.877889
  C 1.202844 0.077494 0.399110
  C 2.492347 -0.179040 0.751253
  C 3.218749 0.472660 1.882638
  C 2.331951 1.284373 2.819785
  H 2.937609 1.701520 3.620184
  C 3.182806 -0.860927 -0.308220
  C 4.262647 -0.306677 -0.967511
  C 4.187849 -0.159346 -2.419509
  H 3.751658 -1.026783 -2.912086
  H 5.115481 0.158125 -2.883966
  H 0.588651 0.783225 0.927412
  H 0.746228 -0.429857 -0.431575
  H 3.454329 0.651102 -2.519717
  H 4.014985 1.109286 1.502727
  H 3.702476 -0.328067 2.449091
  H 1.564349 0.661913 3.270906
  H 1.857687 2.111975 2.299425
  H 2.599940 -1.598627 -0.849750
  H 5.031337 0.229379 -0.427166
 19
 15.051460
  C 1.130666 0.077355 0.488674
  C 2.450874 -0.152791 0.752950
  C 3.192308 0.404170 1.914453
  C 2.380355 1.288828 2.853093
  H 3.018082 1.649335 3.654608
  C 3.131770 -0.759143 -0.371308
  C 4.180216 -0.139728 -1.017103
  C 4.289035 -0.229820 -2.485379
  H 4.125088 -1.236566 -2.864162
  H 5.200318 0.211364 -2.876660
  H 0.547990 0.758905 1.082459
  H 0.631034 -0.385697 -0.342606
  H 3.441942 0.367771 -2.831180
  H 4.072804 0.945231 1.576574
  H 3.573186 -0.456047 2.473092
  H 1.558948 0.740012 3.301858
  H 1.983129 2.156450 2.332221
  H 2.553978 -1.481872 -0.935706
  H 4.782195 0.593968 -0.502848
