 13
 0.000000
  H 1.407371 0.135305 0.388727
  C 2.480610 0.096165 0.290752
  H 3.066339 0.434988 1.132091
  C 3.073297 -0.360532 -0.845021
  C 4.477030 -0.411546 -0.974884
  C 5.164821 -0.860873 -2.094088
  C 4.597122 -1.353912 -3.324512
  H 3.517076 -1.366644 -3.360141
  H 6.245248 -0.840036 -2.040325
  H 2.454005 -0.691583 -1.666272
  H 5.061229 -0.071313 -0.129309
  H 4.999855 -2.351506 -3.534306
  H 5.002052 -0.779132 -4.165322
 13
 0.234986
  H 1.401976 0.121428 0.368078
  C 2.476868 0.137573 0.251778
  H 3.042548 0.703113 0.976056
  C 3.086855 -0.499215 -0.783722
  C 4.486971 -0.451318 -0.958252
  C 5.170230 -0.911460 -2.070527
  C 4.591145 -1.269621 -3.343809
  H 3.515252 -1.148365 -3.402383
  H 6.246382 -0.983116 -1.993418
  H 2.488380 -1.068735 -1.478194
  H 5.066012 -0.056040 -0.133096
  H 4.890656 -2.291071 -3.595836
  H 5.072704 -0.697055 -4.142539
 13
 1.558264
  H 1.400576 0.155048 0.293492
  C 2.470102 0.190514 0.175211
  H 3.007005 0.923934 0.756914
  C 3.107449 -0.605348 -0.721353
  C 4.509409 -0.538738 -0.911678
  C 5.179357 -0.936057 -2.051709
  C 4.569430 -1.202748 -3.334457
  H 3.493463 -1.075986 -3.351409
  H 6.258741 -1.013316 -1.998871
  H 2.534899 -1.320197 -1.298697
  H 5.095485 -0.194271 -0.067422
  H 4.860163 -2.209495 -3.660686
  H 5.030598 -0.576927 -4.109607
 13
 3.807250
  H 1.391075 0.166142 0.187338
  C 2.461220 0.218772 0.086313
  H 2.953272 1.084691 0.499464
  C 3.142014 -0.702994 -0.635516
  C 4.542398 -0.591976 -0.875258
  C 5.185469 -0.970000 -2.029189
  C 4.540967 -1.129221 -3.316721
  H 3.472501 -0.941936 -3.296524
  H 6.263821 -1.083417 -2.002969
  H 2.614426 -1.544935 -1.065169
  H 5.137615 -0.275807 -0.028448
  H 4.764748 -2.131074 -3.695936
  H 5.017038 -0.487102 -4.070476
 13
 6.841143
  H 1.410209 0.268899 0.028512
  C 2.481264 0.285230 -0.057565
  H 2.982272 1.201977 0.209644
  C 3.157295 -0.755044 -0.586332
  C 4.574572 -0.733787 -0.798318
  C 5.192808 -0.972553 -2.001053
  C 4.495844 -1.083371 -3.265660
  H 3.418358 -0.999304 -3.174023
  H 6.273551 -1.044352 -2.021860
  H 2.620939 -1.648944 -0.886029
  H 5.179990 -0.522860 0.074374
  H 4.791293 -2.028450 -3.741374
  H 4.860648 -0.340354 -3.986012
 13
 10.176964
  H 1.420620 0.281342 -0.007305
  C 2.484378 0.309561 -0.163575
  H 2.965883 1.271846 -0.105099
  C 3.164354 -0.791295 -0.520550
  C 4.578957 -0.816435 -0.764160
  C 5.187096 -0.978069 -1.982979
  C 4.478994 -1.008198 -3.247131
  H 3.413339 -0.837541 -3.145296
  H 6.266311 -1.066073 -2.020034
  H 2.631822 -1.732510 -0.653320
  H 5.193955 -0.710911 0.129457
  H 4.691509 -1.973137 -3.729502
  H 4.903556 -0.298828 -3.963430
 13
 14.870043
  H 1.468140 0.405019 -0.130523
  C 2.532052 0.359750 -0.285450
  H 3.054606 1.299362 -0.368060
  C 3.157275 -0.809846 -0.439553
  C 4.552784 -0.956448 -0.751980
  C 5.168335 -1.027478 -1.966009
  C 4.467062 -0.966981 -3.237818
  H 3.385704 -0.961227 -3.119519
  H 6.251413 -1.088962 -2.006276
  H 2.593370 -1.743149 -0.352431
  H 5.113260 -0.920403 0.189158
  H 4.797553 -1.813360 -3.855553
  H 4.776451 -0.095348 -3.818508
 13
 22.693757
  H 1.479303 0.458728 0.131282
  C 2.525029 0.395479 -0.125852
  H 3.064486 1.322358 -0.224775
  C 3.100350 -0.799038 -0.353853
  C 4.422143 -0.948122 -0.912236
  C 5.132419 -1.000710 -2.009502
  C 4.577819 -0.991919 -3.391379
  H 3.495224 -0.907954 -3.376466
  H 6.212710 -1.077535 -1.958455
  H 2.551459 -1.720221 -0.180996
  H 4.814629 -0.937990 0.134179
  H 4.878714 -1.910182 -3.893561
  H 4.998435 -0.159737 -3.952936
 13
 26.126521
  H 1.544397 0.562157 0.295541
  C 2.548536 0.459206 -0.073475
  H 3.132125 1.369491 -0.152457
  C 3.060235 -0.753528 -0.353797
  C 4.342446 -1.016371 -0.958473
  C 5.098317 -0.954053 -2.012711
  C 4.618384 -1.026417 -3.429395
  H 3.536447 -1.101285 -3.468947
  H 6.183685 -0.953587 -1.924291
  H 2.450800 -1.638479 -0.234215
  H 4.659632 -1.158613 0.114610
  H 5.066659 -1.884398 -3.933100
  H 4.948944 -0.132867 -3.952433
 13
 34.677024
  H 1.561953 0.543502 0.434647
  C 2.544638 0.452392 -0.004807
  H 3.077343 1.361726 -0.193059
  C 3.077474 -0.770472 -0.297064
  C 4.263093 -0.977107 -1.069389
  C 5.098145 -1.018909 -2.044957
  C 4.680394 -1.007811 -3.489300
  H 3.590327 -0.930374 -3.606347
  H 6.139670 -1.096281 -1.877080
  H 2.485508 -1.660149 -0.073033
  H 4.464478 -0.991780 0.115545
  H 5.042412 -1.919008 -3.950280
  H 5.123615 -0.160232 -3.983242
 13
 35.025130
  H 1.605773 0.563673 0.487507
  C 2.558595 0.457101 -0.010780
  H 3.080500 1.346351 -0.296259
  C 3.072749 -0.781283 -0.265858
  C 4.227805 -1.038890 -1.056736
  C 5.070947 -1.003305 -2.042481
  C 4.675711 -0.983237 -3.481783
  H 3.590049 -0.968776 -3.607903
  H 6.122377 -1.036668 -1.854313
  H 2.485965 -1.648154 0.033105
  H 4.459515 -1.055748 0.052710
  H 5.092473 -1.866068 -3.975608
  H 5.098702 -0.091327 -3.948048
 13
 39.630453
  H 1.628665 0.498496 0.682082
  C 2.551889 0.479228 0.134815
  H 3.001815 1.414564 -0.149886
  C 3.150538 -0.759295 -0.210540
  C 4.128702 -0.877963 -1.211957
  C 5.023481 -0.974319 -2.124907
  C 4.742930 -1.034582 -3.596330
  H 3.679561 -0.978333 -3.802768
  H 6.078719 -1.034294 -1.876869
  H 2.587191 -1.659576 0.033608
  H 4.224971 -0.854409 0.279074
  H 5.144217 -1.963799 -3.994555
  H 5.253472 -0.209364 -4.085978
 13
 38.665916
  H 1.653692 0.518723 0.686985
  C 2.581821 0.500169 0.148136
  H 3.033647 1.431626 -0.138500
  C 3.201525 -0.754453 -0.178293
  C 4.119347 -0.861775 -1.239283
  C 5.006899 -0.933835 -2.151904
  C 4.748779 -1.052712 -3.626362
  H 3.684483 -1.061584 -3.844781
  H 6.065216 -0.929798 -1.898956
  H 2.609066 -1.647462 0.022278
  H 4.125043 -0.822853 0.480542
  H 5.204689 -1.968191 -3.991000
  H 5.218289 -0.214402 -4.132651
 13
 37.299930
  H 1.716976 0.541663 0.750792
  C 2.607953 0.524923 0.154097
  H 3.021268 1.454757 -0.190394
  C 3.244836 -0.737008 -0.153132
  C 4.130241 -0.842225 -1.240531
  C 4.997996 -0.889609 -2.170860
  C 4.752528 -1.073716 -3.641134
  H 3.692552 -1.153570 -3.857375
  H 6.057349 -0.813590 -1.925072
  H 2.607284 -1.618910 -0.012361
  H 4.017474 -0.844180 0.650665
  H 5.263408 -1.972587 -3.976468
  H 5.172076 -0.223220 -4.176074
 13
 36.054594
  H 1.878038 0.568956 0.935861
  C 2.637259 0.539370 0.178020
  H 2.926280 1.456031 -0.301674
  C 3.259545 -0.722399 -0.156205
  C 4.148719 -0.806494 -1.238774
  C 5.003068 -0.851731 -2.181292
  C 4.766901 -1.092734 -3.644495
  H 3.710936 -1.219385 -3.856679
  H 6.058495 -0.723900 -1.939124
  H 2.546345 -1.562193 -0.147355
  H 3.882467 -1.002599 0.722138
  H 5.310979 -1.982169 -3.950314
  H 5.152909 -0.248026 -4.207952
