 20
 0.000000
  C 0.965342 0.169087 0.472242
  C 2.424312 0.118196 0.345658
  H 3.042066 0.448322 1.166901
  C 3.008799 -0.346833 -0.811769
  C 4.391510 -0.418230 -0.990409
  C 5.111202 -0.863031 -2.099944
  C 4.648297 -1.388751 -3.410912
  C 3.167033 -1.517039 -3.730771
  H 3.054611 -1.918134 -4.731138
  O 6.426383 -0.842569 -2.049582
  H 0.636866 0.554879 1.432028
  H 0.542443 -0.827632 0.331042
  H 0.542361 0.790823 -0.319465
  H 2.357015 -0.665813 -1.605572
  H 4.985271 -0.079571 -0.147433
  H 5.122384 -2.370374 -3.525917
  H 5.122408 -0.758637 -4.172328
  H 2.674843 -0.548008 -3.702164
  H 2.674908 -2.197947 -3.040632
  H 6.793714 -0.506783 -1.209864
 20
 0.354117
  C 0.965458 0.204638 0.483315
  C 2.401063 -0.022821 0.331491
  H 3.012089 -0.050975 1.223627
  C 2.990822 -0.252247 -0.889383
  C 4.376462 -0.388751 -1.020104
  C 5.121034 -0.801846 -2.125382
  C 4.659930 -1.412813 -3.398999
  C 3.178517 -1.596850 -3.673520
  H 3.068111 -2.146351 -4.604081
  O 6.431846 -0.729070 -2.080476
  H 0.684485 0.400930 1.512797
  H 0.405743 -0.661927 0.119043
  H 0.641899 1.031747 -0.154496
  H 2.365455 -0.230875 -1.765968
  H 4.954906 -0.128080 -0.140469
  H 5.160788 -2.391068 -3.451849
  H 5.115313 -0.830202 -4.208675
  H 2.674591 -0.644696 -3.799509
  H 2.695263 -2.173410 -2.886194
  H 6.801361 -0.341065 -1.265397
 20
 3.355500
  C 0.973727 0.251860 0.436657
  C 2.369042 -0.171953 0.297382
  H 2.889596 -0.510081 1.183571
  C 3.003437 -0.249943 -0.916359
  C 4.399810 -0.338535 -1.042870
  C 5.142055 -0.772749 -2.137877
  C 4.657152 -1.443108 -3.372595
  C 3.168348 -1.656226 -3.582810
  H 3.027595 -2.246191 -4.483774
  O 6.451740 -0.672256 -2.122809
  H 0.646818 0.255638 1.470679
  H 0.316361 -0.402229 -0.140957
  H 0.836762 1.243530 0.002612
  H 2.433711 0.033565 -1.789286
  H 4.975634 -0.034584 -0.175733
  H 5.169411 -2.410837 -3.400587
  H 5.074770 -0.889290 -4.220129
  H 2.646605 -0.716969 -3.726430
  H 2.722118 -2.197953 -2.751473
  H 6.827751 -0.241611 -1.331740
 20
 9.416403
  C 1.004072 0.326497 0.402913
  C 2.317045 -0.315875 0.259604
  H 2.653140 -0.949624 1.068653
  C 3.026429 -0.301194 -0.911026
  C 4.426732 -0.306026 -1.059817
  C 5.156472 -0.747067 -2.154593
  C 4.654765 -1.502206 -3.333597
  C 3.158223 -1.695476 -3.509255
  H 2.989402 -2.298639 -4.394459
  O 6.458620 -0.575612 -2.197779
  H 0.608625 0.216497 1.408754
  H 0.285907 -0.100555 -0.303363
  H 1.070647 1.385640 0.149706
  H 2.519298 0.164498 -1.747179
  H 5.005466 0.061659 -0.214656
  H 5.153519 -2.477104 -3.297568
  H 5.067462 -1.016722 -4.225047
  H 2.644553 -0.752363 -3.656614
  H 2.721582 -2.212357 -2.663352
  H 6.837154 -0.081592 -1.445280
 20
 20.092173
  C 1.040728 0.406870 0.325296
  C 2.252727 -0.437324 0.246394
  H 2.423154 -1.117412 1.063469
  C 3.075062 -0.455578 -0.827259
  C 4.456688 -0.284806 -1.071259
  C 5.166305 -0.764752 -2.156751
  C 4.631629 -1.493652 -3.338409
  C 3.135900 -1.735312 -3.428379
  H 2.942198 -2.410608 -4.257114
  O 6.473300 -0.575938 -2.236074
  H 0.543265 0.280963 1.281896
  H 0.337995 0.151935 -0.463113
  H 1.297964 1.458915 0.186813
  H 2.632985 0.116579 -1.665190
  H 5.029412 0.207503 -0.291363
  H 5.161102 -2.451817 -3.374127
  H 4.979790 -0.954166 -4.229048
  H 2.586550 -0.812386 -3.620100
  H 2.756050 -2.197700 -2.523759
  H 6.869927 -0.119422 -1.471373
 20
 33.018429
  C 1.035670 0.429275 0.170011
  C 2.199146 -0.497514 0.177732
  H 2.164763 -1.294852 0.912304
  C 3.196150 -0.457413 -0.695435
  C 4.554736 -0.259790 -1.060693
  C 5.193572 -0.740796 -2.192827
  C 4.575206 -1.500518 -3.313901
  C 3.087463 -1.808388 -3.236650
  H 2.790361 -2.326517 -4.144069
  O 6.483445 -0.531172 -2.371284
  H 0.360710 0.200952 0.988554
  H 0.478278 0.346239 -0.764347
  H 1.371441 1.459550 0.265745
  H 2.947148 0.366753 -1.437103
  H 5.169083 0.247693 -0.324790
  H 5.142676 -2.437018 -3.411252
  H 4.791751 -0.944275 -4.233145
  H 2.492036 -0.905230 -3.169198
  H 2.859436 -2.452671 -2.392394
  H 6.937128 -0.087969 -1.630621
 20
 42.680115
  C 1.030226 0.345134 0.004762
  C 2.230220 -0.535557 0.173206
  H 2.119824 -1.354873 0.875326
  C 3.340513 -0.441271 -0.502899
  C 4.629016 -0.207051 -1.050028
  C 5.199385 -0.762917 -2.191175
  C 4.496820 -1.525896 -3.259206
  C 2.998286 -1.721077 -3.110470
  H 2.634788 -2.295834 -3.960364
  O 6.483499 -0.567235 -2.460415
  H 0.250109 0.061442 0.703441
  H 0.634498 0.259635 -1.003773
  H 1.291195 1.386605 0.178488
  H 3.325694 0.490098 -1.253231
  H 5.308708 0.314994 -0.377023
  H 4.988807 -2.500834 -3.332525
  H 4.717523 -1.024968 -4.209432
  H 2.467012 -0.774354 -3.106431
  H 2.758882 -2.275678 -2.208191
  H 6.974635 -0.068190 -1.783929
 20
 46.898151
  C 0.978534 0.254956 0.016827
  C 2.263417 -0.506751 0.182216
  H 2.236833 -1.309448 0.915507
  C 3.355769 -0.340562 -0.478362
  C 4.608310 -0.084080 -1.094595
  C 5.190897 -0.780700 -2.189380
  C 4.471532 -1.569941 -3.225843
  C 2.956253 -1.642185 -3.114489
  H 2.573726 -2.247483 -3.932940
  O 6.498847 -0.687001 -2.414052
  H 0.237909 -0.087639 0.731001
  H 0.584484 0.111691 -0.987897
  H 1.145496 1.318564 0.168157
  H 3.706321 0.635317 -1.445037
  H 5.312221 0.437919 -0.448435
  H 4.889145 -2.582978 -3.214774
  H 4.753999 -1.156316 -4.200334
  H 2.499981 -0.659542 -3.195643
  H 2.649745 -2.111005 -2.184354
  H 6.990093 -0.188168 -1.738284
 20
 44.061343
  C 0.977202 0.226390 -0.081289
  C 2.267349 -0.500975 0.203628
  H 2.202570 -1.249497 0.990470
  C 3.389980 -0.364493 -0.399237
  C 4.596379 -0.025189 -1.085262
  C 5.189001 -0.798276 -2.156855
  C 4.454743 -1.596676 -3.169585
  C 2.935869 -1.602502 -3.081594
  H 2.540806 -2.222899 -3.881593
  O 6.492640 -0.752403 -2.357451
  H 0.204699 -0.082362 0.613755
  H 0.642999 0.010347 -1.093761
  H 1.123309 1.299981 0.008320
  H 3.891120 0.697883 -1.588267
  H 5.305700 0.491675 -0.439874
  H 4.831076 -2.624293 -3.112120
  H 4.768248 -1.234659 -4.155360
  H 2.523712 -0.604920 -3.208165
  H 2.594715 -2.019173 -2.139981
  H 6.993674 -0.247198 -1.692120
 20
 41.230528
  C 0.957080 0.108845 0.024921
  C 2.311142 -0.520374 0.251814
  H 2.340996 -1.231669 1.075848
  C 3.375397 -0.349376 -0.439702
  C 4.560349 0.029506 -1.137579
  C 5.180669 -0.795402 -2.175325
  C 4.447603 -1.603173 -3.176536
  C 2.929528 -1.502135 -3.163843
  H 2.527976 -2.133530 -3.951682
  O 6.481475 -0.767899 -2.346549
  H 0.254544 -0.215051 0.784156
  H 0.572782 -0.173426 -0.952916
  H 1.039899 1.192347 0.057797
  H 4.014722 0.805558 -1.721281
  H 5.274284 0.509578 -0.465569
  H 4.748511 -2.648599 -3.040658
  H 4.832611 -1.324769 -4.163892
  H 2.596734 -0.485680 -3.355597
  H 2.516641 -1.844057 -2.220562
  H 6.981566 -0.255846 -1.684054
 20
 39.536020
  C 0.938570 0.062153 -0.074638
  C 2.310252 -0.480889 0.262468
  H 2.334234 -1.092145 1.163019
  C 3.389507 -0.344444 -0.413691
  C 4.555914 0.060424 -1.131878
  C 5.179487 -0.815942 -2.136446
  C 4.434793 -1.660141 -3.093767
  C 2.930885 -1.439781 -3.173134
  H 2.516898 -2.093880 -3.935349
  O 6.475965 -0.809748 -2.301490
  H 0.226283 -0.198944 0.699668
  H 0.595839 -0.347889 -1.022114
  H 0.981128 1.144783 -0.167899
  H 4.146375 0.891726 -1.738374
  H 5.287767 0.502779 -0.448906
  H 4.639131 -2.707732 -2.840620
  H 4.889477 -1.514753 -4.079107
  H 2.695908 -0.416122 -3.450649
  H 2.445866 -1.674220 -2.231654
  H 6.985252 -0.275477 -1.662449
 20
 39.080587
  C 0.996701 -0.012308 -0.054755
  C 2.356926 -0.572281 0.305781
  H 2.356511 -1.188624 1.201376
  C 3.454545 -0.433924 -0.341293
  C 4.565193 0.039611 -1.108847
  C 5.157658 -0.779789 -2.179317
  C 4.384141 -1.592503 -3.140518
  C 2.878474 -1.374885 -3.160685
  H 2.441996 -1.989978 -3.941335
  O 6.444645 -0.749912 -2.396574
  H 0.266707 -0.275123 0.703089
  H 0.669214 -0.409500 -1.013609
  H 1.052113 1.071646 -0.134847
  H 4.145574 0.905208 -1.655347
  H 5.326487 0.445957 -0.434600
  H 4.598886 -2.647578 -2.929812
  H 4.806627 -1.411959 -4.134034
  H 2.632285 -0.339140 -3.375857
  H 2.426098 -1.660448 -2.216769
  H 6.974768 -0.237208 -1.756521
 20
 38.998385
  C 1.024120 0.010812 -0.126065
  C 2.359823 -0.563885 0.293724
  H 2.314102 -1.177471 1.190153
  C 3.492313 -0.416765 -0.289079
  C 4.562063 0.071716 -1.108883
  C 5.145269 -0.753686 -2.180075
  C 4.372483 -1.578570 -3.130371
  C 2.856531 -1.442601 -3.086149
  H 2.422181 -2.059907 -3.868191
  O 6.426860 -0.717196 -2.410719
  H 0.257035 -0.260084 0.588388
  H 0.744476 -0.367793 -1.106122
  H 1.089911 1.093914 -0.182772
  H 4.113391 0.920308 -1.658949
  H 5.337061 0.501485 -0.465487
  H 4.653416 -2.626769 -2.963412
  H 4.745260 -1.347575 -4.136890
  H 2.546301 -0.416301 -3.260589
  H 2.460254 -1.779046 -2.136251
  H 6.962830 -0.193387 -1.781490
 20
 38.923518
  C 1.027919 0.013470 -0.125270
  C 2.360219 -0.570230 0.297149
  H 2.308787 -1.184906 1.191538
  C 3.495060 -0.430124 -0.283133
  C 4.558618 0.068321 -1.106932
  C 5.143082 -0.750216 -2.182452
  C 4.372361 -1.581330 -3.128450
  C 2.858996 -1.440968 -3.091618
  H 2.426550 -2.059959 -3.872827
  O 6.425047 -0.706096 -2.417496
  H 0.257278 -0.250718 0.590698
  H 0.745816 -0.365591 -1.104815
  H 1.101601 1.096621 -0.184587
  H 4.102543 0.917651 -1.649730
  H 5.334163 0.499875 -0.464667
  H 4.648465 -2.627514 -2.949763
  H 4.749527 -1.361879 -4.133269
  H 2.553124 -0.414634 -3.271518
  H 2.457494 -1.772700 -2.141229
  H 6.959028 -0.181873 -1.790857
