 23
 0.000000
  C 1.027742 0.090866 0.314493
  C 2.501450 0.105583 0.374013
  C 3.240839 0.598907 1.559039
  C 2.410835 1.093411 2.735337
  H 3.075788 1.423660 3.531520
  C 3.172655 -0.362889 -0.747800
  C 4.550902 -0.425710 -0.924404
  C 5.199576 -0.863999 -2.079232
  C 4.539614 -1.336230 -3.312757
  H 3.462765 -1.318174 -3.254015
  O 6.514341 -0.882524 -2.148148
  H 0.558805 0.477256 1.210523
  H 0.675616 -0.927118 0.140876
  H 0.687032 0.671366 -0.545022
  H 3.904757 1.407241 1.234067
  H 3.899504 -0.203976 1.907466
  H 1.779267 0.304554 3.136384
  H 1.785370 1.937126 2.454463
  H 2.546033 -0.696164 -1.563565
  H 5.182682 -0.110158 -0.104171
  H 4.879073 -2.347457 -3.531447
  H 4.872111 -0.724027 -4.149313
  H 6.975537 -0.571997 -1.345650
 23
 -0.126554
  C 1.025194 0.088547 0.326781
  C 2.497948 0.079856 0.376587
  C 3.241664 0.591699 1.552887
  C 2.411791 1.089467 2.728659
  H 3.075779 1.428724 3.519723
  C 3.161458 -0.389534 -0.750858
  C 4.543493 -0.408456 -0.934950
  C 5.197964 -0.853108 -2.080271
  C 4.544269 -1.372951 -3.299870
  H 3.465039 -1.316074 -3.265313
  O 6.507881 -0.837239 -2.155594
  H 0.559292 0.262777 1.288015
  H 0.637761 -0.824094 -0.121640
  H 0.739695 0.900581 -0.347451
  H 3.892659 1.406895 1.218677
  H 3.910599 -0.200908 1.905155
  H 1.787841 0.299485 3.139361
  H 1.780096 1.926492 2.442756
  H 2.539389 -0.759714 -1.552525
  H 5.168642 -0.050542 -0.128052
  H 4.849709 -2.408636 -3.450648
  H 4.915071 -0.821903 -4.163564
  H 6.963244 -0.503128 -1.359736
 23
 1.400693
  C 1.024882 0.051516 0.358858
  C 2.493326 0.076851 0.368880
  C 3.238880 0.563525 1.557175
  C 2.401740 1.102750 2.709807
  H 3.059979 1.418215 3.515492
  C 3.151702 -0.405000 -0.753197
  C 4.536867 -0.351574 -0.965758
  C 5.198047 -0.827337 -2.096992
  C 4.550888 -1.414522 -3.289702
  H 3.474567 -1.315048 -3.281971
  O 6.501677 -0.783805 -2.181034
  H 0.550787 0.034995 1.329628
  H 0.601464 -0.649260 -0.350231
  H 0.855055 1.058453 -0.060060
  H 3.937133 1.345129 1.241338
  H 3.850651 -0.266583 1.925964
  H 1.735239 0.343729 3.111385
  H 1.813014 1.963695 2.403530
  H 2.537358 -0.850644 -1.521255
  H 5.156027 0.067051 -0.183107
  H 4.815822 -2.470265 -3.352838
  H 4.959604 -0.945253 -4.183789
  H 6.950532 -0.407860 -1.401536
 23
 14.491880
  C 1.012405 0.028761 0.390261
  C 2.462405 0.107428 0.344332
  C 3.238816 0.572348 1.532448
  C 2.413307 1.039811 2.725627
  H 3.082645 1.348651 3.524747
  C 3.123422 -0.398950 -0.771080
  C 4.503769 -0.340571 -0.970902
  C 5.175215 -0.818563 -2.085881
  C 4.553267 -1.477875 -3.256859
  H 3.472256 -1.451672 -3.233053
  O 6.485673 -0.710159 -2.187131
  H 0.474597 0.186302 1.307949
  H 0.521493 -0.539894 -0.385140
  H 1.202354 1.065503 -0.069828
  H 3.904255 1.386178 1.232249
  H 3.869667 -0.262141 1.850158
  H 1.787617 0.241187 3.115237
  H 1.788352 1.891660 2.470641
  H 2.518368 -0.847682 -1.544156
  H 5.110061 0.127640 -0.207959
  H 4.888621 -2.513866 -3.301655
  H 4.913007 -0.998820 -4.166493
  H 6.914926 -0.291915 -1.418094
 23
 32.463857
  C 1.002404 -0.070506 0.450861
  C 2.419197 0.114995 0.340605
  C 3.222835 0.604526 1.518052
  C 2.407604 1.075108 2.717753
  H 3.084560 1.385766 3.509384
  C 3.107902 -0.432426 -0.768566
  C 4.481389 -0.352810 -0.970009
  C 5.158380 -0.817507 -2.084455
  C 4.542176 -1.437440 -3.283251
  H 3.462126 -1.381803 -3.278527
  O 6.481246 -0.737824 -2.164561
  H 0.452803 0.173831 1.339535
  H 0.479196 -0.588318 -0.336882
  H 1.522750 0.988595 -0.095497
  H 3.869223 1.423919 1.196278
  H 3.866346 -0.218080 1.835160
  H 1.787252 0.276497 3.115168
  H 1.779671 1.926622 2.468003
  H 2.507962 -0.913224 -1.525692
  H 5.086471 0.092824 -0.192889
  H 4.850087 -2.481237 -3.344037
  H 4.931065 -0.948529 -4.175185
  H 6.900817 -0.343405 -1.380332
 23
 41.096701
  C 0.986875 -0.118561 0.485011
  C 2.390822 0.153468 0.336027
  C 3.212351 0.641391 1.519589
  C 2.401359 1.073148 2.736016
  H 3.080590 1.383569 3.525864
  C 3.099764 -0.422101 -0.786367
  C 4.464961 -0.352083 -0.980957
  C 5.144699 -0.830245 -2.092861
  C 4.526546 -1.450679 -3.289268
  H 3.447012 -1.385853 -3.288693
  O 6.465577 -0.764253 -2.165471
  H 0.443143 0.146932 1.369983
  H 0.450560 -0.608997 -0.308756
  H 1.820777 1.031260 -0.186566
  H 3.833440 1.480758 1.202773
  H 3.877407 -0.170741 1.817156
  H 1.801823 0.254741 3.125013
  H 1.752950 1.915431 2.507712
  H 2.491846 -0.911123 -1.531842
  H 5.070220 0.096112 -0.205188
  H 4.826001 -2.497302 -3.343990
  H 4.922796 -0.970144 -4.182531
  H 6.886564 -0.368963 -1.381963
 23
 41.999805
  C 0.982711 -0.138578 0.505433
  C 2.368348 0.189326 0.335203
  C 3.200103 0.670103 1.525828
  C 2.392326 1.063786 2.756834
  H 3.072897 1.361506 3.550711
  C 3.093708 -0.407869 -0.797939
  C 4.452837 -0.345962 -0.987793
  C 5.131336 -0.842046 -2.099091
  C 4.503270 -1.454381 -3.291550
  H 3.425065 -1.370248 -3.294973
  O 6.445068 -0.801683 -2.163586
  H 0.450184 0.100968 1.403339
  H 0.437843 -0.606337 -0.294399
  H 2.119330 1.068420 -0.341023
  H 3.800152 1.528144 1.221514
  H 3.882725 -0.133770 1.806545
  H 1.801611 0.231096 3.128480
  H 1.734339 1.904253 2.550151
  H 2.479048 -0.917944 -1.524181
  H 5.059342 0.105490 -0.214665
  H 4.785121 -2.506134 -3.342309
  H 4.911185 -0.985599 -4.185863
  H 6.876154 -0.410800 -1.381853
 23
 44.530456
  C 0.987021 -0.110632 0.519826
  C 2.352818 0.175469 0.365003
  C 3.191286 0.671910 1.537445
  C 2.394841 1.058012 2.778826
  H 3.081697 1.363925 3.564090
  C 3.069010 -0.379140 -0.808005
  C 4.443205 -0.328078 -0.997306
  C 5.112822 -0.840332 -2.096517
  C 4.479893 -1.455427 -3.287778
  H 3.403736 -1.349676 -3.302298
  O 6.430599 -0.818660 -2.163019
  H 0.461876 0.088902 1.431928
  H 0.422008 -0.538000 -0.289278
  H 2.369845 0.938438 -0.539133
  H 3.775431 1.540065 1.225406
  H 3.891038 -0.120100 1.811804
  H 1.816590 0.219054 3.158503
  H 1.725179 1.890278 2.577491
  H 2.454926 -0.906380 -1.523289
  H 5.049220 0.123464 -0.225154
  H 4.740071 -2.513057 -3.323412
  H 4.904497 -1.005143 -4.184000
  H 6.865755 -0.433968 -1.381716
 23
 41.669884
  C 0.993540 -0.071890 0.524164
  C 2.336171 0.162008 0.391337
  C 3.183434 0.664404 1.540349
  C 2.407228 1.028327 2.801612
  H 3.105800 1.333156 3.576802
  C 3.037865 -0.328551 -0.824573
  C 4.435977 -0.300790 -1.009947
  C 5.102493 -0.839202 -2.089984
  C 4.469225 -1.480391 -3.268219
  H 3.392516 -1.380643 -3.282083
  O 6.423734 -0.824982 -2.156831
  H 0.464576 0.168938 1.425095
  H 0.413589 -0.488667 -0.280161
  H 2.520509 0.844897 -0.725118
  H 3.745414 1.544659 1.223483
  H 3.903151 -0.117378 1.792929
  H 1.845691 0.179189 3.181469
  H 1.724897 1.855501 2.622722
  H 2.424578 -0.883132 -1.520574
  H 5.038906 0.164563 -0.243014
  H 4.735512 -2.536922 -3.285129
  H 4.888186 -1.044504 -4.173795
  H 6.859510 -0.421995 -1.385421
 23
 31.126209
  C 1.001035 -0.068503 0.530281
  C 2.320600 0.167893 0.417704
  C 3.182391 0.661082 1.541883
  C 2.435454 0.977946 2.833480
  H 3.147933 1.283520 3.595725
  C 2.994897 -0.222758 -0.871457
  C 4.418653 -0.231661 -1.036660
  C 5.092801 -0.833330 -2.077516
  C 4.463219 -1.520077 -3.229998
  H 3.388213 -1.406152 -3.260010
  O 6.412505 -0.839560 -2.126183
  H 0.460762 0.146498 1.432847
  H 0.422014 -0.470096 -0.282896
  H 2.614062 0.859814 -0.988416
  H 3.712360 1.563181 1.227280
  H 3.931140 -0.107258 1.750794
  H 1.905192 0.106272 3.207540
  H 1.727750 1.790803 2.692067
  H 2.390003 -0.830690 -1.532080
  H 5.013265 0.261083 -0.280617
  H 4.714588 -2.580027 -3.194503
  H 4.898349 -1.134708 -4.150748
  H 6.847084 -0.404020 -1.371173
 23
 21.795372
  C 1.009398 -0.068783 0.530584
  C 2.320512 0.179164 0.416138
  C 3.194619 0.658588 1.528169
  C 2.477512 0.914909 2.849105
  H 3.199660 1.227154 3.599525
  C 2.951422 -0.088791 -0.927359
  C 4.395236 -0.149459 -1.058827
  C 5.077988 -0.824951 -2.049899
  C 4.452517 -1.566911 -3.167821
  H 3.382524 -1.422024 -3.230685
  O 6.395073 -0.854843 -2.073636
  H 0.470448 0.079220 1.448043
  H 0.427847 -0.435551 -0.297700
  H 2.641240 0.927927 -1.267844
  H 3.689943 1.584427 1.223576
  H 3.973124 -0.093033 1.688834
  H 1.988217 0.014742 3.211900
  H 1.736543 1.703939 2.749423
  H 2.381037 -0.786839 -1.532414
  H 4.982065 0.374658 -0.318287
  H 4.667427 -2.629950 -3.055467
  H 4.921878 -1.261432 -4.101710
  H 6.830061 -0.381107 -1.341311
 23
 19.309662
  C 0.989328 0.022951 0.523897
  C 2.319944 0.161804 0.425966
  C 3.199978 0.631708 1.535168
  C 2.493389 0.913220 2.855859
  H 3.225173 1.202357 3.606198
  C 2.934573 -0.134141 -0.911191
  C 4.388009 -0.166042 -1.036303
  C 5.079054 -0.810620 -2.042050
  C 4.460352 -1.544790 -3.168785
  H 3.382705 -1.456687 -3.195831
  O 6.395846 -0.813120 -2.073871
  H 0.451201 0.215441 1.433400
  H 0.393171 -0.311020 -0.308088
  H 2.562327 0.743171 -1.474368
  H 3.710594 1.544901 1.216112
  H 3.968073 -0.130527 1.700044
  H 1.973301 0.030341 3.218721
  H 1.778868 1.726310 2.756085
  H 2.444210 -0.984756 -1.387212
  H 4.967659 0.369160 -0.298438
  H 4.739399 -2.596951 -3.108388
  H 4.883256 -1.177105 -4.102824
  H 6.825882 -0.334550 -1.341765
 23
 18.614455
  C 0.988536 -0.009076 0.555620
  C 2.321394 0.112159 0.453440
  C 3.192631 0.634242 1.547108
  C 2.472091 1.037928 2.828083
  H 3.199970 1.361555 3.570735
  C 2.947532 -0.278371 -0.848825
  C 4.407261 -0.306558 -0.959297
  C 5.087980 -0.815633 -2.046863
  C 4.450323 -1.378780 -3.257785
  H 3.374239 -1.309325 -3.243385
  O 6.404124 -0.831538 -2.087768
  H 0.446514 0.263368 1.441846
  H 0.393487 -0.395658 -0.256783
  H 2.565818 0.454113 -1.581706
  H 3.739397 1.500353 1.168341
  H 3.930887 -0.136142 1.790315
  H 1.917338 0.203605 3.246694
  H 1.785598 1.862950 2.651051
  H 2.510473 -1.224103 -1.192818
  H 4.994167 0.109746 -0.153063
  H 4.749940 -2.423053 -3.368163
  H 4.841467 -0.863624 -4.135618
  H 6.845125 -0.467104 -1.298823
 23
 18.513929
  C 0.988485 -0.016000 0.558767
  C 2.320791 0.112542 0.452535
  C 3.192161 0.633387 1.545984
  C 2.472113 1.042316 2.824931
  H 3.198267 1.377659 3.561102
  C 2.947618 -0.275007 -0.849593
  C 4.407696 -0.306246 -0.958104
  C 5.088406 -0.813252 -2.046427
  C 4.450731 -1.372508 -3.259832
  H 3.372597 -1.290290 -3.251817
  O 6.403570 -0.835151 -2.084410
  H 0.453494 0.236655 1.455105
  H 0.390356 -0.384986 -0.257095
  H 2.563163 0.447735 -1.590617
  H 3.742846 1.499392 1.163737
  H 3.928488 -0.137933 1.792261
  H 1.924677 0.206129 3.253608
  H 1.778921 1.859761 2.642549
  H 2.512817 -1.223004 -1.188557
  H 4.994440 0.101770 -0.148979
  H 4.737643 -2.418198 -3.364186
  H 4.852850 -0.866255 -4.136214
  H 6.844160 -0.477462 -1.292409
