 20
 0.000000
  C 1.015176 0.114829 0.333915
  C 2.491141 0.114406 0.343269
  C 3.214794 0.594892 1.535624
  H 2.540997 0.912335 2.321995
  C 3.147923 -0.341621 -0.791628
  C 4.530409 -0.399768 -0.944133
  C 5.193287 -0.853564 -2.079798
  C 4.545960 -1.345468 -3.312320
  H 3.467337 -1.332984 -3.282703
  O 6.502832 -0.874725 -2.133428
  H 0.591122 0.497086 1.256731
  H 0.638474 -0.894912 0.163954
  H 0.646548 0.717073 -0.498200
  H 3.866241 1.429716 1.272560
  H 3.865388 -0.189397 1.925579
  H 2.527912 -0.671070 -1.611306
  H 5.141597 -0.069049 -0.115547
  H 4.897238 -2.358890 -3.510473
  H 4.898185 -0.747726 -4.153860
  H 6.950006 -0.553400 -1.329354
 20
 2.541400
  C 1.054775 0.065113 0.322517
  C 2.508579 0.202851 0.348238
  C 3.220842 0.683623 1.543027
  H 2.524697 0.958816 2.334631
  C 3.132790 -0.256158 -0.799595
  C 4.499772 -0.420619 -0.927164
  C 5.167205 -0.888363 -2.068594
  C 4.524761 -1.326157 -3.322424
  H 3.447543 -1.255697 -3.297923
  O 6.458159 -0.973831 -2.094608
  H 0.564453 0.282438 1.257947
  H 0.928875 -0.981927 0.016022
  H 0.611142 0.662330 -0.464827
  H 3.836293 1.554437 1.296101
  H 3.902300 -0.082562 1.923374
  H 2.497214 -0.549457 -1.619420
  H 5.121943 -0.146671 -0.082701
  H 4.820566 -2.353634 -3.532756
  H 4.912881 -0.729379 -4.147373
  H 6.901147 -0.692366 -1.282026
 20
 2.923297
  C 1.072315 -0.252751 0.516864
  C 2.481575 0.132180 0.322244
  C 3.153416 0.982741 1.319061
  H 2.494860 1.235015 2.144853
  C 3.140153 -0.315247 -0.817912
  C 4.508377 -0.542549 -0.901039
  C 5.181706 -1.001899 -2.029434
  C 4.612768 -1.009360 -3.395435
  H 3.701770 -0.433268 -3.469072
  O 6.408511 -1.458721 -1.955697
  H 0.755156 -0.095525 1.543944
  H 0.938198 -1.297513 0.247450
  H 0.416008 0.331548 -0.130937
  H 3.500605 1.901503 0.845270
  H 4.045941 0.498712 1.715467
  H 2.522436 -0.580742 -1.664274
  H 5.078484 -0.471135 0.015883
  H 4.420371 -2.038330 -3.703413
  H 5.355033 -0.618651 -4.090571
  H 6.793701 -1.463513 -1.059265
 20
 12.305959
  C 1.210250 -0.458788 0.666561
  C 2.480125 0.203186 0.311633
  C 3.060679 1.236302 1.176968
  H 2.450885 1.422688 2.057371
  C 3.139056 -0.184503 -0.872306
  C 4.431360 -0.665798 -0.895948
  C 5.131787 -1.096562 -2.018891
  C 4.723138 -0.811632 -3.412374
  H 3.957212 -0.045913 -3.470502
  O 6.224579 -1.819545 -1.912877
  H 1.003009 -0.351083 1.727746
  H 1.279341 -1.513546 0.405970
  H 0.364801 -0.036153 0.124715
  H 3.171404 2.160079 0.608212
  H 4.073593 0.969211 1.487484
  H 2.555739 -0.176481 -1.785861
  H 4.901713 -0.835673 0.067346
  H 4.361216 -1.726550 -3.879257
  H 5.596687 -0.502253 -3.983104
  H 6.495929 -2.015061 -0.997981
 20
 26.283484
  C 1.414580 -0.628747 0.803371
  C 2.505579 0.237974 0.345756
  C 2.909964 1.428709 1.098699
  H 2.308456 1.568461 1.991413
  C 3.187679 -0.089394 -0.880777
  C 4.340046 -0.821222 -0.912349
  C 5.062749 -1.193917 -2.051659
  C 4.808223 -0.675114 -3.414297
  H 4.168589 0.197943 -3.412964
  O 6.020500 -2.097388 -1.985473
  H 1.274550 -0.533389 1.876766
  H 1.633191 -1.662101 0.537995
  H 0.462014 -0.360795 0.335102
  H 2.828885 2.308105 0.455578
  H 3.964940 1.380787 1.379038
  H 2.723749 0.246865 -1.799458
  H 4.698819 -1.211095 0.032825
  H 4.354010 -1.459394 -4.022356
  H 5.757361 -0.432401 -3.887569
  H 6.176563 -2.454318 -1.092585
 20
 14.326484
  C 1.649120 -0.743528 0.932280
  C 2.584726 0.243155 0.377310
  C 2.723465 1.562055 1.015596
  H 2.078173 1.664683 1.879127
  C 3.315422 -0.027044 -0.801635
  C 4.275868 -1.011249 -0.933629
  C 4.976271 -1.285488 -2.105641
  C 4.804973 -0.577281 -3.391146
  H 4.235391 0.338446 -3.296476
  O 5.875101 -2.248409 -2.150298
  H 1.516300 -0.626940 2.005118
  H 1.902718 -1.769945 0.675812
  H 0.676599 -0.552569 0.469526
  H 2.514685 2.369386 0.309505
  H 3.764944 1.705017 1.320504
  H 3.109029 0.621022 -1.645598
  H 4.517914 -1.595964 -0.054847
  H 4.304609 -1.237542 -4.099066
  H 5.788857 -0.360798 -3.813016
  H 5.992156 -2.731917 -1.312691
 20
 3.612618
  C 1.902160 -0.805950 1.055299
  C 2.679681 0.263571 0.414706
  C 2.533572 1.641036 0.928239
  H 1.844727 1.691992 1.765560
  C 3.467327 0.042907 -0.710511
  C 4.209385 -1.105190 -0.978131
  C 4.891218 -1.340443 -2.168744
  C 4.816451 -0.497452 -3.382802
  H 4.323401 0.451421 -3.216082
  O 5.660606 -2.395537 -2.310181
  H 1.841491 -0.675232 2.134120
  H 2.238046 -1.803654 0.797338
  H 0.878425 -0.719639 0.679638
  H 2.196177 2.316829 0.144366
  H 3.506776 2.018003 1.245359
  H 3.551487 0.871726 -1.401883
  H 4.298943 -1.843674 -0.193007
  H 4.278142 -1.044433 -4.155008
  H 5.820256 -0.335614 -3.769506
  H 5.713952 -2.972452 -1.525867
 20
 0.599444
  C 2.118758 -0.815437 1.220071
  C 2.752415 0.265028 0.449377
  C 2.394576 1.654465 0.804341
  H 1.797697 1.703158 1.709341
  C 3.588412 0.059184 -0.636213
  C 4.142266 -1.159917 -1.032474
  C 4.799802 -1.372106 -2.242225
  C 4.856862 -0.405475 -3.359052
  H 4.267479 0.484093 -3.181586
  O 5.410026 -2.505412 -2.493383
  H 2.240395 -0.641336 2.288879
  H 2.475440 -1.804616 0.960832
  H 1.042283 -0.783245 1.036604
  H 1.831656 2.113831 -0.009962
  H 3.290736 2.262510 0.927079
  H 3.865072 0.940972 -1.197493
  H 4.078636 -1.999951 -0.354296
  H 4.511169 -0.897321 -4.267881
  H 5.896024 -0.131468 -3.543989
  H 5.398591 -3.154372 -1.764971
 20
 4.648589
  C 2.064729 -0.829121 0.961367
  C 2.828433 0.320809 0.446215
  C 2.484403 1.679262 0.918040
  H 1.794693 1.653010 1.751341
  C 3.774748 0.152056 -0.540007
  C 4.374311 -1.071875 -0.896673
  C 4.827271 -1.359933 -2.176603
  C 4.523295 -0.535181 -3.365049
  H 3.890028 0.314159 -3.132232
  O 5.504993 -2.453116 -2.442423
  H 1.874599 -0.749687 2.025649
  H 2.548354 -1.765538 0.698477
  H 1.089830 -0.840108 0.468221
  H 2.023969 2.248304 0.111118
  H 3.382975 2.229396 1.202120
  H 4.103674 1.036280 -1.066799
  H 4.615760 -1.770313 -0.102880
  H 4.039252 -1.156228 -4.117605
  H 5.456117 -0.195750 -3.811153
  H 5.725844 -3.001005 -1.667310
 20
 14.693138
  C 2.148186 -0.833454 0.687976
  C 2.889918 0.407960 0.404826
  C 2.465902 1.694662 0.997302
  H 1.700571 1.550190 1.750761
  C 3.928144 0.302324 -0.479105
  C 4.521989 -0.968345 -0.790820
  C 4.797903 -1.355320 -2.093762
  C 4.257627 -0.655837 -3.275317
  H 3.646520 0.193789 -2.993777
  O 5.468738 -2.449840 -2.372097
  H 1.774907 -0.917423 1.699249
  H 2.811751 -1.636205 0.354171
  H 1.312989 -0.940277 -0.008719
  H 2.062676 2.338248 0.221562
  H 3.316974 2.221555 1.434209
  H 4.345428 1.184590 -0.942485
  H 5.062594 -1.457332 0.006142
  H 3.666475 -1.346146 -3.874799
  H 5.086727 -0.333898 -3.908086
  H 5.840495 -2.922126 -1.594114
 20
 32.246052
  C 2.276024 -0.810534 0.532270
  C 2.930600 0.499726 0.373926
  C 2.413594 1.710117 1.037893
  H 1.631923 1.473930 1.748206
  C 3.995189 0.442164 -0.472428
  C 4.530469 -0.901968 -0.704550
  C 4.724857 -1.358945 -2.031592
  C 4.138759 -0.702735 -3.182589
  H 3.562775 0.172560 -2.870502
  O 5.365268 -2.488531 -2.304879
  H 1.847569 -1.059928 1.479240
  H 3.179234 -1.454966 0.066911
  H 1.615086 -1.102490 -0.298971
  H 2.003283 2.361861 0.276042
  H 3.203443 2.251307 1.554669
  H 4.453213 1.291983 -0.898965
  H 5.235943 -1.263389 0.023815
  H 3.499702 -1.396319 -3.723321
  H 4.912923 -0.398823 -3.879824
  H 5.768111 -2.972505 -1.535883
 20
 41.522466
  C 2.216832 -0.750012 0.479163
  C 2.906439 0.508644 0.336870
  C 2.410188 1.733737 1.033894
  H 1.622031 1.489386 1.739996
  C 4.022802 0.447016 -0.422036
  C 4.478951 -0.954484 -0.670162
  C 4.710656 -1.381209 -2.013173
  C 4.051974 -0.717432 -3.150538
  H 3.383066 0.069555 -2.820766
  O 5.450022 -2.409952 -2.306800
  H 1.745438 -0.971926 1.425257
  H 3.490649 -1.457555 -0.148759
  H 1.695831 -1.162513 -0.373393
  H 2.003097 2.427340 0.299615
  H 3.216455 2.239439 1.559174
  H 4.600724 1.293080 -0.748816
  H 5.245393 -1.267579 0.042511
  H 3.511514 -1.452410 -3.747125
  H 4.807779 -0.300249 -3.816935
  H 5.885075 -2.851775 -1.552628
 20
 39.203307
  C 2.083295 -0.697294 0.504602
  C 2.865110 0.476207 0.348692
  C 2.434911 1.752225 1.011634
  H 1.618421 1.576595 1.704920
  C 4.009507 0.381027 -0.378015
  C 4.485869 -1.011730 -0.652756
  C 4.747606 -1.362323 -2.030314
  C 4.062820 -0.670803 -3.129503
  H 3.345058 0.053863 -2.760980
  O 5.544072 -2.320653 -2.365617
  H 1.531658 -0.839425 1.420980
  H 3.596371 -1.578929 -0.219311
  H 1.664671 -1.201013 -0.350438
  H 2.089118 2.447975 0.249387
  H 3.259590 2.219508 1.544279
  H 4.603200 1.229170 -0.672047
  H 5.290157 -1.297536 0.032744
  H 3.576216 -1.399858 -3.778088
  H 4.796118 -0.168427 -3.761432
  H 5.998284 -2.786314 -1.635298
 20
 34.621120
  C 1.936164 -0.627496 0.509681
  C 2.815256 0.446317 0.358360
  C 2.481225 1.769053 0.993429
  H 1.638263 1.675486 1.670898
  C 3.988893 0.300484 -0.333845
  C 4.480269 -1.077519 -0.642612
  C 4.781705 -1.337702 -2.045105
  C 4.083541 -0.612797 -3.108966
  H 3.311890 0.038678 -2.710978
  O 5.639265 -2.218775 -2.415522
  H 1.272071 -0.653781 1.358197
  H 3.647102 -1.720200 -0.286640
  H 1.659531 -1.266406 -0.308838
  H 2.211598 2.476559 0.211267
  H 3.329343 2.175977 1.538480
  H 4.608170 1.145175 -0.583514
  H 5.311355 -1.340935 0.020465
  H 3.664433 -1.321871 -3.822903
  H 4.797654 -0.020691 -3.684009
  H 6.103181 -2.712328 -1.708371
 20
 31.857115
  C 1.810069 -0.526252 0.420278
  C 2.770050 0.454266 0.354834
  C 2.561050 1.761658 1.071920
  H 1.703083 1.709172 1.733265
  C 3.963157 0.267527 -0.327967
  C 4.453910 -1.103719 -0.651178
  C 4.814197 -1.311247 -2.053478
  C 4.087661 -0.617137 -3.119590
  H 3.284463 -0.003261 -2.726154
  O 5.776722 -2.075847 -2.414194
  H 0.990469 -0.440222 1.111550
  H 3.649347 -1.787413 -0.330862
  H 1.676292 -1.258368 -0.355300
  H 2.379383 2.546753 0.341382
  H 3.438269 2.038912 1.651204
  H 4.592108 1.110434 -0.570524
  H 5.274617 -1.366652 0.026166
  H 3.695748 -1.351338 -3.826987
  H 4.770780 -0.004412 -3.703485
  H 6.257968 -2.554922 -1.706094
