 21
 0.000000
  C 0.814017 0.048579 0.320610
  C 2.301170 0.060535 0.102776
  C 3.223119 -0.007268 1.314640
  C 2.576304 -0.091625 2.692054
  H 3.354190 -0.133967 3.449883
  C 2.894898 0.125729 -1.085300
  C 2.385066 0.203953 -2.492966
  C 0.886046 0.220086 -2.757010
  H 0.717116 0.278792 -3.829753
  H 3.980804 0.124583 -1.080209
  H 0.564450 -0.000559 1.374385
  H 0.357294 -0.813019 -0.159569
  H 0.356737 0.951844 -0.078387
  H 3.868419 0.876392 1.298159
  H 3.875439 -0.877552 1.194201
  H 1.964402 -0.985542 2.787339
  H 1.958120 0.780180 2.893046
  H 2.818446 -0.643725 -3.036028
  H 2.820389 1.105010 -2.940071
  H 0.411769 1.080781 -2.294992
  H 0.409834 -0.684538 -2.391028
 21
 5.873162
  C 0.813287 0.092173 0.343110
  C 2.259608 0.061434 0.105335
  C 3.225538 0.002469 1.337852
  C 2.588271 -0.102289 2.709504
  H 3.371623 -0.136310 3.463883
  C 2.864406 0.110628 -1.079056
  C 2.369336 0.186683 -2.500334
  C 0.872643 0.236168 -2.783482
  H 0.717738 0.289998 -3.859927
  H 3.950507 0.081002 -1.061762
  H 0.525616 0.007723 1.385257
  H 0.603567 -0.813109 -0.203704
  H 0.310729 0.949909 -0.087715
  H 3.850166 0.895954 1.317873
  H 3.890402 -0.850967 1.202700
  H 1.994550 -1.010171 2.802559
  H 1.958420 0.759848 2.921663
  H 2.790698 -0.675526 -3.030075
  H 2.831016 1.073399 -2.949099
  H 0.415665 1.112670 -2.336892
  H 0.366970 -0.652775 -2.419437
 21
 18.153330
  C 0.802948 0.120676 0.353315
  C 2.243006 0.061680 0.120056
  C 3.228139 0.013996 1.344295
  C 2.594326 -0.113034 2.708333
  H 3.372023 -0.136978 3.469105
  C 2.850922 0.095600 -1.067772
  C 2.357597 0.166504 -2.491573
  C 0.865031 0.250630 -2.783597
  H 0.719948 0.296297 -3.862098
  H 3.935328 0.043475 -1.050176
  H 0.477415 -0.014438 1.375401
  H 0.827751 -0.776571 -0.239381
  H 0.285804 0.948197 -0.110316
  H 3.827231 0.922881 1.318935
  H 3.906244 -0.821186 1.194476
  H 2.020790 -1.032226 2.791867
  H 1.946899 0.736112 2.923096
  H 2.761429 -0.711656 -3.010479
  H 2.839082 1.037464 -2.948835
  H 0.429143 1.146420 -2.351485
  H 0.326634 -0.619277 -2.414798
 21
 31.928085
  C 0.801673 0.127647 0.358314
  C 2.237506 0.064541 0.101927
  C 3.232589 0.026369 1.338929
  C 2.577490 -0.123911 2.710344
  H 3.350488 -0.138874 3.480010
  C 2.854830 0.083417 -1.078555
  C 2.356516 0.150347 -2.499022
  C 0.863113 0.275686 -2.769865
  H 0.701771 0.311561 -3.848922
  H 3.936945 0.007297 -1.059057
  H 0.481644 -0.016952 1.369598
  H 1.009616 -0.763985 -0.204635
  H 0.244264 0.900123 -0.145460
  H 3.811238 0.960854 1.316872
  H 3.929970 -0.793397 1.183290
  H 2.021934 -1.046432 2.781210
  H 1.909600 0.712860 2.924284
  H 2.728640 -0.750643 -3.015489
  H 2.859629 1.002639 -2.974311
  H 0.461844 1.193210 -2.343262
  H 0.305410 -0.573987 -2.377386
 21
 45.270398
  C 0.793671 0.153209 0.383070
  C 2.231559 0.067002 0.100330
  C 3.211846 0.028990 1.319624
  C 2.568116 -0.131680 2.696525
  H 3.339987 -0.143494 3.452915
  C 2.863652 0.080572 -1.079608
  C 2.363514 0.143318 -2.505534
  C 0.869872 0.277905 -2.765155
  H 0.698352 0.306994 -3.839291
  H 3.944729 0.001241 -1.051706
  H 0.484637 0.007911 1.407575
  H 1.147746 -0.730950 -0.151366
  H 0.209081 0.882121 -0.148634
  H 3.773027 0.956530 1.295543
  H 3.913459 -0.781847 1.160869
  H 2.018663 -1.058597 2.770441
  H 1.912770 0.677306 2.914980
  H 2.725786 -0.767028 -3.022229
  H 2.871048 0.992817 -2.993294
  H 0.485136 1.191727 -2.347309
  H 0.316517 -0.553859 -2.365646
 21
 54.686631
  C 0.785485 0.178830 0.363385
  C 2.231631 0.063593 0.082779
  C 3.206926 0.023585 1.326458
  C 2.569171 -0.145339 2.697860
  H 3.352921 -0.156160 3.456457
  C 2.879851 0.077697 -1.098921
  C 2.374527 0.140464 -2.516553
  C 0.870464 0.279136 -2.743865
  H 0.672400 0.304897 -3.815201
  H 3.953207 0.000982 -1.064137
  H 0.472404 0.060904 1.374655
  H 1.254703 -0.726497 -0.123549
  H 0.187790 0.854836 -0.219692
  H 3.760528 0.959846 1.307909
  H 3.922004 -0.787964 1.169199
  H 2.019209 -1.087608 2.770150
  H 1.895064 0.681436 2.928226
  H 2.722592 -0.763077 -3.031875
  H 2.873865 0.981774 -3.011155
  H 0.494963 1.207124 -2.313838
  H 0.319256 -0.560292 -2.321359
 21
 61.922522
  C 0.786427 0.202316 0.379643
  C 2.230154 0.063853 0.079094
  C 3.196297 0.022296 1.309199
  C 2.562161 -0.155695 2.690942
  H 3.350378 -0.169883 3.443813
  C 2.882211 0.078868 -1.110631
  C 2.379879 0.139443 -2.518010
  C 0.882214 0.280331 -2.736437
  H 0.676772 0.300179 -3.803957
  H 3.946986 0.003251 -1.072823
  H 0.488665 0.106599 1.388366
  H 1.343510 -0.715924 -0.056367
  H 0.158379 0.818134 -0.244788
  H 3.740389 0.951869 1.292016
  H 3.909011 -0.777478 1.149224
  H 2.012288 -1.099616 2.762109
  H 1.894013 0.663676 2.930296
  H 2.725025 -0.773563 -3.035043
  H 2.880419 0.979694 -3.018011
  H 0.514567 1.207326 -2.311473
  H 0.337231 -0.550153 -2.307617
 21
 66.993174
  C 0.781445 0.232238 0.394146
  C 2.225956 0.062801 0.088167
  C 3.203755 0.018075 1.328562
  C 2.571940 -0.169455 2.693922
  H 3.354322 -0.193361 3.441693
  C 2.881118 0.080384 -1.103863
  C 2.380630 0.139624 -2.533232
  C 0.875382 0.281861 -2.770531
  H 0.679914 0.294557 -3.844737
  H 3.954747 0.004931 -1.058146
  H 0.476837 0.166142 1.417741
  H 1.407168 -0.722166 0.005614
  H 0.146089 0.768290 -0.263628
  H 3.753932 0.962464 1.317997
  H 3.927236 -0.788648 1.161130
  H 2.025484 -1.102458 2.753752
  H 1.906654 0.648677 2.940462
  H 2.724678 -0.766595 -3.042282
  H 2.884805 0.974633 -3.032105
  H 0.501359 1.222280 -2.352372
  H 0.318004 -0.556017 -2.336242
 21
 71.461570
  C 0.785834 0.258661 0.391979
  C 2.228419 0.060190 0.088257
  C 3.208535 0.016495 1.328249
  C 2.572075 -0.181010 2.694842
  H 3.361200 -0.214078 3.453302
  C 2.885278 0.080983 -1.112021
  C 2.380109 0.139199 -2.533213
  C 0.877108 0.279998 -2.764181
  H 0.677479 0.288732 -3.827406
  H 3.972109 0.006414 -1.068370
  H 0.474036 0.216413 1.404128
  H 1.469851 -0.726884 0.044718
  H 0.133860 0.733637 -0.311283
  H 3.757458 0.962327 1.324227
  H 3.927565 -0.783354 1.156524
  H 2.021566 -1.114754 2.744346
  H 1.906507 0.639196 2.946199
  H 2.718363 -0.759770 -3.041883
  H 2.879899 0.968624 -3.034063
  H 0.508122 1.210080 -2.353005
  H 0.328583 -0.545948 -2.330130
 21
 74.770716
  C 0.785539 0.295780 0.416028
  C 2.221833 0.060199 0.102666
  C 3.214233 0.015281 1.329134
  C 2.583700 -0.193854 2.693221
  H 3.367771 -0.237236 3.442863
  C 2.876684 0.086624 -1.106552
  C 2.381323 0.139211 -2.531295
  C 0.884049 0.276050 -2.787169
  H 0.703465 0.275075 -3.854645
  H 3.959781 0.014746 -1.061027
  H 0.470190 0.269051 1.424950
  H 1.514395 -0.733595 0.093912
  H 0.114444 0.700741 -0.317591
  H 3.760673 0.960530 1.327455
  H 3.935995 -0.786089 1.143272
  H 2.029282 -1.125287 2.734394
  H 1.925468 0.622153 2.952967
  H 2.726662 -0.762436 -3.035173
  H 2.886062 0.968737 -3.029334
  H 0.504570 1.216044 -2.388837
  H 0.324946 -0.555291 -2.352301
 21
 77.342801
  C 0.790856 0.333222 0.410917
  C 2.224664 0.052570 0.102468
  C 3.219334 0.012858 1.327830
  C 2.586861 -0.204915 2.692794
  H 3.382684 -0.255524 3.456392
  C 2.884255 0.085268 -1.114193
  C 2.389483 0.136884 -2.530367
  C 0.883309 0.273083 -2.782639
  H 0.696658 0.269897 -3.856368
  H 3.961014 0.012716 -1.069565
  H 0.452357 0.311246 1.427610
  H 1.560850 -0.754344 0.112159
  H 0.119154 0.669503 -0.339637
  H 3.761715 0.960119 1.326814
  H 3.938185 -0.780409 1.137406
  H 2.028412 -1.138417 2.726485
  H 1.923867 0.616983 2.958629
  H 2.736940 -0.766592 -3.037038
  H 2.896028 0.970642 -3.029647
  H 0.506160 1.206781 -2.386009
  H 0.334156 -0.547327 -2.350615
 21
 79.408606
  C 0.796249 0.364867 0.405324
  C 2.225476 0.037451 0.106353
  C 3.227044 0.011145 1.337529
  C 2.592991 -0.208770 2.689239
  H 3.373492 -0.257859 3.444990
  C 2.889150 0.077390 -1.118179
  C 2.391198 0.135257 -2.529817
  C 0.889653 0.273669 -2.770124
  H 0.693246 0.274990 -3.851638
  H 3.960898 0.001683 -1.075031
  H 0.442459 0.337407 1.403938
  H 1.603565 -0.784647 0.126317
  H 0.116037 0.648286 -0.369362
  H 3.762186 0.963282 1.336873
  H 3.958137 -0.786592 1.146387
  H 2.036011 -1.144967 2.717487
  H 1.926902 0.609880 2.951883
  H 2.737822 -0.775171 -3.047045
  H 2.903276 0.980746 -3.032535
  H 0.517487 1.204044 -2.365612
  H 0.341380 -0.551214 -2.334844
 21
 80.200894
  C 0.811683 0.428614 0.412911
  C 2.218321 0.023999 0.110439
  C 3.228912 0.009510 1.332721
  C 2.599704 -0.222498 2.695810
  H 3.387194 -0.275960 3.451242
  C 2.889619 0.077104 -1.120041
  C 2.396634 0.132893 -2.534566
  C 0.894690 0.267181 -2.786428
  H 0.708611 0.264164 -3.859693
  H 3.967914 -0.004828 -1.070792
  H 0.438654 0.361641 1.412470
  H 1.642008 -0.822352 0.137599
  H 0.113151 0.642799 -0.364862
  H 3.753203 0.963196 1.328836
  H 3.957405 -0.774632 1.133836
  H 2.042289 -1.161012 2.721319
  H 1.932142 0.594769 2.968340
  H 2.747877 -0.770607 -3.049933
  H 2.903015 0.970659 -3.028638
  H 0.515638 1.201367 -2.387001
  H 0.345414 -0.560161 -2.352891
 21
 79.875849
  C 0.830908 0.498154 0.413188
  C 2.214610 0.012727 0.116011
  C 3.228536 0.006103 1.333102
  C 2.601142 -0.238010 2.693795
  H 3.390991 -0.294915 3.451961
  C 2.894151 0.075448 -1.124076
  C 2.400126 0.127111 -2.534525
  C 0.899281 0.252526 -2.783124
  H 0.711039 0.243404 -3.855432
  H 3.974048 -0.011301 -1.072692
  H 0.436300 0.376511 1.400990
  H 1.685093 -0.861158 0.131124
  H 0.126276 0.664049 -0.373494
  H 3.741657 0.959558 1.333649
  H 3.965781 -0.773945 1.129356
  H 2.048165 -1.176784 2.711074
  H 1.931141 0.573348 2.971172
  H 2.754798 -0.773407 -3.049283
  H 2.906880 0.973085 -3.034138
  H 0.515131 1.189615 -2.384893
  H 0.354247 -0.578540 -2.342718
