 10
 0.000000
  H 1.407581 0.136524 0.387230
  C 2.486343 0.113758 0.335419
  H 3.040981 0.459397 1.196794
  C 3.116501 -0.342034 -0.799509
  C 4.523468 -0.389778 -0.921150
  C 5.125877 -0.849731 -2.067137
  H 4.537105 -1.187252 -2.909343
  H 6.201327 -0.887987 -2.160628
  H 2.522646 -0.680694 -1.641672
  H 5.134828 -0.055913 -0.091314
 10
 -0.462687
  H 1.425535 0.289896 0.335349
  C 2.496240 0.146028 0.308245
  H 3.066062 0.587575 1.113491
  C 3.080732 -0.506280 -0.727789
  C 4.490110 -0.476073 -0.941649
  C 5.129441 -0.784409 -2.090403
  H 4.630017 -0.776368 -3.048843
  H 6.183261 -1.017287 -2.104967
  H 2.477029 -1.058675 -1.437922
  H 5.082860 -0.176121 -0.079383
 10
 0.491910
  H 1.427504 0.278726 0.329477
  C 2.502642 0.186324 0.286950
  H 3.075510 0.728471 1.023645
  C 3.074857 -0.540378 -0.706154
  C 4.482891 -0.531959 -0.935914
  C 5.132884 -0.752226 -2.094892
  H 4.648663 -0.638343 -3.056071
  H 6.183552 -1.002468 -2.121170
  H 2.462442 -1.142330 -1.365783
  H 5.071834 -0.332150 -0.039985
 10
 2.555889
  H 1.454719 0.377639 0.306946
  C 2.522299 0.245983 0.220407
  H 3.132612 0.877025 0.848551
  C 3.051445 -0.621142 -0.670775
  C 4.461617 -0.635709 -0.928431
  C 5.135011 -0.678165 -2.081611
  H 4.679925 -0.401619 -3.024190
  H 6.183610 -0.934023 -2.128764
  H 2.427700 -1.315633 -1.219288
  H 5.035284 -0.597426 0.007258
 10
 5.004940
  H 1.464007 0.415579 0.230109
  C 2.532503 0.274014 0.161187
  H 3.139183 0.985739 0.704456
  C 3.056592 -0.694875 -0.609265
  C 4.468055 -0.697486 -0.935401
  C 5.127105 -0.581006 -2.073557
  H 4.653207 -0.244426 -2.986636
  H 6.187342 -0.770325 -2.156955
  H 2.454340 -1.500747 -1.009976
  H 5.038271 -0.816888 -0.001132
 10
 7.000158
  H 1.476922 0.533468 0.182088
  C 2.540818 0.351705 0.130393
  H 3.157645 1.041595 0.688708
  C 3.045692 -0.646677 -0.589482
  C 4.450465 -0.778857 -0.956477
  C 5.135881 -0.580303 -2.048824
  H 4.686055 -0.236587 -2.971628
  H 6.202302 -0.738520 -2.113272
  H 2.425540 -1.475822 -0.926465
  H 4.955603 -1.146341 -0.048182
 10
 5.117294
  H 1.511123 0.651370 0.143979
  C 2.568102 0.441372 0.092592
  H 3.203027 1.127306 0.636643
  C 3.054814 -0.594481 -0.574161
  C 4.428112 -0.885400 -0.942660
  C 5.140149 -0.568828 -2.008245
  H 4.698680 -0.152150 -2.903353
  H 6.207139 -0.727743 -2.056916
  H 2.400953 -1.428957 -0.845244
  H 4.859678 -1.522942 -0.162722
 10
 5.080987
  H 1.633868 0.760103 0.269887
  C 2.663766 0.496419 0.052953
  H 3.420280 1.176761 0.431217
  C 2.982875 -0.620900 -0.601484
  C 4.298470 -1.008827 -1.047214
  C 5.161861 -0.529624 -1.926299
  H 4.851738 0.036436 -2.795899
  H 6.218564 -0.754663 -1.881507
  H 2.240785 -1.404606 -0.746320
  H 4.590719 -1.788163 -0.330518
 10
 9.981881
  H 1.749862 0.780908 0.456393
  C 2.733292 0.504902 0.109654
  H 3.550384 1.146098 0.404704
  C 2.925145 -0.608139 -0.628393
  C 4.190030 -1.002753 -1.188181
  C 5.189810 -0.556498 -1.913991
  H 5.033878 0.054773 -2.793514
  H 6.211736 -0.856607 -1.744084
  H 2.109757 -1.302965 -0.806488
  H 4.365918 -1.771578 -0.406360
 10
 18.192223
  H 1.804246 0.702513 0.604620
  C 2.760179 0.488454 0.162468
  H 3.573799 1.152547 0.395202
  C 2.918197 -0.589713 -0.635874
  C 4.129234 -0.892287 -1.331591
  C 5.227137 -0.603407 -1.965167
  H 5.229437 -0.025614 -2.883308
  H 6.192115 -1.016256 -1.703875
  H 2.091107 -1.268071 -0.806541
  H 4.223477 -1.619960 -0.451521
 10
 22.985093
  H 1.667465 0.519747 0.624108
  C 2.667674 0.437060 0.239136
  H 3.390770 1.171313 0.550442
  C 2.987267 -0.586578 -0.629967
  C 4.223089 -0.729826 -1.284978
  C 5.254394 -0.654736 -2.046527
  H 5.241618 -0.069198 -2.957639
  H 6.183289 -1.176308 -1.867803
  H 2.197103 -1.269012 -0.932576
  H 4.100406 -1.354779 -0.222798
 10
 25.997626
  H 1.765396 0.598183 0.641090
  C 2.756225 0.469701 0.249834
  H 3.512214 1.188511 0.514661
  C 3.046891 -0.624563 -0.605231
  C 4.209930 -0.689575 -1.386260
  C 5.268098 -0.686981 -2.094051
  H 5.312013 -0.139069 -3.028021
  H 6.173165 -1.232841 -1.867054
  H 2.207419 -1.247337 -0.916874
  H 3.858862 -1.332128 -0.097291
 10
 24.075738
  H 1.766439 0.568327 0.668449
  C 2.750844 0.464118 0.255434
  H 3.494015 1.203580 0.488988
  C 3.058684 -0.658560 -0.592654
  C 4.182802 -0.650485 -1.433479
  C 5.245060 -0.658828 -2.121826
  H 5.309517 -0.155806 -3.080823
  H 6.160753 -1.173994 -1.856086
  H 2.201763 -1.226621 -0.959143
  H 3.653411 -1.375801 0.057308
 10
 22.470229
  H 1.850591 0.537210 0.724986
  C 2.810906 0.458695 0.247360
  H 3.541298 1.227172 0.414979
  C 3.122814 -0.690658 -0.573026
  C 4.226790 -0.659442 -1.438631
  C 5.278681 -0.644582 -2.138600
  H 5.318932 -0.217366 -3.133234
  H 6.233182 -1.073729 -1.838605
  H 2.245027 -1.176581 -1.014501
  H 3.481990 -1.456820 0.160073
 10
 22.127307
  H 1.869366 0.519037 0.754810
  C 2.815196 0.460775 0.252274
  H 3.528294 1.252222 0.390922
  C 3.131529 -0.692121 -0.566195
  C 4.236080 -0.659524 -1.430476
  C 5.282797 -0.644760 -2.137806
  H 5.314157 -0.240331 -3.144081
  H 6.241749 -1.049946 -1.831943
  H 2.250243 -1.155510 -1.030187
  H 3.440801 -1.485941 0.153485
