13

H 3.587623873717966 -0.597645811784721 -0.9854050185761097
C 4.65749 -0.605282 -1.00051
C 5.378045 -1.120486 -2.012098
C 6.816765 -1.12971 -2.030317
C 7.533994 -1.642061 -3.035497
C 9.023928 -1.662426 -3.075106
H 5.161821 -0.170239 -0.146423
H 4.874215 -1.55561 -2.86636
H 7.324572 -0.695851 -1.177449
H 7.034091 -2.078169 -3.891648
H 9.459644 -1.20925 -2.186027
H 9.382232 -1.116497 -3.949406
H 9.382973 -2.690419 -3.147502
