10

H 1.3614225625588159 0.14130525175679748 0.40407042118797387
C 2.43139 0.138375 0.396254
H 3.00485793416495 0.47544860683008905 1.2343565665532465
C 3.040241 -0.328066 -0.764349
C 4.417027 -0.409834 -0.969005
C 5.108629 -0.859137 -2.089578
H 4.755830076531489 -1.2350472231662657 -3.027194352096394
H 6.178465325871513 -0.8520595362723387 -2.072253296454917
H 2.370371 -0.642604 -1.546367
H 5.042108 -0.079879 -0.148002
