11

H 1.4050283144498603 0.1349589719215334 0.3865833510922031
C 2.474959 0.139601 0.397843
H 3.0275941153047223 0.4811461368815497 1.2480437697036624
C 3.094363 -0.323385 -0.755027
C 4.472149 -0.412359 -0.976867
C 5.131358 -0.866652 -2.109178
H 4.761968672092005 -1.2406183486112392 -3.0411654969837616
O 6.456643 -0.870279 -2.118454
H 2.434931 -0.640573 -1.544794
H 5.098162 -0.082698 -0.155609
H 6.842557 -0.536863 -1.28696
