 13
 0.000000
  C 1.007899 -0.071340 0.048871
  C 2.504302 -0.084226 0.022143
  C 3.217127 -0.595422 -0.981616
  C 4.660095 -0.608949 -1.006962
  C 5.370920 -1.118222 -2.008054
  H 6.446019 -1.124182 -2.018702
  H 0.647267 0.396469 0.962565
  H 0.611355 -1.085216 0.011613
  H 0.610731 0.489350 -0.796025
  H 3.007860 0.350896 0.874469
  H 2.706327 -1.027148 -1.832378
  H 5.165190 -0.175220 -0.153272
  H 4.873148 -1.551678 -2.861149
 13
 1.133234
  C 1.028891 -0.075347 0.024907
  C 2.519343 -0.025155 0.082821
  C 3.223666 -0.555255 -0.911620
  C 4.667188 -0.594529 -1.002202
  C 5.341809 -1.149915 -2.029546
  H 6.418283 -1.163525 -2.068158
  H 0.561077 0.279442 0.938913
  H 0.742002 -1.108764 -0.165224
  H 0.659630 0.523113 -0.808598
  H 2.992920 0.414795 0.948224
  H 2.642501 -1.003004 -1.710330
  H 5.205611 -0.140409 -0.177258
  H 4.825994 -1.606043 -2.859908
 13
 3.932110
  C 1.055848 -0.083364 -0.006917
  C 2.538055 0.024150 0.116122
  C 3.237459 -0.533206 -0.867859
  C 4.669967 -0.579290 -1.007245
  C 5.297566 -1.174018 -2.017466
  H 6.369866 -1.191909 -2.093609
  H 0.518221 0.108394 0.914331
  H 0.878499 -1.097049 -0.378543
  H 0.693358 0.606018 -0.766959
  H 2.980700 0.472299 0.986843
  H 2.598207 -1.014665 -1.600465
  H 5.237304 -0.088854 -0.223401
  H 4.751447 -1.664506 -2.805793
 13
 8.596148
  C 1.078067 -0.092964 -0.034381
  C 2.549438 0.064816 0.145588
  C 3.247562 -0.514453 -0.829750
  C 4.667855 -0.569755 -1.005809
  C 5.263456 -1.198560 -2.014399
  H 6.333003 -1.225706 -2.120230
  H 0.485627 -0.045213 0.882431
  H 1.022032 -1.071319 -0.546659
  H 0.703464 0.661528 -0.727845
  H 2.966066 0.537474 1.016116
  H 2.552243 -1.017711 -1.517623
  H 5.262289 -0.053935 -0.247854
  H 4.689921 -1.711114 -2.772780
 13
 15.286810
  C 1.088962 -0.100193 -0.055735
  C 2.550182 0.093999 0.163884
  C 3.248939 -0.503263 -0.800183
  C 4.669584 -0.566790 -1.007205
  C 5.241425 -1.222789 -2.013741
  H 6.312303 -1.254793 -2.144492
  H 0.470915 -0.182634 0.839406
  H 1.147594 -1.025323 -0.677139
  H 0.691470 0.702534 -0.679604
  H 2.950280 0.594720 1.034044
  H 2.508785 -1.017067 -1.442823
  H 5.281355 -0.035071 -0.277923
  H 4.652077 -1.748654 -2.743224
 13
 24.127551
  C 1.100140 -0.107556 -0.075017
  C 2.550323 0.118238 0.170779
  C 3.255054 -0.494677 -0.779507
  C 4.670885 -0.564496 -1.007372
  C 5.224412 -1.240926 -2.011070
  H 6.289394 -1.284341 -2.153960
  H 0.481377 -0.308181 0.798772
  H 1.255771 -0.973116 -0.781815
  H 0.666806 0.725793 -0.625821
  H 2.932921 0.647568 1.031623
  H 2.465597 -1.008674 -1.389884
  H 5.293312 -0.027846 -0.299586
  H 4.621592 -1.779874 -2.720649
 13
 34.554724
  C 1.104473 -0.111553 -0.088375
  C 2.547991 0.136177 0.169738
  C 3.260762 -0.492733 -0.766334
  C 4.675370 -0.569358 -1.005462
  C 5.215946 -1.258731 -2.006625
  H 6.281836 -1.305772 -2.161310
  H 0.501616 -0.413942 0.767599
  H 1.335974 -0.925027 -0.867147
  H 0.631241 0.742782 -0.569290
  H 2.918199 0.697526 1.011572
  H 2.417917 -1.003681 -1.354223
  H 5.307200 -0.027557 -0.310714
  H 4.601904 -1.803650 -2.707109
 13
 46.172190
  C 1.105708 -0.113070 -0.096181
  C 2.545348 0.150736 0.160027
  C 3.267303 -0.492549 -0.761609
  C 4.678816 -0.575980 -1.003747
  C 5.212507 -1.273746 -2.003067
  H 6.277938 -1.326814 -2.161689
  H 0.532351 -0.502835 0.746314
  H 1.394567 -0.887049 -0.939805
  H 0.589224 0.752492 -0.510029
  H 2.906497 0.743263 0.981401
  H 2.370674 -0.995517 -1.337220
  H 5.315436 -0.034952 -0.316226
  H 4.595392 -1.818703 -2.695178
 13
 58.116295
  C 1.103693 -0.110765 -0.099449
  C 2.542651 0.149422 0.152899
  C 3.271478 -0.498060 -0.759294
  C 4.682134 -0.584032 -1.001904
  C 5.213136 -1.282870 -2.001883
  H 6.277727 -1.327514 -2.169166
  H 0.538876 -0.527811 0.737473
  H 1.435221 -0.887848 -0.975183
  H 0.574256 0.753916 -0.494699
  H 2.900739 0.757490 0.965352
  H 2.324629 -0.999498 -1.325562
  H 5.322049 -0.038156 -0.319744
  H 4.594280 -1.819956 -2.698187
 13
 68.247471
  C 1.099374 -0.106730 -0.095673
  C 2.539169 0.148497 0.143407
  C 3.276369 -0.506254 -0.758278
  C 4.686499 -0.593823 -0.998660
  C 5.218427 -1.292244 -1.998671
  H 6.282693 -1.325588 -2.173040
  H 0.548774 -0.549142 0.737579
  H 1.450522 -0.893589 -1.017662
  H 0.560003 0.760505 -0.469517
  H 2.897144 0.776641 0.940673
  H 2.282340 -1.012038 -1.331391
  H 5.326233 -0.042637 -0.321216
  H 4.600153 -1.818457 -2.703760
 13
 77.993795
  C 1.089430 -0.097845 -0.082585
  C 2.536360 0.143698 0.130604
  C 3.282044 -0.502652 -0.768237
  C 4.691001 -0.582663 -1.010312
  C 5.227085 -1.284376 -2.006847
  H 6.292419 -1.340089 -2.160253
  H 0.559204 -0.564618 0.746678
  H 1.450862 -0.906843 -1.069741
  H 0.540127 0.772340 -0.432768
  H 2.898700 0.776281 0.921680
  H 2.238197 -1.028376 -1.359360
  H 5.330978 -0.038932 -0.324407
  H 4.613986 -1.836746 -2.695790
 13
 88.286677
  C 1.079546 -0.084159 -0.063740
  C 2.532084 0.134547 0.112864
  C 3.290360 -0.503291 -0.775677
  C 4.697542 -0.579098 -1.015565
  C 5.238499 -1.283137 -2.007648
  H 6.303917 -1.342433 -2.151534
  H 0.566628 -0.562793 0.766701
  H 1.439757 -0.938801 -1.123174
  H 0.527000 0.787198 -0.402015
  H 2.899886 0.770635 0.900315
  H 2.186664 -1.062939 -1.394750
  H 5.337013 -0.034803 -0.326635
  H 4.628843 -1.844736 -2.693737
 13
 98.328673
  C 1.070654 -0.062877 -0.037325
  C 2.523766 0.123812 0.085839
  C 3.302008 -0.507538 -0.781983
  C 4.707802 -0.583403 -1.013497
  C 5.255523 -1.288224 -2.000874
  H 6.321653 -1.333829 -2.146776
  H 0.579046 -0.544746 0.802827
  H 1.406303 -0.990923 -1.184547
  H 0.516022 0.808327 -0.369258
  H 2.896941 0.760751 0.871763
  H 2.119816 -1.117672 -1.446613
  H 5.344817 -0.031762 -0.327561
  H 4.649803 -1.843983 -2.696119
 13
 107.141088
  C 1.060889 -0.034063 0.000588
  C 2.512932 0.102922 0.058232
  C 3.315014 -0.512741 -0.789236
  C 4.718887 -0.575869 -1.019392
  C 5.275165 -1.282498 -2.000753
  H 6.343401 -1.339716 -2.127663
  H 0.585610 -0.508860 0.853412
  H 1.348150 -1.071391 -1.258184
  H 0.513563 0.839098 -0.335163
  H 2.894435 0.745256 0.838898
  H 2.039104 -1.201995 -1.519479
  H 5.353789 -0.020464 -0.332523
  H 4.675380 -1.836213 -2.702455
