 9
 0.000000
  C 0.916529 0.050071 0.254712
  C 2.404212 0.060421 0.077464
  H 2.995566 0.005656 0.981194
  C 3.004801 0.127721 -1.095736
  H 2.463644 0.183312 -2.026055
  H 4.078236 0.131452 -1.185480
  H 0.646749 -0.001367 1.306840
  H 0.473976 -0.809568 -0.246927
  H 0.472202 0.952724 -0.162008
 9
 5.594928
  C 0.915164 0.100672 0.279166
  C 2.365429 0.057419 0.090787
  H 2.983981 -0.026443 0.975244
  C 2.971082 0.119866 -1.092156
  H 2.410025 0.220311 -2.009243
  H 4.041644 0.059927 -1.188726
  H 0.598971 0.008430 1.311555
  H 0.731802 -0.794266 -0.279419
  H 0.435765 0.954572 -0.184517
 9
 18.338857
  C 0.901184 0.133554 0.297469
  C 2.336968 0.044630 0.095035
  H 2.973834 -0.058476 0.964044
  C 2.947952 0.110577 -1.095458
  H 2.391491 0.248471 -2.007199
  H 4.019694 0.014497 -1.192746
  H 0.558220 0.014488 1.313709
  H 0.930931 -0.768420 -0.276746
  H 0.403984 0.954553 -0.203665
 9
 31.940265
  C 0.881113 0.160840 0.313799
  C 2.314958 0.023612 0.075234
  H 2.948586 -0.135440 0.942371
  C 2.946080 0.119373 -1.110033
  H 2.412049 0.325304 -2.023219
  H 4.005970 -0.025561 -1.195466
  H 0.548732 0.074134 1.334301
  H 1.079957 -0.770756 -0.203728
  H 0.349707 0.913396 -0.251046
 9
 43.057858
  C 0.870504 0.183906 0.323475
  C 2.297701 0.004095 0.055834
  H 2.913519 -0.217786 0.925911
  C 2.946423 0.131091 -1.123159
  H 2.431191 0.408473 -2.028218
  H 3.997962 -0.058966 -1.205107
  H 0.552007 0.147621 1.350784
  H 1.200854 -0.780171 -0.124121
  H 0.310001 0.854127 -0.302674
 9
 51.859079
  C 0.864877 0.205276 0.332244
  C 2.286466 -0.016010 0.046169
  H 2.887797 -0.274666 0.913503
  C 2.948693 0.135559 -1.131355
  H 2.443773 0.450400 -2.028091
  H 3.996643 -0.074643 -1.212874
  H 0.550341 0.192640 1.359850
  H 1.295645 -0.781503 -0.079729
  H 0.287175 0.818666 -0.332271
 9
 58.862581
  C 0.862862 0.226701 0.339538
  C 2.281002 -0.037799 0.045465
  H 2.879381 -0.316118 0.908800
  C 2.950613 0.138806 -1.135147
  H 2.447424 0.475201 -2.024136
  H 3.995519 -0.084383 -1.219246
  H 0.543748 0.221671 1.363844
  H 1.369298 -0.781486 -0.056596
  H 0.279483 0.793798 -0.358627
 9
 64.738773
  C 0.865543 0.248921 0.344861
  C 2.279788 -0.058780 0.050552
  H 2.882883 -0.336440 0.910911
  C 2.952524 0.137855 -1.136509
  H 2.446569 0.498914 -2.013741
  H 3.993512 -0.101125 -1.229394
  H 0.531082 0.237613 1.362505
  H 1.431101 -0.789331 -0.048737
  H 0.279879 0.777000 -0.381147
 9
 69.508231
  C 0.873325 0.280624 0.352763
  C 2.278863 -0.079000 0.055130
  H 2.886911 -0.353565 0.913594
  C 2.957940 0.139472 -1.138253
  H 2.446599 0.494493 -2.013380
  H 3.996859 -0.101197 -1.232199
  H 0.519342 0.241903 1.361822
  H 1.480010 -0.806615 -0.057477
  H 0.280840 0.774527 -0.390404
 9
 73.015385
  C 0.885509 0.315454 0.359508
  C 2.276478 -0.099570 0.059831
  H 2.890071 -0.358154 0.918003
  C 2.959424 0.131975 -1.140876
  H 2.445228 0.502681 -2.007288
  H 3.999566 -0.106971 -1.236310
  H 0.510774 0.246065 1.358549
  H 1.528444 -0.845267 -0.070646
  H 0.285355 0.773355 -0.401354
 9
 74.935592
  C 0.900724 0.357291 0.369878
  C 2.272729 -0.114295 0.063628
  H 2.890660 -0.358725 0.924636
  C 2.965436 0.135074 -1.141577
  H 2.448425 0.497893 -2.008700
  H 3.999822 -0.120629 -1.240858
  H 0.502398 0.239840 1.355337
  H 1.577136 -0.890711 -0.097041
  H 0.287118 0.776038 -0.403117
 9
 75.758577
  C 0.918506 0.397043 0.378860
  C 2.265080 -0.131988 0.065241
  H 2.885433 -0.360445 0.928810
  C 2.966884 0.125421 -1.145344
  H 2.448862 0.492710 -2.009669
  H 4.001667 -0.129831 -1.242779
  H 0.500331 0.233556 1.350017
  H 1.628254 -0.944855 -0.125377
  H 0.294780 0.782227 -0.403844
 9
 75.770462
  C 0.932855 0.427346 0.387371
  C 2.257071 -0.147057 0.067688
  H 2.880870 -0.358657 0.934349
  C 2.970574 0.121372 -1.149822
  H 2.455642 0.494396 -2.013097
  H 3.997138 -0.163780 -1.252226
  H 0.496377 0.223967 1.344178
  H 1.690540 -1.001438 -0.157064
  H 0.300084 0.791090 -0.400903
 9
 75.681671
  C 0.949311 0.448225 0.393377
  C 2.247246 -0.168154 0.065221
  H 2.876516 -0.363599 0.933057
  C 2.972879 0.105197 -1.157229
  H 2.462125 0.492584 -2.016591
  H 3.995153 -0.195898 -1.259842
  H 0.497828 0.216599 1.338143
  H 1.751839 -1.055110 -0.190052
  H 0.310394 0.801992 -0.395402
