 13
 0.000000
  H 1.436051 0.130392 0.376920
  C 2.517962 0.131154 0.377972
  C 3.193259 0.608792 1.565367
  H 2.501052 0.918927 2.338020
  C 3.145971 -0.330351 -0.771169
  C 4.544795 -0.401128 -0.947577
  C 5.099307 -0.863463 -2.101089
  H 4.486305 -1.193120 -2.924336
  H 6.167193 -0.915443 -2.229732
  H 3.873248 1.433251 1.323175
  H 3.874213 -0.153287 1.960755
  H 2.519822 -0.659277 -1.591238
  H 5.187433 -0.078173 -0.140843
 13
 0.150525
  H 1.438759 0.001825 0.421143
  C 2.517091 0.094247 0.392168
  C 3.184018 0.660816 1.547052
  H 2.492936 0.930118 2.337145
  C 3.152403 -0.323755 -0.765253
  C 4.544410 -0.483873 -0.911865
  C 5.091881 -0.846657 -2.103492
  H 4.476631 -1.069637 -2.964083
  H 6.156410 -0.917162 -2.232557
  H 3.796431 1.525542 1.269026
  H 3.930019 -0.045555 1.934237
  H 2.540668 -0.574546 -1.622687
  H 5.194218 -0.323060 -0.064591
 13
 0.768330
  H 1.439496 -0.060107 0.453946
  C 2.517140 0.069854 0.404240
  C 3.181538 0.703901 1.526122
  H 2.501659 0.941343 2.335333
  C 3.153458 -0.342193 -0.753106
  C 4.538640 -0.575979 -0.890761
  C 5.094477 -0.819305 -2.107153
  H 4.496467 -0.873788 -2.997346
  H 6.164474 -0.933785 -2.226059
  H 3.716500 1.602742 1.211893
  H 3.985806 0.058379 1.892326
  H 2.535252 -0.574135 -1.615682
  H 5.171213 -0.572925 -0.008022
 13
 2.070405
  H 1.443104 -0.112504 0.484275
  C 2.516355 0.056047 0.410881
  C 3.185171 0.736057 1.504499
  H 2.512415 0.980375 2.321565
  C 3.149209 -0.356374 -0.741013
  C 4.523532 -0.660088 -0.873290
  C 5.094213 -0.774950 -2.103379
  H 4.516581 -0.677178 -3.006357
  H 6.150831 -0.935765 -2.214085
  H 3.691850 1.641397 1.157709
  H 4.004155 0.116111 1.873311
  H 2.556746 -0.609260 -1.614244
  H 5.141338 -0.788296 0.004245
 13
 2.797834
  H 1.447102 -0.124166 0.502857
  C 2.517396 0.043114 0.416645
  C 3.188937 0.739479 1.503183
  H 2.512781 1.009025 2.305919
  C 3.143136 -0.378145 -0.726777
  C 4.522903 -0.665896 -0.893589
  C 5.103362 -0.728617 -2.118430
  H 4.535555 -0.606613 -3.028814
  H 6.164741 -0.888614 -2.231366
  H 3.705802 1.623760 1.134140
  H 3.998949 0.106830 1.892763
  H 2.539093 -0.670927 -1.576376
  H 5.109834 -0.850146 -0.000515
 13
 4.020524
  H 1.452201 -0.149134 0.519179
  C 2.524184 0.017910 0.421292
  C 3.197273 0.750405 1.478815
  H 2.528267 1.048398 2.281286
  C 3.138736 -0.414206 -0.729528
  C 4.513564 -0.714683 -0.883732
  C 5.103732 -0.687002 -2.100792
  H 4.534748 -0.494756 -3.002398
  H 6.164141 -0.814294 -2.214992
  H 3.710595 1.631464 1.084781
  H 4.005538 0.131121 1.878129
  H 2.524226 -0.730787 -1.564849
  H 5.098479 -0.961568 -0.008893
 13
 5.350103
  H 1.446131 -0.145231 0.549619
  C 2.508807 0.010003 0.418293
  C 3.220001 0.768489 1.434363
  H 2.566674 1.126576 2.226479
  C 3.104610 -0.474255 -0.726431
  C 4.495475 -0.770958 -0.884322
  C 5.106593 -0.615255 -2.077374
  H 4.569692 -0.285310 -2.951583
  H 6.172703 -0.747703 -2.183183
  H 3.774553 1.601837 1.004054
  H 4.007076 0.126786 1.853432
  H 2.469941 -0.865131 -1.499992
  H 5.062484 -1.104830 -0.028655
 13
 7.905000
  H 1.436291 -0.138851 0.580392
  C 2.506746 -0.028753 0.429073
  C 3.242630 0.794326 1.374286
  H 2.624395 1.156549 2.190370
  C 3.077384 -0.550192 -0.698819
  C 4.463435 -0.848160 -0.889464
  C 5.116411 -0.528250 -2.022742
  H 4.617822 -0.038554 -2.843482
  H 6.175011 -0.683078 -2.123157
  H 3.735977 1.630468 0.878260
  H 4.082307 0.204358 1.763876
  H 2.433687 -1.017732 -1.449442
  H 5.006601 -1.310097 -0.080546
 13
 13.933211
  H 1.530301 -0.306151 0.656249
  C 2.560372 -0.029790 0.469956
  C 3.181704 0.890804 1.420905
  H 2.513470 1.150266 2.234352
  C 3.160102 -0.464421 -0.663801
  C 4.469707 -0.945410 -0.971556
  C 5.134822 -0.544968 -2.075646
  H 4.681111 0.076000 -2.827885
  H 6.163490 -0.819392 -2.230985
  H 3.525488 1.804559 0.931638
  H 4.087201 0.417622 1.821580
  H 2.559297 -0.970354 -1.437203
  H 4.953007 -1.595131 -0.253114
 13
 20.553643
  H 1.590073 -0.366647 0.667629
  C 2.586555 0.011615 0.475447
  C 3.130504 0.937207 1.484674
  H 2.438451 1.084687 2.306893
  C 3.230279 -0.388613 -0.628329
  C 4.482411 -0.970489 -1.044512
  C 5.152329 -0.590378 -2.153928
  H 4.713073 0.030384 -2.919631
  H 6.173138 -0.892227 -2.303947
  H 3.360509 1.908899 1.041729
  H 4.073189 0.536554 1.867230
  H 2.652829 -0.921538 -1.402779
  H 4.911501 -1.697088 -0.364415
 13
 31.537215
  H 1.581068 -0.288474 0.581033
  C 2.614909 0.003812 0.487048
  C 3.092724 0.967207 1.533815
  H 2.298159 1.201270 2.247829
  C 3.317489 -0.421940 -0.526608
  C 4.495212 -1.009818 -1.103913
  C 5.095767 -0.565091 -2.220969
  H 4.649981 0.120294 -2.919285
  H 6.096417 -0.906917 -2.462685
  H 3.427272 1.891636 1.067527
  H 3.933230 0.541978 2.072276
  H 2.831443 -1.068401 -1.327307
  H 4.990009 -1.771031 -0.487346
