 25
 0.000000
  C 1.001183 0.126058 0.341661
  C 2.472778 0.133347 0.362132
  C 3.234868 0.599711 1.540727
  C 2.444731 1.082732 2.753378
  C 3.391236 1.522962 3.866601
  C 3.129952 -0.322782 -0.779884
  C 4.519799 -0.386819 -0.944157
  C 5.161844 -0.843815 -2.070589
  C 4.566989 -1.353855 -3.303759
  H 3.481440 -1.364432 -3.311234
  H 6.245148 -0.832818 -2.063466
  H 0.557135 0.482670 1.262426
  H 0.638483 -0.883937 0.141453
  H 0.635468 0.739028 -0.484487
  H 3.900828 1.409584 1.219390
  H 3.897804 -0.212107 1.863050
  H 1.806629 0.283028 3.133525
  H 1.809677 1.927336 2.480390
  H 4.025633 0.699935 4.187892
  H 2.826352 1.866655 4.729569
  H 4.028800 2.340177 3.536584
  H 2.509105 -0.652583 -1.600742
  H 5.144255 -0.052559 -0.128674
  H 4.947978 -2.361084 -3.491241
  H 4.937337 -0.764445 -4.146667
 25
 0.506280
  C 1.037981 0.159700 0.310309
  C 2.500638 0.059607 0.401428
  C 3.242554 0.513679 1.593486
  C 2.438527 1.110409 2.743343
  C 3.363074 1.535133 3.879037
  C 3.166046 -0.445399 -0.715836
  C 4.544008 -0.379485 -0.952776
  C 5.147541 -0.751781 -2.132309
  C 4.530340 -1.394137 -3.286640
  H 3.484889 -1.639683 -3.156060
  H 6.203759 -0.545215 -2.234585
  H 0.558860 0.405328 1.253531
  H 0.609102 -0.752310 -0.100599
  H 0.805470 0.946962 -0.413907
  H 3.994111 1.247024 1.280692
  H 3.823568 -0.334901 1.973882
  H 1.727672 0.377828 3.130628
  H 1.880134 1.982576 2.399018
  H 3.915112 0.685262 4.270710
  H 2.787718 1.964992 4.694356
  H 4.076792 2.282696 3.542758
  H 2.546192 -0.854744 -1.496294
  H 5.175079 0.059449 -0.194165
  H 5.091219 -2.298200 -3.530196
  H 4.650655 -0.753046 -4.161891
 25
 3.427129
  C 1.106805 0.165544 0.260503
  C 2.547913 -0.050821 0.460375
  C 3.253195 0.408658 1.670966
  C 2.443540 1.169064 2.715505
  C 3.325686 1.557040 3.898645
  C 3.232355 -0.632934 -0.606478
  C 4.564429 -0.379447 -0.954538
  C 5.079127 -0.617884 -2.204374
  C 4.471918 -1.378622 -3.295909
  H 3.515591 -1.827807 -3.052232
  H 6.049968 -0.194981 -2.430916
  H 0.583067 0.476206 1.155966
  H 0.626132 -0.707188 -0.177439
  H 1.025225 0.962561 -0.485785
  H 4.108207 1.025457 1.374361
  H 3.706282 -0.472220 2.145449
  H 1.622403 0.551822 3.084108
  H 2.022284 2.074734 2.276243
  H 3.728880 0.674866 4.390461
  H 2.750214 2.116113 4.632373
  H 4.156615 2.181509 3.578401
  H 2.632280 -1.186444 -1.315890
  H 5.178515 0.178622 -0.263018
  H 5.170905 -2.159888 -3.603005
  H 4.365477 -0.739371 -4.174821
 25
 8.165036
  C 1.217856 0.137752 0.191628
  C 2.620017 -0.161719 0.523914
  C 3.276671 0.334793 1.745137
  C 2.452323 1.211263 2.683018
  C 3.273127 1.607766 3.901931
  C 3.333350 -0.807999 -0.487354
  C 4.603019 -0.416897 -0.932816
  C 4.981567 -0.527518 -2.243079
  C 4.354022 -1.318844 -3.304230
  H 3.463438 -1.854880 -2.998421
  H 5.861385 0.023363 -2.553342
  H 0.648673 0.546680 1.015568
  H 0.706931 -0.721946 -0.234679
  H 1.281083 0.884634 -0.608202
  H 4.193983 0.868427 1.471460
  H 3.635152 -0.541887 2.300627
  H 1.562566 0.673503 3.023800
  H 2.129998 2.115920 2.163488
  H 3.569142 0.731455 4.474602
  H 2.693642 2.252589 4.553016
  H 4.172739 2.147517 3.609082
  H 2.760008 -1.449460 -1.142294
  H 5.206785 0.198927 -0.282686
  H 5.089108 -2.030522 -3.670964
  H 4.122974 -0.679190 -4.163106
 25
 13.953636
  C 1.335668 0.103141 0.117774
  C 2.696363 -0.230822 0.566107
  C 3.295772 0.286324 1.804108
  C 2.469303 1.262565 2.635071
  C 3.214582 1.643382 3.910219
  C 3.440656 -0.924521 -0.393250
  C 4.643312 -0.434919 -0.924930
  C 4.871308 -0.443925 -2.270001
  C 4.217516 -1.259666 -3.301243
  H 3.357799 -1.818455 -2.955202
  H 5.664677 0.193251 -2.641311
  H 0.725202 0.580382 0.873500
  H 0.819167 -0.755661 -0.305764
  H 1.509933 0.800913 -0.711008
  H 4.268409 0.734832 1.576677
  H 3.547215 -0.584086 2.424060
  H 1.516806 0.812789 2.912943
  H 2.267780 2.168793 2.056349
  H 3.411285 0.766718 4.523803
  H 2.623348 2.340264 4.500480
  H 4.164504 2.121232 3.679616
  H 2.911454 -1.669167 -0.972934
  H 5.263171 0.193835 -0.300313
  H 4.961930 -1.960543 -3.688496
  H 3.932133 -0.639234 -4.150820
 25
 21.251229
  C 1.491986 0.110433 0.017622
  C 2.782003 -0.277675 0.595289
  C 3.324841 0.262209 1.848634
  C 2.477915 1.286299 2.593747
  C 3.137371 1.663577 3.917797
  C 3.555740 -1.034653 -0.302149
  C 4.696924 -0.473415 -0.912275
  C 4.752501 -0.391845 -2.267990
  C 4.053715 -1.212841 -3.270492
  H 3.272342 -1.848142 -2.869527
  H 5.472400 0.296925 -2.691131
  H 0.857128 0.679697 0.683580
  H 0.949745 -0.739243 -0.401993
  H 1.800838 0.736698 -0.835729
  H 4.322922 0.673179 1.664505
  H 3.516363 -0.596256 2.509169
  H 1.486730 0.878494 2.803723
  H 2.359862 2.183119 1.987744
  H 3.227607 0.797858 4.570097
  H 2.544524 2.412682 4.435657
  H 4.130150 2.075921 3.754396
  H 3.048144 -1.824581 -0.840202
  H 5.326330 0.175264 -0.318836
  H 4.802699 -1.843688 -3.757073
  H 3.638914 -0.582286 -4.055910
 25
 28.335553
  C 1.621546 0.145323 -0.076067
  C 2.847865 -0.296360 0.604751
  C 3.329548 0.243564 1.879671
  C 2.442108 1.255050 2.589682
  C 3.093982 1.709887 3.890744
  C 3.628749 -1.118740 -0.231835
  C 4.749735 -0.550850 -0.894840
  C 4.677336 -0.366535 -2.244348
  C 3.911024 -1.151210 -3.240692
  H 3.124919 -1.767702 -2.819896
  H 5.382417 0.321584 -2.692674
  H 0.938471 0.713603 0.542110
  H 1.110985 -0.664454 -0.592196
  H 2.047210 0.779550 -0.863414
  H 4.328947 0.672192 1.737355
  H 3.504954 -0.615990 2.540262
  H 1.472775 0.816415 2.821021
  H 2.282741 2.127196 1.946330
  H 3.204243 0.877413 4.580584
  H 2.485120 2.470665 4.374434
  H 4.074978 2.136344 3.708061
  H 3.108161 -1.912726 -0.758545
  H 5.435699 0.058711 -0.316981
  H 4.621699 -1.801585 -3.753440
  H 3.490993 -0.498525 -4.002363
 25
 37.212752
  C 1.766059 0.155449 -0.170166
  C 2.900543 -0.350766 0.618652
  C 3.328105 0.187818 1.910368
  C 2.468109 1.284684 2.528242
  C 3.046004 1.725026 3.870312
  C 3.715287 -1.193915 -0.173628
  C 4.770748 -0.548698 -0.888366
  C 4.543247 -0.297419 -2.197646
  C 3.759245 -1.083530 -3.176790
  H 2.992752 -1.711286 -2.738889
  H 5.185505 0.441771 -2.661396
  H 1.128938 0.857856 0.346717
  H 1.182881 -0.630132 -0.653160
  H 2.301740 0.637794 -1.011233
  H 4.367180 0.533290 1.824917
  H 3.386852 -0.660970 2.604588
  H 1.450676 0.920731 2.685355
  H 2.428602 2.145599 1.863069
  H 3.116022 0.886221 4.559853
  H 2.411371 2.480887 4.325899
  H 4.039704 2.151368 3.746893
  H 3.233076 -2.033683 -0.663421
  H 5.486019 0.046471 -0.335670
  H 4.465628 -1.724361 -3.714057
  H 3.302805 -0.431687 -3.916375
 25
 46.965677
  C 1.885720 0.202373 -0.232393
  C 2.928958 -0.336432 0.618988
  C 3.326697 0.183378 1.930875
  C 2.480825 1.317072 2.501978
  C 2.985094 1.717200 3.882676
  C 3.769323 -1.229057 -0.139352
  C 4.789012 -0.565523 -0.908250
  C 4.418574 -0.253469 -2.175087
  C 3.645318 -1.077858 -3.140546
  H 3.034089 -1.851847 -2.682605
  H 5.052387 0.464039 -2.678515
  H 1.258728 0.962892 0.217346
  H 1.303642 -0.535034 -0.787627
  H 2.522930 0.612937 -1.064319
  H 4.382929 0.487179 1.876160
  H 3.338434 -0.663517 2.624916
  H 1.441159 1.000660 2.578490
  H 2.528050 2.185104 1.842506
  H 2.940694 0.877712 4.573861
  H 2.376436 2.514891 4.289268
  H 4.014038 2.066293 3.835255
  H 3.297201 -2.096650 -0.572309
  H 5.512567 0.044172 -0.397238
  H 4.363453 -1.564293 -3.803900
  H 3.020799 -0.445479 -3.771329
 25
 60.885603
  C 1.990574 0.147848 -0.293866
  C 2.955350 -0.385074 0.622179
  C 3.360220 0.195126 1.900550
  C 2.469839 1.308888 2.451070
  C 2.969022 1.767469 3.817254
  C 3.760235 -1.354621 -0.075818
  C 4.769710 -0.707166 -0.856670
  C 4.306408 -0.216431 -2.037222
  C 3.526497 -0.929524 -3.091748
  H 2.850487 -1.682925 -2.699098
  H 4.903812 0.592880 -2.445228
  H 1.344433 0.937718 0.053578
  H 1.492140 -0.559065 -0.961632
  H 2.775491 0.466563 -1.124398
  H 4.404806 0.539465 1.819736
  H 3.388130 -0.621420 2.632728
  H 1.439261 0.954428 2.549939
  H 2.480042 2.161156 1.768347
  H 2.964691 0.948732 4.528956
  H 2.335406 2.560178 4.205884
  H 3.981872 2.157740 3.750805
  H 3.241279 -2.204271 -0.511734
  H 5.550521 -0.170207 -0.331901
  H 4.241741 -1.418311 -3.751054
  H 2.956792 -0.225730 -3.695725
 25
 73.747163
  C 2.033086 0.166030 -0.269891
  C 2.929442 -0.365414 0.625275
  C 3.311103 0.161204 1.949191
  C 2.472981 1.328822 2.461842
  C 2.944643 1.758080 3.846945
  C 3.799077 -1.302906 -0.085714
  C 4.743191 -0.604620 -0.882217
  C 4.220404 -0.134489 -2.092553
  C 3.459495 -0.969367 -3.097795
  H 2.845430 -1.737756 -2.640115
  H 4.819525 0.632957 -2.571960
  H 1.438337 1.009387 0.044023
  H 1.547147 -0.452947 -1.012273
  H 3.104450 0.441579 -1.389253
  H 4.371637 0.438174 1.923479
  H 3.245677 -0.665816 2.665199
  H 1.422769 1.039326 2.517906
  H 2.562176 2.175454 1.779716
  H 2.839195 0.946788 4.563771
  H 2.355704 2.599413 4.202815
  H 3.988662 2.062895 3.825410
  H 3.331327 -2.196198 -0.484140
  H 5.517443 -0.030948 -0.391477
  H 4.180904 -1.453913 -3.754684
  H 2.829866 -0.337536 -3.718556
 25
 62.019182
  C 1.912696 0.183039 -0.158291
  C 2.867133 -0.300191 0.646915
  C 3.326624 0.236664 1.959751
  C 2.431407 1.321422 2.552987
  C 2.936111 1.733878 3.932512
  C 3.726129 -1.206542 -0.122302
  C 4.669618 -0.547275 -0.907178
  C 4.228932 -0.105412 -2.234815
  C 3.512247 -1.042330 -3.190504
  H 2.785169 -1.681126 -2.696858
  H 4.916966 0.555989 -2.747791
  H 1.319072 1.019627 0.176442
  H 1.473886 -0.384103 -0.958589
  H 3.383544 0.502436 -1.743992
  H 4.348548 0.610545 1.868258
  H 3.375118 -0.607808 2.656383
  H 1.407539 0.952926 2.640950
  H 2.427880 2.198846 1.901612
  H 2.915528 0.891807 4.621743
  H 2.309727 2.521556 4.342899
  H 3.956593 2.108098 3.877659
  H 3.213442 -2.067089 -0.539103
  H 5.490325 -0.010551 -0.443000
  H 4.245441 -1.677797 -3.686431
  H 3.008435 -0.461882 -3.955338
 25
 51.496691
  C 1.664875 0.102813 -0.015824
  C 2.719805 -0.340500 0.687820
  C 3.246783 0.182189 1.982255
  C 2.434642 1.323512 2.587354
  C 3.077609 1.802135 3.883110
  C 3.554785 -1.162047 -0.188316
  C 4.535180 -0.491534 -0.902138
  C 4.234154 -0.032912 -2.273344
  C 3.713244 -1.034835 -3.294413
  H 3.012259 -1.743042 -2.863462
  H 5.004652 0.611625 -2.688940
  H 1.019805 0.868077 0.377603
  H 1.302214 -0.406348 -0.889969
  H 3.370775 0.590283 -1.945884
  H 4.283151 0.499234 1.863092
  H 3.261163 -0.660795 2.683757
  H 1.418062 0.987160 2.796722
  H 2.384736 2.159524 1.885166
  H 3.174571 0.982818 4.596960
  H 2.470118 2.577792 4.341330
  H 4.066465 2.212559 3.696415
  H 3.115595 -2.071693 -0.578013
  H 5.276824 0.091136 -0.361166
  H 4.549042 -1.588281 -3.714534
  H 3.218799 -0.505447 -4.105633
 25
 43.970908
  C 1.614452 0.210170 0.024293
  C 2.734629 -0.191844 0.650274
  C 3.292352 0.310720 1.937540
  C 2.365084 1.254223 2.703359
  C 3.035917 1.733364 3.988027
  C 3.527405 -1.010311 -0.259793
  C 4.527019 -0.392119 -0.987939
  C 4.324357 -0.097546 -2.412677
  C 3.743714 -1.171305 -3.319625
  H 2.929346 -1.718742 -2.855608
  H 5.170692 0.406756 -2.870559
  H 0.980046 0.975873 0.437610
  H 1.242227 -0.284648 -0.856025
  H 3.530386 0.660277 -2.217378
  H 4.248672 0.811262 1.769805
  H 3.506700 -0.567630 2.553243
  H 1.437487 0.738769 2.957582
  H 2.120565 2.119533 2.087175
  H 3.298124 0.892347 4.626846
  H 2.365015 2.381244 4.544170
  H 3.942003 2.292559 3.768080
  H 3.036704 -1.886284 -0.668219
  H 5.278587 0.201865 -0.474873
  H 4.525567 -1.877601 -3.590614
  H 3.372827 -0.712703 -4.232854
 25
 41.525678
  C 1.460327 0.132637 0.172568
  C 2.647224 -0.236963 0.706496
  C 3.265091 0.285889 1.958026
  C 2.422213 1.318259 2.711284
  C 3.111811 1.730156 4.005238
  C 3.416225 -0.982538 -0.307062
  C 4.433850 -0.338500 -1.001659
  C 4.221673 -0.052084 -2.456992
  C 3.957738 -1.226928 -3.383424
  H 3.230916 -1.933587 -2.981715
  H 5.013962 0.575549 -2.856089
  H 0.859993 0.901690 0.625566
  H 1.082351 -0.321553 -0.731838
  H 3.299414 0.558468 -2.357442
  H 4.250546 0.707048 1.748894
  H 3.433628 -0.578297 2.608703
  H 1.448517 0.896409 2.950625
  H 2.272867 2.205063 2.092372
  H 3.247775 0.873396 4.662624
  H 2.514366 2.467004 4.533460
  H 4.086048 2.166326 3.805287
  H 2.851774 -1.734950 -0.835577
  H 5.148489 0.284080 -0.467736
  H 4.891168 -1.760917 -3.560519
  H 3.581912 -0.857429 -4.339249
