 32
 0.000000
  C 0.983575 0.134803 0.386678
  C 2.460951 0.140195 0.399644
  C 3.234683 0.611656 1.573007
  C 2.448824 1.099301 2.787116
  C 3.394679 1.545572 3.897730
  C 3.081586 -0.323379 -0.754571
  C 4.457978 -0.411212 -0.973713
  C 5.125625 -0.864880 -2.104584
  C 4.614873 -1.386164 -3.403838
  C 3.122672 -1.501137 -3.691384
  C 2.899187 -2.063404 -5.092789
  O 6.450062 -0.866083 -2.107960
  H 0.540793 0.503488 1.304712
  H 0.617989 -0.878409 0.214488
  H 0.617652 0.747296 -0.438466
  H 3.892198 1.424605 1.244121
  H 3.892433 -0.202713 1.897862
  H 1.811281 0.300820 3.171350
  H 1.811113 1.941587 2.512242
  H 4.030636 0.724689 4.222494
  H 2.827282 1.891314 4.758621
  H 4.030409 2.363123 3.564277
  H 2.421850 -0.640470 -1.543924
  H 5.086425 -0.082158 -0.154069
  H 5.069535 -2.375263 -3.532497
  H 5.070012 -0.760654 -4.180514
  H 2.648916 -0.520234 -3.637875
  H 2.648402 -2.172738 -2.974766
  H 3.338652 -1.416211 -5.848485
  H 1.834452 -2.145240 -5.297568
  H 3.338170 -3.053687 -5.191427
  H 6.827824 -0.531164 -1.272792
 32
 -0.270998
  C 0.954898 0.043823 0.454415
  C 2.428978 0.068838 0.424214
  C 3.225086 0.595401 1.558322
  C 2.463468 1.140274 2.764128
  C 3.436796 1.662667 3.817294
  C 3.039870 -0.411834 -0.730501
  C 4.416616 -0.481588 -0.938518
  C 5.106520 -0.931205 -2.060371
  C 4.614372 -1.413852 -3.379595
  C 3.127581 -1.473503 -3.706084
  C 2.934163 -1.958672 -5.140880
  O 6.425238 -0.951789 -2.029917
  H 0.540860 0.325350 1.414627
  H 0.588962 -0.944574 0.177696
  H 0.565184 0.725170 -0.304349
  H 3.878615 1.389237 1.182335
  H 3.893297 -0.199389 1.907594
  H 1.852957 0.354912 3.214093
  H 1.806403 1.956289 2.458319
  H 4.095114 0.869705 4.167032
  H 2.893425 2.050299 4.676260
  H 4.049271 2.467721 3.417107
  H 2.379721 -0.757903 -1.506318
  H 5.046567 -0.154286 -0.121252
  H 5.049099 -2.410260 -3.519817
  H 5.114080 -0.789207 -4.129543
  H 2.679738 -0.483871 -3.614212
  H 2.620086 -2.170896 -3.038837
  H 3.410808 -1.284353 -5.847603
  H 1.875962 -2.008340 -5.384014
  H 3.357985 -2.950223 -5.276830
  H 6.819749 -0.648154 -1.190754
 32
 -0.360524
  C 0.961669 -0.045381 0.495071
  C 2.435087 0.008454 0.443824
  C 3.231291 0.586169 1.555686
  C 2.466959 1.182893 2.733770
  C 3.435534 1.786054 3.747135
  C 3.044399 -0.482783 -0.706514
  C 4.421198 -0.552969 -0.914654
  C 5.110240 -1.011459 -2.033368
  C 4.618123 -1.447237 -3.367011
  C 3.135159 -1.445483 -3.708476
  C 2.941620 -1.855615 -5.167108
  O 6.427522 -1.080808 -1.985918
  H 0.561184 0.154340 1.484644
  H 0.601087 -1.008325 0.140194
  H 0.551940 0.697959 -0.192728
  H 3.885230 1.361998 1.147759
  H 3.898035 -0.192202 1.940704
  H 1.877427 0.413326 3.233688
  H 1.790028 1.964145 2.386071
  H 4.116365 1.027234 4.136403
  H 2.889538 2.209287 4.587295
  H 4.027621 2.582995 3.295441
  H 2.384878 -0.849302 -1.472702
  H 5.052795 -0.231930 -0.092947
  H 5.021829 -2.453659 -3.530261
  H 5.146277 -0.818448 -4.095827
  H 2.716150 -0.447705 -3.571289
  H 2.599930 -2.159225 -3.079780
  H 3.441930 -1.163316 -5.835426
  H 1.888535 -1.863809 -5.419851
  H 3.338926 -2.850645 -5.347589
  H 6.821046 -0.806479 -1.137026
 32
 -0.527351
  C 0.981118 -0.131225 0.546272
  C 2.450182 -0.049597 0.467231
  C 3.243011 0.578325 1.551133
  C 2.470194 1.232451 2.693384
  C 3.427954 1.917426 3.663228
  C 3.055940 -0.549978 -0.681824
  C 4.432286 -0.609589 -0.896139
  C 5.120467 -1.073890 -2.012975
  C 4.627177 -1.477729 -3.357665
  C 3.144399 -1.442869 -3.703972
  C 2.950058 -1.789647 -5.178505
  O 6.435351 -1.172183 -1.955991
  H 0.607986 -0.030239 1.558827
  H 0.617082 -1.057547 0.106408
  H 0.548282 0.678712 -0.046929
  H 3.903207 1.332514 1.111079
  H 3.904433 -0.184972 1.978244
  H 1.896822 0.484626 3.243836
  H 1.775564 1.975030 2.298935
  H 4.124449 1.201419 4.093892
  H 2.875565 2.379061 4.477860
  H 3.999493 2.695824 3.162637
  H 2.395762 -0.942960 -1.435216
  H 5.062593 -0.287356 -0.076467
  H 5.016425 -2.485054 -3.542478
  H 5.166786 -0.841171 -4.069966
  H 2.737391 -0.447458 -3.525627
  H 2.598694 -2.174888 -3.107570
  H 3.459941 -1.072985 -5.817936
  H 1.893628 -1.776934 -5.434068
  H 3.338453 -2.781035 -5.399548
  H 6.828780 -0.910885 -1.102423
 32
 -0.607502
  C 1.015209 -0.256710 0.616841
  C 2.475689 -0.106995 0.490294
  C 3.262106 0.569048 1.549597
  C 2.476967 1.267740 2.657090
  C 3.420363 2.029888 3.582973
  C 3.075981 -0.594985 -0.666468
  C 4.450292 -0.625546 -0.897580
  C 5.135189 -1.096891 -2.013366
  C 4.637245 -1.484080 -3.361012
  C 3.153051 -1.435241 -3.701236
  C 2.952845 -1.731867 -5.185565
  O 6.447896 -1.220410 -1.951455
  H 0.685282 -0.252801 1.650185
  H 0.664662 -1.156451 0.115315
  H 0.527516 0.586808 0.119928
  H 3.925654 1.305339 1.084658
  H 3.918904 -0.176341 2.014141
  H 1.922667 0.540680 3.251702
  H 1.762771 1.968724 2.223360
  H 4.135575 1.356729 4.050184
  H 2.859140 2.523079 4.372613
  H 3.971098 2.792501 3.037009
  H 2.415827 -1.015443 -1.405869
  H 5.082950 -0.290840 -0.084371
  H 5.022722 -2.489800 -3.561940
  H 5.176440 -0.838392 -4.065577
  H 2.747842 -0.446071 -3.487389
  H 2.608179 -2.186027 -3.128136
  H 3.458294 -0.992742 -5.802294
  H 1.895483 -1.712951 -5.435861
  H 3.342469 -2.714247 -5.441927
  H 6.844423 -0.960576 -1.098909
 32
 -0.308253
  C 1.046783 -0.319451 0.659263
  C 2.495853 -0.108659 0.492748
  C 3.281385 0.576023 1.546264
  C 2.490338 1.323588 2.619169
  C 3.431533 2.104729 3.531077
  C 3.088293 -0.577861 -0.674370
  C 4.461576 -0.605529 -0.911848
  C 5.140391 -1.148924 -1.998755
  C 4.646163 -1.538693 -3.346501
  C 3.171596 -1.424672 -3.709865
  C 2.982655 -1.702886 -5.199747
  O 6.439254 -1.349191 -1.903577
  H 0.750747 -0.345888 1.702935
  H 0.717074 -1.223683 0.152935
  H 0.509410 0.512144 0.194836
  H 3.973908 1.281744 1.078241
  H 3.905146 -0.176698 2.045377
  H 1.916039 0.627205 3.232181
  H 1.792133 2.018230 2.149458
  H 4.128350 1.437451 4.035233
  H 2.865879 2.636438 4.292551
  H 4.003903 2.837786 2.965861
  H 2.426903 -1.007092 -1.407298
  H 5.098275 -0.252884 -0.109016
  H 4.990315 -2.562553 -3.529342
  H 5.223205 -0.925620 -4.050317
  H 2.804985 -0.421063 -3.494365
  H 2.586022 -2.155514 -3.150927
  H 3.524734 -0.978658 -5.803522
  H 1.930544 -1.642346 -5.465300
  H 3.338980 -2.697546 -5.458036
  H 6.836714 -1.073191 -1.056099
 32
 0.556737
  C 1.102498 -0.411917 0.718612
  C 2.524368 -0.096207 0.490061
  C 3.306902 0.618065 1.527851
  C 2.509523 1.360229 2.600188
  C 3.441014 2.182078 3.486024
  C 3.103354 -0.524450 -0.698611
  C 4.470921 -0.493609 -0.967614
  C 5.152694 -1.116009 -2.012169
  C 4.660927 -1.574617 -3.338523
  C 3.186768 -1.471868 -3.707029
  C 2.999577 -1.787357 -5.189140
  O 6.442326 -1.348288 -1.882965
  H 0.848326 -0.434591 1.770797
  H 0.826655 -1.352719 0.246995
  H 0.484533 0.360204 0.253019
  H 3.978349 1.335187 1.048483
  H 3.947880 -0.116262 2.030668
  H 1.962917 0.660769 3.232866
  H 1.786599 2.026722 2.127511
  H 4.160661 1.542838 3.992532
  H 2.870718 2.712354 4.244926
  H 3.986330 2.918719 2.901763
  H 2.446445 -0.994194 -1.409986
  H 5.107568 -0.077252 -0.196012
  H 5.005443 -2.604687 -3.474337
  H 5.238091 -0.993319 -4.068335
  H 2.817848 -0.464226 -3.516321
  H 2.602157 -2.189006 -3.131007
  H 3.538942 -1.076078 -5.810700
  H 1.947689 -1.737797 -5.456262
  H 3.360145 -2.786790 -5.422428
  H 6.840552 -1.011176 -1.058106
 32
 1.725581
  C 1.114960 -0.363441 0.695783
  C 2.535095 -0.043737 0.460087
  C 3.329971 0.642644 1.509726
  C 2.542929 1.356563 2.608572
  C 3.482422 2.160373 3.501398
  C 3.102882 -0.451569 -0.740030
  C 4.469674 -0.425043 -1.015861
  C 5.139946 -1.162363 -1.990687
  C 4.657703 -1.660264 -3.306231
  C 3.207207 -1.463456 -3.731027
  C 3.047126 -1.809294 -5.209965
  O 6.398565 -1.491574 -1.790359
  H 0.867197 -0.394638 1.750982
  H 0.838131 -1.300859 0.220350
  H 0.492668 0.410369 0.238066
  H 3.995912 1.371842 1.040586
  H 3.976700 -0.103875 1.987405
  H 2.006648 0.639581 3.231604
  H 1.811196 2.032387 2.160741
  H 4.212282 1.511840 3.981247
  H 2.919372 2.668936 4.282653
  H 4.016025 2.914735 2.928162
  H 2.444630 -0.929122 -1.445539
  H 5.107503 0.031910 -0.271677
  H 4.929259 -2.718026 -3.380762
  H 5.298982 -1.158449 -4.042055
  H 2.904842 -0.426978 -3.579212
  H 2.552027 -2.120597 -3.157205
  H 3.654584 -1.155465 -5.831538
  H 2.009854 -1.696043 -5.515016
  H 3.344428 -2.835523 -5.402702
  H 6.796417 -1.123367 -0.978811
 32
 1.352401
  C 1.111311 -0.353499 0.692738
  C 2.536776 -0.053116 0.467678
  C 3.329239 0.639996 1.513309
  C 2.539812 1.360029 2.606893
  C 3.477239 2.168870 3.498143
  C 3.108743 -0.475716 -0.728923
  C 4.477663 -0.455009 -0.999500
  C 5.146897 -1.169940 -1.993299
  C 4.660680 -1.656058 -3.312320
  C 3.207019 -1.463814 -3.728284
  C 3.040504 -1.804705 -5.207918
  O 6.413890 -1.482744 -1.809945
  H 0.857497 -0.388003 1.746772
  H 0.822477 -1.283473 0.208497
  H 0.503254 0.434342 0.238151
  H 3.995395 1.367478 1.040840
  H 3.976511 -0.103070 1.995460
  H 2.002272 0.646112 3.232193
  H 1.809530 2.032588 2.154502
  H 4.206375 1.523646 3.982233
  H 2.913297 2.679902 4.274897
  H 4.011534 2.921339 2.922143
  H 2.450315 -0.951661 -1.435002
  H 5.118359 -0.014037 -0.245090
  H 4.936795 -2.711363 -3.397984
  H 5.296038 -1.144239 -4.046748
  H 2.901584 -0.429409 -3.570797
  H 2.557686 -2.125470 -3.153812
  H 3.642099 -1.146294 -5.830379
  H 2.001133 -1.693924 -5.507281
  H 3.341282 -2.831237 -5.406093
  H 6.813934 -1.130023 -0.992393
 32
 1.391682
  C 1.108091 -0.344761 0.693358
  C 2.538603 -0.061194 0.473824
  C 3.329643 0.649609 1.509673
  C 2.539917 1.348847 2.616341
  C 3.469825 2.181202 3.491690
  C 3.113608 -0.498951 -0.717683
  C 4.483457 -0.473188 -0.990803
  C 5.149423 -1.184536 -1.991765
  C 4.658488 -1.667202 -3.311574
  C 3.207577 -1.458094 -3.731159
  C 3.042191 -1.791586 -5.212098
  O 6.419226 -1.494725 -1.817281
  H 0.855251 -0.400845 1.748147
  H 0.802348 -1.257065 0.186589
  H 0.512524 0.466508 0.260778
  H 3.971593 1.393728 1.027012
  H 4.002857 -0.077157 1.980034
  H 2.032047 0.619735 3.250058
  H 1.784710 2.001928 2.177578
  H 4.227032 1.555702 3.959632
  H 2.906565 2.673356 4.280861
  H 3.970426 2.950424 2.908017
  H 2.456977 -0.984800 -1.417999
  H 5.125811 -0.035359 -0.236129
  H 4.921763 -2.725836 -3.395391
  H 5.301710 -1.163733 -4.045974
  H 2.912669 -0.422366 -3.570391
  H 2.549451 -2.114609 -3.162052
  H 3.652336 -1.135636 -5.830964
  H 2.003631 -1.669804 -5.514286
  H 3.334274 -2.821169 -5.413293
  H 6.823115 -1.150926 -0.996067
