 10
 0.000000
  H 1.382840 0.143701 0.406751
  C 2.460353 0.111360 0.328721
  H 3.034352 0.452763 1.180701
  C 3.079039 -0.345386 -0.808469
  C 4.486652 -0.388718 -0.918527
  C 5.115240 -0.844620 -2.054067
  H 4.546897 -1.187201 -2.908517
  H 6.194243 -0.873812 -2.125029
  H 2.479305 -0.682306 -1.646209
  H 5.073642 -0.048875 -0.073526
 10
 -0.757267
  H 1.387076 0.251544 0.357810
  C 2.454048 0.087900 0.340031
  H 2.989388 0.255407 1.264739
  C 3.086321 -0.327991 -0.789815
  C 4.495543 -0.321830 -0.954596
  C 5.107189 -0.861093 -2.047386
  H 4.547848 -1.200193 -2.907571
  H 6.178792 -0.990672 -2.076894
  H 2.503122 -0.685401 -1.632959
  H 5.091643 0.129982 -0.169566
 10
 -0.365280
  H 1.399349 0.290435 0.353928
  C 2.453861 0.053396 0.346253
  H 2.949873 0.043952 1.308404
  C 3.100965 -0.247987 -0.799951
  C 4.513197 -0.251506 -0.991077
  C 5.096824 -0.914961 -2.020318
  H 4.528892 -1.331583 -2.839117
  H 6.162685 -1.089791 -2.030576
  H 2.515736 -0.511765 -1.680043
  H 5.118455 0.292570 -0.275886
 10
 0.891634
  H 1.412053 0.303266 0.359754
  C 2.458357 0.035016 0.340061
  H 2.911808 -0.167432 1.300372
  C 3.123949 -0.140583 -0.814629
  C 4.537790 -0.204106 -1.014960
  C 5.076771 -0.980207 -1.985678
  H 4.480532 -1.454235 -2.751843
  H 6.134816 -1.198532 -1.989023
  H 2.546368 -0.253555 -1.734286
  H 5.169727 0.384603 -0.359525
 10
 2.577707
  H 1.437390 0.328312 0.369915
  C 2.464669 -0.004350 0.325342
  H 2.872675 -0.377471 1.256500
  C 3.153360 -0.035970 -0.818085
  C 4.566558 -0.170426 -1.037532
  C 5.043917 -1.040438 -1.953129
  H 4.410549 -1.540047 -2.673522
  H 6.083543 -1.330356 -1.945401
  H 2.602663 0.043067 -1.759894
  H 5.232039 0.439263 -0.440327
 10
 4.573427
  H 1.452067 0.319580 0.375219
  C 2.466633 -0.045652 0.306320
  H 2.835753 -0.539020 1.197305
  C 3.182214 0.045850 -0.801033
  C 4.591501 -0.158749 -1.058384
  C 5.009046 -1.096586 -1.927248
  H 4.345990 -1.604922 -2.613194
  H 6.036731 -1.428806 -1.923649
  H 2.678005 0.325384 -1.736406
  H 5.288459 0.478657 -0.525814
 10
 6.589716
  H 1.435068 0.265889 0.355575
  C 2.450838 -0.092248 0.286053
  H 2.788319 -0.632232 1.161770
  C 3.201684 0.084893 -0.768351
  C 4.601034 -0.162431 -1.079061
  C 4.997092 -1.129778 -1.916196
  H 4.321014 -1.668958 -2.563714
  H 6.028221 -1.451356 -1.941801
  H 2.775903 0.554523 -1.669229
  H 5.309463 0.511342 -0.606033
 10
 6.675251
  H 1.392970 0.146457 0.331708
  C 2.435364 -0.123441 0.297091
  H 2.793057 -0.604083 1.197947
  C 3.200560 0.098574 -0.738070
  C 4.578372 -0.199280 -1.093024
  C 5.004097 -1.165195 -1.900153
  H 4.340636 -1.755280 -2.515177
  H 6.050813 -1.426296 -1.965450
  H 2.844235 0.727884 -1.570457
  H 5.282171 0.519227 -0.669493
 10
 9.102540
  H 1.382602 0.216336 0.325563
  C 2.394504 -0.160484 0.298201
  H 2.680465 -0.729855 1.175059
  C 3.210054 0.035395 -0.694423
  C 4.572691 -0.185749 -1.123211
  C 5.004483 -1.174997 -1.915852
  H 4.332067 -1.880966 -2.382202
  H 6.054356 -1.318061 -2.104225
  H 2.971568 0.717204 -1.544146
  H 5.270555 0.558605 -0.741221
 10
 12.501061
  H 1.403066 0.286647 0.301400
  C 2.382374 -0.168408 0.278049
  H 2.594746 -0.801962 1.132837
  C 3.228502 -0.023789 -0.689002
  C 4.577275 -0.192557 -1.149915
  C 4.997947 -1.189297 -1.959737
  H 4.328721 -1.943714 -2.343344
  H 6.035299 -1.276691 -2.230016
  H 3.053091 0.644040 -1.592418
  H 5.284207 0.543161 -0.775946
 10
 19.210385
  H 1.379404 0.315152 0.238431
  C 2.343854 -0.168973 0.319553
  H 2.455754 -0.807677 1.191182
  C 3.274146 -0.081647 -0.565767
  C 4.555896 -0.170086 -1.163503
  C 4.980183 -1.184185 -1.978487
  H 4.333395 -2.000831 -2.250609
  H 5.992405 -1.195704 -2.357201
  H 3.261004 0.555527 -1.565476
  H 5.275524 0.573759 -0.846846
 10
 24.380759
  H 1.350380 0.268185 0.176123
  C 2.321666 -0.170009 0.349491
  H 2.404866 -0.713555 1.288045
  C 3.304923 -0.113278 -0.468893
  C 4.523884 -0.130323 -1.168179
  C 4.962254 -1.164011 -1.987956
  H 4.317806 -1.990143 -2.246681
  H 5.966321 -1.164921 -2.368871
  H 3.430012 0.509818 -1.582916
  H 5.257088 0.626704 -0.889600
 10
 25.998203
  H 1.351547 0.236966 0.144107
  C 2.324994 -0.174991 0.374320
  H 2.375928 -0.668747 1.337453
  C 3.352527 -0.092850 -0.372502
  C 4.509913 -0.047581 -1.164536
  C 4.929456 -1.126112 -1.979603
  H 4.278191 -1.955718 -2.186242
  H 5.918707 -1.134753 -2.395335
  H 3.600555 0.543768 -1.671858
  H 5.263025 0.690157 -0.891064
 10
 23.561314
  H 1.335784 0.147449 0.135622
  C 2.323376 -0.203706 0.411223
  H 2.350661 -0.632427 1.407550
  C 3.356000 -0.125053 -0.314642
  C 4.450849 -0.004983 -1.187508
  C 4.894468 -1.125888 -1.982362
  H 4.259139 -1.975566 -2.151076
  H 5.871878 -1.114660 -2.423249
  H 3.819018 0.641718 -1.862127
  H 5.243671 0.663258 -0.838690
 10
 21.913360
  H 1.304821 0.029156 0.107958
  C 2.314298 -0.223742 0.417502
  H 2.350371 -0.564917 1.445923
  C 3.337471 -0.118374 -0.315815
  C 4.412127 0.016471 -1.206460
  C 4.859037 -1.124100 -1.981804
  H 4.290577 -2.034067 -2.023682
  H 5.769740 -1.054850 -2.544545
  H 4.024667 0.761824 -1.938033
  H 5.241734 0.582740 -0.766305
