 15
 0.000000
  H 1.464731 0.053554 0.186640
  C 2.540619 0.059738 0.077008
  C 3.331122 -0.012226 1.352408
  C 2.446900 -0.082159 2.591708
  H 3.053485 -0.132973 3.492305
  C 3.085685 0.127529 -1.124377
  C 2.336208 0.200157 -2.411510
  H 1.258210 0.192427 -2.274486
  H 4.164011 0.133516 -1.230456
  H 3.983645 0.864035 1.425865
  H 3.983650 -0.891188 1.326824
  H 1.809539 -0.962946 2.555982
  H 1.809534 0.797051 2.655295
  H 2.614224 -0.642001 -3.047955
  H 2.614222 1.108561 -2.949172
 15
 10.502461
  H 1.454472 0.057951 0.108704
  C 2.528466 0.064221 -0.002463
  C 3.387659 -0.013943 1.382833
  C 2.417745 -0.089468 2.721229
  H 3.021276 -0.140263 3.621486
  C 3.075740 0.131652 -1.197459
  C 2.327099 0.204312 -2.485148
  H 1.249472 0.196395 -2.344802
  H 4.154470 0.137489 -1.300881
  H 4.034471 0.859933 1.458115
  H 4.034474 -0.890738 1.359330
  H 1.783267 -0.969566 2.677957
  H 1.783260 0.789908 2.777241
  H 2.603724 -0.637914 -3.121283
  H 2.603724 1.112751 -3.022497
 15
 35.461161
  H 1.442998 0.005267 0.129029
  C 2.498010 0.050946 -0.063650
  C 3.478940 -0.045439 1.404691
  C 2.371191 -0.051597 2.827442
  H 2.982178 -0.127464 3.711721
  C 3.071302 0.144661 -1.238522
  C 2.316968 0.213073 -2.536931
  H 1.244259 0.194599 -2.368913
  H 4.146192 0.177104 -1.338240
  H 4.132553 0.820691 1.467301
  H 4.053578 -0.958629 1.403811
  H 1.768039 -0.943652 2.720973
  H 1.753473 0.831278 2.773645
  H 2.590291 -0.623577 -3.171139
  H 2.574089 1.124482 -3.071535
 15
 63.924950
  H 1.430512 0.004587 0.062368
  C 2.483447 0.051938 -0.135550
  C 3.539947 -0.050288 1.435087
  C 2.338162 -0.059230 2.953305
  H 2.953564 -0.125804 3.833237
  C 3.059581 0.148574 -1.307837
  C 2.308033 0.218032 -2.605904
  H 1.234003 0.196776 -2.438924
  H 4.135661 0.182944 -1.402305
  H 4.177864 0.815937 1.498619
  H 4.105335 -0.965815 1.434583
  H 1.739199 -0.952621 2.837945
  H 1.732574 0.829059 2.888467
  H 2.584273 -0.618817 -3.241787
  H 2.564570 1.132744 -3.138556
 15
 94.295856
  H 1.416117 0.004038 0.001580
  C 2.465650 0.052953 -0.205407
  C 3.600770 -0.055542 1.466047
  C 2.303708 -0.067200 3.077921
  H 2.927799 -0.126420 3.952427
  C 3.046447 0.151992 -1.373562
  C 2.298701 0.222848 -2.673061
  H 1.224819 0.199592 -2.509207
  H 4.123758 0.187599 -1.461872
  H 4.227226 0.818747 1.531422
  H 4.155717 -0.975836 1.465827
  H 1.712600 -0.961062 2.949101
  H 1.711436 0.827026 2.997975
  H 2.577974 -0.613264 -3.308888
  H 2.555648 1.139087 -3.202407
 15
 123.579103
  H 1.400636 0.003750 -0.054716
  C 2.447099 0.054464 -0.273166
  C 3.661539 -0.060126 1.497425
  C 2.269492 -0.074575 3.204277
  H 2.903529 -0.127707 4.070636
  C 3.033310 0.155584 -1.436457
  C 2.289493 0.227716 -2.740445
  H 1.214924 0.202682 -2.580878
  H 4.110794 0.192303 -1.518599
  H 4.274875 0.820119 1.564279
  H 4.206303 -0.985500 1.497296
  H 1.687806 -0.969798 3.060263
  H 1.690240 0.825426 3.107963
  H 2.572598 -0.608030 -3.375865
  H 2.547615 1.145394 -3.266371
 15
 150.426088
  H 1.384690 0.003796 -0.109305
  C 2.427322 0.056194 -0.340119
  C 3.721062 -0.064501 1.528623
  C 2.235119 -0.081785 3.332253
  H 2.880895 -0.130011 4.189644
  C 3.019102 0.159058 -1.498379
  C 2.280651 0.232424 -2.806582
  H 1.205732 0.205974 -2.651962
  H 4.097167 0.196662 -1.574822
  H 4.323510 0.823191 1.596883
  H 4.256302 -0.994925 1.528390
  H 1.663458 -0.978775 3.172472
  H 1.668926 0.823282 3.219341
  H 2.567882 -0.602981 -3.440920
  H 2.540700 1.151487 -3.328902
 15
 174.095740
  H 1.368012 0.004075 -0.162629
  C 2.407109 0.058228 -0.406006
  C 3.779526 -0.068419 1.560495
  C 2.201338 -0.088837 3.463038
  H 2.859446 -0.132966 4.310049
  C 3.004368 0.162659 -1.559247
  C 2.272071 0.237168 -2.873050
  H 1.196394 0.209426 -2.724213
  H 4.082774 0.201126 -1.630064
  H 4.371902 0.825117 1.629845
  H 4.306819 -1.003399 1.559978
  H 1.640109 -0.987732 3.287743
  H 1.647649 0.820754 3.333969
  H 2.564017 -0.598060 -3.505997
  H 2.534587 1.157548 -3.391634
 15
 194.329371
  H 1.350937 0.004604 -0.215784
  C 2.386222 0.060434 -0.471279
  C 3.836473 -0.072115 1.592917
  C 2.168080 -0.095933 3.596698
  H 2.839325 -0.136665 4.432742
  C 2.988754 0.166262 -1.619671
  C 2.263848 0.241863 -2.939152
  H 1.187518 0.212998 -2.796750
  H 4.067648 0.205521 -1.684972
  H 4.421292 0.827073 1.663080
  H 4.357767 -1.010966 1.591847
  H 1.617231 -0.996707 3.406532
  H 1.626398 0.817530 3.452285
  H 2.560867 -0.593191 -3.570284
  H 2.529334 1.163516 -3.453862
 15
 211.145574
  H 1.333188 0.005312 -0.268845
  C 2.364956 0.062829 -0.535792
  C 3.892008 -0.075488 1.626432
  C 2.135769 -0.103111 3.733799
  H 2.820356 -0.140945 4.558110
  C 2.972563 0.169966 -1.679510
  C 2.255949 0.246588 -3.005327
  H 1.178778 0.216658 -2.870038
  H 4.051917 0.210033 -1.739197
  H 4.471481 0.827890 1.696972
  H 4.409839 -1.017269 1.624481
  H 1.595113 -1.005653 3.529675
  H 1.605331 0.813670 3.575077
  H 2.558475 -0.588341 -3.634407
  H 2.524760 1.169445 -3.516052
 15
 224.721837
  H 1.314970 0.006188 -0.322142
  C 2.343212 0.065344 -0.599623
  C 3.946024 -0.078661 1.661327
  C 2.104536 -0.110483 3.874465
  H 2.802675 -0.145831 4.686682
  C 2.955722 0.173713 -1.738864
  C 2.248385 0.251305 -3.071093
  H 1.170426 0.220376 -2.943465
  H 4.035593 0.214583 -1.792806
  H 4.523251 0.827970 1.731809
  H 4.463302 -1.022295 1.658112
  H 1.573669 -1.014647 3.657372
  H 1.584583 0.809075 3.702552
  H 2.556712 -0.583468 -3.697853
  H 2.520811 1.175320 -3.577739
 15
 235.324793
  H 1.296149 0.007167 -0.375419
  C 2.321149 0.067965 -0.662514
  C 3.998734 -0.081607 1.698218
  C 2.074751 -0.118106 4.019024
  H 2.786325 -0.151268 4.818820
  C 2.938438 0.177538 -1.797442
  C 2.241121 0.256043 -3.136306
  H 1.162321 0.224123 -3.016827
  H 4.018878 0.219250 -1.845418
  H 4.576918 0.826790 1.768183
  H 4.518818 -1.025841 1.693362
  H 1.553210 -1.023730 3.789972
  H 1.564411 0.803781 3.835047
  H 2.555526 -0.578546 -3.760584
  H 2.517329 1.181145 -3.638799
 15
 243.257930
  H 1.276947 0.008203 -0.428320
  C 2.298828 0.070636 -0.724114
  C 4.050420 -0.084389 1.737722
  C 2.046778 -0.126058 4.167695
  H 2.771567 -0.157268 4.954994
  C 2.920813 0.181406 -1.854865
  C 2.234173 0.260776 -3.200297
  H 1.154540 0.227861 -3.089326
  H 4.001803 0.223996 -1.896643
  H 4.633209 0.824406 1.806811
  H 4.576945 -1.027833 1.730933
  H 1.534024 -1.032991 3.927651
  H 1.545200 0.797709 3.972763
  H 2.554841 -0.573564 -3.821951
  H 2.514257 1.186927 -3.698585
 15
 248.822393
  H 1.257591 0.009185 -0.479830
  C 2.276545 0.073303 -0.783545
  C 4.101728 -0.087008 1.780787
  C 2.021254 -0.134444 4.321059
  H 2.758857 -0.163861 5.095857
  C 2.903128 0.185307 -1.910250
  C 2.227572 0.265492 -3.262189
  H 1.147173 0.231524 -3.159980
  H 3.984679 0.228854 -1.945608
  H 4.692772 0.820555 1.848714
  H 4.638511 -1.028133 1.771851
  H 1.516769 -1.042554 4.070930
  H 1.527523 0.790860 4.116218
  H 2.554639 -0.568524 -3.881161
  H 2.511505 1.192672 -3.756257
