 13
 0.000000
  H 1.415450 0.148474 0.421670
  C 2.487497 0.114048 0.330892
  H 3.089398 0.451886 1.157869
  C 3.048954 -0.353672 -0.820473
  C 4.446395 -0.415115 -0.984852
  C 5.128560 -0.866591 -2.104292
  C 4.611824 -1.367156 -3.359940
  H 3.534993 -1.407665 -3.466739
  H 6.210755 -0.843351 -2.042758
  H 2.394001 -0.684320 -1.612051
  H 5.042850 -0.073819 -0.147856
  H 5.050388 -2.357020 -3.536524
  H 5.073619 -0.766994 -4.155775
 13
 0.079297
  H 1.398905 0.119603 0.360238
  C 2.472513 0.096443 0.265177
  H 3.040573 0.415639 1.123154
  C 3.100909 -0.326955 -0.863095
  C 4.506405 -0.410482 -0.952660
  C 5.166213 -0.863587 -2.080367
  C 4.561463 -1.369545 -3.293035
  H 3.478912 -1.446430 -3.298149
  H 6.248616 -0.829065 -2.067783
  H 2.542922 -0.627488 -1.742826
  H 5.092591 -0.097906 -0.097295
  H 5.014113 -2.337662 -3.547644
  H 4.911305 -0.738062 -4.112458
 13
 1.728254
  H 1.385068 0.126063 0.280580
  C 2.461499 0.103457 0.221322
  H 2.993360 0.366929 1.123505
  C 3.142119 -0.268555 -0.893731
  C 4.545596 -0.429903 -0.921510
  C 5.184405 -0.869453 -2.070038
  C 4.528504 -1.403013 -3.237312
  H 3.474360 -1.614849 -3.147104
  H 6.263991 -0.789378 -2.118657
  H 2.664273 -0.483808 -1.849586
  H 5.125912 -0.174882 -0.045874
  H 5.053467 -2.298206 -3.594892
  H 4.700993 -0.676340 -4.041755
 13
 2.995723
  H 1.383867 0.176114 0.206202
  C 2.462013 0.111241 0.170460
  H 2.968775 0.307462 1.101944
  C 3.172163 -0.225133 -0.935960
  C 4.570434 -0.451952 -0.907522
  C 5.204493 -0.875607 -2.053138
  C 4.503988 -1.432498 -3.193816
  H 3.512429 -1.827019 -3.001639
  H 6.282660 -0.756881 -2.140383
  H 2.755032 -0.350184 -1.930417
  H 5.131437 -0.253985 -0.001318
  H 5.097738 -2.208707 -3.676397
  H 4.457062 -0.622080 -3.924320
 13
 5.298284
  H 1.382075 0.208615 0.141628
  C 2.461602 0.116468 0.120647
  H 2.945096 0.270575 1.065945
  C 3.203859 -0.206864 -0.970923
  C 4.596960 -0.463986 -0.895467
  C 5.227837 -0.889895 -2.038347
  C 4.477699 -1.448886 -3.150845
  H 3.552748 -1.959132 -2.901435
  H 6.299706 -0.761869 -2.154961
  H 2.841852 -0.299320 -1.997253
  H 5.132907 -0.286159 0.015381
  H 5.096299 -2.109330 -3.748314
  H 4.251635 -0.575421 -3.759747
 13
 7.095820
  H 1.379734 0.228805 0.084187
  C 2.457423 0.128483 0.077862
  H 2.925201 0.277143 1.039082
  C 3.220278 -0.180738 -0.996214
  C 4.611278 -0.465841 -0.894242
  C 5.247636 -0.917932 -2.025558
  C 4.464345 -1.468421 -3.125585
  H 3.634373 -2.095286 -2.840252
  H 6.323491 -0.815281 -2.140326
  H 2.896731 -0.266353 -2.041687
  H 5.139548 -0.300558 0.037065
  H 5.088216 -1.966644 -3.866408
  H 4.037391 -0.554594 -3.565224
 13
 9.680549
  H 1.374633 0.241042 0.052892
  C 2.456281 0.143596 0.049625
  H 2.919197 0.317577 1.010685
  C 3.228517 -0.177856 -1.012779
  C 4.617689 -0.471934 -0.898246
  C 5.261232 -0.945776 -2.011689
  C 4.461102 -1.462421 -3.112402
  H 3.719497 -2.195014 -2.824765
  H 6.340586 -0.872738 -2.106797
  H 2.922604 -0.277433 -2.080618
  H 5.134683 -0.311014 0.038400
  H 5.049371 -1.817589 -3.954229
  H 3.885093 -0.556656 -3.383613
 13
 12.798735
  H 1.370776 0.251594 0.029117
  C 2.451422 0.161499 0.032643
  H 2.906332 0.368556 0.991468
  C 3.230580 -0.172743 -1.016738
  C 4.623236 -0.472558 -0.903925
  C 5.265616 -0.967050 -2.006181
  C 4.458143 -1.447446 -3.111336
  H 3.804420 -2.274413 -2.855745
  H 6.348544 -0.930294 -2.085194
  H 2.936197 -0.299471 -2.093543
  H 5.134291 -0.324594 0.036865
  H 5.017582 -1.684345 -4.009142
  H 3.757664 -0.580640 -3.210852
 13
 17.892541
  H 1.363724 0.255061 0.027672
  C 2.443527 0.165744 0.024560
  H 2.895270 0.406263 0.980616
  C 3.233483 -0.176839 -1.011547
  C 4.626448 -0.479420 -0.899563
  C 5.264282 -0.973545 -2.000477
  C 4.448406 -1.437473 -3.106764
  H 3.847783 -2.313288 -2.877836
  H 6.344813 -0.956651 -2.077362
  H 2.966034 -0.322673 -2.123454
  H 5.133351 -0.332372 0.042734
  H 4.982998 -1.594353 -4.036618
  H 3.681280 -0.600832 -3.105164
 13
 23.011812
  H 1.355683 0.250595 0.020154
  C 2.438386 0.182838 0.023276
  H 2.881242 0.467800 0.971346
  C 3.235203 -0.177248 -0.992327
  C 4.626461 -0.496262 -0.889105
  C 5.253868 -0.980826 -1.996324
  C 4.438191 -1.428714 -3.107962
  H 3.893315 -2.348372 -2.918025
  H 6.335708 -0.973589 -2.074189
  H 2.988563 -0.363280 -2.132621
  H 5.141317 -0.355888 0.050505
  H 4.954124 -1.491944 -4.059472
  H 3.611318 -0.631656 -3.018081
 13
 28.533448
  H 1.351460 0.258718 0.026032
  C 2.431623 0.183814 0.020772
  H 2.878682 0.491164 0.962466
  C 3.226666 -0.193657 -0.979835
  C 4.621720 -0.512197 -0.886907
  C 5.245682 -0.979909 -1.994499
  C 4.430612 -1.417680 -3.102710
  H 3.919764 -2.359077 -2.938087
  H 6.328288 -0.979974 -2.074230
  H 3.000388 -0.386672 -2.147136
  H 5.142138 -0.363327 0.049237
  H 4.929923 -1.426467 -4.065861
  H 3.566323 -0.646053 -2.957225
 13
 33.442838
  H 1.341057 0.265464 0.054272
  C 2.423126 0.185261 0.029537
  H 2.879040 0.502375 0.964378
  C 3.216912 -0.202928 -0.966489
  C 4.615610 -0.520014 -0.882361
  C 5.239296 -0.979016 -1.991761
  C 4.425881 -1.408459 -3.105289
  H 3.934898 -2.362218 -2.959793
  H 6.321990 -0.984212 -2.070634
  H 3.002549 -0.405203 -2.171588
  H 5.140781 -0.358790 0.047605
  H 4.916790 -1.381471 -4.072033
  H 3.537324 -0.656261 -2.931446
 13
 37.531842
  H 1.335881 0.273264 0.083329
  C 2.417245 0.183505 0.040238
  H 2.883683 0.504045 0.968925
  C 3.206948 -0.212801 -0.953285
  C 4.606814 -0.521031 -0.880249
  C 5.229557 -0.978765 -1.987542
  C 4.421207 -1.400018 -3.111017
  H 3.946953 -2.366395 -2.985186
  H 6.311565 -0.987454 -2.062533
  H 3.003025 -0.418773 -2.190914
  H 5.135807 -0.343780 0.044269
  H 4.906499 -1.340648 -4.078270
  H 3.514931 -0.662658 -2.918526
 13
 40.911312
  H 1.329038 0.271841 0.116530
  C 2.412031 0.191507 0.052448
  H 2.886820 0.517041 0.974832
  C 3.199068 -0.207606 -0.941496
  C 4.599323 -0.516104 -0.880030
  C 5.221363 -0.974369 -1.987972
  C 4.418251 -1.391802 -3.118438
  H 3.965625 -2.369321 -3.010903
  H 6.304821 -0.984491 -2.060697
  H 2.997710 -0.434363 -2.208376
  H 5.128529 -0.355058 0.049249
  H 4.898124 -1.299057 -4.086946
  H 3.491381 -0.673852 -2.914588
