 20
 0.000000
  C 0.926027 0.044360 0.322515
  C 2.389201 0.059972 0.008093
  H 3.041233 0.014459 0.869993
  C 2.969799 0.130713 -1.198879
  C 2.339819 0.209768 -2.568214
  C 0.824201 0.218159 -2.730125
  H 0.584658 0.279124 -3.789993
  C 4.429539 0.132182 -1.224790
  C 5.224587 0.194370 -2.292985
  O 6.581480 0.191528 -2.244377
  H 0.762278 -0.012252 1.397352
  H 0.434990 -0.818273 -0.122277
  H 0.439315 0.950071 -0.033446
  H 2.728770 -0.637044 -3.143891
  H 2.727839 1.117800 -3.042173
  H 0.376015 1.075039 -2.236732
  H 0.377300 -0.690380 -2.338392
  H 4.914410 0.075705 -0.255017
  H 4.889229 0.253942 -3.315722
  H 6.872979 0.137953 -1.324883
 20
 5.865173
  C 0.937458 0.030883 0.337584
  C 2.353898 0.033930 -0.010380
  H 3.034634 -0.045301 0.833230
  C 2.958562 0.116306 -1.210443
  C 2.324050 0.210421 -2.593134
  C 0.798302 0.191832 -2.726451
  H 0.539304 0.259372 -3.782659
  C 4.429483 0.133318 -1.213289
  C 5.230602 0.207916 -2.269654
  O 6.585685 0.217417 -2.211675
  H 0.768205 0.002243 1.423118
  H 0.331584 -0.745934 -0.155374
  H 0.742414 0.996884 -0.061541
  H 2.722332 -0.625173 -3.184008
  H 2.696952 1.133690 -3.057777
  H 0.337404 1.033053 -2.219862
  H 0.378696 -0.730152 -2.341668
  H 4.899605 0.075241 -0.233395
  H 4.897626 0.268477 -3.288962
  H 6.870338 0.162564 -1.289831
 20
 18.257909
  C 0.932379 0.049439 0.351553
  C 2.337691 0.002371 -0.007629
  H 3.038641 -0.125780 0.827940
  C 2.948109 0.096056 -1.214389
  C 2.318866 0.212716 -2.591500
  C 0.806314 0.148810 -2.732111
  H 0.551055 0.236665 -3.785823
  C 4.400613 0.127924 -1.209189
  C 5.207965 0.217364 -2.267871
  O 6.562113 0.246231 -2.204764
  H 0.745746 0.004386 1.413207
  H 0.250438 -0.584096 -0.194240
  H 1.033310 1.037868 -0.033984
  H 2.739051 -0.588101 -3.199321
  H 2.663231 1.151725 -3.026075
  H 0.311342 0.958341 -2.203919
  H 0.420324 -0.800118 -2.377308
  H 4.863712 0.070846 -0.231528
  H 4.874722 0.278381 -3.292425
  H 6.844053 0.189913 -1.275179
 20
 31.982407
  C 0.911088 0.040943 0.383498
  C 2.320456 0.008057 -0.003477
  H 3.024610 -0.107202 0.828091
  C 2.939783 0.099948 -1.224781
  C 2.320571 0.216355 -2.596426
  C 0.809083 0.131589 -2.750373
  H 0.560396 0.224182 -3.808980
  C 4.391917 0.130946 -1.213141
  C 5.202655 0.221707 -2.269875
  O 6.557130 0.250058 -2.202235
  H 0.731160 -0.021418 1.438381
  H 0.194410 -0.507743 -0.189892
  H 1.209734 1.013178 0.012363
  H 2.757702 -0.576591 -3.210067
  H 2.656707 1.167150 -3.023117
  H 0.297356 0.931567 -2.218220
  H 0.434800 -0.829613 -2.406269
  H 4.852411 0.073741 -0.234923
  H 4.873773 0.282758 -3.293358
  H 6.834245 0.190154 -1.273662
 20
 43.217418
  C 0.889941 0.037481 0.377770
  C 2.306073 0.021603 -0.023939
  H 2.993204 -0.088249 0.813864
  C 2.941667 0.105227 -1.238731
  C 2.317283 0.214576 -2.608831
  C 0.804986 0.113372 -2.733584
  H 0.532941 0.200072 -3.784914
  C 4.399162 0.137216 -1.217440
  C 5.215682 0.227679 -2.268037
  O 6.576609 0.254323 -2.191335
  H 0.709017 -0.080596 1.433519
  H 0.139369 -0.404053 -0.245291
  H 1.357124 0.993199 0.065886
  H 2.756283 -0.574316 -3.229659
  H 2.637976 1.171160 -3.042772
  H 0.299238 0.908230 -2.194688
  H 0.450296 -0.848097 -2.379702
  H 4.856436 0.079209 -0.235335
  H 4.894314 0.290056 -3.289322
  H 6.845104 0.191091 -1.265963
 20
 52.190160
  C 0.895308 0.020166 0.410251
  C 2.307301 0.036042 -0.027203
  H 2.984125 -0.061726 0.800912
  C 2.941305 0.111128 -1.237075
  C 2.325970 0.214642 -2.622597
  C 0.802212 0.111404 -2.764351
  H 0.540659 0.192028 -3.813611
  C 4.382747 0.142346 -1.209122
  C 5.202920 0.229631 -2.261000
  O 6.561317 0.255260 -2.180042
  H 0.737618 -0.113244 1.462398
  H 0.113869 -0.366616 -0.217362
  H 1.474225 0.966064 0.104457
  H 2.772117 -0.575101 -3.235843
  H 2.650001 1.167597 -3.057250
  H 0.289627 0.913366 -2.233275
  H 0.441877 -0.855513 -2.406545
  H 4.839874 0.085882 -0.220855
  H 4.877926 0.291053 -3.298532
  H 6.826578 0.192500 -1.249885
 20
 58.570574
  C 0.871752 0.001275 0.369973
  C 2.289294 0.052776 -0.043549
  H 2.972677 -0.051411 0.819281
  C 2.945027 0.118209 -1.259040
  C 2.324573 0.212107 -2.620130
  C 0.807285 0.107597 -2.721252
  H 0.514719 0.180411 -3.768574
  C 4.391131 0.148862 -1.224377
  C 5.219272 0.232975 -2.269590
  O 6.586250 0.257300 -2.179421
  H 0.689526 -0.154634 1.431162
  H 0.101959 -0.315791 -0.287447
  H 1.544913 0.958791 0.099930
  H 2.758005 -0.578413 -3.233783
  H 2.637085 1.157189 -3.064716
  H 0.315600 0.904465 -2.188157
  H 0.459292 -0.849293 -2.345904
  H 4.842126 0.094285 -0.238413
  H 4.909669 0.291828 -3.281252
  H 6.843398 0.194879 -1.252490
 20
 63.519233
  C 0.880559 -0.029845 0.412347
  C 2.298583 0.071464 -0.020959
  H 2.983331 -0.029948 0.815073
  C 2.945246 0.122885 -1.250803
  C 2.321753 0.207602 -2.636943
  C 0.810677 0.109649 -2.757971
  H 0.538886 0.173522 -3.799477
  C 4.380254 0.154235 -1.214237
  C 5.211268 0.233259 -2.262266
  O 6.574694 0.254760 -2.169410
  H 0.714008 -0.184282 1.462274
  H 0.079890 -0.307242 -0.261351
  H 1.619410 0.955826 0.138628
  H 2.757245 -0.591919 -3.240878
  H 2.644807 1.159132 -3.095174
  H 0.307844 0.929885 -2.231149
  H 0.451052 -0.847980 -2.378941
  H 4.830528 0.104020 -0.229811
  H 4.899041 0.288209 -3.287969
  H 6.830205 0.194824 -1.237843
 20
 66.374534
  C 0.873133 -0.087195 0.400443
  C 2.289512 0.098738 -0.008277
  H 2.973491 -0.017841 0.825259
  C 2.953294 0.122704 -1.261176
  C 2.328343 0.198952 -2.631873
  C 0.818600 0.113508 -2.741551
  H 0.537160 0.172545 -3.790763
  C 4.382073 0.157939 -1.222551
  C 5.216987 0.234531 -2.270281
  O 6.582162 0.258613 -2.172053
  H 0.678106 -0.224658 1.442917
  H 0.079951 -0.274666 -0.284940
  H 1.662373 0.989026 0.153806
  H 2.756349 -0.613376 -3.234043
  H 2.654958 1.139652 -3.100251
  H 0.329132 0.938786 -2.219022
  H 0.455269 -0.832564 -2.354161
  H 4.833152 0.112283 -0.238136
  H 4.907822 0.285070 -3.297631
  H 6.832720 0.203093 -1.243025
 20
 68.743002
  C 0.882141 -0.137146 0.383319
  C 2.292630 0.123923 -0.005255
  H 2.981155 0.007264 0.833084
  C 2.949169 0.129025 -1.256897
  C 2.326000 0.197163 -2.620627
  C 0.828612 0.122964 -2.732789
  H 0.552882 0.176147 -3.786229
  C 4.373549 0.157472 -1.221250
  C 5.209813 0.227017 -2.271449
  O 6.576880 0.256514 -2.171526
  H 0.669257 -0.247950 1.430903
  H 0.090699 -0.297261 -0.320730
  H 1.715648 1.019976 0.127795
  H 2.738903 -0.612627 -3.203560
  H 2.665720 1.147326 -3.107728
  H 0.348588 0.955326 -2.221141
  H 0.450001 -0.833894 -2.330654
  H 4.832205 0.116538 -0.228570
  H 4.900839 0.275142 -3.297183
  H 6.826190 0.207096 -1.245073
 20
 68.362360
  C 0.896094 -0.194175 0.382674
  C 2.288149 0.145693 0.008170
  H 2.974692 0.017627 0.840879
  C 2.959780 0.132778 -1.260883
  C 2.331668 0.199633 -2.625080
  C 0.811233 0.122965 -2.736706
  H 0.530573 0.185371 -3.787942
  C 4.379359 0.179069 -1.219237
  C 5.223580 0.241091 -2.267906
  O 6.587244 0.237255 -2.160147
  H 0.664722 -0.264643 1.431373
  H 0.104546 -0.305854 -0.319879
  H 1.772148 1.079869 0.115265
  H 2.755147 -0.617430 -3.219732
  H 2.660098 1.125244 -3.096722
  H 0.326760 0.949683 -2.214596
  H 0.440651 -0.820226 -2.351906
  H 4.832068 0.139787 -0.234466
  H 4.919168 0.271017 -3.301269
  H 6.830921 0.189238 -1.229066
 20
 66.439047
  C 0.918027 -0.260063 0.379378
  C 2.279992 0.165803 0.009527
  H 2.972959 0.039998 0.844390
  C 2.958556 0.125034 -1.260638
  C 2.330089 0.191801 -2.627197
  C 0.812511 0.137833 -2.738100
  H 0.535045 0.202011 -3.781304
  C 4.369965 0.167572 -1.214418
  C 5.220660 0.229523 -2.263503
  O 6.581260 0.251799 -2.148343
  H 0.677468 -0.281758 1.430057
  H 0.118133 -0.345886 -0.321977
  H 1.841905 1.148152 0.067909
  H 2.740478 -0.632974 -3.214180
  H 2.675429 1.116387 -3.111278
  H 0.340094 0.978249 -2.213561
  H 0.426695 -0.799814 -2.350386
  H 4.821041 0.138626 -0.231927
  H 4.920175 0.261203 -3.296883
  H 6.822079 0.216098 -1.215057
 20
 63.918618
  C 0.937813 -0.328686 0.393938
  C 2.254869 0.193610 0.017732
  H 2.954642 0.073174 0.842219
  C 2.961707 0.126890 -1.270772
  C 2.338284 0.193511 -2.631032
  C 0.818120 0.156059 -2.740387
  H 0.535066 0.232788 -3.793702
  C 4.363677 0.175089 -1.216112
  C 5.221772 0.228271 -2.265377
  O 6.582298 0.248451 -2.144770
  H 0.688579 -0.301590 1.437409
  H 0.125312 -0.403023 -0.293507
  H 1.895872 1.226625 0.027403
  H 2.743026 -0.641182 -3.219001
  H 2.690584 1.108105 -3.115816
  H 0.363041 0.983436 -2.214297
  H 0.422640 -0.780114 -2.357427
  H 4.812955 0.152233 -0.229598
  H 4.924846 0.248048 -3.294378
  H 6.820621 0.225193 -1.212303
