 25
 0.000000
  C 1.000934 0.122956 0.357511
  C 2.472532 0.130758 0.376682
  C 3.239040 0.601818 1.548643
  C 2.451393 1.088869 2.760640
  C 3.397754 1.534999 3.871095
  C 3.116037 -0.330421 -0.771192
  C 4.504327 -0.403784 -0.955035
  C 5.150155 -0.854520 -2.078955
  C 4.557064 -1.352603 -3.320214
  H 3.475764 -1.370538 -3.364700
  H 6.231222 -0.855905 -2.083206
  H 0.554265 0.491027 1.273229
  H 0.639124 -0.890275 0.175156
  H 0.638934 0.728063 -0.475301
  H 3.900447 1.412377 1.221289
  H 3.900491 -0.209824 1.873203
  H 1.814217 0.290233 3.144575
  H 1.814298 1.931213 2.485213
  H 4.033602 0.714341 4.195558
  H 2.831932 1.881081 4.732407
  H 4.033720 2.351932 3.537537
  H 2.473901 -0.654037 -1.576393
  H 5.118800 -0.071969 -0.129154
  H 4.944052 -2.358267 -3.503428
  H 4.943976 -0.752457 -4.147744
 25
 4.501057
  C 1.040832 0.113533 0.334226
  C 2.501307 0.139741 0.399202
  C 3.240080 0.614112 1.579303
  C 2.425051 1.095108 2.776155
  C 3.346058 1.548600 3.904650
  C 3.188337 -0.302569 -0.701740
  C 4.552846 -0.402459 -0.951018
  C 5.133787 -0.872677 -2.123754
  C 4.472358 -1.358649 -3.335767
  H 3.386527 -1.345534 -3.303265
  H 6.216772 -0.886500 -2.158461
  H 0.564436 0.476014 1.235855
  H 0.699900 -0.903767 0.128269
  H 0.699787 0.705166 -0.518505
  H 3.908962 1.424345 1.262981
  H 3.909061 -0.189584 1.911664
  H 1.787631 0.290450 3.146814
  H 1.787704 1.932556 2.486951
  H 3.982176 0.732877 4.240975
  H 2.762288 1.890560 4.755633
  H 3.982142 2.370208 3.582949
  H 2.751925 -0.663252 -1.599750
  H 5.240581 -0.088267 -0.168271
  H 4.818599 -2.374488 -3.546815
  H 4.818753 -0.770193 -4.190194
 25
 14.340772
  C 1.057302 0.108253 0.321477
  C 2.519210 0.145726 0.414076
  C 3.239564 0.624130 1.604267
  C 2.409060 1.099377 2.787133
  C 3.311846 1.558426 3.928204
  C 3.235884 -0.288955 -0.668158
  C 4.583586 -0.407030 -0.961272
  C 5.107164 -0.884479 -2.152131
  C 4.416146 -1.360663 -3.341789
  H 3.334537 -1.341757 -3.296714
  H 6.187270 -0.912563 -2.220608
  H 0.561959 0.466996 1.214264
  H 0.729763 -0.908057 0.107126
  H 0.729358 0.693390 -0.536481
  H 3.911597 1.432098 1.293692
  H 3.912008 -0.173911 1.938977
  H 1.771112 0.290504 3.148797
  H 1.770719 1.933261 2.488484
  H 3.948294 0.746569 4.273192
  H 2.714737 1.896900 4.770915
  H 3.947499 2.383677 3.615062
  H 2.970977 -0.667160 -1.610630
  H 5.327848 -0.113684 -0.228525
  H 4.748816 -2.375396 -3.557090
  H 4.750041 -0.775859 -4.198082
 25
 27.916640
  C 1.076097 0.108137 0.321344
  C 2.527601 0.151478 0.428749
  C 3.233992 0.632215 1.624860
  C 2.391034 1.106091 2.803765
  C 3.281610 1.568156 3.951885
  C 3.264509 -0.283074 -0.653062
  C 4.603397 -0.416859 -0.984885
  C 5.096753 -0.893424 -2.174142
  C 4.377527 -1.371326 -3.368962
  H 3.285403 -1.348420 -3.313676
  H 6.174267 -0.928274 -2.259479
  H 0.570397 0.464924 1.209390
  H 0.754786 -0.915389 0.102474
  H 0.754358 0.695451 -0.544920
  H 3.909023 1.442771 1.317305
  H 3.909048 -0.165726 1.963528
  H 1.753160 0.296088 3.159760
  H 1.752872 1.936845 2.499962
  H 3.917878 0.758567 4.302247
  H 2.675799 1.904806 4.789739
  H 3.917097 2.395468 3.643941
  H 3.143721 -0.670516 -1.618623
  H 5.395186 -0.128857 -0.264732
  H 4.705162 -2.395849 -3.589928
  H 4.706251 -0.782782 -4.235719
 25
 42.728477
  C 1.063509 0.106810 0.318300
  C 2.520241 0.152516 0.430899
  C 3.226999 0.634747 1.630453
  C 2.385693 1.106705 2.805239
  C 3.275140 1.569739 3.955677
  C 3.259551 -0.275849 -0.635658
  C 4.620107 -0.420171 -0.992637
  C 5.099742 -0.897825 -2.184572
  C 4.362857 -1.371715 -3.370195
  H 3.271192 -1.342103 -3.299199
  H 6.177896 -0.937046 -2.279850
  H 0.554455 0.463241 1.205806
  H 0.745889 -0.911546 0.098963
  H 0.745255 0.690027 -0.544527
  H 3.901649 1.442949 1.322536
  H 3.902070 -0.161787 1.967100
  H 1.747135 0.295246 3.160424
  H 1.746496 1.937813 2.500086
  H 3.911604 0.760780 4.306876
  H 2.668300 1.905762 4.792493
  H 3.910509 2.397464 3.648849
  H 3.277398 -0.664671 -1.605020
  H 5.423171 -0.148969 -0.313253
  H 4.681316 -2.398470 -3.594940
  H 4.683128 -0.784274 -4.241220
 25
 55.824810
  C 1.044435 0.107789 0.327980
  C 2.508810 0.153793 0.435534
  C 3.220333 0.639965 1.639886
  C 2.381087 1.113969 2.821652
  C 3.273844 1.577289 3.968148
  C 3.245352 -0.278245 -0.641372
  C 4.610699 -0.436004 -1.017670
  C 5.103548 -0.911684 -2.211781
  C 4.374765 -1.377794 -3.395800
  H 3.291301 -1.344251 -3.324872
  H 6.178543 -0.952313 -2.301364
  H 0.537428 0.464215 1.216354
  H 0.724054 -0.916745 0.108127
  H 0.721606 0.693969 -0.539722
  H 3.895789 1.450263 1.329891
  H 3.898306 -0.157829 1.975948
  H 1.744039 0.303493 3.179346
  H 1.740877 1.944183 2.519141
  H 3.911641 0.768568 4.317272
  H 2.669642 1.913558 4.807204
  H 3.907926 2.404919 3.658770
  H 3.365485 -0.669659 -1.622432
  H 5.419038 -0.164337 -0.319984
  H 4.687646 -2.399569 -3.620726
  H 4.696132 -0.790824 -4.258732
 25
 66.703859
  C 1.014199 0.088789 0.354394
  C 2.495177 0.141868 0.416995
  C 3.222858 0.652910 1.625068
  C 2.388063 1.115440 2.801449
  C 3.290754 1.582749 3.935031
  C 3.204720 -0.275256 -0.634981
  C 4.577148 -0.484800 -1.025856
  C 5.118577 -0.925144 -2.184930
  C 4.407905 -1.353574 -3.414354
  H 3.318442 -1.296632 -3.353062
  H 6.205849 -0.980665 -2.241620
  H 0.547880 0.450079 1.250196
  H 0.676076 -0.921731 0.163579
  H 0.678953 0.676849 -0.489118
  H 3.878938 1.472046 1.324060
  H 3.895250 -0.143689 1.950280
  H 1.761595 0.301150 3.164706
  H 1.741894 1.941913 2.507035
  H 3.936656 0.776611 4.275328
  H 2.692296 1.913970 4.778979
  H 3.916361 2.414345 3.618337
  H 3.397709 -0.655296 -1.622318
  H 5.342667 -0.245141 -0.265263
  H 4.688469 -2.372666 -3.664720
  H 4.755487 -0.747551 -4.245937
 25
 70.335113
  C 0.981424 0.061749 0.384089
  C 2.477672 0.124483 0.410671
  C 3.225901 0.670170 1.627106
  C 2.383562 1.129944 2.814086
  C 3.300484 1.622191 3.931946
  C 3.173794 -0.279394 -0.623671
  C 4.555330 -0.577445 -1.050922
  C 5.140371 -0.974670 -2.200045
  C 4.464463 -1.309087 -3.468933
  H 3.368783 -1.201799 -3.420911
  H 6.218591 -1.071103 -2.216364
  H 0.543507 0.431409 1.301307
  H 0.647282 -0.964431 0.223078
  H 0.615002 0.661209 -0.453055
  H 3.855661 1.504894 1.304810
  H 3.903058 -0.125098 1.957152
  H 1.777190 0.308512 3.197530
  H 1.723080 1.947546 2.523700
  H 3.963827 0.828204 4.268920
  H 2.708075 1.951799 4.782111
  H 3.907906 2.460509 3.597107
  H 3.413832 -0.650925 -1.642739
  H 5.263125 -0.419256 -0.221940
  H 4.699507 -2.331609 -3.759076
  H 4.854932 -0.670930 -4.259415
 25
 74.619388
  C 0.982169 0.052884 0.432330
  C 2.476131 0.115960 0.433699
  C 3.228504 0.677094 1.629221
  C 2.382143 1.138322 2.805670
  C 3.287443 1.652944 3.915467
  C 3.158248 -0.292754 -0.607112
  C 4.546336 -0.651015 -1.059415
  C 5.141312 -1.011630 -2.202621
  C 4.483245 -1.263221 -3.515804
  H 3.417259 -1.117492 -3.494391
  H 6.211478 -1.147975 -2.189550
  H 0.567071 0.427404 1.349656
  H 0.649988 -0.975891 0.288164
  H 0.597039 0.644388 -0.397572
  H 3.843386 1.513561 1.289327
  H 3.910920 -0.108795 1.966702
  H 1.788967 0.316683 3.195047
  H 1.714435 1.940983 2.505588
  H 3.957979 0.874278 4.261057
  H 2.690843 1.983766 4.759465
  H 3.882337 2.492159 3.572948
  H 3.442616 -0.661853 -1.620941
  H 5.216918 -0.564476 -0.200769
  H 4.688815 -2.281600 -3.844999
  H 4.918986 -0.605753 -4.269605
 25
 78.497935
  C 0.959390 0.026627 0.449883
  C 2.455764 0.096443 0.439422
  C 3.221149 0.679286 1.621059
  C 2.384415 1.155921 2.810229
  C 3.307386 1.694378 3.906096
  C 3.125160 -0.319258 -0.603229
  C 4.520644 -0.727424 -1.054745
  C 5.141962 -1.048035 -2.205119
  C 4.520358 -1.200817 -3.541230
  H 3.449556 -1.009986 -3.542737
  H 6.208661 -1.226120 -2.163694
  H 0.549523 0.407369 1.365998
  H 0.633843 -1.003834 0.319069
  H 0.562053 0.606457 -0.380483
  H 3.827095 1.517234 1.259206
  H 3.912985 -0.099113 1.965299
  H 1.799455 0.332629 3.220941
  H 1.705803 1.953909 2.506801
  H 3.989778 0.922373 4.254739
  H 2.719888 2.035131 4.756599
  H 3.894668 2.534698 3.542360
  H 3.461542 -0.692929 -1.608015
  H 5.155076 -0.716934 -0.162000
  H 4.699267 -2.207809 -3.918086
  H 5.004962 -0.523117 -4.244595
 25
 81.520037
  C 0.928712 0.004880 0.486778
  C 2.429362 0.077642 0.453365
  C 3.210799 0.682004 1.613271
  C 2.399560 1.171098 2.794270
  C 3.333491 1.725329 3.858480
  C 3.083913 -0.350259 -0.593777
  C 4.486986 -0.807177 -1.038911
  C 5.142156 -1.077765 -2.185408
  C 4.567345 -1.120954 -3.548328
  H 3.504713 -0.886937 -3.576792
  H 6.195972 -1.297683 -2.116238
  H 0.528726 0.398072 1.409303
  H 0.603756 -1.028044 0.373951
  H 0.516020 0.573933 -0.345747
  H 3.806591 1.514440 1.230573
  H 3.908934 -0.086489 1.959602
  H 1.824738 0.355072 3.226801
  H 1.716764 1.960456 2.488380
  H 4.019573 0.963846 4.206871
  H 2.762278 2.077319 4.707889
  H 3.910337 2.556145 3.472940
  H 3.469852 -0.738230 -1.595998
  H 5.077604 -0.883625 -0.119875
  H 4.723765 -2.110219 -3.983127
  H 5.105871 -0.418780 -4.189991
 25
 81.742411
  C 0.915673 -0.009835 0.501704
  C 2.411315 0.064236 0.449483
  C 3.207145 0.682551 1.592565
  C 2.406353 1.184226 2.791242
  C 3.357961 1.753998 3.842479
  C 3.053995 -0.365936 -0.603733
  C 4.455748 -0.850070 -1.031443
  C 5.141199 -1.085725 -2.171642
  C 4.602462 -1.069169 -3.551982
  H 3.548351 -0.819070 -3.601623
  H 6.200860 -1.323574 -2.075806
  H 0.524459 0.388528 1.431431
  H 0.592655 -1.043781 0.397163
  H 0.491509 0.553579 -0.326656
  H 3.792909 1.509962 1.194035
  H 3.911438 -0.078189 1.933639
  H 1.840071 0.369165 3.241851
  H 1.714884 1.970800 2.487384
  H 4.056185 0.992227 4.190315
  H 2.794185 2.114416 4.702830
  H 3.930308 2.588945 3.438476
  H 3.453116 -0.807801 -1.592196
  H 5.012336 -0.968926 -0.095745
  H 4.757255 -2.044921 -4.019909
  H 5.164320 -0.350721 -4.149637
 25
 84.319133
  C 0.928323 -0.012895 0.511860
  C 2.425315 0.051124 0.463634
  C 3.221109 0.683668 1.600618
  C 2.409880 1.206183 2.779689
  C 3.348718 1.789570 3.834028
  C 3.080844 -0.395905 -0.572374
  C 4.454013 -0.916721 -1.031250
  C 5.142542 -1.117840 -2.180218
  C 4.604898 -1.008190 -3.553650
  H 3.560400 -0.718313 -3.587227
  H 6.190755 -1.395522 -2.093873
  H 0.535051 0.402332 1.433942
  H 0.598694 -1.049056 0.421074
  H 0.508984 0.541208 -0.328030
  H 3.814627 1.499504 1.195052
  H 3.920336 -0.074132 1.957149
  H 1.835871 0.400980 3.232609
  H 1.725613 1.987206 2.454708
  H 4.041403 1.029911 4.202913
  H 2.772913 2.165525 4.682954
  H 3.929717 2.617866 3.423194
  H 3.479612 -0.864164 -1.580102
  H 4.998535 -1.105956 -0.104987
  H 4.726784 -1.956724 -4.077035
  H 5.193212 -0.283512 -4.115638
 25
 85.247488
  C 0.942987 -0.020186 0.508577
  C 2.442119 0.040681 0.483332
  C 3.226090 0.689987 1.621335
  C 2.410661 1.236085 2.776707
  C 3.345104 1.832401 3.830121
  C 3.111322 -0.428475 -0.532494
  C 4.446004 -0.992835 -1.033165
  C 5.135741 -1.150851 -2.197394
  C 4.610084 -0.942960 -3.567620
  H 3.571432 -0.611335 -3.591904
  H 6.163975 -1.467659 -2.121136
  H 0.538625 0.409171 1.413324
  H 0.612668 -1.058411 0.430952
  H 0.536663 0.521523 -0.347341
  H 3.829772 1.498884 1.207200
  H 3.918573 -0.066629 2.004124
  H 1.826681 0.442463 3.238790
  H 1.735299 2.015235 2.430025
  H 4.028808 1.075045 4.219089
  H 2.764624 2.228498 4.667706
  H 3.935988 2.648624 3.409849
  H 3.491445 -0.932332 -1.567010
  H 4.983270 -1.253023 -0.115929
  H 4.701465 -1.861881 -4.141397
  H 5.232739 -0.203769 -4.088119
