 25
 0.000000
  C 0.977438 0.160065 0.451717
  C 2.448555 0.139868 0.399900
  C 3.238470 0.603694 1.552238
  H 2.640809 0.940089 2.389533
  C 3.041676 -0.329757 -0.768612
  C 4.423182 -0.417510 -0.987945
  C 5.085510 -0.866457 -2.107197
  C 4.614781 -1.385156 -3.401108
  C 3.131576 -1.512909 -3.721495
  C 2.936760 -2.076401 -5.127353
  H 6.166310 -0.850743 -2.067725
  H 0.592797 0.538738 1.393472
  H 0.583540 -0.845042 0.292881
  H 0.582701 0.774880 -0.358729
  H 3.893859 1.420168 1.241223
  H 3.894684 -0.200165 1.892913
  H 2.371638 -0.644692 -1.551553
  H 5.054538 -0.089713 -0.171643
  H 5.085908 -2.369746 -3.524979
  H 5.086753 -0.759395 -4.170785
  H 2.649936 -0.535036 -3.675062
  H 2.649153 -2.187527 -3.012606
  H 3.385239 -1.426135 -5.875035
  H 1.877105 -2.166370 -5.353078
  H 3.384516 -3.063412 -5.218696
 25
 13.726726
  C 0.939724 0.197627 0.545065
  C 2.400714 0.180071 0.499985
  C 3.197072 0.637131 1.635968
  H 2.595923 0.973386 2.473303
  C 3.051741 -0.335548 -0.783285
  C 4.411832 -0.413719 -0.978841
  C 5.135686 -0.903001 -2.198600
  C 4.656329 -1.416208 -3.478625
  C 3.167437 -1.535614 -3.778066
  C 2.949067 -2.097995 -5.180917
  H 6.214206 -0.882228 -2.146520
  H 0.555085 0.576274 1.486950
  H 0.546852 -0.807846 0.382267
  H 0.546093 0.810154 -0.268405
  H 3.853565 1.452478 1.323977
  H 3.854385 -0.166709 1.974907
  H 2.380993 -0.649114 -1.562920
  H 5.045762 -0.087935 -0.167483
  H 5.123889 -2.402702 -3.608561
  H 5.124743 -0.793359 -4.254087
  H 2.692973 -0.554781 -3.723425
  H 2.692233 -2.206670 -3.061108
  H 3.390766 -1.450302 -5.934915
  H 1.885991 -2.182209 -5.392148
  H 3.390130 -3.087488 -5.278504
 25
 41.081772
  C 0.899856 0.223951 0.609415
  C 2.348523 0.216947 0.591474
  C 3.209654 0.652202 1.675734
  H 2.631395 0.994620 2.530278
  C 3.046174 -0.353155 -0.828953
  C 4.363867 -0.400908 -0.949219
  C 5.166997 -0.919691 -2.242021
  C 4.682844 -1.433963 -3.523135
  C 3.183754 -1.551169 -3.816434
  C 2.956261 -2.113198 -5.217330
  H 6.234043 -0.864395 -2.104255
  H 0.500144 0.600261 1.546515
  H 0.514198 -0.783455 0.418019
  H 0.513889 0.818939 -0.225589
  H 3.872611 1.457394 1.342085
  H 3.872883 -0.160155 1.990770
  H 2.337336 -0.651194 -1.570536
  H 5.029024 -0.085454 -0.163693
  H 5.155478 -2.423389 -3.665540
  H 5.156099 -0.818142 -4.310184
  H 2.723653 -0.564584 -3.751602
  H 2.722919 -2.218802 -3.087680
  H 3.396960 -1.466608 -5.972968
  H 1.892231 -2.196433 -5.426005
  H 3.396230 -3.103178 -5.316297
 25
 73.690965
  C 0.844702 0.249789 0.674425
  C 2.292270 0.251396 0.677330
  C 3.184482 0.674108 1.729849
  H 2.630756 1.024430 2.604160
  C 3.046102 -0.371649 -0.875182
  C 4.355073 -0.403672 -0.956226
  C 5.228852 -0.953940 -2.327026
  C 4.733821 -1.459888 -3.587375
  C 3.235509 -1.559589 -3.837762
  C 2.958842 -2.119035 -5.232036
  H 6.290740 -0.882675 -2.149218
  H 0.434019 0.624966 1.608746
  H 0.465911 -0.755644 0.479730
  H 0.465269 0.840868 -0.161666
  H 3.846213 1.464977 1.377593
  H 3.846942 -0.140700 2.021387
  H 2.311670 -0.656909 -1.584817
  H 5.036113 -0.098016 -0.195127
  H 5.193162 -2.448530 -3.739896
  H 5.194000 -0.852014 -4.381184
  H 2.786764 -0.567955 -3.759564
  H 2.785751 -2.221395 -3.095842
  H 3.382919 -1.476864 -6.001397
  H 1.888146 -2.188881 -5.407851
  H 3.381865 -3.115226 -5.343820
 25
 106.640412
  C 0.803243 0.295185 0.787616
  C 2.238067 0.298983 0.795870
  C 3.147348 0.712930 1.826997
  H 2.611602 1.066264 2.709336
  C 3.040524 -0.375626 -0.886088
  C 4.333094 -0.400854 -0.949885
  C 5.273714 -0.985926 -2.406812
  C 4.775602 -1.493038 -3.669843
  C 3.270283 -1.590801 -3.915400
  C 2.985310 -2.149399 -5.307559
  H 6.327059 -0.905650 -2.206413
  H 0.389054 0.669825 1.721181
  H 0.426676 -0.712482 0.589094
  H 0.425987 0.885520 -0.052523
  H 3.811204 1.500600 1.461285
  H 3.811954 -0.108863 2.106233
  H 2.283023 -0.654965 -1.581206
  H 5.030741 -0.097926 -0.195337
  H 5.234007 -2.486546 -3.825531
  H 5.234888 -0.883956 -4.469440
  H 2.825025 -0.598475 -3.834334
  H 2.824001 -2.251098 -3.170859
  H 3.407314 -1.508444 -6.078409
  H 1.913608 -2.217344 -5.478617
  H 3.406278 -3.145867 -5.421262
 25
 136.526223
  C 0.750502 0.332142 0.880524
  C 2.185867 0.341295 0.901366
  C 3.117082 0.748339 1.914096
  H 2.600714 1.106498 2.808171
  C 3.043054 -0.386650 -0.912836
  C 4.319803 -0.402238 -0.952594
  C 5.326179 -1.019805 -2.490283
  C 4.819760 -1.524265 -3.747175
  C 3.311956 -1.612973 -3.970803
  C 3.001285 -2.169290 -5.357957
  H 6.373651 -0.930072 -2.266013
  H 0.325342 0.706241 1.812418
  H 0.378963 -0.677380 0.676775
  H 0.377923 0.919693 0.035142
  H 3.781155 1.529475 1.534319
  H 3.782254 -0.078022 2.178861
  H 2.270233 -0.657055 -1.585296
  H 5.029441 -0.105635 -0.213810
  H 5.269915 -2.519965 -3.908688
  H 5.270964 -0.917559 -4.552395
  H 2.875406 -0.617521 -3.881461
  H 2.874162 -2.269870 -3.218390
  H 3.415803 -1.530744 -6.135388
  H 1.926622 -2.230378 -5.512342
  H 3.414499 -3.168607 -5.478290
 25
 160.416729
  C 0.713087 0.356510 0.931490
  C 2.125797 0.374728 0.983836
  C 3.060724 0.763428 1.973669
  H 2.574313 1.122767 2.883321
  C 3.077909 -0.412089 -1.000923
  C 4.348727 -0.409051 -0.991537
  C 5.400639 -1.044154 -2.565200
  C 4.872557 -1.544906 -3.801381
  C 3.354299 -1.614790 -3.971915
  C 2.981618 -2.169345 -5.343026
  H 6.435123 -0.946383 -2.323771
  H 0.254893 0.721930 1.853354
  H 0.358478 -0.656138 0.714427
  H 0.361180 0.947677 0.080059
  H 3.724854 1.540100 1.579686
  H 3.722245 -0.075009 2.216341
  H 2.279647 -0.671675 -1.652757
  H 5.079302 -0.120478 -0.269302
  H 5.303669 -2.548772 -3.970287
  H 5.302257 -0.940112 -4.620949
  H 2.935367 -0.614112 -3.865942
  H 2.936355 -2.261119 -3.200072
  H 3.374958 -1.539237 -6.137654
  H 1.901195 -2.214591 -5.454101
  H 3.375460 -3.174548 -5.476433
 25
 178.319819
  C 0.654310 0.418522 1.035245
  C 2.071863 0.420684 1.096759
  C 3.011378 0.774685 2.102941
  H 2.539179 1.120058 3.026914
  C 3.122425 -0.407253 -1.093036
  C 4.365067 -0.399015 -1.056025
  C 5.444828 -1.049601 -2.646337
  C 4.906369 -1.567733 -3.877429
  C 3.391574 -1.643783 -4.026715
  C 3.000646 -2.215104 -5.384837
  H 6.481735 -0.943338 -2.398977
  H 0.179896 0.767256 1.959515
  H 0.297352 -0.585411 0.790485
  H 0.320577 1.030174 0.192818
  H 3.684071 1.547497 1.724055
  H 3.659469 -0.077763 2.319083
  H 2.312414 -0.650692 -1.734046
  H 5.102916 -0.120155 -0.340646
  H 5.333451 -2.571943 -4.037799
  H 5.318442 -0.967656 -4.706264
  H 2.972658 -0.641989 -3.924939
  H 2.987438 -2.281421 -3.239508
  H 3.382106 -1.593860 -6.192693
  H 1.918666 -2.262995 -5.479898
  H 3.394291 -3.221583 -5.511465
 25
 145.705092
  C 0.587987 0.711836 1.541361
  C 1.988055 0.509111 1.345526
  C 2.992242 0.666201 2.380579
  H 2.628687 0.963761 3.362331
  C 2.973171 -0.522990 -1.792338
  C 4.255427 -0.454174 -1.714919
  C 5.249277 -0.833687 -2.639560
  C 4.957086 -1.561649 -3.882728
  C 3.489502 -1.659201 -4.264536
  C 3.278496 -2.442297 -5.549335
  H 6.274085 -0.769543 -2.309793
  H 0.283280 1.008763 2.540782
  H 0.074422 -0.202285 1.251178
  H 0.244568 1.442562 0.811326
  H 3.734595 1.377701 2.026822
  H 3.542674 -0.270430 2.453746
  H 1.995094 -0.581107 -2.179593
  H 4.682271 -0.158215 -0.756155
  H 5.407698 -2.567281 -3.833918
  H 5.501932 -1.053145 -4.684566
  H 3.079475 -0.651784 -4.387857
  H 2.954070 -2.156897 -3.449899
  H 3.787864 -1.961415 -6.379511
  H 2.220928 -2.501319 -5.792265
  H 3.659381 -3.455893 -5.452757
 25
 144.452577
  C 0.561288 0.682179 1.663309
  C 1.970210 0.499908 1.408375
  C 2.973705 0.680290 2.433114
  H 2.615920 0.974948 3.428785
  C 2.952919 -0.538658 -1.969377
  C 4.245760 -0.435512 -1.841374
  C 5.296179 -0.820991 -2.685447
  C 5.021703 -1.596501 -3.903135
  C 3.562928 -1.577305 -4.315388
  C 3.269932 -2.467068 -5.519162
  H 6.307342 -0.772621 -2.324631
  H 0.280385 0.977332 2.683746
  H 0.052529 -0.245487 1.392242
  H 0.183232 1.415014 0.947143
  H 3.698303 1.412026 2.066331
  H 3.545005 -0.249073 2.501071
  H 1.930136 -0.609776 -2.223207
  H 4.593650 -0.110226 -0.857913
  H 5.379464 -2.628002 -3.776720
  H 5.634854 -1.183057 -4.713052
  H 3.262638 -0.554602 -4.543400
  H 2.969664 -1.932290 -3.455774
  H 3.830308 -2.129717 -6.387156
  H 2.212683 -2.441028 -5.769055
  H 3.541827 -3.500088 -5.313541
