 17
 0.000000
  C 0.974105 0.134780 0.386143
  C 2.429761 0.084503 0.264082
  H 3.027629 0.420909 1.101864
  C 3.067366 -0.370038 -0.866750
  C 4.459962 -0.410310 -0.969172
  C 5.191718 -0.852900 -2.074708
  C 4.609761 -1.357195 -3.331528
  H 3.527942 -1.357769 -3.332420
  O 6.498060 -0.843460 -2.054591
  H 0.653061 0.521385 1.347703
  H 0.546823 -0.859341 0.232870
  H 0.548605 0.747665 -0.412426
  H 2.459039 -0.703397 -1.696059
  H 5.027808 -0.066203 -0.113150
  H 4.980617 -2.365462 -3.515906
  H 4.980407 -0.755916 -4.161720
  H 6.897092 -0.511960 -1.226955
 17
 2.088722
  C 0.983148 0.086750 0.383132
  C 2.438682 0.098025 0.239357
  H 3.029201 0.568840 1.013741
  C 3.083039 -0.457522 -0.841150
  C 4.471342 -0.437637 -0.969457
  C 5.205254 -0.882580 -2.071316
  C 4.626371 -1.321863 -3.353198
  H 3.545678 -1.292516 -3.366545
  O 6.513515 -0.833318 -2.058574
  H 0.652926 0.567633 1.297456
  H 0.608227 -0.939328 0.353456
  H 0.514906 0.575960 -0.474707
  H 2.484324 -0.929526 -1.606448
  H 5.046768 0.008536 -0.168946
  H 4.977329 -2.331725 -3.568204
  H 5.018449 -0.699316 -4.158058
  H 6.945078 -0.896429 -1.186447
 17
 7.264467
  C 0.970519 0.056139 0.387763
  C 2.419365 0.135569 0.218215
  H 2.991155 0.711070 0.933747
  C 3.082825 -0.478209 -0.817442
  C 4.469012 -0.395686 -0.965483
  C 5.207360 -0.861055 -2.052418
  C 4.633546 -1.266545 -3.345395
  H 3.557859 -1.157840 -3.390270
  O 6.529272 -0.785838 -2.024225
  H 0.626871 0.579168 1.273370
  H 0.649234 -0.987400 0.426026
  H 0.466060 0.464536 -0.491964
  H 2.508047 -1.058386 -1.525262
  H 5.035090 0.130783 -0.207678
  H 4.917475 -2.300918 -3.547848
  H 5.097693 -0.682005 -4.141176
  H 6.966199 -1.245412 -1.287749
 17
 11.915070
  C 0.952863 0.063077 0.378629
  C 2.400872 0.141042 0.217467
  H 2.966670 0.747148 0.912344
  C 3.074177 -0.500363 -0.795533
  C 4.459834 -0.400752 -0.945215
  C 5.211195 -0.837702 -2.031591
  C 4.660676 -1.271458 -3.322801
  H 3.580057 -1.220633 -3.359721
  O 6.536682 -0.690570 -1.954526
  H 0.599859 0.621093 1.238762
  H 0.636543 -0.980130 0.456050
  H 0.452328 0.431163 -0.521057
  H 2.511391 -1.111944 -1.486941
  H 5.048848 0.059945 -0.162700
  H 4.994181 -2.286997 -3.544817
  H 5.087593 -0.652259 -4.113979
  H 7.046551 -1.418621 -1.570274
 17
 8.109465
  C 0.894508 0.132231 0.376350
  C 2.347041 0.196811 0.247973
  H 2.905765 0.770344 0.974718
  C 3.031083 -0.412528 -0.772249
  C 4.424835 -0.322565 -0.891101
  C 5.192514 -0.749011 -1.975793
  C 4.664465 -1.242245 -3.258356
  H 3.582705 -1.236844 -3.292789
  O 6.497686 -0.587911 -1.835004
  H 0.526333 0.708282 1.217593
  H 0.574899 -0.908467 0.474340
  H 0.413289 0.478709 -0.541262
  H 2.471060 -0.982772 -1.500785
  H 5.009343 0.015544 -0.041851
  H 5.025979 -2.248499 -3.472630
  H 5.057104 -0.610328 -4.057244
  H 7.065205 -1.347908 -2.008138
 17
 13.189699
  C 0.883345 0.141189 0.332928
  C 2.333181 0.249257 0.155034
  H 2.852306 1.069783 0.632723
  C 3.052867 -0.614142 -0.629947
  C 4.431401 -0.481014 -0.827354
  C 5.177980 -0.833946 -1.941451
  C 4.657701 -1.066005 -3.294881
  H 3.577174 -0.982972 -3.319760
  O 6.482263 -0.727141 -1.728794
  H 0.485143 0.935350 0.955047
  H 0.636781 -0.828100 0.772781
  H 0.371752 0.149446 -0.631240
  H 2.547024 -1.449572 -1.097659
  H 5.129970 -0.194635 -0.046448
  H 4.947419 -2.049168 -3.669869
  H 5.098780 -0.335852 -3.973271
  H 7.046037 -1.454130 -2.041101
 17
 28.170458
  C 0.871501 0.167392 0.433202
  C 2.295673 0.282341 0.108851
  H 2.824789 1.171880 0.422892
  C 2.969733 -0.669776 -0.606002
  C 4.324452 -0.552341 -0.931601
  C 5.122032 -0.866399 -2.014730
  C 4.792239 -1.010163 -3.434843
  H 3.723979 -0.903585 -3.593035
  O 6.408248 -0.778265 -1.622946
  H 0.499116 1.043514 0.953426
  H 0.702407 -0.720350 1.047726
  H 0.277826 0.008890 -0.469064
  H 2.455339 -1.579907 -0.891980
  H 5.189122 -0.327624 -0.256747
  H 5.107435 -1.985582 -3.808273
  H 5.327224 -0.257246 -4.012506
  H 6.971124 -1.561830 -1.733137
 17
 50.452424
  C 0.864461 0.220000 0.526940
  C 2.256862 0.305464 0.076491
  H 2.801243 1.220933 0.261847
  C 2.873219 -0.710910 -0.601139
  C 4.189851 -0.645506 -1.045980
  C 5.048902 -0.893766 -2.067507
  C 4.911475 -0.997562 -3.526630
  H 3.866721 -0.923413 -3.812795
  O 6.308469 -0.791446 -1.510939
  H 0.533477 1.138561 1.000100
  H 0.750753 -0.606837 1.231773
  H 0.199587 -0.012391 -0.306981
  H 2.337683 -1.643766 -0.746491
  H 5.251833 -0.468614 -0.403705
  H 5.299360 -1.954750 -3.875869
  H 5.479155 -0.206919 -4.014701
  H 6.898140 -1.565958 -1.587703
 17
 64.818698
  C 0.863252 0.246924 0.567165
  C 2.236998 0.318562 0.043144
  H 2.785991 1.239524 0.175076
  C 2.822522 -0.721671 -0.627678
  C 4.102440 -0.690709 -1.131537
  C 4.981659 -0.910675 -2.085684
  C 4.943151 -0.999595 -3.556379
  H 3.918983 -0.931206 -3.907391
  O 6.267983 -0.793875 -1.437218
  H 0.558052 1.178314 1.031763
  H 0.781486 -0.559311 1.299125
  H 0.159118 -0.002728 -0.228301
  H 2.282820 -1.661497 -0.700249
  H 5.465948 -0.517293 -0.490634
  H 5.363000 -1.948060 -3.889323
  H 5.529995 -0.195092 -3.996441
  H 6.842098 -1.589471 -1.471664
 17
 58.008999
  C 0.827007 0.258228 0.549294
  C 2.198970 0.317770 0.014355
  H 2.735615 1.251310 0.093202
  C 2.786916 -0.748987 -0.623964
  C 4.042737 -0.731477 -1.165237
  C 4.936582 -0.930423 -2.087582
  C 4.938801 -0.993732 -3.556345
  H 3.924090 -0.922731 -3.932126
  O 6.265751 -0.811406 -1.426266
  H 0.516801 1.207764 0.971335
  H 0.755734 -0.511751 1.320627
  H 0.121045 -0.035737 -0.229320
  H 2.241183 -1.687606 -0.670501
  H 5.674625 -0.536414 -0.550501
  H 5.369303 -1.936444 -3.893958
  H 5.536019 -0.181135 -3.965799
  H 6.815969 -1.625013 -1.462322
 17
 48.006078
  C 0.799319 0.267653 0.565618
  C 2.157814 0.322589 -0.013736
  H 2.678787 1.268252 -0.003935
  C 2.744570 -0.770748 -0.620265
  C 3.967085 -0.768562 -1.209606
  C 4.911703 -0.933918 -2.074976
  C 4.962569 -0.973196 -3.552931
  H 3.958400 -0.909055 -3.958889
  O 6.275256 -0.836186 -1.437035
  H 0.487524 1.234496 0.949918
  H 0.761000 -0.461370 1.377248
  H 0.075170 -0.069957 -0.177195
  H 2.203708 -1.713062 -0.616736
  H 5.913220 -0.565895 -0.556473
  H 5.415042 -1.903619 -3.893982
  H 5.556459 -0.142434 -3.927855
  H 6.795254 -1.665531 -1.489143
 17
 45.832079
  C 0.842975 0.260528 0.615761
  C 2.201270 0.320481 0.032497
  H 2.756027 1.240422 0.136698
  C 2.757441 -0.735802 -0.642587
  C 3.997215 -0.744173 -1.193387
  C 4.941979 -0.910052 -2.054985
  C 4.988714 -0.964616 -3.536865
  H 3.983903 -0.914012 -3.942531
  O 6.337234 -0.824106 -1.492213
  H 0.574170 1.195940 1.096276
  H 0.777059 -0.542519 1.352143
  H 0.102539 0.033157 -0.153048
  H 2.200394 -1.667324 -0.686190
  H 6.158078 -0.413013 -0.617113
  H 5.448341 -1.896210 -3.860156
  H 5.573727 -0.133285 -3.924573
  H 6.821681 -1.679824 -1.421510
 17
 41.412452
  C 0.845791 0.278354 0.624176
  C 2.120727 0.326785 -0.123503
  H 2.561293 1.290362 -0.329339
  C 2.749097 -0.814390 -0.574307
  C 3.912235 -0.834435 -1.252440
  C 4.931095 -0.891030 -2.033477
  C 5.028018 -0.823155 -3.516968
  H 4.039525 -0.701382 -3.946686
  O 6.309381 -0.949163 -1.448356
  H 0.499660 1.274278 0.883782
  H 0.956677 -0.303827 1.541316
  H 0.073133 -0.219841 0.035381
  H 2.295576 -1.774442 -0.353546
  H 6.299755 -0.692550 -0.498010
  H 5.471099 -1.732094 -3.918958
  H 5.645740 0.025046 -3.805044
  H 6.723946 -1.832926 -1.575800
