 19
 0.000000
  C 1.025009 0.126838 0.347579
  C 2.493793 0.121193 0.342207
  C 3.230372 0.590091 1.526551
  H 2.560957 0.906646 2.319050
  C 3.142054 -0.336092 -0.803496
  C 4.532686 -0.400080 -0.967649
  C 5.172767 -0.854808 -2.097405
  C 4.566580 -1.358582 -3.325187
  H 3.483251 -1.364707 -3.321887
  H 6.255058 -0.844327 -2.089511
  H 0.612534 0.489996 1.282749
  H 0.643141 -0.876833 0.150906
  H 0.648634 0.740770 -0.472646
  H 3.886941 1.421588 1.265005
  H 3.882898 -0.196955 1.908085
  H 2.514638 -0.661915 -1.621159
  H 5.156193 -0.068227 -0.149479
  H 4.940210 -2.367355 -3.519657
  H 4.929910 -0.768729 -4.170824
 19
 0.156819
  C 1.033151 0.159017 0.325712
  C 2.500403 0.089398 0.353571
  C 3.221842 0.577948 1.536980
  H 2.552000 1.048893 2.249737
  C 3.153691 -0.413120 -0.768519
  C 4.539552 -0.395720 -0.969652
  C 5.167542 -0.801909 -2.124453
  C 4.558343 -1.418408 -3.299306
  H 3.504610 -1.644917 -3.190189
  H 6.237828 -0.643818 -2.188390
  H 0.604596 0.335679 1.307115
  H 0.592839 -0.728064 -0.127142
  H 0.750525 0.995117 -0.322287
  H 4.011486 1.277978 1.265304
  H 3.719320 -0.258719 2.033112
  H 2.529250 -0.799365 -1.561469
  H 5.162671 0.012407 -0.187621
  H 5.107702 -2.326769 -3.554193
  H 4.703969 -0.762295 -4.161719
 19
 2.728728
  C 1.084711 0.231448 0.239675
  C 2.529314 0.016624 0.402386
  C 3.204805 0.508812 1.609146
  H 2.547264 1.118810 2.220368
  C 3.206924 -0.583158 -0.657205
  C 4.554337 -0.374445 -0.970518
  C 5.110835 -0.672763 -2.191216
  C 4.513897 -1.438759 -3.282964
  H 3.525572 -1.829175 -3.069341
  H 6.105816 -0.294760 -2.388417
  H 0.591059 0.513146 1.164268
  H 0.588096 -0.622970 -0.215816
  H 0.981507 1.058208 -0.471646
  H 4.110810 1.064785 1.374777
  H 3.532556 -0.346570 2.205229
  H 2.602886 -1.123796 -1.372240
  H 5.161785 0.181001 -0.270871
  H 5.183992 -2.264161 -3.535963
  H 4.481257 -0.824676 -4.186109
 19
 7.333241
  C 1.172667 0.268134 0.120217
  C 2.571160 -0.040798 0.450243
  C 3.185362 0.505082 1.664264
  H 2.530271 1.203584 2.175604
  C 3.286041 -0.739016 -0.525796
  C 4.582907 -0.407995 -0.935944
  C 5.025933 -0.602243 -2.219974
  C 4.419863 -1.423616 -3.268512
  H 3.499276 -1.916583 -2.979209
  H 5.939859 -0.099316 -2.511027
  H 0.610617 0.665730 0.957992
  H 0.652356 -0.574903 -0.330541
  H 1.246856 1.037379 -0.655336
  H 4.149645 0.970722 1.465068
  H 3.402567 -0.323799 2.343851
  H 2.711987 -1.391017 -1.170504
  H 5.182414 0.209969 -0.283323
  H 5.149658 -2.178129 -3.571306
  H 4.250201 -0.821840 -4.161444
 19
 13.197542
  C 1.283348 0.302592 -0.013371
  C 2.628390 -0.051736 0.469702
  C 3.154123 0.490924 1.722542
  H 2.504096 1.248745 2.148187
  C 3.379886 -0.828041 -0.418782
  C 4.629000 -0.419504 -0.914129
  C 4.938957 -0.547511 -2.240214
  C 4.301987 -1.406853 -3.244777
  H 3.414794 -1.924589 -2.899822
  H 5.780609 0.022532 -2.611878
  H 0.683056 0.824572 0.723790
  H 0.744060 -0.548775 -0.422777
  H 1.493865 0.976650 -0.854657
  H 4.165775 0.879251 1.608979
  H 3.245018 -0.329911 2.439013
  H 2.845407 -1.584741 -0.979566
  H 5.214486 0.261439 -0.312236
  H 5.040696 -2.145515 -3.565787
  H 4.063752 -0.829262 -4.137735
 19
 20.993445
  C 1.428548 0.309294 -0.174118
  C 2.673522 -0.095098 0.487194
  C 3.125230 0.512137 1.735851
  H 2.473701 1.306239 2.062376
  C 3.465925 -0.942207 -0.303981
  C 4.671717 -0.477501 -0.863972
  C 4.828457 -0.502682 -2.208808
  C 4.139701 -1.342801 -3.196910
  H 3.287424 -1.890309 -2.815569
  H 5.615382 0.099630 -2.623076
  H 0.774536 0.900756 0.451063
  H 0.893487 -0.527777 -0.627535
  H 1.816178 0.922906 -0.999022
  H 4.158226 0.866914 1.668868
  H 3.148970 -0.264162 2.510647
  H 2.961891 -1.751797 -0.821198
  H 5.281768 0.179693 -0.263304
  H 4.870327 -2.057927 -3.578797
  H 3.829756 -0.742889 -4.053518
 19
 27.890423
  C 1.546215 0.330921 -0.294478
  C 2.708947 -0.109045 0.496309
  C 3.083767 0.517630 1.758328
  H 2.416246 1.324770 2.036459
  C 3.520509 -1.005305 -0.222655
  C 4.698445 -0.509653 -0.833101
  C 4.750459 -0.471503 -2.189809
  C 4.023515 -1.299794 -3.171187
  H 3.225446 -1.901183 -2.750196
  H 5.508863 0.161966 -2.633822
  H 0.899348 1.026696 0.229533
  H 0.975939 -0.493055 -0.715575
  H 2.038873 0.832486 -1.145124
  H 4.117765 0.867178 1.739898
  H 3.065255 -0.244831 2.541084
  H 3.023025 -1.832957 -0.717117
  H 5.383525 0.087921 -0.249779
  H 4.754719 -1.964588 -3.637523
  H 3.622190 -0.681326 -3.972422
 19
 36.395351
  C 1.664586 0.290356 -0.400095
  C 2.728656 -0.167079 0.508138
  C 3.082794 0.547479 1.727449
  H 2.458444 1.418289 1.897632
  C 3.562863 -1.103221 -0.142020
  C 4.727922 -0.590459 -0.792088
  C 4.628417 -0.409619 -2.133628
  C 3.885455 -1.212135 -3.129419
  H 3.053833 -1.779051 -2.725977
  H 5.352957 0.259096 -2.581275
  H 0.955467 0.982646 0.039600
  H 1.164165 -0.512977 -0.933661
  H 2.299747 0.787012 -1.159899
  H 4.139073 0.821364 1.738596
  H 2.966325 -0.136724 2.572380
  H 3.074557 -1.938977 -0.628965
  H 5.405985 0.029834 -0.220942
  H 4.598805 -1.910779 -3.570025
  H 3.524775 -0.580918 -3.939195
 19
 48.839429
  C 1.861549 0.365461 -0.529607
  C 2.777456 -0.135069 0.494765
  C 2.995364 0.507230 1.778768
  H 2.314274 1.333409 1.949895
  C 3.640963 -1.120413 -0.068586
  C 4.742895 -0.573193 -0.813175
  C 4.484539 -0.350418 -2.122083
  C 3.746003 -1.207732 -3.085463
  H 3.034719 -1.886421 -2.622475
  H 5.160586 0.340792 -2.617869
  H 1.216028 1.180050 -0.229422
  H 1.335283 -0.393747 -1.109931
  H 2.642559 0.674162 -1.287466
  H 4.032693 0.834466 1.877168
  H 2.859473 -0.233075 2.572668
  H 3.161680 -2.001020 -0.490421
  H 5.469358 0.035152 -0.289133
  H 4.486985 -1.798610 -3.624598
  H 3.225752 -0.601514 -3.823873
 19
 63.113467
  C 1.916012 0.371490 -0.572899
  C 2.750433 -0.168397 0.489951
  C 2.990831 0.489020 1.762736
  H 2.418073 1.436372 1.852293
  C 3.655074 -1.171058 -0.037340
  C 4.745953 -0.556067 -0.807489
  C 4.380219 -0.261198 -2.082523
  C 3.682103 -1.178712 -3.063248
  H 3.032843 -1.917599 -2.610136
  H 4.980007 0.484632 -2.582480
  H 1.332156 1.248910 -0.334225
  H 1.418124 -0.299586 -1.252685
  H 2.830551 0.538266 -1.342339
  H 4.046072 0.656277 1.908756
  H 2.709617 -0.178737 2.563334
  H 3.210146 -2.069076 -0.423593
  H 5.439974 0.068383 -0.309465
  H 4.463197 -1.733332 -3.614227
  H 3.110311 -0.606991 -3.774512
 19
 74.838085
  C 1.963760 0.316406 -0.557060
  C 2.736829 -0.139728 0.481844
  C 2.952432 0.523430 1.774546
  H 2.335688 1.411038 1.874580
  C 3.658458 -1.158772 -0.024787
  C 4.697352 -0.569090 -0.792662
  C 4.307743 -0.209342 -2.089714
  C 3.611455 -1.121518 -3.075204
  H 2.942127 -1.831847 -2.601891
  H 4.980332 0.483354 -2.584619
  H 1.366180 1.198771 -0.387287
  H 1.542175 -0.355436 -1.292273
  H 3.168886 0.456651 -1.553983
  H 4.005848 0.770010 1.907995
  H 2.697073 -0.167063 2.579526
  H 3.209432 -2.080982 -0.377426
  H 5.451145 0.021933 -0.288564
  H 4.371936 -1.678583 -3.620639
  H 3.052867 -0.539843 -3.803193
 19
 63.177227
  C 1.793785 0.306054 -0.402722
  C 2.658533 -0.130527 0.528440
  C 3.003378 0.529692 1.790981
  H 2.346165 1.378150 1.974554
  C 3.520244 -1.094990 -0.095940
  C 4.570896 -0.509292 -0.797037
  C 4.295503 -0.156380 -2.158901
  C 3.716566 -1.149540 -3.129403
  H 2.994277 -1.824227 -2.668212
  H 5.056199 0.471717 -2.629293
  H 1.203924 1.186000 -0.191866
  H 1.399223 -0.313431 -1.190905
  H 3.398800 0.476467 -1.812596
  H 4.039832 0.834209 1.813064
  H 2.863179 -0.182257 2.607482
  H 3.058444 -2.009534 -0.509349
  H 5.346567 0.065076 -0.245494
  H 4.510587 -1.756747 -3.560628
  H 3.231031 -0.632674 -3.958388
 19
 48.419575
  C 1.567866 0.262898 -0.211454
  C 2.594972 -0.105569 0.577646
  C 3.013497 0.544956 1.841491
  H 2.362828 1.380503 2.079220
  C 3.459684 -1.005999 -0.171560
  C 4.526560 -0.438357 -0.850614
  C 4.388668 -0.144688 -2.283046
  C 3.798996 -1.189774 -3.217609
  H 2.991896 -1.755244 -2.763621
  H 5.260474 0.338709 -2.712229
  H 0.919748 1.074847 0.067689
  H 1.252477 -0.317863 -1.061241
  H 3.605994 0.628706 -2.093219
  H 4.045164 0.886536 1.802887
  H 2.948282 -0.189690 2.643129
  H 3.001531 -1.909785 -0.561599
  H 5.263304 0.144548 -0.306417
  H 4.578405 -1.884242 -3.520479
  H 3.418785 -0.705950 -4.111321
 19
 38.605871
  C 1.384023 0.261426 -0.016064
  C 2.535553 -0.090633 0.599877
  C 3.061866 0.519752 1.843267
  H 2.365333 1.249463 2.239438
  C 3.337383 -0.907515 -0.284705
  C 4.430719 -0.342381 -0.909427
  C 4.439552 -0.132685 -2.362983
  C 3.969089 -1.253270 -3.278683
  H 3.063870 -1.738150 -2.925557
  H 5.367418 0.308058 -2.715067
  H 0.757984 1.047650 0.366824
  H 1.008699 -0.273161 -0.869563
  H 3.666929 0.668582 -2.356408
  H 4.029362 0.992846 1.694873
  H 3.202810 -0.269522 2.580379
  H 2.843633 -1.754468 -0.744462
  H 5.153069 0.222955 -0.329913
  H 4.752001 -2.002699 -3.361512
  H 3.776856 -0.857079 -4.271028
 19
 34.573468
  C 1.274062 0.394490 0.178139
  C 2.469437 -0.049585 0.631953
  C 3.131178 0.453678 1.861796
  H 2.456450 1.083966 2.425615
  C 3.148964 -0.819203 -0.399344
  C 4.291075 -0.294773 -0.959758
  C 4.351302 -0.129755 -2.441330
  C 4.207296 -1.395113 -3.286363
  H 3.418708 -2.056813 -2.926067
  H 5.229697 0.432047 -2.741043
  H 0.772058 1.218624 0.655619
  H 0.803243 -0.031491 -0.686905
  H 3.465567 0.502403 -2.601051
  H 4.032114 1.021956 1.642764
  H 3.429467 -0.390787 2.479070
  H 2.521850 -1.457048 -1.005665
  H 5.014842 0.232697 -0.349076
  H 5.142513 -1.940929 -3.265405
  H 3.986326 -1.125192 -4.313664
