 19
 0.000000
  C 1.016031 0.121034 0.354025
  C 2.483664 0.117516 0.344924
  C 3.219076 0.592543 1.524574
  H 2.544776 0.909547 2.312952
  C 3.130630 -0.341888 -0.797411
  C 4.524113 -0.406476 -0.959553
  C 5.163517 -0.859468 -2.089791
  C 4.555614 -1.352697 -3.321572
  H 3.472494 -1.349274 -3.314633
  H 6.245204 -0.854575 -2.077115
  H 0.607289 0.496067 1.286047
  H 0.635821 -0.885853 0.173381
  H 0.635742 0.722293 -0.473544
  H 3.873405 1.424272 1.260887
  H 3.874189 -0.189373 1.910393
  H 2.504004 -0.670488 -1.614210
  H 5.147558 -0.077970 -0.140669
  H 4.920845 -2.362163 -3.523273
  H 4.921782 -0.762169 -4.164378
 19
 9.300535
  C 0.977444 0.144768 0.412926
  C 2.436355 0.145392 0.414208
  C 3.184852 0.612945 1.575693
  H 2.522994 0.933633 2.373547
  C 3.156101 -0.366801 -0.859688
  C 4.536517 -0.424769 -1.005691
  C 5.189805 -0.876007 -2.131348
  C 4.596022 -1.372843 -3.371459
  H 3.512639 -1.374511 -3.376954
  H 6.271657 -0.866634 -2.107744
  H 0.562685 0.518887 1.342929
  H 0.600509 -0.863705 0.228547
  H 0.600483 0.744789 -0.418318
  H 3.841618 1.440884 1.301925
  H 3.842423 -0.173339 1.951370
  H 2.526439 -0.692834 -1.670017
  H 5.150505 -0.093323 -0.179736
  H 4.967300 -2.381210 -3.568319
  H 4.968077 -0.779978 -4.210196
 19
 28.196882
  C 0.925961 0.158635 0.447582
  C 2.381703 0.171951 0.480448
  C 3.210669 0.618074 1.588041
  H 2.604861 0.954602 2.425757
  C 3.154214 -0.397212 -0.934434
  C 4.510473 -0.435629 -1.032464
  C 5.194016 -0.874841 -2.128438
  C 4.635672 -1.377771 -3.384074
  H 3.551689 -1.389250 -3.414512
  H 6.275477 -0.853901 -2.076140
  H 0.494392 0.531493 1.373398
  H 0.556765 -0.852154 0.253238
  H 0.557007 0.753362 -0.392655
  H 3.872185 1.428464 1.273612
  H 3.873017 -0.183774 1.922241
  H 2.488045 -0.710193 -1.711312
  H 5.096297 -0.098828 -0.193480
  H 5.016355 -2.385324 -3.568474
  H 5.017158 -0.776736 -4.212977
 19
 49.212252
  C 0.875383 0.181052 0.502459
  C 2.321877 0.203988 0.559930
  C 3.213982 0.626492 1.610450
  H 2.665976 0.976482 2.482672
  C 3.140698 -0.422703 -0.998791
  C 4.487663 -0.444025 -1.055258
  C 5.222832 -0.882436 -2.148784
  C 4.693812 -1.395560 -3.427238
  H 3.610383 -1.415636 -3.477383
  H 6.305378 -0.849622 -2.068256
  H 0.427356 0.551454 1.423282
  H 0.515247 -0.832042 0.297235
  H 0.515707 0.770479 -0.346928
  H 3.878981 1.417581 1.254710
  H 3.879799 -0.190435 1.900424
  H 2.425312 -0.716447 -1.727218
  H 5.047341 -0.100104 -0.199735
  H 5.084394 -2.402019 -3.602428
  H 5.084378 -0.789648 -4.249599
 19
 70.256331
  C 0.848280 0.207016 0.566766
  C 2.271505 0.231339 0.627999
  C 3.174197 0.643531 1.653582
  H 2.645008 0.999044 2.539560
  C 3.151108 -0.450242 -1.067747
  C 4.505106 -0.465426 -1.109084
  C 5.257418 -0.898762 -2.190023
  C 4.743399 -1.412934 -3.469829
  H 3.661059 -1.435131 -3.524053
  H 6.332185 -0.860538 -2.096896
  H 0.393045 0.577134 1.487640
  H 0.493279 -0.807674 0.357523
  H 0.493825 0.795252 -0.286287
  H 3.840700 1.429227 1.281835
  H 3.841335 -0.180606 1.927998
  H 2.410107 -0.737634 -1.780770
  H 5.054939 -0.117793 -0.244677
  H 5.135029 -2.417538 -3.641266
  H 5.134448 -0.805788 -4.288698
 19
 89.344278
  C 0.804696 0.232345 0.629675
  C 2.228064 0.259116 0.697203
  C 3.142900 0.665168 1.707624
  H 2.630130 1.023295 2.599780
  C 3.172497 -0.476820 -1.133648
  C 4.521866 -0.486754 -1.162146
  C 5.289438 -0.917236 -2.236237
  C 4.790047 -1.431885 -3.517012
  H 3.707967 -1.457327 -3.578868
  H 6.366077 -0.874409 -2.132072
  H 0.344015 0.600593 1.545948
  H 0.453564 -0.780596 0.417852
  H 0.454131 0.817622 -0.224032
  H 3.807445 1.443746 1.326663
  H 3.808087 -0.160364 1.970668
  H 2.422782 -0.759884 -1.835946
  H 5.061532 -0.137201 -0.293173
  H 5.185686 -2.435869 -3.684774
  H 5.184790 -0.822601 -4.332736
 19
 105.959274
  C 0.764837 0.257741 0.692771
  C 2.181889 0.286945 0.766618
  C 3.111676 0.687458 1.763535
  H 2.615229 1.050446 2.667485
  C 3.189694 -0.503443 -1.200037
  C 4.535288 -0.507277 -1.213563
  C 5.321458 -0.934029 -2.278397
  C 4.838506 -1.452642 -3.568455
  H 3.756984 -1.482656 -3.641191
  H 6.394295 -0.885241 -2.159799
  H 0.295114 0.625723 1.608438
  H 0.417877 -0.757234 0.477117
  H 0.418541 0.841937 -0.165051
  H 3.777288 1.461976 1.370125
  H 3.777719 -0.143816 2.014928
  H 2.427255 -0.781987 -1.891125
  H 5.063831 -0.154818 -0.337660
  H 5.239313 -2.455575 -3.731863
  H 5.238166 -0.841130 -4.380519
 19
 119.616880
  C 0.723080 0.284470 0.759209
  C 2.138126 0.314846 0.836225
  C 3.081515 0.708268 1.815592
  H 2.606324 1.075294 2.729192
  C 3.205891 -0.530687 -1.267674
  C 4.546296 -0.528387 -1.266141
  C 5.352510 -0.950850 -2.320539
  C 4.888702 -1.471825 -3.616199
  H 3.808407 -1.506615 -3.700357
  H 6.423843 -0.895615 -2.186288
  H 0.245740 0.651496 1.672326
  H 0.379911 -0.730700 0.540310
  H 0.380681 0.866525 -0.101184
  H 3.745687 1.475520 1.409109
  H 3.745896 -0.126901 2.052722
  H 2.431249 -0.803362 -1.944174
  H 5.062633 -0.173295 -0.383842
  H 5.294833 -2.473117 -3.774638
  H 5.293413 -0.858009 -4.423606
 19
 130.443131
  C 0.683389 0.312022 0.827643
  C 2.093741 0.342162 0.904350
  C 3.048134 0.731365 1.873091
  H 2.590827 1.102972 2.797334
  C 3.222095 -0.558685 -1.336373
  C 4.558039 -0.550458 -1.320522
  C 5.384415 -0.968111 -2.363611
  C 4.940106 -1.492212 -3.667297
  H 3.860690 -1.532156 -3.763871
  H 6.452076 -0.906151 -2.212994
  H 0.198283 0.678531 1.739164
  H 0.343927 -0.703899 0.605490
  H 0.344857 0.892259 -0.035707
  H 3.712385 1.493422 1.454259
  H 3.712320 -0.108683 2.098156
  H 2.435221 -0.826337 -2.000287
  H 5.062369 -0.192573 -0.431349
  H 5.352119 -2.492158 -3.820876
  H 5.350462 -0.875684 -4.470219
 19
 138.113798
  C 0.642459 0.342337 0.903187
  C 2.053047 0.368910 0.970980
  C 3.002752 0.758589 1.940849
  H 2.554280 1.132695 2.871184
  C 3.248080 -0.585905 -1.404027
  C 4.581222 -0.575027 -1.381712
  C 5.420953 -0.989941 -2.418071
  C 4.990461 -1.514142 -3.722024
  H 3.911815 -1.557219 -3.826511
  H 6.487338 -0.923822 -2.256933
  H 0.149656 0.708938 1.814936
  H 0.306381 -0.673934 0.677651
  H 0.307301 0.920454 0.037146
  H 3.666660 1.516296 1.515908
  H 3.666525 -0.082501 2.158574
  H 2.458471 -0.852096 -2.064410
  H 5.078156 -0.215478 -0.488257
  H 5.406518 -2.512311 -3.872060
  H 5.404959 -0.896495 -4.521191
 19
 143.140406
  C 0.599783 0.373045 0.979834
  C 2.010939 0.395762 1.037811
  C 2.953044 0.789376 2.017217
  H 2.506771 1.163902 2.948617
  C 3.278086 -0.612119 -1.469101
  C 4.611844 -0.600120 -1.443922
  C 5.459409 -1.013201 -2.475827
  C 5.037996 -1.536972 -3.779176
  H 3.959518 -1.582251 -3.889610
  H 6.524637 -0.944476 -2.307758
  H 0.103765 0.738684 1.889215
  H 0.265952 -0.643615 0.752414
  H 0.266750 0.950047 0.112159
  H 3.618027 1.546284 1.590289
  H 3.617978 -0.052372 2.232967
  H 2.490747 -0.879749 -2.133299
  H 5.104302 -0.239314 -0.546938
  H 5.457975 -2.534045 -3.926973
  H 5.456692 -0.918549 -4.575829
 19
 146.579852
  C 0.555407 0.404341 1.057959
  C 1.969826 0.423327 1.106377
  C 2.900204 0.821374 2.096559
  H 2.450825 1.195241 3.026555
  C 3.312430 -0.637004 -1.530979
  C 4.648466 -0.625068 -1.505803
  C 5.499292 -1.037125 -2.535184
  C 5.082911 -1.559973 -3.836730
  H 4.004868 -1.606542 -3.950927
  H 6.564445 -0.967071 -2.363314
  H 0.057504 0.769856 1.967076
  H 0.222790 -0.612647 0.829593
  H 0.223397 0.980825 0.189339
  H 3.565557 1.578228 1.671334
  H 3.565733 -0.019024 2.313387
  H 2.531070 -0.907374 -2.202251
  H 5.138283 -0.263781 -0.607220
  H 5.506010 -2.555778 -3.983310
  H 5.505049 -0.941626 -4.631469
 19
 148.881503
  C 0.510920 0.435644 1.135882
  C 1.926925 0.451438 1.176418
  C 2.844313 0.855125 2.180830
  H 2.387318 1.227670 3.107704
  C 3.349609 -0.660303 -1.589401
  C 4.688360 -0.649075 -1.566157
  C 5.539254 -1.060933 -2.594792
  C 5.124704 -1.583223 -3.894374
  H 4.046676 -1.630615 -4.010596
  H 6.604572 -0.990361 -2.421667
  H 0.012716 0.800781 2.044225
  H 0.179145 -0.581359 0.907073
  H 0.179797 1.011971 0.267056
  H 3.510922 1.613662 1.759864
  H 3.511098 0.016429 2.401834
  H 2.576633 -0.934661 -2.270678
  H 5.177255 -0.287386 -0.666782
  H 5.550560 -2.578195 -4.040432
  H 5.549632 -0.965379 -4.688360
 19
 150.361425
  C 0.464816 0.467481 1.215134
  C 1.883720 0.480804 1.249611
  C 2.786068 0.889703 2.267131
  H 2.319208 1.260298 3.189253
  C 3.388944 -0.682032 -1.643461
  C 4.730802 -0.672216 -1.624007
  C 5.579006 -1.084374 -2.653371
  C 5.163628 -1.605779 -3.950468
  H 4.085681 -1.653324 -4.067035
  H 6.644993 -1.014133 -2.481162
  H -0.033656 0.832541 2.123376
  H 0.133613 -0.549793 0.985971
  H 0.134286 1.043882 0.345891
  H 3.453607 1.650261 1.852054
  H 3.453776 0.053615 2.493756
  H 2.625866 -0.960786 -2.335791
  H 5.220255 -0.310570 -0.724978
  H 5.591409 -2.599955 -4.096838
  H 5.590478 -0.988843 -4.744205
