 29
 0.000000
  C 0.905010 0.048732 0.272087
  C 2.397119 0.059132 0.087713
  C 3.239386 -0.012339 1.354442
  C 2.525486 -0.088357 2.701541
  C 3.528099 -0.153060 3.848286
  C 2.993457 0.127312 -1.120556
  C 2.355164 0.204812 -2.494030
  C 0.844763 0.217254 -2.714439
  H 0.622485 0.276994 -3.773184
  C 4.452435 0.132137 -1.205992
  C 5.194383 0.194637 -2.313741
  O 6.554207 0.195407 -2.327314
  H 0.603708 -0.009985 1.312632
  H 0.461655 -0.817161 -0.212643
  H 0.461655 0.963659 -0.112156
  H 3.885380 0.871450 1.384513
  H 3.885382 -0.893901 1.284900
  H 1.892847 -0.977844 2.744588
  H 1.892838 0.790639 2.844379
  H 4.163174 -1.032384 3.760772
  H 3.004870 -0.206803 4.800630
  H 4.163168 0.730525 3.860245
  H 2.745123 -0.643731 -3.066940
  H 2.745121 1.112421 -2.967842
  H 0.388658 1.076511 -2.230345
  H 0.388658 -0.691011 -2.330082
  H 4.996635 0.079539 -0.273824
  H 4.818912 0.251529 -3.321943
  H 6.882645 0.144223 -1.420191
 29
 12.800849
  C 0.856065 0.049109 0.265394
  C 2.335017 0.060264 0.067656
  C 3.285302 -0.018402 1.461907
  C 2.555714 -0.093560 2.793750
  C 3.550366 -0.158683 3.947932
  C 2.985929 0.132833 -1.218402
  C 2.349635 0.210176 -2.589091
  C 0.837388 0.221707 -2.793360
  H 0.614134 0.281619 -3.855161
  C 4.438506 0.135749 -1.270003
  C 5.207394 0.197231 -2.359709
  O 6.566963 0.196020 -2.338179
  H 0.578871 -0.010082 1.314344
  H 0.405893 -0.815041 -0.217701
  H 0.405894 0.962121 -0.117420
  H 3.926676 0.864735 1.480739
  H 3.926673 -0.898046 1.381270
  H 1.921638 -0.982726 2.829135
  H 1.921633 0.785976 2.928939
  H 4.185799 -1.038158 3.863425
  H 3.021182 -0.212242 4.896999
  H 4.185797 0.724715 3.962896
  H 2.740042 -0.638496 -3.162259
  H 2.740040 1.117940 -3.063144
  H 0.382151 1.080074 -2.309052
  H 0.382152 -0.685695 -2.408691
  H 4.958728 0.082379 -0.324145
  H 4.855923 0.254612 -3.376602
  H 6.873305 0.144412 -1.423519
 29
 35.615300
  C 0.828330 0.049500 0.258580
  C 2.286935 0.066451 -0.041983
  C 3.410609 -0.023136 1.545605
  C 2.586619 -0.094350 2.807780
  C 3.504138 -0.163313 4.029946
  C 2.991746 0.137559 -1.302157
  C 2.346325 0.213795 -2.653194
  C 0.832558 0.220553 -2.773115
  H 0.569444 0.280307 -3.832070
  C 4.442792 0.138487 -1.318594
  C 5.221796 0.199085 -2.392559
  O 6.583331 0.196915 -2.353923
  H 0.654202 -0.010462 1.321182
  H 0.341110 -0.810773 -0.202889
  H 0.341122 0.956233 -0.103176
  H 4.014905 0.878587 1.502668
  H 4.014907 -0.914318 1.401493
  H 1.950070 -0.981297 2.797153
  H 1.950090 0.788152 2.896997
  H 4.140150 -1.043668 3.981258
  H 2.916201 -0.214884 4.943987
  H 4.140171 0.716941 4.080595
  H 2.725811 -0.632053 -3.230039
  H 2.725822 1.119198 -3.131237
  H 0.394729 1.081404 -2.270700
  H 0.394738 -0.691355 -2.370735
  H 4.935020 0.084585 -0.363226
  H 4.875385 0.256570 -3.411414
  H 6.880552 0.144989 -1.433475
 29
 61.415169
  C 0.803560 0.053610 0.185777
  C 2.241350 0.072607 -0.151114
  C 3.542041 -0.031175 1.687987
  C 2.669721 -0.099794 2.904258
  C 3.531542 -0.171188 4.169461
  C 2.934045 0.141022 -1.363612
  C 2.315766 0.218276 -2.732668
  C 0.806083 0.227087 -2.888897
  H 0.562401 0.287618 -3.961735
  C 4.374254 0.139669 -1.339450
  C 5.187016 0.199743 -2.404191
  O 6.529608 0.195789 -2.333863
  H 0.662504 -0.006885 1.257795
  H 0.307581 -0.806261 -0.255852
  H 0.307598 0.957713 -0.156311
  H 4.131119 0.874192 1.618186
  H 4.131122 -0.922979 1.516755
  H 2.032356 -0.983718 2.866395
  H 2.032397 0.782755 2.966088
  H 4.167397 -1.053567 4.149643
  H 2.900913 -0.221141 5.054765
  H 4.167464 0.707865 4.249037
  H 2.716056 -0.632510 -3.298823
  H 2.716085 1.127412 -3.199580
  H 0.361692 1.084354 -2.399509
  H 0.361681 -0.679804 -2.499030
  H 4.837555 0.084435 -0.360418
  H 4.867216 0.257661 -3.430849
  H 6.795000 0.144528 -1.425142
 29
 81.617821
  C 0.769000 0.056646 0.132779
  C 2.189554 0.078902 -0.262550
  C 3.669767 -0.038448 1.816724
  C 2.753198 -0.104519 2.987975
  C 3.552497 -0.178553 4.299321
  C 2.881274 0.144737 -1.429753
  C 2.288468 0.223452 -2.824957
  C 0.779240 0.232923 -2.992859
  H 0.541357 0.293236 -4.061871
  C 4.326483 0.141651 -1.374128
  C 5.164741 0.200404 -2.415640
  O 6.516596 0.194615 -2.312055
  H 0.670550 -0.004347 1.213840
  H 0.257068 -0.807425 -0.288500
  H 0.257135 0.962657 -0.188627
  H 4.238495 0.874797 1.720607
  H 4.238443 -0.935130 1.618553
  H 2.113597 -0.988189 2.922740
  H 2.113673 0.780933 3.022434
  H 4.186189 -1.062917 4.309979
  H 2.877574 -0.226605 5.151623
  H 4.186313 0.698944 4.409390
  H 2.689017 -0.628856 -3.381871
  H 2.689027 1.133007 -3.282492
  H 0.331848 1.090552 -2.503743
  H 0.331836 -0.674282 -2.603292
  H 4.755937 0.085744 -0.382504
  H 4.866814 0.258829 -3.451933
  H 6.771140 0.141371 -1.367605
 29
 94.886390
  C 0.755664 0.059767 0.076615
  C 2.151921 0.084770 -0.366874
  C 3.787714 -0.046146 1.952634
  C 2.816677 -0.108750 3.065650
  C 3.531235 -0.185690 4.424302
  C 2.854524 0.148544 -1.497212
  C 2.270428 0.227955 -2.905130
  C 0.756651 0.235281 -3.035721
  H 0.488079 0.295214 -4.098261
  C 4.316020 0.144944 -1.431721
  C 5.167399 0.202850 -2.457914
  O 6.503195 0.196124 -2.337108
  H 0.698607 -0.001895 1.169202
  H 0.229680 -0.808902 -0.328310
  H 0.229717 0.968497 -0.228003
  H 4.344539 0.869609 1.840810
  H 4.344342 -0.943517 1.738089
  H 2.178740 -0.993473 2.959889
  H 2.179319 0.782665 3.059606
  H 4.159246 -1.073179 4.472873
  H 2.802426 -0.230953 5.230779
  H 4.159978 0.690218 4.572505
  H 2.658854 -0.621987 -3.464311
  H 2.658813 1.135419 -3.365181
  H 0.321612 1.092575 -2.530462
  H 0.321646 -0.673440 -2.630067
  H 4.719783 0.088671 -0.433159
  H 4.884618 0.261163 -3.492459
  H 6.739308 0.143296 -1.399848
 29
 102.858018
  C 0.718588 0.060422 0.061361
  C 2.082135 0.090179 -0.464887
  C 3.914468 -0.052459 2.057705
  C 2.894198 -0.111628 3.132998
  C 3.539673 -0.192346 4.533822
  C 2.802963 0.152073 -1.560585
  C 2.267464 0.232237 -2.984469
  C 0.765662 0.240487 -3.136106
  H 0.511526 0.299647 -4.186280
  C 4.236376 0.146488 -1.455286
  C 5.113855 0.203455 -2.463570
  O 6.476794 0.195241 -2.310673
  H 0.729730 -0.001513 1.157669
  H 0.170631 -0.812954 -0.309260
  H 0.170614 0.969969 -0.208523
  H 4.460120 0.867882 1.934606
  H 4.457739 -0.952522 1.827076
  H 2.255382 -0.997744 2.996918
  H 2.259141 0.786702 3.097807
  H 4.160406 -1.082873 4.613447
  H 2.768682 -0.234353 5.302383
  H 4.163984 0.680925 4.713483
  H 2.668730 -0.615170 -3.527648
  H 2.668338 1.135383 -3.428891
  H 0.327850 1.097063 -2.634301
  H 0.328187 -0.667265 -2.733752
  H 4.601259 0.090125 -0.450928
  H 4.845392 0.262983 -3.522998
  H 6.693434 0.142600 -1.373540
 29
 107.486728
  C 0.674841 0.063403 0.019437
  C 2.013443 0.095384 -0.548612
  C 4.036754 -0.057448 2.162875
  C 2.975774 -0.112748 3.174657
  C 3.541412 -0.198049 4.609397
  C 2.762548 0.155497 -1.618946
  C 2.251596 0.234903 -3.044248
  C 0.736557 0.242168 -3.186909
  H 0.474278 0.300084 -4.225463
  C 4.216339 0.148186 -1.474315
  C 5.115299 0.203458 -2.458618
  O 6.452299 0.194053 -2.275218
  H 0.726474 0.002483 1.104174
  H 0.117227 -0.807482 -0.328162
  H 0.117184 0.967730 -0.228425
  H 4.574837 0.857953 2.043233
  H 4.568692 -0.954217 1.931388
  H 2.347462 -0.985098 3.004555
  H 2.354401 0.778006 3.106662
  H 4.151487 -1.089691 4.721518
  H 2.729503 -0.236992 5.333494
  H 4.158028 0.670100 4.823589
  H 2.661799 -0.627032 -3.591245
  H 2.660970 1.152795 -3.491746
  H 0.301397 1.099059 -2.679778
  H 0.302251 -0.666258 -2.778467
  H 4.558068 0.091659 -0.452994
  H 4.876078 0.261735 -3.509351
  H 6.645955 0.141239 -1.322515
 29
 110.056541
  C 0.622911 0.067205 -0.025513
  C 1.936992 0.100884 -0.630612
  C 4.192677 -0.060118 2.242707
  C 3.060443 -0.115575 3.232733
  C 3.560325 -0.204296 4.696404
  C 2.714189 0.158595 -1.668997
  C 2.226187 0.238524 -3.121950
  C 0.695466 0.246267 -3.277972
  H 0.431316 0.304742 -4.339783
  C 4.173203 0.148457 -1.468778
  C 5.104665 0.200935 -2.414073
  O 6.444950 0.189025 -2.180603
  H 0.714385 0.006112 1.072127
  H 0.052553 -0.809953 -0.357435
  H 0.052651 0.975847 -0.258024
  H 4.741157 0.877058 2.122678
  H 4.732685 -0.981635 2.007830
  H 2.431145 -0.994272 3.034792
  H 2.436906 0.785044 3.140719
  H 4.164848 -1.101093 4.834632
  H 2.717244 -0.242226 5.381642
  H 4.170637 0.665671 4.939670
  H 2.643480 -0.622786 -3.661139
  H 2.642515 1.154470 -3.563016
  H 0.257108 1.104539 -2.769886
  H 0.258128 -0.663234 -2.867504
  H 4.481383 0.091439 -0.424354
  H 4.905712 0.257964 -3.456639
  H 6.603182 0.137216 -1.233057
 29
 111.303421
  C 0.510455 0.069151 -0.051702
  C 1.828192 0.104866 -0.696387
  C 4.332680 -0.063998 2.322412
  C 3.188708 -0.116708 3.245252
  C 3.625784 -0.204868 4.705553
  C 2.646070 0.159948 -1.691261
  C 2.218635 0.241251 -3.172771
  C 0.710326 0.251904 -3.378516
  H 0.481363 0.310287 -4.441527
  C 4.088046 0.145608 -1.418694
  C 5.060255 0.195410 -2.320747
  O 6.396722 0.179696 -2.023780
  H 0.625586 0.008563 1.039811
  H -0.066491 -0.805179 -0.369253
  H -0.066296 0.973343 -0.270553
  H 4.870544 0.860092 2.210096
  H 4.862614 -0.974163 2.099640
  H 2.572229 -0.987126 3.026604
  H 2.575168 0.776367 3.132505
  H 4.221107 -1.098683 4.863946
  H 2.758884 -0.241941 5.354149
  H 4.224463 0.661363 4.969065
  H 2.649849 -0.611791 -3.692269
  H 2.649139 1.146579 -3.595570
  H 0.264573 1.099801 -2.887888
  H 0.265354 -0.645098 -2.983893
  H 4.346864 0.087725 -0.358906
  H 4.903139 0.254105 -3.394827
  H 6.512861 0.127280 -1.065152
 29
 111.520731
  C 0.424667 0.071822 -0.104156
  C 1.711070 0.107756 -0.751786
  C 4.481963 -0.067634 2.372957
  C 3.300245 -0.118772 3.267116
  C 3.694622 -0.206872 4.753676
  C 2.574233 0.161293 -1.716360
  C 2.219033 0.243241 -3.202391
  C 0.725623 0.257743 -3.472667
  H 0.544484 0.316502 -4.537485
  C 4.000777 0.143317 -1.383706
  C 5.011128 0.191214 -2.249703
  O 6.322020 0.172417 -1.903647
  H 0.551148 0.011802 0.973700
  H -0.151258 -0.799167 -0.415095
  H -0.151011 0.972066 -0.316505
  H 5.018198 0.857458 2.265577
  H 5.011992 -0.978115 2.158400
  H 2.686439 -0.995716 3.027778
  H 2.687762 0.781495 3.133182
  H 4.285690 -1.103179 4.932807
  H 2.802050 -0.242952 5.380057
  H 4.287415 0.661071 5.036807
  H 2.671192 -0.611432 -3.702679
  H 2.670682 1.148008 -3.605496
  H 0.255805 1.118412 -2.994124
  H 0.256331 -0.650636 -3.091845
  H 4.217359 0.084545 -0.315179
  H 4.897497 0.250119 -3.320562
  H 6.398826 0.119262 -0.938299
 29
 111.775571
  C 0.286944 0.074693 -0.169787
  C 1.581778 0.110615 -0.812631
  C 4.643571 -0.071442 2.406753
  C 3.451183 -0.118878 3.253492
  C 3.802115 -0.205296 4.751382
  C 2.495139 0.161427 -1.721187
  C 2.229705 0.244740 -3.217569
  C 0.746685 0.264089 -3.570606
  H 0.623806 0.324265 -4.649992
  C 3.899448 0.138616 -1.307811
  C 4.959934 0.183628 -2.115874
  O 6.245532 0.160411 -1.696813
  H 0.408967 0.013212 0.925639
  H -0.294916 -0.809586 -0.490152
  H -0.294662 0.989391 -0.389229
  H 5.179150 0.855587 2.304592
  H 5.176108 -0.983223 2.199402
  H 2.845338 -0.993208 2.994471
  H 2.846426 0.780309 3.096960
  H 4.383609 -1.097400 4.948807
  H 2.897119 -0.238942 5.348547
  H 4.384912 0.657438 5.049587
  H 2.708602 -0.613741 -3.692208
  H 2.708360 1.150696 -3.593565
  H 0.251284 1.130347 -3.116271
  H 0.251802 -0.647562 -3.215456
  H 4.056918 0.078666 -0.229412
  H 4.908112 0.242723 -3.179121
  H 6.265677 0.107249 -0.741515
 29
 111.798889
  C 0.137628 0.079798 -0.272283
  C 1.436319 0.113756 -0.876394
  C 4.828956 -0.071525 2.384017
  C 3.611133 -0.118476 3.234900
  C 3.949781 -0.203645 4.741964
  C 2.403868 0.161451 -1.724104
  C 2.228935 0.246340 -3.237518
  C 0.777075 0.270528 -3.671389
  H 0.713264 0.330939 -4.747862
  C 3.787091 0.132739 -1.210130
  C 4.898661 0.173420 -1.935746
  O 6.145989 0.144456 -1.418222
  H 0.225371 0.018433 0.814886
  H -0.429208 -0.791481 -0.605048
  H -0.428995 0.983093 -0.504917
  H 5.362570 0.857446 2.280920
  H 5.362115 -0.984555 2.176786
  H 3.006972 -0.991602 2.971853
  H 3.008058 0.779691 3.072013
  H 4.531664 -1.099560 4.946006
  H 3.037202 -0.236347 5.334229
  H 4.532896 0.662883 5.045173
  H 2.729912 -0.611216 -3.681685
  H 2.729733 1.148314 -3.582896
  H 0.268650 1.123402 -3.250775
  H 0.268916 -0.624206 -3.348872
  H 3.875169 0.071767 -0.121813
  H 4.927409 0.234189 -3.020201
  H 6.091474 0.090215 -0.451196
