15

H -2.4693957135693 0.7001083472450511 -0.05808373397765089
C -2.057255 0.586231 -0.027594
C -1.648633 -0.47699 0.643604
C -0.236436 -0.948928 0.80641
C 0.806719 -0.081277 0.111942
C 2.220737 -0.614693 0.339827
H 2.5396632063811437 -0.36271789815088407 0.11767276506472685
H -1.3499 1.224655 -0.534196
H -2.388411 -1.098077 1.140119
H -0.00824 -1.001787 1.876628
H -0.172058 -1.970236 0.413756
H 0.598437 -0.05963 -0.961207
H 0.744546 0.939964 0.495946
H 2.4255 -0.597783 1.414728
H 2.267579 -1.657165 0.017978
