 11
 0.000000
  H 1.355489 0.130350 0.374743
  C 2.431133 0.114964 0.337887
  H 2.982010 0.459598 1.197942
  C 3.070501 -0.334575 -0.781906
  C 4.469090 -0.375305 -0.882737
  C 5.134608 -0.830798 -2.017438
  H 4.608801 -1.185695 -2.900859
  O 6.407121 -0.883494 -2.149585
  H 2.482381 -0.672534 -1.624900
  H 5.052749 -0.034966 -0.035093
  H 6.935933 -0.573601 -1.379611
 11
 15.233843
  H 1.298746 0.156902 0.439839
  C 2.372559 0.142291 0.405900
  H 2.926427 0.485029 1.261790
  C 3.074290 -0.350672 -0.821934
  C 4.462131 -0.385810 -0.908310
  C 5.118884 -0.837268 -2.033021
  H 4.603224 -1.191697 -2.915205
  O 6.519575 -0.892651 -2.172424
  H 2.485233 -0.686814 -1.661038
  H 5.041467 -0.044456 -0.057696
  H 7.028065 -0.580898 -1.399667
 11
 46.913462
  H 1.265572 0.179745 0.492378
  C 2.341446 0.167364 0.467672
  H 2.947300 0.497452 1.292533
  C 3.073649 -0.373566 -0.877462
  C 4.459953 -0.395100 -0.927465
  C 5.084747 -0.847538 -2.056077
  H 4.638272 -1.210238 -2.961187
  O 6.622160 -0.891527 -2.173192
  H 2.434373 -0.695104 -1.681981
  H 5.037692 -0.050255 -0.067242
  H 7.016868 -0.565016 -1.364485
 11
 85.147828
  H 1.231299 0.204103 0.549924
  C 2.299963 0.194802 0.535596
  H 2.935426 0.513983 1.335287
  C 3.064056 -0.388104 -0.913565
  C 4.442672 -0.406626 -0.954382
  C 5.054290 -0.857900 -2.079930
  H 4.661746 -1.229475 -3.006413
  O 6.739516 -0.891510 -2.174298
  H 2.393838 -0.697554 -1.690172
  H 5.009401 -0.067658 -0.107362
  H 7.071178 -0.553336 -1.340679
 11
 124.012103
  H 1.199272 0.223257 0.598301
  C 2.268850 0.217476 0.591742
  H 2.941976 0.526127 1.364176
  C 3.041477 -0.400870 -0.944921
  C 4.415077 -0.417415 -0.981577
  C 5.007854 -0.868218 -2.106421
  H 4.682509 -1.247621 -3.052044
  O 6.866403 -0.888471 -2.168318
  H 2.333309 -0.698391 -1.691073
  H 4.987702 -0.076806 -0.130845
  H 7.130209 -0.542223 -1.310821
 11
 126.068741
  H 1.327107 0.247589 0.744728
  C 2.374599 0.170167 0.480676
  H 3.068274 0.510538 1.237337
  C 2.733457 -0.332621 -0.728891
  C 4.139253 -0.446358 -1.159938
  C 4.643701 -0.871386 -2.243604
  H 4.941987 -1.241290 -3.188498
  O 7.222351 -0.810459 -2.009322
  H 2.022334 -0.677211 -1.459398
  H 4.797900 -0.098063 -0.361125
  H 7.565639 -0.616368 -1.125228
 11
 127.199044
  H 1.312707 0.260522 0.810479
  C 2.346376 0.175676 0.505541
  H 3.062780 0.506262 1.226336
  C 2.632131 -0.311025 -0.694892
  C 3.982332 -0.483372 -1.235909
  C 4.562853 -0.891151 -2.265240
  H 5.023544 -1.229442 -3.177528
  O 7.428930 -0.802010 -1.946354
  H 1.861050 -0.650045 -1.394871
  H 4.690773 -0.115547 -0.470085
  H 7.953573 -0.633413 -1.151689
 11
 125.754966
  H 1.341871 0.324215 0.905476
  C 2.337245 0.181149 0.518549
  H 3.152523 0.467244 1.171630
  C 2.514447 -0.306244 -0.710496
  C 3.785101 -0.540381 -1.313801
  C 4.448501 -0.920660 -2.302024
  H 5.102743 -1.214685 -3.086997
  O 7.530364 -0.708279 -1.749635
  H 1.674880 -0.564437 -1.339094
  H 4.690157 -0.296601 -0.685946
  H 8.318046 -0.600227 -1.190069
 11
 125.271728
  H 1.488443 0.351418 1.004174
  C 2.431876 0.195964 0.519530
  H 3.304099 0.453457 1.087797
  C 2.481257 -0.308735 -0.705458
  C 3.670414 -0.588699 -1.436033
  C 4.331090 -0.962186 -2.413380
  H 5.006916 -1.216610 -3.205367
  O 7.590428 -0.630844 -1.478870
  H 1.577585 -0.565678 -1.228262
  H 4.724225 -0.407769 -0.985034
  H 8.397256 -0.516248 -0.960999
 11
 117.730602
  H 1.717217 0.399708 1.177394
  C 2.563328 0.198198 0.531525
  H 3.523579 0.448525 0.973985
  C 2.436253 -0.337380 -0.691574
  C 3.453740 -0.636518 -1.579169
  C 4.240658 -0.952195 -2.489514
  H 4.817602 -1.255410 -3.348199
  O 7.594615 -0.524350 -1.088224
  H 1.453177 -0.577471 -1.117315
  H 4.940492 -0.593253 -1.634367
  H 8.405502 -0.391760 -0.593157
 11
 114.728981
  H 1.697759 0.383442 1.128559
  C 2.561994 0.189264 0.517361
  H 3.518317 0.437058 0.948152
  C 2.440337 -0.340557 -0.708849
  C 3.442493 -0.644877 -1.599784
  C 4.270447 -0.941337 -2.482401
  H 4.756412 -1.263155 -3.383282
  O 7.668706 -0.505291 -1.041548
  H 1.462216 -0.583662 -1.130283
  H 5.065120 -0.629438 -1.719069
  H 8.486800 -0.376249 -0.549671
