 20
 0.000000
  C 0.955153 0.053482 0.177211
  C 2.457050 0.057615 0.071426
  C 3.209777 -0.013876 1.374353
  H 2.516700 -0.060880 2.210064
  C 3.085718 0.125636 -1.117016
  C 2.337315 0.199454 -2.419908
  H 1.265305 0.190323 -2.262346
  C 4.535308 0.131598 -1.211495
  C 5.239822 0.196667 -2.345919
  O 6.596480 0.201515 -2.417201
  H 0.643822 -0.014547 1.216258
  H 0.525103 -0.793395 -0.357176
  H 0.531495 0.966790 -0.240922
  H 3.844876 0.861202 1.511545
  H 3.846626 -0.897549 1.413991
  H 2.602355 -0.645923 -3.053084
  H 2.601669 1.111520 -2.952921
  H 5.087663 0.078858 -0.282636
  H 4.808660 0.252716 -3.332094
  H 6.968041 0.150906 -1.527241
 20
 6.054126
  C 0.960392 0.019554 0.187090
  C 2.423645 0.056387 0.065144
  C 3.218604 -0.022283 1.391426
  H 2.541072 -0.042132 2.237686
  C 3.060644 0.122188 -1.118197
  C 2.320449 0.185778 -2.430274
  H 1.245526 0.166727 -2.296775
  C 4.511857 0.145197 -1.207744
  C 5.215211 0.210520 -2.332314
  O 6.568386 0.222516 -2.396432
  H 0.604367 -0.004928 1.210730
  H 0.480085 -0.780416 -0.371558
  H 0.797565 0.982191 -0.272782
  H 3.873578 0.835211 1.505183
  H 3.825795 -0.921108 1.425521
  H 2.599578 -0.660155 -3.056714
  H 2.583945 1.099299 -2.961839
  H 5.062476 0.100423 -0.278373
  H 4.788480 0.258255 -3.319926
  H 6.933492 0.177998 -1.504419
 20
 18.519188
  C 0.956100 0.017778 0.198552
  C 2.403238 0.044183 0.070150
  C 3.214365 -0.042480 1.390961
  H 2.534210 -0.025950 2.238724
  C 3.046064 0.109337 -1.112632
  C 2.315063 0.157049 -2.430030
  H 1.238574 0.122467 -2.311598
  C 4.488090 0.160201 -1.198961
  C 5.198863 0.230670 -2.330316
  O 6.550686 0.261669 -2.390159
  H 0.577430 0.045240 1.216278
  H 0.428668 -0.731705 -0.399431
  H 1.040043 0.974362 -0.264787
  H 3.904605 0.800076 1.485882
  H 3.785583 -0.973935 1.424689
  H 2.613132 -0.688480 -3.049041
  H 2.571684 1.071636 -2.964445
  H 5.038606 0.126181 -0.266455
  H 4.777477 0.266180 -3.318317
  H 6.910125 0.226511 -1.501027
 20
 32.490789
  C 0.934602 -0.010309 0.204901
  C 2.391781 0.048127 0.064512
  C 3.205892 -0.031050 1.402030
  H 2.527095 -0.005849 2.241329
  C 3.046043 0.111002 -1.117806
  C 2.313138 0.153499 -2.430478
  H 1.237797 0.122077 -2.305946
  C 4.481844 0.161239 -1.203315
  C 5.191385 0.231879 -2.334044
  O 6.553250 0.270176 -2.393430
  H 0.553884 0.011267 1.207430
  H 0.395879 -0.697731 -0.425862
  H 1.204128 0.944334 -0.222495
  H 3.897142 0.799504 1.495062
  H 3.763511 -0.960445 1.438708
  H 2.606586 -0.695855 -3.047474
  H 2.569171 1.066770 -2.972176
  H 5.032704 0.127838 -0.273383
  H 4.767514 0.267068 -3.328376
  H 6.912370 0.235278 -1.503956
 20
 44.602957
  C 0.922923 -0.038989 0.210056
  C 2.386164 0.049549 0.059024
  C 3.187076 -0.011875 1.402122
  H 2.499920 0.023675 2.241134
  C 3.049107 0.109152 -1.122802
  C 2.308632 0.146256 -2.428729
  H 1.232496 0.124904 -2.291522
  C 4.491082 0.165638 -1.209922
  C 5.198510 0.237166 -2.342959
  O 6.557929 0.270408 -2.404270
  H 0.542866 -0.070083 1.215737
  H 0.362875 -0.633614 -0.486786
  H 1.338890 0.923560 -0.128182
  H 3.880643 0.816181 1.490623
  H 3.738178 -0.942286 1.449596
  H 2.589094 -0.707961 -3.044191
  H 2.564955 1.051030 -2.977285
  H 5.043995 0.131478 -0.283691
  H 4.772920 0.271119 -3.335175
  H 6.918863 0.231320 -1.508823
 20
 52.999133
  C 0.910435 -0.066964 0.226068
  C 2.380183 0.050787 0.053219
  C 3.181789 0.006645 1.393407
  H 2.496756 0.053883 2.238831
  C 3.044851 0.104838 -1.136491
  C 2.305649 0.137993 -2.445287
  H 1.230762 0.131142 -2.309589
  C 4.484737 0.163747 -1.214384
  C 5.199930 0.234979 -2.341193
  O 6.561604 0.275413 -2.391798
  H 0.541326 -0.166780 1.235579
  H 0.318102 -0.548073 -0.528501
  H 1.443700 0.909998 -0.018836
  H 3.881974 0.837237 1.468880
  H 3.733541 -0.929037 1.449952
  H 2.575619 -0.720463 -3.053360
  H 2.570248 1.032954 -2.999848
  H 5.032271 0.130338 -0.284210
  H 4.782481 0.269716 -3.332300
  H 6.915314 0.237196 -1.490782
 20
 59.910569
  C 0.913776 -0.092737 0.237958
  C 2.377443 0.058566 0.061002
  C 3.162297 0.020234 1.377588
  H 2.478505 0.072895 2.236834
  C 3.046937 0.108095 -1.139739
  C 2.309418 0.139757 -2.443661
  H 1.221356 0.143025 -2.301487
  C 4.480604 0.162858 -1.214028
  C 5.197843 0.231653 -2.342350
  O 6.557474 0.275331 -2.388453
  H 0.553469 -0.213936 1.238989
  H 0.307332 -0.518255 -0.539406
  H 1.532017 0.892956 0.034925
  H 3.867630 0.845763 1.460117
  H 3.715174 -0.914415 1.443799
  H 2.577760 -0.745251 -3.062738
  H 2.585778 1.046337 -3.013038
  H 5.029824 0.129474 -0.283050
  H 4.775416 0.267899 -3.350057
  H 6.911771 0.237677 -1.474347
 20
 64.695514
  C 0.905254 -0.123227 0.240640
  C 2.370378 0.066472 0.058122
  C 3.167137 0.030439 1.376773
  H 2.490498 0.083548 2.238349
  C 3.040648 0.112739 -1.148607
  C 2.295516 0.142668 -2.454637
  H 1.220273 0.152390 -2.312031
  C 4.481044 0.168346 -1.215162
  C 5.209731 0.233403 -2.335979
  O 6.572310 0.265862 -2.367870
  H 0.541786 -0.255024 1.247983
  H 0.295112 -0.497902 -0.549870
  H 1.582982 0.884875 0.063399
  H 3.868514 0.854017 1.452603
  H 3.722577 -0.897192 1.445601
  H 2.551906 -0.733748 -3.062849
  H 2.569343 1.035500 -3.024938
  H 5.024287 0.134797 -0.281317
  H 4.802179 0.266272 -3.338215
  H 6.907290 0.227093 -1.473165
 20
 68.532023
  C 0.905286 -0.160497 0.242505
  C 2.368360 0.076920 0.066757
  C 3.172451 0.040533 1.395428
  H 2.497701 0.088689 2.236975
  C 3.047062 0.120299 -1.148149
  C 2.302324 0.149038 -2.453472
  H 1.233495 0.165765 -2.314361
  C 4.468487 0.178227 -1.215367
  C 5.199374 0.238261 -2.343285
  O 6.564258 0.247445 -2.379700
  H 0.539134 -0.291162 1.217865
  H 0.287459 -0.497920 -0.576039
  H 1.624296 0.884798 0.086256
  H 3.868290 0.874387 1.462187
  H 3.722507 -0.875879 1.457951
  H 2.548677 -0.716152 -3.048198
  H 2.576836 1.023901 -3.021858
  H 5.007937 0.143105 -0.288971
  H 4.792597 0.265113 -3.335628
  H 6.910517 0.202779 -1.463090
 20
 71.566783
  C 0.906324 -0.187384 0.237513
  C 2.367879 0.088202 0.074161
  C 3.170562 0.044287 1.400724
  H 2.494994 0.097280 2.237584
  C 3.050819 0.118163 -1.146571
  C 2.299054 0.149538 -2.459826
  H 1.203437 0.184492 -2.318385
  C 4.472810 0.166065 -1.212560
  C 5.203189 0.226019 -2.337311
  O 6.571063 0.263818 -2.368881
  H 0.512347 -0.309163 1.227878
  H 0.302305 -0.477034 -0.583098
  H 1.673210 0.901465 0.094090
  H 3.877465 0.881045 1.465888
  H 3.716892 -0.885983 1.462138
  H 2.534725 -0.730597 -3.055692
  H 2.585549 1.015077 -3.034453
  H 5.016144 0.135203 -0.284190
  H 4.794220 0.259062 -3.337600
  H 6.909346 0.228843 -1.464409
 20
 73.534773
  C 0.906596 -0.230860 0.238410
  C 2.363078 0.102849 0.078377
  C 3.175126 0.056239 1.403478
  H 2.490206 0.109598 2.256505
  C 3.048909 0.122526 -1.151931
  C 2.297402 0.152664 -2.452036
  H 1.224035 0.198178 -2.307437
  C 4.471614 0.170482 -1.217262
  C 5.205413 0.225875 -2.341281
  O 6.571994 0.253134 -2.369559
  H 0.500139 -0.332571 1.220288
  H 0.294472 -0.489946 -0.597088
  H 1.703339 0.923224 0.099386
  H 3.867274 0.881162 1.462057
  H 3.725091 -0.876844 1.460023
  H 2.517837 -0.727613 -3.034089
  H 2.598418 1.032292 -3.051158
  H 5.015456 0.141711 -0.285716
  H 4.800911 0.255574 -3.336768
  H 6.908350 0.218038 -1.464035
 20
 73.885270
  C 0.921511 -0.293739 0.235940
  C 2.355762 0.123940 0.081923
  C 3.176014 0.066889 1.405825
  H 2.498775 0.110843 2.252419
  C 3.050410 0.133322 -1.155016
  C 2.294840 0.166568 -2.453471
  H 1.218956 0.234605 -2.301954
  C 4.468284 0.185562 -1.215232
  C 5.207426 0.233937 -2.338502
  O 6.574746 0.231578 -2.361894
  H 0.492244 -0.355706 1.212853
  H 0.300196 -0.510859 -0.603025
  H 1.728528 0.959132 0.105274
  H 3.869011 0.902311 1.467001
  H 3.729378 -0.864400 1.452453
  H 2.498641 -0.736637 -3.038089
  H 2.604682 1.022218 -3.050930
  H 5.010504 0.155278 -0.279529
  H 4.805134 0.255761 -3.337349
  H 6.908250 0.192980 -1.453475
 20
 72.391487
  C 0.942444 -0.373285 0.230167
  C 2.346331 0.144641 0.086548
  C 3.177033 0.079736 1.411461
  H 2.503496 0.116860 2.261431
  C 3.051305 0.147099 -1.159348
  C 2.288256 0.182616 -2.452523
  H 1.221365 0.272779 -2.291674
  C 4.465441 0.200701 -1.215280
  C 5.210045 0.233882 -2.337797
  O 6.575187 0.210040 -2.353697
  H 0.483525 -0.371617 1.196390
  H 0.316700 -0.555930 -0.613650
  H 1.759329 1.013800 0.102273
  H 3.868692 0.919220 1.474805
  H 3.732859 -0.850517 1.450278
  H 2.467153 -0.727316 -3.026739
  H 2.610869 1.029291 -3.064495
  H 5.007465 0.163014 -0.276926
  H 4.809933 0.238641 -3.341741
  H 6.904332 0.179729 -1.443065
 20
 70.380927
  C 0.973642 -0.446633 0.228215
  C 2.338065 0.165281 0.095047
  C 3.170246 0.097516 1.411033
  H 2.496168 0.134245 2.264294
  C 3.054332 0.157149 -1.160807
  C 2.282970 0.201920 -2.447085
  H 1.220504 0.331566 -2.274872
  C 4.462433 0.200274 -1.214333
  C 5.211711 0.228188 -2.338371
  O 6.575536 0.202735 -2.350656
  H 0.479324 -0.380506 1.177304
  H 0.354452 -0.614650 -0.625051
  H 1.795663 1.063223 0.096508
  H 3.860044 0.935139 1.472894
  H 3.725743 -0.833316 1.447693
  H 2.422018 -0.720031 -3.008058
  H 2.629508 1.028077 -3.075648
  H 5.004039 0.163306 -0.274654
  H 4.813544 0.235040 -3.339849
  H 6.903353 0.175446 -1.441381
