 25
 0.000000
  C 1.041078 0.117063 0.307329
  C 2.512794 0.148492 0.370560
  C 3.249839 0.614163 1.561176
  C 2.432194 1.079274 2.761905
  C 3.349835 1.523873 3.896947
  C 3.183441 -0.292576 -0.762436
  C 4.564457 -0.376167 -0.954240
  C 5.169401 -0.851537 -2.092771
  C 4.530997 -1.356183 -3.306883
  H 3.448597 -1.352850 -3.306372
  H 6.251045 -0.867283 -2.122785
  H 0.563081 0.465594 1.214991
  H 0.698685 -0.899701 0.098513
  H 0.693452 0.727575 -0.527755
  H 3.911763 1.432682 1.253678
  H 3.916312 -0.193413 1.886982
  H 1.796211 0.269141 3.123277
  H 1.791418 1.917235 2.481539
  H 3.988111 0.706879 4.225827
  H 2.762562 1.854285 4.750045
  H 3.983289 2.351414 3.585518
  H 2.554225 -0.616065 -1.579992
  H 5.207937 -0.044207 -0.151496
  H 4.892237 -2.370850 -3.492530
  H 4.897251 -0.775672 -4.157446
 25
 -0.282676
  C 1.020390 0.117505 0.330335
  C 2.488335 0.171817 0.346764
  C 3.237135 0.622546 1.537847
  C 2.431807 1.078739 2.750009
  C 3.362176 1.507801 3.880927
  C 3.151008 -0.269253 -0.795355
  C 4.539601 -0.388666 -0.946937
  C 5.169372 -0.854875 -2.076291
  C 4.555134 -1.316143 -3.318604
  H 3.475235 -1.234613 -3.342260
  H 6.251163 -0.895764 -2.054960
  H 0.559976 0.665412 1.143079
  H 0.721695 -0.932964 0.414770
  H 0.625210 0.460408 -0.625197
  H 3.908972 1.435404 1.236744
  H 3.903054 -0.189832 1.852553
  H 1.795595 0.268002 3.107115
  H 1.794705 1.924233 2.484788
  H 3.998015 0.683647 4.197671
  H 2.784939 1.835475 4.742497
  H 3.998965 2.333726 3.570480
  H 2.529370 -0.561517 -1.630266
  H 5.169679 -0.099447 -0.120583
  H 4.845486 -2.355362 -3.492908
  H 4.986603 -0.767003 -4.158244
 25
 1.053704
  C 1.021442 0.150519 0.341076
  C 2.485693 0.156947 0.345289
  C 3.241881 0.630431 1.526050
  C 2.431927 1.068568 2.741839
  C 3.357474 1.512412 3.870399
  C 3.139494 -0.310234 -0.794601
  C 4.529314 -0.495014 -0.919661
  C 5.165338 -0.917943 -2.057666
  C 4.564776 -1.251437 -3.345182
  H 3.488660 -1.129568 -3.380626
  H 6.243395 -0.998922 -2.018047
  H 0.553980 0.845173 1.026341
  H 0.852156 -0.859625 0.751342
  H 0.583833 0.153558 -0.651387
  H 3.873888 1.467243 1.205283
  H 3.935828 -0.156312 1.840557
  H 1.813199 0.243557 3.098313
  H 1.777734 1.902622 2.483779
  H 4.001704 0.696867 4.190866
  H 2.777420 1.838478 4.729964
  H 3.985830 2.342511 3.555935
  H 2.524014 -0.531430 -1.655989
  H 5.150105 -0.302593 -0.057038
  H 4.821927 -2.281579 -3.601333
  H 5.030337 -0.646840 -4.126248
 25
 11.087599
  C 1.004380 0.179229 0.343172
  C 2.460109 0.142918 0.349188
  C 3.238557 0.649767 1.516219
  C 2.434351 1.093782 2.737599
  C 3.369166 1.545434 3.853984
  C 3.119068 -0.315758 -0.793493
  C 4.497742 -0.570489 -0.891432
  C 5.147159 -0.963744 -2.034710
  C 4.569670 -1.174453 -3.370520
  H 3.514995 -0.918830 -3.444438
  H 6.208389 -1.170457 -1.954992
  H 0.470922 0.706118 1.114387
  H 1.150786 -0.893536 0.702962
  H 0.519369 0.105306 -0.623002
  H 3.826822 1.502985 1.162134
  H 3.957431 -0.111139 1.834873
  H 1.822484 0.272176 3.107759
  H 1.780934 1.925055 2.478801
  H 4.008837 0.729627 4.181919
  H 2.797012 1.890734 4.712029
  H 4.002311 2.366178 3.523170
  H 2.518825 -0.508477 -1.671305
  H 5.102774 -0.455871 -0.006676
  H 4.709272 -2.220895 -3.659895
  H 5.136925 -0.596445 -4.104576
 25
 29.044126
  C 0.994822 0.293015 0.319208
  C 2.412210 0.107049 0.358966
  C 3.221071 0.579705 1.530080
  C 2.426866 1.074735 2.739491
  C 3.375419 1.524418 3.847429
  C 3.093315 -0.288203 -0.815613
  C 4.474280 -0.505455 -0.911249
  C 5.129676 -0.927186 -2.033257
  C 4.553906 -1.220207 -3.349995
  H 3.488499 -1.033450 -3.415137
  H 6.200314 -1.053308 -1.964334
  H 0.449463 0.762118 1.115526
  H 1.512520 -0.824927 0.666578
  H 0.462794 0.099244 -0.599153
  H 3.854952 1.396763 1.175791
  H 3.888243 -0.220698 1.860398
  H 1.790465 0.278388 3.129929
  H 1.797288 1.920324 2.459093
  H 3.993956 0.698599 4.191871
  H 2.814012 1.902761 4.698458
  H 4.029224 2.320970 3.499107
  H 2.494379 -0.433056 -1.704849
  H 5.080225 -0.348757 -0.030104
  H 4.750756 -2.263462 -3.602526
  H 5.071538 -0.633466 -4.109510
 25
 38.881569
  C 0.978998 0.322387 0.321521
  C 2.382366 0.065893 0.385495
  C 3.213238 0.558107 1.555783
  C 2.422341 1.094641 2.748890
  C 3.372002 1.543943 3.854876
  C 3.078620 -0.336226 -0.818966
  C 4.449742 -0.518888 -0.920021
  C 5.112521 -0.911951 -2.054180
  C 4.537962 -1.197557 -3.376914
  H 3.468987 -1.032513 -3.437610
  H 6.187265 -1.012375 -1.991417
  H 0.438595 0.787674 1.123698
  H 1.826775 -0.943434 0.637856
  H 0.432510 0.095412 -0.579522
  H 3.862093 1.355713 1.188388
  H 3.862334 -0.245758 1.907071
  H 1.764550 0.320281 3.148451
  H 1.814046 1.947265 2.445848
  H 3.966770 0.710950 4.222322
  H 2.812826 1.955112 4.691907
  H 4.047374 2.317202 3.495499
  H 2.471907 -0.489463 -1.698443
  H 5.052893 -0.357365 -0.039345
  H 4.755986 -2.233510 -3.644343
  H 5.042141 -0.590436 -4.129757
 25
 41.358901
  C 0.973449 0.336288 0.334024
  C 2.361952 0.029667 0.414603
  C 3.206112 0.540054 1.577582
  C 2.419332 1.109739 2.757638
  C 3.370162 1.567047 3.858334
  C 3.063230 -0.376328 -0.810846
  C 4.434174 -0.546632 -0.921580
  C 5.091940 -0.909268 -2.072392
  C 4.511496 -1.167475 -3.395309
  H 3.441850 -1.003218 -3.449193
  H 6.168450 -0.998182 -2.021077
  H 0.443779 0.842211 1.117279
  H 2.122160 -1.078571 0.553244
  H 0.415032 0.078999 -0.550025
  H 3.863413 1.325507 1.198029
  H 3.847054 -0.260836 1.948398
  H 1.750281 0.349970 3.166267
  H 1.820838 1.961743 2.434439
  H 3.949679 0.733679 4.247277
  H 2.812436 2.006628 4.682213
  H 4.057790 2.323815 3.486430
  H 2.444960 -0.513433 -1.685920
  H 5.039785 -0.399881 -0.039329
  H 4.730285 -2.198618 -3.680825
  H 5.014043 -0.549295 -4.139958
 25
 42.233574
  C 0.977810 0.350198 0.343418
  C 2.344289 0.047661 0.424550
  C 3.194900 0.561645 1.577508
  C 2.414326 1.123082 2.764648
  C 3.371246 1.561638 3.868996
  C 3.041464 -0.399756 -0.800954
  C 4.423622 -0.571488 -0.915659
  C 5.074221 -0.907631 -2.072136
  C 4.489426 -1.166741 -3.392775
  H 3.415956 -1.030757 -3.438605
  H 6.151764 -0.985796 -2.027324
  H 0.461566 0.877519 1.122088
  H 2.368211 -1.128553 0.360149
  H 0.400987 0.056045 -0.515229
  H 3.846801 1.348592 1.192395
  H 3.835979 -0.239558 1.948540
  H 1.739681 0.364554 3.164468
  H 1.823559 1.986105 2.456615
  H 3.948889 0.718860 4.242067
  H 2.819697 1.986609 4.703427
  H 4.064208 2.317336 3.503712
  H 2.418126 -0.552693 -1.670148
  H 5.031907 -0.412724 -0.038168
  H 4.735837 -2.185794 -3.694739
  H 4.966241 -0.522637 -4.131371
 25
 37.167892
  C 0.969718 0.328912 0.371680
  C 2.310525 0.068580 0.450251
  C 3.164796 0.551650 1.591972
  C 2.401511 1.150256 2.772871
  C 3.371666 1.578934 3.868133
  C 2.998370 -0.475227 -0.755804
  C 4.403510 -0.604381 -0.887472
  C 5.051243 -0.925175 -2.042875
  C 4.468196 -1.120463 -3.379109
  H 3.401768 -0.927098 -3.432861
  H 6.127574 -1.015496 -1.998630
  H 0.444535 0.839097 1.154016
  H 2.550147 -1.226656 0.124877
  H 0.390759 0.037826 -0.486827
  H 3.849789 1.309144 1.201707
  H 3.774372 -0.270367 1.973713
  H 1.708385 0.415102 3.183651
  H 1.832389 2.023064 2.452980
  H 3.921413 0.726154 4.257828
  H 2.834104 2.037453 4.693283
  H 4.087863 2.304129 3.488815
  H 2.378242 -0.609737 -1.631853
  H 5.006976 -0.472254 -0.000755
  H 4.665054 -2.143134 -3.706762
  H 4.986942 -0.482111 -4.096080
 25
 27.054374
  C 0.965391 0.325059 0.364662
  C 2.286627 0.070425 0.461911
  C 3.153004 0.540938 1.583007
  C 2.417177 1.196406 2.752554
  C 3.404473 1.595244 3.844574
  C 2.945078 -0.599627 -0.713388
  C 4.376733 -0.699339 -0.847280
  C 5.041145 -0.900184 -2.017493
  C 4.467517 -1.052182 -3.359372
  H 3.390776 -0.936302 -3.399513
  H 6.120866 -0.953567 -1.973855
  H 0.435693 0.867426 1.125849
  H 2.585786 -1.455209 -0.048483
  H 0.380653 -0.002188 -0.477645
  H 3.871069 1.256877 1.172112
  H 3.730460 -0.296975 1.981926
  H 1.686718 0.503081 3.172531
  H 1.891579 2.089847 2.412985
  H 3.915760 0.723094 4.246081
  H 2.885807 2.087505 4.663518
  H 4.152372 2.284191 3.458192
  H 2.343760 -0.635700 -1.613978
  H 4.967910 -0.602207 0.051143
  H 4.740145 -2.033627 -3.753306
  H 4.934838 -0.334885 -4.035743
 25
 19.002557
  C 0.964683 0.306217 0.372911
  C 2.287181 0.064974 0.463405
  C 3.156198 0.513437 1.581985
  C 2.450380 1.234542 2.729327
  C 3.452570 1.630622 3.808808
  C 2.907024 -0.696019 -0.674208
  C 4.358706 -0.748973 -0.807374
  C 5.036575 -0.875549 -1.980821
  C 4.476631 -0.964659 -3.332645
  H 3.395955 -0.894967 -3.374742
  H 6.117205 -0.911508 -1.930784
  H 0.432826 0.879025 1.111006
  H 2.575540 -1.675601 -0.266371
  H 0.378391 -0.051723 -0.456198
  H 3.925135 1.172019 1.163101
  H 3.681569 -0.349959 2.001243
  H 1.692574 0.586025 3.171344
  H 1.958971 2.134984 2.357603
  H 3.930753 0.753080 4.238098
  H 2.952693 2.166893 4.611693
  H 4.225468 2.279170 3.402114
  H 2.363300 -0.575797 -1.608440
  H 4.939337 -0.697966 0.101548
  H 4.799715 -1.903041 -3.789178
  H 4.916303 -0.186336 -3.959525
 25
 17.709336
  C 0.939299 0.248751 0.433796
  C 2.281532 0.102965 0.454277
  C 3.148709 0.515151 1.587152
  C 2.453154 1.221717 2.748675
  C 3.470347 1.646846 3.802981
  C 2.898119 -0.568132 -0.730435
  C 4.353280 -0.694554 -0.816853
  C 5.045526 -0.910490 -1.967514
  C 4.500981 -1.039516 -3.322673
  H 3.420919 -0.968522 -3.378037
  H 6.122182 -0.992737 -1.896229
  H 0.393941 0.692010 1.246613
  H 2.477548 -1.581849 -0.578205
  H 0.349951 -0.064036 -0.411466
  H 3.931767 1.170370 1.189351
  H 3.659949 -0.368272 1.983628
  H 1.723885 0.555824 3.212600
  H 1.928021 2.106882 2.386172
  H 3.991710 0.784017 4.211561
  H 2.974285 2.159033 4.623793
  H 4.207551 2.325942 3.380283
  H 2.439953 -0.235555 -1.663981
  H 4.916139 -0.640488 0.102322
  H 4.827796 -1.990983 -3.747553
  H 4.949281 -0.280981 -3.968097
 25
 17.391351
  C 0.951830 0.233692 0.442701
  C 2.302888 0.173166 0.436580
  C 3.155092 0.558372 1.588709
  C 2.441142 1.187387 2.782297
  C 3.447184 1.615955 3.845952
  C 2.927235 -0.406733 -0.786547
  C 4.382618 -0.574945 -0.851643
  C 5.055216 -0.927465 -1.979441
  C 4.476926 -1.214236 -3.296673
  H 3.393358 -1.201815 -3.316532
  H 6.132930 -1.004068 -1.921265
  H 0.392839 0.516372 1.316078
  H 2.442151 -1.397581 -0.846501
  H 0.367972 -0.006351 -0.429524
  H 3.917012 1.257189 1.225174
  H 3.696801 -0.327949 1.936875
  H 1.747027 0.471539 3.225759
  H 1.871623 2.060448 2.459630
  H 4.017035 0.763161 4.208409
  H 2.935352 2.062820 4.694731
  H 4.143636 2.351257 3.448983
  H 2.548348 0.102494 -1.680540
  H 4.956560 -0.422029 0.048663
  H 4.841097 -2.181963 -3.645919
  H 4.861948 -0.495324 -4.023793
 25
 16.556682
  C 0.938668 0.245494 0.450461
  C 2.286506 0.136864 0.447550
  C 3.146696 0.545942 1.586195
  C 2.442251 1.185939 2.778932
  C 3.455993 1.606869 3.838610
  C 2.917588 -0.437371 -0.774214
  C 4.378597 -0.566379 -0.843294
  C 5.054657 -0.914011 -1.971236
  C 4.479908 -1.210015 -3.287633
  H 3.396352 -1.211018 -3.308867
  H 6.132095 -0.979257 -1.912607
  H 0.394273 0.647119 1.283216
  H 2.474498 -1.438972 -0.914356
  H 0.348468 -0.070396 -0.392857
  H 3.903033 1.243365 1.210122
  H 3.692337 -0.335340 1.940271
  H 1.740383 0.479160 3.225563
  H 1.883334 2.066252 2.455445
  H 4.018146 0.749492 4.201713
  H 2.951311 2.060920 4.687793
  H 4.158608 2.334056 3.437777
  H 2.542034 0.102414 -1.654776
  H 4.955658 -0.391813 0.051828
  H 4.858858 -2.171333 -3.639630
  H 4.855566 -0.484590 -4.013844
