 22
 0.000000
  H 1.556226 0.156136 0.442812
  C 2.638616 0.136637 0.393634
  C 3.355324 0.612837 1.576376
  C 2.453322 1.071451 2.716919
  C 3.265231 1.553860 3.915166
  C 3.211557 -0.331848 -0.771890
  C 4.592104 -0.422368 -0.997299
  C 5.166994 -0.887524 -2.158673
  C 4.489271 -1.364299 -3.352167
  H 3.406208 -1.339323 -3.292945
  H 6.250848 -0.904844 -2.199868
  H 4.030081 1.432659 1.289848
  H 4.030751 -0.176443 1.937328
  H 1.808140 0.248389 3.030656
  H 1.807595 1.882137 2.373318
  H 3.897995 0.759344 4.303459
  H 2.604327 1.875822 4.715861
  H 3.897399 2.396303 3.644775
  H 2.544980 -0.648597 -1.560328
  H 5.255870 -0.105808 -0.206362
  H 4.828174 -2.380660 -3.576161
  H 4.829977 -0.783566 -4.215051
 22
 10.340058
  H 1.544298 0.168841 0.474655
  C 2.625627 0.149654 0.426283
  C 3.341973 0.626235 1.609827
  C 2.439197 1.084589 2.749594
  C 3.250605 1.566851 3.947284
  C 3.197796 -0.317747 -0.736468
  C 4.567758 -0.406604 -0.957650
  C 5.204222 -0.926400 -2.255550
  C 4.518834 -1.397615 -3.435529
  H 3.436403 -1.368962 -3.367349
  H 6.284049 -0.944153 -2.297627
  H 4.015900 1.445632 1.324263
  H 4.016592 -0.162034 1.971243
  H 1.794145 0.261414 3.063095
  H 1.793605 1.895129 2.405679
  H 3.883439 0.772164 4.335537
  H 2.589591 1.888818 4.747881
  H 3.882828 2.409373 3.676653
  H 2.531668 -0.634888 -1.525920
  H 5.235084 -0.092384 -0.172381
  H 4.852965 -2.414703 -3.661873
  H 4.854924 -0.817907 -4.300550
 22
 29.811490
  H 1.586562 0.158864 0.450629
  C 2.668546 0.148745 0.425009
  C 3.358651 0.629362 1.618135
  C 2.419595 1.078412 2.734285
  C 3.202475 1.568170 3.949352
  C 3.259624 -0.306181 -0.706511
  C 4.617490 -0.375107 -0.877183
  C 5.271867 -0.956456 -2.329284
  C 4.454508 -1.400241 -3.443835
  H 3.387745 -1.333473 -3.281794
  H 6.352444 -0.963827 -2.343621
  H 4.024359 1.459379 1.347272
  H 4.025316 -0.156090 1.997761
  H 1.777186 0.248048 3.032780
  H 1.776485 1.883426 2.374195
  H 3.835148 0.778275 4.347124
  H 2.524243 1.885209 4.737242
  H 3.834351 2.413831 3.688321
  H 2.614334 -0.625403 -1.501665
  H 5.356861 -0.085497 -0.152115
  H 4.728098 -2.427904 -3.700227
  H 4.731129 -0.832906 -4.337291
 22
 52.512557
  H 1.576068 0.161464 0.460984
  C 2.664590 0.156437 0.447860
  C 3.349986 0.646619 1.662334
  C 2.397930 1.094026 2.773004
  C 3.168298 1.588449 3.996358
  C 3.283962 -0.304488 -0.697561
  C 4.629834 -0.366864 -0.851102
  C 5.315672 -1.006412 -2.451450
  C 4.455739 -1.427322 -3.515969
  H 3.405537 -1.341738 -3.310029
  H 6.392944 -1.008110 -2.448426
  H 4.015843 1.480954 1.398233
  H 4.017292 -0.136396 2.050628
  H 1.756036 0.261088 3.066073
  H 1.754761 1.896249 2.406210
  H 3.799364 0.801280 4.401477
  H 2.480796 1.903241 4.777592
  H 3.797998 2.437242 3.741089
  H 2.649680 -0.626217 -1.498899
  H 5.409320 -0.094865 -0.168085
  H 4.702113 -2.452392 -3.789362
  H 4.707378 -0.871380 -4.418185
 22
 74.888103
  H 1.582935 0.172076 0.487380
  C 2.664106 0.170088 0.482070
  C 3.338639 0.659808 1.695313
  C 2.378005 1.105147 2.800410
  C 3.137710 1.600551 4.025928
  C 3.298880 -0.291804 -0.665392
  C 4.639782 -0.350743 -0.810029
  C 5.353718 -1.049637 -2.558993
  C 4.465820 -1.452427 -3.579289
  H 3.411006 -1.349726 -3.330705
  H 6.424427 -1.050774 -2.553965
  H 4.002300 1.493925 1.434954
  H 4.003621 -0.120495 2.086317
  H 1.736322 0.269993 3.089855
  H 1.735151 1.906411 2.429270
  H 3.768727 0.813981 4.434969
  H 2.444334 1.913808 4.802994
  H 3.767430 2.451447 3.773733
  H 2.664801 -0.618671 -1.479738
  H 5.443631 -0.091787 -0.159582
  H 4.690362 -2.495339 -3.864785
  H 4.696085 -0.891444 -4.502276
 22
 95.156616
  H 1.575289 0.184938 0.518533
  C 2.657147 0.184789 0.517895
  C 3.323951 0.672709 1.727070
  C 2.360628 1.114681 2.824049
  C 3.114644 1.611194 4.052764
  C 3.298841 -0.275755 -0.626228
  C 4.638318 -0.332531 -0.765277
  C 5.388021 -1.089968 -2.659626
  C 4.479123 -1.483636 -3.656813
  H 3.434895 -1.372251 -3.386570
  H 6.460365 -1.092221 -2.657153
  H 3.986595 1.507598 1.469357
  H 3.987818 -0.106454 2.120408
  H 1.719945 0.279072 3.109913
  H 1.718820 1.913904 2.450165
  H 3.744832 0.826187 4.463900
  H 2.418107 1.923020 4.826490
  H 3.743615 2.462457 3.803357
  H 2.669569 -0.602925 -1.441383
  H 5.458140 -0.079189 -0.128930
  H 4.685900 -2.520803 -3.944795
  H 4.691699 -0.928751 -4.577911
 22
 112.813563
  H 1.574646 0.193828 0.538962
  C 2.655377 0.197381 0.547695
  C 3.314567 0.688528 1.765760
  C 2.339748 1.128344 2.857964
  C 3.082972 1.626939 4.092951
  C 3.310663 -0.262606 -0.595207
  C 4.643211 -0.315875 -0.725431
  C 5.424711 -1.132658 -2.766147
  C 4.489290 -1.519085 -3.744044
  H 3.446969 -1.397282 -3.447517
  H 6.496052 -1.135880 -2.766249
  H 3.977263 1.526152 1.512938
  H 3.978300 -0.089510 2.164227
  H 1.698866 0.290061 3.139110
  H 1.697883 1.926478 2.479208
  H 3.712698 0.843238 4.508694
  H 2.379328 1.936640 4.861875
  H 3.711608 2.480471 3.848265
  H 2.686122 -0.592315 -1.416812
  H 5.476010 -0.070086 -0.108293
  H 4.679502 -2.564399 -4.037758
  H 4.685148 -0.962794 -4.675375
 22
 127.381094
  H 1.572271 0.203212 0.561738
  C 2.653535 0.210257 0.579493
  C 3.303055 0.701971 1.799223
  C 2.320008 1.138310 2.882527
  C 3.052604 1.638759 4.122404
  C 3.320188 -0.247482 -0.557586
  C 4.651034 -0.297983 -0.680766
  C 5.454762 -1.174589 -2.870937
  C 4.497212 -1.549680 -3.820269
  H 3.468506 -1.417674 -3.497843
  H 6.526957 -1.180563 -2.877989
  H 3.964689 1.541042 1.551055
  H 3.965495 -0.074043 2.202098
  H 1.679979 0.298621 3.158556
  H 1.679182 1.934076 2.499073
  H 3.681285 0.857045 4.542341
  H 2.342783 1.946333 4.885900
  H 3.680425 2.493681 3.882188
  H 2.701899 -0.577963 -1.381303
  H 5.501946 -0.060240 -0.083851
  H 4.666922 -2.593815 -4.117401
  H 4.672442 -0.996559 -4.753427
 22
 139.012290
  H 1.574994 0.212229 0.582533
  C 2.654609 0.223747 0.611397
  C 3.293592 0.718126 1.838576
  C 2.297902 1.150764 2.913564
  C 3.016902 1.653732 4.160836
  C 3.337410 -0.232918 -0.523279
  C 4.661206 -0.280125 -0.638405
  C 5.486000 -1.217515 -2.977621
  C 4.504129 -1.585810 -3.909093
  H 3.478490 -1.443979 -3.562336
  H 6.557488 -1.226853 -2.993047
  H 3.954525 1.560014 1.596440
  H 3.955266 -0.055986 2.247387
  H 1.658240 0.308089 3.183387
  H 1.657445 1.944603 2.524041
  H 3.644799 0.873979 4.586445
  H 2.298477 1.958430 4.917904
  H 3.643929 2.511276 3.926629
  H 2.724405 -0.566125 -1.353607
  H 5.525654 -0.050761 -0.062717
  H 4.657163 -2.635098 -4.210602
  H 4.662673 -1.032607 -4.849407
 22
 147.930452
  H 1.572406 0.221786 0.605905
  C 2.652210 0.237203 0.644556
  C 3.281482 0.732691 1.874576
  C 2.276201 1.161828 2.941074
  C 2.983606 1.666827 4.193616
  C 3.346647 -0.216725 -0.483281
  C 4.669725 -0.262018 -0.593882
  C 5.508801 -1.260323 -3.084001
  C 4.513706 -1.620011 -3.994089
  H 3.499458 -1.470947 -3.629364
  H 6.581412 -1.275561 -3.114132
  H 3.941442 1.576420 1.637234
  H 3.942160 -0.039463 2.288058
  H 1.637445 0.317300 3.205615
  H 1.636617 1.953363 2.546573
  H 3.610523 0.889180 4.623855
  H 2.258396 1.969066 4.944809
  H 3.609633 2.526140 3.964320
  H 2.739223 -0.550793 -1.315601
  H 5.549991 -0.040548 -0.037907
  H 4.652097 -2.668082 -4.298208
  H 4.657675 -1.069526 -4.935609
 22
 153.935696
  H 1.562987 0.235126 0.640949
  C 2.642430 0.252935 0.685845
  C 3.264691 0.749949 1.918297
  C 2.252887 1.178014 2.981059
  C 2.953728 1.684908 4.236774
  C 3.345805 -0.200899 -0.440965
  C 4.665986 -0.246786 -0.553188
  C 5.529826 -1.303406 -3.191349
  C 4.535564 -1.663968 -4.105627
  H 3.516793 -1.514978 -3.741241
  H 6.604543 -1.328606 -3.246124
  H 3.924287 1.594228 1.683290
  H 3.925058 -0.020661 2.334382
  H 1.614427 0.332139 3.243254
  H 1.613509 1.968521 2.583343
  H 3.580365 0.908507 4.670339
  H 2.224276 1.986102 4.984645
  H 3.579357 2.545513 4.010033
  H 2.740005 -0.536250 -1.276423
  H 5.550238 -0.028807 -0.005422
  H 4.677120 -2.712528 -4.414167
  H 4.683052 -1.115369 -5.050086
 22
 157.340668
  H 1.546528 0.250620 0.681515
  C 2.626321 0.269534 0.729649
  C 3.243208 0.766279 1.959844
  C 2.230130 1.194208 3.020894
  C 2.929556 1.701859 4.276644
  C 3.332894 -0.184083 -0.395592
  C 4.654336 -0.231946 -0.512721
  C 5.548176 -1.345857 -3.297466
  C 4.565104 -1.709582 -4.221839
  H 3.545612 -1.564748 -3.867958
  H 6.622036 -1.382019 -3.379310
  H 3.903170 1.610076 1.725043
  H 3.903955 -0.003488 2.376376
  H 1.592096 0.348447 3.282919
  H 1.591117 1.984100 2.622395
  H 3.556025 0.926200 4.711283
  H 2.199359 2.002978 5.023368
  H 3.554933 2.562514 4.050332
  H 2.727380 -0.519447 -1.231199
  H 5.541149 -0.014662 0.034089
  H 4.715215 -2.754779 -4.532366
  H 4.721538 -1.163855 -5.164791
 22
 159.405350
  H 1.529752 0.266458 0.721240
  C 2.609320 0.286361 0.772521
  C 3.220889 0.783341 2.002516
  C 2.206728 1.211302 3.062946
  C 2.905700 1.719392 4.318980
  C 3.319590 -0.167966 -0.353747
  C 4.639632 -0.217501 -0.474992
  C 5.570500 -1.388513 -3.404074
  C 4.598199 -1.758917 -4.346462
  H 3.571278 -1.619072 -4.005132
  H 6.643870 -1.434638 -3.510582
  H 3.881743 1.626562 1.768196
  H 3.882482 0.014407 2.419281
  H 1.568791 0.365437 3.325063
  H 1.567805 2.001149 2.664092
  H 3.532176 0.944015 4.754395
  H 2.174949 2.020504 5.065240
  H 3.531072 2.580307 4.093038
  H 2.713772 -0.503905 -1.191190
  H 5.524914 0.000022 0.073393
  H 4.759638 -2.803426 -4.657880
  H 4.766165 -1.213868 -5.289216
 22
 160.664585
  H 1.510699 0.281149 0.757874
  C 2.590765 0.301838 0.811800
  C 3.197808 0.798652 2.040590
  C 2.183790 1.226732 3.100812
  C 2.883472 1.734934 4.356315
  C 3.302020 -0.152189 -0.313029
  C 4.623842 -0.203347 -0.438271
  C 5.592328 -1.431550 -3.511444
  C 4.634361 -1.806772 -4.467543
  H 3.605133 -1.672023 -4.139617
  H 6.664961 -1.486836 -3.640182
  H 3.859926 1.641239 1.806381
  H 3.860698 0.030380 2.457198
  H 1.546051 0.381136 3.363460
  H 1.544978 2.016520 2.702247
  H 3.509928 0.959810 4.791862
  H 2.153032 2.036179 5.102608
  H 3.508704 2.595729 4.130281
  H 2.696494 -0.487884 -1.150209
  H 5.509182 0.014630 0.112593
  H 4.805675 -2.848586 -4.777885
  H 4.812725 -1.262606 -5.407306
