 29
 0.000000
  C 0.906235 0.048969 0.272318
  C 2.398517 0.061297 0.086584
  C 3.240979 -0.011025 1.353004
  C 2.523805 -0.088898 2.697689
  H 3.240713 -0.135143 3.508158
  C 2.992372 0.128365 -1.121567
  C 2.351363 0.205080 -2.494317
  C 0.840196 0.217940 -2.714345
  C 0.523804 0.300958 -4.205287
  C 4.451525 0.133012 -1.210385
  C 5.190752 0.194552 -2.319173
  O 6.550494 0.195071 -2.334937
  H 0.610102 -0.005261 1.314242
  H 0.461255 -0.818462 -0.209133
  H 0.459912 0.960460 -0.117156
  H 3.886848 0.872863 1.384485
  H 3.887943 -0.891858 1.282928
  H 1.895047 -0.977424 2.744998
  H 1.893991 0.787564 2.846707
  H 2.741075 -0.644000 -3.066781
  H 2.741759 1.112141 -2.969061
  H 0.387025 1.079142 -2.225167
  H 0.386306 -0.691780 -2.323563
  H 0.936412 1.208986 -4.640740
  H -0.553270 0.309976 -4.359332
  H 0.935675 -0.553555 -4.738714
  H 4.998349 0.081113 -0.279524
  H 4.812833 0.250704 -3.326516
  H 6.881456 0.144547 -1.428638
 29
 5.682414
  C 0.912137 0.082375 0.270055
  C 2.370699 0.069443 0.095149
  C 3.228510 0.013833 1.357440
  C 2.493522 -0.097095 2.694246
  H 3.230230 -0.128530 3.495491
  C 2.982557 0.132089 -1.113211
  C 2.337302 0.204797 -2.480180
  C 0.830324 0.233779 -2.692236
  C 0.527261 0.308071 -4.185903
  C 4.444815 0.121180 -1.215138
  C 5.179112 0.172648 -2.331712
  O 6.543203 0.169316 -2.350918
  H 0.583993 -0.016073 1.279104
  H 0.754242 -0.827615 -0.286851
  H 0.419341 0.917698 -0.171122
  H 3.847541 0.917060 1.399051
  H 3.903351 -0.845066 1.286580
  H 1.900563 -1.007914 2.751733
  H 1.848341 0.760875 2.870970
  H 2.721143 -0.650548 -3.042916
  H 2.739341 1.101562 -2.958472
  H 0.389871 1.105016 -2.208109
  H 0.361250 -0.664279 -2.291662
  H 0.962319 1.205280 -4.621973
  H -0.546647 0.331750 -4.355299
  H 0.936323 -0.556985 -4.704475
  H 5.002148 0.073841 -0.298294
  H 4.793614 0.225670 -3.340869
  H 6.881790 0.123059 -1.443253
 29
 18.004048
  C 0.912266 0.074368 0.303566
  C 2.355476 0.075783 0.112618
  C 3.242421 0.035270 1.361324
  C 2.522407 -0.102912 2.695538
  H 3.263327 -0.120024 3.495579
  C 2.966492 0.137830 -1.114390
  C 2.313253 0.204042 -2.496959
  C 0.799860 0.265128 -2.724540
  C 0.511907 0.318044 -4.223124
  C 4.425049 0.116682 -1.198957
  C 5.176346 0.151446 -2.303031
  O 6.541973 0.142431 -2.297631
  H 0.567430 -0.086111 1.312206
  H 0.989755 -0.815314 -0.275350
  H 0.367482 0.873696 -0.165419
  H 3.830952 0.957018 1.398324
  H 3.940340 -0.801544 1.279702
  H 1.956111 -1.028388 2.748030
  H 1.857480 0.735555 2.877931
  H 2.682513 -0.668386 -3.048730
  H 2.735165 1.087894 -2.987588
  H 0.379577 1.156191 -2.265816
  H 0.300924 -0.609864 -2.311545
  H 0.975137 1.194003 -4.672468
  H -0.559818 0.366969 -4.403475
  H 0.902557 -0.567461 -4.720563
  H 4.969551 0.080585 -0.272664
  H 4.810578 0.191953 -3.319482
  H 6.864549 0.107924 -1.380176
 29
 31.615753
  C 0.911928 0.090105 0.293056
  C 2.361713 0.075797 0.108824
  C 3.219315 0.028598 1.363203
  C 2.474558 -0.117191 2.666932
  H 3.193998 -0.137209 3.479901
  C 2.995244 0.141957 -1.117732
  C 2.342497 0.201950 -2.492035
  C 0.827778 0.284434 -2.689250
  C 0.505175 0.313927 -4.179616
  C 4.439799 0.126295 -1.209609
  C 5.175478 0.145437 -2.328896
  O 6.533882 0.142542 -2.345998
  H 0.543099 -0.066355 1.303634
  H 1.187923 -0.800553 -0.247348
  H 0.341613 0.835067 -0.239576
  H 3.798803 0.950367 1.415170
  H 3.920998 -0.799221 1.294941
  H 1.909743 -1.045194 2.700124
  H 1.801850 0.722890 2.837830
  H 2.690522 -0.676807 -3.034736
  H 2.769421 1.067011 -2.996291
  H 0.436046 1.192806 -2.238753
  H 0.323311 -0.572121 -2.246129
  H 0.973639 1.172422 -4.657150
  H -0.568940 0.379310 -4.334926
  H 0.867696 -0.588198 -4.668710
  H 5.000046 0.110270 -0.280693
  H 4.795370 0.163015 -3.332531
  H 6.865965 0.129212 -1.439016
 29
 43.890343
  C 0.887503 0.116701 0.291083
  C 2.347120 0.082995 0.089904
  C 3.215906 0.021399 1.344858
  C 2.492195 -0.137691 2.669217
  H 3.229694 -0.165818 3.470395
  C 2.991375 0.153030 -1.129571
  C 2.342584 0.206736 -2.505368
  C 0.817183 0.300371 -2.696249
  C 0.482714 0.307527 -4.185679
  C 4.436632 0.134939 -1.200734
  C 5.191277 0.137266 -2.304785
  O 6.550522 0.137401 -2.294827
  H 0.524736 -0.015669 1.292591
  H 1.314827 -0.774906 -0.197437
  H 0.302132 0.794660 -0.283679
  H 3.795590 0.953335 1.393233
  H 3.925304 -0.813855 1.258853
  H 1.925707 -1.069842 2.704699
  H 1.825288 0.700076 2.860716
  H 2.685563 -0.690124 -3.043884
  H 2.781889 1.071156 -3.024781
  H 0.435535 1.221353 -2.258449
  H 0.306428 -0.544496 -2.233843
  H 0.955621 1.153191 -4.681111
  H -0.593312 0.380519 -4.334637
  H 0.833261 -0.606707 -4.662193
  H 4.977484 0.133375 -0.267136
  H 4.829929 0.136454 -3.317785
  H 6.864792 0.142064 -1.377432
 29
 51.758315
  C 0.874588 0.164058 0.330277
  C 2.335908 0.088907 0.093955
  C 3.207105 -0.001807 1.345994
  C 2.487285 -0.166562 2.685082
  H 3.232463 -0.221407 3.477902
  C 2.983199 0.166058 -1.137827
  C 2.341212 0.215380 -2.512884
  C 0.829322 0.306406 -2.711593
  C 0.503338 0.293191 -4.203998
  C 4.429899 0.150330 -1.211085
  C 5.179236 0.136741 -2.320724
  O 6.545148 0.146255 -2.319299
  H 0.527825 0.082241 1.341924
  H 1.400071 -0.756450 -0.088880
  H 0.257909 0.762304 -0.306616
  H 3.800260 0.917745 1.398940
  H 3.901396 -0.842343 1.243221
  H 1.900976 -1.086368 2.715630
  H 1.839618 0.681838 2.899563
  H 2.681725 -0.680275 -3.042539
  H 2.781117 1.070422 -3.034881
  H 0.446770 1.239264 -2.287461
  H 0.318149 -0.536465 -2.238885
  H 0.979908 1.131745 -4.707767
  H -0.570354 0.364660 -4.360446
  H 0.856287 -0.626939 -4.665625
  H 4.976307 0.170184 -0.284812
  H 4.810920 0.113569 -3.329103
  H 6.862579 0.172567 -1.406561
 29
 58.332576
  C 0.872942 0.205901 0.305150
  C 2.337277 0.092625 0.081277
  C 3.197375 -0.014298 1.345901
  C 2.477519 -0.187580 2.675509
  H 3.227984 -0.261585 3.476884
  C 2.999854 0.173228 -1.143868
  C 2.352042 0.218282 -2.521520
  C 0.837419 0.306061 -2.696155
  C 0.484323 0.281635 -4.180511
  C 4.437708 0.158482 -1.211214
  C 5.194183 0.135079 -2.317646
  O 6.556450 0.149693 -2.305978
  H 0.517415 0.153864 1.303867
  H 1.484658 -0.736015 -0.063707
  H 0.258480 0.749793 -0.373587
  H 3.792521 0.893938 1.410370
  H 3.880202 -0.850547 1.239185
  H 1.885916 -1.094962 2.692881
  H 1.842685 0.660114 2.899803
  H 2.686396 -0.677403 -3.054801
  H 2.786074 1.071921 -3.054432
  H 0.464438 1.237514 -2.273075
  H 0.338211 -0.533861 -2.208209
  H 0.950140 1.116561 -4.698628
  H -0.590046 0.350619 -4.317212
  H 0.829125 -0.640180 -4.641199
  H 4.978300 0.189861 -0.287504
  H 4.830200 0.097910 -3.337969
  H 6.867107 0.188996 -1.387652
 29
 63.000893
  C 0.875368 0.250021 0.335770
  C 2.332266 0.095943 0.084768
  C 3.205202 -0.024622 1.337198
  C 2.486559 -0.206922 2.674981
  H 3.234702 -0.300520 3.465009
  C 2.991292 0.181417 -1.148798
  C 2.349538 0.222428 -2.524509
  C 0.827432 0.306574 -2.713702
  C 0.483861 0.269129 -4.207841
  C 4.429977 0.164770 -1.209041
  C 5.193238 0.134958 -2.310429
  O 6.556944 0.151815 -2.289648
  H 0.526993 0.209492 1.353094
  H 1.540629 -0.721927 -0.012903
  H 0.247764 0.743731 -0.358469
  H 3.814869 0.888453 1.406439
  H 3.889491 -0.875261 1.213288
  H 1.877524 -1.113626 2.683961
  H 1.859095 0.652351 2.916259
  H 2.688292 -0.674271 -3.051415
  H 2.785361 1.072003 -3.054242
  H 0.446630 1.244682 -2.300110
  H 0.325279 -0.532337 -2.222090
  H 0.953882 1.103700 -4.730777
  H -0.595959 0.335339 -4.354697
  H 0.835941 -0.660317 -4.660837
  H 4.969682 0.203212 -0.276531
  H 4.839013 0.091098 -3.323239
  H 6.859840 0.198050 -1.371081
 29
 66.853204
  C 0.880408 0.297146 0.345030
  C 2.331079 0.093922 0.093332
  C 3.204151 -0.036027 1.342522
  C 2.489433 -0.224973 2.670111
  H 3.233800 -0.335550 3.454329
  C 2.992129 0.186080 -1.145062
  C 2.349045 0.224208 -2.524731
  C 0.830836 0.302443 -2.716144
  C 0.493219 0.255411 -4.200700
  C 4.425666 0.168611 -1.206529
  C 5.187232 0.136831 -2.311513
  O 6.556126 0.157738 -2.295052
  H 0.528490 0.261371 1.337978
  H 1.589029 -0.717985 0.014771
  H 0.240309 0.755659 -0.386471
  H 3.811654 0.863084 1.418846
  H 3.874657 -0.879645 1.212641
  H 1.871137 -1.124224 2.668533
  H 1.874018 0.636756 2.921404
  H 2.691236 -0.674414 -3.052465
  H 2.785840 1.078652 -3.057910
  H 0.444724 1.243980 -2.308700
  H 0.329853 -0.537286 -2.221045
  H 0.958498 1.082615 -4.723452
  H -0.573985 0.316610 -4.348615
  H 0.845978 -0.666993 -4.643312
  H 4.960906 0.212154 -0.288642
  H 4.827846 0.089990 -3.326648
  H 6.860587 0.207229 -1.379172
 29
 69.462788
  C 0.880454 0.351032 0.354546
  C 2.322671 0.092361 0.099814
  C 3.205861 -0.046486 1.345850
  C 2.489212 -0.245268 2.683910
  H 3.241849 -0.375329 3.473427
  C 2.989944 0.194090 -1.156303
  C 2.347295 0.228463 -2.529958
  C 0.839497 0.300912 -2.720841
  C 0.500921 0.240423 -4.211686
  C 4.422906 0.172568 -1.215508
  C 5.184898 0.139424 -2.319572
  O 6.555563 0.163630 -2.301435
  H 0.509113 0.309404 1.363641
  H 1.617797 -0.721991 0.030827
  H 0.245339 0.766273 -0.388327
  H 3.819842 0.852911 1.426758
  H 3.876564 -0.897815 1.203716
  H 1.860861 -1.136755 2.673176
  H 1.882351 0.622123 2.948581
  H 2.691471 -0.672918 -3.057574
  H 2.780641 1.081302 -3.063822
  H 0.454178 1.237151 -2.324297
  H 0.344923 -0.531413 -2.221564
  H 0.968615 1.072082 -4.745663
  H -0.581039 0.298579 -4.361877
  H 0.859894 -0.694131 -4.651022
  H 4.967927 0.220048 -0.279363
  H 4.825245 0.093175 -3.336431
  H 6.857453 0.214082 -1.389640
 29
 70.524279
  C 0.899833 0.441356 0.366249
  C 2.321714 0.093328 0.105108
  C 3.209864 -0.063837 1.347162
  C 2.491279 -0.276868 2.678990
  H 3.232006 -0.436143 3.456828
  C 2.996450 0.211905 -1.160158
  C 2.350364 0.237703 -2.534449
  C 0.834411 0.292649 -2.726076
  C 0.496502 0.209555 -4.208581
  C 4.424098 0.187669 -1.213381
  C 5.193409 0.148040 -2.316539
  O 6.562373 0.164894 -2.290814
  H 0.511878 0.369845 1.357716
  H 1.643305 -0.728365 0.031078
  H 0.257937 0.824596 -0.394737
  H 3.831889 0.831751 1.440480
  H 3.872871 -0.919367 1.190921
  H 1.844338 -1.156969 2.649160
  H 1.901952 0.593836 2.960692
  H 2.702713 -0.658003 -3.059147
  H 2.775466 1.092404 -3.071147
  H 0.437674 1.233386 -2.340727
  H 0.347813 -0.539851 -2.215123
  H 0.952717 1.033283 -4.750067
  H -0.575904 0.254997 -4.357087
  H 0.861501 -0.720781 -4.633151
  H 4.963300 0.232200 -0.280815
  H 4.838827 0.092935 -3.333072
  H 6.859346 0.219174 -1.377270
 29
 69.616720
  C 0.935430 0.566181 0.374818
  C 2.320569 0.098283 0.106568
  C 3.207640 -0.090243 1.352189
  C 2.475816 -0.321783 2.674247
  H 3.203500 -0.517713 3.449173
  C 3.009752 0.228224 -1.166793
  C 2.356988 0.243325 -2.539303
  C 0.839277 0.281186 -2.719216
  C 0.488435 0.163833 -4.197068
  C 4.432203 0.197533 -1.216845
  C 5.205151 0.160995 -2.321645
  O 6.570841 0.185767 -2.292832
  H 0.514044 0.438564 1.344374
  H 1.659920 -0.737340 0.006636
  H 0.300759 0.937905 -0.398535
  H 3.838188 0.795215 1.466812
  H 3.861787 -0.952693 1.180390
  H 1.810581 -1.183020 2.616613
  H 1.905136 0.551539 2.973485
  H 2.712265 -0.651281 -3.060376
  H 2.770964 1.096965 -3.083964
  H 0.437657 1.224109 -2.350766
  H 0.365937 -0.542555 -2.186391
  H 0.934391 0.981883 -4.761134
  H -0.591479 0.198107 -4.337229
  H 0.858409 -0.776309 -4.607070
  H 4.970920 0.244508 -0.284376
  H 4.850906 0.109956 -3.339784
  H 6.866196 0.238385 -1.377766
 29
 67.903808
  C 0.991307 0.729366 0.379283
  C 2.314733 0.113112 0.102215
  C 3.197541 -0.132348 1.340764
  C 2.459060 -0.389932 2.654146
  H 3.179216 -0.642083 3.421412
  C 3.021377 0.252161 -1.176646
  C 2.365109 0.252004 -2.540587
  C 0.844883 0.258727 -2.702126
  C 0.474812 0.093623 -4.174359
  C 4.436070 0.220124 -1.217350
  C 5.218681 0.184510 -2.318186
  O 6.582955 0.209152 -2.279291
  H 0.514142 0.540955 1.316195
  H 1.654263 -0.722804 -0.033161
  H 0.380781 1.122532 -0.408388
  H 3.844165 0.729473 1.482586
  H 3.829647 -1.001917 1.139651
  H 1.767393 -1.221005 2.562407
  H 1.917320 0.491716 2.987750
  H 2.732732 -0.643232 -3.061023
  H 2.759516 1.108691 -3.094165
  H 0.431182 1.201045 -2.354498
  H 0.394043 -0.556847 -2.138284
  H 0.898476 0.901346 -4.766519
  H -0.609231 0.106706 -4.300174
  H 0.853996 -0.851075 -4.563697
  H 4.967407 0.269067 -0.281122
  H 4.871192 0.132208 -3.335015
  H 6.872761 0.260530 -1.362095
 29
 66.636001
  C 1.060921 0.862405 0.396451
  C 2.315998 0.124310 0.097261
  C 3.191699 -0.178627 1.335047
  C 2.429555 -0.451281 2.625280
  H 3.130801 -0.757330 3.397696
  C 3.026299 0.261418 -1.177460
  C 2.360565 0.250017 -2.542658
  C 0.844259 0.227859 -2.690434
  C 0.465235 0.024668 -4.158446
  C 4.439177 0.232021 -1.215735
  C 5.225488 0.201072 -2.317984
  O 6.587201 0.237292 -2.277299
  H 0.541759 0.629995 1.299884
  H 1.657215 -0.697705 -0.064914
  H 0.484651 1.298178 -0.388905
  H 3.865776 0.665664 1.509005
  H 3.798656 -1.058084 1.114344
  H 1.706010 -1.252824 2.494196
  H 1.917145 0.434726 2.977155
  H 2.737327 -0.641884 -3.061369
  H 2.739945 1.113102 -3.106928
  H 0.413965 1.174943 -2.357240
  H 0.410307 -0.586554 -2.100882
  H 0.871726 0.827810 -4.773134
  H -0.616241 0.017761 -4.274632
  H 0.856167 -0.922300 -4.531012
  H 4.969910 0.284504 -0.276006
  H 4.877616 0.150518 -3.335367
  H 6.876711 0.289802 -1.360155
