 23
 0.000000
  C 0.987600 0.149954 0.415896
  C 2.461914 0.133196 0.390135
  C 3.232735 0.600766 1.557260
  H 2.617943 0.934191 2.383658
  C 3.072986 -0.331702 -0.767934
  C 4.449382 -0.412391 -0.976775
  C 5.123343 -0.863413 -2.107455
  C 4.622834 -1.386154 -3.408181
  C 3.133721 -1.505276 -3.694923
  H 2.995878 -1.905885 -4.693086
  O 6.444491 -0.856718 -2.101375
  H 0.585294 0.533387 1.348423
  H 0.594861 -0.855296 0.256185
  H 0.607819 0.762409 -0.403240
  H 3.887658 1.421609 1.258482
  H 3.884064 -0.201024 1.910653
  H 2.412909 -0.647892 -1.556750
  H 5.078662 -0.084316 -0.157993
  H 5.086219 -2.371336 -3.533718
  H 5.081806 -0.758437 -4.180463
  H 2.648769 -0.533173 -3.655305
  H 2.653334 -2.182998 -2.993732
  H 6.837331 -0.524083 -1.272643
 23
 0.972550
  C 1.023651 -0.119042 0.592287
  C 2.464621 0.120496 0.381415
  C 3.199127 0.961811 1.341871
  H 2.647298 1.087886 2.268563
  C 3.053768 -0.427063 -0.752257
  C 4.425252 -0.582241 -0.934787
  C 5.114095 -1.084979 -2.034935
  C 4.639808 -1.371658 -3.416780
  C 3.175665 -1.195540 -3.784616
  H 3.063670 -1.396137 -4.847391
  O 6.408094 -1.317952 -1.930502
  H 0.665939 0.316402 1.519484
  H 0.835951 -1.193606 0.605996
  H 0.437828 0.279755 -0.236572
  H 3.344012 1.951150 0.901919
  H 4.192626 0.578163 1.560923
  H 2.381231 -0.803525 -1.504606
  H 5.048849 -0.350904 -0.078642
  H 4.956249 -2.393399 -3.650535
  H 5.250557 -0.735609 -4.068492
  H 2.838673 -0.179480 -3.602210
  H 2.542599 -1.901904 -3.255227
  H 6.791989 -1.126255 -1.054462
 23
 6.700294
  C 1.135075 -0.390957 0.802059
  C 2.448342 0.129559 0.380857
  C 3.112771 1.184065 1.161271
  H 2.697706 1.283727 2.158851
  C 3.016076 -0.372821 -0.794453
  C 4.352595 -0.722311 -0.905375
  C 5.057974 -1.236769 -1.987119
  C 4.653867 -1.387824 -3.412786
  C 3.251163 -1.003160 -3.854302
  H 3.168932 -1.177157 -4.924817
  O 6.296927 -1.659602 -1.806217
  H 0.841364 -0.011527 1.775002
  H 1.197882 -1.479211 0.838618
  H 0.354696 -0.146091 0.079341
  H 2.963161 2.131576 0.637234
  H 4.190747 1.044516 1.212565
  H 2.343228 -0.552068 -1.617937
  H 4.920469 -0.669633 0.018176
  H 4.846770 -2.431538 -3.681973
  H 5.384692 -0.809496 -3.988610
  H 3.051914 0.049461 -3.674512
  H 2.498773 -1.618191 -3.369696
  H 6.623899 -1.578653 -0.891530
 23
 18.293313
  C 1.319152 -0.547690 0.947277
  C 2.468302 0.182277 0.394309
  C 2.970984 1.407080 1.026758
  H 2.604672 1.531924 2.041840
  C 3.051435 -0.278912 -0.819604
  C 4.301280 -0.845263 -0.882524
  C 5.007808 -1.337892 -1.977613
  C 4.650966 -1.366869 -3.424601
  C 3.310056 -0.821510 -3.891440
  H 3.240871 -0.958543 -4.967473
  O 6.194425 -1.893229 -1.780528
  H 1.054829 -0.197871 1.939535
  H 1.558307 -1.610434 0.976642
  H 0.441983 -0.446147 0.302404
  H 2.628949 2.255528 0.432758
  H 4.060468 1.455544 1.006863
  H 2.447925 -0.170420 -1.709939
  H 4.807835 -0.961969 0.071965
  H 4.744131 -2.411698 -3.739619
  H 5.460435 -0.840894 -3.947047
  H 3.222093 0.242807 -3.692506
  H 2.483684 -1.362293 -3.441775
  H 6.481760 -1.906655 -0.849674
 23
 22.727611
  C 1.557312 -0.679657 1.100543
  C 2.520254 0.189575 0.417095
  C 2.755939 1.562940 0.886074
  H 2.381262 1.708705 1.893395
  C 3.165874 -0.242756 -0.786119
  C 4.284119 -1.038552 -0.849807
  C 4.951753 -1.482642 -1.992223
  C 4.612115 -1.350125 -3.438011
  C 3.334257 -0.651072 -3.875052
  H 3.271226 -0.704257 -4.959883
  O 6.097184 -2.138530 -1.849331
  H 1.287698 -0.304514 2.083099
  H 1.874330 -1.719287 1.161347
  H 0.653056 -0.708830 0.483779
  H 2.257537 2.289130 0.235197
  H 3.815949 1.805018 0.832602
  H 2.731878 0.146280 -1.695817
  H 4.728019 -1.324590 0.096399
  H 4.617740 -2.371598 -3.834681
  H 5.469198 -0.858944 -3.910957
  H 3.341499 0.401496 -3.606075
  H 2.453428 -1.142570 -3.470882
  H 6.373701 -2.262244 -0.923608
 23
 10.222138
  C 1.834937 -0.770230 1.209875
  C 2.600322 0.201287 0.417032
  C 2.542133 1.633444 0.770753
  H 2.157536 1.780520 1.774345
  C 3.279267 -0.175036 -0.750891
  C 4.260123 -1.150085 -0.856830
  C 4.890516 -1.576280 -2.020273
  C 4.553844 -1.333227 -3.452128
  C 3.348079 -0.490575 -3.837560
  H 3.250066 -0.512523 -4.920600
  O 5.957995 -2.354470 -1.926538
  H 1.601886 -0.403518 2.205015
  H 2.285283 -1.758321 1.254235
  H 0.886525 -0.923401 0.684661
  H 1.894072 2.177104 0.078502
  H 3.526465 2.088968 0.677519
  H 3.055171 0.423391 -1.622184
  H 4.619562 -1.577789 0.070882
  H 4.447452 -2.331482 -3.891894
  H 5.452441 -0.915444 -3.918691
  H 3.475257 0.549422 -3.552583
  H 2.431083 -0.889157 -3.413148
  H 6.229282 -2.557640 -1.013043
 23
 2.536575
  C 2.138922 -0.802048 1.322418
  C 2.677193 0.223374 0.416612
  C 2.309422 1.635593 0.650155
  H 1.894910 1.788737 1.645135
  C 3.399658 -0.096464 -0.725583
  C 4.239256 -1.199343 -0.881052
  C 4.825278 -1.651280 -2.057871
  C 4.501307 -1.319464 -3.472341
  C 3.386371 -0.336402 -3.800247
  H 3.227327 -0.345520 -4.877107
  O 5.774021 -2.568086 -1.999690
  H 2.011935 -0.426689 2.335484
  H 2.705369 -1.723856 1.319510
  H 1.138830 -1.064846 0.956172
  H 1.566924 1.951484 -0.077547
  H 3.169401 2.288077 0.504760
  H 3.356587 0.624466 -1.528842
  H 4.508969 -1.733134 0.017404
  H 4.277567 -2.281418 -3.942109
  H 5.432069 -0.990700 -3.943856
  H 3.650519 0.679460 -3.527140
  H 2.453770 -0.618855 -3.321672
  H 6.023074 -2.840740 -1.097875
 23
 1.001766
  C 2.287699 -0.792319 1.331559
  C 2.746012 0.240721 0.390084
  C 2.214905 1.609950 0.557283
  H 1.622172 1.708755 1.461275
  C 3.565060 -0.028496 -0.691979
  C 4.302470 -1.202091 -0.888170
  C 4.822232 -1.668880 -2.088731
  C 4.471073 -1.259903 -3.476786
  C 3.278273 -0.345410 -3.713707
  H 3.033533 -0.363883 -4.773082
  O 5.678658 -2.671388 -2.089786
  H 2.403297 -0.452971 2.359808
  H 2.777587 -1.747897 1.187468
  H 1.215034 -0.940208 1.186074
  H 1.593455 1.877136 -0.297950
  H 3.026449 2.335429 0.574206
  H 3.673248 0.758386 -1.420705
  H 4.544556 -1.786188 -0.007412
  H 4.325183 -2.196508 -4.023454
  H 5.369169 -0.814482 -3.918570
  H 3.495519 0.685795 -3.454099
  H 2.406997 -0.682404 -3.159169
  H 5.969153 -2.965957 -1.206789
 23
 5.809357
  C 2.220394 -0.860331 0.992641
  C 2.801024 0.312357 0.316393
  C 2.304387 1.662639 0.650033
  H 1.636407 1.645190 1.506257
  C 3.731284 0.128647 -0.679500
  C 4.493298 -1.050745 -0.856698
  C 4.897272 -1.604907 -2.057778
  C 4.325985 -1.353398 -3.409092
  C 3.081972 -0.487254 -3.533048
  H 2.732429 -0.526384 -4.562343
  O 5.813248 -2.555060 -2.086842
  H 2.025621 -0.679536 2.045095
  H 2.848934 -1.730257 0.821964
  H 1.261231 -1.095505 0.525266
  H 1.764969 2.084686 -0.198646
  H 3.133336 2.339743 0.848510
  H 3.941280 0.961147 -1.336999
  H 4.948255 -1.456918 0.039778
  H 4.132259 -2.341211 -3.840733
  H 5.130599 -0.930568 -4.021095
  H 3.282176 0.551526 -3.301250
  H 2.284339 -0.849461 -2.890452
  H 6.250515 -2.726694 -1.232965
 23
 16.616551
  C 2.258384 -0.876786 0.690775
  C 2.837633 0.387747 0.220569
  C 2.306090 1.662674 0.717597
  H 1.588300 1.501120 1.529899
  C 3.828269 0.277291 -0.696051
  C 4.555205 -0.952908 -0.827213
  C 4.895401 -1.570346 -1.989982
  C 4.226989 -1.406350 -3.319903
  C 2.958896 -0.591164 -3.394373
  H 2.566510 -0.636825 -4.419696
  O 5.847567 -2.472734 -2.019123
  H 1.941702 -0.886034 1.717480
  H 3.026688 -1.613544 0.408661
  H 1.415958 -1.205750 0.052565
  H 1.812880 2.198671 -0.077727
  H 3.104608 2.314304 1.077551
  H 4.159292 1.124839 -1.279184
  H 5.194782 -1.158550 0.036295
  H 4.044611 -2.413979 -3.710502
  H 4.981481 -0.979316 -3.990854
  H 3.128075 0.457480 -3.173345
  H 2.195327 -0.965039 -2.723488
  H 6.354572 -2.551646 -1.186608
 23
 30.852656
  C 2.372896 -0.894011 0.538481
  C 2.832078 0.447382 0.157078
  C 2.224273 1.673472 0.735457
  H 1.504663 1.426642 1.510284
  C 3.874886 0.418776 -0.708043
  C 4.548093 -0.882117 -0.781027
  C 4.873403 -1.555132 -1.961648
  C 4.172630 -1.425296 -3.268359
  C 2.895177 -0.598744 -3.310106
  H 2.476583 -0.650547 -4.311670
  O 5.814615 -2.475742 -1.981874
  H 2.033333 -1.014350 1.556121
  H 3.348963 -1.463769 0.107490
  H 1.732841 -1.411757 -0.175565
  H 1.702667 2.227712 -0.045001
  H 2.986329 2.330604 1.148470
  H 4.290682 1.282808 -1.199108
  H 5.303517 -0.980858 -0.003995
  H 3.972144 -2.440698 -3.626455
  H 4.900551 -1.014831 -3.977373
  H 3.080604 0.444789 -3.082408
  H 2.152137 -0.986186 -2.620147
  H 6.303339 -2.592377 -1.148046
 23
 40.036458
  C 2.327787 -0.860129 0.512972
  C 2.812679 0.447188 0.151716
  C 2.192112 1.680981 0.720967
  H 1.445893 1.434275 1.470255
  C 3.881828 0.430282 -0.677963
  C 4.541032 -0.906618 -0.736971
  C 4.885546 -1.542560 -1.967248
  C 4.167782 -1.386558 -3.254732
  C 2.861903 -0.605986 -3.249331
  H 2.432217 -0.634145 -4.246983
  O 5.860180 -2.410951 -2.025003
  H 1.939963 -1.004938 1.510742
  H 3.647842 -1.462984 -0.092048
  H 1.831377 -1.465149 -0.232521
  H 1.702225 2.239016 -0.075437
  H 2.944238 2.327722 1.166237
  H 4.320305 1.294228 -1.144970
  H 5.344023 -0.965584 0.003671
  H 3.998783 -2.393974 -3.648985
  H 4.870461 -0.925220 -3.958215
  H 3.013577 0.434033 -2.982601
  H 2.141601 -1.044578 -2.566581
  H 6.364335 -2.541875 -1.198831
 23
 38.020840
  C 2.199990 -0.821026 0.534370
  C 2.781933 0.418790 0.164272
  C 2.213659 1.703134 0.690243
  H 1.432094 1.515955 1.420349
  C 3.882670 0.376108 -0.633434
  C 4.552083 -0.958572 -0.714369
  C 4.921795 -1.521430 -1.991662
  C 4.190034 -1.323158 -3.260060
  C 2.837196 -0.630654 -3.197689
  H 2.403223 -0.614405 -4.194816
  O 5.937034 -2.322852 -2.096681
  H 1.733165 -0.909687 1.503630
  H 3.754067 -1.566336 -0.156286
  H 1.797458 -1.487137 -0.209936
  H 1.780824 2.263331 -0.136359
  H 2.984925 2.319663 1.145748
  H 4.341863 1.245536 -1.071229
  H 5.379748 -0.998702 0.002947
  H 4.084354 -2.308985 -3.723866
  H 4.857910 -0.770289 -3.931788
  H 2.923383 0.393885 -2.855119
  H 2.151841 -1.163205 -2.546603
  H 6.453975 -2.473616 -1.280501
 23
 33.635908
  C 2.058200 -0.783330 0.551068
  C 2.739496 0.379654 0.178424
  C 2.248199 1.718534 0.662192
  H 1.438479 1.604405 1.369910
  C 3.870957 0.299929 -0.590418
  C 4.552953 -1.023093 -0.697968
  C 4.954594 -1.496842 -2.015139
  C 4.207674 -1.258338 -3.268340
  C 2.810366 -0.676195 -3.157406
  H 2.374373 -0.616039 -4.146455
  O 6.018476 -2.213027 -2.163208
  H 1.482750 -0.791285 1.460855
  H 3.819216 -1.703425 -0.209308
  H 1.793366 -1.547139 -0.158254
  H 1.879248 2.285038 -0.188359
  H 3.044509 2.291387 1.127160
  H 4.351428 1.173709 -0.994682
  H 5.400533 -1.040984 -0.000620
  H 4.174102 -2.213241 -3.806684
  H 4.830940 -0.609944 -3.897680
  H 2.822274 0.324981 -2.734045
  H 2.170276 -1.305838 -2.550291
  H 6.545842 -2.387847 -1.355632
 23
 31.920762
  C 1.928120 -0.739408 0.464139
  C 2.680353 0.374522 0.172661
  C 2.314790 1.709643 0.757774
  H 1.494267 1.613413 1.463918
  C 3.832745 0.276825 -0.593131
  C 4.523626 -1.032743 -0.704442
  C 4.991356 -1.437608 -2.028579
  C 4.222496 -1.259206 -3.274739
  C 2.813757 -0.697424 -3.163212
  H 2.347893 -0.711657 -4.143482
  O 6.147242 -1.985151 -2.189864
  H 1.226570 -0.721722 1.276609
  H 3.801418 -1.743027 -0.251013
  H 1.777503 -1.537125 -0.242582
  H 1.999674 2.376698 -0.043708
  H 3.161806 2.166032 1.261145
  H 4.301360 1.152289 -1.005335
  H 5.348432 -1.052029 0.018615
  H 4.185036 -2.242529 -3.754542
  H 4.825611 -0.650301 -3.958315
  H 2.816590 0.330258 -2.810126
  H 2.199576 -1.295398 -2.495331
  H 6.683618 -2.135682 -1.380699
