20
 0
 C -0.71022231 2.67037418 -0.18517220
 C -1.80741088 1.61023884 -0.10297664
 C -2.69315039 1.67035366 -1.34345463
 C -1.21175146 0.21366429 0.06613130
 O 0.00000000 0.00000000 0.00000000
 C -2.16414848 -0.92543322 0.33046887
 H -1.14180054 3.67421389 -0.25654677
 H -0.06876782 2.51366788 -1.05979988
 H -0.07093460 2.64115122 0.70389816
 H -2.41084131 1.81539518 0.78957525
 H -2.13194643 1.40045828 -2.24470734
 H -3.10226248 2.67670345 -1.48236055
 H -3.53834739 0.97910975 -1.26456237
 H -3.17917498 -0.55699163 0.49687235
 H -1.84462896 -1.45912311 1.22932748
 H -2.16475135 -1.60003252 -0.52928229
 O 3.27447389 0.17182589 -0.05419320
 H 3.48209170 1.12934048 0.09464306
 H 3.65198189 -0.15145451 -0.91154596
 H 2.30000000 0.00000000 0.00000000
