 20
 0.000000
  C 1.112046 0.033754 0.058254
  C 2.608320 0.044876 0.035508
  C 3.322299 0.540945 -0.980284
  C 4.760405 0.550408 -0.999658
  C 5.480084 1.048926 -2.020459
  C 6.919007 1.057278 -2.037580
  C 7.636601 1.552313 -3.051272
  C 9.126764 1.570124 -3.087759
  H 0.752618 -0.417843 0.982985
  H 0.715480 -0.547750 -0.773952
  H 0.715474 1.047603 0.005150
  H 3.108886 -0.376131 0.897586
  H 2.811467 0.960176 -1.838752
  H 5.264650 0.129887 -0.138567
  H 4.976422 1.469547 -2.881772
  H 7.425860 0.637261 -1.177516
  H 7.138299 1.974226 -3.915198
  H 9.561548 1.132074 -2.190756
  H 9.485868 2.596757 -3.176296
  H 9.485862 1.008700 -3.951823
 20
 0.395626
  C 1.118836 0.069629 0.077922
  C 2.609632 0.113774 0.079086
  C 3.331122 0.431270 -0.997299
  C 4.768778 0.401577 -1.061071
  C 5.493061 1.029310 -2.003403
  C 6.926312 0.998399 -2.064999
  C 7.648418 1.627373 -2.997310
  C 9.133932 1.608185 -3.073021
  H 0.719593 0.165429 1.084150
  H 0.778626 -0.883027 -0.330696
  H 0.704804 0.860723 -0.541074
  H 3.105307 -0.191168 0.995198
  H 2.804924 0.809709 -1.864446
  H 5.273117 -0.175567 -0.298167
  H 4.987806 1.594554 -2.773258
  H 7.428538 0.422305 -1.297725
  H 7.147031 2.206039 -3.763415
  H 9.558778 1.001156 -2.278076
  H 9.528907 2.620248 -2.992454
  H 9.459046 1.207643 -4.033866
 20
 2.421755
  C 1.130955 0.147830 0.090374
  C 2.622106 0.143398 0.058032
  C 3.328649 0.262892 -1.067369
  C 4.772087 0.263473 -1.124062
  C 5.485064 0.979820 -2.006886
  C 6.920037 0.965414 -2.078326
  C 7.630994 1.680286 -2.952097
  C 9.116255 1.664205 -3.050938
  H 0.762807 0.594465 1.009586
  H 0.755597 -0.876072 0.038321
  H 0.724201 0.698842 -0.754648
  H 3.120171 -0.094878 0.989884
  H 2.814816 0.667279 -1.931453
  H 5.286430 -0.380468 -0.420632
  H 4.971602 1.619175 -2.714579
  H 7.429606 0.311642 -1.380344
  H 7.121308 2.332220 -3.651491
  H 9.550073 0.989861 -2.317408
  H 9.515626 2.665354 -2.888290
  H 9.426843 1.348553 -4.047873
 20
 10.325174
  C 1.159195 0.133796 0.110798
  C 2.647564 0.241456 0.056584
  C 3.315291 0.144970 -1.100559
  C 4.766479 0.156600 -1.179239
  C 5.476035 0.954022 -1.985079
  C 6.916131 0.909841 -2.102230
  C 7.625307 1.711043 -2.899536
  C 9.110897 1.690957 -3.018539
  H 0.753089 0.736220 0.918780
  H 0.868498 -0.903263 0.263765
  H 0.711620 0.475951 -0.827451
  H 3.170714 0.270555 1.009758
  H 2.792316 0.594304 -1.935845
  H 5.281420 -0.601712 -0.593869
  H 4.961874 1.684549 -2.600703
  H 7.427265 0.186715 -1.477666
  H 7.112665 2.438271 -3.523235
  H 9.546426 0.943238 -2.359164
  H 9.523906 2.665441 -2.771375
  H 9.405258 1.462159 -4.047496
 20
 27.504134
  C 1.194260 0.166698 0.059061
  C 2.692271 0.274596 0.042727
  C 3.346087 -0.010616 -1.096693
  C 4.769430 0.039364 -1.174016
  C 5.484422 0.902767 -1.941013
  C 6.914085 0.857320 -2.084222
  C 7.591539 1.724923 -2.833588
  C 9.068441 1.737327 -3.048987
  H 0.756808 0.877410 0.762603
  H 0.912017 -0.862626 0.317483
  H 0.789525 0.376643 -0.927400
  H 3.172419 0.452650 0.990106
  H 2.795439 0.607700 -1.779114
  H 5.297682 -0.751298 -0.636214
  H 4.972292 1.695515 -2.513308
  H 7.418241 0.057837 -1.565561
  H 7.034378 2.489437 -3.347319
  H 9.565562 0.954546 -2.475021
  H 9.486435 2.715880 -2.740464
  H 9.289008 1.599929 -4.089994
 20
 57.625609
  C 1.192708 0.114873 0.070275
  C 2.655533 0.357888 -0.033881
  C 3.354704 -0.120458 -1.137886
  C 4.790022 -0.015125 -1.229032
  C 5.475532 0.901424 -1.931195
  C 6.898273 0.855015 -2.129962
  C 7.593822 1.764291 -2.814766
  C 9.068343 1.717855 -3.027019
  H 0.705296 0.912267 0.616105
  H 1.029855 -0.825949 0.595094
  H 0.734366 0.029509 -0.914282
  H 3.126452 0.759171 0.867899
  H 2.784050 0.730748 -1.590642
  H 5.324027 -0.856596 -0.801284
  H 4.949680 1.738330 -2.376442
  H 7.414936 0.010415 -1.689542
  H 7.082216 2.608737 -3.259472
  H 9.500925 0.833919 -2.564157
  H 9.542548 2.603354 -2.601732
  H 9.299991 1.703626 -4.092666
 20
 74.136063
  C 1.185545 0.095389 0.067828
  C 2.638268 0.405586 -0.152461
  C 3.388784 -0.214470 -1.152492
  C 4.806203 -0.081845 -1.272798
  C 5.479042 0.876776 -1.935233
  C 6.895938 0.843222 -2.166667
  C 7.581392 1.794858 -2.803558
  C 9.055034 1.767394 -3.032332
  H 0.659490 0.931555 0.526002
  H 1.117147 -0.753711 0.746818
  H 0.692428 -0.181874 -0.860130
  H 3.091023 0.973347 0.671545
  H 2.741366 0.833868 -1.379520
  H 5.344360 -0.951102 -0.912627
  H 4.943574 1.735031 -2.326182
  H 7.422262 -0.019443 -1.775138
  H 7.061856 2.657389 -3.199350
  H 9.497446 0.865273 -2.611977
  H 9.529808 2.635771 -2.573726
  H 9.276385 1.800426 -4.100803
 20
 68.727866
  C 1.191313 0.030359 0.072149
  C 2.613305 0.469703 -0.229590
  C 3.408907 -0.244551 -1.157083
  C 4.799052 -0.091995 -1.301371
  C 5.489075 0.888414 -1.917448
  C 6.901744 0.826921 -2.183862
  C 7.598787 1.792048 -2.787417
  C 9.066750 1.741134 -3.044240
  H 0.597729 0.839198 0.505050
  H 1.219981 -0.779546 0.800748
  H 0.702221 -0.343990 -0.823060
  H 3.053511 1.080762 0.566564
  H 2.580794 1.102287 -1.199706
  H 5.319633 -1.001016 -1.012871
  H 4.964817 1.775915 -2.253548
  H 7.414466 -0.067476 -1.846575
  H 7.092886 2.685400 -3.130642
  H 9.493457 0.808949 -2.680741
  H 9.571305 2.573034 -2.549767
  H 9.269513 1.825317 -4.113093
 20
 63.438085
  C 1.213855 -0.114115 0.033904
  C 2.506558 0.629038 -0.288646
  C 3.457175 -0.105277 -1.080251
  C 4.819993 -0.014789 -1.219402
  C 5.551564 0.990035 -1.793146
  C 6.925816 0.849183 -2.173301
  C 7.648661 1.809388 -2.774858
  C 9.091399 1.689397 -3.111910
  H 0.479795 0.549399 0.467737
  H 1.414142 -0.916249 0.742967
  H 0.801133 -0.557619 -0.869232
  H 2.869057 1.232314 0.548740
  H 2.264473 1.390986 -1.076384
  H 5.318356 -0.970199 -1.068239
  H 5.052141 1.915679 -2.051491
  H 7.404312 -0.093473 -1.923360
  H 7.179744 2.747842 -3.035849
  H 9.482587 0.721901 -2.811363
  H 9.668234 2.469971 -2.614311
  H 9.240502 1.808896 -4.183047
 20
 63.738143
  C 1.263327 -0.204732 -0.096552
  C 2.418348 0.772023 -0.357657
  C 3.597861 0.097806 -0.839693
  C 4.904286 0.038787 -0.956055
  C 5.674189 1.083706 -1.500252
  C 6.927333 0.859615 -2.105217
  C 7.631787 1.797864 -2.767700
  C 9.023642 1.609268 -3.259639
  H 0.380469 0.337864 0.232174
  H 1.543783 -0.919871 0.672468
  H 1.017724 -0.751478 -1.003581
  H 2.589394 1.398333 0.532436
  H 2.127435 1.451850 -1.171867
  H 5.383227 -0.935752 -0.913063
  H 5.188357 2.035186 -1.673375
  H 7.373655 -0.117693 -1.958310
  H 7.191954 2.770764 -2.942573
  H 9.383221 0.606018 -3.040914
  H 9.698035 2.330919 -2.794338
  H 9.071468 1.771831 -4.337740
 20
 59.433675
  C 1.343265 0.085665 -0.152308
  C 2.670326 0.700796 -0.608404
  C 3.655221 -0.348132 -0.909988
  C 4.999390 -0.336482 -0.819934
  C 5.633474 0.795055 -1.341085
  C 6.867030 0.737183 -2.033567
  C 7.448434 1.798586 -2.623449
  C 8.800518 1.780360 -3.241579
  H 0.595559 0.862090 -0.010507
  H 1.478775 -0.440616 0.790242
  H 0.982163 -0.622318 -0.892623
  H 3.015377 1.434189 0.135211
  H 2.492731 1.226361 -1.553190
  H 5.558491 -1.263698 -0.760500
  H 5.085379 1.725990 -1.376437
  H 7.387740 -0.213489 -2.029326
  H 6.930562 2.749968 -2.640792
  H 9.242936 0.788188 -3.189031
  H 9.460768 2.486952 -2.736192
  H 8.741356 2.085660 -4.287987
