 26
 0.000000
  C 0.973489 0.135312 0.395990
  C 2.449677 0.140981 0.393168
  C 3.233719 0.610578 1.560848
  C 2.455050 1.096721 2.778172
  H 3.132814 1.411830 3.560007
  C 3.072783 -0.322226 -0.760009
  C 4.450804 -0.409667 -0.968862
  C 5.121176 -0.864900 -2.097800
  C 4.621175 -1.386018 -3.399201
  C 3.131551 -1.498954 -3.691809
  H 2.981259 -1.897654 -4.686160
  O 6.444068 -0.866078 -2.091288
  H 0.541149 0.497069 1.321649
  H 0.608261 -0.877983 0.223639
  H 0.589750 0.751727 -0.418619
  H 3.888794 1.423076 1.226991
  H 3.892739 -0.204752 1.879489
  H 1.822323 0.302033 3.169936
  H 1.818257 1.939183 2.513462
  H 2.417926 -0.641002 -1.552512
  H 5.074955 -0.079151 -0.147300
  H 5.076149 -2.375122 -3.524227
  H 5.081115 -0.760493 -4.172620
  H 2.656236 -0.521500 -3.645002
  H 2.651230 -2.170264 -2.983182
  H 6.827720 -0.533386 -1.258316
 26
 0.103958
  C 0.984087 0.442061 0.304145
  C 2.438849 0.211338 0.358896
  C 3.218921 0.419762 1.602707
  C 2.451007 0.881050 2.833050
  H 3.138269 0.973283 3.671751
  C 3.047869 -0.220999 -0.815747
  C 4.422771 -0.280215 -1.030695
  C 5.108365 -0.708615 -2.162470
  C 4.625288 -1.426475 -3.373763
  C 3.154126 -1.768077 -3.543291
  H 3.042872 -2.353451 -4.451884
  O 6.412164 -0.524249 -2.227040
  H 0.582739 0.849974 1.219603
  H 0.462846 -0.491636 0.074402
  H 0.762431 1.119371 -0.521882
  H 4.012405 1.145099 1.398169
  H 3.730746 -0.518016 1.840718
  H 1.679667 0.163737 3.114199
  H 1.989448 1.856009 2.673596
  H 2.387595 -0.476617 -1.623695
  H 5.052036 0.114231 -0.241965
  H 5.212589 -2.350626 -3.413652
  H 4.966492 -0.843973 -4.235666
  H 2.546193 -0.874165 -3.659328
  H 2.786026 -2.369426 -2.715154
  H 6.802595 -0.070374 -1.449819
 26
 2.128712
  C 1.035730 0.703143 0.248608
  C 2.424257 0.216125 0.348115
  C 3.165655 0.205726 1.630029
  C 2.453846 0.773788 2.849083
  H 3.097426 0.677097 3.717080
  C 3.024182 -0.224801 -0.830018
  C 4.390421 -0.197787 -1.084780
  C 5.078656 -0.589512 -2.228145
  C 4.634033 -1.448757 -3.361962
  C 3.210958 -1.981284 -3.405741
  H 3.124596 -2.658175 -4.249327
  O 6.340390 -0.230393 -2.377724
  H 0.659319 1.106096 1.185359
  H 0.369289 -0.090523 -0.089941
  H 1.001026 1.480410 -0.519505
  H 4.119897 0.737723 1.496977
  H 3.447361 -0.831189 1.836527
  H 1.532493 0.235520 3.061458
  H 2.225934 1.830436 2.718743
  H 2.354614 -0.505946 -1.627419
  H 5.002470 0.292286 -0.335748
  H 5.333823 -2.295878 -3.370036
  H 4.850669 -0.899257 -4.284055
  H 2.489366 -1.183071 -3.560069
  H 2.965608 -2.538788 -2.503113
  H 6.701403 0.309280 -1.651209
 26
 5.997632
  C 1.120405 0.895230 0.216083
  C 2.410235 0.198838 0.360448
  C 3.110388 0.069754 1.656696
  C 2.467771 0.734567 2.865427
  H 3.057281 0.516463 3.751658
  C 2.996668 -0.297845 -0.809930
  C 4.337776 -0.156211 -1.123368
  C 5.028054 -0.529529 -2.270739
  C 4.631161 -1.460254 -3.363943
  C 3.266025 -2.125211 -3.337034
  H 3.203843 -2.815779 -4.173915
  O 6.239729 -0.049009 -2.480707
  H 0.780338 1.343264 1.140351
  H 0.344181 0.230019 -0.164094
  H 1.262021 1.670540 -0.538553
  H 4.139281 0.432792 1.546374
  H 3.218776 -1.003464 1.855474
  H 1.462590 0.359777 3.039049
  H 2.427965 1.815084 2.748274
  H 2.319676 -0.685522 -1.555044
  H 4.920801 0.425353 -0.416728
  H 5.407141 -2.234959 -3.378246
  H 4.757393 -0.918650 -4.306686
  H 2.467419 -1.400964 -3.459910
  H 3.118904 -2.694002 -2.423569
  H 6.565123 0.551716 -1.783853
 26
 10.083172
  C 1.207177 1.066766 0.208240
  C 2.424823 0.254567 0.348606
  C 3.094758 0.019884 1.645652
  C 2.460263 0.646352 2.876747
  H 3.010144 0.337990 3.761215
  C 2.983459 -0.286768 -0.823613
  C 4.293697 -0.075332 -1.194496
  C 4.996091 -0.506661 -2.313295
  C 4.623752 -1.514232 -3.345921
  C 3.279096 -2.218562 -3.264304
  H 3.218381 -2.939923 -4.077078
  O 6.201944 -0.013669 -2.550445
  H 0.975172 1.616526 1.112947
  H 0.341424 0.457853 -0.054185
  H 1.373407 1.761023 -0.619491
  H 4.142432 0.334173 1.568592
  H 3.148083 -1.067210 1.782719
  H 1.429681 0.325056 2.998566
  H 2.489529 1.731494 2.828460
  H 2.302515 -0.783494 -1.495555
  H 4.838863 0.609112 -0.552537
  H 5.423565 -2.261495 -3.326203
  H 4.720081 -1.022443 -4.319289
  H 2.454851 -1.520113 -3.391431
  H 3.171517 -2.762985 -2.326697
  H 6.493984 0.660062 -1.910295
 26
 17.439104
  C 1.367938 1.280217 0.212682
  C 2.468016 0.315887 0.358801
  C 3.007011 -0.112762 1.663490
  C 2.431453 0.560417 2.900587
  H 2.910345 0.155275 3.785736
  C 3.001063 -0.265455 -0.829662
  C 4.264379 0.017989 -1.288042
  C 4.950221 -0.453549 -2.403359
  C 4.610715 -1.560665 -3.342567
  C 3.313199 -2.332231 -3.164960
  H 3.273210 -3.113573 -3.917120
  O 6.096135 0.117219 -2.745000
  H 1.229273 1.878747 1.108114
  H 0.423370 0.773884 -0.000393
  H 1.584981 1.921751 -0.642280
  H 4.099404 0.008467 1.649418
  H 2.856574 -1.197714 1.734488
  H 1.363657 0.380113 2.987839
  H 2.609404 1.631327 2.888925
  H 2.342862 -0.917968 -1.379438
  H 4.789627 0.784462 -0.728683
  H 5.455459 -2.256378 -3.301377
  H 4.644139 -1.135478 -4.350846
  H 2.448462 -1.694510 -3.316076
  H 3.266013 -2.809730 -2.191090
  H 6.380230 0.833623 -2.148781
 26
 26.294992
  C 1.603754 1.441696 0.212800
  C 2.542760 0.336502 0.399098
  C 2.939314 -0.190477 1.713103
  C 2.344979 0.493709 2.936751
  H 2.702340 -0.000540 3.835168
  C 3.090187 -0.307144 -0.780694
  C 4.254297 0.090688 -1.372323
  C 4.898604 -0.425257 -2.504165
  C 4.547291 -1.580771 -3.377826
  C 3.295676 -2.397630 -3.096260
  H 3.234375 -3.196030 -3.832742
  O 6.021292 0.150443 -2.920646
  H 1.472690 2.032879 1.112385
  H 0.625366 1.037039 -0.063792
  H 1.907929 2.070944 -0.625314
  H 4.035388 -0.170817 1.767815
  H 2.691446 -1.259333 1.736054
  H 1.260005 0.436627 2.933180
  H 2.643996 1.537748 2.992570
  H 2.506003 -1.121140 -1.182315
  H 4.758926 0.933656 -0.908757
  H 5.419368 -2.243554 -3.367385
  H 4.502460 -1.189484 -4.400064
  H 2.397970 -1.794933 -3.194353
  H 3.337061 -2.861187 -2.114731
  H 6.305013 0.908532 -2.379555
 26
 17.176783
  C 1.910355 1.605162 0.250369
  C 2.652450 0.350378 0.413526
  C 2.827924 -0.307413 1.725127
  C 2.226594 0.397003 2.932037
  H 2.416721 -0.193498 3.823707
  C 3.195487 -0.301129 -0.731012
  C 4.276915 0.160304 -1.452690
  C 4.844541 -0.389648 -2.596986
  C 4.480988 -1.602109 -3.387204
  C 3.283465 -2.453335 -2.998186
  H 3.226617 -3.295104 -3.684221
  O 5.900694 0.206082 -3.137195
  H 1.816059 2.165624 1.174041
  H 0.900566 1.334100 -0.075136
  H 2.302965 2.230659 -0.550102
  H 3.904143 -0.447752 1.875508
  H 2.426193 -1.328056 1.664566
  H 1.152312 0.508872 2.829028
  H 2.672348 1.379006 3.085058
  H 2.715168 -1.226368 -1.009283
  H 4.771434 1.046029 -1.067203
  H 5.376736 -2.232995 -3.403663
  H 4.357221 -1.257169 -4.420302
  H 2.351356 -1.894617 -3.085278
  H 3.390692 -2.858866 -1.999269
  H 6.215331 0.986079 -2.646236
 26
 9.099202
  C 2.154482 1.659907 0.265145
  C 2.804894 0.354949 0.438576
  C 2.774789 -0.353314 1.738991
  C 2.079434 0.357626 2.891918
  H 2.118641 -0.270385 3.778469
  C 3.343541 -0.324171 -0.668104
  C 4.300076 0.201811 -1.521223
  C 4.829852 -0.376539 -2.665126
  C 4.418431 -1.592599 -3.423172
  C 3.267392 -2.460589 -2.937595
  H 3.107083 -3.253157 -3.666525
  O 5.873216 0.192723 -3.247909
  H 2.143808 2.254654 1.170839
  H 1.112383 1.447937 0.009461
  H 2.544285 2.234563 -0.579322
  H 3.807879 -0.575509 2.016249
  H 2.309246 -1.337387 1.589854
  H 1.033246 0.552080 2.662793
  H 2.568044 1.297426 3.135541
  H 3.015217 -1.342407 -0.807160
  H 4.726552 1.157207 -1.223595
  H 5.318068 -2.209560 -3.524343
  H 4.202452 -1.242413 -4.438431
  H 2.343790 -1.892465 -2.859922
  H 3.499663 -2.938769 -1.992879
  H 6.173760 1.013200 -2.819025
 26
 4.929640
  C 2.365064 1.652030 0.273449
  C 2.850510 0.282596 0.485332
  C 2.690775 -0.410070 1.784410
  C 1.979301 0.364390 2.884425
  H 1.897233 -0.259303 3.770744
  C 3.436384 -0.404944 -0.578009
  C 4.310155 0.174774 -1.496644
  C 4.789035 -0.362647 -2.684542
  C 4.358707 -1.574469 -3.437764
  C 3.255922 -2.469419 -2.895636
  H 3.073739 -3.262166 -3.617557
  O 5.746464 0.271454 -3.340222
  H 2.346715 2.249689 1.177832
  H 1.331708 1.573753 -0.079148
  H 2.900607 2.141365 -0.535602
  H 3.688809 -0.702705 2.128654
  H 2.163920 -1.356212 1.614029
  H 0.975981 0.649680 2.579984
  H 2.530500 1.259089 3.163635
  H 3.215878 -1.456949 -0.661109
  H 4.712253 1.144599 -1.226545
  H 5.260320 -2.172234 -3.609121
  H 4.070860 -1.209914 -4.430395
  H 2.327735 -1.921320 -2.761607
  H 3.547902 -2.946842 -1.965050
  H 6.075237 1.075271 -2.897951
 26
 4.373970
  C 2.491981 1.568705 0.213597
  C 2.947109 0.205041 0.524080
  C 2.653492 -0.448684 1.822123
  C 1.838234 0.368991 2.814281
  H 1.632726 -0.229061 3.698911
  C 3.657411 -0.481645 -0.451201
  C 4.417816 0.151349 -1.454059
  C 4.832175 -0.369220 -2.684704
  C 4.276706 -1.529816 -3.443288
  C 3.204057 -2.401178 -2.808734
  H 2.853723 -3.113799 -3.551493
  O 5.747532 0.273475 -3.403119
  H 2.436002 2.219882 1.078560
  H 1.480834 1.497105 -0.198734
  H 3.103630 1.965186 -0.594934
  H 3.607097 -0.736940 2.278433
  H 2.134803 -1.394540 1.625788
  H 0.887129 0.673677 2.385418
  H 2.378532 1.256489 3.135949
  H 3.638436 -1.559899 -0.423665
  H 4.850160 1.112208 -1.190523
  H 5.124822 -2.151640 -3.748140
  H 3.889865 -1.104860 -4.377037
  H 2.353962 -1.809394 -2.481741
  H 3.595439 -2.974442 -1.974074
  H 6.137952 1.052395 -2.963763
