 20
 0.000000
  C 1.010909 0.114982 0.337069
  C 2.487117 0.117985 0.345652
  C 3.212465 0.597266 1.537712
  H 2.545532 0.915836 2.329660
  C 3.146292 -0.337895 -0.788178
  C 4.528916 -0.400363 -0.944407
  C 5.189357 -0.855632 -2.080822
  C 4.548169 -1.350872 -3.315775
  H 3.468560 -1.344739 -3.300053
  O 6.501435 -0.876036 -2.134098
  H 0.589420 0.488279 1.265015
  H 0.636984 -0.895140 0.161751
  H 0.637575 0.722943 -0.488720
  H 3.863892 1.431097 1.271284
  H 3.863737 -0.188914 1.922834
  H 2.526395 -0.667407 -1.608585
  H 5.141324 -0.068165 -0.116840
  H 4.905961 -2.363220 -3.509129
  H 4.905736 -0.752358 -4.154947
  H 6.946332 -0.552962 -1.329114
 20
 7.640754
  C 1.031149 0.137884 0.386455
  C 2.492647 0.122729 0.359446
  C 3.238351 0.590367 1.528232
  H 2.566454 0.909907 2.320314
  C 3.128201 -0.353780 -0.824278
  C 4.465667 -0.434358 -1.025172
  C 5.209861 -0.867576 -2.112395
  C 4.614809 -1.372591 -3.363081
  H 3.529948 -1.367746 -3.339800
  O 6.518898 -0.852560 -2.092551
  H 0.638912 0.515814 1.325171
  H 0.640323 -0.867081 0.213614
  H 0.645370 0.747029 -0.433787
  H 3.885760 1.430759 1.266920
  H 3.882136 -0.199844 1.921588
  H 2.446115 -0.666867 -1.606944
  H 4.825172 -0.065706 -0.104262
  H 4.975247 -2.383974 -3.549068
  H 4.968873 -0.768889 -4.198330
  H 6.915803 -0.513928 -1.259834
 20
 24.419501
  C 1.029502 0.147523 0.411721
  C 2.497400 0.125813 0.365447
  C 3.270216 0.590774 1.529433
  H 2.610697 0.911033 2.327586
  C 3.111320 -0.356845 -0.836392
  C 4.436148 -0.451265 -1.072075
  C 5.223433 -0.872000 -2.125241
  C 4.659656 -1.384280 -3.391340
  H 3.577624 -1.384213 -3.383267
  O 6.531873 -0.841162 -2.062551
  H 0.652933 0.525636 1.353831
  H 0.631689 -0.853486 0.243267
  H 0.635342 0.757365 -0.401604
  H 3.913717 1.432391 1.266410
  H 3.911816 -0.201290 1.920086
  H 2.374419 -0.656862 -1.585366
  H 4.562969 -0.064172 -0.107345
  H 5.027780 -2.394513 -3.568991
  H 5.023371 -0.778716 -4.221108
  H 6.890464 -0.502979 -1.226517
 20
 44.005082
  C 1.029277 0.151670 0.423109
  C 2.500348 0.131471 0.378600
  C 3.275248 0.595685 1.542006
  H 2.612764 0.916332 2.344168
  C 3.119334 -0.354695 -0.834423
  C 4.442165 -0.458758 -1.093631
  C 5.234956 -0.876566 -2.137424
  C 4.676855 -1.390632 -3.406091
  H 3.597277 -1.390096 -3.399378
  O 6.543148 -0.843516 -2.067368
  H 0.652266 0.528121 1.363027
  H 0.631557 -0.848103 0.254778
  H 0.634299 0.761040 -0.388455
  H 3.922035 1.437678 1.281486
  H 3.921380 -0.194717 1.933099
  H 2.350665 -0.648148 -1.567878
  H 4.386141 -0.068960 -0.122680
  H 5.045251 -2.398188 -3.582179
  H 5.042438 -0.787894 -4.233685
  H 6.894889 -0.502110 -1.221812
 20
 63.558703
  C 1.024650 0.154906 0.431680
  C 2.496664 0.139564 0.397385
  C 3.262204 0.600190 1.555128
  H 2.596121 0.919167 2.358431
  C 3.137860 -0.347547 -0.822851
  C 4.468382 -0.460256 -1.100573
  C 5.248414 -0.881159 -2.149796
  C 4.681779 -1.393473 -3.409779
  H 3.607105 -1.388379 -3.393347
  O 6.562618 -0.852953 -2.091969
  H 0.638966 0.530775 1.373778
  H 0.630212 -0.846554 0.259483
  H 0.632172 0.764173 -0.382119
  H 3.907916 1.441107 1.296854
  H 3.909042 -0.187797 1.944158
  H 2.359811 -0.638668 -1.553423
  H 4.266162 -0.072243 -0.134740
  H 5.044244 -2.401092 -3.586036
  H 5.042361 -0.793152 -4.239127
  H 6.920662 -0.514618 -1.253969
 20
 80.844013
  C 1.027042 0.148889 0.412226
  C 2.496791 0.140763 0.399386
  C 3.263112 0.609485 1.586823
  H 2.596884 0.922119 2.379360
  C 3.144531 -0.337033 -0.804513
  C 4.483948 -0.459233 -1.099848
  C 5.249015 -0.884172 -2.159130
  C 4.676616 -1.395203 -3.403756
  H 3.588635 -1.387474 -3.373337
  O 6.564824 -0.858404 -2.117693
  H 0.634131 0.516242 1.338399
  H 0.638459 -0.851430 0.234185
  H 0.641503 0.758404 -0.402889
  H 3.907971 1.448338 1.338542
  H 3.908536 -0.172543 1.977630
  H 2.361864 -0.622486 -1.527727
  H 4.163826 -0.077921 -0.150343
  H 5.034487 -2.399056 -3.578805
  H 5.028160 -0.797931 -4.232051
  H 6.934291 -0.516274 -1.280068
 20
 94.250613
  C 1.020342 0.168060 0.403100
  C 2.494717 0.152026 0.416114
  C 3.238229 0.590148 1.619282
  H 2.552718 0.891398 2.419716
  C 3.168927 -0.303227 -0.789840
  C 4.522169 -0.451922 -1.091633
  C 5.259749 -0.879921 -2.169419
  C 4.667525 -1.437956 -3.402603
  H 3.586227 -1.457157 -3.350611
  O 6.570811 -0.822389 -2.165539
  H 0.605873 0.525146 1.353349
  H 0.629461 -0.826144 0.198858
  H 0.650976 0.800084 -0.399867
  H 3.895101 1.434302 1.397437
  H 3.879574 -0.209810 1.997929
  H 2.392758 -0.568318 -1.532931
  H 4.109221 -0.075378 -0.148858
  H 5.052075 -2.445270 -3.575688
  H 4.991860 -0.837295 -4.255210
  H 6.951257 -0.447887 -1.345925
 20
 99.521732
  C 1.004869 0.238667 0.381879
  C 2.483870 0.175123 0.429321
  C 3.216540 0.489077 1.680910
  H 2.530296 0.737241 2.481970
  C 3.176340 -0.197283 -0.794477
  C 4.542294 -0.408307 -1.130761
  C 5.259021 -0.848023 -2.188487
  C 4.669121 -1.578947 -3.345456
  H 3.602477 -1.694365 -3.241193
  O 6.575488 -0.674811 -2.273877
  H 0.584234 0.520969 1.339850
  H 0.589967 -0.724764 0.081225
  H 0.668842 0.952863 -0.369487
  H 3.899146 1.332600 1.550917
  H 3.826411 -0.361260 1.996963
  H 2.421734 -0.346999 -1.592267
  H 4.068584 -0.057750 -0.147945
  H 5.136659 -2.556739 -3.463789
  H 4.902213 -1.010080 -4.247192
  H 6.958386 -0.187773 -1.522935
 20
 103.172295
  C 1.002643 0.324994 0.355057
  C 2.479014 0.189003 0.439674
  C 3.167585 0.342810 1.749726
  H 2.451655 0.534499 2.546721
  C 3.205267 -0.068414 -0.793838
  C 4.554798 -0.336023 -1.212690
  C 5.262853 -0.803193 -2.234091
  C 4.691146 -1.730879 -3.254689
  H 3.645913 -1.946784 -3.063759
  O 6.539037 -0.514554 -2.453268
  H 0.568958 0.524276 1.325155
  H 0.553234 -0.580179 -0.046609
  H 0.722781 1.129622 -0.315409
  H 3.879484 1.174725 1.736650
  H 3.730973 -0.561157 2.006785
  H 2.483124 -0.110949 -1.627989
  H 4.062339 -0.013478 -0.162834
  H 5.259222 -2.654880 -3.277428
  H 4.805627 -1.253591 -4.220333
  H 6.918385 0.097209 -1.794832
 20
 105.770936
  C 0.995606 0.414570 0.352688
  C 2.462386 0.203248 0.461511
  C 3.138339 0.199531 1.792077
  H 2.419200 0.339740 2.594903
  C 3.204039 0.038502 -0.785157
  C 4.519937 -0.287408 -1.285524
  C 5.239525 -0.775474 -2.281142
  C 4.742014 -1.873090 -3.174780
  H 3.736631 -2.178879 -2.917297
  O 6.483284 -0.380980 -2.581588
  H 0.544314 0.537648 1.327203
  H 0.518052 -0.427945 -0.145785
  H 0.768470 1.294666 -0.243918
  H 3.880221 1.002538 1.869643
  H 3.665742 -0.744962 1.969626
  H 2.508415 0.090249 -1.618041
  H 4.030553 0.039589 -0.154791
  H 5.413566 -2.726690 -3.118405
  H 4.769352 -1.496256 -4.193855
  H 6.807181 0.336822 -2.015580
 20
 108.836141
  C 1.012965 0.468066 0.358696
  C 2.459739 0.196789 0.480206
  C 3.105650 0.083549 1.809600
  H 2.375775 0.191894 2.605158
  C 3.215262 0.098750 -0.770595
  C 4.490011 -0.249875 -1.340840
  C 5.217442 -0.756091 -2.307721
  C 4.777310 -1.962624 -3.089417
  H 3.806273 -2.315403 -2.770647
  O 6.423965 -0.296040 -2.691930
  H 0.547327 0.546315 1.334440
  H 0.512854 -0.321926 -0.200016
  H 0.828651 1.392668 -0.184673
  H 3.868450 0.850783 1.959156
  H 3.598041 -0.882963 1.932527
  H 2.519693 0.200639 -1.614374
  H 4.003882 0.086094 -0.126967
  H 5.513498 -2.753307 -2.979648
  H 4.745094 -1.680800 -4.138663
  H 6.713912 0.492420 -2.195049
 20
 109.619512
  C 1.028252 0.560120 0.379956
  C 2.446712 0.189120 0.499604
  C 3.069430 -0.080276 1.827206
  H 2.328128 -0.007796 2.623041
  C 3.223025 0.172500 -0.774610
  C 4.428052 -0.201938 -1.426574
  C 5.185114 -0.731752 -2.354496
  C 4.863262 -2.071985 -2.970117
  H 3.941975 -2.488390 -2.569028
  O 6.312194 -0.193765 -2.845335
  H 0.551630 0.585153 1.355294
  H 0.489694 -0.149285 -0.252209
  H 0.909967 1.540159 -0.086155
  H 3.871214 0.628407 2.063223
  H 3.505787 -1.080825 1.866284
  H 2.541163 0.333780 -1.609276
  H 3.968866 0.131876 -0.081008
  H 5.687401 -2.754963 -2.790240
  H 4.771928 -1.931546 -4.046413
  H 6.523670 0.659149 -2.451423
 20
 111.065787
  C 1.033335 0.606076 0.425629
  C 2.443845 0.168810 0.532359
  C 3.050232 -0.182522 1.835317
  H 2.308610 -0.123741 2.628154
  C 3.214462 0.184587 -0.754468
  C 4.378606 -0.210187 -1.474036
  C 5.163846 -0.738817 -2.371033
  C 4.929154 -2.135780 -2.883914
  H 4.050835 -2.581943 -2.436631
  O 6.251526 -0.150164 -2.933434
  H 0.555009 0.607264 1.399088
  H 0.469124 -0.048926 -0.236811
  H 0.952941 1.604894 0.005987
  H 3.874534 0.479161 2.112953
  H 3.451550 -1.201920 1.823543
  H 2.554680 0.372111 -1.603718
  H 3.929700 0.154237 -0.042981
  H 5.805842 -2.741710 -2.667981
  H 4.810706 -2.086493 -3.963293
  H 6.404114 0.746577 -2.606981
 20
 112.069806
  C 1.044600 0.630809 0.464955
  C 2.443095 0.152390 0.578199
  C 3.026180 -0.271988 1.867635
  H 2.279086 -0.235238 2.649133
  C 3.234396 0.178048 -0.718293
  C 4.364692 -0.234216 -1.481131
  C 5.143325 -0.752988 -2.385646
  C 4.996083 -2.194547 -2.802951
  H 4.181827 -2.678710 -2.278508
  O 6.167333 -0.127448 -3.019234
  H 0.543556 0.595048 1.435481
  H 0.476595 0.019571 -0.247728
  H 0.995953 1.655605 0.094614
  H 3.863775 0.359385 2.186858
  H 3.405070 -1.293455 1.811632
  H 2.618999 0.437730 -1.575591
  H 3.919884 0.174579 0.000553
  H 5.924690 -2.709114 -2.600408
  H 4.817170 -2.225718 -3.874462
  H 6.241393 0.805009 -2.775535
