 17
 0.000000
  C 1.029277 0.126071 0.337451
  C 2.500641 0.160867 0.393091
  C 3.191386 0.630502 1.603562
  H 2.490967 0.925574 2.377951
  C 3.188140 -0.273203 -0.731523
  C 4.575344 -0.347626 -0.891364
  C 5.136218 -0.840738 -2.051570
  H 4.508028 -1.185646 -2.870051
  O 6.403492 -0.953654 -2.299927
  H 0.566922 0.465971 1.257606
  H 0.689637 -0.889958 0.114691
  H 0.671002 0.738159 -0.491295
  H 3.838734 1.476058 1.369114
  H 3.846379 -0.148405 1.995323
  H 2.585632 -0.605147 -1.567980
  H 5.225016 -0.014113 -0.094340
  H 6.994639 -0.647977 -1.576493
 17
 0.420651
  C 1.029772 0.124355 0.354950
  C 2.494205 0.217963 0.361569
  C 3.197540 0.629529 1.588191
  H 2.504243 0.926569 2.367304
  C 3.175227 -0.193210 -0.783498
  C 4.557748 -0.343667 -0.900110
  C 5.134290 -0.792405 -2.068867
  H 4.523601 -1.026059 -2.934565
  O 6.400169 -0.986786 -2.270337
  H 0.563061 0.624447 1.193141
  H 0.815004 -0.952756 0.429670
  H 0.598497 0.437553 -0.590824
  H 3.872412 1.461605 1.381119
  H 3.819423 -0.185362 1.964925
  H 2.580152 -0.430430 -1.652352
  H 5.192343 -0.113611 -0.055462
  H 6.974986 -0.778836 -1.504146
 17
 7.640829
  C 1.032491 0.186843 0.348553
  C 2.493873 0.255920 0.358968
  C 3.195652 0.636332 1.588173
  H 2.501838 0.795791 2.409154
  C 3.168907 -0.114560 -0.812273
  C 4.534331 -0.347396 -0.908926
  C 5.114168 -0.784884 -2.087187
  H 4.528275 -0.949622 -2.960841
  O 6.367584 -1.062443 -2.263148
  H 0.497697 0.605288 1.188307
  H 1.120771 -0.912945 0.515654
  H 0.538394 0.275883 -0.615404
  H 3.745421 1.562073 1.415818
  H 3.921394 -0.120537 1.883615
  H 2.575196 -0.259544 -1.705407
  H 5.155927 -0.250767 -0.022119
  H 6.946563 -0.900346 -1.454074
 17
 25.112732
  C 1.010205 0.277149 0.369576
  C 2.431319 0.155938 0.357448
  C 3.206717 0.606128 1.550985
  H 2.542500 0.922240 2.348030
  C 3.108264 -0.222364 -0.818677
  C 4.485535 -0.424809 -0.898615
  C 5.114771 -0.739727 -2.080577
  H 4.567480 -0.775799 -3.015568
  O 6.404051 -0.889156 -2.246174
  H 0.504563 0.712869 1.213936
  H 1.379978 -0.880720 0.600394
  H 0.477512 0.258084 -0.568729
  H 3.835844 1.445510 1.270244
  H 3.852684 -0.184553 1.936169
  H 2.540010 -0.398873 -1.724776
  H 5.089170 -0.330901 -0.008317
  H 6.908964 -0.922017 -1.416539
 17
 39.701831
  C 0.985253 0.386227 0.346022
  C 2.389691 0.123061 0.372322
  C 3.195474 0.564848 1.572627
  H 2.546235 0.840119 2.393197
  C 3.098143 -0.224106 -0.820815
  C 4.472091 -0.412068 -0.907353
  C 5.088134 -0.765700 -2.086122
  H 4.509016 -0.954008 -2.981482
  O 6.379511 -0.923632 -2.264233
  H 0.483935 0.823003 1.189840
  H 1.749025 -0.875460 0.593463
  H 0.415071 0.257639 -0.565425
  H 3.808612 1.422189 1.305243
  H 3.848026 -0.231926 1.920925
  H 2.516157 -0.386612 -1.719283
  H 5.096667 -0.275034 -0.043397
  H 6.914650 -0.767779 -1.454494
 17
 40.628887
  C 0.997168 0.478591 0.324681
  C 2.364945 0.051937 0.423412
  C 3.169864 0.556178 1.610839
  H 2.512175 0.792118 2.440902
  C 3.091043 -0.257665 -0.817985
  C 4.453980 -0.435659 -0.910835
  C 5.056052 -0.774180 -2.107011
  H 4.467487 -0.936338 -3.001902
  O 6.335252 -0.913604 -2.307357
  H 0.507204 0.957637 1.151190
  H 2.120458 -1.045071 0.559885
  H 0.425562 0.286593 -0.565295
  H 3.702741 1.461927 1.331727
  H 3.891978 -0.180142 1.951931
  H 2.490555 -0.405401 -1.705120
  H 5.077100 -0.281009 -0.041934
  H 6.883045 -0.763279 -1.511951
 17
 43.167959
  C 0.987363 0.466079 0.374048
  C 2.341060 0.112587 0.436712
  C 3.157815 0.571650 1.623446
  H 2.507748 0.864811 2.441853
  C 3.050645 -0.280457 -0.799150
  C 4.431764 -0.453237 -0.900042
  C 5.026718 -0.771569 -2.093911
  H 4.439007 -0.929816 -2.990515
  O 6.309922 -0.905695 -2.302045
  H 0.507757 0.965966 1.194055
  H 2.381530 -1.065264 0.289440
  H 0.387929 0.245049 -0.490445
  H 3.754724 1.435509 1.342190
  H 3.824609 -0.205307 1.984449
  H 2.454189 -0.407619 -1.690599
  H 5.052216 -0.297420 -0.029236
  H 6.856991 -0.756250 -1.507535
 17
 36.257207
  C 1.008001 0.495328 0.393088
  C 2.334471 0.189791 0.450686
  C 3.176256 0.595249 1.621596
  H 2.557513 0.990662 2.418612
  C 3.005880 -0.369045 -0.757412
  C 4.415215 -0.524072 -0.881025
  C 5.008769 -0.715014 -2.091851
  H 4.420972 -0.825036 -2.996718
  O 6.297383 -0.833376 -2.311222
  H 0.513036 0.987585 1.210992
  H 2.566749 -1.179089 0.018783
  H 0.395193 0.227736 -0.446461
  H 3.875192 1.369281 1.313951
  H 3.747838 -0.239942 2.023490
  H 2.411227 -0.455589 -1.659610
  H 5.032444 -0.409700 -0.004296
  H 6.850018 -0.720349 -1.509053
 17
 24.059335
  C 1.021790 0.493734 0.426842
  C 2.339033 0.221613 0.469558
  C 3.210112 0.623645 1.600553
  H 2.613718 1.008538 2.425247
  C 2.954607 -0.449486 -0.720774
  C 4.395980 -0.540629 -0.852407
  C 4.994823 -0.709000 -2.063812
  H 4.410705 -0.775538 -2.973499
  O 6.285365 -0.795660 -2.281854
  H 0.536349 1.006203 1.240117
  H 2.575117 -1.404885 -0.250155
  H 0.410593 0.235227 -0.421361
  H 3.897203 1.403304 1.274275
  H 3.807468 -0.213551 1.967157
  H 2.410116 -0.324723 -1.648136
  H 5.006060 -0.474507 0.038128
  H 6.836251 -0.722246 -1.471822
 17
 19.702358
  C 1.018130 0.418365 0.498937
  C 2.349043 0.250939 0.468541
  C 3.233103 0.671028 1.578217
  H 2.669140 1.184127 2.352084
  C 2.930726 -0.439695 -0.723454
  C 4.379519 -0.550427 -0.835883
  C 4.999554 -0.684688 -2.047308
  H 4.434580 -0.694137 -2.972236
  O 6.281824 -0.802331 -2.242967
  H 0.524413 0.908102 1.319763
  H 2.518221 -1.452597 -0.546539
  H 0.384407 0.095858 -0.309566
  H 4.013263 1.333471 1.203419
  H 3.720280 -0.192044 2.031634
  H 2.460895 -0.126799 -1.656318
  H 4.973166 -0.542648 0.066698
  H 6.815023 -0.794487 -1.426967
 17
 18.867388
  C 0.998639 0.315321 0.575482
  C 2.342230 0.234007 0.478467
  C 3.238823 0.716547 1.554795
  H 2.680294 1.249941 2.317490
  C 2.924125 -0.366362 -0.753294
  C 4.377706 -0.522296 -0.835414
  C 5.008838 -0.728079 -2.028598
  H 4.458657 -0.748367 -2.964360
  O 6.290634 -0.910632 -2.197505
  H 0.516898 0.760082 1.424750
  H 2.458646 -1.364357 -0.852725
  H 0.350831 -0.053314 -0.197095
  H 4.005649 1.373240 1.143388
  H 3.742639 -0.122824 2.034266
  H 2.538155 0.150810 -1.644985
  H 4.960955 -0.501585 0.075270
  H 6.811568 -0.900094 -1.371876
 17
 18.834726
  C 0.998368 0.318647 0.573821
  C 2.341509 0.232453 0.479026
  C 3.238373 0.714615 1.556874
  H 2.679583 1.247289 2.320228
  C 2.924095 -0.368742 -0.752727
  C 4.378270 -0.522056 -0.835930
  C 5.009047 -0.729351 -2.029964
  H 4.458708 -0.753399 -2.963854
  O 6.290680 -0.909060 -2.199888
  H 0.517681 0.770795 1.423433
  H 2.460888 -1.365823 -0.854094
  H 0.347223 -0.054219 -0.199039
  H 4.003873 1.371301 1.146821
  H 3.742748 -0.124987 2.035456
  H 2.539514 0.147385 -1.640633
  H 4.961722 -0.497719 0.072508
  H 6.813004 -0.895091 -1.373982
