 20
 0.000000
  C 0.954957 0.047785 0.179103
  C 2.455961 0.066104 0.068950
  C 3.209596 -0.007834 1.371918
  H 2.520577 -0.060900 2.210311
  C 3.084713 0.138166 -1.120738
  C 2.337040 0.209136 -2.424105
  H 1.265052 0.200277 -2.271414
  C 4.534533 0.139288 -1.211284
  C 5.240068 0.185003 -2.343742
  O 6.596594 0.184195 -2.412569
  H 0.646015 -0.037606 1.217691
  H 0.531993 -0.796568 -0.364841
  H 0.516738 0.961497 -0.222790
  H 3.840321 0.869937 1.512361
  H 3.848508 -0.890153 1.407191
  H 2.605338 -0.637196 -3.054970
  H 2.603799 1.119929 -2.958513
  H 5.086498 0.100678 -0.281945
  H 4.811545 0.226754 -3.331815
  H 6.966143 0.146422 -1.521100
 20
 0.067124
  C 0.953669 0.104651 0.187169
  C 2.452994 0.048753 0.065878
  C 3.205446 -0.083185 1.364442
  H 2.516425 -0.188680 2.198005
  C 3.080628 0.130140 -1.119023
  C 2.340937 0.193853 -2.427510
  H 1.267249 0.142604 -2.291245
  C 4.529823 0.146979 -1.211719
  C 5.237049 0.211596 -2.341497
  O 6.592774 0.243284 -2.405645
  H 0.662919 0.301567 1.216035
  H 0.498754 -0.839375 -0.115249
  H 0.540831 0.897761 -0.433030
  H 3.824980 0.794093 1.552020
  H 3.853795 -0.958887 1.353485
  H 2.641525 -0.641559 -3.058084
  H 2.581648 1.116698 -2.953690
  H 5.080220 0.118894 -0.280265
  H 4.810215 0.245873 -3.330344
  H 6.959608 0.212427 -1.513146
 20
 0.719561
  C 0.960457 0.179304 0.198236
  C 2.448802 0.013529 0.065558
  C 3.191107 -0.189587 1.359839
  H 2.490843 -0.320933 2.180587
  C 3.074459 0.124876 -1.119430
  C 2.344414 0.146016 -2.436154
  H 1.273319 0.032841 -2.316626
  C 4.523908 0.168212 -1.214320
  C 5.234036 0.247254 -2.340758
  O 6.588831 0.328492 -2.397678
  H 0.729334 0.642857 1.155883
  H 0.436978 -0.775360 0.150714
  H 0.591580 0.837834 -0.583342
  H 3.825846 0.665134 1.595878
  H 3.823347 -1.075319 1.308484
  H 2.699707 -0.680182 -3.050030
  H 2.541085 1.073268 -2.973272
  H 5.071201 0.169009 -0.280049
  H 4.812314 0.257405 -3.332507
  H 6.951435 0.319774 -1.502444
 20
 1.540054
  C 0.968940 0.243817 0.216408
  C 2.441680 0.007190 0.060700
  C 3.171392 -0.254559 1.352667
  H 2.458781 -0.482275 2.141480
  C 3.072154 0.139838 -1.127677
  C 2.351491 0.123018 -2.451826
  H 1.288164 -0.056907 -2.343779
  C 4.522325 0.186378 -1.220323
  C 5.231842 0.285817 -2.335261
  O 6.584926 0.380099 -2.383981
  H 0.816327 0.939161 1.042671
  H 0.423381 -0.670376 0.447156
  H 0.566890 0.707454 -0.679966
  H 3.754754 0.610532 1.671178
  H 3.849437 -1.099959 1.248604
  H 2.761311 -0.683211 -3.057990
  H 2.495684 1.058351 -2.991949
  H 5.065657 0.184392 -0.284138
  H 4.814782 0.306497 -3.328463
  H 6.942876 0.358740 -1.487789
 20
 7.898079
  C 1.009383 0.408534 0.215062
  C 2.447856 0.000954 0.081856
  C 3.136107 -0.480716 1.325705
  H 2.398443 -0.686625 2.096937
  C 3.062834 0.164442 -1.106721
  C 2.355142 -0.030245 -2.424751
  H 1.297868 -0.237813 -2.299824
  C 4.504952 0.289636 -1.206397
  C 5.223248 0.330332 -2.330335
  O 6.560982 0.561372 -2.386651
  H 0.977406 1.269946 0.889345
  H 0.349326 -0.355836 0.613250
  H 0.704398 0.802189 -0.750909
  H 3.840560 0.249749 1.729038
  H 3.690714 -1.392746 1.113214
  H 2.807738 -0.893332 -2.909864
  H 2.467183 0.827429 -3.088184
  H 5.031696 0.444955 -0.271185
  H 4.818203 0.201489 -3.320630
  H 6.903312 0.694686 -1.493386
 20
 19.739230
  C 1.060512 0.549967 0.193396
  C 2.462000 0.013828 0.123386
  C 3.085226 -0.630363 1.320787
  H 2.326285 -0.803592 2.079085
  C 3.058632 0.191069 -1.083738
  C 2.368373 -0.202657 -2.369536
  H 1.329675 -0.474321 -2.208304
  C 4.490206 0.375927 -1.204973
  C 5.195111 0.440224 -2.340272
  O 6.516684 0.751392 -2.415942
  H 1.098197 1.495429 0.750247
  H 0.311887 -0.084278 0.650852
  H 0.901361 0.922345 -0.820826
  H 3.874436 -0.026079 1.775149
  H 3.528939 -1.580650 1.030530
  H 2.891977 -1.079530 -2.745488
  H 2.411457 0.571400 -3.136904
  H 5.016002 0.577580 -0.276667
  H 4.779957 0.298032 -3.324584
  H 6.871266 0.868398 -1.524946
 20
 39.325871
  C 1.117006 0.665394 0.191332
  C 2.465287 0.009844 0.160241
  C 3.043639 -0.774496 1.285101
  H 2.280282 -0.955353 2.037499
  C 3.031889 0.253066 -1.061903
  C 2.380027 -0.330417 -2.297737
  H 1.353634 -0.631803 -2.107180
  C 4.447740 0.507731 -1.202419
  C 5.166628 0.483498 -2.341746
  O 6.479111 0.832725 -2.440693
  H 1.180254 1.669433 0.637457
  H 0.302432 0.122918 0.651397
  H 1.166947 1.053166 -0.851674
  H 3.879173 -0.265243 1.774747
  H 3.418239 -1.725633 0.910952
  H 2.950645 -1.218918 -2.563874
  H 2.390950 0.347655 -3.152393
  H 4.953934 0.827956 -0.295530
  H 4.778102 0.181707 -3.301129
  H 6.799989 1.122258 -1.577376
 20
 65.564049
  C 1.182422 0.731344 0.209095
  C 2.452492 -0.006942 0.197133
  C 3.012991 -0.852325 1.284653
  H 2.264867 -1.008471 2.057693
  C 2.999161 0.259300 -1.057313
  C 2.380544 -0.426492 -2.265236
  H 1.361452 -0.745885 -2.062222
  C 4.410989 0.552803 -1.203956
  C 5.120085 0.547746 -2.340056
  O 6.421280 0.930183 -2.447900
  H 1.246137 1.794695 0.466671
  H 0.325999 0.282987 0.702771
  H 1.470154 1.081147 -0.937731
  H 3.884564 -0.384229 1.750882
  H 3.334429 -1.815057 0.890215
  H 2.976328 -1.312149 -2.486229
  H 2.378582 0.208892 -3.151110
  H 4.908888 0.889226 -0.298612
  H 4.726284 0.256838 -3.300024
  H 6.753403 1.185671 -1.578618
 20
 80.519062
  C 1.225217 0.752837 0.290182
  C 2.415785 -0.000738 0.215551
  C 2.988561 -0.899194 1.253275
  H 2.269115 -1.057346 2.053811
  C 2.956811 0.295208 -1.086364
  C 2.363704 -0.459577 -2.278139
  H 1.339988 -0.767885 -2.077460
  C 4.381322 0.601501 -1.205124
  C 5.112273 0.568719 -2.320790
  O 6.417298 0.939972 -2.411506
  H 1.290719 1.824713 0.428410
  H 0.360421 0.356924 0.831030
  H 1.711951 1.094476 -1.050788
  H 3.886412 -0.454892 1.686620
  H 3.274822 -1.861935 0.828557
  H 2.960128 -1.356601 -2.460743
  H 2.375917 0.143488 -3.183774
  H 4.853896 0.959968 -0.295344
  H 4.738869 0.247907 -3.278930
  H 6.732667 1.220855 -1.542797
 20
 67.059124
  C 1.228842 0.747425 0.377143
  C 2.366698 0.015885 0.231418
  C 2.970696 -0.916810 1.213526
  H 2.277142 -1.114830 2.029218
  C 2.913619 0.337511 -1.117727
  C 2.333679 -0.469847 -2.296796
  H 1.295124 -0.731842 -2.112175
  C 4.351711 0.644925 -1.201188
  C 5.110325 0.554402 -2.281005
  O 6.408389 0.951729 -2.362447
  H 1.309908 1.817133 0.465977
  H 0.379274 0.396765 0.964329
  H 1.954503 1.083628 -1.164363
  H 3.867371 -0.456690 1.628742
  H 3.267024 -1.862645 0.756316
  H 2.898131 -1.394516 -2.441091
  H 2.393887 0.107694 -3.214459
  H 4.786354 1.066858 -0.300842
  H 4.776948 0.142355 -3.219714
  H 6.688013 1.316211 -1.512409
 20
 43.283626
  C 1.241142 0.783342 0.470741
  C 2.316641 0.032385 0.220543
  C 2.924738 -0.971533 1.133443
  H 2.286293 -1.150026 1.995754
  C 2.895299 0.372094 -1.144679
  C 2.374209 -0.553225 -2.263439
  H 1.344940 -0.840028 -2.064080
  C 4.336912 0.711892 -1.209007
  C 5.112433 0.641927 -2.290174
  O 6.427398 0.976244 -2.334120
  H 1.268132 1.855043 0.388079
  H 0.451528 0.476035 1.154004
  H 2.081284 1.143060 -1.267599
  H 3.877441 -0.573366 1.480475
  H 3.124559 -1.921677 0.634834
  H 2.970999 -1.463585 -2.331948
  H 2.424262 -0.041690 -3.218720
  H 4.766725 1.082259 -0.282790
  H 4.774155 0.297989 -3.253474
  H 6.717881 1.254866 -1.459266
 20
 27.182509
  C 1.235206 0.784698 0.554683
  C 2.303668 0.074541 0.196183
  C 2.937121 -1.005738 1.003453
  H 2.306196 -1.290656 1.841975
  C 2.864337 0.464663 -1.163690
  C 2.381495 -0.542287 -2.223455
  H 1.337207 -0.789010 -2.049549
  C 4.319106 0.761634 -1.202587
  C 5.126518 0.564336 -2.233441
  O 6.440497 0.908139 -2.277578
  H 1.167381 1.848088 0.399758
  H 0.521111 0.445559 1.297576
  H 2.128391 1.277324 -1.320666
  H 3.878183 -0.616768 1.391027
  H 3.165408 -1.890764 0.409246
  H 2.957286 -1.466247 -2.182052
  H 2.487844 -0.116028 -3.216299
  H 4.715822 1.238148 -0.311918
  H 4.829021 0.076674 -3.147826
  H 6.692041 1.330956 -1.447066
 20
 14.689687
  C 1.274224 0.821323 0.649363
  C 2.275988 0.095104 0.172787
  C 2.933699 -1.017613 0.921833
  H 2.359532 -1.290949 1.803665
  C 2.826563 0.469761 -1.191486
  C 2.389659 -0.584554 -2.219585
  H 1.340434 -0.827264 -2.070183
  C 4.286243 0.778849 -1.197581
  C 5.128272 0.534441 -2.190154
  O 6.447973 0.860663 -2.199325
  H 1.092938 1.837242 0.339269
  H 0.683374 0.525953 1.504618
  H 2.184948 1.334547 -1.425099
  H 3.916781 -0.672354 1.240429
  H 3.080519 -1.900664 0.301735
  H 2.975601 -1.496370 -2.124890
  H 2.514598 -0.197772 -3.227258
  H 4.649499 1.295882 -0.315433
  H 4.850068 0.044555 -3.109595
  H 6.674030 1.318945 -1.379745
 20
 8.566555
  C 1.239789 0.777191 0.687359
  C 2.276167 0.143395 0.161752
  C 2.994719 -0.961259 0.870875
  H 2.495344 -1.216107 1.802066
  C 2.790806 0.529089 -1.209383
  C 2.366352 -0.537021 -2.226467
  H 1.313000 -0.771206 -2.090693
  C 4.262149 0.813632 -1.203387
  C 5.132756 0.454020 -2.133566
  O 6.462831 0.735984 -2.115325
  H 0.845097 1.692459 0.280350
  H 0.780853 0.438891 1.602988
  H 2.232204 1.437808 -1.469019
  H 4.010759 -0.640069 1.096212
  H 3.062820 -1.853721 0.250885
  H 2.944651 -1.449135 -2.101463
  H 2.510772 -0.171291 -3.239681
  H 4.611552 1.380338 -0.346431
  H 4.874975 -0.107790 -3.016940
  H 6.677346 1.234517 -1.316765
 20
 6.718385
  C 1.324080 0.817177 0.768691
  C 2.288998 0.154996 0.150608
  C 2.996055 -1.005197 0.780575
  H 2.574893 -1.231093 1.756726
  C 2.737806 0.547000 -1.243128
  C 2.363013 -0.534109 -2.257907
  H 1.304737 -0.768624 -2.165405
  C 4.202429 0.884064 -1.227209
  C 5.139649 0.371455 -2.008175
  O 6.458480 0.701592 -1.971273
  H 0.826354 1.658125 0.314862
  H 0.982627 0.540878 1.752563
  H 2.185234 1.458776 -1.506776
  H 4.055403 -0.778941 0.897925
  H 2.917116 -1.890477 0.152956
  H 2.935254 -1.442872 -2.094168
  H 2.551697 -0.182616 -3.269273
  H 4.480529 1.627818 -0.487419
  H 4.955019 -0.369800 -2.769005
  H 6.605566 1.371572 -1.291800
