 13
 0.000000
  C 0.960005 -0.016916 -0.005538
  C 2.456721 0.001344 0.012114
  C 3.167656 0.812907 0.796489
  C 4.610669 0.833716 0.816600
  C 5.320188 1.642047 1.597858
  H 6.395353 1.650666 1.606186
  H 0.597046 -0.754552 -0.718461
  H 0.564846 0.954873 -0.297560
  H 0.564845 -0.275673 0.975633
  H 2.957530 -0.687558 -0.653716
  H 2.655469 1.500233 1.460795
  H 5.116352 0.145518 0.151459
  H 4.821939 2.329842 2.262610
 13
 0.018643
  C 0.958594 0.005705 -0.032716
  C 2.449892 -0.028277 0.046566
  C 3.165972 0.771043 0.836612
  C 4.609992 0.807354 0.858283
  C 5.317008 1.702581 1.540602
  H 6.391751 1.719233 1.517949
  H 0.604927 -0.501485 -0.926970
  H 0.597246 1.031837 -0.043540
  H 0.517996 -0.490903 0.833152
  H 2.943018 -0.787697 -0.543341
  H 2.652165 1.473117 1.481996
  H 5.113630 0.058444 0.260911
  H 4.838724 2.455908 2.143819
 13
 6.455118
  C 1.006081 0.092098 -0.050941
  C 2.466702 -0.194765 0.118241
  C 3.235696 0.498845 0.966432
  C 4.644296 0.768864 0.850939
  C 5.255693 1.758123 1.497476
  H 6.294956 1.985898 1.334532
  H 0.647844 -0.326927 -0.987645
  H 0.834510 1.165927 -0.055623
  H 0.407566 -0.336507 0.756264
  H 2.842013 -1.037988 -0.447719
  H 2.684956 1.110046 1.678234
  H 5.202067 0.140907 0.166445
  H 4.726655 2.389082 2.192873
 13
 19.094524
  C 1.065258 0.194522 -0.027975
  C 2.476388 -0.296751 0.097478
  C 3.330612 0.282128 0.961909
  C 4.675836 0.759753 0.818745
  C 5.143225 1.822088 1.469546
  H 6.139526 2.191482 1.300653
  H 0.661058 -0.117766 -0.987587
  H 1.040887 1.279378 0.034112
  H 0.405643 -0.200077 0.749809
  H 2.646379 -1.242766 -0.400960
  H 2.748660 0.871555 1.686692
  H 5.319712 0.224297 0.129490
  H 4.536065 2.368348 2.172308
 13
 38.604214
  C 1.122899 0.267004 -0.010857
  C 2.431179 -0.444169 0.143903
  C 3.449176 0.106077 0.851686
  C 4.696485 0.795073 0.740229
  C 5.041511 1.834005 1.497421
  H 5.995023 2.316639 1.378479
  H 0.632975 -0.101396 -0.907864
  H 1.289445 1.335947 -0.105831
  H 0.436915 0.107264 0.826812
  H 2.417867 -1.459486 -0.238688
  H 2.855024 0.739727 1.565717
  H 5.411951 0.408730 0.019040
  H 4.384238 2.232588 2.252036
 13
 56.746193
  C 1.121779 0.280791 -0.004344
  C 2.401632 -0.485362 0.159533
  C 3.533749 0.071337 0.677310
  C 4.707821 0.871537 0.659250
  C 5.027239 1.805748 1.559451
  H 5.963117 2.332567 1.502008
  H 0.556413 -0.167111 -0.818285
  H 1.330142 1.322738 -0.238249
  H 0.484710 0.255135 0.886444
  H 2.279062 -1.553632 -0.026515
  H 2.911622 0.711794 1.395448
  H 5.425608 0.642965 -0.121858
  H 4.380855 2.049364 2.386210
 13
 74.195688
  C 1.118706 0.314734 -0.012527
  C 2.375237 -0.476083 0.216436
  C 3.577431 0.053552 0.614725
  C 4.668613 0.940394 0.597764
  C 5.057567 1.761631 1.581618
  H 5.971586 2.320125 1.508583
  H 0.558287 -0.165227 -0.811426
  H 1.357095 1.336632 -0.299653
  H 0.465424 0.350273 0.865051
  H 2.224677 -1.552909 0.117721
  H 2.894058 0.542833 1.417381
  H 5.303907 0.844092 -0.279468
  H 4.498082 1.862686 2.497097
 13
 86.264916
  C 1.176023 0.376692 -0.042418
  C 2.386797 -0.474235 0.297857
  C 3.637523 -0.058459 0.699993
  C 4.608746 0.949099 0.603740
  C 5.041358 1.796106 1.548334
  H 5.901261 2.420048 1.389339
  H 0.648370 -0.082763 -0.875293
  H 1.478445 1.384324 -0.321185
  H 0.475612 0.441973 0.790843
  H 2.190567 -1.544043 0.194744
  H 2.777030 0.200659 1.498231
  H 5.136361 0.899424 -0.343550
  H 4.586455 1.843259 2.524369
 13
 81.071092
  C 1.256160 0.437686 -0.034268
  C 2.399581 -0.494105 0.358664
  C 3.693171 -0.166958 0.736979
  C 4.567135 0.928883 0.592825
  C 4.974978 1.819372 1.500881
  H 5.776221 2.508587 1.295862
  H 0.741762 0.040226 -0.909170
  H 1.630777 1.433662 -0.266123
  H 0.526150 0.513579 0.769994
  H 2.152205 -1.546559 0.252896
  H 2.702515 -0.051750 1.525763
  H 5.049410 0.900032 -0.380028
  H 4.552380 1.853900 2.493506
 13
 74.559406
  C 1.344581 0.476646 -0.000952
  C 2.418895 -0.531870 0.416420
  C 3.765756 -0.251041 0.707077
  C 4.521902 0.928926 0.578515
  C 4.898049 1.834863 1.484721
  H 5.624868 2.593571 1.258207
  H 0.866229 0.156179 -0.924419
  H 1.784878 1.459213 -0.157013
  H 0.573657 0.553704 0.762509
  H 2.144274 -1.568289 0.246092
  H 2.598266 -0.308647 1.559888
  H 4.958315 0.952906 -0.418143
  H 4.510103 1.822582 2.489872
 13
 73.409161
  C 1.263469 0.436715 0.006781
  C 2.394133 -0.528791 0.448630
  C 3.727479 -0.103441 0.618834
  C 4.538568 1.007129 0.587455
  C 5.037581 1.813657 1.534214
  H 5.793900 2.541419 1.310561
  H 0.795148 0.066397 -0.903347
  H 1.669955 1.424117 -0.199365
  H 0.492597 0.525552 0.766781
  H 2.229435 -1.547259 0.115696
  H 2.400249 -0.393918 1.579467
  H 4.903321 1.103827 -0.436471
  H 4.698795 1.752171 2.553689
 13
 62.434499
  C 1.499652 0.610838 0.239828
  C 2.448146 -0.522184 0.639546
  C 3.881330 -0.361993 0.410418
  C 4.552315 0.843532 0.282398
  C 4.588701 1.814535 1.224032
  H 5.367517 2.557505 1.233844
  H 1.359369 0.614733 -0.839413
  H 1.907025 1.574077 0.535353
  H 0.527841 0.482529 0.710760
  H 2.114241 -1.474179 0.216132
  H 2.430397 -0.669692 1.729998
  H 5.314379 0.856542 -0.492976
  H 3.953719 1.771332 2.093002
