 12
 0.000000
  C 0.928911 0.049142 0.264804
  C 2.423062 0.058407 0.100553
  C 3.264819 -0.011810 1.345023
  H 2.673420 -0.063116 2.254202
  C 2.987246 0.125773 -1.093291
  H 2.438673 0.177927 -2.017583
  H 4.060064 0.132005 -1.203721
  H 0.638889 -0.009920 1.311459
  H 0.492210 -0.807607 -0.246048
  H 0.492212 0.957925 -0.146422
  H 3.909710 0.864418 1.408552
  H 3.909710 -0.889615 1.309582
 12
 12.826194
  C 0.812481 0.048146 0.282470
  C 2.493572 0.057182 0.122283
  C 3.307500 -0.013097 1.367857
  H 2.684841 -0.063270 2.257011
  C 3.053320 0.129290 -1.155612
  H 2.454890 0.179508 -2.045606
  H 4.121416 0.136590 -1.284966
  H 0.550243 -0.011030 1.331164
  H 0.414790 -0.810483 -0.244639
  H 0.414792 0.960623 -0.144699
  H 3.951298 0.863263 1.448376
  H 3.951306 -0.892953 1.349278
 12
 39.308577
  C 0.664326 0.047761 0.289197
  C 2.598844 0.056828 0.128455
  C 3.361998 -0.013541 1.375550
  H 2.704034 -0.062560 2.244287
  C 3.107891 0.130597 -1.178850
  H 2.454323 0.178686 -2.030987
  H 4.174693 0.139278 -1.332687
  H 0.452555 -0.012214 1.352001
  H 0.331447 -0.826720 -0.261332
  H 0.331444 0.978647 -0.159465
  H 4.005006 0.868372 1.476246
  H 4.004981 -0.901135 1.376390
 12
 67.527609
  C 0.484564 0.048068 0.283638
  C 2.704918 0.058371 0.101143
  C 3.440921 -0.014650 1.395243
  H 2.756751 -0.062619 2.245224
  C 3.159987 0.131683 -1.198067
  H 2.487270 0.178267 -2.023694
  H 4.220094 0.142263 -1.385523
  H 0.332507 -0.011980 1.348011
  H 0.207224 -0.831448 -0.266873
  H 0.207234 0.983965 -0.164431
  H 4.079039 0.870618 1.520327
  H 4.079003 -0.908316 1.419927
