 20
 0.000000
  C 1.007215 -0.071435 0.047822
  C 2.503503 -0.082263 0.026566
  C 3.219242 -0.595061 -0.980145
  C 4.656888 -0.606010 -1.001637
  C 5.377001 -1.121458 -2.013546
  C 6.815404 -1.131371 -2.033004
  C 7.533320 -1.643282 -3.037978
  C 9.024834 -1.661192 -3.073134
  H 0.644856 0.394752 0.963018
  H 0.611788 -1.086239 0.009068
  H 0.611789 0.493881 -0.795829
  H 3.003759 0.353167 0.881389
  H 2.707980 -1.028451 -1.830953
  H 5.161712 -0.171231 -0.148097
  H 4.872647 -1.556319 -2.867251
  H 7.322354 -0.697007 -1.180274
  H 7.035284 -2.079600 -3.894527
  H 9.461768 -1.207599 -2.182660
  H 9.384029 -1.115403 -3.946885
  H 9.384028 -2.688860 -3.145395
 20
 3.473652
  C 1.017033 -0.068800 0.052997
  C 2.511740 -0.082229 0.026635
  C 3.233707 -0.592969 -0.976041
  C 4.668058 -0.607908 -1.005369
  C 5.392435 -1.121107 -2.012863
  C 6.828553 -1.135321 -2.040760
  C 7.551252 -1.644993 -3.041331
  C 9.018707 -1.672490 -3.095310
  H 0.646203 0.394872 0.963255
  H 0.622881 -1.083354 -0.000612
  H 0.622882 0.484357 -0.799181
  H 3.018255 0.351581 0.878282
  H 2.728023 -1.027822 -1.829726
  H 5.173719 -0.173254 -0.152064
  H 4.887089 -1.555823 -2.866280
  H 7.328876 -0.698634 -1.183474
  H 7.028916 -2.076738 -3.888898
  H 9.223024 -1.196361 -2.160599
  H 9.418772 -1.109554 -3.937826
  H 9.418766 -2.684963 -3.135329
 20
 12.374281
  C 1.027414 -0.068309 0.053957
  C 2.522676 -0.083235 0.024657
  C 3.238234 -0.591401 -0.972959
  C 4.674641 -0.607308 -1.004185
  C 5.403664 -1.125136 -2.020763
  C 6.842001 -1.139733 -2.049422
  C 7.561489 -1.649834 -3.050839
  C 9.031008 -1.679124 -3.108337
  H 0.657167 0.395141 0.963776
  H 0.632985 -1.081877 -0.002740
  H 0.632990 0.481765 -0.799233
  H 3.031539 0.349255 0.873715
  H 2.731558 -1.025930 -1.826012
  H 5.181360 -0.172683 -0.150947
  H 4.896801 -1.559657 -2.873805
  H 7.333105 -0.701239 -1.188595
  H 6.999524 -2.077265 -3.889943
  H 9.019231 -1.196027 -2.159948
  H 9.454389 -1.090402 -3.914091
  H 9.454396 -2.677040 -3.105889
 20
 25.445012
  C 1.036941 -0.062164 0.067507
  C 2.521295 -0.081807 0.030406
  C 3.245278 -0.592241 -0.975178
  C 4.682734 -0.606514 -1.003444
  C 5.414176 -1.122574 -2.017227
  C 6.851292 -1.132835 -2.042677
  C 7.573032 -1.643292 -3.044897
  C 9.037794 -1.683678 -3.131048
  H 0.646467 0.391895 0.968006
  H 0.629126 -1.076703 -0.027440
  H 0.624413 0.468248 -0.795193
  H 3.027583 0.354968 0.880774
  H 2.740244 -1.032412 -1.827093
  H 5.187013 -0.169062 -0.149445
  H 4.910665 -1.559462 -2.870985
  H 7.337075 -0.689714 -1.177722
  H 6.996093 -2.068753 -3.874678
  H 8.879605 -1.201701 -2.191170
  H 9.486315 -1.113678 -3.936401
  H 9.473060 -2.674145 -3.075030
 20
 38.143554
  C 1.045631 -0.074662 0.044617
  C 2.540941 -0.087545 0.018224
  C 3.263127 -0.597344 -0.982004
  C 4.695007 -0.609019 -1.009109
  C 5.414623 -1.117680 -2.007031
  C 6.845062 -1.126077 -2.029675
  C 7.555858 -1.632461 -3.022082
  C 9.048383 -1.688139 -3.128545
  H 0.671195 0.382718 0.956007
  H 0.652432 -1.091099 -0.024434
  H 0.651769 0.479256 -0.811941
  H 3.048218 0.349665 0.868669
  H 2.760217 -1.036349 -1.834834
  H 5.198438 -0.171447 -0.155927
  H 4.911977 -1.555022 -2.859865
  H 7.324762 -0.679121 -1.158943
  H 6.949623 -2.053555 -3.840237
  H 8.752149 -1.211126 -2.216140
  H 9.472055 -1.100285 -3.918815
  H 9.460586 -2.674824 -3.073524
 20
 51.324060
  C 1.023781 -0.073931 0.046337
  C 2.521187 -0.083229 0.025633
  C 3.248660 -0.592893 -0.973212
  C 4.684608 -0.601680 -0.995187
  C 5.416641 -1.113790 -1.999474
  C 6.858564 -1.120167 -2.016569
  C 7.584843 -1.633218 -3.021353
  C 9.096825 -1.699833 -3.147751
  H 0.645815 0.381756 0.959551
  H 0.636486 -1.083256 -0.021137
  H 0.634574 0.480587 -0.803975
  H 3.024180 0.353145 0.877077
  H 2.748114 -1.032525 -1.830934
  H 5.182309 -0.164471 -0.141273
  H 4.916211 -1.553542 -2.858026
  H 7.329231 -0.672421 -1.144152
  H 6.969665 -2.050174 -3.829388
  H 8.697692 -1.234290 -2.266934
  H 9.498368 -1.102517 -3.943009
  H 9.494808 -2.694603 -3.094097
 20
 62.897230
  C 1.019221 -0.076117 0.040980
  C 2.516742 -0.084043 0.024313
  C 3.245874 -0.590643 -0.969928
  C 4.684374 -0.597869 -0.986660
  C 5.419786 -1.108067 -1.987887
  C 6.857905 -1.112255 -1.999506
  C 7.587649 -1.625837 -3.005527
  C 9.120190 -1.706980 -3.158482
  H 0.637341 0.376723 0.953306
  H 0.631522 -1.086814 -0.030834
  H 0.630521 0.479659 -0.808869
  H 3.016133 0.351338 0.876691
  H 2.748007 -1.030368 -1.830043
  H 5.179485 -0.160183 -0.129687
  H 4.923665 -1.547405 -2.847639
  H 7.324880 -0.663889 -1.124834
  H 6.958964 -2.045598 -3.816868
  H 8.644084 -1.247885 -2.298559
  H 9.504342 -1.103753 -3.971599
  H 9.502967 -2.710638 -3.104814
 20
 73.070367
  C 1.018885 -0.077616 0.036209
  C 2.510169 -0.082883 0.025337
  C 3.244894 -0.588257 -0.968484
  C 4.670467 -0.592972 -0.979375
  C 5.410126 -1.101330 -1.978870
  C 6.860493 -1.104657 -1.987943
  C 7.596983 -1.616813 -2.992468
  C 9.137136 -1.710473 -3.167675
  H 0.633477 0.372941 0.946064
  H 0.626901 -1.103597 -0.041088
  H 0.631819 0.478976 -0.814983
  H 3.006723 0.354389 0.883381
  H 2.755830 -1.024421 -1.824034
  H 5.161085 -0.155108 -0.119540
  H 4.916605 -1.540125 -2.839753
  H 7.320399 -0.664373 -1.127472
  H 6.967038 -2.034178 -3.798348
  H 8.609570 -1.263160 -2.337116
  H 9.499041 -1.111485 -3.984886
  H 9.508020 -2.728841 -3.112641
 20
 81.243247
  C 1.002566 -0.081117 0.029349
  C 2.495509 -0.083970 0.024268
  C 3.233563 -0.586604 -0.965584
  C 4.679251 -0.590094 -0.971851
  C 5.421244 -1.096199 -1.968385
  C 6.861748 -1.098389 -1.973024
  C 7.599260 -1.610357 -2.977794
  C 9.157459 -1.723396 -3.186602
  H 0.614906 0.367393 0.937681
  H 0.612691 -1.108360 -0.051765
  H 0.618668 0.477002 -0.822859
  H 2.987321 0.352565 0.883693
  H 2.745399 -1.023608 -1.826289
  H 5.172032 -0.149345 -0.102952
  H 4.935387 -1.530971 -2.824331
  H 7.331672 -0.650760 -1.096120
  H 6.972747 -2.024778 -3.777948
  H 8.587935 -1.276426 -2.366729
  H 9.487697 -1.130921 -4.023714
  H 9.494359 -2.736166 -3.138186
 20
 88.258151
  C 1.002617 -0.085103 0.026445
  C 2.494726 -0.086002 0.025614
  C 3.239130 -0.587586 -0.966279
  C 4.665383 -0.588197 -0.966549
  C 5.416601 -1.092930 -1.965116
  C 6.851121 -1.089971 -1.959712
  C 7.595707 -1.599964 -2.963919
  C 9.181381 -1.721674 -3.187355
  H 0.610329 0.359441 0.934749
  H 0.620329 -1.101532 -0.057660
  H 0.620430 0.475595 -0.828534
  H 2.983348 0.348840 0.885979
  H 2.755407 -1.023520 -1.830560
  H 5.147799 -0.153000 -0.103646
  H 4.931547 -1.533166 -2.835896
  H 7.311437 -0.643193 -1.081454
  H 6.973171 -2.021191 -3.776951
  H 8.560819 -1.276009 -2.384661
  H 9.474548 -1.149206 -4.043088
  H 9.492286 -2.749295 -3.144670
 20
 94.337208
  C 0.988003 -0.085468 0.024963
  C 2.478408 -0.088195 0.025310
  C 3.222774 -0.587111 -0.966457
  C 4.660672 -0.588006 -0.965070
  C 5.412640 -1.088903 -1.961279
  C 6.850770 -1.085407 -1.951613
  C 7.598083 -1.592762 -2.953884
  C 9.220871 -1.724256 -3.192796
  H 0.594405 0.356167 0.933988
  H 0.602706 -1.105704 -0.063585
  H 0.606875 0.477981 -0.828593
  H 2.966983 0.343291 0.885702
  H 2.740248 -1.019606 -1.830390
  H 5.144592 -0.153443 -0.096745
  H 4.932458 -1.524012 -2.828088
  H 7.308623 -0.639078 -1.069196
  H 6.990418 -2.013844 -3.767688
  H 8.552777 -1.281033 -2.415168
  H 9.469317 -1.178267 -4.082484
  H 9.493233 -2.761286 -3.158688
 20
 99.482764
  C 0.981084 -0.090974 0.018066
  C 2.474853 -0.092399 0.023993
  C 3.222364 -0.586717 -0.967493
  C 4.647506 -0.585919 -0.958877
  C 5.404596 -1.083370 -1.956648
  C 6.834945 -1.078702 -1.940289
  C 7.589876 -1.582638 -2.939939
  C 9.259180 -1.723556 -3.192460
  H 0.585410 0.343094 0.922802
  H 0.596730 -1.107485 -0.077009
  H 0.599410 0.477483 -0.835726
  H 2.966710 0.341886 0.900595
  H 2.739464 -1.020669 -1.843839
  H 5.132316 -0.149849 -0.077066
  H 4.923493 -1.519344 -2.834982
  H 7.290271 -0.636081 -1.057452
  H 7.008951 -2.002860 -3.757146
  H 8.542312 -1.281811 -2.448689
  H 9.449813 -1.217926 -4.127423
  H 9.483009 -2.770457 -3.163467
 20
 103.739712
  C 0.964020 -0.095295 0.017000
  C 2.454515 -0.096609 0.025588
  C 3.205355 -0.585160 -0.966206
  C 4.637339 -0.581174 -0.956389
  C 5.396446 -1.072762 -1.952769
  C 6.831008 -1.069051 -1.931769
  C 7.587785 -1.570392 -2.928222
  C 9.318394 -1.727743 -3.203631
  H 0.563394 0.336339 0.929046
  H 0.580092 -1.115574 -0.087809
  H 0.586320 0.478146 -0.837244
  H 2.936866 0.327685 0.891887
  H 2.727852 -1.011973 -1.837419
  H 5.115676 -0.153253 -0.082355
  H 4.917145 -1.504858 -2.833157
  H 7.288831 -0.627507 -1.041037
  H 7.027135 -1.991217 -3.754961
  H 8.548860 -1.283020 -2.488600
  H 9.441467 -1.272869 -4.172407
  H 9.489432 -2.795379 -3.178140
 20
 107.744756
  C 0.939095 -0.096823 0.017460
  C 2.427247 -0.103158 0.030048
  C 3.179282 -0.588686 -0.963565
  C 4.619337 -0.575355 -0.957553
  C 5.380827 -1.063933 -1.954042
  C 6.820178 -1.064678 -1.928773
  C 7.579591 -1.564632 -2.921509
  C 9.399617 -1.744745 -3.228996
  H 0.536228 0.333476 0.930513
  H 0.554149 -1.112009 -0.094245
  H 0.570299 0.476157 -0.830978
  H 2.909296 0.318527 0.898648
  H 2.700830 -1.015920 -1.837173
  H 5.095098 -0.150436 -0.086544
  H 4.908344 -1.490087 -2.825064
  H 7.270175 -0.632193 -1.046750
  H 7.031366 -1.991230 -3.763660
  H 8.556077 -1.287760 -2.514114
  H 9.478981 -1.317089 -4.215345
  H 9.529785 -2.813918 -3.204679
