20
 0
 C -1.22939197 0.43938065 2.44236418
 C -2.05094105 0.56380161 1.16016203
 C -2.62442465 1.97182082 1.03553301
 C -1.21168446 0.21365248 -0.06738514
 O 0.00000000 0.00000000 0.00000000
 C -1.91935557 0.12540138 -1.39625343
 H -1.84720517 0.64294692 3.32322505
 H -0.38882990 1.14253368 2.44741887
 H -0.81723746 -0.57024092 2.54619959
 H -2.87033831 -0.16345688 1.21065453
 H -1.82861097 2.71452194 0.91254732
 H -3.20626587 2.23625985 1.92488122
 H -3.28887376 2.05722555 0.16973077
 H -3.00177574 0.20337923 -1.26974590
 H -1.69967922 -0.84153329 -1.85630132
 H -1.57499728 0.93759322 -2.04124833
 O 3.37512542 0.17194077 0.04072316
 H 2.40000000 0.00000000 0.00000000
 H 3.89141078 -0.67375178 0.05888325
 H 3.60823436 0.75496613 0.80740566
