 28
 0.000000
  C 0.948498 0.151223 0.422538
  C 2.420798 0.141328 0.402899
  C 3.222726 0.603798 1.555735
  C 2.465158 1.097364 2.782867
  H 3.165265 1.404638 3.549892
  C 3.024612 -0.327167 -0.762767
  C 4.405591 -0.410518 -0.974823
  C 5.079169 -0.856769 -2.087861
  C 4.608996 -1.377543 -3.383592
  C 3.127412 -1.508889 -3.707985
  C 2.948064 -2.074218 -5.115685
  H 6.159483 -0.840780 -2.051221
  H 0.533429 0.524701 1.350428
  H 0.568268 -0.856357 0.246456
  H 0.572810 0.758632 -0.402723
  H 3.884175 1.407454 1.212678
  H 3.882703 -0.214896 1.864309
  H 1.833314 0.310489 3.189604
  H 1.835016 1.948148 2.532027
  H 2.353095 -0.642232 -1.543498
  H 5.040220 -0.082407 -0.161363
  H 5.085016 -2.360127 -3.504001
  H 5.083945 -0.750706 -4.150435
  H 2.642883 -0.532659 -3.665701
  H 2.644103 -2.185438 -3.002123
  H 3.401520 -1.422050 -5.858589
  H 1.891702 -2.170451 -5.353518
  H 3.402756 -3.058442 -5.201563
 28
 1.795535
  C 1.001221 0.090702 0.377834
  C 2.471632 0.127880 0.439791
  C 3.233880 0.638380 1.598473
  C 2.419087 1.124733 2.787370
  H 3.088066 1.469813 3.570368
  C 3.068884 -0.336924 -0.719004
  C 4.445479 -0.438391 -0.957416
  C 5.090103 -0.886051 -2.100031
  C 4.602118 -1.385728 -3.396458
  C 3.114928 -1.492268 -3.702429
  C 2.898285 -2.038630 -5.111832
  H 6.173774 -0.875666 -2.053726
  H 0.495004 0.539491 1.225038
  H 0.654289 -0.940132 0.264897
  H 0.728346 0.586090 -0.567006
  H 3.882888 1.449854 1.252647
  H 3.915472 -0.151184 1.933544
  H 1.804999 0.326707 3.197686
  H 1.772737 1.954240 2.510417
  H 2.332332 -0.614707 -1.475334
  H 5.094577 -0.130771 -0.147378
  H 5.067010 -2.371148 -3.541461
  H 5.080424 -0.763734 -4.166212
  H 2.648770 -0.508314 -3.638765
  H 2.634691 -2.167447 -2.993085
  H 3.348111 -1.386274 -5.856961
  H 1.836083 -2.114663 -5.330327
  H 3.334396 -3.029430 -5.217848
 28
 5.888824
  C 1.052559 0.057734 0.333136
  C 2.512824 0.122958 0.453226
  C 3.238093 0.653639 1.611294
  C 2.376748 1.130371 2.780166
  H 3.011490 1.493969 3.577381
  C 3.106210 -0.342674 -0.714379
  C 4.476113 -0.459667 -0.972702
  C 5.100414 -0.902813 -2.111136
  C 4.595153 -1.384898 -3.390991
  C 3.102913 -1.468491 -3.675966
  C 2.858246 -2.005750 -5.082245
  H 6.175819 -0.903845 -2.073745
  H 0.480260 0.579267 1.090004
  H 0.739570 -0.983976 0.320844
  H 0.884512 0.408404 -0.688611
  H 3.880335 1.476552 1.268075
  H 3.933076 -0.122313 1.967256
  H 1.769125 0.318408 3.177825
  H 1.720231 1.946197 2.479480
  H 2.305338 -0.584804 -1.430720
  H 5.136764 -0.162662 -0.159377
  H 5.045455 -2.373747 -3.548271
  H 5.072942 -0.769473 -4.164550
  H 2.653644 -0.476545 -3.600852
  H 2.623750 -2.138406 -2.959976
  H 3.307429 -1.357333 -5.831504
  H 1.792137 -2.065114 -5.285815
  H 3.278139 -3.002706 -5.197786
 28
 12.060494
  C 1.086957 0.037119 0.296173
  C 2.539280 0.123687 0.468674
  C 3.238680 0.670437 1.643393
  C 2.345494 1.129696 2.779586
  H 2.954250 1.506526 3.598214
  C 3.137237 -0.339547 -0.700813
  C 4.502268 -0.465825 -0.970955
  C 5.115000 -0.909942 -2.116783
  C 4.587989 -1.388011 -3.402701
  C 3.092639 -1.455358 -3.668384
  C 2.822104 -1.988886 -5.072901
  H 6.201192 -0.919926 -2.088930
  H 0.467161 0.634558 0.954854
  H 0.780133 -1.009694 0.394287
  H 1.022670 0.249507 -0.787566
  H 3.870874 1.498433 1.312745
  H 3.935294 -0.086052 2.015632
  H 1.742618 0.310170 3.156589
  H 1.686272 1.929900 2.459819
  H 2.302621 -0.551257 -1.382582
  H 5.164661 -0.178578 -0.168706
  H 5.026566 -2.382003 -3.566557
  H 5.062120 -0.775825 -4.182155
  H 2.657046 -0.459853 -3.585485
  H 2.616803 -2.118767 -2.946619
  H 3.268122 -1.345214 -5.827668
  H 1.752768 -2.036061 -5.262014
  H 3.229039 -2.990174 -5.195017
 28
 20.648214
  C 1.118285 0.016726 0.262299
  C 2.558735 0.115679 0.468390
  C 3.234383 0.672552 1.646881
  C 2.314640 1.129479 2.771951
  H 2.905442 1.515539 3.599935
  C 3.165971 -0.347235 -0.700521
  C 4.527185 -0.476921 -0.978113
  C 5.130536 -0.919549 -2.132646
  C 4.587150 -1.385603 -3.403500
  C 3.089980 -1.439837 -3.641509
  C 2.791064 -1.966828 -5.042723
  H 6.206942 -0.936677 -2.119562
  H 0.474052 0.663918 0.844352
  H 0.803965 -1.013317 0.436099
  H 1.142552 0.126179 -0.857317
  H 3.863863 1.506983 1.319632
  H 3.935475 -0.075519 2.034670
  H 1.708160 0.298488 3.143570
  H 1.648214 1.927199 2.434953
  H 2.281325 -0.529400 -1.365101
  H 5.199800 -0.190126 -0.174910
  H 5.014539 -2.380421 -3.576560
  H 5.052378 -0.775119 -4.186765
  H 2.664168 -0.439742 -3.547554
  H 2.621809 -2.102062 -2.912092
  H 3.229128 -1.324482 -5.803180
  H 1.718346 -2.004854 -5.213234
  H 3.187937 -2.971169 -5.174921
 28
 29.625800
  C 1.125796 0.017906 0.245610
  C 2.566270 0.112569 0.470186
  C 3.234083 0.666344 1.658258
  C 2.300708 1.119850 2.773158
  H 2.878828 1.500983 3.609316
  C 3.178031 -0.348075 -0.699768
  C 4.535949 -0.472457 -0.984583
  C 5.135244 -0.912245 -2.139582
  C 4.586383 -1.380553 -3.409942
  C 3.084968 -1.437180 -3.637454
  C 2.775730 -1.965670 -5.033014
  H 6.221804 -0.926613 -2.128137
  H 0.476854 0.727447 0.752983
  H 0.783971 -0.986465 0.498358
  H 1.224743 0.019646 -0.899830
  H 3.866943 1.503439 1.338256
  H 3.932657 -0.083872 2.051919
  H 1.693458 0.297121 3.129526
  H 1.644356 1.912475 2.434180
  H 2.248408 -0.503444 -1.345392
  H 5.209727 -0.179072 -0.187112
  H 5.014516 -2.376825 -3.583817
  H 5.046799 -0.768786 -4.197087
  H 2.659750 -0.438249 -3.542278
  H 2.624133 -2.097885 -2.903977
  H 3.207476 -1.324054 -5.797988
  H 1.701889 -2.004792 -5.194765
  H 3.172227 -2.969475 -5.166702
 28
 40.009563
  C 1.131210 0.050972 0.218086
  C 2.569381 0.124245 0.459478
  C 3.232422 0.642873 1.671341
  C 2.291583 1.085306 2.780871
  H 2.861658 1.433761 3.632529
  C 3.189509 -0.327502 -0.708798
  C 4.548836 -0.438748 -0.999912
  C 5.145921 -0.885239 -2.152447
  C 4.588302 -1.373188 -3.417474
  C 3.086462 -1.440414 -3.623628
  C 2.759841 -1.988301 -5.009756
  H 6.224833 -0.891569 -2.146332
  H 0.500422 0.804795 0.664756
  H 0.746142 -0.928459 0.514299
  H 1.288718 -0.030713 -0.947303
  H 3.881210 1.476994 1.379009
  H 3.911721 -0.125088 2.057309
  H 1.661981 0.262890 3.108247
  H 1.653673 1.900111 2.450759
  H 2.210713 -0.469039 -1.340931
  H 5.223439 -0.119275 -0.211672
  H 5.019693 -2.368710 -3.583727
  H 5.035607 -0.768447 -4.216534
  H 2.658379 -0.442157 -3.534665
  H 2.640090 -2.094004 -2.874863
  H 3.177143 -1.355290 -5.787879
  H 1.684971 -2.034437 -5.155832
  H 3.158822 -2.990910 -5.136876
 28
 51.856914
  C 1.136205 0.076513 0.223246
  C 2.560967 0.132499 0.453596
  C 3.228904 0.631551 1.682208
  C 2.291871 1.065536 2.792113
  H 2.857201 1.390369 3.641478
  C 3.184442 -0.309579 -0.709058
  C 4.544672 -0.417981 -1.011119
  C 5.142639 -0.870112 -2.162382
  C 4.587705 -1.370709 -3.424023
  C 3.088691 -1.448166 -3.627752
  C 2.764379 -2.008454 -5.007504
  H 6.208967 -0.871500 -2.158807
  H 0.530229 0.849802 0.653994
  H 0.720454 -0.890800 0.526901
  H 1.315225 -0.041469 -0.979326
  H 3.884850 1.463797 1.405799
  H 3.897318 -0.147267 2.059937
  H 1.652717 0.245115 3.104701
  H 1.665071 1.892288 2.473223
  H 2.145971 -0.445586 -1.340135
  H 5.221800 -0.083428 -0.228907
  H 5.023913 -2.364143 -3.582382
  H 5.029929 -0.770498 -4.227726
  H 2.655873 -0.452099 -3.546814
  H 2.647568 -2.097864 -2.873436
  H 3.176513 -1.381066 -5.789246
  H 1.692082 -2.061667 -5.151865
  H 3.168147 -3.007755 -5.126676
 28
 60.748714
  C 1.126062 0.128915 0.215296
  C 2.556865 0.146529 0.439348
  C 3.229856 0.591047 1.676354
  C 2.292535 1.019024 2.801896
  H 2.872708 1.306719 3.680147
  C 3.184571 -0.279753 -0.722915
  C 4.537782 -0.372075 -1.032294
  C 5.140380 -0.832843 -2.170470
  C 4.591106 -1.359737 -3.421199
  C 3.088839 -1.458951 -3.613590
  C 2.760114 -2.047047 -4.983878
  H 6.233738 -0.819716 -2.165669
  H 0.537225 0.933198 0.636101
  H 0.675325 -0.821253 0.496306
  H 1.334053 -0.030656 -1.030118
  H 3.909515 1.417161 1.423898
  H 3.876858 -0.219812 2.034698
  H 1.630117 0.208917 3.085705
  H 1.690152 1.872288 2.506929
  H 2.099521 -0.414297 -1.363106
  H 5.209490 -0.000502 -0.258948
  H 5.038527 -2.350605 -3.562460
  H 5.021923 -0.766732 -4.236295
  H 2.645024 -0.464558 -3.546805
  H 2.660847 -2.102186 -2.844176
  H 3.161505 -1.425471 -5.782574
  H 1.682937 -2.115260 -5.120021
  H 3.176160 -3.047116 -5.089580
 28
 69.018543
  C 1.116360 0.177523 0.227345
  C 2.549793 0.162937 0.431385
  C 3.230449 0.560955 1.683342
  C 2.297491 0.977375 2.814867
  H 2.877214 1.224018 3.699117
  C 3.185580 -0.249208 -0.725347
  C 4.538587 -0.330265 -1.048162
  C 5.145846 -0.800366 -2.179854
  C 4.600101 -1.354444 -3.426649
  C 3.091152 -1.473057 -3.610506
  C 2.760928 -2.085498 -4.967229
  H 6.229905 -0.775562 -2.175324
  H 0.546207 1.012873 0.655607
  H 0.638520 -0.760892 0.487328
  H 1.321618 -0.009342 -1.093120
  H 3.923735 1.376080 1.456933
  H 3.856167 -0.274017 2.021185
  H 1.614635 0.174380 3.072296
  H 1.716653 1.853082 2.542874
  H 2.046195 -0.385088 -1.408979
  H 5.201533 0.068734 -0.289993
  H 5.058378 -2.344379 -3.552755
  H 5.021879 -0.767853 -4.253151
  H 2.637638 -0.482868 -3.558070
  H 2.674183 -2.107759 -2.829568
  H 3.152430 -1.472053 -5.778714
  H 1.683051 -2.166672 -5.096150
  H 3.187172 -3.084080 -5.058962
 28
 77.007672
  C 1.111870 0.205198 0.234368
  C 2.545172 0.168372 0.415508
  C 3.228742 0.536794 1.684231
  C 2.295203 0.942329 2.816516
  H 2.873081 1.160619 3.706618
  C 3.200127 -0.228563 -0.723246
  C 4.548058 -0.303665 -1.059241
  C 5.154842 -0.777370 -2.185091
  C 4.603965 -1.349894 -3.428685
  C 3.096794 -1.478080 -3.590586
  C 2.750034 -2.108631 -4.939081
  H 6.234046 -0.743104 -2.185557
  H 0.565180 1.045658 0.666798
  H 0.607684 -0.732641 0.454977
  H 1.314590 0.005344 -1.173234
  H 3.934669 1.350619 1.477612
  H 3.836877 -0.312577 2.007705
  H 1.599352 0.144001 3.053730
  H 1.729667 1.832546 2.560789
  H 2.003730 -0.363580 -1.472164
  H 5.208530 0.124351 -0.308155
  H 5.066401 -2.340001 -3.547809
  H 5.012117 -0.767376 -4.266330
  H 2.638946 -0.488241 -3.542857
  H 2.694003 -2.106610 -2.795881
  H 3.126874 -1.503492 -5.761340
  H 1.672069 -2.196549 -5.052476
  H 3.179398 -3.104529 -5.025861
 28
 84.043798
  C 1.080891 0.265538 0.280524
  C 2.518341 0.189418 0.411894
  C 3.230683 0.503693 1.689559
  C 2.323006 0.899195 2.845383
  H 2.922182 1.071501 3.736396
  C 3.179134 -0.190663 -0.721932
  C 4.517484 -0.262568 -1.081839
  C 5.133567 -0.746235 -2.194900
  C 4.606812 -1.347772 -3.429614
  C 3.103081 -1.501935 -3.605962
  C 2.781247 -2.162103 -4.944067
  H 6.218288 -0.696993 -2.188726
  H 0.575311 1.108600 0.727317
  H 0.545171 -0.661372 0.459068
  H 1.245658 0.055080 -1.248592
  H 3.954006 1.306150 1.498092
  H 3.816483 -0.372558 1.978323
  H 1.607413 0.115358 3.067308
  H 1.782672 1.813788 2.627216
  H 1.902716 -0.313257 -1.545868
  H 5.175382 0.197111 -0.339998
  H 5.084822 -2.333530 -3.523371
  H 5.014154 -0.772641 -4.272288
  H 2.630953 -0.517237 -3.584804
  H 2.699854 -2.120885 -2.803386
  H 3.159651 -1.567442 -5.772141
  H 1.707317 -2.266953 -5.068249
  H 3.224754 -3.151673 -5.006880
 28
 90.068294
  C 1.069186 0.325123 0.304724
  C 2.499730 0.210207 0.392030
  C 3.229357 0.460717 1.687247
  C 2.335027 0.830747 2.863560
  H 2.945683 0.949109 3.756203
  C 3.181905 -0.136370 -0.727077
  C 4.510324 -0.207492 -1.107462
  C 5.132628 -0.702227 -2.210139
  C 4.611758 -1.341224 -3.433249
  C 3.110327 -1.521518 -3.594685
  C 2.790324 -2.219086 -4.907189
  H 6.215717 -0.634773 -2.206204
  H 0.597859 1.168039 0.781186
  H 0.502004 -0.583111 0.420353
  H 1.195633 0.127511 -1.365771
  H 3.965493 1.250548 1.524471
  H 3.792649 -0.444639 1.935844
  H 1.600757 0.056197 3.057855
  H 1.817328 1.769006 2.689196
  H 1.828620 -0.245253 -1.658915
  H 5.159329 0.276288 -0.381153
  H 5.101369 -2.319056 -3.504260
  H 5.003524 -0.781241 -4.288379
  H 2.626263 -0.546172 -3.597305
  H 2.722083 -2.123167 -2.775191
  H 3.155619 -1.641273 -5.753463
  H 1.717636 -2.341887 -5.021119
  H 3.247542 -3.203215 -4.945534
 28
 94.224446
  C 1.050063 0.361486 0.346536
  C 2.472469 0.225780 0.378195
  C 3.226357 0.424643 1.678004
  C 2.357921 0.775221 2.877158
  H 2.986726 0.848308 3.759471
  C 3.174856 -0.105062 -0.722834
  C 4.492951 -0.177038 -1.121753
  C 5.124624 -0.672481 -2.215594
  C 4.614874 -1.339484 -3.433802
  C 3.119223 -1.542631 -3.589824
  C 2.807881 -2.272396 -4.891603
  H 6.204036 -0.587772 -2.209782
  H 0.602947 1.193726 0.876665
  H 0.459207 -0.538739 0.394242
  H 1.127130 0.211961 -1.480137
  H 3.977084 1.206160 1.528668
  H 3.770393 -0.500028 1.886291
  H 1.607471 0.010749 3.059505
  H 1.860678 1.731478 2.744652
  H 1.741448 -0.161663 -1.779914
  H 5.133902 0.342828 -0.408592
  H 5.118034 -2.311484 -3.488976
  H 4.998052 -0.787954 -4.298379
  H 2.624344 -0.573802 -3.612947
  H 2.739961 -2.132815 -2.757632
  H 3.165932 -1.707015 -5.748859
  H 1.735131 -2.411777 -5.003574
  H 3.279369 -3.253698 -4.910428
