22

C 0.995919 0.133184 0.382278
C 2.474959 0.139601 0.397843
C 3.241344 0.61325 1.576887
C 2.445617 1.098677 2.785688
H 3.099660237059928 1.414365092272496 3.571479621521586
C 3.094363 -0.323385 -0.755027
C 4.472149 -0.412359 -0.976867
C 5.131358 -0.866652 -2.109178
C 4.616701 -1.387686 -3.407683
H 3.5683103519623955 -1.4671944737799965 -3.606316964126148
H 6.20132778480159 -0.8695802610227048 -2.116666985179655
H 0.547709 0.501033 1.298355
H 0.631306 -0.881026 0.213363
H 0.630991 0.74875 -0.441136
H 3.897308 1.429116 1.252057
H 3.89752 -0.20047 1.906587
H 1.806897 0.298207 3.164382
H 1.806711 1.938605 2.505543
H 2.434931 -0.640573 -1.544794
H 5.098162 -0.082698 -0.155609
H 5.066315 -2.378812 -3.537783
H 5.066609 -0.761636 -4.18683
