 17
 0.000000
  C 0.959151 -0.017204 -0.005816
  C 2.455407 -0.000080 0.010738
  C 3.169849 0.813036 0.796614
  C 4.606711 0.830124 0.813127
  C 5.327258 1.646735 1.602389
  C 6.765031 1.661834 1.616978
  C 7.480928 2.470489 2.398541
  H 8.553024 2.489973 2.417375
  H 0.596871 -0.755441 -0.719319
  H 0.563905 0.954618 -0.299178
  H 0.563903 -0.277297 0.975433
  H 2.955276 -0.691685 -0.657705
  H 2.659147 1.501417 1.461940
  H 5.111012 0.141513 0.147588
  H 4.823699 2.335501 2.268080
  H 7.271238 0.973710 0.951906
  H 6.984971 3.161169 3.066087
 17
 0.815192
  C 0.961342 0.042608 -0.071138
  C 2.452984 0.029009 0.009645
  C 3.157056 0.726766 0.902266
  C 4.599761 0.719916 0.969392
  C 5.324005 1.648773 1.614106
  C 6.757614 1.654255 1.657709
  C 7.477159 2.567482 2.309920
  H 8.553582 2.545348 2.323504
  H 0.615822 -0.399445 -1.001750
  H 0.579378 1.062635 -0.003558
  H 0.529857 -0.524728 0.757042
  H 2.976728 -0.550950 -0.742368
  H 2.637759 1.277587 1.673972
  H 5.106461 -0.076317 0.437584
  H 4.822068 2.446736 2.140116
  H 7.254252 0.857740 1.120599
  H 7.006778 3.372029 2.853286
 17
 6.237501
  C 0.962706 0.050032 -0.095333
  C 2.452067 0.043951 0.029564
  C 3.135588 0.788715 0.907055
  C 4.581048 0.736565 1.003080
  C 5.322100 1.693987 1.579161
  C 6.760371 1.649873 1.668005
  C 7.495082 2.571707 2.285721
  H 8.568887 2.503214 2.341320
  H 0.651179 -0.312869 -1.071494
  H 0.571754 1.054828 0.047834
  H 0.509297 -0.585612 0.662213
  H 2.996696 -0.450832 -0.760827
  H 2.612456 1.059976 1.813892
  H 5.072506 -0.103650 0.530579
  H 4.834366 2.546922 2.033150
  H 7.241382 0.802235 1.195106
  H 7.043790 3.427809 2.758828
 17
 19.397462
  C 0.974366 0.063343 -0.143508
  C 2.451965 0.038599 0.073963
  C 3.104185 0.832005 0.945974
  C 4.562147 0.751951 1.023854
  C 5.325435 1.702454 1.567869
  C 6.761428 1.648296 1.629618
  C 7.499348 2.545145 2.250885
  H 8.569485 2.478630 2.291625
  H 0.719611 -0.365183 -1.098708
  H 0.599299 1.077213 -0.099474
  H 0.454374 -0.513682 0.628415
  H 3.032606 -0.470605 -0.671970
  H 2.624594 0.799990 1.918968
  H 5.031695 -0.096713 0.584753
  H 4.858285 2.571391 2.006366
  H 7.227683 0.813537 1.141670
  H 7.051137 3.361869 2.794312
 17
 38.094534
  C 1.013609 0.095019 -0.174404
  C 2.463694 0.075437 0.103252
  C 3.082244 0.901508 0.995205
  C 4.525402 0.771619 1.090815
  C 5.287902 1.697497 1.618821
  C 6.737515 1.635693 1.638235
  C 7.523021 2.541760 2.219976
  H 8.592395 2.463231 2.202448
  H 0.798668 -0.355984 -1.151515
  H 0.660731 1.110145 -0.172195
  H 0.439761 -0.452088 0.577191
  H 3.075342 -0.463222 -0.594438
  H 2.535433 0.581573 1.871484
  H 4.998843 -0.101691 0.631337
  H 4.824976 2.562509 2.071009
  H 7.172314 0.782464 1.149609
  H 7.113795 3.393982 2.768953
 17
 65.628656
  C 0.977557 0.094253 -0.161950
  C 2.434385 0.044883 0.174986
  C 3.082888 1.016489 0.954553
  C 4.536995 0.866834 0.982732
  C 5.327185 1.739157 1.616756
  C 6.764946 1.669077 1.623463
  C 7.544420 2.513964 2.296791
  H 8.618160 2.436889 2.283702
  H 0.773446 -0.488895 -1.056330
  H 0.668096 1.123069 -0.331385
  H 0.356997 -0.305108 0.642978
  H 3.008035 -0.674126 -0.386867
  H 2.539425 0.404673 1.700053
  H 4.999123 0.060793 0.411468
  H 4.874791 2.551190 2.170153
  H 7.208711 0.872673 1.038088
  H 7.127482 3.313853 2.886795
 17
 79.308652
  C 0.951995 0.121005 -0.109078
  C 2.424366 0.035501 0.216424
  C 3.113230 1.064735 0.892656
  C 4.563830 0.926431 0.892351
  C 5.345577 1.749126 1.610939
  C 6.784173 1.705080 1.607330
  C 7.549549 2.494631 2.357640
  H 8.624889 2.440115 2.334468
  H 0.712815 -0.520765 -0.952783
  H 0.683817 1.144889 -0.359009
  H 0.328535 -0.186687 0.729072
  H 2.952451 -0.759864 -0.331885
  H 2.520168 0.143712 1.496869
  H 5.040884 0.185687 0.242680
  H 4.878915 2.490870 2.244986
  H 7.240590 0.977040 0.947758
  H 7.119482 3.225425 3.023200
 17
 76.072151
  C 0.949837 0.161185 -0.085639
  C 2.427091 0.023079 0.249836
  C 3.143446 1.085339 0.873522
  C 4.585187 0.951633 0.857507
  C 5.361438 1.762924 1.599908
  C 6.798816 1.734622 1.594138
  C 7.553925 2.511361 2.369524
  H 8.629460 2.470693 2.346360
  H 0.685639 -0.490911 -0.914268
  H 0.725716 1.188093 -0.365832
  H 0.314011 -0.096199 0.758117
  H 2.936451 -0.769207 -0.332029
  H 2.475177 -0.118239 1.425294
  H 5.068639 0.229752 0.189934
  H 4.885703 2.481884 2.253792
  H 7.264140 1.031985 0.913340
  H 7.113835 3.215887 3.056210
 17
 69.761252
  C 0.952687 0.186421 -0.062332
  C 2.418192 -0.027273 0.320420
  C 3.155865 1.087140 0.870516
  C 4.581404 0.967060 0.825126
  C 5.360561 1.762151 1.594384
  C 6.794275 1.749030 1.576682
  C 7.545244 2.504405 2.378633
  H 8.620873 2.480338 2.344937
  H 0.675860 -0.464747 -0.887817
  H 0.795040 1.217738 -0.369363
  H 0.283257 -0.018211 0.768504
  H 2.921151 -0.794680 -0.293209
  H 2.403629 -0.413974 1.380024
  H 5.068211 0.277369 0.127241
  H 4.880404 2.444683 2.283271
  H 7.263436 1.080962 0.864717
  H 7.100512 3.173243 3.097161
 17
 66.649988
  C 0.977966 0.233153 -0.023592
  C 2.414150 -0.118453 0.378830
  C 3.145508 0.973651 1.038223
  C 4.571815 0.875717 0.936100
  C 5.350013 1.716568 1.659588
  C 6.784692 1.733478 1.617507
  C 7.529006 2.558412 2.360796
  H 8.604540 2.559195 2.311608
  H 0.703477 -0.271992 -0.946724
  H 0.890306 1.305496 -0.178436
  H 0.265968 -0.052336 0.746350
  H 2.947848 -0.624313 -0.441588
  H 2.394502 -0.847873 1.202776
  H 5.060885 0.163918 0.259676
  H 4.864057 2.418398 2.324738
  H 7.259830 1.033882 0.940198
  H 7.076793 3.259645 3.043096
 17
 66.062001
  C 0.978209 0.306554 -0.022650
  C 2.441659 -0.083983 0.206557
  C 3.171387 0.767003 1.155045
  C 4.583833 0.712229 1.086778
  C 5.338032 1.661398 1.702011
  C 6.767333 1.702313 1.662020
  C 7.491911 2.666773 2.236293
  H 8.567874 2.666543 2.207966
  H 0.689249 0.127020 -1.055264
  H 0.837825 1.362459 0.193912
  H 0.309225 -0.257386 0.621859
  H 2.950887 -0.317244 -0.740345
  H 2.483509 -1.011421 0.805401
  H 5.102287 -0.089527 0.548608
  H 4.830661 2.467077 2.215953
  H 7.262381 0.892300 1.140080
  H 7.022598 3.486757 2.754559
 17
 65.893518
  C 0.968576 0.337936 -0.001736
  C 2.464168 -0.039208 0.086276
  C 3.204718 0.584830 1.179961
  C 4.599902 0.590777 1.207865
  C 5.321957 1.623889 1.730162
  C 6.746637 1.660098 1.746165
  C 7.463031 2.725095 2.136344
  H 8.537999 2.710897 2.161010
  H 0.668967 0.486884 -1.035447
  H 0.783907 1.261365 0.540703
  H 0.334771 -0.434070 0.428268
  H 2.933109 -0.065496 -0.879532
  H 2.633756 -1.126590 0.496629
  H 5.157478 -0.276583 0.846178
  H 4.796623 2.510820 2.055126
  H 7.257318 0.759292 1.424924
  H 6.984194 3.639346 2.447960
 17
 64.551358
  C 0.978203 0.305424 0.031431
  C 2.467566 -0.065540 0.079817
  C 3.206794 0.592884 1.165154
  C 4.589872 0.607725 1.207696
  C 5.322943 1.653876 1.706126
  C 6.744291 1.656151 1.770131
  C 7.473132 2.717757 2.139315
  H 8.545763 2.675502 2.211070
  H 0.654015 0.464653 -0.994181
  H 0.804361 1.220882 0.591644
  H 0.359122 -0.475344 0.466273
  H 2.930047 0.047506 -0.909950
  H 2.573559 -1.127481 0.345308
  H 5.148493 -0.278609 0.892397
  H 4.807544 2.567186 1.970669
  H 7.242839 0.727647 1.516966
  H 7.008565 3.659063 2.380990
