 17
 0.000000
  C 0.959403 -0.016573 -0.005206
  C 2.455635 0.000630 0.011426
  C 3.170289 0.812825 0.796409
  C 4.607475 0.829824 0.812837
  C 5.327314 1.646725 1.602378
  C 6.765287 1.661720 1.616870
  C 7.480412 2.470543 2.398593
  H 8.552546 2.489987 2.417386
  H 0.597870 -0.755147 -0.719035
  H 0.563901 0.955041 -0.299257
  H 0.563900 -0.277363 0.975858
  H 2.955752 -0.688929 -0.655041
  H 2.658919 1.498944 1.459549
  H 5.112082 0.141250 0.147333
  H 4.823466 2.335453 2.268032
  H 7.271944 0.973715 0.951911
  H 6.984187 3.161184 3.066101
 17
 9.223045
  C 0.840204 -0.026821 -0.032105
  C 2.480284 -0.032309 -0.027080
  C 3.211645 0.818189 0.805865
  C 4.637024 0.845741 0.821195
  C 5.362564 1.657787 1.620479
  C 6.796179 1.677804 1.644864
  C 7.509305 2.498073 2.416178
  H 8.585187 2.478557 2.413953
  H 0.482128 -0.706665 -0.804123
  H 0.487284 0.983240 -0.185973
  H 0.484097 -0.422599 0.917576
  H 2.959090 -0.714042 -0.699950
  H 2.685919 1.501436 1.451021
  H 5.139799 0.156208 0.153792
  H 4.862448 2.348433 2.283249
  H 7.296487 0.992977 0.968759
  H 7.031000 3.183674 3.098309
 17
 33.946520
  C 0.680219 -0.048501 -0.037690
  C 2.530947 -0.076223 -0.068987
  C 3.260881 0.820122 0.800410
  C 4.678861 0.846870 0.825349
  C 5.396056 1.666059 1.626586
  C 6.823434 1.694835 1.656036
  C 7.534875 2.510613 2.438350
  H 8.611156 2.509218 2.437523
  H 0.371546 -0.700946 -0.824875
  H 0.401596 0.977079 -0.199029
  H 0.407262 -0.410929 0.938684
  H 2.979797 -0.770778 -0.744204
  H 2.700330 1.488885 1.442593
  H 5.198038 0.161135 0.160368
  H 4.879801 2.353228 2.292603
  H 7.326899 1.014540 0.992050
  H 7.059087 3.199688 3.107825
 17
 64.477106
  C 0.481532 -0.048697 -0.040953
  C 2.621508 -0.092882 -0.086972
  C 3.306310 0.799577 0.774736
  C 4.733880 0.840750 0.818785
  C 5.431196 1.669291 1.626363
  C 6.877959 1.717278 1.673845
  C 7.565975 2.535497 2.462737
  H 8.639949 2.544254 2.477194
  H 0.216289 -0.720759 -0.838425
  H 0.268494 0.982026 -0.206252
  H 0.268263 -0.417639 0.952531
  H 3.044690 -0.795970 -0.764686
  H 2.723098 1.453766 1.401832
  H 5.266197 0.164474 0.165803
  H 4.898243 2.347692 2.283135
  H 7.401814 1.038852 1.018099
  H 7.074508 3.216068 3.124678
 17
 90.261558
  C 0.278039 -0.046884 -0.038109
  C 2.727878 -0.104055 -0.091827
  C 3.379904 0.760527 0.742820
  C 4.809762 0.824552 0.805597
  C 5.474802 1.661198 1.617501
  C 6.904461 1.732032 1.685305
  C 7.566432 2.566243 2.487308
  H 8.648719 2.589997 2.520690
  H 0.054532 -0.712641 -0.841897
  H 0.125605 0.993008 -0.208153
  H 0.110512 -0.415163 0.969172
  H 3.113605 -0.831959 -0.793358
  H 2.806524 1.426479 1.378814
  H 5.358153 0.152607 0.157537
  H 4.923071 2.334353 2.267369
  H 7.450315 1.056936 1.034185
  H 7.046565 3.243775 3.150180
 17
 108.418528
  C 0.060974 -0.046756 -0.038091
  C 2.801370 -0.129443 -0.108714
  C 3.429439 0.717995 0.711381
  C 4.872608 0.808729 0.793802
  C 5.516351 1.661944 1.620302
  C 6.958213 1.756176 1.713761
  C 7.594100 2.600322 2.517315
  H 8.669104 2.647328 2.567650
  H -0.101863 -0.717006 -0.862294
  H -0.022230 0.995339 -0.211913
  H -0.031414 -0.415081 0.972413
  H 3.136596 -0.859451 -0.816103
  H 2.856156 1.385910 1.345620
  H 5.440915 0.146923 0.155933
  H 4.945781 2.323224 2.254540
  H 7.521822 1.095967 1.074731
  H 7.064680 3.261032 3.157142
 17
 119.945182
  C -0.131877 -0.050440 -0.038873
  C 2.866522 -0.153928 -0.129040
  C 3.495256 0.696887 0.689267
  C 4.937683 0.803526 0.790447
  C 5.553908 1.660072 1.616695
  C 6.991438 1.772174 1.725307
  C 7.604572 2.625145 2.541480
  H 8.677474 2.685499 2.604021
  H -0.244484 -0.725258 -0.855095
  H -0.156553 1.002901 -0.220511
  H -0.163643 -0.416645 0.958609
  H 3.157454 -0.888488 -0.835122
  H 2.925091 1.363843 1.325827
  H 5.517478 0.147850 0.159741
  H 4.966679 2.317242 2.247701
  H 7.574899 1.112864 1.090744
  H 7.050775 3.287129 3.180738
 17
 127.190460
  C -0.336903 -0.059083 -0.052502
  C 2.936688 -0.163175 -0.137046
  C 3.557746 0.679197 0.672320
  C 4.999878 0.799776 0.788215
  C 5.597802 1.662991 1.618240
  C 7.026186 1.786673 1.743020
  C 7.621337 2.647885 2.565799
  H 8.698453 2.722107 2.635919
  H -0.398730 -0.739249 -0.868554
  H -0.318306 0.993513 -0.233504
  H -0.321641 -0.428371 0.951979
  H 3.194668 -0.909003 -0.852130
  H 2.984105 1.352785 1.313903
  H 5.588670 0.148993 0.164845
  H 5.001475 2.314781 2.240110
  H 7.623723 1.130085 1.113641
  H 7.050780 3.311773 3.195744
 17
 131.353602
  C -0.553118 -0.088491 -0.080235
  C 2.992679 -0.157077 -0.133629
  C 3.611745 0.680001 0.666138
  C 5.057898 0.805034 0.794265
  C 5.648019 1.674453 1.626820
  C 7.075049 1.804491 1.759625
  C 7.662155 2.667072 2.586378
  H 8.732283 2.745671 2.662172
  H -0.566811 -0.774949 -0.897874
  H -0.522397 0.960978 -0.266511
  H -0.505197 -0.453600 0.924993
  H 3.224764 -0.911421 -0.850207
  H 3.041384 1.349460 1.302919
  H 5.653479 0.152603 0.175121
  H 5.044264 2.325957 2.245581
  H 7.674420 1.152128 1.141104
  H 7.085470 3.331622 3.211542
 17
 133.391427
  C -0.774102 -0.138979 -0.130611
  C 3.036164 -0.138439 -0.115222
  C 3.659598 0.694393 0.680541
  C 5.109080 0.819247 0.809614
  C 5.701312 1.691446 1.643464
  C 7.130816 1.818149 1.779841
  C 7.718237 2.681671 2.601938
  H 8.790868 2.763024 2.675540
  H -0.745178 -0.830714 -0.953398
  H -0.762397 0.908136 -0.317397
  H -0.715561 -0.502631 0.875196
  H 3.250170 -0.890525 -0.828551
  H 3.084856 1.371706 1.320994
  H 5.704469 0.164474 0.191773
  H 5.097615 2.345530 2.258992
  H 7.731547 1.163628 1.160252
  H 7.145215 3.348645 3.218346
 17
 134.375868
  C -0.993833 -0.206870 -0.196650
  C 3.069002 -0.103987 -0.079215
  C 3.710657 0.726817 0.712160
  C 5.156918 0.842667 0.832205
  C 5.756769 1.712292 1.659737
  C 7.173679 1.827495 1.789156
  C 7.770452 2.693492 2.610100
  H 8.838362 2.763755 2.683259
  H -0.915718 -0.891526 -1.008050
  H -1.026275 0.846121 -0.387474
  H -0.924805 -0.565791 0.811336
  H 3.262652 -0.866346 -0.798888
  H 3.152998 1.406143 1.350823
  H 5.745865 0.180067 0.209821
  H 5.164993 2.368782 2.271015
  H 7.770984 1.161161 1.165197
  H 7.201569 3.366065 3.233696
 17
 133.824258
  C -0.908210 -0.209179 -0.199615
  C 3.029937 -0.082077 -0.058067
  C 3.672854 0.739428 0.723840
  C 5.123155 0.845759 0.837337
  C 5.733526 1.710456 1.659979
  C 7.164851 1.821390 1.777670
  C 7.771760 2.678977 2.593428
  H 8.844028 2.740491 2.661140
  H -0.851355 -0.898035 -1.012875
  H -0.968255 0.838889 -0.391758
  H -0.866393 -0.566441 0.805209
  H 3.236517 -0.842314 -0.774532
  H 3.121589 1.422082 1.363872
  H 5.703543 0.179712 0.213199
  H 5.144993 2.373624 2.281343
  H 7.750101 1.156877 1.154887
  H 7.211626 3.350697 3.223169
