 29
 0.000000
  H 1.470905 0.160528 0.452644
  C 2.549550 0.146773 0.417441
  C 3.301855 0.617496 1.587845
  C 2.446202 1.088178 2.759672
  C 3.316277 1.555945 3.922318
  C 3.121612 -0.321147 -0.747997
  C 4.494084 -0.418128 -0.989831
  C 5.143214 -0.877674 -2.135738
  C 4.608099 -1.393704 -3.422567
  C 3.111281 -1.499161 -3.686714
  C 2.868893 -2.060232 -5.085890
  O 6.458216 -0.884595 -2.153443
  H 3.962408 1.437550 1.281079
  H 3.963140 -0.186209 1.933762
  H 1.803769 0.275216 3.102834
  H 1.803074 1.912020 2.444896
  H 3.951214 0.749967 4.283262
  H 2.694004 1.888166 4.749527
  H 3.950438 2.388022 3.624746
  H 2.443950 -0.632816 -1.524054
  H 5.142189 -0.094563 -0.183563
  H 5.056447 -2.384823 -3.559275
  H 5.057018 -0.772085 -4.206244
  H 2.643692 -0.515800 -3.626944
  H 2.643118 -2.168414 -2.964130
  H 3.302782 -1.415180 -5.846239
  H 1.802073 -2.137412 -5.279288
  H 3.302252 -3.052151 -5.189717
  H 6.876024 -0.556350 -1.334038
 29
 13.373587
  H 1.672918 0.103125 0.306789
  C 2.751724 0.114396 0.333140
  C 3.378880 0.600875 1.544032
  C 2.400599 1.035203 2.628104
  C 3.134938 1.533210 3.868365
  C 3.413981 -0.332079 -0.778956
  C 4.792354 -0.365735 -0.864215
  C 5.151947 -0.850619 -2.069232
  C 4.490800 -1.349821 -3.312375
  C 2.987418 -1.449322 -3.562970
  C 2.751185 -2.011898 -4.963727
  O 6.515928 -0.950193 -2.313838
  H 4.039696 1.442213 1.299844
  H 4.041534 -0.175405 1.946963
  H 1.759733 0.195806 2.903027
  H 1.758003 1.831241 2.247973
  H 3.763332 0.751617 4.289365
  H 2.424582 1.838589 4.631824
  H 3.761634 2.390159 3.632310
  H 2.789950 -0.653794 -1.579189
  H 5.483108 -0.050772 -0.082570
  H 4.925680 -2.345430 -3.466191
  H 4.927926 -0.738281 -4.111736
  H 2.512724 -0.466420 -3.515519
  H 2.511462 -2.125682 -2.849073
  H 3.187074 -1.367216 -5.722757
  H 1.685122 -2.090393 -5.160944
  H 3.186073 -3.003030 -5.065625
  H 7.068677 -0.656203 -1.577254
 29
 41.561967
  H 1.811050 0.055278 0.182223
  C 2.886905 0.091840 0.276700
  C 3.416594 0.595729 1.531731
  C 2.358546 1.002232 2.555415
  C 2.996128 1.524146 3.841107
  C 3.660993 -0.340749 -0.801124
  C 5.023473 -0.342192 -0.805646
  C 5.146325 -0.833617 -2.023033
  C 4.407132 -1.314623 -3.220887
  C 2.905114 -1.410617 -3.468742
  C 2.683787 -1.974623 -4.875994
  O 6.496704 -1.015432 -2.465783
  H 4.078488 1.453768 1.322913
  H 4.087553 -0.156291 1.979972
  H 1.727919 0.143127 2.790277
  H 1.714528 1.776255 2.135276
  H 3.620994 0.764634 4.303702
  H 2.229371 1.806945 4.557227
  H 3.608309 2.400489 3.643229
  H 3.078486 -0.670800 -1.624766
  H 5.750276 -0.046692 -0.071458
  H 4.827588 -2.313604 -3.388116
  H 4.830880 -0.711945 -4.033303
  H 2.423894 -0.431115 -3.430075
  H 2.418756 -2.089529 -2.765404
  H 3.125492 -1.328495 -5.631383
  H 1.619699 -2.055140 -5.082505
  H 3.121982 -2.965241 -4.974246
  H 7.138592 -0.754419 -1.808478
 29
 78.865788
  H 1.864660 0.017708 0.094089
  C 2.940571 0.070195 0.222832
  C 3.430675 0.589812 1.510956
  C 2.341295 0.983562 2.511397
  C 2.939100 1.512382 3.813757
  C 3.759554 -0.355624 -0.837448
  C 5.133208 -0.321462 -0.758974
  C 5.099423 -0.812509 -1.970513
  C 4.381738 -1.301099 -3.185932
  C 2.872727 -1.387770 -3.418046
  C 2.630027 -1.954391 -4.823737
  O 6.531492 -1.036325 -2.515690
  H 4.088888 1.453097 1.327405
  H 4.101476 -0.151521 1.972920
  H 1.711769 0.117234 2.730819
  H 1.698679 1.751823 2.073837
  H 3.559756 0.759138 4.292210
  H 2.150187 1.786024 4.509600
  H 3.546626 2.395865 3.633949
  H 3.161864 -0.677243 -1.637883
  H 5.859360 -0.034692 -0.048431
  H 4.801654 -2.297498 -3.351637
  H 4.808872 -0.703655 -3.996694
  H 2.395552 -0.402484 -3.376047
  H 2.387627 -2.063878 -2.705524
  H 3.067838 -1.311680 -5.587139
  H 1.560792 -2.028186 -5.017161
  H 3.061224 -2.949886 -4.925538
  H 7.198310 -0.779646 -1.871327
 29
 113.623351
  H 1.858767 0.024573 0.105737
  C 2.933308 0.074267 0.228890
  C 3.425564 0.590404 1.510152
  C 2.346742 0.979014 2.505181
  C 2.943799 1.505080 3.803770
  C 3.747092 -0.352520 -0.837765
  C 5.148861 -0.297738 -0.722600
  C 4.979025 -0.788647 -1.920121
  C 4.356282 -1.293815 -3.166476
  C 2.852528 -1.389048 -3.428368
  C 2.634241 -1.961058 -4.834066
  O 6.577238 -1.056158 -2.554583
  H 4.079493 1.447440 1.332462
  H 4.093482 -0.143711 1.966870
  H 1.717284 0.112011 2.723831
  H 1.701971 1.747407 2.070202
  H 3.566060 0.753002 4.281804
  H 2.155398 1.776248 4.499555
  H 3.549226 2.389940 3.624741
  H 3.096163 -0.665645 -1.628160
  H 5.893015 -0.011242 -0.016963
  H 4.797190 -2.285399 -3.311445
  H 4.809578 -0.694756 -3.963194
  H 2.371380 -0.401672 -3.399251
  H 2.358659 -2.068300 -2.719540
  H 3.083226 -1.318315 -5.593371
  H 1.566220 -2.039973 -5.045319
  H 3.072410 -2.956847 -4.925296
  H 7.237019 -0.798233 -1.899959
 29
 136.314743
  H 1.822059 -0.043025 0.170476
  C 2.896858 0.024931 0.259605
  C 3.423358 0.583378 1.522307
  C 2.343640 0.975263 2.529610
  C 2.947927 1.547749 3.809015
  C 3.665932 -0.397949 -0.797680
  C 5.130231 -0.261886 -0.718774
  C 4.842880 -0.822118 -1.855364
  C 4.323660 -1.301707 -3.139932
  C 2.828597 -1.392522 -3.462567
  C 2.657272 -1.928990 -4.878868
  O 6.707284 -1.141994 -2.620205
  H 4.052477 1.466140 1.321374
  H 4.119371 -0.135605 1.985119
  H 1.738839 0.094436 2.766654
  H 1.675379 1.717819 2.084895
  H 3.596671 0.821056 4.296000
  H 2.162198 1.816663 4.511275
  H 3.530266 2.443621 3.600325
  H 2.975192 -0.738246 -1.567043
  H 5.892414 0.075658 -0.059927
  H 4.776323 -2.291366 -3.277479
  H 4.811624 -0.672218 -3.894350
  H 2.364574 -0.404417 -3.411368
  H 2.331697 -2.079861 -2.773096
  H 3.127040 -1.272943 -5.602697
  H 1.605306 -2.002611 -5.125795
  H 3.095722 -2.915207 -4.976938
  H 7.381386 -0.881033 -1.989673
 29
 129.812877
  H 1.654176 -0.201336 0.511586
  C 2.725037 -0.065565 0.447950
  C 3.374783 0.586397 1.605633
  C 2.404740 0.971682 2.717955
  C 3.122123 1.641859 3.882965
  C 3.346178 -0.505798 -0.667616
  C 4.882193 -0.294791 -0.739495
  C 4.512820 -0.806485 -1.834623
  C 4.254731 -1.231495 -3.169480
  C 2.814423 -1.536454 -3.584997
  C 2.763804 -1.958187 -5.054207
  O 6.947773 -0.944595 -2.900649
  H 3.922873 1.477347 1.268580
  H 4.157352 -0.064895 2.018969
  H 1.888730 0.071952 3.063825
  H 1.645937 1.642198 2.305628
  H 3.863329 0.975248 4.321313
  H 2.411528 1.907334 4.663229
  H 3.621787 2.554694 3.562618
  H 2.640933 -0.943361 -1.377960
  H 5.611887 0.106370 -0.079165
  H 4.900276 -2.101654 -3.366839
  H 4.710162 -0.474149 -3.829733
  H 2.202114 -0.640170 -3.461604
  H 2.418527 -2.355560 -2.977178
  H 3.144885 -1.171250 -5.703385
  H 1.740008 -2.178260 -5.349153
  H 3.357164 -2.854686 -5.225817
  H 7.677593 -0.683699 -2.331933
 29
 118.888585
  H 1.539432 -0.119963 0.691010
  C 2.609941 -0.012231 0.579358
  C 3.327432 0.625862 1.701810
  C 2.409498 1.032354 2.848338
  C 3.181164 1.687106 3.984769
  C 3.158312 -0.480009 -0.560748
  C 4.636192 -0.345858 -0.787321
  C 4.488862 -0.850131 -1.943744
  C 4.293694 -1.272618 -3.260797
  C 2.861236 -1.576121 -3.731613
  C 2.856364 -2.005431 -5.190100
  O 7.122976 -0.970355 -2.991507
  H 3.868026 1.511805 1.348713
  H 4.102461 -0.047497 2.085343
  H 1.887065 0.151351 3.228121
  H 1.649002 1.725233 2.482111
  H 3.925983 1.007627 4.392396
  H 2.506963 1.966765 4.789891
  H 3.689469 2.586666 3.645511
  H 2.467218 -0.914036 -1.270251
  H 5.320916 0.055234 -0.077908
  H 4.931880 -2.156565 -3.412070
  H 4.748936 -0.499296 -3.900083
  H 2.243596 -0.684650 -3.621209
  H 2.445729 -2.384409 -3.127700
  H 3.255168 -1.223995 -5.831703
  H 1.841170 -2.221720 -5.509370
  H 3.453204 -2.901297 -5.337097
  H 7.900148 -0.727993 -2.484746
