 17
 0.000000
  H 1.457515 0.109917 0.324460
  C 2.537432 0.111792 0.329315
  C 3.209043 0.597925 1.538018
  H 2.494882 0.902210 2.295092
  C 3.164743 -0.345341 -0.808165
  C 4.554058 -0.408737 -0.966745
  C 5.221006 -0.866350 -2.107578
  C 4.569293 -1.358504 -3.335589
  H 3.488838 -1.338098 -3.286858
  O 6.523558 -0.884825 -2.153806
  H 3.861697 1.440857 1.304452
  H 3.862133 -0.171810 1.952876
  H 2.533305 -0.671561 -1.620310
  H 5.167963 -0.077138 -0.139946
  H 4.911052 -2.373932 -3.537262
  H 4.912300 -0.764500 -4.182772
  H 6.981558 -0.562071 -1.350553
 17
 12.568310
  H 1.528451 0.149998 0.424092
  C 2.610437 0.086788 0.267601
  C 3.387513 0.558066 1.438491
  H 2.710923 0.877435 2.232094
  C 3.000203 -0.395071 -0.930348
  C 4.340220 -0.400002 -0.944408
  C 5.149522 -0.839395 -2.040753
  C 4.605879 -1.352187 -3.320548
  H 3.529161 -1.363309 -3.351385
  O 6.447057 -0.808690 -1.965779
  H 4.031772 1.405701 1.183090
  H 4.032085 -0.229884 1.841386
  H 2.325180 -0.707544 -1.707488
  H 4.909703 -0.056283 -0.087243
  H 4.989420 -2.357360 -3.496036
  H 4.991440 -0.747872 -4.141720
  H 6.818389 -0.473551 -1.129504
 17
 44.606427
  H 1.616462 0.182111 0.499594
  C 2.689495 0.070422 0.224931
  C 3.487278 0.533757 1.380518
  H 2.818818 0.850446 2.167799
  C 2.885314 -0.426000 -1.010352
  C 4.196862 -0.388668 -0.917571
  C 5.115381 -0.829612 -2.017953
  C 4.640115 -1.344967 -3.299863
  H 3.565230 -1.370776 -3.364626
  O 6.407513 -0.771542 -1.877671
  H 4.118940 1.381969 1.135016
  H 4.117838 -0.249158 1.789944
  H 2.161963 -0.725967 -1.759903
  H 4.761008 -0.056137 -0.084163
  H 5.043069 -2.341748 -3.460045
  H 5.043748 -0.737272 -4.105446
  H 6.732050 -0.427341 -1.022438
 17
 85.993836
  H 1.685214 0.195201 0.521638
  C 2.747958 0.055569 0.185201
  C 3.537444 0.526316 1.364158
  H 2.861131 0.844019 2.146917
  C 2.806095 -0.453579 -1.075458
  C 4.100981 -0.371668 -0.876736
  C 5.102112 -0.824042 -2.006764
  C 4.656183 -1.343839 -3.296122
  H 3.581228 -1.377552 -3.377497
  O 6.385783 -0.748428 -1.825867
  H 4.167459 1.375604 1.124856
  H 4.159638 -0.257267 1.781071
  H 2.074031 -0.740058 -1.791191
  H 4.729621 -0.055813 -0.079718
  H 5.069812 -2.341892 -3.449286
  H 5.068628 -0.730776 -4.098778
  H 6.680625 -0.400505 -0.963461
 17
 127.222444
  H 1.714624 0.238965 0.526608
  C 2.786558 0.050096 0.175748
  C 3.546788 0.537759 1.372441
  H 2.854398 0.881693 2.135908
  C 2.755762 -0.503481 -1.098033
  C 4.034799 -0.372566 -0.809107
  C 5.123642 -0.830062 -2.021667
  C 4.674865 -1.338789 -3.320064
  H 3.597827 -1.375576 -3.390611
  O 6.400344 -0.740567 -1.819411
  H 4.200452 1.383394 1.119911
  H 4.158432 -0.260867 1.819353
  H 2.017166 -0.784162 -1.796463
  H 4.746061 -0.092487 -0.060467
  H 5.086662 -2.328408 -3.487859
  H 5.072923 -0.716176 -4.115083
  H 6.671203 -0.396433 -0.943508
 17
 156.529743
  H 1.726585 0.303743 0.496192
  C 2.788677 0.057012 0.202601
  C 3.534135 0.568708 1.415244
  H 2.840758 0.960918 2.147689
  C 2.726636 -0.570596 -1.077317
  C 3.978406 -0.390007 -0.718943
  C 5.160393 -0.845399 -2.062113
  C 4.701623 -1.329612 -3.367014
  H 3.620315 -1.374422 -3.416582
  O 6.441180 -0.744875 -1.863114
  H 4.217631 1.377028 1.142307
  H 4.109136 -0.228271 1.895860
  H 1.987269 -0.849707 -1.780021
  H 4.748944 -0.149695 -0.018224
  H 5.118711 -2.317593 -3.561786
  H 5.079736 -0.683569 -4.160937
  H 6.694551 -0.424123 -0.983456
 17
 167.650587
  H 1.604588 0.412991 0.591069
  C 2.656575 0.177675 0.457222
  C 3.353157 0.651003 1.706186
  H 2.623404 1.065411 2.397910
  C 2.696023 -0.529740 -0.946731
  C 3.860330 -0.301546 -0.521135
  C 5.348422 -0.912254 -2.321461
  C 4.844928 -1.437437 -3.613028
  H 3.759827 -1.483670 -3.618835
  O 6.652149 -0.867025 -2.262886
  H 4.073255 1.439250 1.476227
  H 3.880913 -0.159376 2.219740
  H 1.974115 -0.805704 -1.672981
  H 4.734122 -0.078137 0.036381
  H 5.255748 -2.432279 -3.794577
  H 5.193341 -0.814533 -4.435941
  H 6.994221 -0.546098 -1.410260
 17
 165.184982
  H 1.557455 0.495090 0.589122
  C 2.608205 0.231920 0.558989
  C 3.273984 0.703983 1.825034
  H 2.537934 1.170038 2.472403
  C 2.674780 -0.578300 -0.859746
  C 3.785950 -0.248589 -0.386023
  C 5.434860 -0.941826 -2.428053
  C 4.904213 -1.453336 -3.727444
  H 3.820204 -1.486002 -3.721224
  O 6.751413 -0.922621 -2.440390
  H 4.044149 1.443432 1.603680
  H 3.744634 -0.112977 2.378609
  H 1.962873 -0.912770 -1.571790
  H 4.717418 -0.041943 0.079353
  H 5.300985 -2.451232 -3.919206
  H 5.250234 -0.827105 -4.551268
  H 7.135801 -0.666628 -1.581663
 17
 162.095003
  H 1.559195 0.582823 0.591947
  C 2.594201 0.277304 0.626864
  C 3.222560 0.728707 1.915539
  H 2.481849 1.234001 2.528628
  C 2.663604 -0.611949 -0.832976
  C 3.726059 -0.203361 -0.292020
  C 5.489768 -0.964898 -2.501519
  C 4.938742 -1.478484 -3.793020
  H 3.854443 -1.505981 -3.773837
  O 6.806213 -0.949636 -2.548692
  H 4.038449 1.425391 1.715846
  H 3.636179 -0.103838 2.494252
  H 1.972542 -0.977723 -1.548478
  H 4.693946 -0.023749 0.099233
  H 5.331512 -2.477291 -3.988388
  H 5.275412 -0.853279 -4.621501
  H 7.206614 -0.669676 -1.709752
 17
 151.611197
  H 1.591202 0.698665 0.460087
  C 2.582025 0.323941 0.656535
  C 3.158434 0.740822 1.976800
  H 2.413365 1.317199 2.516393
  C 2.689370 -0.671140 -0.734514
  C 3.742198 -0.182949 -0.228327
  C 5.564968 -0.966948 -2.568105
  C 4.940251 -1.467907 -3.823895
  H 3.859149 -1.492400 -3.743180
  O 6.869658 -0.955382 -2.663468
  H 4.034857 1.361320 1.832680
  H 3.421344 -0.104621 2.612565
  H 1.986906 -1.086183 -1.410183
  H 4.755723 -0.055790 0.063335
  H 5.308036 -2.474318 -4.030813
  H 5.241426 -0.848303 -4.668840
  H 7.309428 -0.676301 -1.836245
