 18
 0.000000
  C 0.945010 0.135195 0.400941
  C 2.418223 0.137987 0.402237
  C 3.209647 0.601483 1.556389
  C 2.469070 1.100511 2.779402
  C 3.423304 1.542028 3.879964
  C 3.063317 -0.310985 -0.724483
  H 4.133759 -0.348424 -0.822972
  H 0.508864 0.495736 1.325380
  H 0.576742 -0.875278 0.213389
  H 0.565114 0.748023 -0.419515
  H 3.885001 1.394126 1.204057
  H 3.877169 -0.218570 1.857293
  H 1.821457 0.312148 3.175067
  H 1.828974 1.946876 2.512238
  H 4.057754 0.720463 4.204777
  H 2.865427 1.894520 4.743475
  H 4.065316 2.352852 3.543178
  H 2.470897 -0.645658 -1.560545
 18
 4.404667
  C 0.917666 0.077615 0.442608
  C 2.357729 0.136951 0.403601
  C 3.182512 0.607302 1.549953
  C 2.468025 1.113485 2.787555
  C 3.438812 1.548517 3.876448
  C 3.038368 -0.291045 -0.727525
  H 4.117514 -0.293886 -0.769375
  H 0.443738 0.446037 1.332955
  H 0.503939 -0.889094 0.177875
  H 0.788790 0.723154 -0.412078
  H 3.884161 1.376971 1.191432
  H 3.851802 -0.224408 1.825964
  H 1.811629 0.337018 3.190530
  H 1.832108 1.965160 2.527250
  H 4.068872 0.721793 4.196385
  H 2.895527 1.909169 4.745973
  H 4.087435 2.350843 3.531796
  H 2.505942 -0.633697 -1.604691
 18
 11.786282
  C 0.910376 0.018310 0.480892
  C 2.335255 0.122233 0.421358
  C 3.170342 0.616797 1.545844
  C 2.457969 1.121656 2.785923
  C 3.447191 1.561769 3.864225
  C 3.021673 -0.286213 -0.724802
  H 4.101622 -0.293613 -0.757379
  H 0.415280 0.370545 1.364877
  H 0.451879 -0.884946 0.069569
  H 0.997632 0.755479 -0.327969
  H 3.881035 1.373705 1.195421
  H 3.810472 -0.233389 1.813152
  H 1.807031 0.346071 3.195154
  H 1.827209 1.975660 2.526620
  H 4.077992 0.732406 4.179441
  H 2.915401 1.929294 4.739827
  H 4.093370 2.361713 3.505536
  H 2.503307 -0.604465 -1.621009
 18
 18.664492
  C 0.910862 -0.011883 0.513842
  C 2.335724 0.113874 0.412923
  C 3.169272 0.617791 1.542218
  C 2.445699 1.115635 2.776110
  C 3.438941 1.574791 3.844853
  C 3.022134 -0.298626 -0.744354
  H 4.092562 -0.336654 -0.770588
  H 0.420304 0.302083 1.422533
  H 0.409810 -0.822599 -0.004017
  H 1.169852 0.825652 -0.200787
  H 3.870645 1.381157 1.197254
  H 3.803795 -0.239642 1.816060
  H 1.813291 0.325124 3.194643
  H 1.801588 1.962207 2.517111
  H 4.084437 0.754169 4.158401
  H 2.908479 1.939704 4.724508
  H 4.070744 2.383438 3.474846
  H 2.500115 -0.595091 -1.636839
 18
 23.461535
  C 0.918482 -0.035184 0.529910
  C 2.334885 0.113113 0.406577
  C 3.172190 0.611813 1.535383
  C 2.439004 1.112195 2.773167
  C 3.430139 1.588465 3.830184
  C 3.014062 -0.311181 -0.753214
  H 4.083013 -0.368980 -0.775064
  H 0.429319 0.219585 1.457727
  H 0.391986 -0.737259 -0.091094
  H 1.307543 0.881165 -0.065479
  H 3.858292 1.379517 1.188304
  H 3.801802 -0.237247 1.814330
  H 1.827036 0.315852 3.200683
  H 1.786132 1.946168 2.513450
  H 4.088501 0.775951 4.143985
  H 2.900610 1.952225 4.712538
  H 4.050053 2.404211 3.449724
  H 2.485207 -0.602203 -1.646073
 18
 27.152352
  C 0.917919 -0.055981 0.540471
  C 2.329115 0.119075 0.400879
  C 3.175296 0.608129 1.534698
  C 2.438094 1.110065 2.771193
  C 3.427938 1.599714 3.822654
  C 3.009129 -0.318886 -0.764484
  H 4.081933 -0.382533 -0.785458
  H 0.429017 0.155298 1.476558
  H 0.370964 -0.668858 -0.155717
  H 1.409155 0.916764 0.028794
  H 3.853151 1.381251 1.181431
  H 3.812024 -0.237958 1.820164
  H 1.838415 0.311850 3.206287
  H 1.774818 1.939238 2.509520
  H 4.092117 0.798073 4.135773
  H 2.901086 1.960633 4.701864
  H 4.035778 2.414697 3.438432
  H 2.478841 -0.617146 -1.647628
 18
 30.567326
  C 0.914847 -0.074121 0.545626
  C 2.325625 0.129984 0.397358
  C 3.181314 0.608265 1.534760
  C 2.440041 1.108927 2.769097
  C 3.429075 1.607329 3.821909
  C 3.005206 -0.321056 -0.770368
  H 4.078615 -0.379540 -0.792595
  H 0.420352 0.126042 1.479989
  H 0.359489 -0.631575 -0.193369
  H 1.487215 0.928957 0.076433
  H 3.855580 1.387868 1.178096
  H 3.823289 -0.240019 1.824709
  H 1.850634 0.311230 3.203655
  H 1.768878 1.934665 2.505525
  H 4.099683 0.810732 4.134822
  H 2.900280 1.965488 4.702582
  H 4.029950 2.424977 3.437119
  H 2.468338 -0.633504 -1.646374
 18
 33.971752
  C 0.915904 -0.087260 0.552722
  C 2.323985 0.141975 0.394240
  C 3.184981 0.611652 1.536217
  C 2.443015 1.111886 2.768547
  C 3.426657 1.606104 3.813550
  C 3.001269 -0.315318 -0.770646
  H 4.074008 -0.375170 -0.793437
  H 0.424150 0.118043 1.486816
  H 0.357824 -0.622919 -0.197206
  H 1.552589 0.933500 0.092476
  H 3.864004 1.398405 1.178317
  H 3.822618 -0.236811 1.827056
  H 1.845944 0.302069 3.210062
  H 1.772736 1.937634 2.506292
  H 4.094266 0.811654 4.123324
  H 2.899201 1.962336 4.693631
  H 4.034430 2.433652 3.424265
  H 2.470355 -0.632112 -1.642431
 18
 36.506281
  C 0.914774 -0.111177 0.555033
  C 2.319633 0.157926 0.391296
  C 3.189510 0.615676 1.536530
  C 2.447262 1.115744 2.773145
  C 3.434847 1.612915 3.819654
  C 3.004405 -0.316766 -0.778877
  H 4.075270 -0.367574 -0.799233
  H 0.409979 0.106239 1.480308
  H 0.357261 -0.618761 -0.214698
  H 1.601972 0.954104 0.088262
  H 3.866627 1.398751 1.181266
  H 3.822130 -0.232963 1.823226
  H 1.854943 0.306900 3.214740
  H 1.774214 1.941903 2.512185
  H 4.106503 0.819545 4.126881
  H 2.908450 1.968113 4.702262
  H 4.033176 2.434330 3.432882
  H 2.463414 -0.650371 -1.645650
 18
 38.841999
  C 0.915453 -0.130906 0.562457
  C 2.316046 0.172230 0.388785
  C 3.192584 0.619333 1.538271
  C 2.451403 1.120186 2.774310
  C 3.438160 1.615875 3.817720
  C 3.004658 -0.314681 -0.785185
  H 4.077365 -0.356396 -0.807094
  H 0.406962 0.096389 1.482617
  H 0.357306 -0.623166 -0.216675
  H 1.652870 0.980544 0.078641
  H 3.874851 1.401896 1.185255
  H 3.818392 -0.233268 1.824258
  H 1.858830 0.311722 3.216961
  H 1.780189 1.945351 2.514091
  H 4.112849 0.818660 4.124922
  H 2.910126 1.972563 4.705012
  H 4.033723 2.434420 3.431199
  H 2.462686 -0.658832 -1.642154
 18
 40.725265
  C 0.917022 -0.153095 0.564912
  C 2.310989 0.183615 0.382805
  C 3.193903 0.620229 1.541001
  C 2.453996 1.125199 2.777213
  C 3.446272 1.620258 3.823890
  C 3.004421 -0.310086 -0.791738
  H 4.077265 -0.337633 -0.816191
  H 0.404821 0.081407 1.480992
  H 0.359760 -0.636426 -0.220758
  H 1.702641 1.007656 0.062046
  H 3.878350 1.396430 1.192454
  H 3.807912 -0.233178 1.825522
  H 1.863276 0.323126 3.218943
  H 1.783706 1.954734 2.515718
  H 4.119376 0.820755 4.131693
  H 2.921474 1.976701 4.708259
  H 4.045910 2.440929 3.436056
  H 2.460822 -0.669452 -1.645845
 18
 42.600887
  C 0.920853 -0.167909 0.573454
  C 2.315283 0.193522 0.379392
  C 3.199305 0.621946 1.539436
  C 2.457284 1.130702 2.772225
  C 3.449314 1.625876 3.824250
  C 3.000543 -0.302622 -0.795219
  H 4.073610 -0.322447 -0.829875
  H 0.409990 0.071508 1.489095
  H 0.363010 -0.645499 -0.211168
  H 1.756849 1.028161 0.053635
  H 3.890457 1.394602 1.192932
  H 3.812318 -0.242890 1.829191
  H 1.858855 0.326657 3.215535
  H 1.797657 1.951463 2.510380
  H 4.115563 0.829475 4.133064
  H 2.921834 1.984370 4.707310
  H 4.050843 2.441915 3.438779
  H 2.455628 -0.664179 -1.643677
 18
 43.542012
  C 0.926598 -0.190831 0.576217
  C 2.309969 0.203841 0.378324
  C 3.201127 0.620134 1.544995
  C 2.462176 1.137252 2.777032
  C 3.457294 1.629622 3.824508
  C 3.001100 -0.298563 -0.798938
  H 4.073698 -0.288333 -0.840845
  H 0.409466 0.048349 1.488550
  H 0.369833 -0.661019 -0.215714
  H 1.808804 1.059095 0.035215
  H 3.899445 1.385532 1.201419
  H 3.798776 -0.247222 1.833836
  H 1.862373 0.342427 3.221971
  H 1.801605 1.967179 2.510540
  H 4.122657 0.827591 4.135584
  H 2.934458 1.992990 4.706476
  H 4.063995 2.443053 3.434541
  H 2.452781 -0.673495 -1.642151
 18
 44.080306
  C 0.933685 -0.211296 0.586023
  C 2.307020 0.216183 0.374262
  C 3.203032 0.620433 1.546822
  C 2.466160 1.147306 2.775841
  C 3.464049 1.633440 3.823390
  C 3.000544 -0.285146 -0.808850
  H 4.072969 -0.257862 -0.853737
  H 0.418438 0.023541 1.500309
  H 0.378161 -0.684802 -0.204326
  H 1.869428 1.094075 0.011763
  H 3.911515 1.377989 1.206612
  H 3.787977 -0.255507 1.838161
  H 1.858415 0.358950 3.222981
  H 1.813688 1.981174 2.505887
  H 4.121745 0.826754 4.136838
  H 2.943060 2.003312 4.704217
  H 4.077920 2.440502 3.432734
  H 2.450968 -0.677214 -1.643164
