15

H 1.3624286555278677 0.059947527370613776 0.20689645463666334
C 2.424974 0.069179 0.08115
C 3.248696 -0.004587 1.365158
H 2.7331133226566893 -0.06634695085652198 2.300711425141346
C 3.017728 0.134968 -1.13073
C 2.353533 0.203451 -2.496096
C 0.840115 0.220981 -2.702321
H 0.6034135440766808 0.27230833799605036 -3.7445483864843605
H 4.0854390163490235 0.13741853403514423 -1.2006383718153875
H 3.8896 0.880588 1.418491
H 3.899155 -0.883725 1.300746
H 2.730735 -0.652002 -3.068389
H 2.739256 1.105927 -2.984226
H 0.395495 1.088428 -2.215737
H 0.386466 -0.684479 -2.30109
