32
 0
 C 1.03721000 0.11964000 0.34718000
 C 2.54859000 0.13088000 0.37517000
 C 3.29293000 0.62339000 1.60208000
 C 2.43320000 1.09673000 2.78124000
 C 3.27663000 1.56790000 3.95500000
 C 3.15747000 -0.31776000 -0.74244000
 C 4.57122000 -0.42704000 -1.01468000
 C 5.18508000 -0.87501000 -2.13064000
 C 4.63497000 -1.40402000 -3.44849000
 C 3.12843000 -1.50072000 -3.68939000
 C 2.78870000 -2.05306000 -5.06533000
 O 6.57973000 -0.88773000 -2.16232000
 H 0.56589000 0.48560000 1.25882000
 H 0.67224000 -0.90203000 0.18999000
 H 0.67223000 0.74905000 -0.47280000
 H 3.94381000 1.45480000 1.30123000
 H 3.94381000 -0.18528000 1.95959000
 H 1.78756000 0.28021000 3.12611000
 H 1.78756000 1.92507000 2.46584000
 H 3.91350000 0.76119000 4.33033000
 H 2.62740000 1.89639000 4.77333000
 H 3.91350000 2.41021000 3.66837000
 H 2.48878000 -0.63351000 -1.52902000
 H 5.20397000 -0.09722000 -0.19304000
 H 5.06023000 -2.40702000 -3.59251000
 H 5.06023000 -0.77900000 -4.24603000
 H 2.67399000 -0.50693000 -3.61054000
 H 2.67399000 -2.16417000 -2.94529000
 H 3.18899000 -1.41281000 -5.85693000
 H 1.70107000 -2.10158000 -5.18620000
 H 3.18899000 -3.06293000 -5.19453000
 H 6.92882000 -0.54999000 -1.32098000
