 32
 0.000000
  C 0.909576 0.049086 0.267105
  C 2.401660 0.059353 0.084343
  C 3.241787 -0.012278 1.353525
  C 2.525482 -0.088254 2.700082
  C 3.523646 -0.153159 3.850130
  C 2.996200 0.127414 -1.121910
  C 2.353586 0.204907 -2.495368
  C 0.842090 0.217268 -2.714363
  C 0.515882 0.301229 -4.202737
  C 4.455517 0.132267 -1.207913
  C 5.195700 0.194711 -2.314797
  O 6.555784 0.195554 -2.329835
  H 0.600667 -0.010462 1.305304
  H 0.465666 -0.817750 -0.215379
  H 0.466251 0.965125 -0.116117
  H 3.887827 0.871733 1.384625
  H 3.887792 -0.894202 1.284979
  H 1.892288 -0.977813 2.741569
  H 1.892311 0.791008 2.841375
  H 4.159123 -1.033069 3.765235
  H 2.996382 -0.206804 4.800898
  H 4.159149 0.730694 3.864754
  H 2.741252 -0.643893 -3.070111
  H 2.741256 1.112965 -2.970990
  H 0.389713 1.078365 -2.223587
  H 0.389718 -0.693564 -2.323543
  H 0.923834 1.210505 -4.641028
  H -0.562789 0.309451 -4.348460
  H 0.923832 -0.552984 -4.740509
  H 5.000452 0.079665 -0.275672
  H 4.819497 0.251607 -3.323095
  H 6.884637 0.144367 -1.422661
 32
 3.786724
  C 0.911508 0.058454 0.269708
  C 2.399097 0.062730 0.086862
  C 3.243353 -0.012445 1.352925
  C 2.522227 -0.087245 2.697113
  C 3.525226 -0.154425 3.844004
  C 2.996164 0.130745 -1.122498
  C 2.354335 0.207140 -2.495954
  C 0.842516 0.218157 -2.710718
  C 0.526125 0.298348 -4.202026
  C 4.455889 0.135195 -1.211502
  C 5.196532 0.196767 -2.321323
  O 6.556518 0.196620 -2.335625
  H 0.579278 -0.067086 1.253518
  H 0.434736 -0.786430 -0.128020
  H 0.471913 0.972759 -0.114372
  H 3.892107 0.868998 1.385796
  H 3.887936 -0.895109 1.285035
  H 1.888205 -0.975500 2.738213
  H 1.891389 0.793067 2.837367
  H 4.158646 -1.034882 3.753814
  H 3.004073 -0.207380 4.797686
  H 4.162268 0.727932 3.853678
  H 2.744926 -0.642123 -3.067459
  H 2.744687 1.113821 -2.971419
  H 0.389692 1.079307 -2.221610
  H 0.391241 -0.690854 -2.315669
  H 0.939043 1.205910 -4.638267
  H -0.550810 0.306162 -4.357568
  H 0.939959 -0.556670 -4.733166
  H 5.003377 0.082958 -0.280892
  H 4.818668 0.253160 -3.328788
  H 6.887836 0.145853 -1.429435
 32
 8.282598
  C 0.935877 0.094515 0.243765
  C 2.406107 0.072891 0.076370
  C 3.250072 -0.015172 1.350290
  C 2.517867 -0.086448 2.694111
  C 3.519784 -0.155345 3.841495
  C 3.007078 0.140879 -1.127787
  C 2.353731 0.217063 -2.511794
  C 0.836263 0.226446 -2.706135
  C 0.507703 0.290576 -4.195418
  C 4.474811 0.140439 -1.215130
  C 5.215202 0.197217 -2.313410
  O 6.578096 0.192413 -2.318556
  H 0.567540 -0.146723 1.226331
  H 0.404102 -0.787501 -0.085118
  H 0.465774 0.991697 -0.123902
  H 3.905700 0.861718 1.390265
  H 3.891121 -0.901794 1.284878
  H 1.882381 -0.975211 2.734554
  H 1.888664 0.797332 2.827133
  H 4.152560 -1.039776 3.747208
  H 3.000621 -0.205953 4.800501
  H 4.161428 0.727509 3.845512
  H 2.743054 -0.637453 -3.080358
  H 2.745930 1.122187 -2.993232
  H 0.390576 1.093569 -2.217852
  H 0.392903 -0.677612 -2.288586
  H 0.923341 1.195064 -4.642553
  H -0.573255 0.297623 -4.348684
  H 0.922539 -0.572288 -4.719037
  H 5.024295 0.088097 -0.284099
  H 4.840250 0.252889 -3.324091
  H 6.907066 0.142628 -1.410578
 32
 15.589535
  C 0.932366 0.102053 0.262741
  C 2.408337 0.074089 0.079780
  C 3.250136 -0.016253 1.339707
  C 2.516161 -0.086152 2.673861
  C 3.513633 -0.156095 3.825382
  C 3.005766 0.142242 -1.124173
  C 2.366571 0.217087 -2.491641
  C 0.856840 0.225975 -2.694047
  C 0.538859 0.286574 -4.185202
  C 4.455971 0.142830 -1.215142
  C 5.202380 0.200470 -2.336608
  O 6.559320 0.196061 -2.351690
  H 0.528119 -0.186389 1.219686
  H 0.359560 -0.778635 0.000759
  H 0.472936 1.006656 -0.101092
  H 3.906138 0.857936 1.379780
  H 3.887694 -0.902671 1.273342
  H 1.880707 -0.971713 2.710739
  H 1.888581 0.795957 2.802750
  H 4.143052 -1.036900 3.734687
  H 2.993687 -0.205743 4.776763
  H 4.153487 0.721733 3.832363
  H 2.758060 -0.634710 -3.054437
  H 2.760475 1.118523 -2.968846
  H 0.409492 1.091838 -2.212171
  H 0.412024 -0.675167 -2.277627
  H 0.955565 1.185831 -4.630184
  H -0.534665 0.293292 -4.344936
  H 0.955123 -0.573562 -4.701967
  H 5.006506 0.091286 -0.286198
  H 4.822485 0.255102 -3.342157
  H 6.893209 0.147036 -1.447938
 32
 22.867048
  C 0.913098 0.143391 0.285463
  C 2.396656 0.083104 0.086925
  C 3.256961 -0.024388 1.337527
  C 2.537323 -0.092699 2.677871
  C 3.542187 -0.167990 3.817506
  C 2.993178 0.152222 -1.125012
  C 2.367706 0.224483 -2.498394
  C 0.865585 0.228073 -2.721710
  C 0.570509 0.268884 -4.214251
  C 4.426129 0.150696 -1.205771
  C 5.169284 0.203222 -2.316829
  O 6.514724 0.197462 -2.327905
  H 0.519684 -0.206249 1.217988
  H 0.334229 -0.739619 0.074849
  H 0.420692 1.036686 -0.042705
  H 3.920031 0.841207 1.373417
  H 3.884342 -0.912945 1.258648
  H 1.899238 -0.975063 2.719374
  H 1.914527 0.790414 2.811807
  H 4.166431 -1.048751 3.720732
  H 3.031474 -0.216612 4.770612
  H 4.184446 0.705122 3.819986
  H 2.765724 -0.626655 -3.052054
  H 2.764840 1.120884 -2.974835
  H 0.411000 1.097362 -2.259696
  H 0.418708 -0.665728 -2.300687
  H 0.991334 1.160824 -4.664396
  H -0.497844 0.271679 -4.388246
  H 0.994749 -0.594932 -4.713379
  H 4.968307 0.101631 -0.273515
  H 4.792630 0.254252 -3.321763
  H 6.841927 0.152282 -1.427567
 32
 28.739061
  C 0.950058 0.161146 0.228310
  C 2.427116 0.087916 0.065387
  C 3.262633 -0.026957 1.342909
  C 2.510285 -0.095384 2.669467
  C 3.488566 -0.169996 3.832840
  C 3.035172 0.157084 -1.142831
  C 2.383267 0.228337 -2.504905
  C 0.871407 0.229582 -2.674221
  C 0.519286 0.260786 -4.155156
  C 4.483515 0.154384 -1.235289
  C 5.221311 0.203877 -2.347849
  O 6.575111 0.196579 -2.363822
  H 0.515769 -0.230786 1.144671
  H 0.363474 -0.741463 0.040824
  H 0.450900 1.048654 -0.106050
  H 3.928273 0.837519 1.397733
  H 3.890585 -0.918828 1.276866
  H 1.871167 -0.978934 2.697686
  H 1.883727 0.788134 2.788476
  H 4.116585 -1.052683 3.750416
  H 2.954171 -0.218680 4.776840
  H 4.131567 0.705275 3.849850
  H 2.767541 -0.624438 -3.070949
  H 2.766544 1.127015 -2.994827
  H 0.434683 1.103356 -2.198674
  H 0.440430 -0.663574 -2.229151
  H 0.923594 1.151839 -4.627389
  H -0.558289 0.262637 -4.289004
  H 0.925292 -0.608196 -4.665593
  H 5.033201 0.107399 -0.306977
  H 4.840578 0.252614 -3.353337
  H 6.908242 0.153256 -1.458735
 32
 34.536000
  C 0.965101 0.151861 0.268801
  C 2.414934 0.085504 0.074686
  C 3.260715 -0.023022 1.335269
  C 2.519376 -0.100117 2.670500
  C 3.508939 -0.159317 3.828183
  C 3.009978 0.154094 -1.126027
  C 2.362619 0.232615 -2.511182
  C 0.846827 0.241830 -2.713649
  C 0.524226 0.272580 -4.205450
  C 4.472889 0.144999 -1.215454
  C 5.211694 0.190602 -2.322983
  O 6.582493 0.180931 -2.336379
  H 0.537253 -0.271034 1.194708
  H 0.369004 -0.772025 0.133391
  H 0.446271 1.030035 -0.059898
  H 3.919553 0.850778 1.384560
  H 3.898038 -0.911531 1.261063
  H 1.891417 -0.994042 2.705711
  H 1.879614 0.776366 2.793273
  H 4.151219 -1.037112 3.740915
  H 2.980400 -0.214563 4.781310
  H 4.142029 0.728985 3.838624
  H 2.753127 -0.625673 -3.074746
  H 2.759074 1.135797 -2.994081
  H 0.404918 1.120367 -2.247753
  H 0.400257 -0.649575 -2.275057
  H 0.945848 1.164090 -4.672016
  H -0.555868 0.280946 -4.363319
  H 0.937272 -0.603610 -4.707431
  H 5.023973 0.098654 -0.283894
  H 4.829534 0.238218 -3.333498
  H 6.920822 0.138756 -1.418076
 32
 39.530410
  C 0.955840 0.168618 0.239828
  C 2.422610 0.088397 0.069129
  C 3.263809 -0.026314 1.341513
  C 2.515695 -0.106358 2.673244
  C 3.495614 -0.164594 3.830239
  C 3.028830 0.157520 -1.136072
  C 2.378204 0.235784 -2.511393
  C 0.866532 0.241674 -2.691795
  C 0.525892 0.262754 -4.171668
  C 4.478979 0.146634 -1.228033
  C 5.214772 0.189712 -2.341832
  O 6.576077 0.182892 -2.360185
  H 0.511030 -0.271896 1.150411
  H 0.358626 -0.761919 0.132209
  H 0.428555 1.045929 -0.097458
  H 3.921094 0.845274 1.396674
  H 3.899057 -0.913802 1.268977
  H 1.890377 -1.001063 2.705255
  H 1.874794 0.767258 2.794350
  H 4.139181 -1.039573 3.744454
  H 2.962833 -0.222210 4.779736
  H 4.125199 0.723862 3.844061
  H 2.764430 -0.620584 -3.079941
  H 2.768781 1.137181 -3.000297
  H 0.431653 1.120118 -2.226932
  H 0.428593 -0.645022 -2.242658
  H 0.940190 1.150576 -4.648213
  H -0.555338 0.269297 -4.314285
  H 0.932799 -0.615343 -4.672582
  H 5.030927 0.103256 -0.299896
  H 4.827764 0.234793 -3.353277
  H 6.918258 0.144420 -1.439378
 32
 44.298312
  C 0.971803 0.181373 0.240614
  C 2.428597 0.092692 0.064660
  C 3.263710 -0.027349 1.329601
  C 2.509592 -0.109861 2.655986
  C 3.482480 -0.168127 3.816955
  C 3.034658 0.160911 -1.139923
  C 2.377284 0.238732 -2.514571
  C 0.864594 0.243887 -2.682203
  C 0.510549 0.256809 -4.158264
  C 4.491296 0.147713 -1.226590
  C 5.235048 0.185949 -2.333695
  O 6.590558 0.180025 -2.339510
  H 0.526045 -0.273870 1.145490
  H 0.376377 -0.758649 0.165791
  H 0.437964 1.039746 -0.102703
  H 3.922406 0.841842 1.389311
  H 3.898407 -0.913864 1.256468
  H 1.885728 -1.005626 2.684532
  H 1.867654 0.762354 2.775460
  H 4.127391 -1.041723 3.732874
  H 2.944387 -0.227771 4.762840
  H 4.109939 0.721087 3.834499
  H 2.757927 -0.619214 -3.084066
  H 2.762653 1.140568 -3.005831
  H 0.434992 1.123423 -2.218971
  H 0.430984 -0.639276 -2.224291
  H 0.921193 1.141643 -4.642733
  H -0.572163 0.263226 -4.290263
  H 0.912587 -0.624260 -4.657257
  H 5.036397 0.107600 -0.295470
  H 4.857922 0.227696 -3.347016
  H 6.920982 0.146247 -1.422061
 32
 48.565858
  C 0.953036 0.201937 0.244210
  C 2.410573 0.099594 0.063275
  C 3.261128 -0.032245 1.335954
  C 2.516781 -0.118957 2.673529
  C 3.505155 -0.182128 3.833001
  C 3.017519 0.165760 -1.141100
  C 2.376540 0.240057 -2.507095
  C 0.865305 0.243437 -2.696066
  C 0.531637 0.244215 -4.182525
  C 4.471873 0.152615 -1.228955
  C 5.213732 0.185438 -2.337970
  O 6.578170 0.185739 -2.348572
  H 0.499581 -0.256280 1.150396
  H 0.350360 -0.740045 0.204738
  H 0.417997 1.058796 -0.113476
  H 3.925614 0.837584 1.395555
  H 3.893699 -0.924079 1.253386
  H 1.892365 -1.014602 2.704097
  H 1.875698 0.754001 2.800982
  H 4.149508 -1.055513 3.741418
  H 2.975972 -0.244904 4.783615
  H 4.133787 0.706575 3.849417
  H 2.765338 -0.618136 -3.067456
  H 2.768521 1.139616 -2.994658
  H 0.426862 1.131567 -2.244313
  H 0.423973 -0.639475 -2.235256
  H 0.949083 1.124545 -4.668909
  H -0.547586 0.249756 -4.331037
  H 0.940073 -0.640449 -4.669018
  H 5.019125 0.118926 -0.299214
  H 4.833085 0.222156 -3.350863
  H 6.910790 0.159759 -1.432425
 32
 52.284611
  C 0.963824 0.222323 0.244229
  C 2.424603 0.107436 0.065706
  C 3.261943 -0.033553 1.326689
  C 2.509670 -0.125056 2.653021
  C 3.490003 -0.193937 3.822879
  C 3.032710 0.170813 -1.137428
  C 2.379431 0.244023 -2.511080
  C 0.864952 0.241491 -2.685637
  C 0.513459 0.230397 -4.171543
  C 4.492391 0.161405 -1.225024
  C 5.234608 0.188663 -2.332758
  O 6.593958 0.182280 -2.341658
  H 0.498621 -0.236635 1.162541
  H 0.349097 -0.730385 0.244200
  H 0.435418 1.061626 -0.125275
  H 3.928436 0.833225 1.394137
  H 3.891004 -0.925692 1.241091
  H 1.883790 -1.020882 2.673839
  H 1.867384 0.748068 2.778052
  H 4.134057 -1.065434 3.733683
  H 2.954996 -0.260613 4.766507
  H 4.118095 0.692822 3.849216
  H 2.764397 -0.610974 -3.072087
  H 2.763426 1.140577 -3.002576
  H 0.429945 1.129055 -2.235922
  H 0.432953 -0.637490 -2.213396
  H 0.921957 1.106491 -4.668727
  H -0.564443 0.232065 -4.308484
  H 0.917566 -0.654844 -4.655977
  H 5.041170 0.135258 -0.292641
  H 4.858030 0.216918 -3.340591
  H 6.923268 0.160266 -1.430285
 32
 55.843108
  C 0.960363 0.231664 0.243433
  C 2.407635 0.112694 0.064019
  C 3.254479 -0.033268 1.324645
  C 2.511938 -0.134179 2.664992
  C 3.507407 -0.203791 3.830509
  C 3.017298 0.174423 -1.140737
  C 2.375302 0.247421 -2.509777
  C 0.865149 0.243499 -2.696055
  C 0.525720 0.222809 -4.184943
  C 4.476713 0.162076 -1.222602
  C 5.223979 0.183156 -2.328144
  O 6.580728 0.177430 -2.330910
  H 0.494222 -0.222480 1.167968
  H 0.347689 -0.723514 0.286072
  H 0.419090 1.065955 -0.146732
  H 3.923543 0.841143 1.391333
  H 3.888859 -0.928864 1.228221
  H 1.892923 -1.030208 2.688605
  H 1.869478 0.732646 2.799965
  H 4.154520 -1.070833 3.732043
  H 2.982018 -0.277184 4.779766
  H 4.131151 0.684837 3.855203
  H 2.762955 -0.607667 -3.065774
  H 2.761929 1.142552 -2.999539
  H 0.427379 1.131435 -2.256876
  H 0.430387 -0.630753 -2.222037
  H 0.938751 1.095932 -4.684811
  H -0.551253 0.223911 -4.331079
  H 0.933609 -0.665958 -4.660836
  H 5.019548 0.141121 -0.290337
  H 4.850930 0.205531 -3.340239
  H 6.905038 0.161247 -1.418294
 32
 59.439793
  C 0.964017 0.249053 0.231758
  C 2.422154 0.119557 0.060690
  C 3.261400 -0.034670 1.328951
  C 2.508253 -0.143668 2.661528
  C 3.493786 -0.217520 3.834379
  C 3.034853 0.181717 -1.142430
  C 2.381266 0.253137 -2.517034
  C 0.868215 0.240086 -2.688339
  C 0.511896 0.208132 -4.174837
  C 4.484458 0.175601 -1.226872
  C 5.228927 0.191464 -2.333476
  O 6.597280 0.166052 -2.340014
  H 0.491551 -0.192827 1.157214
  H 0.352072 -0.703620 0.313350
  H 0.424635 1.059660 -0.177221
  H 3.927346 0.836382 1.405653
  H 3.894859 -0.927250 1.232509
  H 1.887954 -1.045117 2.675620
  H 1.860387 0.725200 2.796745
  H 4.144340 -1.083741 3.736556
  H 2.960857 -0.297063 4.778750
  H 4.116238 0.673258 3.869067
  H 2.767821 -0.597962 -3.075329
  H 2.758024 1.147742 -3.009897
  H 0.429390 1.131128 -2.248557
  H 0.442344 -0.635784 -2.202252
  H 0.914919 1.079372 -4.684470
  H -0.565377 0.203259 -4.309082
  H 0.918394 -0.681104 -4.649284
  H 5.032168 0.159713 -0.291728
  H 4.854491 0.202612 -3.342130
  H 6.926216 0.148937 -1.421617
 32
 62.473285
  C 0.981879 0.268071 0.249741
  C 2.421135 0.126369 0.069637
  C 3.258487 -0.038584 1.332807
  C 2.502809 -0.153459 2.657417
  C 3.482772 -0.235255 3.830730
  C 3.031742 0.185400 -1.137335
  C 2.381879 0.254776 -2.510917
  C 0.867300 0.238389 -2.691222
  C 0.520973 0.192069 -4.180568
  C 4.485696 0.177274 -1.227597
  C 5.225508 0.185567 -2.341066
  O 6.578990 0.173592 -2.353404
  H 0.509165 -0.159970 1.198371
  H 0.360663 -0.694449 0.386287
  H 0.423976 1.077225 -0.189711
  H 3.925523 0.828759 1.417534
  H 3.888415 -0.931172 1.232809
  H 1.882533 -1.053012 2.664048
  H 1.856844 0.715410 2.795289
  H 4.132131 -1.101827 3.729368
  H 2.946214 -0.319598 4.772473
  H 4.105991 0.654948 3.872028
  H 2.773566 -0.600859 -3.066678
  H 2.762166 1.151869 -3.006195
  H 0.423134 1.135216 -2.262791
  H 0.438777 -0.634314 -2.199667
  H 0.927629 1.059664 -4.695813
  H -0.556721 0.185324 -4.322040
  H 0.931764 -0.702278 -4.644026
  H 5.037625 0.170107 -0.296835
  H 4.846660 0.189175 -3.348095
  H 6.908177 0.169202 -1.443192
