10

H -2.162930410986344 0.30791561560163433 -0.07201506773254582
C -1.2422688350454545 -0.2759250892224012 -0.25391435589594286
C -0.057309665189181 0.5818900510414329 -0.03324784881512542
O -0.15923490967832757 1.7843894335356545 -0.11267968348263925
C 1.2332002583212245 -0.0628907725312249 0.2818542936337879
H 2.0114718232778173 0.4269521875013154 -0.3617070236874658
H -1.185722456214183 -0.63738345120918 -1.3183882079132405
H -1.1559354075729549 -1.1616779865206879 0.4340015773552008
H 1.2610843804413112 -1.1261336835709528 0.0791923721842996
H 1.4576452226461205 0.16286369537442036 1.3569039443536666
