 22
 0.000000
  C 1.000527 0.171371 0.477925
  C 2.458519 0.132496 0.380220
  H 3.058225 0.467590 1.213863
  C 3.039570 -0.333250 -0.779531
  C 4.423791 -0.421161 -0.999313
  C 5.080048 -0.871664 -2.121691
  C 4.608338 -1.387678 -3.407487
  C 3.128770 -1.518231 -3.734244
  C 2.938586 -2.082617 -5.140634
  H 6.162974 -0.853749 -2.076964
  H 0.649916 0.554441 1.431666
  H 0.587910 -0.828397 0.325033
  H 0.587319 0.787255 -0.324029
  H 2.368485 -0.648303 -1.563203
  H 5.053602 -0.092214 -0.180345
  H 5.086410 -2.370086 -3.534610
  H 5.087230 -0.766351 -4.178504
  H 2.645196 -0.541022 -3.689250
  H 2.644519 -2.192843 -3.026294
  H 3.387707 -1.432682 -5.887968
  H 1.879970 -2.174059 -5.369552
  H 3.387133 -3.069151 -5.231171
 22
 9.837412
  C 1.094771 0.250478 0.675189
  C 2.503617 0.096975 0.291968
  H 3.238604 0.389498 1.019583
  C 2.825956 -0.393976 -0.930370
  C 4.179705 -0.420506 -0.997867
  C 4.966337 -0.858418 -2.089154
  C 4.602464 -1.384709 -3.400261
  C 3.146946 -1.553198 -3.821461
  C 3.057606 -2.121624 -5.237619
  H 6.036985 -0.801091 -1.946518
  H 0.963546 0.650950 1.672501
  H 0.583582 -0.708841 0.603754
  H 0.583230 0.893756 -0.039703
  H 2.123833 -0.692265 -1.672322
  H 4.757453 -0.082554 -0.156395
  H 5.125962 -2.352244 -3.500201
  H 5.126525 -0.755358 -4.141449
  H 2.638860 -0.588775 -3.803635
  H 2.637413 -2.237408 -3.142573
  H 3.536401 -1.460441 -5.956112
  H 2.018106 -2.239512 -5.533103
  H 3.535209 -3.096614 -5.299245
 22
 38.780033
  C 1.174916 0.298014 0.794015
  C 2.530794 0.058138 0.194989
  H 3.303567 0.332084 0.873328
  C 2.662251 -0.442158 -1.047253
  C 3.992365 -0.421652 -1.000645
  C 4.888796 -0.851965 -2.072596
  C 4.601428 -1.380838 -3.389266
  C 3.173484 -1.568348 -3.860888
  C 3.145982 -2.135709 -5.274022
  H 5.944982 -0.762883 -1.852334
  H 1.215868 0.705837 1.807011
  H 0.595737 -0.629325 0.803140
  H 0.594130 0.972083 0.158636
  H 1.933452 -0.729178 -1.757570
  H 4.601000 -0.096193 -0.193040
  H 5.140716 -2.335472 -3.475797
  H 5.141432 -0.752006 -4.112215
  H 2.654430 -0.610620 -3.860733
  H 2.650741 -2.259115 -3.200425
  H 3.642318 -1.468314 -5.974547
  H 2.120720 -2.268297 -5.608609
  H 3.639294 -3.103945 -5.316240
 22
 80.903293
  C 1.231421 0.312099 0.828291
  C 2.576304 0.048291 0.170070
  H 3.321981 0.333808 0.878407
  C 2.578192 -0.457947 -1.086977
  C 3.893338 -0.394762 -0.933852
  C 4.856870 -0.845209 -2.056023
  C 4.599037 -1.376588 -3.378924
  C 3.170856 -1.579179 -3.886563
  C 3.181886 -2.146762 -5.301475
  H 5.900691 -0.746423 -1.810304
  H 1.316160 0.716686 1.833717
  H 0.639071 -0.609204 0.861724
  H 0.637189 0.998623 0.214938
  H 1.843217 -0.737788 -1.780992
  H 4.575727 -0.090156 -0.177096
  H 5.150811 -2.333426 -3.454315
  H 5.151240 -0.737900 -4.095084
  H 2.645411 -0.627531 -3.900523
  H 2.642564 -2.276580 -3.241200
  H 3.687769 -1.474680 -5.988822
  H 2.167691 -2.289515 -5.660674
  H 3.685316 -3.108658 -5.332314
 22
 123.044335
  C 1.252653 0.333180 0.860491
  C 2.598366 0.038985 0.152688
  H 3.325282 0.345762 0.895627
  C 2.512690 -0.482863 -1.113166
  C 3.816939 -0.386600 -0.871280
  C 4.861575 -0.852899 -2.063566
  C 4.617537 -1.379639 -3.391430
  C 3.190888 -1.589262 -3.900189
  C 3.206367 -2.146007 -5.311309
  H 5.907270 -0.737335 -1.786748
  H 1.377968 0.747395 1.860792
  H 0.647457 -0.581081 0.926886
  H 0.650764 1.027849 0.259749
  H 1.769232 -0.761442 -1.801767
  H 4.566852 -0.103781 -0.185307
  H 5.170333 -2.325961 -3.470901
  H 5.161537 -0.739009 -4.099249
  H 2.657949 -0.644677 -3.912949
  H 2.669658 -2.293062 -3.260092
  H 3.709321 -1.462990 -5.995110
  H 2.188637 -2.295490 -5.673924
  H 3.719787 -3.105829 -5.347573
 22
 155.988474
  C 1.244310 0.339503 0.862945
  C 2.616973 0.051993 0.185434
  H 3.292834 0.373473 0.957357
  C 2.496563 -0.487549 -1.095809
  C 3.782631 -0.355394 -0.780079
  C 4.900579 -0.863319 -2.091159
  C 4.652627 -1.387737 -3.416676
  C 3.217405 -1.587342 -3.897086
  C 3.200267 -2.147359 -5.319437
  H 5.942645 -0.750730 -1.825937
  H 1.339659 0.757589 1.860761
  H 0.657931 -0.579717 0.918901
  H 0.659127 1.023984 0.247812
  H 1.756049 -0.772308 -1.789886
  H 4.610218 -0.095560 -0.151938
  H 5.198301 -2.341194 -3.503867
  H 5.186746 -0.743843 -4.133162
  H 2.687643 -0.632463 -3.897932
  H 2.698886 -2.293680 -3.245261
  H 3.694033 -1.470123 -6.012160
  H 2.179928 -2.288839 -5.660984
  H 3.705364 -3.109056 -5.366974
 22
 181.257454
  C 1.198437 0.365281 0.926151
  C 2.580606 0.097576 0.297446
  H 3.234031 0.418779 1.101306
  C 2.469635 -0.460623 -1.024216
  C 3.716157 -0.294838 -0.651308
  C 4.985788 -0.893404 -2.177862
  C 4.727987 -1.422704 -3.505769
  C 3.279903 -1.600098 -3.938116
  C 3.201667 -2.163833 -5.355853
  H 6.036814 -0.789686 -1.929252
  H 1.266815 0.775046 1.926032
  H 0.622161 -0.564551 0.955448
  H 0.620681 1.050880 0.300912
  H 1.736053 -0.748766 -1.735310
  H 4.601617 -0.076696 -0.114952
  H 5.256223 -2.386402 -3.597273
  H 5.250907 -0.782343 -4.236675
  H 2.766683 -0.640222 -3.924223
  H 2.774407 -2.291230 -3.266413
  H 3.680626 -1.496638 -6.068433
  H 2.167300 -2.288850 -5.659212
  H 3.687260 -3.134595 -5.417401
 22
 181.506778
  C 1.074504 0.435305 1.116712
  C 2.480996 0.221605 0.605519
  H 3.129519 0.540688 1.409860
  C 2.422211 -0.385417 -0.859189
  C 3.591673 -0.188782 -0.444511
  C 5.124957 -0.966616 -2.381846
  C 4.855242 -1.489292 -3.705506
  C 3.376112 -1.637291 -4.071886
  C 3.237863 -2.220414 -5.478769
  H 6.208453 -0.892663 -2.197791
  H 1.082723 0.829813 2.125014
  H 0.514969 -0.503923 1.112889
  H 0.519947 1.117046 0.467537
  H 1.678165 -0.691319 -1.551093
  H 4.560014 -0.053144 -0.028899
  H 5.353977 -2.468015 -3.782075
  H 5.375230 -0.876516 -4.456602
  H 2.909396 -0.654136 -4.062100
  H 2.906177 -2.321359 -3.368574
  H 3.708192 -1.573015 -6.217183
  H 2.189784 -2.328946 -5.748334
  H 3.703294 -3.202708 -5.542499
 22
 180.520424
  C 1.050404 0.476993 1.152619
  C 2.466746 0.247245 0.716829
  H 3.109708 0.536265 1.533516
  C 2.415339 -0.422973 -0.831264
  C 3.536269 -0.177107 -0.321027
  C 5.177727 -0.983570 -2.438138
  C 4.902617 -1.503022 -3.762717
  C 3.421375 -1.660529 -4.109600
  C 3.241532 -2.234386 -5.512509
  H 6.265822 -0.895213 -2.286560
  H 1.021592 0.874027 2.160331
  H 0.476625 -0.454179 1.125306
  H 0.535431 1.170708 0.481974
  H 1.675673 -0.728577 -1.534174
  H 4.548856 -0.057245 -0.017390
  H 5.415857 -2.472895 -3.854103
  H 5.408851 -0.883131 -4.518152
  H 2.942798 -0.682070 -4.065471
  H 2.961850 -2.337367 -3.389779
  H 3.689918 -1.582056 -6.260499
  H 2.186325 -2.342748 -5.751696
  H 3.706938 -3.215492 -5.595293
 22
 155.358151
  C 1.006911 0.559832 0.709135
  C 2.407854 0.035740 0.673419
  H 2.987617 0.046243 1.579028
  C 2.644633 -0.709340 -0.579647
  C 3.863504 -0.354689 -0.368088
  C 5.302681 -0.878710 -2.421455
  C 4.870600 -1.356587 -3.696411
  C 3.380030 -1.621128 -3.868881
  C 3.072113 -2.161355 -5.258927
  H 6.376892 -0.687181 -2.391722
  H 0.751834 0.882995 1.709205
  H 0.314488 -0.214804 0.384501
  H 0.856194 1.398185 0.026767
  H 1.870269 -1.088921 -1.204316
  H 4.916412 -0.273990 -0.299247
  H 5.441000 -2.283308 -3.886314
  H 5.238387 -0.693964 -4.498740
  H 2.833233 -0.690411 -3.727842
  H 3.051032 -2.339792 -3.122466
  H 3.376230 -1.455187 -6.027503
  H 2.006865 -2.340086 -5.372011
  H 3.589476 -3.100863 -5.436278
