 25
 0.000000
  C 0.990240 0.118392 0.390845
  C 2.464336 0.124186 0.413573
  C 3.239979 0.608126 1.574708
  C 2.452758 1.110601 2.778091
  H 3.133066 1.434854 3.556583
  C 3.089225 -0.352783 -0.733428
  C 4.466578 -0.442124 -0.974664
  C 5.109700 -0.877596 -2.108178
  C 4.621798 -1.377373 -3.403679
  C 3.135092 -1.496285 -3.701599
  H 2.996559 -1.882312 -4.705433
  H 6.191138 -0.864656 -2.083797
  H 0.543112 0.501576 1.300798
  H 0.626764 -0.897365 0.228488
  H 0.624886 0.712925 -0.450731
  H 3.901769 1.411258 1.230562
  H 3.900948 -0.202142 1.903522
  H 1.819582 0.324534 3.184679
  H 1.820679 1.953323 2.505433
  H 2.422503 -0.674662 -1.517920
  H 5.111207 -0.126365 -0.162914
  H 5.090475 -2.360364 -3.546027
  H 5.085977 -0.741211 -4.169233
  H 2.649022 -0.524789 -3.646478
  H 2.653759 -2.183623 -3.009554
 25
 0.247448
  C 0.982720 0.209182 0.383674
  C 2.447582 0.088484 0.419738
  C 3.237687 0.545428 1.582285
  C 2.461722 1.065986 2.784609
  H 3.159065 1.335034 3.574022
  C 3.059799 -0.396003 -0.736003
  C 4.438087 -0.380553 -0.994541
  C 5.088227 -0.794231 -2.132127
  C 4.622648 -1.360791 -3.402804
  C 3.146979 -1.611354 -3.664144
  H 3.031441 -2.031132 -4.661153
  H 6.165789 -0.680838 -2.110308
  H 0.534103 0.439797 1.341091
  H 0.516268 -0.662819 -0.067451
  H 0.782362 1.040558 -0.304884
  H 3.927436 1.328261 1.244360
  H 3.877141 -0.284857 1.903605
  H 1.789987 0.310225 3.183201
  H 1.886863 1.952088 2.533013
  H 2.405845 -0.809025 -1.486381
  H 5.075958 0.021998 -0.218632
  H 5.177631 -2.299333 -3.538085
  H 5.026080 -0.713868 -4.194342
  H 2.576717 -0.686833 -3.629524
  H 2.736135 -2.327377 -2.957335
 25
 2.641681
  C 0.980294 0.110654 0.452660
  C 2.440615 0.065702 0.425375
  C 3.238907 0.551735 1.575557
  C 2.461529 1.136116 2.747584
  H 3.156289 1.457132 3.514112
  C 3.050608 -0.431319 -0.731669
  C 4.427496 -0.380788 -1.001364
  C 5.082802 -0.787550 -2.138778
  C 4.624953 -1.375251 -3.402216
  C 3.146319 -1.570176 -3.691948
  H 3.032777 -1.970773 -4.697766
  H 6.162899 -0.706514 -2.098340
  H 0.526510 0.200638 1.426474
  H 0.500210 -0.601571 -0.200159
  H 0.878993 1.098606 -0.060972
  H 3.951769 1.302734 1.213303
  H 3.844100 -0.285918 1.940158
  H 1.801994 0.399207 3.199183
  H 1.871950 1.996593 2.442264
  H 2.404398 -0.820788 -1.498131
  H 5.061712 0.024743 -0.222357
  H 5.139476 -2.341923 -3.495279
  H 5.072313 -0.767465 -4.200935
  H 2.609111 -0.627824 -3.649361
  H 2.699857 -2.284081 -3.005692
 25
 16.636606
  C 0.965872 0.133706 0.466597
  C 2.406317 0.108348 0.408293
  C 3.231566 0.501396 1.580888
  C 2.470060 1.065419 2.773558
  H 3.169892 1.265154 3.584924
  C 3.013024 -0.328092 -0.784500
  C 4.391201 -0.307119 -1.034289
  C 5.051905 -0.702527 -2.169759
  C 4.616888 -1.360176 -3.414751
  C 3.160978 -1.718363 -3.642320
  H 3.060368 -2.175721 -4.625045
  H 6.123455 -0.549877 -2.152374
  H 0.450187 0.289724 1.399688
  H 0.411864 -0.376231 -0.313537
  H 1.269802 1.183305 -0.005886
  H 3.987225 1.230223 1.282960
  H 3.766616 -0.401485 1.888302
  H 1.735200 0.370514 3.156913
  H 1.979091 2.006383 2.509442
  H 2.354804 -0.756305 -1.520691
  H 5.023016 0.090820 -0.257591
  H 5.228918 -2.267805 -3.504060
  H 4.964628 -0.725367 -4.249783
  H 2.530504 -0.838266 -3.632779
  H 2.814628 -2.441383 -2.899965
 25
 33.697886
  C 0.951113 0.104189 0.503196
  C 2.359693 0.191057 0.372516
  C 3.219491 0.629721 1.533214
  C 2.468206 1.021441 2.800524
  H 3.180232 1.304156 3.563509
  C 2.998694 -0.371430 -0.779109
  C 4.372593 -0.354976 -1.014987
  C 5.055205 -0.823685 -2.113535
  C 4.615954 -1.395442 -3.404641
  C 3.144493 -1.679144 -3.670386
  H 3.046135 -2.142893 -4.646553
  H 6.128544 -0.685236 -2.083279
  H 0.447606 0.397434 1.407564
  H 0.368074 -0.425771 -0.236958
  H 1.574821 1.138156 -0.130173
  H 3.845851 1.475718 1.225896
  H 3.893501 -0.205866 1.763661
  H 1.886750 0.191880 3.195750
  H 1.812570 1.872120 2.626688
  H 2.352439 -0.837948 -1.501242
  H 4.997555 0.054478 -0.232993
  H 5.190339 -2.319950 -3.543584
  H 4.995352 -0.720789 -4.189827
  H 2.564076 -0.762677 -3.683908
  H 2.738304 -2.371003 -2.936638
 25
 41.348560
  C 0.936411 0.032847 0.543325
  C 2.340954 0.196924 0.384464
  C 3.213849 0.637038 1.552403
  C 2.450029 1.039844 2.808169
  H 3.160654 1.309929 3.585782
  C 2.989526 -0.376840 -0.789382
  C 4.359098 -0.345487 -1.025339
  C 5.039228 -0.801781 -2.126908
  C 4.601989 -1.401628 -3.404104
  C 3.126075 -1.662845 -3.676606
  H 3.026461 -2.133432 -4.655106
  H 6.113241 -0.673562 -2.089673
  H 0.433067 0.311466 1.448113
  H 0.343909 -0.390617 -0.249079
  H 1.990723 1.085567 -0.270203
  H 3.837562 1.476385 1.240530
  H 3.878314 -0.192844 1.801059
  H 1.849251 0.217976 3.187845
  H 1.811950 1.900986 2.630543
  H 2.338604 -0.862579 -1.498705
  H 4.980120 0.079024 -0.246854
  H 5.156693 -2.342559 -3.510003
  H 5.005397 -0.760175 -4.199712
  H 2.559974 -0.736032 -3.700113
  H 2.704071 -2.344083 -2.943947
 25
 42.583160
  C 0.940061 0.037967 0.556247
  C 2.324468 0.217580 0.395089
  C 3.204361 0.638064 1.564858
  C 2.446114 1.024519 2.829955
  H 3.160750 1.275360 3.610194
  C 2.975665 -0.329200 -0.813981
  C 4.351550 -0.306117 -1.048221
  C 5.023368 -0.777323 -2.143045
  C 4.582585 -1.416646 -3.397432
  C 3.106827 -1.675755 -3.663090
  H 3.004552 -2.159881 -4.631726
  H 6.100562 -0.671443 -2.102161
  H 0.441542 0.269308 1.476461
  H 0.338576 -0.346062 -0.248899
  H 2.303817 1.027127 -0.458024
  H 3.828189 1.481450 1.269419
  H 3.868269 -0.195929 1.801645
  H 1.837694 0.202313 3.197194
  H 1.812902 1.892421 2.666355
  H 2.321538 -0.812461 -1.519756
  H 4.971412 0.127531 -0.275093
  H 5.131064 -2.364108 -3.470527
  H 4.991559 -0.806313 -4.212854
  H 2.542605 -0.747430 -3.700696
  H 2.683648 -2.345463 -2.919631
 25
 39.463287
  C 0.947213 0.025520 0.579599
  C 2.300089 0.203559 0.423147
  C 3.188579 0.651252 1.563595
  C 2.450614 1.010677 2.849263
  H 3.174633 1.300567 3.607641
  C 2.941212 -0.263137 -0.832933
  C 4.335753 -0.251830 -1.065777
  C 5.011174 -0.771818 -2.127752
  C 4.575126 -1.437670 -3.372289
  C 3.096991 -1.645627 -3.667475
  H 2.998973 -2.153052 -4.623583
  H 6.090228 -0.688235 -2.073859
  H 0.453585 0.235442 1.507152
  H 0.329148 -0.317453 -0.229005
  H 2.445290 0.921533 -0.637554
  H 3.773403 1.517421 1.253340
  H 3.889309 -0.158110 1.779832
  H 1.891531 0.162404 3.236303
  H 1.773198 1.847698 2.698738
  H 2.288995 -0.757185 -1.533940
  H 4.949199 0.203357 -0.301410
  H 5.084336 -2.409546 -3.399459
  H 5.029895 -0.873566 -4.196802
  H 2.571386 -0.696787 -3.745741
  H 2.628176 -2.277375 -2.916702
 25
 29.305574
  C 0.943283 0.123348 0.536321
  C 2.287543 0.266095 0.426447
  C 3.192700 0.599812 1.569044
  C 2.481978 0.905796 2.883479
  H 3.222472 1.097663 3.655259
  C 2.901385 -0.104313 -0.894769
  C 4.328248 -0.161761 -1.099756
  C 5.004308 -0.714330 -2.138688
  C 4.569520 -1.448962 -3.342380
  C 3.098946 -1.752970 -3.582156
  H 3.003149 -2.318959 -4.505641
  H 6.083336 -0.611195 -2.097275
  H 0.418955 0.327888 1.450892
  H 0.341988 -0.227354 -0.286426
  H 2.570298 1.000377 -0.956899
  H 3.811161 1.463784 1.308260
  H 3.864549 -0.248331 1.717792
  H 1.875854 0.065110 3.209760
  H 1.852795 1.787772 2.797993
  H 2.250805 -0.655490 -1.560933
  H 4.938532 0.303646 -0.335949
  H 5.137472 -2.388500 -3.351350
  H 4.965747 -0.893412 -4.203364
  H 2.518486 -0.841583 -3.697554
  H 2.686085 -2.363940 -2.781792
 25
 21.130855
  C 0.954046 0.130232 0.548120
  C 2.295430 0.215876 0.448953
  C 3.202435 0.599407 1.566276
  C 2.511511 0.888748 2.894428
  H 3.260486 1.115884 3.648955
  C 2.872672 -0.079887 -0.905043
  C 4.310996 -0.136300 -1.101758
  C 4.996742 -0.719423 -2.119775
  C 4.567968 -1.468580 -3.312690
  C 3.096652 -1.722036 -3.591171
  H 3.005209 -2.290804 -4.513938
  H 6.075310 -0.629411 -2.065786
  H 0.428897 0.352225 1.458943
  H 0.345820 -0.190867 -0.279869
  H 2.521981 0.942017 -1.195325
  H 3.775158 1.485389 1.278090
  H 3.919568 -0.215713 1.703629
  H 1.943673 0.028091 3.238197
  H 1.846686 1.745160 2.817441
  H 2.270436 -0.756460 -1.501059
  H 4.911620 0.355999 -0.350178
  H 5.103421 -2.427148 -3.289346
  H 5.010675 -0.949331 -4.174217
  H 2.550668 -0.792051 -3.722757
  H 2.640197 -2.314039 -2.801113
 25
 17.232957
  C 0.945524 0.188527 0.553440
  C 2.289735 0.215621 0.448067
  C 3.205878 0.585811 1.560332
  C 2.535145 0.875061 2.897721
  H 3.294149 1.089095 3.645992
  C 2.849938 -0.090791 -0.904085
  C 4.299740 -0.113483 -1.097595
  C 4.992812 -0.690766 -2.113504
  C 4.566449 -1.461359 -3.293994
  C 3.096184 -1.707767 -3.578135
  H 3.003968 -2.264775 -4.507842
  H 6.069894 -0.580849 -2.067705
  H 0.428448 0.426870 1.464513
  H 0.323493 -0.105993 -0.274786
  H 2.448067 0.791570 -1.438958
  H 3.781927 1.468017 1.264233
  H 3.924256 -0.230819 1.686964
  H 1.958758 0.019984 3.241603
  H 1.879369 1.739551 2.832746
  H 2.332476 -0.928067 -1.372641
  H 4.890552 0.405837 -0.356945
  H 5.099803 -2.420937 -3.258951
  H 5.016223 -0.957311 -4.161556
  H 2.549977 -0.776020 -3.692503
  H 2.635493 -2.310030 -2.797402
 25
 15.918715
  C 0.944212 0.232256 0.547673
  C 2.287822 0.223729 0.447938
  C 3.203603 0.604898 1.557432
  C 2.535695 0.884311 2.898047
  H 3.294947 1.093318 3.646757
  C 2.852419 -0.174700 -0.878460
  C 4.307244 -0.150813 -1.073764
  C 4.999257 -0.688880 -2.110322
  C 4.562013 -1.432702 -3.302640
  C 3.088417 -1.649547 -3.587160
  H 2.983337 -2.160439 -4.538197
  H 6.078612 -0.569247 -2.072832
  H 0.424424 0.543953 1.434568
  H 0.322703 -0.085021 -0.270984
  H 2.393727 0.515666 -1.602870
  H 3.765730 1.496412 1.255064
  H 3.936385 -0.198921 1.683167
  H 1.957898 0.025770 3.235239
  H 1.879208 1.749214 2.840877
  H 2.433201 -1.141415 -1.174716
  H 4.893777 0.359699 -0.323423
  H 5.081052 -2.400855 -3.286714
  H 5.020334 -0.923568 -4.163910
  H 2.549960 -0.706907 -3.649682
  H 2.622278 -2.279230 -2.832083
 25
 15.599581
  C 0.940076 0.210037 0.557806
  C 2.284764 0.218328 0.444564
  C 3.200759 0.610625 1.551625
  C 2.535068 0.907008 2.890865
  H 3.296586 1.132283 3.633763
  C 2.854235 -0.189069 -0.872227
  C 4.311067 -0.169115 -1.060764
  C 5.002170 -0.700223 -2.102032
  C 4.561805 -1.425490 -3.305693
  C 3.087247 -1.624431 -3.597849
  H 2.980146 -2.122491 -4.558454
  H 6.079360 -0.589063 -2.060630
  H 0.433777 0.492376 1.461628
  H 0.309237 -0.079187 -0.265065
  H 2.393394 0.468345 -1.628467
  H 3.760696 1.497824 1.237097
  H 3.933868 -0.191551 1.687987
  H 1.965168 0.051140 3.244402
  H 1.873206 1.767019 2.822919
  H 2.447404 -1.172600 -1.143604
  H 4.899348 0.326072 -0.302827
  H 5.068977 -2.400276 -3.295171
  H 5.029796 -0.915656 -4.159317
  H 2.558605 -0.677404 -3.649679
  H 2.611497 -2.257524 -2.851869
