12

C -3.495161 0.988143 -0.135791
C -2.052003 0.581097 -0.030846
C -1.647855 -0.481237 0.645339
C -0.238041 -0.953761 0.807977
H 0.07420294095362412 -0.692995064035352 0.5999993964800595
H -4.104239 0.16536 -0.514002
H -3.613504 1.845314 -0.79393
H -3.885063 1.255783 0.848294
H -1.342073 1.210645 -0.542597
H -2.38598 -1.097222 1.14853
H -0.009974 -1.00704 1.879282
H -0.172335 -1.976974 0.413513
