 22
 0.000000
  H 1.396448 0.159218 0.451548
  C 2.476178 0.143649 0.410613
  C 3.234859 0.610589 1.569082
  H 2.603724 0.939321 2.387435
  C 3.042241 -0.326182 -0.758043
  C 4.425007 -0.415480 -0.982491
  C 5.080278 -0.866017 -2.105976
  C 4.606136 -1.381134 -3.390964
  C 3.125818 -1.509482 -3.712945
  C 2.932085 -2.072906 -5.119086
  H 6.162775 -0.847340 -2.059579
  H 3.895990 1.430887 1.278404
  H 3.897514 -0.181228 1.927246
  H 2.363740 -0.638409 -1.532744
  H 5.065924 -0.090198 -0.173405
  H 5.085261 -2.363013 -3.520227
  H 5.086146 -0.761101 -4.162627
  H 2.643547 -0.531647 -3.665200
  H 2.642723 -2.183273 -3.003301
  H 3.380819 -1.422869 -5.866597
  H 1.873290 -2.163785 -5.347226
  H 3.380088 -3.059614 -5.210696
 22
 0.474152
  H 1.428422 0.073529 0.476695
  C 2.508169 0.109202 0.408206
  C 3.218076 0.676218 1.552409
  H 2.538137 0.979433 2.339990
  C 3.058431 -0.398941 -0.746104
  C 4.440473 -0.484364 -0.977526
  C 5.098613 -0.907107 -2.109949
  C 4.619896 -1.391225 -3.400090
  C 3.137039 -1.504274 -3.710600
  C 2.921046 -2.034519 -5.126265
  H 6.180773 -0.876893 -2.048580
  H 3.825592 1.531992 1.248839
  H 3.936481 -0.044785 1.950970
  H 2.321634 -0.715927 -1.460347
  H 5.068212 -0.180890 -0.149972
  H 5.097724 -2.369092 -3.565984
  H 5.100472 -0.763942 -4.166902
  H 2.659296 -0.526565 -3.630879
  H 2.657746 -2.192317 -3.011902
  H 3.361307 -1.370251 -5.866284
  H 1.858488 -2.115479 -5.340737
  H 3.361104 -3.021755 -5.246948
 22
 0.363297
  H 1.420097 -0.010774 0.555528
  C 2.492915 0.060660 0.449711
  C 3.225759 0.733293 1.517625
  H 2.566293 1.065546 2.315093
  C 3.044699 -0.471216 -0.697569
  C 4.429494 -0.531775 -0.940566
  C 5.078897 -0.929835 -2.085874
  C 4.602477 -1.389980 -3.388761
  C 3.126603 -1.504789 -3.713367
  C 2.928987 -1.997461 -5.147904
  H 6.162052 -0.901357 -2.028591
  H 3.777973 1.590298 1.126928
  H 3.993970 0.073496 1.929630
  H 2.356061 -0.834033 -1.443044
  H 5.069126 -0.248723 -0.115686
  H 5.087432 -2.361690 -3.573677
  H 5.086724 -0.745268 -4.139098
  H 2.642922 -0.531681 -3.609554
  H 2.648500 -2.217363 -3.041086
  H 3.376489 -1.314072 -5.862340
  H 1.870400 -2.074167 -5.377815
  H 3.371757 -2.978093 -5.289088
 22
 0.966752
  H 1.439788 -0.109630 0.576948
  C 2.505088 0.015104 0.450237
  C 3.201612 0.787615 1.481361
  H 2.529189 1.121145 2.256784
  C 3.064771 -0.539340 -0.679949
  C 4.446184 -0.592590 -0.924731
  C 5.098270 -0.968696 -2.078112
  C 4.611810 -1.395259 -3.385590
  C 3.132460 -1.493253 -3.693895
  C 2.910143 -1.957419 -5.142400
  H 6.177442 -0.927374 -2.027692
  H 3.703829 1.655877 1.044568
  H 4.007782 0.193659 1.928941
  H 2.343464 -0.910773 -1.391460
  H 5.078921 -0.318257 -0.094293
  H 5.093470 -2.353393 -3.609816
  H 5.086381 -0.726204 -4.119921
  H 2.649609 -0.524750 -3.554425
  H 2.668958 -2.232793 -3.033810
  H 3.347022 -1.258528 -5.852524
  H 1.844654 -2.031368 -5.357164
  H 3.351274 -2.936429 -5.311646
 22
 0.879768
  H 1.437983 -0.148081 0.610969
  C 2.505140 -0.012883 0.474065
  C 3.198532 0.780767 1.488232
  H 2.520418 1.121397 2.266250
  C 3.059328 -0.530280 -0.676227
  C 4.440852 -0.589988 -0.922788
  C 5.090381 -0.941736 -2.084712
  C 4.606474 -1.368824 -3.393994
  C 3.126856 -1.515348 -3.688364
  C 2.903588 -1.969712 -5.133626
  H 6.169477 -0.876915 -2.040944
  H 3.698812 1.638995 1.030856
  H 4.007155 0.201100 1.942884
  H 2.372453 -0.860762 -1.442923
  H 5.076341 -0.330353 -0.088351
  H 5.112515 -2.323904 -3.615689
  H 5.058626 -0.689592 -4.134465
  H 2.619382 -0.561937 -3.540921
  H 2.685793 -2.256048 -3.026217
  H 3.316412 -1.251168 -5.838865
  H 1.843895 -2.067361 -5.338308
  H 3.366094 -2.930278 -5.316269
 22
 1.322117
  H 1.459832 -0.251195 0.647798
  C 2.519871 -0.077714 0.508155
  C 3.173735 0.783213 1.489697
  H 2.486881 1.112240 2.267205
  C 3.077256 -0.536828 -0.661607
  C 4.457044 -0.585926 -0.921747
  C 5.096960 -0.925741 -2.092197
  C 4.604754 -1.362308 -3.393711
  C 3.118690 -1.492124 -3.688134
  C 2.890671 -1.972544 -5.126876
  H 6.178970 -0.862579 -2.058346
  H 3.613020 1.651679 0.995599
  H 4.023918 0.270960 1.955347
  H 2.388101 -0.833106 -1.444437
  H 5.101290 -0.346926 -0.083712
  H 5.103437 -2.323672 -3.609441
  H 5.059211 -0.693273 -4.141981
  H 2.628655 -0.525882 -3.569074
  H 2.654763 -2.207328 -3.008772
  H 3.317995 -1.276269 -5.845826
  H 1.828122 -2.053834 -5.333569
  H 3.336475 -2.947634 -5.288952
 22
 2.061739
  H 1.480407 -0.285360 0.653434
  C 2.539606 -0.097671 0.524051
  C 3.154238 0.797317 1.499902
  H 2.445840 1.126098 2.250532
  C 3.088781 -0.563579 -0.655324
  C 4.466951 -0.608461 -0.922051
  C 5.101582 -0.919908 -2.100916
  C 4.603358 -1.354933 -3.404559
  C 3.114430 -1.479851 -3.691291
  C 2.879667 -1.973465 -5.118101
  H 6.183284 -0.859561 -2.068600
  H 3.591933 1.663863 1.000156
  H 4.000835 0.306982 1.992020
  H 2.367893 -0.799516 -1.422024
  H 5.111600 -0.382956 -0.081356
  H 5.094119 -2.313096 -3.623567
  H 5.059726 -0.683371 -4.151866
  H 2.628212 -0.512505 -3.571694
  H 2.657527 -2.192682 -3.003722
  H 3.305759 -1.286708 -5.844760
  H 1.815828 -2.054670 -5.319569
  H 3.324217 -2.951391 -5.271464
 22
 2.706539
  H 1.544262 -0.479191 0.767127
  C 2.557135 -0.163621 0.548360
  C 3.096658 0.908288 1.385364
  H 2.388451 1.233855 2.144081
  C 3.132255 -0.705626 -0.576370
  C 4.501373 -0.701357 -0.877897
  C 5.121967 -1.019097 -2.062200
  C 4.606005 -1.377070 -3.381877
  C 3.108754 -1.474234 -3.655345
  C 2.851963 -1.852413 -5.108095
  H 6.201725 -0.973686 -2.041597
  H 3.386450 1.751164 0.766538
  H 4.031098 0.589755 1.869295
  H 2.423576 -1.070230 -1.311612
  H 5.154693 -0.465274 -0.047457
  H 5.087463 -2.323979 -3.659610
  H 5.054494 -0.660908 -4.092552
  H 2.630920 -0.518517 -3.456255
  H 2.659007 -2.239816 -3.020934
  H 3.276714 -1.115270 -5.784569
  H 1.782884 -1.907650 -5.302254
  H 3.284667 -2.818951 -5.342517
 22
 3.672425
  H 1.611124 -0.606187 0.876853
  C 2.569286 -0.194950 0.564715
  C 3.055662 0.978985 1.281666
  H 2.396312 1.262258 2.092040
  C 3.145721 -0.798832 -0.531470
  C 4.511373 -0.763866 -0.846414
  C 5.131283 -1.082986 -2.031089
  C 4.604820 -1.380672 -3.362839
  C 3.107253 -1.491207 -3.612919
  C 2.824703 -1.766430 -5.088332
  H 6.211078 -1.028435 -2.013860
  H 3.171758 1.817183 0.591416
  H 4.067463 0.801885 1.664033
  H 2.448586 -1.215970 -1.244203
  H 5.165467 -0.520725 -0.019406
  H 5.100218 -2.302849 -3.701168
  H 5.025260 -0.615977 -4.036496
  H 2.614111 -0.559812 -3.332515
  H 2.688659 -2.312643 -3.027796
  H 3.233042 -0.977430 -5.717553
  H 1.752641 -1.816505 -5.267075
  H 3.261568 -2.713658 -5.401589
 22
 5.700103
  H 1.651763 -0.657829 0.893379
  C 2.589293 -0.206792 0.580616
  C 3.024106 0.981531 1.306237
  H 2.297991 1.293851 2.049570
  C 3.171727 -0.785421 -0.523765
  C 4.533576 -0.761180 -0.853041
  C 5.134070 -1.051918 -2.053409
  C 4.592495 -1.358235 -3.377865
  C 3.095348 -1.474365 -3.612721
  C 2.804747 -1.789483 -5.079198
  H 6.217728 -0.999731 -2.052104
  H 3.205973 1.800476 0.602461
  H 3.994640 0.810784 1.779588
  H 2.442711 -1.094037 -1.265373
  H 5.202654 -0.546193 -0.026234
  H 5.081675 -2.286675 -3.708107
  H 5.007380 -0.602178 -4.065202
  H 2.602287 -0.538156 -3.352735
  H 2.686053 -2.280575 -3.005425
  H 3.211962 -1.016694 -5.733428
  H 1.729751 -1.844089 -5.251735
  H 3.242018 -2.745233 -5.368058
 22
 8.693542
  H 1.665913 -0.677716 0.880032
  C 2.597204 -0.228671 0.557188
  C 2.961851 1.023987 1.214874
  H 2.191710 1.363426 1.900019
  C 3.228874 -0.864782 -0.484030
  C 4.585395 -0.851128 -0.825995
  C 5.168550 -1.068881 -2.048504
  C 4.603626 -1.347742 -3.373644
  C 3.096825 -1.441457 -3.576524
  C 2.768501 -1.721305 -5.040776
  H 6.252223 -1.031134 -2.058067
  H 3.159499 1.796689 0.469584
  H 3.908142 0.906075 1.751599
  H 2.455080 -1.115173 -1.209627
  H 5.260517 -0.690549 0.003574
  H 5.069542 -2.277464 -3.720169
  H 5.011576 -0.587403 -4.053766
  H 2.623662 -0.499839 -3.288222
  H 2.689533 -2.255654 -2.973514
  H 3.144054 -0.927506 -5.683117
  H 1.692388 -1.787793 -5.182998
  H 3.209141 -2.660533 -5.366751
 22
 12.107431
  H 1.709795 -0.725289 0.890090
  C 2.622941 -0.253294 0.532968
  C 2.871888 1.074870 1.096171
  H 2.182339 1.306910 1.897258
  C 3.298295 -0.945889 -0.443019
  C 4.644498 -0.920134 -0.808707
  C 5.212220 -1.133729 -2.040223
  C 4.618464 -1.351761 -3.362088
  C 3.106207 -1.386206 -3.531439
  C 2.733707 -1.624230 -4.993493
  H 6.293045 -1.118704 -2.061475
  H 2.783632 1.835906 0.318003
  H 3.905587 1.148779 1.450810
  H 2.476119 -1.227550 -1.111511
  H 5.329327 -0.779569 0.021087
  H 5.038888 -2.296220 -3.737234
  H 5.044884 -0.591806 -4.033132
  H 2.679336 -0.433333 -3.215065
  H 2.682545 -2.190559 -2.931756
  H 3.143186 -0.844497 -5.631841
  H 1.653518 -1.625618 -5.116296
  H 3.113155 -2.582203 -5.342136
 22
 21.119215
  H 1.757101 -0.793937 0.893312
  C 2.620549 -0.261973 0.500397
  C 2.762272 1.101917 1.031770
  H 2.009367 1.317049 1.782289
  C 3.384582 -0.914554 -0.441524
  C 4.716745 -0.918453 -0.833492
  C 5.265759 -1.163800 -2.067742
  C 4.637055 -1.367510 -3.379263
  C 3.118871 -1.337966 -3.501063
  C 2.686855 -1.575348 -4.946236
  H 6.346393 -1.203023 -2.101760
  H 2.679733 1.839361 0.232624
  H 3.762928 1.228043 1.454152
  H 2.486760 -1.128401 -1.047356
  H 5.409975 -0.803005 -0.006855
  H 5.011010 -2.323908 -3.766945
  H 5.067828 -0.617930 -4.056302
  H 2.741743 -0.366318 -3.177920
  H 2.686360 -2.125062 -2.880316
  H 3.103269 -0.817145 -5.606490
  H 1.603627 -1.537488 -5.031938
  H 3.018895 -2.550313 -5.296795
