 25
 0.000000
  H 1.456883 0.170356 0.475190
  C 2.535804 0.149415 0.422752
  C 3.301351 0.615384 1.582176
  C 2.463543 1.090002 2.763638
  C 3.348092 1.553295 3.916643
  C 3.085958 -0.322290 -0.751599
  C 4.465779 -0.423462 -1.003983
  C 5.099036 -0.878390 -2.138154
  C 4.597378 -1.391491 -3.417299
  C 3.109046 -1.504500 -3.699554
  H 2.958933 -1.904592 -4.696932
  H 6.181448 -0.869895 -2.117094
  H 3.965827 1.429701 1.267343
  H 3.966009 -0.190244 1.918231
  H 1.820496 0.280418 3.113950
  H 1.820372 1.916854 2.456517
  H 3.983273 0.744589 4.270831
  H 2.736470 1.888229 4.750553
  H 3.983128 2.382356 3.612829
  H 2.396802 -0.630388 -1.518727
  H 5.114234 -0.100303 -0.199042
  H 5.061678 -2.378376 -3.552241
  H 5.062034 -0.771762 -4.196927
  H 2.627711 -0.529888 -3.653908
  H 2.627438 -2.177229 -2.993048
 25
 1.227867
  H 1.497474 0.044923 0.557387
  C 2.573416 0.068381 0.461505
  C 3.325000 0.628508 1.582551
  C 2.461346 1.071555 2.757474
  C 3.309071 1.634250 3.891640
  C 3.127923 -0.402945 -0.695852
  C 4.499217 -0.540946 -0.930534
  C 5.085032 -0.946420 -2.123346
  C 4.563791 -1.360961 -3.422283
  C 3.075917 -1.412792 -3.723818
  H 2.936776 -1.745407 -4.750282
  H 6.169401 -0.962994 -2.092892
  H 3.931665 1.473143 1.235001
  H 4.055449 -0.115452 1.925709
  H 1.880335 0.225280 3.128394
  H 1.753843 1.834610 2.427818
  H 4.005742 0.888068 4.265707
  H 2.677123 1.945273 4.719310
  H 3.877214 2.500313 3.561358
  H 2.505793 -0.734767 -1.520181
  H 5.205448 -0.319741 -0.143474
  H 5.006781 -2.349166 -3.618320
  H 5.061895 -0.717906 -4.163170
  H 2.612561 -0.432649 -3.632320
  H 2.558170 -2.123119 -3.082016
 25
 2.030935
  H 1.506525 -0.247213 0.685801
  C 2.576555 -0.126458 0.525753
  C 3.303334 0.630983 1.545771
  C 2.462645 1.048159 2.744322
  C 3.299382 1.783810 3.774161
  C 3.137535 -0.640727 -0.613897
  C 4.503921 -0.831219 -0.865940
  C 5.102293 -1.074894 -2.071735
  C 4.575261 -1.274885 -3.426442
  C 3.087415 -1.195287 -3.719624
  H 2.924019 -1.343110 -4.787933
  H 6.180659 -1.136203 -2.020720
  H 3.759425 1.524587 1.099988
  H 4.160290 0.032625 1.884718
  H 2.031643 0.162723 3.208016
  H 1.647924 1.690031 2.421653
  H 4.103432 1.155660 4.139041
  H 2.690597 2.073518 4.621765
  H 3.734855 2.682915 3.350566
  H 2.481043 -1.028663 -1.385656
  H 5.177777 -0.752880 -0.022501
  H 4.966036 -2.236944 -3.771295
  H 5.102355 -0.552989 -4.058434
  H 2.683700 -0.218278 -3.446931
  H 2.534007 -1.979042 -3.201898
 25
 6.405740
  H 1.546378 -0.466663 0.757609
  C 2.594555 -0.268159 0.552600
  C 3.295741 0.613559 1.503054
  C 2.454897 1.034131 2.703354
  C 3.271068 1.871368 3.674849
  C 3.177341 -0.785511 -0.541646
  C 4.545020 -1.019444 -0.799021
  C 5.110333 -1.141035 -2.050447
  C 4.554841 -1.189226 -3.394738
  C 3.062243 -1.039701 -3.645474
  H 2.879512 -1.078951 -4.713005
  H 6.195198 -1.239536 -2.033857
  H 3.660012 1.502442 0.989378
  H 4.201998 0.095392 1.856410
  H 2.082106 0.147405 3.221049
  H 1.597215 1.619147 2.364868
  H 4.114174 1.308780 4.057015
  H 2.668070 2.163714 4.514670
  H 3.640489 2.758636 3.204925
  H 2.634030 -1.256855 -1.358831
  H 5.256390 -1.032851 0.018308
  H 4.899751 -2.133700 -3.849745
  H 5.078727 -0.403987 -3.965527
  H 2.690990 -0.080088 -3.275012
  H 2.488632 -1.836996 -3.198474
 25
 10.405230
  H 1.599083 -0.638368 0.839500
  C 2.616745 -0.372703 0.590698
  C 3.267436 0.610215 1.469574
  C 2.445306 1.012585 2.697759
  C 3.247969 1.920346 3.626019
  C 3.208481 -0.885577 -0.494343
  C 4.576905 -1.084337 -0.799139
  C 5.123514 -1.145488 -2.065437
  C 4.537069 -1.157144 -3.403340
  C 3.046330 -0.953561 -3.608900
  H 2.840472 -0.892228 -4.666672
  H 6.196800 -1.224446 -2.077023
  H 3.599040 1.494807 0.925049
  H 4.200366 0.127832 1.800696
  H 2.158302 0.112502 3.244557
  H 1.517610 1.523373 2.385038
  H 4.151480 1.428980 3.963527
  H 2.662749 2.179232 4.500766
  H 3.522286 2.840562 3.128110
  H 2.711705 -1.467107 -1.294749
  H 5.305526 -1.100009 -0.001877
  H 4.909146 -2.040087 -3.928127
  H 5.064049 -0.323175 -3.897203
  H 2.706996 -0.036537 -3.136249
  H 2.455622 -1.787838 -3.225042
 25
 15.479333
  H 1.771378 -0.888983 0.968348
  C 2.728935 -0.512914 0.652921
  C 3.317245 0.566613 1.476553
  C 2.447421 0.957125 2.670201
  C 3.130935 2.015695 3.532957
  C 3.321835 -1.016873 -0.435637
  C 4.668548 -1.241031 -0.836132
  C 5.162556 -1.216852 -2.120184
  C 4.500378 -1.053457 -3.423610
  C 3.005530 -0.782836 -3.487952
  H 2.719152 -0.650408 -4.524730
  H 6.238760 -1.338494 -2.198686
  H 3.499302 1.454480 0.863742
  H 4.288736 0.198274 1.825889
  H 2.190512 0.081799 3.262856
  H 1.514317 1.379895 2.286294
  H 4.074126 1.642060 3.932920
  H 2.494419 2.291367 4.373159
  H 3.336011 2.915154 2.954826
  H 2.856954 -1.654492 -1.186198
  H 5.417191 -1.351510 -0.050965
  H 4.764076 -1.917154 -4.044852
  H 5.022225 -0.202989 -3.872368
  H 2.741616 0.126404 -2.946500
  H 2.414137 -1.613775 -3.112344
 25
 19.456930
  H 1.890225 -1.029169 0.998056
  C 2.837339 -0.606258 0.668550
  C 3.335337 0.556948 1.446839
  C 2.417386 0.945619 2.602251
  C 3.017827 2.085569 3.427407
  C 3.463129 -1.109878 -0.391595
  C 4.778655 -1.373482 -0.879204
  C 5.205243 -1.250999 -2.178891
  C 4.455146 -0.943540 -3.397036
  C 2.970741 -0.632767 -3.318815
  H 2.600182 -0.382591 -4.310979
  H 6.253815 -1.462557 -2.349432
  H 3.455159 1.423501 0.791546
  H 4.336326 0.303935 1.819472
  H 2.255101 0.088163 3.261487
  H 1.446184 1.250694 2.219518
  H 3.990110 1.797894 3.820228
  H 2.379993 2.307891 4.281971
  H 3.133413 2.991329 2.835282
  H 3.014915 -1.856906 -1.049383
  H 5.544496 -1.660009 -0.161981
  H 4.621303 -1.782703 -4.083843
  H 4.994959 -0.121844 -3.892564
  H 2.779692 0.209472 -2.649274
  H 2.393680 -1.485240 -2.964063
 25
 25.928915
  H 2.058267 -1.175701 1.055482
  C 2.960840 -0.693162 0.694346
  C 3.357019 0.560949 1.405191
  C 2.426019 0.897543 2.569680
  C 2.883572 2.165871 3.278929
  C 3.597618 -1.197572 -0.348973
  C 4.820965 -1.596013 -0.958828
  C 5.209938 -1.385701 -2.251249
  C 4.426113 -0.845503 -3.365373
  C 2.986603 -0.436122 -3.100431
  H 2.554347 -0.036866 -4.012467
  H 6.225232 -1.644109 -2.495308
  H 3.370112 1.400504 0.703243
  H 4.379875 0.448139 1.782440
  H 2.415669 0.074061 3.277674
  H 1.411440 1.040405 2.197089
  H 3.901318 2.056522 3.657478
  H 2.228682 2.386972 4.121488
  H 2.857124 3.019629 2.599133
  H 3.147788 -2.053986 -0.920020
  H 5.552155 -2.043484 -0.288357
  H 4.452213 -1.583819 -4.180235
  H 4.986755 0.005144 -3.774283
  H 2.931557 0.331625 -2.327057
  H 2.365280 -1.285401 -2.812194
 25
 34.107612
  H 2.121505 -1.128570 0.976870
  C 3.057860 -0.664014 0.695819
  C 3.405759 0.597110 1.438903
  C 2.397086 0.917837 2.548289
  C 2.785327 2.195696 3.286591
  C 3.762242 -1.153463 -0.296420
  C 4.861504 -1.667055 -1.016095
  C 5.187844 -1.451980 -2.334642
  C 4.372956 -0.841458 -3.388324
  C 2.967305 -0.389895 -3.036389
  H 2.485717 0.013646 -3.923696
  H 6.170285 -1.775762 -2.642666
  H 3.448627 1.427829 0.728496
  H 4.403111 0.489492 1.870880
  H 2.358604 0.091769 3.262554
  H 1.404190 1.042474 2.119119
  H 3.766408 2.091062 3.755849
  H 2.057558 2.420970 4.069509
  H 2.822103 3.041321 2.603932
  H 3.392330 -2.071089 -0.874189
  H 5.585671 -2.219384 -0.419296
  H 4.337962 -1.549172 -4.229302
  H 4.946249 0.009350 -3.784329
  H 2.986916 0.394053 -2.270227
  H 2.353521 -1.213874 -2.687750
 25
 39.526821
  H 2.175276 -1.132395 0.965862
  C 3.123551 -0.672868 0.711571
  C 3.445780 0.588501 1.468391
  C 2.361901 0.939931 2.479416
  C 2.718512 2.215809 3.237044
  C 3.865292 -1.161350 -0.234845
  C 4.877197 -1.722256 -1.050543
  C 5.171526 -1.469953 -2.388247
  C 4.310398 -0.832935 -3.392697
  C 2.961566 -0.305397 -2.925449
  H 2.444201 0.147087 -3.764327
  H 6.133699 -1.808595 -2.749201
  H 3.567782 1.414189 0.757827
  H 4.404429 0.460019 1.985561
  H 2.242481 0.122677 3.191642
  H 1.409648 1.086516 1.966475
  H 3.657485 2.099884 3.769649
  H 1.947320 2.456020 3.962184
  H 2.814320 3.055688 2.555262
  H 3.605369 -2.138772 -0.897597
  H 5.633372 -2.279087 -0.502859
  H 4.168460 -1.546686 -4.215809
  H 4.886029 -0.016625 -3.846795
  H 3.082358 0.452167 -2.158656
  H 2.325957 -1.100915 -2.542317
 25
 42.161279
  H 2.146462 -1.046284 0.917111
  C 3.126783 -0.638933 0.696494
  C 3.473638 0.604453 1.487841
  C 2.352236 0.998852 2.447423
  C 2.731457 2.245700 3.235312
  C 3.891686 -1.167048 -0.188966
  C 4.802641 -1.808035 -1.054173
  C 5.136883 -1.463410 -2.396957
  C 4.284282 -0.774617 -3.374373
  C 2.918203 -0.304960 -2.900261
  H 2.406410 0.196891 -3.715805
  H 6.106239 -1.772288 -2.748796
  H 3.671456 1.422892 0.795302
  H 4.394235 0.421696 2.051757
  H 2.155865 0.180777 3.145509
  H 1.437465 1.195650 1.888294
  H 3.637259 2.074941 3.819862
  H 1.933658 2.518485 3.919720
  H 2.908175 3.088408 2.566820
  H 3.755989 -2.349857 -1.110228
  H 5.564706 -2.372869 -0.520323
  H 4.165705 -1.432804 -4.247059
  H 4.853089 0.084393 -3.764494
  H 3.010583 0.401273 -2.079444
  H 2.289139 -1.141019 -2.587607
 25
 43.178507
  H 2.158501 -1.098384 0.995636
  C 3.124927 -0.679406 0.730160
  C 3.459660 0.602337 1.471048
  C 2.338982 1.014064 2.421022
  C 2.704996 2.302451 3.150870
  C 3.874161 -1.220241 -0.157201
  C 4.742979 -1.885928 -1.047591
  C 5.112084 -1.462025 -2.381701
  C 4.278416 -0.727510 -3.339249
  C 2.928408 -0.234639 -2.841853
  H 2.414369 0.291014 -3.642339
  H 6.086612 -1.768320 -2.725857
  H 3.636643 1.394775 0.742173
  H 4.384109 0.454495 2.031314
  H 2.171790 0.226207 3.157359
  H 1.416994 1.174054 1.859886
  H 3.619339 2.175422 3.726303
  H 1.910873 2.588906 3.835864
  H 2.854733 3.117737 2.446203
  H 3.788921 -2.421224 -1.330177
  H 5.530924 -2.399955 -0.504356
  H 4.140272 -1.358435 -4.226789
  H 4.875625 0.123988 -3.689541
  H 3.044544 0.452845 -2.008939
  H 2.286587 -1.056300 -2.531924
