13

C 1.008113 -0.070829 0.049011
C 2.504371 -0.08236 0.026375
C 3.218971 -0.595514 -0.981034
C 4.656599 -0.607158 -1.003891
C 5.375578 -1.123088 -2.016748
H 6.445488623144526 -1.1293666252933217 -2.0290702297867513
H 0.646817 0.395536 0.964559
H 0.612169 -1.085466 0.010624
H 0.61217 0.494686 -0.794288
H 3.005626 0.352843 0.880756
H 2.706709 -1.028671 -1.831382
H 5.162769 -0.172068 -0.149741
H 4.87252 -1.558196 -2.870937
