 14
 0.000000
  C 0.958733 0.142238 0.405928
  C 2.435627 0.138812 0.396949
  H 3.007996 0.476028 1.235745
  C 3.047724 -0.326485 -0.761128
  C 4.427680 -0.410350 -0.970580
  C 5.111749 -0.860636 -2.093538
  H 4.760337 -1.236769 -3.031586
  O 6.434575 -0.852273 -2.073085
  H 0.530877 0.513603 1.329858
  H 0.585106 -0.868946 0.237722
  H 0.584800 0.755552 -0.415298
  H 2.388559 -0.643775 -1.550690
  H 5.047217 -0.079018 -0.145404
  H 6.800018 -0.516405 -1.234749
 14
 0.000000
  C 0.947630 0.142907 0.407588
  C 2.424498 0.147978 0.419800
  H 2.982824 0.488449 1.266708
  C 3.055815 -0.313744 -0.729357
  C 4.439095 -0.389660 -0.918985
  C 5.206585 -0.877128 -2.134664
  H 4.870837 -1.255241 -3.077641
  O 6.384137 -0.876383 -2.133188
  H 0.504432 0.511768 1.325269
  H 0.582279 -0.870404 0.234082
  H 0.581995 0.754091 -0.418945
  H 2.409882 -0.634791 -1.528282
  H 5.044813 -0.054801 -0.085018
  H 6.686177 -0.541464 -1.297225
 14
 0.000000
  C 0.930678 0.144992 0.412780
  C 2.407200 0.158023 0.444841
  H 2.952250 0.501470 1.299165
  C 3.056386 -0.300251 -0.695709
  C 4.442481 -0.368704 -0.866724
  C 5.301564 -0.896683 -2.183423
  H 4.980564 -1.276567 -3.130815
  O 6.358114 -0.903515 -2.200827
  H 0.473203 0.511428 1.324407
  H 0.573158 -0.870267 0.234417
  H 0.572897 0.754225 -0.418618
  H 2.422990 -0.624748 -1.503233
  H 5.035121 -0.030614 -0.024704
  H 6.611335 -0.566417 -1.359432
 14
 0.000000
  C 0.908101 0.148568 0.421688
  C 2.384027 0.168973 0.472140
  H 2.916671 0.515113 1.333176
  C 3.049652 -0.286020 -0.660221
  C 4.438095 -0.347544 -0.813954
  C 5.396930 -0.919380 -2.240018
  H 5.089657 -1.300835 -3.191323
  O 6.356103 -0.933411 -2.275359
  H 0.437481 0.512689 1.327534
  H 0.557906 -0.868459 0.238918
  H 0.557666 0.756031 -0.414123
  H 2.427992 -0.613652 -1.475562
  H 5.018505 -0.006522 0.035373
  H 6.571781 -0.590933 -1.420546
 14
 0.000000
  C 0.880599 0.153576 0.434162
  C 2.355749 0.180707 0.501392
  H 2.876984 0.529252 1.368420
  C 3.036273 -0.271220 -0.623315
  C 4.426641 -0.326410 -0.761250
  C 5.491990 -0.944789 -2.303373
  H 5.197296 -1.327618 -3.258100
  O 6.375808 -0.965441 -2.355210
  H 0.398054 0.515525 1.334590
  H 0.537144 -0.865033 0.247451
  H 0.536924 0.759455 -0.405596
  H 2.425424 -0.601663 -1.445664
  H 4.995796 0.017234 0.094613
  H 6.562545 -0.614491 -1.479270
 14
 0.000000
  C 0.849269 0.159814 0.449705
  C 2.323527 0.193016 0.532077
  H 2.834394 0.543687 1.404404
  C 3.017419 -0.256084 -0.585574
  C 4.409346 -0.305548 -0.709224
  C 5.585736 -0.972053 -2.371352
  H 5.302438 -1.356073 -3.329047
  O 6.412868 -0.998715 -2.438164
  H 0.356018 0.519757 1.345123
  H 0.511945 -0.860196 0.259500
  H 0.511743 0.764289 -0.393551
  H 2.416410 -0.589024 -1.414143
  H 4.968264 0.040419 0.152430
  H 6.576626 -0.636677 -1.534569
 14
 0.000000
  C 0.815124 0.167051 0.467737
  C 2.288420 0.205743 0.563803
  H 2.789850 0.558300 1.440832
  C 2.994334 -0.240753 -0.547345
  C 4.387525 -0.285030 -0.658056
  C 5.677677 -1.000298 -2.441777
  H 5.404722 -1.385355 -3.402056
  O 6.462392 -1.032450 -2.522269
  H 0.312238 0.525140 1.358527
  H 0.483383 -0.854206 0.274426
  H 0.483198 0.770278 -0.378630
  H 2.402293 -0.575916 -1.381457
  H 4.937121 0.063003 0.208747
  H 6.606579 -0.657432 -1.586298
 14
 0.000000
  C 0.778776 0.175119 0.487841
  C 2.251061 0.218836 0.596443
  H 2.743802 0.573091 1.477703
  C 2.967927 -0.225234 -0.508649
  C 4.362153 -0.264756 -0.607497
  C 5.767919 -1.028897 -2.513084
  H 5.504463 -1.414871 -3.475646
  O 6.520515 -1.066153 -2.606295
  H 0.267106 0.531479 1.374313
  H 0.452179 -0.847262 0.291729
  H 0.452010 0.777220 -0.361331
  H 2.384155 -0.562405 -1.347765
  H 4.903161 0.085140 0.263948
  H 6.646394 -0.676966 -1.634982
 14
 0.000000
  C 0.740458 0.183931 0.509802
  C 2.211690 0.232323 0.630064
  H 2.696307 0.588132 1.515196
  C 2.938696 -0.209456 -0.469307
  C 4.333781 -0.244549 -0.557106
  C 5.856781 -1.057457 -2.584291
  H 5.602186 -1.444253 -3.548905
  O 6.584725 -1.099555 -2.689571
  H 0.220652 0.538655 1.392187
  H 0.418674 -0.839479 0.311123
  H 0.418520 0.785001 -0.341941
  H 2.362664 -0.548470 -1.313017
  H 4.866754 0.107054 0.318594
  H 6.691938 -0.695556 -1.681313
 14
 0.000000
  C 0.700144 0.193465 0.533561
  C 2.170284 0.246270 0.664832
  H 2.647191 0.603522 1.553562
  C 2.906821 -0.193316 -0.429061
  C 4.302623 -0.224222 -0.506414
  C 5.944514 -1.085708 -2.654728
  H 5.698309 -1.473256 -3.621217
  O 6.653514 -1.132498 -2.771700
  H 0.172685 0.546619 1.412025
  H 0.382928 -0.830905 0.332491
  H 0.382788 0.793574 -0.320577
  H 2.338140 -0.534048 -1.277056
  H 4.827968 0.128971 0.373246
  H 6.740507 -0.713426 -1.725850
 14
 0.000000
  C 0.657622 0.203740 0.559167
  C 2.126626 0.260766 0.700968
  H 2.596125 0.619379 1.593089
  C 2.872242 -0.176693 -0.387615
  C 4.268646 -0.203589 -0.454963
  C 6.031187 -1.113427 -2.723837
  H 5.793027 -1.501670 -3.692062
  O 6.725962 -1.164854 -2.852366
  H 0.122870 0.555370 1.433826
  H 0.344798 -0.821535 0.355842
  H 0.344672 0.802943 -0.297229
  H 2.310632 -0.519050 -1.239658
  H 4.786658 0.151103 0.428434
  H 6.790279 -0.730705 -1.768916
 14
 0.000000
  C 0.612499 0.214815 0.586768
  C 2.080319 0.275925 0.738758
  H 2.542619 0.635835 1.634111
  C 2.834685 -0.159450 -0.344620
  C 4.231592 -0.182462 -0.402278
  C 6.116643 -1.140376 -2.791025
  H 5.886288 -1.529270 -3.760876
  O 6.801423 -1.196478 -2.931207
  H 0.070715 0.564949 1.457692
  H 0.303946 -0.811324 0.381289
  H 0.303834 0.813152 -0.271786
  H 2.279955 -0.503361 -1.200537
  H 4.742474 0.173662 0.484688
  H 6.839898 -0.747414 -1.810561
 14
 0.000000
  C 0.564132 0.226796 0.616628
  C 2.030714 0.291904 0.778591
  H 2.485934 0.653065 1.677062
  C 2.793610 -0.141406 -0.299630
  C 4.190934 -0.160611 -0.347792
  C 6.200445 -1.166251 -2.855536
  H 5.977747 -1.555762 -3.826926
  O 6.879280 -1.227159 -3.007695
  H 0.015489 0.575446 1.483845
  H 0.259780 -0.800178 0.409067
  H 0.259681 0.824297 -0.244011
  H 2.245649 -0.486820 -1.159294
  H 4.694803 0.196897 0.542624
  H 6.888163 -0.763438 -1.850501
 14
 0.000000
  C 0.511406 0.239872 0.649215
  C 1.976679 0.308948 0.821079
  H 2.424842 0.671333 1.722600
  C 2.748010 -0.122286 -0.251961
  C 4.145675 -0.137709 -0.290683
  C 6.281723 -1.190600 -2.916239
  H 6.066647 -1.580702 -3.889109
  O 6.958674 -1.256531 -3.080922
  H -0.044024 0.587029 1.512704
  H 0.211243 -0.787921 0.439614
  H 0.211158 0.836553 -0.213466
  H 2.206805 -0.469176 -1.115302
  H 4.642549 0.221155 0.603111
  H 6.933696 -0.778465 -1.887957
