23

C 0.968767 0.139351 0.399601
C 2.446447 0.138115 0.395346
H 3.0144071189416857 0.476468775834685 1.2366771034724424
C 3.060064 -0.326115 -0.760183
C 4.43913 -0.411993 -0.974599
C 5.11752 -0.862202 -2.097077
C 4.624486 -1.385397 -3.401999
C 3.133757 -1.503599 -3.698069
C 2.909725 -2.065379 -5.099248
O 6.44274 -0.856648 -2.083073
H 0.534549 0.509729 1.321297
H 0.597045 -0.873003 0.234389
H 0.596429 0.755461 -0.420228
H 2.401323 -0.643773 -1.550558
H 5.055886 -0.079861 -0.147388
H 5.080522 -2.374227 -3.527366
H 5.081103 -0.757501 -4.175802
H 2.658264 -0.523206 -3.644748
H 2.657666 -2.175228 -2.982296
H 3.348295 -1.417939 -5.85547
H 1.844404 -2.146354 -5.302183
H 3.347712 -3.0562 -5.198554
H 6.812423 -0.5211 -1.244862
