 23
 0.000000
  C 0.925935 0.046071 0.319191
  C 2.390202 0.063612 0.008409
  H 3.032833 0.014599 0.877112
  C 2.977372 0.131388 -1.192658
  C 2.349616 0.208672 -2.562331
  C 0.834305 0.218846 -2.742649
  C 0.482895 0.302518 -4.225550
  C 4.436216 0.132846 -1.218482
  C 5.230155 0.193171 -2.287699
  O 6.587200 0.190441 -2.239523
  H 0.754894 -0.014529 1.393072
  H 0.438276 -0.817809 -0.126931
  H 0.438269 0.954650 -0.026913
  H 2.737975 -0.639571 -3.136867
  H 2.737974 1.116173 -3.037799
  H 0.394300 1.077761 -2.236811
  H 0.394302 -0.691530 -2.336643
  H 0.885480 1.211275 -4.668378
  H -0.597060 0.309913 -4.356629
  H 0.885486 -0.550658 -4.767800
  H 4.924565 0.078215 -0.250341
  H 4.896307 0.250916 -3.310998
  H 6.877918 0.138539 -1.319693
 23
 7.442916
  C 0.812826 0.044401 0.348778
  C 2.430266 0.064508 -0.007466
  H 3.072930 0.015664 0.858239
  C 3.008340 0.132147 -1.206119
  C 2.373079 0.209180 -2.571344
  C 0.856726 0.218371 -2.734238
  C 0.488182 0.301815 -4.213088
  C 4.467140 0.133828 -1.235882
  C 5.257269 0.194296 -2.307652
  O 6.613673 0.191854 -2.264538
  H 0.659322 -0.016216 1.422962
  H 0.326808 -0.818167 -0.094461
  H 0.326801 0.951353 0.005391
  H 2.757325 -0.638923 -3.148813
  H 2.757324 1.116869 -3.049741
  H 0.422842 1.076654 -2.222405
  H 0.422845 -0.692048 -2.322205
  H 0.885432 1.210789 -4.660320
  H -0.593115 0.308535 -4.332222
  H 0.885438 -0.551080 -4.759739
  H 4.957611 0.079242 -0.268538
  H 4.918900 0.251961 -3.329538
  H 6.908345 0.140018 -1.345881
 23
 23.285847
  C 0.695700 0.043779 0.359798
  C 2.467770 0.066067 -0.035092
  H 3.090281 0.016814 0.837867
  C 3.038502 0.133309 -1.226739
  C 2.398633 0.210074 -2.587237
  C 0.881752 0.217418 -2.717390
  C 0.479783 0.300388 -4.187782
  C 4.499711 0.134651 -1.250480
  C 5.290899 0.195030 -2.320679
  O 6.645565 0.192546 -2.276759
  H 0.575755 -0.016764 1.432693
  H 0.227372 -0.817928 -0.087481
  H 0.227365 0.950330 0.012298
  H 2.776964 -0.638001 -3.168690
  H 2.776960 1.118174 -3.069591
  H 0.460817 1.074239 -2.193142
  H 0.460819 -0.692943 -2.292855
  H 0.866534 1.209781 -4.643474
  H -0.603690 0.305796 -4.283649
  H 0.866533 -0.551961 -4.742880
  H 4.985839 0.079915 -0.280418
  H 4.951298 0.252681 -3.342378
  H 6.941248 0.140724 -1.358274
 23
 41.039429
  C 0.572480 0.041637 0.397770
  C 2.497923 0.066414 -0.041248
  H 3.103832 0.016394 0.845283
  C 3.067645 0.134358 -1.245334
  C 2.424393 0.211106 -2.605525
  C 0.905489 0.217186 -2.713269
  C 0.479076 0.299755 -4.176578
  C 4.531693 0.135609 -1.267484
  C 5.320322 0.196118 -2.339957
  O 6.675983 0.193906 -2.300825
  H 0.488340 -0.019127 1.474586
  H 0.119613 -0.826514 -0.056050
  H 0.119607 0.955327 0.044496
  H 2.798913 -0.636902 -3.189447
  H 2.798914 1.119424 -3.090343
  H 0.494420 1.072981 -2.179933
  H 0.494423 -0.693176 -2.279591
  H 0.857972 1.209373 -4.638303
  H -0.605755 0.304200 -4.255361
  H 0.857974 -0.552145 -4.737699
  H 5.016845 0.080881 -0.297566
  H 4.975468 0.253677 -3.360036
  H 6.976277 0.142170 -1.383879
 23
 58.658317
  C 0.460974 0.042314 0.385764
  C 2.543031 0.068775 -0.083090
  H 3.125086 0.018154 0.814088
  C 3.096913 0.135033 -1.257301
  C 2.448183 0.211316 -2.609247
  C 0.928147 0.215618 -2.685479
  C 0.468333 0.297595 -4.138283
  C 4.559038 0.136107 -1.276326
  C 5.345358 0.196651 -2.349403
  O 6.699346 0.194593 -2.312985
  H 0.403019 -0.018332 1.460506
  H 0.029540 -0.827713 -0.076297
  H 0.029536 0.958797 0.024513
  H 2.816033 -0.636560 -3.196940
  H 2.816033 1.119920 -3.097825
  H 0.530022 1.070481 -2.140406
  H 0.530021 -0.695142 -2.240031
  H 0.835865 1.207678 -4.608372
  H -0.617895 0.300674 -4.192857
  H 0.835865 -0.553823 -4.707764
  H 5.042698 0.081344 -0.305780
  H 4.997149 0.254134 -3.368123
  H 7.002250 0.142912 -1.397014
 23
 72.596228
  C 0.318632 0.039962 0.427431
  C 2.549481 0.070012 -0.105041
  H 3.048573 0.016662 0.840487
  C 3.116749 0.136833 -1.289230
  C 2.481140 0.213070 -2.640327
  C 0.956186 0.215556 -2.684333
  C 0.456200 0.296648 -4.121432
  C 4.584001 0.136909 -1.290560
  C 5.372616 0.197356 -2.361896
  O 6.729733 0.195326 -2.325933
  H 0.386515 -0.020525 1.499349
  H -0.045020 -0.847424 -0.058871
  H -0.045025 0.976425 0.044043
  H 2.845693 -0.637335 -3.225592
  H 2.845696 1.123917 -3.126211
  H 0.578873 1.069269 -2.119637
  H 0.578865 -0.696274 -2.219253
  H 0.810775 1.207062 -4.600907
  H -0.631067 0.298142 -4.147712
  H 0.810789 -0.554078 -4.700314
  H 5.054419 0.081901 -0.315631
  H 5.019979 0.254796 -3.379894
  H 7.034840 0.143635 -1.409767
 23
 86.367807
  C 0.195624 0.038643 0.450816
  C 2.582062 0.070635 -0.116078
  H 3.062385 0.016836 0.837437
  C 3.149987 0.137374 -1.298837
  C 2.499115 0.213800 -2.653316
  C 0.976450 0.214794 -2.670897
  C 0.449122 0.295377 -4.099015
  C 4.621771 0.137599 -1.302801
  C 5.407681 0.198206 -2.376954
  O 6.760687 0.196391 -2.344783
  H 0.283463 -0.021551 1.517580
  H -0.150879 -0.846707 -0.039712
  H -0.150883 0.973552 0.062999
  H 2.856087 -0.636265 -3.243802
  H 2.856090 1.124895 -3.144428
  H 0.610246 1.065972 -2.099319
  H 0.610244 -0.695282 -2.198697
  H 0.793618 1.206150 -4.585071
  H -0.638340 0.295719 -4.104964
  H 0.793614 -0.554923 -4.684439
  H 5.094160 0.082575 -0.327566
  H 5.052324 0.255529 -3.392910
  H 7.067427 0.144847 -1.431216
 23
 97.745907
  C 0.068523 0.037378 0.473232
  C 2.609668 0.071521 -0.131780
  H 3.067833 0.017120 0.832384
  C 3.178736 0.138030 -1.310471
  C 2.522608 0.214044 -2.657622
  C 0.998979 0.213806 -2.653364
  C 0.449438 0.293877 -4.072384
  C 4.649807 0.138496 -1.318701
  C 5.428588 0.199274 -2.395866
  O 6.785522 0.197923 -2.371915
  H 0.183958 -0.022703 1.538000
  H -0.259692 -0.852577 -0.025763
  H -0.259695 0.977819 0.077521
  H 2.874366 -0.635426 -3.250928
  H 2.874369 1.124863 -3.151598
  H 0.641513 1.065475 -2.074062
  H 0.641512 -0.697624 -2.173548
  H 0.785514 1.204973 -4.563682
  H -0.637965 0.293257 -4.061287
  H 0.785518 -0.556174 -4.663069
  H 5.124618 0.083599 -0.345748
  H 5.065598 0.256502 -3.410106
  H 7.099386 0.146354 -1.457939
 23
 106.759807
  C -0.060995 0.036440 0.489849
  C 2.637203 0.072177 -0.143405
  H 3.073347 0.017269 0.829755
  C 3.209902 0.138499 -1.318799
  C 2.542959 0.214351 -2.663069
  C 1.019501 0.212650 -2.632899
  C 0.443458 0.292128 -4.041408
  C 4.683609 0.139198 -1.331150
  C 5.459167 0.200319 -2.414387
  O 6.811940 0.199330 -2.396863
  H 0.073129 -0.023384 1.550078
  H -0.370319 -0.853212 -0.015726
  H -0.370321 0.977320 0.087564
  H 2.887898 -0.635309 -3.260775
  H 2.887903 1.125856 -3.161400
  H 0.672663 1.062940 -2.046268
  H 0.672661 -0.698238 -2.145641
  H 0.769371 1.203601 -4.538857
  H -0.643562 0.290363 -4.010049
  H 0.769370 -0.557595 -4.638235
  H 5.161100 0.084343 -0.358935
  H 5.091539 0.257398 -3.425987
  H 7.128641 0.148033 -1.487691
 23
 113.694579
  C -0.189851 0.035240 0.511119
  C 2.664193 0.072855 -0.155428
  H 3.080176 0.017466 0.826259
  C 3.239147 0.139003 -1.327725
  C 2.562683 0.214590 -2.667320
  C 1.039834 0.211578 -2.613891
  C 0.440312 0.290480 -4.012210
  C 4.711987 0.140054 -1.346318
  C 5.476767 0.201174 -2.429537
  O 6.833524 0.200700 -2.421119
  H -0.034552 -0.024432 1.568642
  H -0.482057 -0.856817 -0.001868
  H -0.482059 0.979343 0.101740
  H 2.901141 -0.634566 -3.268366
  H 2.901144 1.125963 -3.169020
  H 0.702416 1.061511 -2.020177
  H 0.702419 -0.699742 -2.119562
  H 0.757006 1.202249 -4.514970
  H -0.645985 0.287685 -3.962618
  H 0.757006 -0.558940 -4.614348
  H 5.193371 0.085356 -0.376896
  H 5.100886 0.258129 -3.438931
  H 7.158669 0.149289 -1.509956
 23
 118.878858
  C -0.325440 0.034314 0.527541
  C 2.686702 0.073257 -0.162570
  H 3.082246 0.017436 0.826748
  C 3.266226 0.139208 -1.331356
  C 2.579604 0.214553 -2.666615
  C 1.057110 0.210228 -2.589919
  C 0.434278 0.288549 -3.977960
  C 4.741506 0.140555 -1.355228
  C 5.508284 0.202470 -2.452518
  O 6.861265 0.202412 -2.451446
  H -0.155841 -0.025149 1.581344
  H -0.600428 -0.857672 0.008136
  H -0.600429 0.979070 0.111779
  H 2.911561 -0.634756 -3.271357
  H 2.911567 1.126502 -3.171979
  H 0.728966 1.059342 -1.989788
  H 0.728961 -0.701011 -2.089114
  H 0.741702 1.200630 -4.485885
  H -0.651043 0.284730 -3.910209
  H 0.741704 -0.560614 -4.585272
  H 5.225892 0.085888 -0.386379
  H 5.127627 0.259293 -3.459533
  H 7.188868 0.151410 -1.547535
 23
 122.668927
  C -0.452466 0.032978 0.551213
  C 2.715374 0.073834 -0.172775
  H 3.094871 0.017671 0.822602
  C 3.295813 0.139737 -1.340740
  C 2.596857 0.214787 -2.670791
  C 1.075617 0.209163 -2.571072
  C 0.430154 0.286881 -3.948436
  C 4.767404 0.141618 -1.374053
  C 5.509489 0.202702 -2.456616
  O 6.864430 0.203270 -2.466650
  H -0.265569 -0.026322 1.602143
  H -0.713065 -0.860212 0.026003
  H -0.713065 0.979583 0.129818
  H 2.921754 -0.634172 -3.279105
  H 2.921759 1.126789 -3.179743
  H 0.756620 1.057679 -1.964776
  H 0.756617 -0.702176 -2.064073
  H 0.728402 1.199244 -4.461257
  H -0.653883 0.282054 -3.862854
  H 0.728400 -0.561996 -4.560631
  H 5.258136 0.087242 -0.410360
  H 5.118501 0.259297 -3.459605
  H 7.202799 0.152041 -1.558728
 23
 125.091805
  C -0.603130 0.032920 0.552251
  C 2.726747 0.074094 -0.177380
  H 3.050950 0.016914 0.835972
  C 3.322643 0.139495 -1.336434
  C 2.607811 0.214365 -2.663249
  C 1.089677 0.207154 -2.535436
  C 0.414516 0.284073 -3.898622
  C 4.794408 0.141843 -1.378054
  C 5.536809 0.204102 -2.481451
  O 6.902154 0.205498 -2.506169
  H -0.376173 -0.025909 1.594796
  H -0.818276 -0.861738 0.009674
  H -0.818276 0.982939 0.113765
  H 2.923730 -0.634676 -3.275537
  H 2.923739 1.126899 -3.176143
  H 0.782153 1.053976 -1.921227
  H 0.782149 -0.703390 -2.020385
  H 0.700510 1.196808 -4.417662
  H -0.667372 0.277912 -3.789383
  H 0.700515 -0.564500 -4.517066
  H 5.289420 0.087485 -0.414702
  H 5.133585 0.260585 -3.482477
  H 7.253397 0.154196 -1.596894
 23
 126.861198
  C -0.740954 0.030969 0.586783
  C 2.744455 0.074098 -0.177436
  H 3.061071 0.016785 0.838317
  C 3.340864 0.139534 -1.337124
  C 2.619068 0.214005 -2.656922
  C 1.099982 0.206021 -2.515395
  C 0.412745 0.282581 -3.872258
  C 4.814360 0.142249 -1.385224
  C 5.553658 0.204817 -2.494166
  O 6.897273 0.206465 -2.523327
  H -0.506154 -0.027670 1.625993
  H -0.948939 -0.862664 0.042460
  H -0.948940 0.980162 0.146446
  H 2.930894 -0.635284 -3.271483
  H 2.930899 1.127038 -3.172048
  H 0.796747 1.053323 -1.897838
  H 0.796749 -0.705370 -1.997072
  H 0.693648 1.195487 -4.393799
  H -0.668064 0.275865 -3.753265
  H 0.693642 -0.565842 -4.493168
  H 5.312549 0.088034 -0.424379
  H 5.149844 0.261004 -3.490010
  H 7.241465 0.156307 -1.634271
