 18
 0.000000
  C 0.901646 0.049697 0.201419
  C 2.401649 0.057657 0.088649
  C 3.251594 -0.015327 1.343088
  C 2.523852 -0.082483 2.679555
  H 3.251263 -0.129616 3.484358
  C 3.012492 0.126322 -1.088948
  C 2.364150 0.202132 -2.433019
  H 1.280644 0.197983 -2.394189
  H 4.095029 0.130380 -1.124664
  H 0.570683 -0.021760 1.231846
  H 0.481851 -0.800740 -0.335044
  H 0.476310 0.963211 -0.212048
  H 3.908223 0.859764 1.358603
  H 3.897381 -0.895124 1.264281
  H 1.894543 -0.967225 2.740790
  H 1.904609 0.797991 2.834356
  H 2.692863 -0.641205 -3.044699
  H 2.689400 1.111041 -2.944313
 18
 6.042674
  C 0.914054 -0.012746 0.208174
  C 2.366013 0.055809 0.094299
  C 3.234212 -0.019039 1.327356
  C 2.515674 -0.067091 2.670452
  H 3.251534 -0.116812 3.468771
  C 2.983134 0.138756 -1.065390
  C 2.347704 0.209164 -2.413314
  H 1.267679 0.179617 -2.360175
  H 4.061182 0.168530 -1.075971
  H 0.537526 -0.049784 1.208558
  H 0.476304 -0.809506 -0.353543
  H 0.742770 0.944566 -0.257779
  H 3.903662 0.846426 1.324832
  H 3.868459 -0.907148 1.243984
  H 1.879700 -0.945954 2.747642
  H 1.911134 0.823741 2.826864
  H 2.686581 -0.621804 -3.027522
  H 2.647147 1.125703 -2.917775
 18
 18.031068
  C 0.898320 -0.054804 0.228722
  C 2.347866 0.043969 0.114536
  C 3.240324 -0.032757 1.345691
  C 2.514152 -0.052066 2.673863
  H 3.238905 -0.103781 3.481233
  C 2.980445 0.156978 -1.077308
  C 2.335345 0.213660 -2.435373
  H 1.249465 0.139405 -2.386797
  H 4.065542 0.240405 -1.084420
  H 0.487719 -0.048679 1.236715
  H 0.430877 -0.823098 -0.387325
  H 0.951133 0.908769 -0.237977
  H 3.924542 0.813594 1.334974
  H 3.850771 -0.931193 1.272258
  H 1.863548 -0.918678 2.751653
  H 1.922764 0.849488 2.810080
  H 2.707408 -0.604354 -3.059806
  H 2.597586 1.150877 -2.936992
 18
 32.246083
  C 0.876728 -0.097141 0.229725
  C 2.331915 0.038467 0.108079
  C 3.227273 -0.032572 1.337857
  C 2.513235 -0.031760 2.682899
  H 3.257142 -0.079693 3.490989
  C 2.974823 0.164846 -1.081520
  C 2.335656 0.221332 -2.439853
  H 1.247137 0.141288 -2.393700
  H 4.053098 0.255310 -1.080477
  H 0.461872 -0.104046 1.219715
  H 0.400589 -0.801368 -0.429416
  H 1.108725 0.868105 -0.186239
  H 3.921812 0.804652 1.314309
  H 3.825159 -0.940342 1.266580
  H 1.859073 -0.892545 2.779991
  H 1.930111 0.874476 2.817031
  H 2.710888 -0.590394 -3.065336
  H 2.592488 1.160153 -2.938155
 18
 44.382253
  C 0.866316 -0.127935 0.233863
  C 2.324097 0.038185 0.101646
  C 3.217043 -0.032256 1.336881
  C 2.513080 -0.012693 2.683843
  H 3.255320 -0.055778 3.480041
  C 2.976440 0.174586 -1.091190
  C 2.337019 0.214823 -2.446427
  H 1.250908 0.122489 -2.392227
  H 4.048047 0.289037 -1.082361
  H 0.457844 -0.205468 1.216614
  H 0.360520 -0.727362 -0.500818
  H 1.237983 0.861229 -0.074257
  H 3.923753 0.796036 1.305347
  H 3.800905 -0.950500 1.266712
  H 1.858071 -0.865230 2.796135
  H 1.937848 0.894542 2.812150
  H 2.717539 -0.595554 -3.070847
  H 2.578513 1.154686 -2.952072
 18
 53.064638
  C 0.865067 -0.164528 0.245375
  C 2.325174 0.033241 0.091693
  C 3.212499 -0.031320 1.326428
  C 2.500727 0.009505 2.680061
  H 3.243694 -0.018119 3.480368
  C 2.979660 0.175331 -1.104601
  C 2.339356 0.215467 -2.453055
  H 1.258728 0.129163 -2.393199
  H 4.054424 0.297678 -1.095074
  H 0.471631 -0.324952 1.232429
  H 0.321734 -0.641936 -0.549700
  H 1.346739 0.846018 0.045590
  H 3.929871 0.794879 1.286658
  H 3.791710 -0.959524 1.264066
  H 1.847125 -0.843224 2.808250
  H 1.921959 0.917061 2.792525
  H 2.712006 -0.597426 -3.078976
  H 2.580543 1.152409 -2.961954
 18
 59.571938
  C 0.862908 -0.202612 0.252576
  C 2.323347 0.028120 0.092610
  C 3.211315 -0.034895 1.327534
  C 2.499911 0.030923 2.677443
  H 3.240518 0.024449 3.475025
  C 2.981581 0.175996 -1.110041
  C 2.341460 0.220497 -2.463668
  H 1.260216 0.141965 -2.405978
  H 4.055634 0.302965 -1.096849
  H 0.478898 -0.427874 1.225714
  H 0.292934 -0.564214 -0.582226
  H 1.429283 0.823639 0.139858
  H 3.934405 0.783638 1.277043
  H 3.780025 -0.966470 1.276016
  H 1.848191 -0.826097 2.825804
  H 1.913200 0.941545 2.770653
  H 2.708102 -0.594408 -3.090431
  H 2.588075 1.154768 -2.973129
 18
 65.434715
  C 0.864806 -0.226992 0.247474
  C 2.319802 0.030184 0.090182
  C 3.209971 -0.036702 1.329350
  C 2.499504 0.043009 2.665104
  H 3.231831 0.042994 3.459517
  C 2.976268 0.180103 -1.109215
  C 2.343109 0.225174 -2.449056
  H 1.257952 0.147590 -2.390642
  H 4.039892 0.310001 -1.099028
  H 0.478714 -0.469862 1.219831
  H 0.287773 -0.534925 -0.603050
  H 1.493896 0.807353 0.168012
  H 3.951826 0.790658 1.276404
  H 3.781272 -0.990131 1.285784
  H 1.853066 -0.803717 2.817401
  H 1.911870 0.957737 2.746641
  H 2.708955 -0.590546 -3.074877
  H 2.591493 1.159298 -2.958241
 18
 69.902904
  C 0.866449 -0.258248 0.247979
  C 2.316577 0.033890 0.099419
  C 3.211063 -0.035815 1.330387
  C 2.504936 0.060570 2.682539
  H 3.252757 0.070804 3.482955
  C 2.983483 0.184939 -1.112147
  C 2.342645 0.230331 -2.469547
  H 1.265796 0.155584 -2.410766
  H 4.057665 0.319183 -1.093151
  H 0.474282 -0.503711 1.201560
  H 0.284072 -0.512235 -0.613362
  H 1.539798 0.805093 0.197398
  H 3.937711 0.759597 1.265217
  H 3.759597 -0.967068 1.288664
  H 1.837631 -0.807763 2.856365
  H 1.929465 0.961999 2.756466
  H 2.705076 -0.589702 -3.097524
  H 2.592168 1.166897 -2.986104
 18
 73.553900
  C 0.869695 -0.291391 0.246743
  C 2.315900 0.039192 0.101370
  C 3.216271 -0.039808 1.333499
  C 2.504267 0.068104 2.675996
  H 3.236331 0.081111 3.472140
  C 2.985380 0.190340 -1.118411
  C 2.348066 0.237429 -2.462195
  H 1.259516 0.165415 -2.401334
  H 4.055158 0.325990 -1.097573
  H 0.467898 -0.531188 1.207098
  H 0.281398 -0.503131 -0.620831
  H 1.581442 0.810613 0.209748
  H 3.962879 0.761342 1.266215
  H 3.765017 -0.991821 1.295460
  H 1.845420 -0.781440 2.846592
  H 1.924114 0.982007 2.740621
  H 2.704997 -0.580086 -3.087307
  H 2.599298 1.168199 -2.977801
 18
 76.367528
  C 0.877252 -0.328594 0.241762
  C 2.311575 0.046608 0.107816
  C 3.216444 -0.041397 1.336451
  C 2.510711 0.081000 2.681298
  H 3.248421 0.095912 3.479111
  C 2.984682 0.195901 -1.115230
  C 2.348425 0.245427 -2.466130
  H 1.282125 0.179741 -2.409084
  H 4.035678 0.332382 -1.090338
  H 0.464676 -0.551649 1.200266
  H 0.281597 -0.503094 -0.637444
  H 1.616688 0.827029 0.218416
  H 3.971457 0.750794 1.262442
  H 3.747770 -0.991273 1.300059
  H 1.844377 -0.768140 2.861899
  H 1.938821 0.992264 2.740144
  H 2.703870 -0.578816 -3.094475
  H 2.602781 1.172716 -2.982132
 18
 77.205987
  C 0.890462 -0.399351 0.233959
  C 2.302471 0.058182 0.116414
  C 3.215249 -0.048800 1.340080
  C 2.517569 0.093791 2.686082
  H 3.260796 0.109273 3.482117
  C 2.992395 0.207451 -1.123019
  C 2.355613 0.254865 -2.469474
  H 1.277219 0.191698 -2.409402
  H 4.051478 0.359726 -1.090152
  H 0.448173 -0.564926 1.190100
  H 0.280524 -0.513023 -0.639060
  H 1.636792 0.862572 0.226704
  H 3.983394 0.727526 1.259737
  H 3.726725 -1.014081 1.303681
  H 1.848889 -0.739583 2.874772
  H 1.949616 1.018732 2.738149
  H 2.705875 -0.571680 -3.092803
  H 2.614028 1.179899 -2.991718
 18
 78.740005
  C 0.909976 -0.437724 0.222941
  C 2.305577 0.066479 0.115733
  C 3.219237 -0.049504 1.338706
  C 2.515190 0.105093 2.689508
  H 3.249952 0.118877 3.483326
  C 2.994116 0.216175 -1.123002
  C 2.355269 0.267034 -2.460996
  H 1.260176 0.211079 -2.395390
  H 4.055194 0.368609 -1.092918
  H 0.456393 -0.565114 1.180865
  H 0.300019 -0.522472 -0.653597
  H 1.678262 0.881933 0.222892
  H 4.006266 0.726359 1.254865
  H 3.710554 -1.004354 1.303980
  H 1.837697 -0.722423 2.880847
  H 1.957971 1.030662 2.735144
  H 2.699750 -0.565661 -3.088802
  H 2.614780 1.172856 -2.975206
 18
 77.634313
  C 0.931329 -0.520064 0.218638
  C 2.290952 0.076402 0.127952
  C 3.213320 -0.054895 1.345253
  C 2.523107 0.130289 2.693105
  H 3.266025 0.142055 3.485424
  C 2.998213 0.229836 -1.127714
  C 2.357242 0.286276 -2.464596
  H 1.267892 0.247991 -2.394604
  H 4.060132 0.394533 -1.088785
  H 0.444422 -0.574650 1.168402
  H 0.315469 -0.576511 -0.655682
  H 1.701680 0.933091 0.222687
  H 4.005529 0.691297 1.251024
  H 3.688000 -1.038878 1.314798
  H 1.834353 -0.680951 2.897385
  H 1.977667 1.072056 2.728450
  H 2.681527 -0.551365 -3.084215
  H 2.636619 1.198311 -2.994278
