 9
 0.000000
  H 5.751663 -1.127301 -2.025016
  C 6.826218 -1.133030 -2.036257
  C 7.531865 -1.639439 -3.030431
  C 9.021761 -1.660967 -3.072691
  H 7.325677 -0.696918 -1.180104
  H 7.032653 -2.077385 -3.890181
  H 9.455073 -1.208200 -2.183836
  H 9.379749 -1.116789 -3.946923
  H 9.379750 -2.688075 -3.146540
 9
 10.206777
  H 5.734739 -1.071096 -2.097347
  C 6.799686 -1.118635 -2.061338
  C 7.544160 -1.633211 -3.036460
  C 9.023319 -1.643494 -3.046582
  H 7.465246 -0.872569 -1.275469
  H 6.913584 -2.076554 -3.765683
  H 9.422690 -1.153612 -2.164103
  H 9.387129 -1.119002 -3.933721
  H 9.412984 -2.660227 -3.131860
 9
 25.425547
  H 5.758854 -0.950104 -2.164732
  C 6.817838 -0.998042 -2.063954
  C 7.541539 -1.606881 -3.026876
  C 9.028333 -1.630740 -3.078612
  H 7.409415 -1.137199 -1.206158
  H 6.926414 -2.101219 -3.704558
  H 9.441835 -1.135823 -2.208236
  H 9.372867 -1.136893 -3.979241
  H 9.403995 -2.652171 -3.081516
 9
 52.921562
  H 5.776823 -0.844720 -2.155540
  C 6.849493 -0.871775 -2.065238
  C 7.539462 -1.603924 -2.995728
  C 9.016454 -1.627635 -3.090377
  H 7.352984 -1.436557 -1.324628
  H 6.936082 -2.168786 -3.662736
  H 9.432050 -1.112908 -2.218343
  H 9.334062 -1.070922 -3.969900
  H 9.459917 -2.619472 -3.027252
 9
 74.447849
  H 5.774985 -0.841400 -2.146430
  C 6.862694 -0.764878 -2.013061
  C 7.542852 -1.570861 -2.925703
  C 9.026559 -1.585173 -3.025829
  H 7.248224 -1.701242 -1.492565
  H 7.039577 -2.190839 -3.673022
  H 9.472174 -1.014802 -2.216672
  H 9.309387 -1.121041 -3.974393
  H 9.418276 -2.600331 -3.032540
 9
 77.168457
  H 5.791429 -0.697886 -2.156956
  C 6.883877 -0.673947 -2.002434
  C 7.529364 -1.612229 -2.839455
  C 9.026576 -1.576726 -3.008795
  H 7.224845 -2.029213 -1.760690
  H 7.028653 -2.247300 -3.590238
  H 9.480342 -0.955944 -2.242511
  H 9.253421 -1.142421 -3.982617
  H 9.455254 -2.575359 -2.978951
