 20
 0.000000
  C 1.008064 -0.071693 0.047824
  C 2.503875 -0.082071 0.025340
  C 3.219574 -0.595449 -0.980695
  C 4.656880 -0.606281 -1.002287
  C 5.376698 -1.121558 -2.014367
  C 6.815072 -1.131486 -2.032234
  C 7.534440 -1.641947 -3.036541
  C 9.024390 -1.661468 -3.073177
  H 0.647341 0.396076 0.962854
  H 0.612311 -1.086467 0.012288
  H 0.610837 0.491788 -0.796171
  H 3.004513 0.354720 0.879267
  H 2.708481 -1.029588 -1.831270
  H 5.161799 -0.171666 -0.148693
  H 4.872458 -1.555517 -2.868568
  H 7.320773 -0.698090 -1.178230
  H 7.036556 -2.077109 -3.893996
  H 9.457072 -1.209406 -2.182503
  H 9.384612 -1.114658 -3.945931
  H 9.383655 -2.689110 -3.146361
 20
 -0.091452
  C 1.010478 -0.221728 0.071149
  C 2.499683 -0.117159 0.050443
  C 3.244069 -0.367509 -1.029751
  C 4.679667 -0.394848 -1.036193
  C 5.397473 -0.909517 -2.049700
  C 6.826751 -1.044182 -2.053644
  C 7.517405 -1.636327 -3.030945
  C 8.997672 -1.795754 -3.045701
  H 0.583138 0.378098 0.870015
  H 0.722933 -1.263190 0.235623
  H 0.583343 0.092386 -0.879355
  H 2.981200 0.120941 0.989708
  H 2.755809 -0.617749 -1.964360
  H 5.181785 -0.038970 -0.144685
  H 4.878314 -1.279784 -2.926356
  H 7.352189 -0.639566 -1.196113
  H 6.993530 -2.041208 -3.887081
  H 9.447748 -1.362662 -2.154843
  H 9.421595 -1.310667 -3.926019
  H 9.263876 -2.852135 -3.096528
 20
 3.656668
  C 1.105144 -0.482946 0.003330
  C 2.539591 -0.068674 0.046252
  C 3.296475 0.003340 -1.049001
  C 4.737044 -0.029747 -1.045054
  C 5.399062 -0.679314 -2.013865
  C 6.808252 -0.971162 -2.022430
  C 7.421383 -1.654689 -2.990654
  C 8.876195 -1.976129 -3.011205
  H 0.570569 -0.207225 0.908902
  H 1.102653 -1.571057 -0.089124
  H 0.594479 -0.068928 -0.861234
  H 2.994594 0.015053 1.024079
  H 2.822165 -0.095328 -2.020440
  H 5.248185 0.294208 -0.147086
  H 4.845419 -1.012052 -2.883141
  H 7.377641 -0.620456 -1.175185
  H 6.851599 -2.007987 -3.838196
  H 9.375808 -1.595258 -2.119397
  H 9.344558 -1.540819 -3.887046
  H 9.025570 -3.057906 -3.065529
 20
 11.369723
  C 1.289742 -0.724689 -0.123192
  C 2.590917 -0.013683 0.050818
  C 3.344298 0.309936 -1.001947
  C 4.784917 0.232482 -0.999545
  C 5.366343 -0.491402 -1.967612
  C 6.738285 -0.927298 -1.974786
  C 7.295966 -1.614266 -2.973584
  C 8.701087 -2.108527 -2.980202
  H 0.704596 -0.774335 0.789755
  H 1.600627 -1.732267 -0.410365
  H 0.692231 -0.300679 -0.928131
  H 3.023930 -0.019191 1.043945
  H 2.877192 0.317692 -1.980894
  H 5.311731 0.470088 -0.086079
  H 4.801814 -0.699970 -2.864187
  H 7.312954 -0.723692 -1.080428
  H 6.710187 -1.850534 -3.854684
  H 9.218466 -1.833670 -2.060427
  H 9.241926 -1.691139 -3.824150
  H 8.721437 -3.195447 -3.084852
 20
 22.577168
  C 1.539059 -0.924357 -0.244868
  C 2.629046 0.051410 0.049295
  C 3.359449 0.544897 -0.959858
  C 4.798263 0.425243 -0.970214
  C 5.294766 -0.378813 -1.925126
  C 6.629006 -0.917804 -1.927866
  C 7.154586 -1.604766 -2.943103
  C 8.524306 -2.190298 -2.947661
  H 0.968239 -1.223604 0.625357
  H 2.137320 -1.771193 -0.609026
  H 0.880049 -0.591542 -1.043593
  H 3.040301 0.037090 1.050697
  H 2.893141 0.565913 -1.941854
  H 5.334500 0.588046 -0.044304
  H 4.735169 -0.502335 -2.844912
  H 7.202543 -0.788034 -1.017255
  H 6.575602 -1.754219 -3.846878
  H 9.041114 -1.982858 -2.013604
  H 9.109702 -1.780061 -3.771377
  H 8.473511 -3.269443 -3.089018
 20
 34.680268
  C 1.776728 -1.062277 -0.339897
  C 2.651749 0.090267 0.038623
  C 3.343371 0.687078 -0.946432
  C 4.783092 0.531022 -0.953632
  C 5.214363 -0.331813 -1.888367
  C 6.526998 -0.927389 -1.886215
  C 7.046307 -1.595670 -2.915883
  C 8.390287 -2.229652 -2.919429
  H 1.281001 -1.545761 0.499052
  H 2.559618 -1.728533 -0.756790
  H 1.068519 -0.830603 -1.133668
  H 3.043064 0.098479 1.047725
  H 2.879320 0.684430 -1.932847
  H 5.326287 0.672712 -0.031107
  H 4.657663 -0.430558 -2.810029
  H 7.094952 -0.834276 -0.968441
  H 6.480901 -1.686033 -3.837177
  H 8.917047 -2.033571 -1.988432
  H 8.986945 -1.850732 -3.748117
  H 8.297833 -3.308511 -3.049322
 20
 48.776190
  C 2.064338 -1.171704 -0.392597
  C 2.709541 0.097031 0.057758
  C 3.283582 0.796769 -0.953592
  C 4.716108 0.642224 -1.031615
  C 5.077483 -0.307240 -1.921243
  C 6.371166 -0.947950 -1.861457
  C 6.906077 -1.648451 -2.862122
  C 8.261072 -2.262398 -2.837656
  H 1.674448 -1.804907 0.394536
  H 2.974274 -1.632170 -0.837396
  H 1.367132 -1.057204 -1.212905
  H 3.267343 0.025735 0.985961
  H 2.748328 0.845748 -1.899298
  H 5.288280 0.777498 -0.122894
  H 4.574202 -0.359227 -2.878069
  H 6.905251 -0.857647 -0.925406
  H 6.344853 -1.786798 -3.777915
  H 8.716118 -2.164886 -1.853321
  H 8.905213 -1.778636 -3.570660
  H 8.206663 -3.319965 -3.097976
 20
 65.226084
  C 2.392490 -1.279348 -0.517742
  C 2.717159 0.047218 0.038601
  C 3.238881 0.890422 -0.922181
  C 4.667882 0.712177 -0.967767
  C 4.990942 -0.282149 -1.848241
  C 6.303137 -0.882159 -1.852322
  C 6.762397 -1.675234 -2.819552
  C 8.096334 -2.340070 -2.805745
  H 2.121536 -2.052684 0.186420
  H 3.453802 -1.497323 -0.957974
  H 1.779994 -1.281935 -1.415057
  H 3.048858 0.109459 1.065064
  H 2.752050 0.826302 -1.895455
  H 5.235429 0.816013 -0.050063
  H 4.494777 -0.290343 -2.810352
  H 6.922645 -0.689549 -0.981880
  H 6.148145 -1.871955 -3.691251
  H 8.653017 -2.083019 -1.906268
  H 8.680327 -2.040249 -3.677243
  H 7.976490 -3.422434 -2.852123
 20
 81.969603
  C 2.474021 -1.236617 -0.446432
  C 2.724006 0.037524 0.074691
  C 3.187702 0.871202 -0.963217
  C 4.575059 0.697479 -1.019855
  C 4.870172 -0.401044 -1.871084
  C 6.205501 -0.994791 -1.837401
  C 6.733481 -1.708787 -2.825931
  C 8.080194 -2.346933 -2.782834
  H 2.351514 -2.056590 0.244104
  H 3.882833 -1.326347 -1.182241
  H 1.896606 -1.335588 -1.355171
  H 3.147000 0.130694 1.065517
  H 2.657794 0.784524 -1.908859
  H 5.159364 0.809790 -0.114631
  H 4.406735 -0.407734 -2.853650
  H 6.766751 -0.846853 -0.923556
  H 6.172751 -1.861760 -3.738905
  H 8.572743 -2.156397 -1.831090
  H 8.707467 -1.960527 -3.586514
  H 7.993271 -3.424044 -2.924415
 20
 70.349709
  C 2.265908 -1.174590 -0.262813
  C 2.629443 0.069671 0.117744
  C 3.178950 0.811027 -0.990283
  C 4.532667 0.582642 -1.057015
  C 4.866544 -0.586463 -1.906390
  C 6.262113 -1.091596 -1.884629
  C 6.845749 -1.719886 -2.893431
  C 8.208455 -2.328594 -2.840303
  H 2.092748 -1.933487 0.485423
  H 4.166981 -1.334568 -1.318070
  H 1.766135 -1.347336 -1.194175
  H 2.992426 0.260936 1.118833
  H 2.626949 0.722496 -1.927735
  H 5.120365 0.693540 -0.157656
  H 4.429851 -0.575804 -2.904937
  H 6.781117 -0.988966 -0.941483
  H 6.329389 -1.816489 -3.836975
  H 8.674278 -2.156939 -1.875947
  H 8.843133 -1.904132 -3.618834
  H 8.147498 -3.403169 -3.015815
 20
 59.230748
  C 2.058141 -1.095326 -0.140348
  C 2.564195 0.116758 0.140780
  C 3.190800 0.708038 -1.027688
  C 4.532711 0.450418 -1.062200
  C 4.898383 -0.726661 -1.943064
  C 6.318059 -1.186640 -1.911700
  C 6.941804 -1.751932 -2.934537
  C 8.336127 -2.268476 -2.886397
  H 1.799988 -1.767086 0.663755
  H 4.227632 -1.463348 -1.406305
  H 1.594421 -1.324879 -1.087703
  H 2.985661 0.336580 1.117771
  H 2.654137 0.543311 -1.955353
  H 5.115045 0.562967 -0.145493
  H 4.504398 -0.681058 -2.955024
  H 6.834580 -1.051066 -0.974882
  H 6.410665 -1.920361 -3.868000
  H 8.773485 -2.104172 -1.906294
  H 8.950986 -1.771447 -3.637476
  H 8.351614 -3.334340 -3.106575
 20
 47.083866
  C 1.792756 -0.956785 0.019095
  C 2.492413 0.162795 0.150378
  C 3.231145 0.536123 -1.050483
  C 4.529004 0.232174 -1.062432
  C 4.947986 -0.906562 -1.973179
  C 6.406214 -1.285155 -1.946892
  C 7.064245 -1.788547 -2.976927
  C 8.502486 -2.179205 -2.952635
  H 1.408042 -1.501106 0.877727
  H 4.331357 -1.678910 -1.480839
  H 1.360769 -1.223325 -0.925676
  H 2.895258 0.448524 1.102150
  H 2.680966 0.354609 -1.988822
  H 5.115580 0.337219 -0.143374
  H 4.581498 -0.819272 -2.994781
  H 6.905913 -1.142154 -1.007804
  H 6.542920 -1.995550 -3.909626
  H 8.935375 -1.984773 -1.969071
  H 9.054692 -1.620886 -3.712460
  H 8.630420 -3.232968 -3.183464
 20
 33.569148
  C 1.580800 -0.827234 0.182383
  C 2.450710 0.175423 0.158068
  C 3.216957 0.301667 -1.070956
  C 4.517090 -0.011268 -1.081904
  C 5.017740 -1.053895 -2.043520
  C 6.485715 -1.322230 -2.005721
  C 7.194732 -1.764092 -3.030011
  C 8.644244 -2.115227 -2.972371
  H 1.136733 -1.190925 1.092602
  H 4.459338 -1.915371 -1.630419
  H 1.148373 -1.206462 -0.730110
  H 2.867325 0.586237 1.069415
  H 2.653914 0.124267 -1.981220
  H 5.099499 0.112675 -0.177312
  H 4.669044 -0.890183 -3.066223
  H 6.956671 -1.189163 -1.042120
  H 6.714046 -1.933125 -3.986222
  H 9.047515 -1.940889 -1.976372
  H 9.207648 -1.521224 -3.692745
  H 8.790637 -3.163689 -3.231635
 20
 23.770842
  C 1.396607 -0.573801 0.251080
  C 2.447820 0.231441 0.105908
  C 3.237952 0.057113 -1.102955
  C 4.529475 -0.284123 -1.073228
  C 5.068315 -1.330478 -2.013565
  C 6.549766 -1.489550 -1.992572
  C 7.291239 -1.771783 -3.049160
  C 8.773645 -1.967435 -3.023188
  H 0.857910 -0.680715 1.178318
  H 4.582948 -2.221649 -1.585434
  H 0.972192 -1.086230 -0.599056
  H 2.914538 0.721019 0.956343
  H 2.670463 -0.191978 -1.988911
  H 5.119393 -0.088688 -0.186529
  H 4.695804 -1.200437 -3.033891
  H 7.015433 -1.368525 -1.024225
  H 6.822639 -1.907074 -4.016434
  H 9.164015 -1.867739 -2.011225
  H 9.261266 -1.230809 -3.662765
  H 9.034037 -2.953652 -3.404413
 20
 9.161444
  C 1.265493 0.322842 0.133675
  C 2.572725 0.085380 0.097313
  C 3.211136 -0.679627 -0.949580
  C 4.470033 -1.112522 -0.895259
  C 5.096604 -1.992211 -1.938019
  C 6.585202 -1.864048 -1.973156
  C 7.288540 -1.562786 -3.050475
  C 8.775554 -1.435635 -3.089476
  H 0.800800 0.871275 0.936203
  H 4.831154 -3.030995 -1.698253
  H 0.613825 -0.027928 -0.649795
  H 3.214238 0.433052 0.898147
  H 2.590681 -0.939652 -1.797182
  H 5.082822 -0.879387 -0.033497
  H 4.670937 -1.769632 -2.919997
  H 7.086029 -2.029786 -1.027476
  H 6.783515 -1.393676 -3.993553
  H 9.212219 -1.645150 -2.115025
  H 9.058476 -0.427093 -3.391714
  H 9.195472 -2.127514 -3.818784
