 18
 0.000000
  H 1.435579 0.057766 0.111947
  C 2.510281 0.063330 0.013332
  C 3.283754 -0.009298 1.300498
  C 2.387361 -0.078742 2.531119
  H 2.985069 -0.129874 3.437317
  C 3.084314 0.130365 -1.174637
  C 2.395998 0.205342 -2.503410
  C 0.873663 0.203189 -2.465223
  H 0.475949 0.260171 -3.475071
  H 4.165549 0.134337 -1.244982
  H 3.934760 0.866808 1.382195
  H 3.934775 -0.889042 1.283119
  H 1.749609 -0.959581 2.489390
  H 1.749587 0.801215 2.588744
  H 2.736551 -0.638433 -3.114461
  H 2.736550 1.112501 -3.015659
  H 0.501476 1.056588 -1.903449
  H 0.501480 -0.707984 -2.003022
 18
 12.496694
  H 1.454046 0.057036 0.124898
  C 2.525945 0.063033 0.018598
  C 3.325085 -0.007976 1.277084
  C 2.326862 -0.085394 2.649028
  H 2.940001 -0.135726 3.541044
  C 3.115221 0.135018 -1.257113
  C 2.395034 0.208782 -2.564383
  C 0.874929 0.203835 -2.476682
  H 0.444180 0.260098 -3.473776
  H 4.193896 0.139455 -1.335712
  H 3.968177 0.867883 1.371278
  H 3.968184 -0.888872 1.272152
  H 1.700176 -0.968108 2.591038
  H 1.700163 0.798241 2.690706
  H 2.720576 -0.634771 -3.183797
  H 2.720578 1.116665 -3.084972
  H 0.520584 1.056560 -1.902484
  H 0.520583 -0.708066 -2.002056
 18
 37.477952
  H 1.501151 0.058447 0.099996
  C 2.566247 0.064359 -0.004710
  C 3.390244 -0.003254 1.193454
  C 2.231797 -0.091425 2.756160
  H 2.888075 -0.139605 3.609969
  C 3.139372 0.137471 -1.300329
  C 2.389749 0.209861 -2.583779
  C 0.874589 0.202541 -2.454289
  H 0.419913 0.257788 -3.434205
  H 4.212918 0.141606 -1.373269
  H 4.008354 0.879684 1.340292
  H 4.008536 -0.897341 1.240020
  H 1.638136 -0.988030 2.630521
  H 1.638100 0.813671 2.732181
  H 2.701328 -0.634181 -3.211497
  H 2.701243 1.119312 -3.112769
  H 0.536065 1.052213 -1.873766
  H 0.536096 -0.706895 -1.973020
 18
 64.196400
  H 1.531693 0.061119 0.052919
  C 2.615791 0.067941 -0.068256
  C 3.477054 0.000426 1.127694
  C 2.134847 -0.099543 2.899757
  H 2.821167 -0.146237 3.727020
  C 3.157137 0.140744 -1.358368
  C 2.384799 0.211704 -2.615858
  C 0.869458 0.202340 -2.450183
  H 0.387362 0.257689 -3.431227
  H 4.233542 0.146206 -1.455303
  H 4.068946 0.900824 1.329702
  H 4.068940 -0.916970 1.227109
  H 1.573723 -0.998121 2.720513
  H 1.573709 0.813564 2.822721
  H 2.682405 -0.630893 -3.248975
  H 2.682427 1.120206 -3.150200
  H 0.539718 1.061186 -1.856409
  H 0.539698 -0.717933 -1.956763
 18
 86.926044
  H 1.598864 0.061282 0.029141
  C 2.683902 0.070788 -0.127230
  C 3.561669 0.004191 1.045272
  C 2.036235 -0.107049 3.053936
  H 2.756723 -0.153530 3.856854
  C 3.178500 0.143272 -1.394066
  C 2.367675 0.214116 -2.649688
  C 0.862867 0.201955 -2.455831
  H 0.367166 0.256166 -3.415001
  H 4.256244 0.151712 -1.529303
  H 4.122869 0.907702 1.296490
  H 4.123979 -0.923589 1.186602
  H 1.491167 -1.023000 2.829441
  H 1.494070 0.830292 2.933907
  H 2.650559 -0.625677 -3.286074
  H 2.649381 1.121301 -3.186782
  H 0.543939 1.054746 -1.859898
  H 0.545295 -0.713321 -1.960600
 18
 102.776355
  H 1.685592 0.061054 0.026577
  C 2.744911 0.072107 -0.159120
  C 3.619576 0.006734 0.982490
  C 1.948249 -0.114984 3.198064
  H 2.680101 -0.158424 3.957196
  C 3.203785 0.145980 -1.446810
  C 2.364251 0.216509 -2.690655
  C 0.849256 0.202282 -2.459009
  H 0.322710 0.256991 -3.422031
  H 4.271653 0.156548 -1.621046
  H 4.139609 0.893351 1.275824
  H 4.142505 -0.906360 1.166438
  H 1.443489 -1.001711 2.949899
  H 1.446820 0.795602 3.049351
  H 2.639979 -0.627254 -3.335604
  H 2.639099 1.128618 -3.235174
  H 0.541096 1.061030 -1.849471
  H 0.542382 -0.720600 -1.951465
 18
 112.747895
  H 1.734365 0.066276 -0.020982
  C 2.790462 0.076941 -0.227050
  C 3.689636 0.012619 0.915680
  C 1.861201 -0.125532 3.352235
  H 2.633695 -0.165820 4.086898
  C 3.212788 0.148613 -1.515565
  C 2.348969 0.217234 -2.725282
  C 0.853509 0.203328 -2.452685
  H 0.304626 0.256417 -3.391540
  H 4.273676 0.159048 -1.718519
  H 4.166653 0.911334 1.270392
  H 4.172157 -0.918318 1.164104
  H 1.376985 -1.032014 3.059774
  H 1.376545 0.807317 3.161010
  H 2.607394 -0.627314 -3.375315
  H 2.609000 1.128500 -3.276922
  H 0.567311 1.051351 -1.843793
  H 0.565645 -0.707014 -1.942184
 18
 119.226493
  H 1.777945 0.073124 -0.061241
  C 2.837940 0.082905 -0.294096
  C 3.736361 0.020594 0.843118
  C 1.787823 -0.139708 3.544644
  H 2.593266 -0.176338 4.241311
  C 3.230628 0.150135 -1.566026
  C 2.344673 0.217659 -2.769157
  C 0.847835 0.205991 -2.472956
  H 0.283493 0.257834 -3.404032
  H 4.292845 0.159490 -1.794516
  H 4.178409 0.914964 1.228425
  H 4.182896 -0.908544 1.128630
  H 1.319421 -1.052585 3.229111
  H 1.314343 0.800308 3.332177
  H 2.592418 -0.629468 -3.420707
  H 2.597349 1.128394 -3.325973
  H 0.568918 1.063995 -1.855169
  H 0.563659 -0.711881 -1.950798
 18
 122.247931
  H 1.797777 0.082672 -0.098559
  C 2.858480 0.089426 -0.338168
  C 3.756481 0.027851 0.786721
  C 1.732614 -0.154299 3.746970
  H 2.589348 -0.188342 4.392253
  C 3.237145 0.152931 -1.619289
  C 2.336469 0.217928 -2.815504
  C 0.848383 0.208625 -2.507057
  H 0.281186 0.257916 -3.426028
  H 4.291553 0.160269 -1.854942
  H 4.162056 0.925277 1.211747
  H 4.165123 -0.909928 1.110482
  H 1.289803 -1.061286 3.400455
  H 1.283650 0.782440 3.506975
  H 2.576704 -0.629497 -3.466585
  H 2.584248 1.125185 -3.377261
  H 0.577348 1.063170 -1.893892
  H 0.569765 -0.701452 -1.983874
 18
 123.820226
  H 1.810330 0.096218 -0.153974
  C 2.873303 0.097704 -0.400992
  C 3.776979 0.037909 0.733917
  C 1.693483 -0.173626 3.970163
  H 2.573566 -0.202197 4.571633
  C 3.241807 0.153723 -1.681487
  C 2.333838 0.216568 -2.870655
  C 0.847065 0.213673 -2.548175
  H 0.273720 0.260635 -3.460402
  H 4.287675 0.156262 -1.923325
  H 4.144405 0.936789 1.191756
  H 4.154101 -0.902322 1.088952
  H 1.262591 -1.080060 3.614393
  H 1.247626 0.762481 3.722776
  H 2.566909 -0.638129 -3.523038
  H 2.581344 1.124173 -3.441416
  H 0.582205 1.078597 -1.932384
  H 0.567809 -0.700030 -2.015008
 18
 124.388641
  H 1.799995 0.121105 -0.214887
  C 2.860235 0.110076 -0.456673
  C 3.740232 0.054009 0.677734
  C 1.697667 -0.197498 4.242089
  H 2.611451 -0.216259 4.797052
  C 3.238486 0.151327 -1.734168
  C 2.338911 0.211426 -2.934461
  C 0.848465 0.223628 -2.626904
  H 0.279423 0.267594 -3.551995
  H 4.295240 0.143099 -1.971433
  H 4.069879 0.953095 1.163276
  H 4.097232 -0.884678 1.054414
  H 1.260002 -1.117330 3.893961
  H 1.237014 0.731721 4.009523
  H 2.569407 -0.646563 -3.573205
  H 2.597532 1.107256 -3.507206
  H 0.586069 1.092511 -2.023722
  H 0.557746 -0.679412 -2.090406
 18
 124.420719
  H 1.758722 0.176040 -0.306704
  C 2.819858 0.134536 -0.525436
  C 3.680678 0.087036 0.635765
  C 1.736636 -0.243765 4.548182
  H 2.673850 -0.240083 5.060437
  C 3.222167 0.139877 -1.790898
  C 2.349525 0.193584 -3.007589
  C 0.849786 0.242765 -2.730650
  H 0.301278 0.278774 -3.666612
  H 4.283328 0.104854 -2.006137
  H 3.959808 0.994262 1.148782
  H 4.035643 -0.846956 1.027662
  H 1.307558 -1.166183 4.227926
  H 1.235564 0.675883 4.346096
  H 2.574436 -0.680297 -3.622399
  H 2.637939 1.069610 -3.592143
  H 0.593639 1.128702 -2.151520
  H 0.529807 -0.642175 -2.181990
 18
 124.171024
  H 1.689514 0.279158 -0.390502
  C 2.759111 0.180620 -0.577601
  C 3.585150 0.148667 0.601163
  C 1.813950 -0.308292 4.861146
  H 2.770739 -0.261092 5.332148
  C 3.196792 0.118812 -1.835708
  C 2.358671 0.157112 -3.077474
  C 0.858461 0.271354 -2.843415
  H 0.333792 0.290202 -3.797061
  H 4.260826 0.035727 -2.017920
  H 3.792265 1.054409 1.140315
  H 3.969920 -0.775020 0.997848
  H 1.407778 -1.252283 4.570905
  H 1.253091 0.585390 4.702658
  H 2.567605 -0.751030 -3.654112
  H 2.696355 1.000366 -3.689621
  H 0.621132 1.187661 -2.306476
  H 0.492324 -0.578228 -2.270292
 18
 114.258356
  H 1.684562 0.517185 -0.404022
  C 2.729704 0.261175 -0.549422
  C 3.525899 0.234335 0.603623
  C 1.855280 -0.372259 4.852796
  H 2.790709 -0.146564 5.314269
  C 3.174044 0.032767 -1.807045
  C 2.360360 0.056948 -3.058458
  C 0.878347 0.349498 -2.869130
  H 0.372517 0.338913 -3.832237
  H 4.224808 -0.182801 -1.952568
  H 3.379680 0.981510 1.363518
  H 4.259291 -0.529687 0.783560
  H 1.620756 -1.378405 4.586217
  H 1.153087 0.408248 4.659903
  H 2.475626 -0.915011 -3.554104
  H 2.793896 0.799842 -3.738345
  H 0.733198 1.329125 -2.419565
  H 0.415712 -0.401283 -2.232985
