20

C 0.911306 0.048787 0.267603
C 2.404677 0.057569 0.083761
H 2.9928213208257137 0.007680115772983977 0.9762280061750425
C 2.997348 0.12661 -1.123068
C 2.353639 0.204742 -2.495904
C 0.842017 0.216743 -2.714073
H 0.6127500164236108 0.27623548799760805 -3.7575275002603794
C 4.45665 0.131839 -1.209923
C 5.196359 0.195168 -2.31705
O 6.556457 0.196366 -2.332664
H 0.605811 -0.013202 1.307116
H 0.467229 -0.816456 -0.218772
H 0.467572 0.966559 -0.112261
H 2.741228 -0.64356 -3.071442
H 2.740719 1.113235 -2.971171
H 0.389601 1.07736 -2.222482
H 0.390132 -0.694517 -2.32366
H 5.001931 0.078729 -0.27784
H 4.819713 0.252638 -3.325153
H 6.885709 0.14467 -1.425658
