 20
 0.000000
  C 0.926027 0.044360 0.322515
  C 2.389201 0.059972 0.008093
  H 3.041233 0.014459 0.869993
  C 2.969799 0.130713 -1.198879
  C 2.339819 0.209768 -2.568214
  C 0.824201 0.218159 -2.730125
  H 0.584658 0.279124 -3.789993
  C 4.429539 0.132182 -1.224790
  C 5.224587 0.194370 -2.292985
  O 6.581480 0.191528 -2.244377
  H 0.762278 -0.012252 1.397352
  H 0.434990 -0.818273 -0.122277
  H 0.439315 0.950071 -0.033446
  H 2.728770 -0.637044 -3.143891
  H 2.727839 1.117800 -3.042173
  H 0.376015 1.075039 -2.236732
  H 0.377300 -0.690380 -2.338392
  H 4.914410 0.075705 -0.255017
  H 4.889229 0.253942 -3.315722
  H 6.872979 0.137953 -1.324883
 20
 3.917388
  C 0.932143 0.021082 0.341467
  C 2.360268 0.048196 -0.008522
  H 3.031156 -0.009136 0.843301
  C 2.956782 0.125038 -1.207878
  C 2.334357 0.210410 -2.582659
  C 0.817006 0.207093 -2.729983
  H 0.569841 0.270709 -3.788408
  C 4.416930 0.135229 -1.216314
  C 5.218186 0.203964 -2.279414
  O 6.573214 0.205401 -2.225712
  H 0.772439 -0.003525 1.415365
  H 0.373371 -0.790535 -0.115946
  H 0.660034 0.967969 -0.068572
  H 2.729015 -0.630434 -3.162346
  H 2.717719 1.123682 -3.049792
  H 0.361805 1.057754 -2.232466
  H 0.382315 -0.707916 -2.341336
  H 4.887471 0.077442 -0.239947
  H 4.882284 0.263978 -3.301470
  H 6.860799 0.150589 -1.305541
 20
 12.209173
  C 0.913795 0.011658 0.349954
  C 2.355136 0.031713 -0.011173
  H 3.035241 -0.042290 0.835585
  C 2.954773 0.115731 -1.205980
  C 2.329654 0.209811 -2.581924
  C 0.810963 0.191317 -2.724856
  H 0.559282 0.260866 -3.781877
  C 4.414129 0.137050 -1.210552
  C 5.217895 0.214026 -2.275888
  O 6.562538 0.221914 -2.220681
  H 0.742504 0.013041 1.414964
  H 0.308796 -0.738114 -0.139934
  H 0.866427 0.976673 -0.093691
  H 2.729609 -0.621960 -3.170834
  H 2.704042 1.131204 -3.040816
  H 0.344443 1.029642 -2.220796
  H 0.391107 -0.731243 -2.345118
  H 4.882474 0.078379 -0.232255
  H 4.882599 0.274100 -3.296539
  H 6.846184 0.166016 -1.299807
 20
 22.513552
  C 0.886698 0.004262 0.353108
  C 2.349727 0.022708 -0.012193
  H 3.028944 -0.056809 0.833681
  C 2.953649 0.111502 -1.204489
  C 2.326095 0.210808 -2.579646
  C 0.808084 0.180504 -2.715899
  H 0.552008 0.254446 -3.771369
  C 4.413513 0.138109 -1.205708
  C 5.228153 0.220199 -2.281161
  O 6.569696 0.234532 -2.222966
  H 0.701149 0.028006 1.414013
  H 0.251680 -0.694295 -0.162187
  H 1.026556 0.957851 -0.110028
  H 2.729530 -0.614267 -3.175910
  H 2.692651 1.138212 -3.033672
  H 0.333563 1.011504 -2.203645
  H 0.398541 -0.751083 -2.340595
  H 4.880288 0.079831 -0.225549
  H 4.896515 0.279515 -3.301443
  H 6.848049 0.179297 -1.306846
 20
 32.485468
  C 0.880075 0.019800 0.372641
  C 2.345288 0.012553 -0.017354
  H 3.031242 -0.091171 0.821644
  C 2.949810 0.102649 -1.213260
  C 2.324178 0.208726 -2.589498
  C 0.807204 0.154120 -2.729046
  H 0.550916 0.237827 -3.783275
  C 4.407319 0.139668 -1.211852
  C 5.211747 0.222980 -2.276173
  O 6.552661 0.249547 -2.216812
  H 0.710069 -0.003681 1.432494
  H 0.188442 -0.574020 -0.200798
  H 1.196418 0.977973 -0.038951
  H 2.741985 -0.602131 -3.194909
  H 2.676506 1.147420 -3.031873
  H 0.319394 0.966014 -2.206273
  H 0.416787 -0.787546 -2.370460
  H 4.875188 0.088053 -0.232419
  H 4.878251 0.275765 -3.298670
  H 6.840095 0.196936 -1.269815
 20
 41.215486
  C 0.879222 0.015727 0.383725
  C 2.328827 0.020875 -0.026120
  H 3.010049 -0.074626 0.819411
  C 2.946267 0.106090 -1.221816
  C 2.325485 0.209251 -2.598115
  C 0.805561 0.144099 -2.731311
  H 0.540464 0.229333 -3.784469
  C 4.399998 0.142809 -1.208997
  C 5.210574 0.223153 -2.267979
  O 6.568281 0.251403 -2.199822
  H 0.726149 -0.027705 1.432001
  H 0.154608 -0.522319 -0.217580
  H 1.298559 0.956938 0.003339
  H 2.748077 -0.596588 -3.205400
  H 2.670822 1.149403 -3.039757
  H 0.319945 0.943969 -2.206063
  H 0.429766 -0.791345 -2.377964
  H 4.862322 0.094263 -0.227051
  H 4.877268 0.273549 -3.306019
  H 6.843271 0.201620 -1.275176
 20
 47.535886
  C 0.868756 0.009599 0.370980
  C 2.319149 0.029339 -0.041522
  H 2.985895 -0.060952 0.812784
  C 2.951724 0.109989 -1.237045
  C 2.331766 0.208622 -2.605199
  C 0.807810 0.135570 -2.717330
  H 0.525081 0.219766 -3.770759
  C 4.400923 0.146620 -1.215672
  C 5.218607 0.224775 -2.270717
  O 6.576581 0.254099 -2.195131
  H 0.712408 -0.069794 1.426574
  H 0.133164 -0.462863 -0.249097
  H 1.382092 0.954225 0.024503
  H 2.753616 -0.594957 -3.214613
  H 2.669012 1.149257 -3.050767
  H 0.321550 0.945682 -2.176505
  H 0.436256 -0.819018 -2.350636
  H 4.857457 0.100530 -0.231753
  H 4.893847 0.272945 -3.299804
  H 6.846844 0.204779 -1.267348
 20
 52.258940
  C 0.869309 0.003335 0.376665
  C 2.311899 0.039594 -0.045216
  H 2.971282 -0.047084 0.809492
  C 2.954166 0.113536 -1.244886
  C 2.336283 0.205929 -2.613739
  C 0.821690 0.129924 -2.717300
  H 0.534241 0.210432 -3.763926
  C 4.389442 0.150901 -1.217009
  C 5.212732 0.226142 -2.271538
  O 6.569718 0.255799 -2.190089
  H 0.717125 -0.108790 1.430694
  H 0.114925 -0.409001 -0.264270
  H 1.448836 0.943192 0.066688
  H 2.757403 -0.598849 -3.221102
  H 2.668836 1.145538 -3.063598
  H 0.340609 0.938227 -2.178170
  H 0.456172 -0.820584 -2.346703
  H 4.841423 0.107955 -0.231866
  H 4.890015 0.271915 -3.307331
  H 6.834669 0.207826 -1.261490
 20
 55.801266
  C 0.863727 -0.005126 0.378272
  C 2.312379 0.049765 -0.047487
  H 2.978684 -0.038784 0.816200
  C 2.952105 0.115666 -1.247325
  C 2.323454 0.202023 -2.624000
  C 0.799375 0.124292 -2.721664
  H 0.505328 0.200910 -3.772600
  C 4.413017 0.153703 -1.217662
  C 5.236789 0.227191 -2.264884
  O 6.600588 0.260476 -2.178656
  H 0.708214 -0.148977 1.422968
  H 0.096450 -0.357805 -0.282649
  H 1.506647 0.944003 0.096314
  H 2.744172 -0.608420 -3.231916
  H 2.654204 1.143994 -3.082514
  H 0.317090 0.942160 -2.179474
  H 0.433351 -0.831250 -2.342837
  H 4.867386 0.113274 -0.229776
  H 4.921354 0.272566 -3.288048
  H 6.862723 0.213035 -1.249786
 20
 58.921077
  C 0.858989 -0.017695 0.381298
  C 2.306661 0.061564 -0.043740
  H 2.962200 -0.029530 0.804672
  C 2.953463 0.120029 -1.249698
  C 2.327461 0.199649 -2.622374
  C 0.821767 0.121510 -2.717291
  H 0.531423 0.193216 -3.756483
  C 4.405515 0.160571 -1.220706
  C 5.230355 0.230679 -2.269548
  O 6.591112 0.258183 -2.181894
  H 0.695888 -0.181759 1.425422
  H 0.083307 -0.318321 -0.299327
  H 1.548702 0.941849 0.124234
  H 2.747907 -0.613598 -3.226416
  H 2.655530 1.140002 -3.085969
  H 0.343245 0.938952 -2.180847
  H 0.456741 -0.831457 -2.334346
  H 4.861725 0.121810 -0.234624
  H 4.913632 0.272335 -3.300322
  H 6.850988 0.210989 -1.252630
 20
 61.665680
  C 0.874771 -0.036207 0.420070
  C 2.308132 0.071331 -0.031177
  H 2.991033 -0.019015 0.817005
  C 2.944281 0.119940 -1.247133
  C 2.330656 0.196201 -2.626663
  C 0.824539 0.123762 -2.757477
  H 0.560578 0.194508 -3.809634
  C 4.389914 0.161251 -1.216047
  C 5.215987 0.230080 -2.265830
  O 6.578794 0.260545 -2.176472
  H 0.730941 -0.199571 1.456191
  H 0.079307 -0.298497 -0.254814
  H 1.590223 0.937140 0.157236
  H 2.757809 -0.619783 -3.220598
  H 2.668504 1.132271 -3.088964
  H 0.333302 0.953728 -2.232093
  H 0.444564 -0.834037 -2.380456
  H 4.846449 0.125114 -0.229925
  H 4.899260 0.270418 -3.297934
  H 6.837041 0.215092 -1.247424
 20
 63.972552
  C 0.863910 -0.052316 0.382591
  C 2.306477 0.081461 -0.036031
  H 2.973943 -0.019298 0.815580
  C 2.956149 0.119815 -1.254355
  C 2.336900 0.192233 -2.617887
  C 0.825245 0.123165 -2.720389
  H 0.540631 0.188509 -3.762591
  C 4.404089 0.160444 -1.223513
  C 5.232333 0.228735 -2.271947
  O 6.594116 0.268264 -2.180397
  H 0.687475 -0.221534 1.424228
  H 0.083560 -0.270575 -0.312001
  H 1.621452 0.946895 0.143085
  H 2.754261 -0.626713 -3.211839
  H 2.671888 1.122904 -3.088729
  H 0.351991 0.945268 -2.197257
  H 0.453697 -0.817671 -2.334914
  H 4.858873 0.127966 -0.238974
  H 4.920075 0.269674 -3.296569
  H 6.851089 0.225841 -1.250285
 20
 65.821142
  C 0.873301 -0.076057 0.398274
  C 2.319409 0.094476 -0.023477
  H 2.994098 -0.017864 0.823449
  C 2.963746 0.122314 -1.249686
  C 2.338412 0.190499 -2.629050
  C 0.820213 0.125453 -2.743080
  H 0.540988 0.188400 -3.792854
  C 4.402111 0.165424 -1.217248
  C 5.232271 0.230825 -2.265775
  O 6.595668 0.266745 -2.171496
  H 0.692487 -0.237963 1.440676
  H 0.085992 -0.258886 -0.296833
  H 1.662433 0.962057 0.158597
  H 2.751279 -0.622457 -3.211554
  H 2.674354 1.108031 -3.098194
  H 0.343836 0.954822 -2.223775
  H 0.439881 -0.819931 -2.353699
  H 4.857602 0.134776 -0.228891
  H 4.920157 0.268138 -3.294772
  H 6.850514 0.225999 -1.241773
 20
 67.367967
  C 0.879852 -0.105630 0.401333
  C 2.318755 0.106971 -0.014613
  H 2.995368 -0.012364 0.827856
  C 2.965899 0.127240 -1.251146
  C 2.348782 0.191271 -2.621430
  C 0.828703 0.125583 -2.743399
  H 0.557693 0.186968 -3.789194
  C 4.389638 0.176281 -1.219125
  C 5.222718 0.237528 -2.270686
  O 6.589017 0.257924 -2.178409
  H 0.691897 -0.247353 1.438281
  H 0.084470 -0.256470 -0.295576
  H 1.693825 0.980126 0.158512
  H 2.772631 -0.636917 -3.210332
  H 2.690926 1.119907 -3.097784
  H 0.349212 0.953829 -2.229914
  H 0.448878 -0.811160 -2.359766
  H 4.842857 0.145120 -0.236817
  H 4.915646 0.265454 -3.281622
  H 6.844571 0.217178 -1.248724
