 16
 0.000000
  H 1.427643 0.046810 0.058630
  C 2.509313 0.043129 0.024854
  C 3.212524 0.007665 1.346062
  H 2.498904 0.012463 2.166263
  C 3.124215 0.100000 -1.163926
  C 2.356887 0.207934 -2.448970
  H 1.285697 0.138601 -2.269980
  C 4.579518 0.112289 -1.265907
  C 5.283186 0.192058 -2.392963
  H 6.361222 0.196119 -2.378222
  H 3.864338 0.876776 1.443860
  H 3.829324 -0.886323 1.437492
  H 2.646103 -0.587622 -3.133247
  H 2.567481 1.162433 -2.928676
  H 5.121433 0.049004 -0.333298
  H 4.834214 0.258599 -3.368912
 16
 0.091169
  H 1.443301 -0.045392 0.047034
  C 2.524081 -0.004769 0.021601
  C 3.207540 0.013202 1.353884
  H 2.503865 0.288193 2.135514
  C 3.137538 0.088880 -1.161963
  C 2.360334 0.186256 -2.443151
  H 1.291822 0.113791 -2.255048
  C 4.590369 0.101120 -1.275618
  C 5.282101 0.263399 -2.399152
  H 6.359160 0.245421 -2.398327
  H 4.020054 0.738497 1.347555
  H 3.619708 -0.966231 1.600042
  H 2.647308 -0.610012 -3.128035
  H 2.560526 1.140934 -2.927165
  H 5.137712 -0.057329 -0.356971
  H 4.819538 0.422135 -3.357788
 16
 0.889262
  H 1.441456 -0.155697 0.059033
  C 2.518913 -0.062262 0.027495
  C 3.210789 0.028066 1.351122
  H 2.571661 0.546982 2.063364
  C 3.128940 0.068062 -1.153936
  C 2.361757 0.171307 -2.441419
  H 1.292015 0.091945 -2.260513
  C 4.583424 0.068359 -1.279837
  C 5.269950 0.335849 -2.387032
  H 6.345533 0.277889 -2.402232
  H 4.129060 0.600451 1.235725
  H 3.438508 -0.956543 1.759399
  H 2.658772 -0.614650 -3.133815
  H 2.558670 1.133296 -2.911506
  H 5.136270 -0.216543 -0.395509
  H 4.804517 0.624742 -3.313326
 16
 2.503286
  H 1.453357 -0.327223 0.077031
  C 2.516293 -0.130033 0.035295
  C 3.218956 0.034626 1.344353
  H 2.664609 0.754399 1.948619
  C 3.115966 0.061099 -1.143844
  C 2.361407 0.185723 -2.437006
  H 1.288855 0.110048 -2.267302
  C 4.571522 0.044535 -1.285324
  C 5.253865 0.378543 -2.374609
  H 6.325007 0.275346 -2.412713
  H 4.202910 0.460818 1.157511
  H 3.286210 -0.892602 1.910074
  H 2.661121 -0.588183 -3.141742
  H 2.567056 1.155513 -2.885818
  H 5.125661 -0.339094 -0.439771
  H 4.790555 0.772747 -3.261883
 16
 8.500153
  H 1.529153 -0.666849 0.061111
  C 2.525026 -0.248215 0.034024
  C 3.209292 0.045249 1.329854
  H 2.633890 0.824398 1.839300
  C 3.112115 0.090394 -1.122492
  C 2.358920 0.276006 -2.410629
  H 1.285519 0.225601 -2.239362
  C 4.564185 0.042485 -1.274186
  C 5.247598 0.330977 -2.379430
  H 6.309064 0.156464 -2.434132
  H 4.149838 0.536346 1.072619
  H 3.304242 -0.800743 2.002914
  H 2.631320 -0.477112 -3.149161
  H 2.595499 1.255799 -2.819749
  H 5.113996 -0.358134 -0.433207
  H 4.794173 0.739107 -3.265662
 16
 18.771895
  H 1.611833 -0.896075 0.037707
  C 2.528323 -0.330708 0.025462
  C 3.180647 0.093852 1.301493
  H 2.586306 0.884430 1.769447
  C 3.125739 0.065419 -1.111005
  C 2.354769 0.345952 -2.370515
  H 1.283146 0.279105 -2.188834
  C 4.566982 -0.044739 -1.274033
  C 5.253899 0.255298 -2.374233
  H 6.310161 0.086360 -2.423104
  H 4.030802 0.677652 0.928059
  H 3.373452 -0.704948 2.019687
  H 2.614001 -0.344378 -3.173382
  H 2.595308 1.353472 -2.705813
  H 5.103631 -0.460725 -0.437528
  H 4.811172 0.729075 -3.240331
 16
 36.292096
  H 1.688937 -1.078177 -0.015170
  C 2.538843 -0.413152 0.022902
  C 3.153071 0.081291 1.279678
  H 2.630792 0.969290 1.658947
  C 3.152432 0.113204 -1.069068
  C 2.364967 0.377047 -2.333216
  H 1.301486 0.389656 -2.110455
  C 4.576343 -0.048487 -1.255795
  C 5.255104 0.267966 -2.361087
  H 6.310162 0.036000 -2.444173
  H 3.920357 0.726649 0.768375
  H 3.309784 -0.619431 2.084848
  H 2.561735 -0.349369 -3.115021
  H 2.627110 1.367294 -2.702401
  H 5.090712 -0.558016 -0.445348
  H 4.815107 0.744463 -3.225687
 16
 66.499369
  H 1.814816 -1.307209 -0.004273
  C 2.556892 -0.525386 0.041782
  C 3.097285 0.100057 1.248733
  H 2.676242 1.056892 1.566477
  C 3.143119 0.114579 -1.026961
  C 2.369091 0.449262 -2.283697
  H 1.298801 0.397498 -2.091892
  C 4.572574 -0.089247 -1.237826
  C 5.252032 0.223208 -2.339362
  H 6.289921 -0.044004 -2.438063
  H 3.748205 0.826019 0.463117
  H 3.320421 -0.534667 2.096613
  H 2.608821 -0.232306 -3.100840
  H 2.613445 1.459644 -2.602672
  H 5.093171 -0.580151 -0.425787
  H 4.806834 0.709973 -3.187983
 16
 81.522830
  H 1.895403 -1.387417 0.002661
  C 2.578871 -0.555736 0.088300
  C 3.013024 0.062972 1.267350
  H 2.665608 1.055767 1.518164
  C 3.185580 0.148459 -0.991196
  C 2.369690 0.488067 -2.220384
  H 1.307727 0.442069 -1.989996
  C 4.622842 -0.087343 -1.238778
  C 5.275522 0.198097 -2.358963
  H 6.316682 -0.054905 -2.468900
  H 3.707200 0.873264 0.201621
  H 3.183386 -0.526281 2.170304
  H 2.584202 -0.204365 -3.033516
  H 2.602162 1.493623 -2.563663
  H 5.153932 -0.576038 -0.429550
  H 4.819514 0.698711 -3.194827
 16
 64.239378
  H 2.051606 -1.458337 -0.007428
  C 2.647944 -0.568206 0.133854
  C 2.904306 0.052691 1.310011
  H 2.552291 1.060108 1.500536
  C 3.242678 0.233669 -0.963350
  C 2.368238 0.526402 -2.165533
  H 1.319280 0.459345 -1.902332
  C 4.665200 -0.116284 -1.281602
  C 5.282060 0.131086 -2.421307
  H 6.331137 -0.074522 -2.529778
  H 3.659668 0.934715 -0.078933
  H 3.024562 -0.528674 2.228489
  H 2.575743 -0.185918 -2.962273
  H 2.566798 1.528741 -2.548031
  H 5.188981 -0.649222 -0.497801
  H 4.838929 0.714265 -3.206323
 16
 41.325117
  H 2.087991 -1.464670 -0.055466
  C 2.661118 -0.570319 0.142775
  C 2.885219 -0.051539 1.351726
  H 2.711929 0.990685 1.560498
  C 3.234359 0.265230 -0.969144
  C 2.365955 0.559447 -2.172090
  H 1.315195 0.504614 -1.898452
  C 4.686710 -0.040153 -1.260194
  C 5.297360 0.125382 -2.422788
  H 6.333725 -0.140711 -2.548699
  H 3.527501 1.089259 -0.248035
  H 2.908260 -0.624241 2.274891
  H 2.556551 -0.164279 -2.959541
  H 2.559715 1.554968 -2.559128
  H 5.231570 -0.445002 -0.416744
  H 4.804177 0.523904 -3.290331
 16
 23.671791
  H 2.293001 -1.470335 -0.119929
  C 2.764755 -0.537529 0.149128
  C 2.777851 -0.060918 1.385702
  H 2.664074 0.988364 1.601652
  C 3.288652 0.360699 -0.939430
  C 2.372449 0.572385 -2.132320
  H 1.331511 0.504506 -1.821787
  C 4.709861 -0.021946 -1.284101
  C 5.281093 0.083966 -2.467841
  H 6.303857 -0.215569 -2.623563
  H 3.506265 1.251950 -0.319046
  H 2.672212 -0.693619 2.256909
  H 2.558030 -0.186961 -2.888859
  H 2.531704 1.551745 -2.577054
  H 5.272626 -0.415015 -0.446701
  H 4.768740 0.475012 -3.329563
 16
 12.316237
  H 2.372457 -1.422532 -0.177567
  C 2.776313 -0.473042 0.145200
  C 2.736386 -0.101886 1.411832
  H 2.855639 0.922406 1.724456
  C 3.306986 0.437711 -0.926618
  C 2.375735 0.564368 -2.127216
  H 1.338941 0.521423 -1.799704
  C 4.714992 0.017705 -1.272016
  C 5.268462 0.049444 -2.469131
  H 6.291660 -0.251039 -2.620834
  H 3.445482 1.397595 -0.409155
  H 2.500144 -0.800949 2.199049
  H 2.547981 -0.249607 -2.827600
  H 2.531857 1.508401 -2.642682
  H 5.285875 -0.337459 -0.422969
  H 4.747768 0.404195 -3.341847
 16
 8.740360
  H 2.640447 -1.460434 -0.170733
  C 2.832116 -0.447608 0.159845
  C 2.610562 -0.100985 1.412471
  H 2.790856 0.900980 1.766180
  C 3.369644 0.475556 -0.897625
  C 2.388843 0.557958 -2.070472
  H 1.369281 0.622268 -1.695736
  C 4.745475 0.009843 -1.301407
  C 5.262530 0.063150 -2.514162
  H 6.264366 -0.278982 -2.712772
  H 3.482132 1.472648 -0.450468
  H 2.229611 -0.804252 2.135866
  H 2.470647 -0.327337 -2.696983
  H 2.584346 1.437470 -2.678537
  H 5.335792 -0.381879 -0.481917
  H 4.720030 0.448339 -3.360352
