 20
 0.000000
  C 1.007552 -0.071370 0.047949
  C 2.503681 -0.083201 0.024723
  C 3.217320 -0.596601 -0.983169
  C 4.655718 -0.606511 -1.002621
  C 5.378643 -1.120874 -2.012398
  C 6.817756 -1.129505 -2.029340
  C 7.534302 -1.641788 -3.035046
  C 9.024386 -1.661870 -3.074462
  H 0.647151 0.395265 0.964026
  H 0.611198 -1.086075 0.010199
  H 0.611198 0.494701 -0.795032
  H 3.005440 0.351992 0.879084
  H 2.704671 -1.029721 -1.833443
  H 5.158519 -0.171115 -0.147870
  H 4.876509 -1.556386 -2.867383
  H 7.325485 -0.695241 -1.176806
  H 7.034251 -2.077824 -3.891040
  H 9.459878 -1.208915 -2.185245
  H 9.382870 -1.115946 -3.948682
  H 9.382871 -2.689995 -3.146892
 20
 0.403024
  C 1.029663 -0.183687 0.102111
  C 2.510246 -0.010380 -0.007865
  C 3.225018 -0.377487 -1.075131
  C 4.656424 -0.300043 -1.153088
  C 5.378490 -0.825889 -2.158077
  C 6.811186 -0.915376 -2.148353
  C 7.527760 -1.575957 -3.061032
  C 9.003574 -1.763637 -3.004869
  H 0.680360 0.058098 1.102280
  H 0.744772 -1.209421 -0.128784
  H 0.514116 0.465570 -0.606359
  H 3.010546 0.451591 0.832615
  H 2.723452 -0.842924 -1.915482
  H 5.165072 0.159699 -0.314145
  H 4.869239 -1.268356 -3.005930
  H 7.312684 -0.476186 -1.293690
  H 7.030551 -2.017746 -3.915774
  H 9.428934 -1.268800 -2.135255
  H 9.473331 -1.363159 -3.903129
  H 9.244880 -2.826415 -2.957589
 20
 3.953049
  C 1.137432 -0.426621 0.177192
  C 2.542522 0.032565 -0.042792
  C 3.252584 -0.250101 -1.139665
  C 4.655349 -0.019244 -1.291778
  C 5.378904 -0.542232 -2.302001
  C 6.786971 -0.788370 -2.210695
  C 7.494162 -1.517399 -3.078957
  C 8.895449 -1.969515 -2.857704
  H 0.816357 -0.227418 1.196044
  H 1.049080 -1.495122 -0.015377
  H 0.453535 0.084832 -0.502362
  H 2.995213 0.616039 0.748133
  H 2.787429 -0.837021 -1.923735
  H 5.161296 0.498344 -0.485902
  H 4.868461 -0.920860 -3.179711
  H 7.258543 -0.475005 -1.285967
  H 7.037905 -1.837064 -4.007819
  H 9.287261 -1.587027 -1.918032
  H 9.540293 -1.633916 -3.671089
  H 8.936835 -3.059043 -2.838560
 20
 10.400022
  C 1.208012 -0.565906 0.240469
  C 2.558918 0.011156 -0.040456
  C 3.285592 -0.297496 -1.122076
  C 4.645988 0.060083 -1.338397
  C 5.385398 -0.466150 -2.348153
  C 6.757760 -0.826576 -2.191352
  C 7.480253 -1.534533 -3.067542
  C 8.822814 -2.100281 -2.783968
  H 0.880473 -0.322162 1.247690
  H 1.222207 -1.650188 0.128468
  H 0.469324 -0.175897 -0.461281
  H 2.941817 0.731885 0.671133
  H 2.881002 -1.016468 -1.827177
  H 5.124250 0.690785 -0.597748
  H 4.903116 -0.718912 -3.286529
  H 7.167613 -0.663084 -1.199887
  H 7.100149 -1.700609 -4.066370
  H 9.152879 -1.840843 -1.783965
  H 9.552217 -1.731126 -3.501705
  H 8.798823 -3.185241 -2.875747
 20
 22.920492
  C 1.415780 -0.779676 0.292646
  C 2.589784 0.058213 -0.107245
  C 3.352154 -0.206513 -1.180583
  C 4.629271 0.340680 -1.472088
  C 5.423522 -0.166456 -2.479960
  C 6.689371 -0.732469 -2.215439
  C 7.444652 -1.445629 -3.068932
  C 8.612581 -2.272154 -2.659304
  H 1.084632 -0.536288 1.302356
  H 1.665379 -1.841326 0.250681
  H 0.576428 -0.616758 -0.390820
  H 2.866441 0.866488 0.553578
  H 3.048282 -1.027816 -1.816173
  H 5.048554 1.063350 -0.779231
  H 4.983721 -0.335970 -3.458641
  H 7.011150 -0.675329 -1.184585
  H 7.147556 -1.526345 -4.105224
  H 8.819720 -2.159462 -1.595794
  H 9.502202 -1.981324 -3.224803
  H 8.425911 -3.326587 -2.871742
 20
 39.382534
  C 1.497938 -0.827639 0.326275
  C 2.628996 0.049042 -0.090821
  C 3.430733 -0.232815 -1.149419
  C 4.599618 0.433737 -1.516678
  C 5.441565 -0.080543 -2.527889
  C 6.612890 -0.770286 -2.211054
  C 7.404708 -1.461496 -3.066755
  C 8.531228 -2.330174 -2.637410
  H 1.114940 -0.539163 1.301622
  H 1.808535 -1.871993 0.365968
  H 0.679703 -0.763552 -0.394487
  H 2.817961 0.936487 0.497187
  H 3.203069 -1.129431 -1.717440
  H 4.927017 1.290170 -0.936944
  H 5.105282 -0.053877 -3.559266
  H 6.852408 -0.829053 -1.154066
  H 7.204331 -1.422554 -4.129513
  H 8.665208 -2.294300 -1.558817
  H 9.457549 -2.011802 -3.118475
  H 8.356726 -3.366423 -2.934555
 20
 55.010164
  C 1.583871 -0.888553 0.353667
  C 2.671138 0.033205 -0.070883
  C 3.511299 -0.242864 -1.121838
  C 4.559478 0.532279 -1.569589
  C 5.482587 0.024010 -2.575512
  C 6.530408 -0.799484 -2.217922
  C 7.363519 -1.483900 -3.065936
  C 8.444583 -2.390579 -2.607985
  H 1.161153 -0.585025 1.307530
  H 1.953581 -1.911237 0.440748
  H 0.778697 -0.903135 -0.385937
  H 2.803328 0.950457 0.484159
  H 3.345733 -1.173763 -1.654918
  H 4.767798 1.482794 -1.093185
  H 5.267470 0.195529 -3.623498
  H 6.702175 -0.914586 -1.152443
  H 7.225057 -1.391885 -4.134443
  H 8.515700 -2.399908 -1.522913
  H 9.407199 -2.081943 -3.021344
  H 8.262657 -3.410291 -2.955976
 20
 37.056529
  C 1.710023 -0.934979 0.414718
  C 2.761106 0.009026 -0.061219
  C 3.604278 -0.274381 -1.074941
  C 4.546565 0.603543 -1.645779
  C 5.497707 0.138685 -2.576021
  C 6.438071 -0.852033 -2.216901
  C 7.277553 -1.498211 -3.058736
  C 8.316600 -2.466868 -2.620734
  H 1.268862 -0.591933 1.346646
  H 2.126435 -1.930824 0.565975
  H 0.910878 -1.029691 -0.323986
  H 2.838423 0.963215 0.440864
  H 3.516266 -1.236875 -1.564872
  H 4.590413 1.622393 -1.281612
  H 5.448820 0.451656 -3.611409
  H 6.529598 -1.034487 -1.152485
  H 7.198412 -1.328442 -4.124806
  H 8.337805 -2.555397 -1.537099
  H 9.305416 -2.162055 -2.968866
  H 8.115610 -3.450026 -3.049570
 20
 20.432555
  C 1.870966 -0.988815 0.476290
  C 2.849762 0.000231 -0.065336
  C 3.701127 -0.269399 -1.066403
  C 4.526933 0.681445 -1.744833
  C 5.527071 0.262489 -2.581079
  C 6.343438 -0.860076 -2.230143
  C 7.187658 -1.503613 -3.049005
  C 8.150062 -2.551197 -2.611826
  H 1.412108 -0.625912 1.392138
  H 2.356749 -1.942819 0.679564
  H 1.078226 -1.176611 -0.249612
  H 2.855143 0.983729 0.385864
  H 3.700367 -1.257640 -1.510286
  H 4.393556 1.727555 -1.503874
  H 5.659944 0.693585 -3.563975
  H 6.345674 -1.095535 -1.172766
  H 7.184125 -1.275760 -4.107854
  H 8.104537 -2.698827 -1.535457
  H 9.168435 -2.274887 -2.887809
  H 7.927444 -3.497930 -3.106514
 20
 8.882394
  C 1.970941 -0.990926 0.581933
  C 2.863625 0.017688 -0.066792
  C 3.735104 -0.276080 -1.031005
  C 4.492815 0.675563 -1.800267
  C 5.558396 0.300033 -2.544319
  C 6.303485 -0.897005 -2.246730
  C 7.174883 -1.500376 -3.062601
  C 8.047350 -2.643910 -2.671064
  H 1.487703 -0.578423 1.463772
  H 2.532367 -1.878440 0.872033
  H 1.193866 -1.309690 -0.114745
  H 2.779919 1.039009 0.282250
  H 3.820931 -1.300320 -1.371590
  H 4.194546 1.714111 -1.740836
  H 5.866651 0.877546 -3.405793
  H 6.210840 -1.238393 -1.223033
  H 7.268510 -1.167394 -4.089895
  H 7.907539 -2.901753 -1.623504
  H 9.096008 -2.391975 -2.835789
  H 7.824150 -3.519724 -3.282145
 20
 7.892758
  C 2.215920 -1.119628 0.619119
  C 2.940411 -0.028433 -0.098757
  C 3.745114 -0.237125 -1.146671
  C 4.444438 0.752320 -1.940176
  C 5.595562 0.437226 -2.557427
  C 6.275679 -0.798797 -2.234865
  C 7.104007 -1.508226 -3.001956
  C 7.811255 -2.746833 -2.559393
  H 1.762512 -0.752047 1.535183
  H 2.891453 -1.934934 0.866828
  H 1.426996 -1.529198 -0.012150
  H 2.809087 0.975501 0.284848
  H 3.854224 -1.252239 -1.515272
  H 4.009523 1.737438 -2.024002
  H 6.038509 1.087839 -3.296666
  H 6.115005 -1.128685 -1.213217
  H 7.301249 -1.192792 -4.022358
  H 7.449861 -3.078028 -1.589027
  H 8.883643 -2.558849 -2.484897
  H 7.669993 -3.548699 -3.285254
