 23
 0.000000
  C 0.961726 0.154098 0.433866
  C 2.435618 0.135547 0.388183
  C 3.216142 0.602053 1.549301
  H 2.605531 0.935559 2.379333
  C 3.037541 -0.331865 -0.775154
  C 4.414532 -0.412320 -0.976658
  C 5.108418 -0.861522 -2.096943
  C 4.621942 -1.385205 -3.402242
  C 3.135390 -1.504723 -3.699817
  H 3.009949 -1.905890 -4.699858
  O 6.427514 -0.850874 -2.071252
  H 0.577796 0.532667 1.375471
  H 0.568795 -0.850357 0.269084
  H 0.568920 0.765158 -0.380269
  H 3.869893 1.422860 1.248223
  H 3.869784 -0.198933 1.899891
  H 2.373408 -0.647512 -1.560503
  H 5.038711 -0.082022 -0.154731
  H 5.090474 -2.368744 -3.523565
  H 5.090470 -0.758291 -4.169753
  H 2.649657 -0.533161 -3.664951
  H 2.649881 -2.183025 -3.003175
  H 6.809563 -0.517186 -1.237848
 23
 0.371493
  C 0.967769 0.069452 0.510863
  C 2.436155 0.134990 0.387967
  C 3.229306 0.705722 1.492691
  H 2.594085 1.033808 2.307756
  C 3.012051 -0.355307 -0.778852
  C 4.384428 -0.364039 -1.028029
  C 5.097785 -0.916847 -2.085869
  C 4.638562 -1.406780 -3.413606
  C 3.157953 -1.415848 -3.751603
  H 3.039513 -1.766707 -4.773130
  O 6.406547 -1.029621 -1.967581
  H 0.612170 0.470056 1.453914
  H 0.625402 -0.959475 0.407773
  H 0.497843 0.616677 -0.308085
  H 3.818545 1.553404 1.146880
  H 3.928973 -0.032984 1.883526
  H 2.335844 -0.750032 -1.518898
  H 4.999815 0.025417 -0.225903
  H 5.051042 -2.414964 -3.535323
  H 5.173434 -0.792265 -4.150642
  H 2.731347 -0.418593 -3.693762
  H 2.606987 -2.095995 -3.107911
  H 6.781067 -0.731289 -1.119415
 23
 5.970041
  C 0.964488 0.071482 0.593431
  C 2.437190 0.139916 0.396622
  C 3.272565 0.740301 1.440766
  H 2.646091 1.093556 2.261754
  C 2.947362 -0.388713 -0.780846
  C 4.311026 -0.372727 -1.090861
  C 5.077000 -0.953392 -2.094679
  C 4.681631 -1.415585 -3.451289
  C 3.202104 -1.410066 -3.819457
  H 3.064794 -1.765086 -4.862688
  O 6.357274 -1.064903 -1.831931
  H 0.659745 0.504229 1.539178
  H 0.602397 -0.948833 0.523126
  H 0.483250 0.612465 -0.211541
  H 3.847550 1.578297 1.057613
  H 3.969848 -0.006519 1.828260
  H 2.221784 -0.826163 -1.468571
  H 4.871822 0.062785 -0.274031
  H 5.103788 -2.408324 -3.574286
  H 5.223207 -0.772442 -4.133135
  H 2.785377 -0.419917 -3.739207
  H 2.645588 -2.082499 -3.184939
  H 6.764736 -0.810657 -0.994395
 23
 6.956365
  C 0.959489 0.033400 0.646270
  C 2.421198 0.127117 0.404196
  C 3.271709 0.843788 1.376814
  H 2.689347 1.243867 2.194884
  C 2.920877 -0.460499 -0.744585
  C 4.265083 -0.431005 -1.129809
  C 5.053721 -1.079555 -2.068858
  C 4.713788 -1.414798 -3.465475
  C 3.240495 -1.331811 -3.837488
  H 3.120775 -1.575988 -4.887265
  O 6.326781 -1.266369 -1.765997
  H 0.664653 0.538081 1.561651
  H 0.646913 -1.003764 0.697135
  H 0.414934 0.483992 -0.183603
  H 3.794901 1.667607 0.900753
  H 4.023750 0.179647 1.792462
  H 2.199963 -0.962709 -1.377428
  H 4.864367 0.121066 -0.395677
  H 5.116361 -2.403210 -3.713756
  H 5.273455 -0.716787 -4.082565
  H 2.849265 -0.349280 -3.655390
  H 2.668135 -2.040719 -3.269387
  H 6.668650 -1.047967 -0.876293
 23
 12.559500
  C 0.993953 -0.037794 0.741548
  C 2.424874 0.137382 0.420689
  C 3.246703 1.028499 1.272930
  H 2.658076 1.457310 2.065076
  C 2.930779 -0.538463 -0.676489
  C 4.248932 -0.494881 -1.108669
  C 4.981640 -1.265952 -2.027424
  C 4.749334 -1.414702 -3.480271
  C 3.285779 -1.226805 -3.915774
  H 3.207867 -1.296021 -4.996262
  O 6.180996 -1.632220 -1.656407
  H 0.693019 0.563111 1.593960
  H 0.778180 -1.084837 0.959562
  H 0.381216 0.235201 -0.109610
  H 3.682558 1.841303 0.692256
  H 4.068219 0.479188 1.728475
  H 2.226286 -1.148314 -1.232114
  H 4.834313 0.186299 -0.496521
  H 5.119645 -2.391467 -3.802329
  H 5.370458 -0.660104 -3.954807
  H 2.916013 -0.248828 -3.614611
  H 2.645069 -1.991299 -3.479571
  H 6.583480 -1.349566 -0.821018
 23
 23.195236
  C 0.988874 0.040367 0.780353
  C 2.422980 0.142512 0.450382
  C 3.285938 1.059084 1.247463
  H 2.704345 1.580014 2.012001
  C 2.902695 -0.613464 -0.596903
  C 4.200906 -0.603041 -1.077826
  C 4.882139 -1.374901 -2.022384
  C 4.761801 -1.430818 -3.484100
  C 3.325310 -1.230839 -3.985898
  H 3.299744 -1.220873 -5.057941
  O 6.070758 -1.783695 -1.574614
  H 0.690185 0.772708 1.526238
  H 0.765517 -0.957521 1.165372
  H 0.381081 0.173139 -0.105086
  H 3.763778 1.807796 0.609640
  H 4.081764 0.504820 1.748093
  H 2.192045 -1.237112 -1.118968
  H 4.772176 0.178171 -0.568635
  H 5.160680 -2.380304 -3.838695
  H 5.398849 -0.628954 -3.873587
  H 2.917980 -0.294344 -3.613388
  H 2.683585 -2.035906 -3.635967
  H 6.608565 -1.333288 -0.903825
 23
 32.891542
  C 1.016599 -0.036453 0.925051
  C 2.404692 0.149966 0.471082
  C 3.256171 1.156917 1.135657
  H 2.732075 1.643387 1.954174
  C 2.870328 -0.645898 -0.565842
  C 4.132264 -0.582928 -1.112682
  C 4.789986 -1.490395 -1.991948
  C 4.759214 -1.506070 -3.453781
  C 3.423215 -1.077904 -4.053269
  H 3.483023 -1.075224 -5.133413
  O 5.872165 -1.974232 -1.372986
  H 0.723129 0.701649 1.663864
  H 0.898262 -1.029975 1.361364
  H 0.328004 0.007900 0.080607
  H 3.574972 1.920270 0.427801
  H 4.159936 0.691941 1.533318
  H 2.186604 -1.384704 -0.972160
  H 4.750868 0.241528 -0.760562
  H 5.030323 -2.499560 -3.823855
  H 5.554839 -0.831079 -3.785028
  H 3.157295 -0.078699 -3.716662
  H 2.629467 -1.752595 -3.749843
  H 6.591593 -1.426442 -1.003436
 23
 40.338593
  C 1.056278 -0.088776 1.161867
  C 2.367525 0.151004 0.529278
  C 3.201616 1.281784 0.979761
  H 2.725558 1.830591 1.782936
  C 2.785248 -0.729975 -0.479601
  C 3.973368 -0.638275 -1.151647
  C 4.654734 -1.614074 -1.990178
  C 4.807440 -1.545627 -3.450706
  C 3.609037 -0.912079 -4.154835
  H 3.793321 -0.868174 -5.225537
  O 5.628016 -2.142194 -1.227228
  H 0.786066 0.694162 1.861951
  H 1.070973 -1.042501 1.695120
  H 0.278221 -0.186025 0.406571
  H 3.396012 1.972706 0.158683
  H 4.167606 0.925451 1.327776
  H 2.136018 -1.559239 -0.710373
  H 4.599034 0.229876 -0.972185
  H 5.002537 -2.543745 -3.849174
  H 5.711738 -0.957954 -3.653368
  H 3.436248 0.096857 -3.795826
  H 2.709240 -1.498140 -3.995351
  H 6.518952 -1.756717 -1.227890
 23
 54.909638
  C 1.169137 -0.125270 1.400170
  C 2.395896 0.120255 0.616548
  C 3.206189 1.318859 0.900184
  H 2.805902 1.874473 1.741066
  C 2.735907 -0.797909 -0.371022
  C 3.852630 -0.710859 -1.158281
  C 4.377699 -1.684969 -2.116940
  C 4.817232 -1.560153 -3.505653
  C 3.800008 -0.809032 -4.363966
  H 4.166932 -0.721083 -5.380153
  O 5.243708 -2.153731 -1.145514
  H 0.941620 0.690532 2.080933
  H 1.280706 -1.042848 1.979559
  H 0.316945 -0.288707 0.737741
  H 3.224779 1.982570 0.037106
  H 4.237476 1.046739 1.124543
  H 2.088903 -1.653914 -0.512571
  H 4.426954 0.214181 -1.150303
  H 4.986919 -2.556694 -3.921862
  H 5.787735 -1.044726 -3.547786
  H 3.625004 0.188580 -3.972217
  H 2.853722 -1.336585 -4.390496
  H 6.171397 -1.861237 -1.114978
 23
 63.813644
  C 1.198439 -0.135028 1.397415
  C 2.459030 0.069073 0.625119
  C 3.293075 1.263741 0.952090
  H 2.862950 1.819510 1.780210
  C 2.778249 -0.816951 -0.339686
  C 3.940941 -0.709211 -1.176870
  C 4.351955 -1.587280 -2.214886
  C 4.821026 -1.582023 -3.588784
  C 3.836964 -0.832339 -4.488788
  H 4.205460 -0.831281 -5.509239
  O 5.058952 -1.880488 -1.018229
  H 0.999892 0.690966 2.072626
  H 1.264232 -1.050887 1.984143
  H 0.352575 -0.246511 0.725138
  H 3.350061 1.934763 0.097699
  H 4.303926 0.979704 1.231000
  H 2.133864 -1.665072 -0.517723
  H 4.446578 0.258971 -1.174088
  H 4.934327 -2.609242 -3.947961
  H 5.813744 -1.115228 -3.680976
  H 3.717343 0.193583 -4.161291
  H 2.861747 -1.311254 -4.479751
  H 5.923981 -1.447343 -0.815356
