15

H -2.47467584308231 0.7028569681868412 -0.056845836964732874
C -2.06362 0.588134 -0.028364
C -1.650831 -0.474064 0.643055
C -0.238235 -0.949366 0.800676
C 0.811721 -0.090852 0.102122
C 2.224851 -0.62338 0.336985
H 2.5429081198507055 -0.36817726773094545 0.11695399944607843
H -1.35854 1.221572 -0.539654
H -2.384084 -1.094125 1.146713
H -0.009952 -1.000037 1.871217
H -0.178582 -1.972197 0.415076
H 0.606343 -0.071009 -0.971089
H 0.764161 0.93165 0.481334
H 2.422332 -0.60551 1.411415
H 2.281291 -1.664147 0.015541
