 22
 0.000000
  C 0.993342 0.173923 0.464878
  C 2.451009 0.126670 0.365664
  H 3.060196 0.454592 1.195436
  C 3.042472 -0.333661 -0.789569
  C 4.429552 -0.410653 -0.980811
  C 5.082418 -0.861003 -2.104989
  C 4.597501 -1.378848 -3.389149
  C 3.119365 -1.517466 -3.719909
  C 2.939169 -2.084701 -5.126497
  H 6.164733 -0.844381 -2.082838
  H 0.635175 0.552796 1.416621
  H 0.577290 -0.822614 0.297345
  H 0.598093 0.792131 -0.345152
  H 2.385118 -0.648069 -1.583308
  H 5.048518 -0.080873 -0.155493
  H 5.077976 -2.360037 -3.518138
  H 5.072252 -0.757329 -4.162712
  H 2.629797 -0.543030 -3.679834
  H 2.635650 -2.194884 -3.014175
  H 3.387997 -1.433103 -5.872752
  H 1.882126 -2.182674 -5.360455
  H 3.393842 -3.068849 -5.213900
 22
 -0.035027
  C 1.011071 0.349245 0.517022
  C 2.427912 0.034834 0.384606
  H 3.089218 0.277698 1.205739
  C 2.963041 -0.484456 -0.771523
  C 4.353391 -0.559677 -0.962564
  C 5.034519 -0.821085 -2.130595
  C 4.591791 -1.265295 -3.449123
  C 3.145339 -1.638101 -3.729652
  C 2.997229 -2.192656 -5.143987
  H 6.107781 -0.671178 -2.083044
  H 0.720063 0.561804 1.541028
  H 0.382729 -0.429739 0.082222
  H 0.812992 1.241697 -0.088494
  H 2.290025 -0.767689 -1.563824
  H 4.959292 -0.282864 -0.108626
  H 5.238635 -2.116179 -3.715701
  H 4.916954 -0.497901 -4.169122
  H 2.506246 -0.758323 -3.640476
  H 2.809316 -2.395434 -3.019531
  H 3.304348 -1.459665 -5.886319
  H 1.960502 -2.454261 -5.340863
  H 3.598930 -3.088722 -5.279140
 22
 3.420816
  C 1.087545 0.495536 0.386317
  C 2.433782 -0.061928 0.414501
  H 3.070712 0.163575 1.260653
  C 2.966110 -0.710305 -0.675837
  C 4.353482 -0.702831 -0.895656
  C 4.978622 -0.752054 -2.119205
  C 4.522684 -1.159510 -3.447280
  C 3.145036 -1.761035 -3.673687
  C 2.987595 -2.212091 -5.123873
  H 6.016369 -0.437614 -2.119562
  H 0.735292 0.816562 1.360958
  H 0.375212 -0.171258 -0.097293
  H 1.156116 1.377649 -0.263124
  H 2.296402 -1.066124 -1.442358
  H 4.966681 -0.417309 -0.048992
  H 5.281950 -1.871255 -3.808589
  H 4.664747 -0.303533 -4.123436
  H 2.371673 -1.019869 -3.466231
  H 2.998076 -2.621301 -3.018664
  H 3.098412 -1.374346 -5.808326
  H 2.002932 -2.645146 -5.280368
  H 3.728075 -2.965454 -5.383244
 22
 9.254866
  C 1.196171 0.590849 0.193046
  C 2.449633 -0.117951 0.419932
  H 3.038303 0.130326 1.293988
  C 2.998356 -0.892961 -0.578857
  C 4.377991 -0.788392 -0.831958
  C 4.914006 -0.683489 -2.090865
  C 4.440984 -1.090632 -3.416721
  C 3.135347 -1.846829 -3.606250
  C 2.935504 -2.210487 -5.076071
  H 5.905353 -0.245083 -2.131715
  H 0.790610 1.056755 1.084080
  H 0.453674 -0.023144 -0.313297
  H 1.481645 1.378123 -0.516017
  H 2.344528 -1.345953 -1.306560
  H 4.998292 -0.471929 -0.001727
  H 5.259715 -1.701740 -3.828673
  H 4.447980 -0.204110 -4.066110
  H 2.292420 -1.226158 -3.297025
  H 3.141035 -2.762322 -3.013163
  H 2.902040 -1.318900 -5.698324
  H 1.999948 -2.748260 -5.209142
  H 3.740803 -2.847536 -5.435536
 22
 15.949682
  C 1.310121 0.631187 0.021074
  C 2.468174 -0.172120 0.406699
  H 2.993308 0.070216 1.322926
  C 3.042112 -1.016711 -0.522758
  C 4.413069 -0.829442 -0.796925
  C 4.865300 -0.624515 -2.070412
  C 4.373454 -1.037851 -3.391141
  C 3.101764 -1.858024 -3.550236
  C 2.875651 -2.214867 -5.017898
  H 5.819642 -0.113331 -2.142726
  H 0.900255 1.222898 0.831988
  H 0.539980 0.051982 -0.484354
  H 1.744140 1.309246 -0.732245
  H 2.413052 -1.570281 -1.202194
  H 5.006819 -0.418249 0.010561
  H 5.207378 -1.606946 -3.828589
  H 4.312898 -0.144554 -4.027181
  H 2.237779 -1.284782 -3.207456
  H 3.173377 -2.779356 -2.972910
  H 2.848228 -1.321378 -5.637959
  H 1.930997 -2.738243 -5.139544
  H 3.666889 -2.863347 -5.388794
 22
 23.967664
  C 1.460779 0.718667 -0.186366
  C 2.469882 -0.175774 0.405053
  H 2.908256 0.071400 1.362845
  C 3.054841 -1.120603 -0.437928
  C 4.424933 -0.894798 -0.737436
  C 4.796115 -0.596659 -2.024057
  C 4.275731 -0.980238 -3.346025
  C 3.093584 -1.930027 -3.497839
  C 2.809933 -2.195568 -4.974779
  H 5.739711 -0.059206 -2.116906
  H 1.017225 1.414253 0.516084
  H 0.703000 0.188664 -0.761724
  H 2.076466 1.269786 -0.910410
  H 2.433391 -1.668621 -1.128133
  H 5.061859 -0.558302 0.071365
  H 5.139876 -1.432833 -3.850694
  H 4.082372 -0.064947 -3.920275
  H 2.195038 -1.488998 -3.058640
  H 3.306534 -2.880214 -3.007046
  H 2.621130 -1.269425 -5.509498
  H 1.934819 -2.834637 -5.085113
  H 3.650607 -2.696976 -5.448326
 22
 33.542040
  C 1.623884 0.687776 -0.374402
  C 2.489850 -0.225419 0.367824
  H 2.808361 0.020882 1.374600
  C 3.110348 -1.212283 -0.386327
  C 4.465338 -0.946080 -0.707462
  C 4.723308 -0.530577 -1.979107
  C 4.197054 -0.908815 -3.306651
  C 3.004908 -1.846111 -3.445514
  C 2.754162 -2.173889 -4.915621
  H 5.634682 0.055450 -2.082680
  H 1.150076 1.448641 0.235458
  H 0.912966 0.180855 -1.025865
  H 2.374219 1.145402 -1.050948
  H 2.509783 -1.803810 -1.071132
  H 5.110732 -0.602862 0.090634
  H 5.054201 -1.381903 -3.805872
  H 4.013632 0.006998 -3.884191
  H 2.101031 -1.373601 -3.054742
  H 3.192304 -2.773386 -2.902948
  H 2.483694 -1.281409 -5.473314
  H 1.940584 -2.888865 -5.012065
  H 3.639594 -2.606113 -5.374838
 22
 44.230599
  C 1.741872 0.663000 -0.551758
  C 2.486867 -0.238559 0.324098
  H 2.783903 0.085162 1.314881
  C 3.131992 -1.286987 -0.336761
  C 4.480754 -0.967729 -0.684219
  C 4.650857 -0.453360 -1.929495
  C 4.140468 -0.845632 -3.264748
  C 2.995185 -1.845621 -3.394312
  C 2.679877 -2.108189 -4.863849
  H 5.532738 0.168629 -2.026815
  H 1.320277 1.529619 -0.065667
  H 1.049072 0.176878 -1.239265
  H 2.585861 0.946886 -1.227428
  H 2.557827 -1.959932 -0.960822
  H 5.152997 -0.674240 0.112744
  H 5.017489 -1.270684 -3.769563
  H 3.886562 0.058903 -3.827905
  H 2.098989 -1.449077 -2.915986
  H 3.270118 -2.791623 -2.926722
  H 2.460746 -1.181695 -5.386532
  H 1.816755 -2.763248 -4.958599
  H 3.519920 -2.586205 -5.365788
 22
 59.574718
  C 1.949234 0.647254 -0.694193
  C 2.439588 -0.283605 0.304223
  H 2.620301 0.024038 1.325287
  C 3.147221 -1.345361 -0.297089
  C 4.478648 -0.971683 -0.654198
  C 4.538860 -0.371120 -1.870362
  C 4.054107 -0.779743 -3.224265
  C 2.968830 -1.840092 -3.357515
  C 2.613379 -2.061953 -4.826645
  H 5.427816 0.246705 -1.981574
  H 1.513241 1.567778 -0.336100
  H 1.381087 0.220278 -1.520442
  H 2.945809 0.776757 -1.276281
  H 2.594720 -2.007089 -0.954892
  H 5.153792 -0.654991 0.123531
  H 4.947186 -1.163488 -3.731076
  H 3.758051 0.118067 -3.776121
  H 2.049909 -1.529743 -2.855452
  H 3.308672 -2.786936 -2.932197
  H 2.200649 -1.154069 -5.267256
  H 1.874062 -2.852195 -4.922783
  H 3.494782 -2.356886 -5.396322
 22
 74.433893
  C 2.004986 0.598862 -0.684872
  C 2.406366 -0.271378 0.304197
  H 2.552979 0.033621 1.328714
  C 3.125815 -1.377027 -0.272921
  C 4.432681 -0.982561 -0.653978
  C 4.469695 -0.277085 -1.862903
  C 3.997610 -0.695660 -3.241207
  C 2.949776 -1.795076 -3.357253
  C 2.613458 -2.064058 -4.822509
  H 5.352204 0.350074 -1.951958
  H 1.644833 1.570072 -0.382750
  H 1.548494 0.236294 -1.599753
  H 3.326841 0.567254 -1.423960
  H 2.562781 -2.033399 -0.929044
  H 5.127925 -0.696682 0.124190
  H 4.896274 -1.044906 -3.759759
  H 3.657748 0.189293 -3.785066
  H 2.022760 -1.505057 -2.856604
  H 3.327700 -2.717454 -2.913240
  H 2.215722 -1.171585 -5.300355
  H 1.869653 -2.853057 -4.904363
  H 3.498246 -2.378344 -5.370841
 22
 59.932368
  C 1.855719 0.631022 -0.473249
  C 2.345021 -0.272060 0.368401
  H 2.521296 -0.068842 1.416391
  C 3.085546 -1.315964 -0.325829
  C 4.365060 -0.919259 -0.695315
  C 4.506912 -0.194329 -1.951917
  C 4.061519 -0.696618 -3.336021
  C 2.988799 -1.772574 -3.398492
  C 2.636259 -2.094141 -4.847913
  H 5.452589 0.329961 -2.034401
  H 1.499177 1.565806 -0.075488
  H 1.458198 0.387599 -1.444187
  H 3.689241 0.557129 -1.626571
  H 2.498658 -1.977472 -0.960978
  H 5.071789 -0.658354 0.086611
  H 4.960494 -1.093346 -3.825023
  H 3.745189 0.163812 -3.925052
  H 2.072585 -1.433508 -2.906693
  H 3.343183 -2.678815 -2.919262
  H 2.232087 -1.224457 -5.358443
  H 1.890473 -2.888014 -4.886659
  H 3.518987 -2.427782 -5.393916
 22
 47.624000
  C 1.627177 0.518907 -0.261388
  C 2.429180 -0.252403 0.472072
  H 2.766096 0.004421 1.464820
  C 3.122509 -1.244754 -0.329347
  C 4.378879 -0.847730 -0.765507
  C 4.542692 -0.132916 -2.043638
  C 4.139168 -0.712168 -3.405222
  C 2.932867 -1.640304 -3.459697
  C 2.694446 -2.128492 -4.887023
  H 5.520633 0.337647 -2.125078
  H 1.150175 1.387149 0.160437
  H 1.288025 0.233198 -1.244197
  H 3.805338 0.666921 -1.762249
  H 2.495761 -1.869883 -0.956070
  H 5.131396 -0.623047 -0.013353
  H 5.006638 -1.269400 -3.775711
  H 3.980794 0.122655 -4.087377
  H 2.032296 -1.114628 -3.130663
  H 3.101588 -2.509502 -2.825911
  H 2.474584 -1.294471 -5.551210
  H 1.854413 -2.818828 -4.918868
  H 3.572116 -2.647487 -5.269124
 22
 38.048224
  C 1.481969 0.571623 0.006584
  C 2.381578 -0.268485 0.527068
  H 2.786175 -0.152602 1.522257
  C 3.051192 -1.107707 -0.441136
  C 4.320532 -0.725618 -0.820704
  C 4.605568 -0.114962 -2.129271
  C 4.243310 -0.773459 -3.466702
  C 3.007064 -1.658744 -3.527908
  C 2.761760 -2.149492 -4.954291
  H 5.625684 0.258489 -2.179499
  H 1.063258 1.379551 0.582444
  H 1.061666 0.416471 -0.970581
  H 3.932598 0.756857 -1.966807
  H 2.431243 -1.743377 -1.062126
  H 5.023345 -0.471097 -0.031454
  H 5.104434 -1.377538 -3.760156
  H 4.142902 0.022756 -4.205321
  H 2.129014 -1.091786 -3.212399
  H 3.132653 -2.531286 -2.887290
  H 2.583674 -1.314481 -5.629008
  H 1.893753 -2.804247 -4.987618
  H 3.619650 -2.707968 -5.322772
 22
 29.551504
  C 1.292307 0.419711 0.174308
  C 2.407770 -0.226975 0.553284
  H 2.923540 0.006292 1.475757
  C 3.082824 -0.975050 -0.467615
  C 4.351656 -0.594103 -0.847454
  C 4.700519 -0.112859 -2.191079
  C 4.352595 -0.861418 -3.482264
  C 3.019252 -1.593490 -3.577005
  C 2.786573 -2.107084 -4.996863
  H 5.746283 0.192977 -2.234836
  H 0.787895 1.129672 0.807144
  H 0.852366 0.230050 -0.790283
  H 4.097621 0.819521 -2.148579
  H 2.451312 -1.547545 -1.136104
  H 5.048230 -0.318401 -0.060651
  H 5.151324 -1.596487 -3.636916
  H 4.411743 -0.141648 -4.298181
  H 2.202646 -0.911430 -3.328282
  H 3.005710 -2.448963 -2.901919
  H 2.765003 -1.285409 -5.710122
  H 1.838205 -2.636946 -5.059584
  H 3.577145 -2.794421 -5.292794
 22
 27.255670
  C 1.371977 0.578863 0.502748
  C 2.417869 -0.258203 0.646398
  H 3.084890 -0.185242 1.496770
  C 2.879660 -0.884519 -0.556552
  C 4.191986 -0.652225 -0.916538
  C 4.517757 -0.054175 -2.222667
  C 4.346342 -0.860936 -3.524527
  C 3.069743 -1.669129 -3.685096
  C 2.966997 -2.246214 -5.097187
  H 5.532782 0.341775 -2.199760
  H 1.139586 1.315394 1.250842
  H 0.748492 0.556889 -0.372652
  H 3.813902 0.794515 -2.262963
  H 2.141210 -1.172717 -1.296341
  H 4.931090 -0.551183 -0.129741
  H 5.198513 -1.544344 -3.572978
  H 4.429956 -0.160823 -4.356455
  H 2.199056 -1.028629 -3.525581
  H 3.050019 -2.490779 -2.971605
  H 2.913437 -1.455180 -5.841619
  H 2.074913 -2.860491 -5.191265
  H 3.832340 -2.866652 -5.323265
