 13
 0.000000
  H 1.424220 0.057495 0.116759
  C 2.505600 0.058804 0.093539
  C 3.186333 -0.016273 1.424121
  H 2.471612 -0.062377 2.241125
  C 3.136250 0.124932 -1.078361
  H 2.582423 0.177293 -2.006311
  C 4.573957 0.134112 -1.241008
  C 5.179845 0.200797 -2.422892
  H 6.252162 0.206642 -2.526458
  H 3.823799 0.855207 1.575580
  H 3.823805 -0.899255 1.476581
  H 5.177379 0.083574 -0.345336
  H 4.637603 0.253343 -3.354117
 13
 12.769261
  H 1.387158 0.056930 0.171921
  C 2.464657 0.059391 0.166003
  C 3.153221 -0.035750 1.478131
  H 2.441691 -0.064255 2.299155
  C 3.168750 0.129513 -1.146648
  H 2.594725 0.180129 -2.057602
  C 4.592438 0.138098 -1.292531
  C 5.206395 0.202793 -2.473690
  H 6.279456 0.208584 -2.564765
  H 3.785626 0.851566 1.638126
  H 3.806960 -0.895254 1.530912
  H 5.185739 0.089306 -0.389438
  H 4.664623 0.253130 -3.404208
 13
 38.484964
  H 1.341651 0.057469 0.203260
  C 2.412338 0.057922 0.233506
  C 3.151497 -0.030758 1.504312
  H 2.458809 -0.066692 2.343637
  C 3.182839 0.134023 -1.224187
  H 2.559804 0.180913 -2.096765
  C 4.584885 0.140793 -1.321600
  C 5.230342 0.203036 -2.484214
  H 6.303886 0.207439 -2.540453
  H 3.787605 0.848619 1.641226
  H 3.817047 -0.902193 1.528996
  H 5.153442 0.092884 -0.401991
  H 4.703818 0.251854 -3.421625
 13
 66.935343
  H 1.299218 0.054619 0.244617
  C 2.361554 0.054600 0.310272
  C 3.136653 -0.024848 1.544363
  H 2.466331 -0.081215 2.404699
  C 3.192831 0.136672 -1.295336
  H 2.519600 0.180338 -2.124179
  C 4.584891 0.143277 -1.361347
  C 5.269191 0.204791 -2.520768
  H 6.342989 0.208085 -2.544265
  H 3.782337 0.852642 1.665752
  H 3.793317 -0.903065 1.547447
  H 5.135100 0.096035 -0.426634
  H 4.761583 0.252807 -3.467450
 13
 95.396152
  H 1.247817 0.050941 0.309708
  C 2.317465 0.050551 0.383803
  C 3.103191 -0.028354 1.616967
  H 2.440737 -0.085866 2.481087
  C 3.221437 0.140130 -1.363399
  H 2.538513 0.183811 -2.186542
  C 4.604207 0.146260 -1.418940
  C 5.300509 0.207873 -2.575738
  H 6.376066 0.210329 -2.588888
  H 3.748635 0.847085 1.734079
  H 3.759824 -0.905397 1.616601
  H 5.145220 0.098597 -0.484054
  H 4.799693 0.256510 -3.528210
 13
 120.564104
  H 1.198072 0.047693 0.362767
  C 2.267008 0.046843 0.455296
  C 3.088770 -0.029722 1.659317
  H 2.459032 -0.091033 2.547090
  C 3.232342 0.143597 -1.439336
  H 2.516256 0.186034 -2.227272
  C 4.595709 0.148306 -1.459138
  C 5.332925 0.209529 -2.603014
  H 6.409715 0.209162 -2.578197
  H 3.737880 0.845053 1.754089
  H 3.747039 -0.904697 1.637236
  H 5.113674 0.099443 -0.513600
  H 4.859182 0.259448 -3.571458
 13
 142.136882
  H 1.160116 0.042964 0.444440
  C 2.223739 0.042603 0.535538
  C 3.050221 -0.033199 1.724542
  H 2.428939 -0.095685 2.621575
  C 3.254949 0.146642 -1.504163
  H 2.528464 0.189058 -2.284244
  C 4.619341 0.151291 -1.516467
  C 5.365490 0.212527 -2.656290
  H 6.438492 0.211320 -2.622644
  H 3.700080 0.842201 1.811837
  H 3.709076 -0.907954 1.694551
  H 5.134941 0.101853 -0.565030
  H 4.900665 0.262556 -3.624143
 13
 159.942044
  H 1.113391 0.038670 0.517393
  C 2.179764 0.038890 0.610499
  C 3.016088 -0.037132 1.794688
  H 2.404778 -0.100968 2.702012
  C 3.279152 0.149677 -1.573119
  H 2.542700 0.192040 -2.341467
  C 4.635094 0.154342 -1.572852
  C 5.396863 0.215541 -2.707008
  H 6.470422 0.212815 -2.658556
  H 3.668173 0.839848 1.875081
  H 3.676384 -0.911869 1.756960
  H 5.142421 0.104340 -0.617138
  H 4.943029 0.265887 -3.681073
 13
 173.989523
  H 1.070991 0.033875 0.598851
  C 2.137964 0.035586 0.688944
  C 2.979356 -0.040858 1.864298
  H 2.380968 -0.106052 2.779750
  C 3.301732 0.152122 -1.640536
  H 2.553286 0.194729 -2.396228
  C 4.652671 0.157642 -1.629132
  C 5.429574 0.218859 -2.757120
  H 6.501269 0.213851 -2.693929
  H 3.631382 0.835168 1.936845
  H 3.639782 -0.913841 1.817686
  H 5.152493 0.106988 -0.669779
  H 4.987646 0.269119 -3.735552
 13
 184.621180
  H 1.027632 0.028466 0.681230
  C 2.096852 0.033930 0.765480
  C 2.942268 -0.044643 1.938052
  H 2.355016 -0.112842 2.863860
  C 3.324537 0.153142 -1.710216
  H 2.564573 0.197055 -2.452046
  C 4.668380 0.161609 -1.686642
  C 5.461982 0.223229 -2.807273
  H 6.532515 0.213405 -2.727671
  H 3.595512 0.831853 2.004196
  H 3.603562 -0.916403 1.881687
  H 5.160019 0.109572 -0.722173
  H 5.033151 0.272751 -3.791213
 13
 191.505131
  H 0.985639 0.019667 0.788626
  C 2.063633 0.033134 0.847493
  C 2.889035 -0.050084 2.027722
  H 2.310813 -0.121835 2.963715
  C 3.354921 0.152726 -1.774649
  H 2.593031 0.201045 -2.515837
  C 4.695685 0.168490 -1.752251
  C 5.497143 0.229797 -2.872257
  H 6.567480 0.210223 -2.787651
  H 3.540228 0.823864 2.088697
  H 3.549531 -0.914684 1.961635
  H 5.186492 0.114658 -0.786968
  H 5.074649 0.275867 -3.858514
 13
 190.629612
  H 0.973156 -0.001716 0.984837
  C 2.062046 0.031649 0.914307
  C 2.791870 -0.055657 2.164031
  H 2.225302 -0.138392 3.101834
  C 3.393057 0.153361 -1.865728
  H 2.627016 0.212866 -2.595056
  C 4.735734 0.196958 -1.850586
  C 5.552206 0.244580 -2.970511
  H 6.618658 0.188903 -2.878093
  H 3.446963 0.806870 2.209679
  H 3.449812 -0.915942 2.073861
  H 5.229658 0.145916 -0.883931
  H 5.133074 0.261035 -3.957651
 13
 132.498081
  H 1.239963 -0.003365 0.414055
  C 2.270209 0.152726 0.407545
  C 3.094701 -0.005130 1.601887
  H 2.488830 -0.192002 2.532904
  C 3.197321 0.107798 -1.415371
  H 2.465257 0.210301 -2.168797
  C 4.489907 0.235694 -1.396901
  C 5.265615 0.231999 -2.505784
  H 6.279791 0.134974 -2.428451
  H 3.804353 0.836939 1.765419
  H 3.766797 -0.887738 1.434194
  H 5.026219 0.241431 -0.381453
  H 4.849589 0.066802 -3.412252
