26

C 0.994437 0.133298 0.382879
C 2.472702 0.140207 0.399509
C 3.239809 0.613642 1.577872
C 2.445057 1.09927 2.787195
C 3.378246 1.549122 3.906753
C 3.095926 -0.322279 -0.752303
C 4.473044 -0.413035 -0.978896
C 5.130778 -0.867753 -2.111886
C 4.618513 -1.388859 -3.410512
H 3.569885833464074 -1.4678420414532223 -3.608104370211082
O 6.456599 -0.869907 -2.117309
H 0.545957 0.501101 1.298818
H 0.630125 -0.880999 0.213753
H 0.629755 0.748707 -0.440773
H 3.895876 1.429168 1.252386
H 3.896164 -0.200225 1.906868
H 1.806416 0.298954 3.166309
H 1.806163 1.939299 2.50745
H 4.014312 0.73076 4.238059
H 2.800123 1.89239 4.761648
H 4.014009 2.369474 3.579813
H 2.436529 -0.639703 -1.542429
H 5.101076 -0.083766 -0.158858
H 5.068801 -2.379681 -3.540576
H 5.069283 -0.763175 -4.189459
H 6.839914 -0.536228 -1.284745
