 21
 0.000000
  H 1.486694 0.056340 0.137270
  C 2.558172 0.063423 0.011700
  C 3.364349 -0.008095 1.279211
  C 2.500738 -0.079082 2.537186
  C 3.352718 -0.150371 3.800621
  C 3.100739 0.131262 -1.190536
  C 2.376848 0.205294 -2.502566
  C 0.853391 0.200685 -2.420807
  H 0.426588 0.257089 -3.420430
  H 4.179595 0.136805 -1.288756
  H 4.016463 0.869124 1.345476
  H 4.016460 -0.887191 1.246375
  H 1.857506 -0.961607 2.490015
  H 1.857509 0.803134 2.589591
  H 3.988526 -1.033551 3.785685
  H 2.720146 -0.200282 4.685143
  H 3.988519 0.728877 3.885131
  H 2.702474 -0.638287 -3.123367
  H 2.702476 1.113358 -3.024526
  H 0.495458 1.053899 -1.848031
  H 0.495453 -0.711553 -1.947645
 21
 7.097514
  H 1.515007 0.057711 0.112979
  C 2.585356 0.065678 -0.028261
  C 3.407846 -0.004918 1.222907
  C 2.466731 -0.083792 2.620636
  C 3.331990 -0.154220 3.868833
  C 3.110597 0.134036 -1.239688
  C 2.367559 0.207365 -2.539262
  C 0.847733 0.201263 -2.431062
  H 0.403973 0.257219 -3.422785
  H 4.188578 0.140473 -1.353748
  H 4.056783 0.871083 1.286242
  H 4.056783 -0.882478 1.187295
  H 1.826437 -0.964838 2.574876
  H 1.826435 0.796803 2.674277
  H 3.968063 -1.036781 3.846108
  H 2.709859 -0.204511 4.760071
  H 3.968056 0.725290 3.945535
  H 2.683889 -0.635584 -3.164409
  H 2.683890 1.115288 -3.065612
  H 0.499332 1.053802 -1.852335
  H 0.499331 -0.710969 -1.951913
 21
 22.096095
  H nan nan nan
  C nan nan nan
  C nan nan nan
  C nan nan nan
  C nan nan nan
  C nan nan nan
  C nan nan nan
  C nan nan nan
  H nan nan nan
  H nan nan nan
  H nan nan nan
  H nan nan nan
  H nan nan nan
  H nan nan nan
  H nan nan nan
  H nan nan nan
  H nan nan nan
  H nan nan nan
  H nan nan nan
  H nan nan nan
  H nan nan nan
