 20
 0.000000
  C 0.993291 0.155352 0.437591
  C 2.456031 0.124498 0.360537
  H 3.040074 0.463108 1.203354
  C 3.056842 -0.337754 -0.790502
  C 4.436401 -0.417688 -0.990363
  C 5.128300 -0.869263 -2.115859
  C 4.635258 -1.391187 -3.416682
  C 3.148472 -1.509188 -3.711261
  H 3.021463 -1.910872 -4.712445
  O 6.443031 -0.859963 -2.093013
  H 0.629507 0.536605 1.386988
  H 0.588093 -0.846384 0.281819
  H 0.587885 0.771090 -0.367695
  H 2.397411 -0.655396 -1.580841
  H 5.053299 -0.084788 -0.161587
  H 5.101494 -2.375607 -3.539811
  H 5.101843 -0.765217 -4.186173
  H 2.661927 -0.538214 -3.679265
  H 2.661730 -2.188683 -3.017086
  H 6.834289 -0.527662 -1.262610
 20
 11.314496
  C 1.088591 0.230857 0.624702
  C 2.505115 0.065293 0.214455
  H 3.226477 0.364730 0.963193
  C 2.840614 -0.414157 -0.981008
  C 4.188077 -0.430755 -1.021677
  C 5.051906 -0.860558 -2.094041
  C 4.699441 -1.397265 -3.431575
  C 3.250175 -1.563531 -3.844877
  H 3.227576 -1.968274 -4.853978
  O 6.343698 -0.792680 -1.927898
  H 0.994730 0.633671 1.630576
  H 0.577986 -0.735758 0.564020
  H 0.579875 0.889738 -0.086558
  H 2.139001 -0.720950 -1.747690
  H 4.746375 -0.085126 -0.157854
  H 5.213973 -2.361143 -3.513234
  H 5.213495 -0.756847 -4.156898
  H 2.728616 -0.610381 -3.864153
  H 2.729120 -2.266036 -3.200054
  H 6.642148 -0.446379 -1.066123
 20
 46.497010
  C 1.127708 0.263986 0.706541
  C 2.574526 0.027477 0.121479
  H 3.299294 0.319250 0.856367
  C 2.730225 -0.455433 -1.086091
  C 4.053739 -0.426279 -1.010494
  C 5.012735 -0.856603 -2.086237
  C 4.729311 -1.398854 -3.435595
  C 3.305210 -1.586120 -3.899098
  H 3.322861 -1.991629 -4.907146
  O 6.292033 -0.758982 -1.848294
  H 1.167228 0.663238 1.708749
  H 0.581427 -0.681989 0.702132
  H 0.585605 0.950253 0.052017
  H 2.017860 -0.748283 -1.822522
  H 4.642747 -0.093904 -0.173179
  H 5.259013 -2.353574 -3.497477
  H 5.258215 -0.751916 -4.141203
  H 2.773370 -0.640339 -3.936903
  H 2.774339 -2.294946 -3.271177
  H 6.541049 -0.404604 -0.966800
 20
 94.754709
  C 1.132804 0.275873 0.734050
  C 2.645858 0.006443 0.069720
  H 3.301454 0.313942 0.847518
  C 2.678010 -0.478579 -1.141506
  C 3.984284 -0.406806 -0.961338
  C 5.015677 -0.856453 -2.086851
  C 4.746461 -1.400226 -3.439627
  C 3.324282 -1.590368 -3.908855
  H 3.348164 -1.999917 -4.925772
  O 6.280476 -0.747595 -1.821654
  H 1.223454 0.670264 1.727505
  H 0.595894 -0.669273 0.745298
  H 0.601411 0.974280 0.093047
  H 1.958778 -0.767807 -1.870030
  H 4.654493 -0.094685 -0.169968
  H 5.278699 -2.351070 -3.498824
  H 5.277792 -0.754149 -4.141108
  H 2.788042 -0.639059 -3.949960
  H 2.789687 -2.305162 -3.278851
  H 6.512436 -0.389829 -0.933898
 20
 142.099439
  C 1.097838 0.294383 0.766330
  C 2.703975 -0.000854 0.052246
  H 3.277538 0.329071 0.885179
  C 2.643270 -0.500730 -1.159857
  C 3.940889 -0.383615 -0.901440
  C 5.045747 -0.865413 -2.115117
  C 4.777940 -1.407676 -3.463656
  C 3.343171 -1.591407 -3.917411
  H 3.351311 -1.999094 -4.932502
  O 6.306547 -0.750713 -1.827757
  H 1.207211 0.689864 1.761247
  H 0.580789 -0.657085 0.777236
  H 0.583630 0.996088 0.121413
  H 1.918181 -0.789171 -1.872958
  H 4.695928 -0.104882 -0.181996
  H 5.307458 -2.366719 -3.528053
  H 5.305904 -0.758082 -4.173439
  H 2.813636 -0.641883 -3.949809
  H 2.815911 -2.300680 -3.283763
  H 6.520639 -0.391428 -0.940137
 20
 180.834688
  C 1.027264 0.325783 0.823350
  C 2.732082 0.011015 0.083495
  H 3.250843 0.363106 0.953950
  C 2.609715 -0.510655 -1.130555
  C 3.902834 -0.351132 -0.812939
  C 5.102552 -0.887659 -2.173389
  C 4.832605 -1.429098 -3.524391
  C 3.387597 -1.602099 -3.954117
  H 3.367808 -2.001599 -4.957473
  O 6.356927 -0.769924 -1.870225
  H 1.146690 0.724239 1.822997
  H 0.538929 -0.628881 0.823853
  H 0.531749 1.013518 0.166284
  H 1.884965 -0.806587 -1.844251
  H 4.706892 -0.099807 -0.163157
  H 5.340134 -2.388920 -3.602789
  H 5.338180 -0.783907 -4.242222
  H 2.863397 -0.642483 -3.966847
  H 2.866556 -2.310970 -3.303873
  H 6.545685 -0.411371 -0.980792
 20
 163.516021
  C 0.814301 0.478965 0.890111
  C 2.316628 0.270899 0.702269
  H 2.790704 0.594990 1.619322
  C 2.514250 -0.394558 -0.692064
  C 3.631062 -0.124936 -0.173040
  C 5.483458 -1.109285 -2.547530
  C 5.046868 -1.598536 -3.898572
  C 3.533394 -1.619779 -4.059384
  H 3.263185 -1.993243 -5.044331
  O 6.807249 -1.117592 -2.488143
  H 0.629723 0.884876 1.876979
  H 0.301059 -0.473566 0.770430
  H 0.430374 1.169814 0.136860
  H 1.876156 -0.770565 -1.460392
  H 4.641964 -0.114938 0.168946
  H 5.455868 -2.606452 -4.045479
  H 5.515663 -0.983711 -4.675512
  H 3.133837 -0.613629 -3.956958
  H 3.088339 -2.264620 -3.307382
  H 7.141407 -0.785053 -1.634043
 20
 146.998570
  C 0.817143 0.558881 0.639220
  C 2.251703 0.156121 0.708458
  H 2.728651 0.295384 1.665614
  C 2.610017 -0.650787 -0.487128
  C 3.768781 -0.235090 -0.132533
  C 5.574911 -1.051283 -2.566497
  C 4.977020 -1.516892 -3.847556
  C 3.453365 -1.570554 -3.822675
  H 3.080577 -1.920162 -4.782302
  O 6.871467 -1.014083 -2.630388
  H 0.486389 0.942367 1.598612
  H 0.215948 -0.294261 0.333794
  H 0.642535 1.334850 -0.113048
  H 1.979383 -1.103838 -1.218032
  H 4.801400 -0.152014 0.083209
  H 5.389502 -2.502588 -4.083819
  H 5.324710 -0.852981 -4.645644
  H 3.043195 -0.583872 -3.631997
  H 3.119794 -2.266598 -3.058896
  H 7.290333 -0.697799 -1.802823
