 22
 0.000000
  C 0.931674 0.047987 0.295404
  C 2.418003 0.057390 0.062032
  C 3.237435 -0.012492 1.329577
  H 2.601060 -0.065607 2.205648
  C 3.003453 0.127449 -1.149400
  C 2.352267 0.205599 -2.515757
  C 0.839016 0.214707 -2.697659
  H 0.622904 0.275747 -3.761460
  C 4.464730 0.132875 -1.237354
  C 5.208991 0.196514 -2.337181
  H 6.284111 0.193706 -2.281553
  H 0.709671 -0.015881 1.357689
  H 0.459616 -0.806003 -0.183129
  H 0.471175 0.958974 -0.078017
  H 3.875329 0.865442 1.430852
  H 3.882641 -0.890893 1.329833
  H 2.741994 -0.641145 -3.091171
  H 2.740635 1.113358 -2.990106
  H 0.379397 1.071965 -2.216447
  H 0.381223 -0.693119 -2.318099
  H 4.997707 0.079126 -0.300400
  H 4.819879 0.254156 -3.338416
 22
 4.115591
  C 0.940239 0.027372 0.309344
  C 2.403130 0.055397 0.067602
  C 3.239810 -0.019987 1.331786
  H 2.603010 -0.053592 2.209602
  C 2.990203 0.127655 -1.145291
  C 2.338900 0.205110 -2.515334
  C 0.825023 0.201190 -2.705111
  H 0.617710 0.263081 -3.772830
  C 4.450800 0.143993 -1.229899
  C 5.198822 0.211828 -2.329023
  H 6.273901 0.212237 -2.258742
  H 0.689398 -0.001469 1.361094
  H 0.422800 -0.779892 -0.190384
  H 0.699231 0.965610 -0.110789
  H 3.893150 0.845161 1.429588
  H 3.862428 -0.913069 1.339527
  H 2.737311 -0.637405 -3.090659
  H 2.722794 1.117436 -2.984847
  H 0.348931 1.052747 -2.230361
  H 0.373196 -0.713164 -2.336433
  H 4.978373 0.091729 -0.290193
  H 4.805694 0.267570 -3.328650
 22
 11.471535
  C 0.933891 0.044621 0.288595
  C 2.400760 0.047041 0.065779
  C 3.216417 -0.046539 1.335223
  H 2.559322 -0.044610 2.207621
  C 2.996580 0.123576 -1.141265
  C 2.334713 0.202550 -2.499245
  C 0.821580 0.155135 -2.666392
  H 0.596695 0.226713 -3.734722
  C 4.463605 0.158897 -1.238111
  C 5.200076 0.240028 -2.340220
  H 6.279021 0.251694 -2.276886
  H 0.649551 0.037028 1.321104
  H 0.371762 -0.679460 -0.266886
  H 0.934982 1.024099 -0.142235
  H 3.903341 0.790281 1.438691
  H 3.795654 -0.969553 1.359212
  H 2.746845 -0.620649 -3.087497
  H 2.687886 1.128982 -2.960142
  H 0.322765 0.982262 -2.170998
  H 0.405959 -0.782783 -2.307804
  H 4.999135 0.104843 -0.308875
  H 4.797142 0.297805 -3.335449
 22
 21.294181
  C 0.914929 0.052800 0.312624
  C 2.395181 0.043878 0.070328
  C 3.223199 -0.049788 1.335026
  H 2.577085 -0.027772 2.211395
  C 2.989003 0.121396 -1.139326
  C 2.332056 0.206343 -2.506146
  C 0.820853 0.129516 -2.689281
  H 0.605529 0.214774 -3.754801
  C 4.445126 0.157964 -1.229446
  C 5.185763 0.251450 -2.334065
  H 6.260014 0.265599 -2.269635
  H 0.629079 0.046263 1.352948
  H 0.307915 -0.613032 -0.277864
  H 1.101158 1.022029 -0.102089
  H 3.929783 0.774615 1.425139
  H 3.783503 -0.985361 1.359477
  H 2.765345 -0.602332 -3.103337
  H 2.671783 1.147235 -2.953493
  H 0.297768 0.934753 -2.184372
  H 0.425136 -0.824316 -2.353360
  H 4.980096 0.094832 -0.294149
  H 4.783639 0.318293 -3.329419
 22
 31.512755
  C 0.906679 0.034597 0.324055
  C 2.392103 0.047018 0.062909
  C 3.218414 -0.043492 1.333144
  H 2.573578 -0.010933 2.206379
  C 2.988117 0.123444 -1.147809
  C 2.328267 0.208918 -2.514750
  C 0.813496 0.126677 -2.689899
  H 0.591016 0.214035 -3.754715
  C 4.443989 0.160510 -1.229717
  C 5.192383 0.256181 -2.327865
  H 6.269673 0.268764 -2.254886
  H 0.611001 0.036118 1.359873
  H 0.278230 -0.604189 -0.268237
  H 1.224515 1.000921 -0.105305
  H 3.932090 0.775072 1.418906
  H 3.770026 -0.981287 1.364157
  H 2.762329 -0.596789 -3.115428
  H 2.663088 1.152242 -2.961878
  H 0.288956 0.930400 -2.177997
  H 0.423706 -0.830195 -2.354181
  H 4.972546 0.095128 -0.290287
  H 4.797684 0.325808 -3.326031
 22
 40.163294
  C 0.900613 0.021573 0.332401
  C 2.378575 0.052642 0.062655
  C 3.203454 -0.030923 1.335029
  H 2.554341 0.003764 2.210793
  C 2.992505 0.123786 -1.148216
  C 2.339504 0.209170 -2.513951
  C 0.828021 0.120046 -2.687200
  H 0.601469 0.211608 -3.751954
  C 4.434807 0.157335 -1.231765
  C 5.174215 0.258847 -2.336833
  H 6.249717 0.266816 -2.273326
  H 0.619858 0.016184 1.363178
  H 0.260348 -0.564096 -0.295382
  H 1.316542 0.976394 -0.060345
  H 3.921671 0.787901 1.422355
  H 3.749540 -0.973604 1.364665
  H 2.778848 -0.591738 -3.118991
  H 2.669893 1.155122 -2.959131
  H 0.303257 0.916312 -2.171416
  H 0.447624 -0.838760 -2.357326
  H 4.973230 0.082655 -0.295015
  H 4.767618 0.338372 -3.333259
 22
 46.369075
  C 0.895853 0.008833 0.344437
  C 2.371335 0.054730 0.057766
  C 3.199165 -0.015160 1.324162
  H 2.563342 0.027735 2.196859
  C 2.988120 0.120410 -1.152395
  C 2.329822 0.208116 -2.526543
  C 0.808762 0.111060 -2.697008
  H 0.576997 0.210328 -3.760086
  C 4.450480 0.151034 -1.228124
  C 5.197740 0.259787 -2.323099
  H 6.274281 0.265362 -2.249959
  H 0.626962 -0.032632 1.386994
  H 0.235075 -0.507320 -0.320447
  H 1.394963 0.967818 0.003311
  H 3.916498 0.799250 1.398334
  H 3.740227 -0.954131 1.357635
  H 2.773779 -0.588271 -3.137665
  H 2.653996 1.161521 -2.968982
  H 0.277925 0.907149 -2.168593
  H 0.433024 -0.858606 -2.372733
  H 4.986617 0.064042 -0.287637
  H 4.803327 0.349952 -3.312667
 22
 50.945721
  C 0.887061 -0.001700 0.355628
  C 2.363278 0.058738 0.054487
  C 3.199803 -0.005150 1.326663
  H 2.566385 0.047155 2.207081
  C 2.985386 0.118577 -1.160570
  C 2.338372 0.206070 -2.526972
  C 0.826931 0.105707 -2.701211
  H 0.598191 0.209995 -3.762726
  C 4.430651 0.148400 -1.229964
  C 5.183909 0.262679 -2.325900
  H 6.262562 0.267070 -2.248422
  H 0.626441 -0.070622 1.390865
  H 0.209471 -0.458630 -0.330438
  H 1.455168 0.963546 0.051786
  H 3.921144 0.805742 1.389930
  H 3.739593 -0.949492 1.365276
  H 2.786043 -0.584687 -3.136627
  H 2.659349 1.158689 -2.964302
  H 0.295961 0.895499 -2.172041
  H 0.454335 -0.865383 -2.383553
  H 4.959029 0.054273 -0.296437
  H 4.787307 0.360493 -3.328660
 22
 54.534155
  C 0.890671 -0.017510 0.362268
  C 2.362787 0.064688 0.053638
  C 3.197995 0.008184 1.318396
  H 2.556878 0.065988 2.209507
  C 2.987527 0.116994 -1.166858
  C 2.331827 0.203148 -2.535461
  C 0.820132 0.106407 -2.700066
  H 0.582850 0.210739 -3.762913
  C 4.438176 0.145800 -1.230743
  C 5.200336 0.265567 -2.320368
  H 6.260771 0.264390 -2.235740
  H 0.634769 -0.116380 1.391336
  H 0.193685 -0.419178 -0.349338
  H 1.506956 0.951843 0.094146
  H 3.918685 0.821695 1.373586
  H 3.740465 -0.938535 1.360579
  H 2.774896 -0.591739 -3.147919
  H 2.650870 1.155414 -2.977771
  H 0.300571 0.892156 -2.173029
  H 0.448280 -0.860773 -2.379012
  H 4.967292 0.044784 -0.285667
  H 4.818939 0.372348 -3.311377
 22
 57.482288
  C 0.892298 -0.033905 0.351948
  C 2.365041 0.071952 0.055788
  C 3.200774 0.018399 1.342094
  H 2.558834 0.076436 2.222782
  C 2.995676 0.117850 -1.164732
  C 2.335494 0.201662 -2.542365
  C 0.817381 0.107513 -2.702507
  H 0.575562 0.209299 -3.766825
  C 4.440282 0.144930 -1.229127
  C 5.198265 0.266459 -2.320992
  H 6.280104 0.258983 -2.238820
  H 0.624028 -0.155365 1.374721
  H 0.199890 -0.384511 -0.378368
  H 1.548525 0.941766 0.118436
  H 3.916429 0.830558 1.401275
  H 3.745315 -0.924010 1.393083
  H 2.774959 -0.593882 -3.152792
  H 2.654185 1.150123 -2.989204
  H 0.297338 0.904091 -2.171157
  H 0.442199 -0.861956 -2.374959
  H 4.969371 0.039699 -0.293171
  H 4.803578 0.381194 -3.329534
 22
 59.978834
  C 0.890559 -0.054894 0.368998
  C 2.363593 0.078121 0.061662
  C 3.191216 0.029892 1.323879
  H 2.554155 0.087391 2.198753
  C 2.996022 0.118987 -1.166933
  C 2.345708 0.201643 -2.534177
  C 0.839616 0.114100 -2.700319
  H 0.606619 0.214468 -3.761454
  C 4.432667 0.144875 -1.232039
  C 5.191141 0.265333 -2.328026
  H 6.257983 0.256077 -2.250216
  H 0.625980 -0.186349 1.397561
  H 0.185076 -0.374130 -0.371386
  H 1.575207 0.932820 0.144057
  H 3.898770 0.841978 1.376622
  H 3.736468 -0.905912 1.373601
  H 2.783390 -0.592447 -3.137812
  H 2.668453 1.143302 -2.979892
  H 0.320896 0.915971 -2.173691
  H 0.458394 -0.855064 -2.372574
  H 4.962831 0.036784 -0.295225
  H 4.801860 0.377843 -3.318391
 22
 62.313473
  C 0.889576 -0.074796 0.372309
  C 2.357788 0.082211 0.060234
  C 3.206838 0.035568 1.331355
  H 2.578098 0.094652 2.211752
  C 2.990238 0.115015 -1.170348
  C 2.335013 0.197854 -2.544691
  C 0.828709 0.119203 -2.711332
  H 0.596074 0.218523 -3.776921
  C 4.432130 0.137893 -1.227570
  C 5.202197 0.260500 -2.315559
  H 6.283621 0.269245 -2.224511
  H 0.627801 -0.205893 1.391815
  H 0.177659 -0.363970 -0.371823
  H 1.596957 0.924061 0.150722
  H 3.929083 0.862706 1.376866
  H 3.749588 -0.895994 1.380242
  H 2.763839 -0.592861 -3.141760
  H 2.661937 1.133006 -2.993538
  H 0.313751 0.929715 -2.184896
  H 0.443049 -0.844669 -2.382700
  H 4.953561 0.032988 -0.289996
  H 4.826003 0.381684 -3.297742
 22
 64.326531
  C 0.892175 -0.101971 0.370939
  C 2.361485 0.090607 0.065201
  C 3.198227 0.049399 1.331635
  H 2.565617 0.104081 2.203363
  C 3.002629 0.120768 -1.166668
  C 2.346184 0.204321 -2.537900
  C 0.835743 0.128366 -2.700645
  H 0.601078 0.229421 -3.759677
  C 4.441319 0.148278 -1.227462
  C 5.207157 0.263191 -2.319690
  H 6.281825 0.241878 -2.236911
  H 0.620018 -0.227361 1.396422
  H 0.181282 -0.368965 -0.383114
  H 1.614767 0.917433 0.152729
  H 3.905899 0.873952 1.379183
  H 3.747507 -0.877934 1.384960
  H 2.775028 -0.591222 -3.140680
  H 2.674492 1.143432 -2.989545
  H 0.326094 0.936336 -2.172759
  H 0.450087 -0.833572 -2.373195
  H 4.966584 0.039918 -0.295849
  H 4.820994 0.370815 -3.316479
 22
 66.123340
  C 0.889597 -0.127330 0.370701
  C 2.362350 0.094764 0.063091
  C 3.208715 0.061196 1.337824
  H 2.575938 0.121935 2.215386
  C 3.000077 0.112040 -1.175414
  C 2.350297 0.198839 -2.541685
  C 0.839329 0.141200 -2.705294
  H 0.607145 0.245922 -3.761196
  C 4.433612 0.133782 -1.229745
  C 5.204138 0.255614 -2.320385
  H 6.274693 0.263530 -2.229579
  H 0.614863 -0.235466 1.395801
  H 0.182296 -0.370688 -0.374849
  H 1.631649 0.915736 0.146036
  H 3.909584 0.883146 1.377248
  H 3.767859 -0.876675 1.396922
  H 2.773641 -0.608755 -3.145225
  H 2.692072 1.135391 -2.993671
  H 0.338547 0.954522 -2.178109
  H 0.437090 -0.824105 -2.376413
  H 4.958372 0.036248 -0.285801
  H 4.825284 0.385110 -3.309381
