 20
 0.000000
  H 1.506019 0.145556 0.413359
  C 2.587574 0.134001 0.386136
  C 3.277252 0.618376 1.589985
  C 2.333993 1.063424 2.695413
  H 2.896880 1.410701 3.559627
  C 3.188408 -0.329032 -0.764649
  C 4.571963 -0.406221 -0.954926
  C 5.208885 -0.867443 -2.108793
  C 4.524801 -1.352920 -3.321876
  H 3.447100 -1.323444 -3.247833
  O 6.511431 -0.897306 -2.186004
  H 3.940045 1.445900 1.321302
  H 3.939689 -0.164772 1.969488
  H 1.695276 0.242060 3.014962
  H 1.696002 1.877892 2.357048
  H 2.536072 -0.648965 -1.563344
  H 5.207095 -0.081926 -0.142165
  H 4.851493 -2.371005 -3.530630
  H 4.851347 -0.759889 -4.175219
  H 6.990999 -0.577261 -1.391691
 20
 13.619762
  H 1.459066 0.170423 0.474948
  C 2.537301 0.158158 0.445773
  C 3.241845 0.633313 1.626931
  C 2.317080 1.084489 2.748188
  H 2.894966 1.427437 3.601832
  C 3.182437 -0.348274 -0.813118
  C 4.555745 -0.422755 -0.996791
  C 5.186159 -0.881272 -2.143266
  C 4.536488 -1.368565 -3.360472
  H 3.456943 -1.346431 -3.304892
  O 6.625617 -0.907738 -2.211741
  H 3.909090 1.458023 1.345946
  H 3.908912 -0.156336 1.995395
  H 1.678865 0.268103 3.077885
  H 1.679493 1.902333 2.420845
  H 2.521710 -0.664285 -1.601863
  H 5.190170 -0.097286 -0.181648
  H 4.875501 -2.385431 -3.563765
  H 4.875432 -0.772836 -4.209279
  H 7.072804 -0.585899 -1.413023
 20
 41.192288
  H 1.392364 0.171513 0.486234
  C 2.464370 0.171155 0.484165
  C 3.213250 0.626868 1.610501
  C 2.359946 1.097400 2.776217
  H 2.988377 1.428054 3.593721
  C 3.130341 -0.366954 -0.851386
  C 4.501766 -0.426885 -1.002146
  C 5.097900 -0.883147 -2.147397
  C 4.568091 -1.378582 -3.391112
  H 3.484814 -1.379105 -3.393375
  O 6.715562 -0.888501 -2.162348
  H 3.897751 1.430978 1.295183
  H 3.899230 -0.169561 1.941789
  H 1.723136 0.296182 3.140292
  H 1.722812 1.926328 2.481713
  H 2.435515 -0.671383 -1.608121
  H 5.131431 -0.100069 -0.183733
  H 4.943711 -2.385557 -3.575979
  H 4.942790 -0.773075 -4.217433
  H 7.033730 -0.550435 -1.314548
 20
 74.729057
  H 1.339743 0.190100 0.528726
  C 2.416975 0.192149 0.533681
  C 3.181837 0.643728 1.652698
  C 2.342917 1.119099 2.831957
  H 2.985990 1.447121 3.645420
  C 3.120660 -0.382786 -0.894482
  C 4.488865 -0.441580 -1.041020
  C 5.073657 -0.899507 -2.188016
  C 4.576295 -1.396259 -3.432326
  H 3.490905 -1.403180 -3.450555
  O 6.845435 -0.899355 -2.190808
  H 3.867244 1.442351 1.329590
  H 3.867957 -0.155037 1.973583
  H 1.705196 0.319741 3.203950
  H 1.705416 1.953223 2.545436
  H 2.414234 -0.683314 -1.642818
  H 5.118370 -0.115814 -0.225065
  H 4.963447 -2.401864 -3.610630
  H 4.962430 -0.788723 -4.253900
  H 7.131781 -0.555836 -1.333166
 20
 98.573787
  H 1.351767 0.148186 0.485992
  C 2.429931 0.138468 0.486254
  C 3.201386 0.623616 1.606110
  C 2.379368 1.133313 2.775101
  H 3.023971 1.477454 3.576358
  C 3.003546 -0.401764 -0.753832
  C 4.388627 -0.485636 -0.975482
  C 4.855710 -0.895695 -2.153022
  C 4.528192 -1.356428 -3.447439
  H 3.441799 -1.404523 -3.562220
  O 7.110498 -0.847079 -2.114100
  H 3.895654 1.406288 1.257841
  H 3.892223 -0.167786 1.940865
  H 1.735926 0.349693 3.165091
  H 1.740793 1.957150 2.469465
  H 2.272291 -0.697044 -1.484670
  H 5.068439 -0.187469 -0.190230
  H 4.972602 -2.343032 -3.632515
  H 4.960023 -0.701604 -4.215833
  H 7.288879 -0.548962 -1.221080
 20
 108.652001
  H 1.327110 0.162128 0.564244
  C 2.406298 0.129437 0.478300
  C 3.216592 0.624460 1.600998
  C 2.401925 1.141263 2.772657
  H 3.060833 1.491680 3.567125
  C 2.875923 -0.384309 -0.702977
  C 4.277119 -0.509119 -1.014071
  C 4.670918 -0.905015 -2.183220
  C 4.539723 -1.352535 -3.479900
  H 3.466106 -1.460957 -3.701412
  O 7.280862 -0.835794 -2.051580
  H 3.884089 1.410513 1.235924
  H 3.890870 -0.174037 1.932762
  H 1.770542 0.355252 3.187266
  H 1.768500 1.976105 2.471412
  H 2.147226 -0.696122 -1.432648
  H 4.989583 -0.252508 -0.243180
  H 5.032453 -2.323796 -3.619301
  H 5.010370 -0.670818 -4.202070
  H 7.472051 -0.513453 -1.167057
 20
 108.912088
  H 1.273849 0.201352 0.656196
  C 2.334548 0.136794 0.486683
  C 3.228834 0.618373 1.570297
  C 2.481226 1.138212 2.792083
  H 3.182465 1.473253 3.542869
  C 2.713292 -0.371241 -0.695100
  C 4.103072 -0.515349 -1.081901
  C 4.480292 -0.924230 -2.245006
  C 4.605655 -1.375987 -3.520092
  H 3.585473 -1.538120 -3.902922
  O 7.363928 -0.776610 -1.928544
  H 3.877436 1.417858 1.187793
  H 3.903007 -0.189962 1.883064
  H 1.868171 0.360391 3.237716
  H 1.849100 1.980856 2.534882
  H 1.961182 -0.687379 -1.409591
  H 4.829720 -0.252023 -0.327030
  H 5.131109 -2.331959 -3.564407
  H 5.125040 -0.670089 -4.165635
  H 7.567446 -0.466010 -1.041203
 20
 107.885404
  H 1.219577 0.259847 0.732455
  C 2.274366 0.150410 0.513560
  C 3.219966 0.612044 1.550501
  C 2.537574 1.138214 2.804211
  H 3.281534 1.459597 3.531116
  C 2.599080 -0.370296 -0.695101
  C 3.969599 -0.544858 -1.133087
  C 4.365048 -0.965837 -2.275536
  C 4.644630 -1.381437 -3.549074
  H 3.670728 -1.559297 -4.035893
  O 7.484089 -0.737709 -1.830019
  H 3.859563 1.402661 1.141075
  H 3.894486 -0.207702 1.832435
  H 1.931187 0.365573 3.272388
  H 1.903763 1.992748 2.576504
  H 1.827787 -0.686448 -1.378380
  H 4.720448 -0.280540 -0.393233
  H 5.184154 -2.335175 -3.574924
  H 5.185243 -0.629310 -4.132373
  H 7.737143 -0.446547 -0.950491
 20
 107.400980
  H 1.178553 0.288117 0.808104
  C 2.221167 0.169624 0.533547
  C 3.219846 0.611707 1.533628
  C 2.596307 1.133662 2.819952
  H 3.372412 1.443763 3.522511
  C 2.480183 -0.342995 -0.667769
  C 3.824473 -0.549956 -1.183081
  C 4.235003 -0.990108 -2.349628
  C 4.684043 -1.413721 -3.586098
  H 3.785864 -1.627817 -4.188956
  O 7.606231 -0.687908 -1.717453
  H 3.850622 1.394379 1.098512
  H 3.896745 -0.219325 1.772482
  H 1.992666 0.365059 3.299084
  H 1.955234 1.990759 2.622329
  H 1.671209 -0.633646 -1.318845
  H 4.625096 -0.302404 -0.488562
  H 5.250485 -2.353184 -3.536727
  H 5.242934 -0.638936 -4.122015
  H 7.913048 -0.388759 -0.859798
 20
 107.227595
  H 1.149998 0.306846 0.831585
  C 2.181684 0.176501 0.521784
  C 3.221881 0.595804 1.498668
  C 2.649308 1.113146 2.808422
  H 3.452604 1.406140 3.490433
  C 2.403138 -0.329229 -0.692964
  C 3.714876 -0.546992 -1.237244
  C 4.138078 -0.968429 -2.370062
  C 4.671996 -1.424428 -3.549752
  H 3.825732 -1.679304 -4.216868
  O 7.746035 -0.619827 -1.619895
  H 3.849866 1.374310 1.051360
  H 3.894475 -0.247459 1.707947
  H 2.048201 0.347804 3.298637
  H 2.012660 1.981374 2.638781
  H 1.578918 -0.605759 -1.330841
  H 4.547586 -0.309917 -0.564970
  H 5.243941 -2.352690 -3.423309
  H 5.252967 -0.651722 -4.075922
  H 8.172367 -0.317444 -0.802012
 20
 107.237391
  H 1.130982 0.332542 0.841057
  C 2.160748 0.204128 0.531041
  C 3.199223 0.597172 1.509343
  C 2.628672 1.095465 2.829952
  H 3.430152 1.370483 3.513300
  C 2.383574 -0.297733 -0.715787
  C 3.699714 -0.524074 -1.264530
  C 4.120945 -0.945362 -2.388836
  C 4.656681 -1.456445 -3.547712
  H 3.811046 -1.726326 -4.201358
  O 7.963748 -0.597553 -1.622503
  H 3.831972 1.380342 1.076087
  H 3.864855 -0.252245 1.703700
  H 2.025042 0.326887 3.307123
  H 1.998810 1.970210 2.676111
  H 1.554167 -0.549556 -1.357895
  H 4.534773 -0.304107 -0.597840
  H 5.217645 -2.382772 -3.385642
  H 5.243602 -0.718185 -4.098615
  H 8.504517 -0.303401 -0.878081
 20
 107.666255
  H 1.110782 0.339941 0.819821
  C 2.147095 0.216330 0.511845
  C 3.179603 0.588281 1.500412
  C 2.602986 1.068099 2.832317
  H 3.404158 1.330177 3.525571
  C 2.373745 -0.264102 -0.720906
  C 3.687845 -0.492981 -1.255356
  C 4.116873 -0.916652 -2.380368
  C 4.614727 -1.477595 -3.529320
  H 3.740945 -1.759973 -4.146805
  O 8.248694 -0.578306 -1.622787
  H 3.818456 1.377063 1.078283
  H 3.839706 -0.266716 1.679494
  H 1.992249 0.289509 3.296022
  H 1.972078 1.951931 2.690351
  H 1.546408 -0.488258 -1.381715
  H 4.521562 -0.274581 -0.579629
  H 5.146567 -2.405924 -3.346314
  H 5.196483 -0.785990 -4.123417
  H 8.873185 -0.299026 -0.947814
 20
 107.572325
  H 1.118557 0.345198 0.838921
  C 2.147755 0.204433 0.524296
  C 3.192633 0.586723 1.498777
  C 2.631451 1.090131 2.825757
  H 3.440432 1.359351 3.506787
  C 2.362072 -0.298125 -0.720775
  C 3.670322 -0.529775 -1.270226
  C 4.082377 -0.974274 -2.393715
  C 4.629542 -1.461608 -3.540313
  H 3.794327 -1.733815 -4.206538
  O 8.136817 -0.579486 -1.571180
  H 3.831731 1.365361 1.061686
  H 3.851941 -0.269372 1.688414
  H 2.021890 0.322776 3.307604
  H 2.004390 1.973040 2.675233
  H 1.528802 -0.547684 -1.362459
  H 4.508751 -0.297829 -0.603482
  H 5.190952 -2.381811 -3.381630
  H 5.211792 -0.715385 -4.077165
  H 8.777611 -0.306623 -0.900309
