 17
 0.000000
  C 0.990026 0.143526 0.400221
  C 2.461331 0.131654 0.381449
  C 3.207805 0.603078 1.558590
  H 2.547187 0.925784 2.356441
  C 3.095438 -0.332281 -0.767800
  C 4.479467 -0.400779 -0.934781
  C 5.136791 -0.854407 -2.060912
  H 4.660990 -1.219469 -2.963272
  O 6.432789 -0.880082 -2.166038
  H 0.591236 0.521312 1.336594
  H 0.601847 -0.861908 0.230270
  H 0.606613 0.753329 -0.419300
  H 3.863925 1.431285 1.286890
  H 3.859481 -0.185635 1.937340
  H 2.453080 -0.653913 -1.573774
  H 5.102066 -0.067934 -0.113496
  H 6.915812 -0.556460 -1.377705
 17
 -0.207728
  C 0.969717 0.228272 0.229964
  C 2.431812 0.105457 0.339778
  C 3.088461 0.371156 1.630623
  H 2.364848 0.549867 2.419114
  C 3.146367 -0.271467 -0.793047
  C 4.538922 -0.364368 -0.862198
  C 5.243605 -0.756088 -1.982630
  H 4.775077 -1.125126 -2.886222
  O 6.540307 -0.755161 -2.055648
  H 0.519390 0.632992 1.130505
  H 0.531755 -0.753029 0.033538
  H 0.696786 0.846536 -0.625701
  H 3.731429 1.249658 1.550031
  H 3.734349 -0.457457 1.919301
  H 2.573058 -0.481977 -1.687894
  H 5.114068 -0.092576 0.013496
  H 6.997232 -0.426152 -1.254983
 17
 0.847031
  C 1.010429 0.295106 0.325945
  C 2.471030 0.129285 0.379071
  C 3.192693 0.483976 1.612452
  H 2.509224 0.643760 2.440440
  C 3.123015 -0.381848 -0.737324
  C 4.504510 -0.438774 -0.898329
  C 5.136136 -0.975135 -2.008277
  H 4.639579 -1.655218 -2.689000
  O 6.397570 -0.793644 -2.251569
  H 0.636361 0.903765 1.143429
  H 0.533392 -0.686734 0.390196
  H 0.694637 0.714897 -0.628636
  H 3.751957 1.409360 1.458575
  H 3.919878 -0.279583 1.883403
  H 2.514217 -0.711087 -1.560329
  H 5.130236 0.004357 -0.134436
  H 6.854520 -0.192872 -1.628804
 17
 4.663172
  C 1.032793 0.378192 0.261957
  C 2.475659 0.119904 0.392828
  C 3.156150 0.430283 1.662328
  H 2.442657 0.621054 2.457657
  C 3.156332 -0.443270 -0.678734
  C 4.538312 -0.491020 -0.817133
  C 5.147781 -1.062787 -1.927543
  H 4.740969 -1.947768 -2.404122
  O 6.280369 -0.673423 -2.421614
  H 0.652642 0.988845 1.075209
  H 0.492359 -0.571931 0.273898
  H 0.799732 0.842637 -0.695190
  H 3.767155 1.328249 1.544048
  H 3.830005 -0.370930 1.959003
  H 2.584023 -0.811146 -1.515065
  H 5.162804 0.011651 -0.089952
  H 6.689557 0.093613 -1.969868
 17
 13.117825
  C 1.073639 0.454360 0.183845
  C 2.494383 0.128609 0.408323
  C 3.104073 0.374307 1.728992
  H 2.346079 0.546571 2.486982
  C 3.229863 -0.439186 -0.622026
  C 4.611839 -0.470437 -0.724002
  C 5.168549 -1.107397 -1.839714
  H 4.918899 -2.141007 -2.063770
  O 6.076005 -0.631694 -2.628849
  H 0.682052 1.110507 0.956631
  H 0.481039 -0.464628 0.188400
  H 0.924526 0.906436 -0.796820
  H 3.738243 1.263943 1.688503
  H 3.743198 -0.453879 2.028470
  H 2.724125 -0.877693 -1.467572
  H 5.245845 0.057823 -0.025437
  H 6.433137 0.243960 -2.381939
 17
 27.000917
  C 1.150110 0.480199 0.072934
  C 2.539370 0.143707 0.429209
  C 3.026462 0.343209 1.807320
  H 2.202975 0.527481 2.490659
  C 3.368839 -0.430356 -0.523683
  C 4.743689 -0.428630 -0.605843
  C 5.143996 -1.129251 -1.775279
  H 5.124396 -2.216184 -1.798491
  O 5.736564 -0.620389 -2.797699
  H 0.677809 1.084401 0.840912
  H 0.565045 -0.434230 -0.044170
  H 1.103599 1.002188 -0.881023
  H 3.695418 1.206558 1.852380
  H 3.601197 -0.515372 2.144374
  H 2.957092 -0.988325 -1.366229
  H 5.416518 0.138729 0.013470
  H 5.955034 0.335344 -2.741111
 17
 41.305589
  C 1.199143 0.456238 -0.016916
  C 2.579645 0.163776 0.434315
  C 2.977070 0.384625 1.842332
  H 2.101336 0.512805 2.472910
  C 3.487849 -0.407992 -0.455278
  C 4.868151 -0.409408 -0.509581
  C 5.122373 -1.153949 -1.710896
  H 5.245449 -2.234724 -1.665540
  O 5.424288 -0.669457 -2.858403
  H 0.658193 1.034544 0.729592
  H 0.647966 -0.470758 -0.193711
  H 1.202343 1.004515 -0.959631
  H 3.590091 1.284814 1.936211
  H 3.581869 -0.442451 2.208563
  H 3.147648 -1.024886 -1.296016
  H 5.576153 0.175150 0.041520
  H 5.630648 0.290245 -2.893111
 17
 55.570572
  C 1.290820 0.381182 -0.118560
  C 2.651986 0.194813 0.440126
  C 2.913022 0.380896 1.890997
  H 1.980355 0.425896 2.442225
  C 3.694715 -0.250374 -0.354047
  C 5.048626 -0.261112 -0.467716
  C 4.968562 -1.129325 -1.645390
  H 5.136651 -2.200386 -1.529899
  O 5.085738 -0.737384 -2.864414
  H 0.670436 0.953535 0.565829
  H 0.801073 -0.583026 -0.282422
  H 1.324197 0.889148 -1.082805
  H 3.453587 1.313886 2.060220
  H 3.536187 -0.418473 2.286455
  H 3.420319 -0.984314 -1.226745
  H 5.853180 0.283856 -0.029559
  H 5.260635 0.225171 -2.997134
 17
 61.465081
  C 1.359485 0.335160 -0.152459
  C 2.696317 0.221833 0.473013
  C 2.862593 0.366516 1.945214
  H 1.895132 0.345965 2.438486
  C 3.800968 -0.126027 -0.244588
  C 5.105915 -0.133979 -0.508615
  C 4.859821 -1.115855 -1.604921
  H 5.143004 -2.156287 -1.440371
  O 4.926650 -0.777198 -2.892075
  H 0.658106 0.811931 0.524410
  H 0.966047 -0.654681 -0.397400
  H 1.401725 0.900076 -1.082545
  H 3.341836 1.321356 2.169988
  H 3.504133 -0.411077 2.354642
  H 3.612251 -1.081854 -1.236169
  H 5.953032 0.453946 -0.230702
  H 5.069649 0.172171 -3.054637
 17
 54.730312
  C 1.367873 0.388205 -0.113398
  C 2.693055 0.273759 0.531890
  C 2.815257 0.360654 2.012724
  H 1.837994 0.277398 2.479889
  C 3.805731 -0.009493 -0.161821
  C 5.045291 -0.090797 -0.562211
  C 4.818807 -1.143829 -1.626952
  H 5.214424 -2.141744 -1.420981
  O 4.966853 -0.805762 -2.940319
  H 0.649680 0.853945 0.554951
  H 0.994527 -0.605791 -0.368606
  H 1.422809 0.954683 -1.042120
  H 3.242604 1.328567 2.279803
  H 3.485863 -0.399605 2.407921
  H 3.678232 -1.229767 -1.387049
  H 5.916498 0.495564 -0.357034
  H 5.102289 0.143214 -3.084259
 17
 44.714339
  C 1.372334 0.460616 -0.079817
  C 2.683452 0.300648 0.583657
  C 2.771372 0.308591 2.065846
  H 1.781777 0.235246 2.507399
  C 3.796458 0.065251 -0.111986
  C 4.972667 -0.049101 -0.660200
  C 4.847810 -1.191144 -1.643618
  H 5.387617 -2.092437 -1.335896
  O 5.083945 -0.917577 -2.974152
  H 0.631808 0.850445 0.611830
  H 1.020885 -0.506259 -0.443765
  H 1.447824 1.112252 -0.949628
  H 3.226333 1.242973 2.398610
  H 3.411257 -0.493581 2.428561
  H 3.761441 -1.440173 -1.490592
  H 5.815026 0.617307 -0.592070
  H 5.072996 0.029685 -3.173198
 17
 38.071379
  C 1.359416 0.559194 -0.015271
  C 2.660745 0.303703 0.636517
  C 2.749347 0.232993 2.112692
  H 1.759188 0.173819 2.554697
  C 3.761731 0.105420 -0.092427
  C 4.856238 -0.058547 -0.762277
  C 4.857955 -1.225507 -1.719284
  H 5.492322 -2.018899 -1.300283
  O 5.303074 -0.953275 -3.007788
  H 0.631023 0.925257 0.701771
  H 0.971910 -0.363507 -0.452045
  H 1.470087 1.262338 -0.840041
  H 3.241177 1.127344 2.501165
  H 3.364868 -0.609731 2.423441
  H 3.825279 -1.611194 -1.736044
  H 5.696018 0.621689 -0.748592
  H 5.245561 -0.012939 -3.226337
 17
 36.495507
  C 1.283599 0.527180 0.073087
  C 2.621365 0.303171 0.659827
  C 2.793021 0.276054 2.128551
  H 1.830908 0.270531 2.630570
  C 3.679824 0.129393 -0.127622
  C 4.728560 -0.051845 -0.870214
  C 4.840790 -1.224283 -1.802992
  H 5.328414 -2.028185 -1.228853
  O 5.606036 -1.021888 -2.949028
  H 0.575302 0.846029 0.831009
  H 0.909632 -0.392616 -0.380310
  H 1.338326 1.258723 -0.732381
  H 3.350899 1.152610 2.462859
  H 3.387712 -0.587465 2.424514
  H 3.835193 -1.577480 -2.070916
  H 5.553493 0.653428 -0.869935
  H 5.674967 -0.086649 -3.183647
 17
 36.356660
  C 1.223950 0.468084 0.154717
  C 2.597670 0.285323 0.673751
  C 2.852927 0.305885 2.132276
  H 1.924240 0.381625 2.688589
  C 3.612234 0.101481 -0.167448
  C 4.639380 -0.049684 -0.946194
  C 4.825693 -1.194683 -1.892888
  H 5.112370 -2.065738 -1.281803
  O 5.817759 -1.040359 -2.860990
  H 0.528205 0.685578 0.958559
  H 0.886020 -0.425982 -0.371034
  H 1.210875 1.271607 -0.582573
  H 3.493346 1.147154 2.400960
  H 3.398885 -0.591113 2.425566
  H 3.868052 -1.444949 -2.374326
  H 5.422992 0.704962 -0.947130
  H 6.000995 -0.108836 -3.053301
 17
 36.540731
  C 1.151857 0.403161 0.223637
  C 2.562568 0.279401 0.658718
  C 2.909927 0.363807 2.099414
  H 2.021682 0.516548 2.703232
  C 3.528514 0.079922 -0.233376
  C 4.577784 -0.061143 -0.986136
  C 4.814635 -1.169854 -1.961006
  H 4.850365 -2.114058 -1.396969
  O 5.992776 -1.102300 -2.701723
  H 0.485646 0.505196 1.073608
  H 0.846970 -0.456839 -0.371900
  H 1.050611 1.273753 -0.427031
  H 3.612907 1.176118 2.283798
  H 3.417312 -0.551102 2.407732
  H 3.952299 -1.248261 -2.644874
  H 5.325019 0.731689 -0.973600
  H 6.314720 -0.195684 -2.796793
