15

H -2.467033587311793 0.7033874127066951 -0.057475562624749524
C -2.055726 0.586234 -0.028593
C -1.650643 -0.478735 0.642333
C -0.239926 -0.964218 0.800902
C 0.80822 -0.101554 0.106443
C 2.226432 -0.614466 0.344642
H 2.542344689685792 -0.35886551210768425 0.12086870947278289
H -1.347403 1.216179 -0.53894
H -2.389475 -1.095408 1.144247
H -0.01305 -1.019626 1.871372
H -0.193646 -1.986263 0.409648
H 0.60506 -0.08591 -0.967397
H 0.738328 0.921964 0.484313
H 2.426879 -0.584315 1.417538
H 2.299455 -1.658775 0.034107
