 20
 0.000000
  C 0.958733 0.142238 0.405928
  C 2.435627 0.138812 0.396949
  H 3.007996 0.476028 1.235745
  C 3.047724 -0.326485 -0.761128
  C 4.427680 -0.410350 -0.970580
  C 5.111749 -0.860636 -2.093538
  C 4.622398 -1.384411 -3.399794
  C 3.132979 -1.504809 -3.700598
  H 2.985456 -1.899227 -4.684250
  O 6.434575 -0.852273 -2.073085
  H 0.530877 0.513603 1.329858
  H 0.585106 -0.868946 0.237722
  H 0.584800 0.755552 -0.415298
  H 2.388559 -0.643775 -1.550690
  H 5.047217 -0.079018 -0.145404
  H 5.082172 -2.371786 -3.523346
  H 5.082493 -0.756172 -4.171309
  H 2.655388 -0.525521 -3.650229
  H 2.655156 -2.177872 -2.987664
  H 6.800018 -0.516405 -1.234749
 20
 0.000000
  C 0.937939 0.162006 0.455221
  C 2.414854 0.160144 0.450134
  H 2.984653 0.497969 1.290433
  C 3.030493 -0.304508 -0.706324
  C 4.411084 -0.386912 -0.912138
  C 5.161998 -0.877944 -2.136700
  C 4.676646 -1.402238 -3.444240
  C 3.188153 -1.524209 -3.748969
  H 3.043640 -1.918784 -4.733005
  O 6.339480 -0.882731 -2.149030
  H 0.507256 0.532921 1.378018
  H 0.565827 -0.849573 0.286036
  H 0.565522 0.774922 -0.366992
  H 2.373748 -0.622498 -1.497618
  H 5.028093 -0.054922 -0.085334
  H 5.137786 -2.389127 -3.566575
  H 5.138110 -0.773514 -4.214542
  H 2.709397 -0.545425 -3.699864
  H 2.709163 -2.197775 -3.037295
  H 6.652860 -0.549255 -1.316678
 20
 0.000000
  C 0.912067 0.183799 0.509561
  C 2.388991 0.183261 0.507767
  H 2.956613 0.521598 1.349333
  C 3.007623 -0.280844 -0.647313
  C 4.388743 -0.362012 -0.850048
  C 5.212556 -0.897722 -2.186020
  C 4.730590 -1.422451 -3.494637
  C 3.242890 -1.545751 -3.802685
  H 3.100925 -1.940457 -4.787039
  O 6.268327 -0.914267 -2.227660
  H 0.478997 0.554331 1.431394
  H 0.541240 -0.828114 0.339553
  H 0.540935 0.796378 -0.313482
  H 2.352928 -0.599425 -1.440068
  H 5.003610 -0.029466 -0.021873
  H 5.192883 -2.408929 -3.615939
  H 5.193210 -0.793318 -4.263910
  H 2.763152 -0.567396 -3.754652
  H 2.762915 -2.219743 -3.092078
  H 6.543856 -0.579592 -1.392339
 20
 0.000000
  C 0.881316 0.207667 0.569075
  C 2.358241 0.208210 0.569969
  H 2.924082 0.546966 1.412565
  C 2.979314 -0.255446 -0.583980
  C 4.360860 -0.335604 -0.784201
  C 5.263566 -0.919963 -2.241477
  C 4.784368 -1.445045 -3.550968
  C 3.297321 -1.569429 -3.861726
  H 3.157437 -1.964240 -4.846336
  O 6.220747 -0.946894 -2.309009
  H 0.446297 0.577886 1.490116
  H 0.511540 -0.804518 0.398397
  H 0.511235 0.819971 -0.254646
  H 2.326297 -0.574510 -1.377924
  H 4.973974 -0.002605 0.045091
  H 5.247599 -2.431186 -3.671424
  H 5.247930 -0.815577 -4.319399
  H 2.816785 -0.591423 -3.814570
  H 2.816543 -2.243768 -3.151992
  H 6.469574 -0.607529 -1.462007
 20
 0.000000
  C 0.846476 0.233291 0.632966
  C 2.323398 0.234682 0.635969
  H 2.887840 0.573768 1.479370
  C 2.946384 -0.228622 -0.517090
  C 4.328261 -0.307986 -0.715337
  C 5.314654 -0.944257 -2.302055
  C 4.837627 -1.469616 -3.612228
  C 3.351098 -1.594849 -3.925112
  H 3.212847 -1.989742 -4.909920
  O 6.194901 -0.980302 -2.392305
  H 0.409929 0.603263 1.553382
  H 0.477526 -0.779107 0.461766
  H 0.477219 0.845378 -0.191286
  H 2.294685 -0.548064 -1.311963
  H 4.939999 0.025369 0.114828
  H 5.301592 -2.455493 -3.732019
  H 5.301929 -0.839885 -4.379998
  H 2.869937 -0.617116 -3.878646
  H 2.869690 -2.269461 -3.216064
  H 6.425642 -0.632975 -1.525464
 20
 0.000000
  C 0.808782 0.260109 0.699833
  C 2.285699 0.262149 0.704447
  H 2.849072 0.601486 1.548462
  C 2.910147 -0.200886 -0.447928
  C 4.292274 -0.279644 -0.644667
  C 5.365263 -0.969905 -2.366006
  C 4.889897 -1.495474 -3.676698
  C 3.403766 -1.621354 -3.991206
  H 3.266763 -2.016310 -4.976163
  O 6.187002 -1.013990 -2.476298
  H 0.371069 0.629893 1.619771
  H 0.440464 -0.752452 0.528235
  H 0.440156 0.872029 -0.124825
  H 2.259456 -0.520619 -1.243511
  H 4.902959 0.053983 0.186163
  H 5.354422 -2.481150 -3.795978
  H 5.354764 -0.865544 -4.443961
  H 2.922129 -0.643831 -3.945269
  H 2.921877 -2.296173 -3.282682
  H 6.405711 -0.655967 -1.582796
 20
 0.000000
  C 0.769351 0.287638 0.768473
  C 2.246263 0.290177 0.774326
  H 2.808813 0.629709 1.618811
  C 2.871832 -0.172652 -0.377524
  C 4.254150 -0.250944 -0.573105
  C 5.415117 -0.996254 -2.431705
  C 4.941028 -1.521985 -3.742794
  C 3.455203 -1.648361 -4.058550
  H 3.319159 -2.043365 -5.043620
  O 6.192450 -1.047562 -2.560001
  H 0.330742 0.657278 1.688043
  H 0.401519 -0.725049 0.596572
  H 0.401209 0.899430 -0.056496
  H 2.221916 -0.492608 -1.173651
  H 4.864026 0.082894 0.258235
  H 5.405981 -2.507506 -3.861682
  H 5.406329 -0.891901 -4.509669
  H 2.973202 -0.670998 -4.013020
  H 2.972944 -2.323339 -3.350430
  H 6.402680 -0.676857 -1.634883
 20
 0.000000
  C 0.728857 0.315624 0.838254
  C 2.205764 0.318562 0.845094
  H 2.767658 0.658249 1.689954
  C 2.832229 -0.144103 -0.306335
  C 4.214698 -0.222022 -0.500991
  C 5.464267 -1.022888 -2.498114
  C 4.991196 -1.548748 -3.809520
  C 3.505617 -1.675519 -4.126271
  H 3.370338 -2.070561 -5.111431
  O 6.207362 -1.080841 -2.642974
  H 0.289534 0.685150 1.757528
  H 0.361414 -0.697162 0.666111
  H 0.361102 0.927314 0.013037
  H 2.182931 -0.464237 -1.102895
  H 4.823928 0.111983 0.330755
  H 5.456490 -2.534145 -3.928094
  H 5.456844 -0.918542 -4.576084
  H 3.023326 -0.698285 -4.081066
  H 3.023063 -2.350624 -3.418473
  H 6.410572 -0.696167 -1.683031
 20
 0.000000
  C 0.687605 0.343984 0.908966
  C 2.164507 0.347260 0.916642
  H 2.725845 0.687079 1.761819
  C 2.791730 -0.115266 -0.234430
  C 4.174327 -0.192870 -0.428302
  C 5.512898 -1.049580 -2.564664
  C 5.040691 -1.575548 -3.876338
  C 3.555320 -1.702653 -4.193933
  H 3.420691 -2.097728 -5.179169
  O 6.229102 -1.113795 -2.725137
  H 0.247677 0.713413 1.827989
  H 0.320491 -0.668887 0.736619
  H 0.320178 0.955586 0.083538
  H 2.142957 -0.435552 -1.031356
  H 4.783009 0.141279 0.403787
  H 5.506273 -2.560842 -3.994645
  H 5.506633 -0.945240 -4.642638
  H 3.072785 -0.725527 -4.149005
  H 3.072515 -2.377865 -3.486407
  H 6.425164 -0.714393 -1.728475
 20
 0.000000
  C 0.645685 0.372714 0.980602
  C 2.122582 0.376298 0.989038
  H 2.683414 0.716237 1.834502
  C 2.750493 -0.086102 -0.161710
  C 4.133206 -0.163419 -0.354870
  C 5.561185 -1.076193 -2.631019
  C 5.089762 -1.602260 -3.942935
  C 3.604581 -1.729668 -4.261297
  H 3.470540 -2.124772 -5.246602
  O 6.256080 -1.146449 -2.806552
  H 0.205207 0.742055 1.899398
  H 0.278871 -0.640233 0.808071
  H 0.278555 0.984237 0.154983
  H 2.102197 -0.406526 -0.958968
  H 4.741390 0.170860 0.477531
  H 5.555605 -2.587459 -4.061000
  H 5.555971 -0.971859 -4.708996
  H 3.121824 -0.752639 -4.216620
  H 3.121548 -2.404976 -3.554019
  H 6.443687 -0.731913 -1.772159
 20
 0.000000
  C 0.603074 0.401846 1.053239
  C 2.079966 0.405729 1.062413
  H 2.640307 0.745784 1.908155
  C 2.708545 -0.056549 -0.088019
  C 4.091370 -0.133586 -0.280489
  C 5.609234 -1.102621 -2.696911
  C 5.138573 -1.628784 -4.009063
  C 3.653577 -1.756485 -4.328169
  H 3.520109 -2.151618 -5.313540
  O 6.287395 -1.178836 -2.887299
  H 0.162062 0.771101 1.971813
  H 0.236551 -0.611177 0.880528
  H 0.236233 1.013291 0.227433
  H 2.060713 -0.377107 -0.885600
  H 4.699071 0.200818 0.552215
  H 5.604670 -2.613891 -4.126892
  H 5.605042 -0.998292 -4.774891
  H 3.170604 -0.779552 -4.283736
  H 3.170323 -2.431888 -3.621133
  H 6.464346 -0.748983 -1.814721
 20
 0.000000
  C 0.559677 0.431423 1.126984
  C 2.036563 0.435614 1.136921
  H 2.596395 0.775790 1.982952
  C 2.665833 -0.026536 -0.013184
  C 4.048773 -0.103285 -0.204938
  C 5.657068 -1.128746 -2.762048
  C 5.187195 -1.655007 -4.074442
  C 3.702392 -1.783013 -4.394318
  H 3.569515 -2.178174 -5.379758
  O 6.322558 -1.210970 -2.967417
  H 0.118113 0.800589 2.045329
  H 0.193455 -0.581677 0.954088
  H 0.193134 1.042788 0.300987
  H 2.018480 -0.347233 -0.811098
  H 4.655974 0.231249 0.628078
  H 5.653554 -2.640020 -4.192027
  H 5.653933 -1.024421 -4.840029
  H 3.219196 -0.806178 -4.350138
  H 3.218908 -2.458512 -3.687531
  H 6.485944 -0.765745 -1.856517
 20
 0.000000
  C 0.515322 0.461504 1.201988
  C 1.992202 0.466033 1.212759
  H 2.551479 0.806340 2.059105
  C 2.622227 0.004022 0.063011
  C 4.005292 -0.072412 -0.127962
  C 5.704623 -1.154411 -2.826037
  C 5.235611 -1.680780 -4.138696
  C 3.751018 -1.809117 -4.459413
  H 3.618788 -2.204310 -5.444927
  O 6.361286 -1.242829 -3.046849
  H 0.073156 0.830573 2.120082
  H 0.149429 -0.551680 1.028889
  H 0.149107 1.072783 0.375782
  H 1.975397 -0.316825 -0.735267
  H 4.611946 0.262264 0.705396
  H 5.702257 -2.665688 -4.256015
  H 5.702642 -1.050091 -4.904020
  H 3.267580 -0.832390 -4.415509
  H 3.267285 -2.484724 -3.752899
  H 6.507632 -0.782235 -1.897633
 20
 0.000000
  C 0.469705 0.492188 1.278493
  C 1.946576 0.497105 1.290225
  H 2.505212 0.837562 2.136934
  C 2.577471 0.035256 0.140889
  C 3.960680 -0.040815 -0.049183
  C 5.751716 -1.179378 -2.888282
  C 5.283698 -1.705869 -4.201246
  C 3.799347 -1.834590 -4.522933
  H 3.667862 -2.229818 -5.508532
  O 6.403358 -1.274308 -3.125333
  H 0.026844 0.861144 2.196298
  H 0.104191 -0.521093 1.105159
  H 0.103867 1.103368 0.452047
  H 1.931245 -0.285764 -0.657809
  H 4.566703 0.294023 0.784568
  H 5.750674 -2.690657 -4.318259
  H 5.751065 -1.075061 -4.966267
  H 3.315628 -0.857988 -4.479346
  H 3.315327 -2.510320 -3.816734
  H 6.528710 -0.798357 -1.937834
