 14
 0.000000
  H 1.415448 0.127234 0.363592
  C 2.496153 0.134610 0.385025
  C 3.163958 0.618156 1.589837
  H 2.467120 0.928615 2.360204
  C 3.142492 -0.321148 -0.747397
  C 4.530933 -0.384572 -0.903726
  C 5.131415 -0.848297 -2.059430
  H 4.568470 -1.194590 -2.920059
  O 6.406608 -0.923147 -2.250321
  H 3.824297 1.454089 1.345495
  H 3.822365 -0.155701 1.992552
  H 2.530141 -0.652735 -1.574687
  H 5.164475 -0.058087 -0.089482
  H 6.958423 -0.618579 -1.498654
 14
 9.131160
  H 1.366992 0.141267 0.398055
  C 2.448270 0.141971 0.403136
  C 3.134417 0.622831 1.601485
  H 2.445321 0.935869 2.378112
  C 3.066308 -0.313098 -0.727481
  C 4.611536 -0.388037 -0.911896
  C 5.178891 -0.852840 -2.070493
  H 4.588189 -1.192869 -2.915183
  O 6.450684 -0.939482 -2.291204
  H 3.795632 1.455709 1.351060
  H 3.793560 -0.153181 1.997694
  H 2.456331 -0.643278 -1.551500
  H 5.247257 -0.064027 -0.103419
  H 7.023462 -0.640117 -1.553684
 14
 27.808616
  H 1.334007 0.153711 0.428628
  C 2.415921 0.146417 0.413953
  C 3.111499 0.624369 1.605353
  H 2.423933 0.937527 2.382282
  C 2.997807 -0.310635 -0.721587
  C 4.704616 -0.382338 -0.897537
  C 5.210286 -0.849470 -2.061934
  H 4.569874 -1.175669 -2.871945
  O 6.458489 -0.957045 -2.335236
  H 3.774807 1.453633 1.351298
  H 3.772571 -0.151804 1.996313
  H 2.444010 -0.652052 -1.573392
  H 5.302569 -0.051311 -0.071718
  H 7.066683 -0.668474 -1.624896
 14
 48.557525
  H 1.301012 0.167582 0.467127
  C 2.379998 0.153184 0.431352
  C 3.084979 0.624353 1.605536
  H 2.401592 0.936765 2.383823
  C 2.922629 -0.301236 -0.700175
  C 4.790118 -0.370444 -0.872530
  C 5.244670 -0.849125 -2.063027
  H 4.560349 -1.163135 -2.842244
  O 6.482621 -0.982019 -2.393712
  H 3.744228 1.453277 1.346088
  H 3.743876 -0.154398 1.991038
  H 2.435139 -0.654748 -1.580654
  H 5.344962 -0.030722 -0.026339
  H 7.128255 -0.705034 -1.708526
 14
 69.748369
  H 1.237391 0.177687 0.496502
  C 2.326164 0.157562 0.443429
  C 3.061469 0.633258 1.628004
  H 2.389116 0.949220 2.417942
  C 2.839220 -0.296035 -0.688429
  C 4.865123 -0.370391 -0.877326
  C 5.288991 -0.852692 -2.073754
  H 4.582991 -1.159983 -2.837541
  O 6.527842 -1.001326 -2.437768
  H 3.719716 1.460460 1.359806
  H 3.721255 -0.148984 2.004946
  H 2.380811 -0.655931 -1.583916
  H 5.407791 -0.025689 -0.019819
  H 7.190025 -0.734040 -1.772321
 14
 88.634444
  H 1.191590 0.196136 0.543756
  C 2.276004 0.168560 0.471583
  C 3.026624 0.639339 1.643536
  H 2.365573 0.958103 2.440897
  C 2.760484 -0.287944 -0.667906
  C 4.942797 -0.374400 -0.891044
  C 5.337481 -0.857702 -2.088070
  H 4.612894 -1.158855 -2.837486
  O 6.572409 -1.019052 -2.479221
  H 3.683198 1.464680 1.365810
  H 3.685434 -0.147819 2.012246
  H 2.311490 -0.649078 -1.565321
  H 5.483732 -0.030658 -0.037307
  H 7.256304 -0.756824 -1.823188
 14
 95.101628
  H 1.227870 0.198033 0.563881
  C 2.324224 0.167450 0.453607
  C 3.043641 0.651486 1.656919
  H 2.358732 0.955479 2.440392
  C 2.659774 -0.284933 -0.690352
  C 5.003767 -0.405030 -0.880473
  C 5.341452 -0.867972 -2.047948
  H 4.603613 -1.163523 -2.791249
  O 6.583063 -1.013059 -2.529188
  H 3.666545 1.502670 1.389498
  H 3.678278 -0.144815 2.041629
  H 2.350813 -0.652292 -1.631156
  H 5.357789 -0.040770 0.049281
  H 7.267666 -0.744456 -1.901932
 14
 101.736004
  H 1.179072 0.212490 0.608865
  C 2.274254 0.175966 0.477819
  C 3.015689 0.656359 1.670974
  H 2.342870 0.962613 2.465274
  C 2.575943 -0.276198 -0.669820
  C 5.077302 -0.402163 -0.888996
  C 5.390091 -0.866938 -2.060716
  H 4.636590 -1.156223 -2.786981
  O 6.617952 -1.034439 -2.567697
  H 3.636755 1.505879 1.393683
  H 3.652065 -0.143453 2.045257
  H 2.284186 -0.647539 -1.621256
  H 5.407667 -0.034144 0.050255
  H 7.325471 -0.775084 -1.946883
 14
 106.677014
  H 1.129992 0.233844 0.653937
  C 2.222942 0.185792 0.504402
  C 2.985011 0.659887 1.684549
  H 2.326586 0.972500 2.485713
  C 2.492785 -0.270468 -0.648508
  C 5.151796 -0.398539 -0.894659
  C 5.440797 -0.865879 -2.067596
  H 4.668811 -1.147404 -2.780607
  O 6.659138 -1.053050 -2.602934
  H 3.608197 1.502398 1.396762
  H 3.617724 -0.144884 2.049945
  H 2.224164 -0.643615 -1.600988
  H 5.455775 -0.025729 0.048386
  H 7.373707 -0.806195 -2.003458
 14
 110.314456
  H 1.078769 0.252132 0.699438
  C 2.169566 0.194812 0.529438
  C 2.956066 0.664193 1.698067
  H 2.312426 0.982372 2.510480
  C 2.406671 -0.262700 -0.625149
  C 5.222837 -0.395425 -0.901428
  C 5.488720 -0.865582 -2.077981
  H 4.701017 -1.139492 -2.775208
  O 6.691199 -1.072069 -2.638528
  H 3.580607 1.502256 1.398297
  H 3.588886 -0.146071 2.052790
  H 2.156722 -0.639913 -1.585612
  H 5.505190 -0.018373 0.048073
  H 7.429082 -0.832973 -2.046248
 14
 112.949410
  H 1.027592 0.273801 0.748427
  C 2.114754 0.205510 0.558257
  C 2.923534 0.668397 1.711626
  H 2.296622 0.992832 2.533125
  C 2.321087 -0.255551 -0.601063
  C 5.294330 -0.392769 -0.907530
  C 5.539634 -0.865019 -2.084629
  H 4.736372 -1.131480 -2.769106
  O 6.732537 -1.088710 -2.670327
  H 3.549586 1.499706 1.399422
  H 3.554115 -0.147109 2.055445
  H 2.090196 -0.634041 -1.560900
  H 5.555492 -0.012845 0.043239
  H 7.474342 -0.861218 -2.098399
 14
 114.846173
  H 0.972846 0.292556 0.798100
  C 2.056522 0.215788 0.586582
  C 2.891311 0.674154 1.726788
  H 2.281910 1.003827 2.560511
  C 2.232963 -0.245960 -0.573395
  C 5.362272 -0.392019 -0.916874
  C 5.588222 -0.866459 -2.097346
  H 4.771992 -1.126271 -2.768364
  O 6.765856 -1.105426 -2.702763
  H 3.517841 1.500903 1.401254
  H 3.522895 -0.146537 2.058349
  H 2.012964 -0.627573 -1.538867
  H 5.610814 -0.009423 0.038386
  H 7.529187 -0.883953 -2.135577
 14
 116.189111
  H 0.919220 0.315798 0.850794
  C 1.997828 0.228187 0.619107
  C 2.854825 0.679863 1.742725
  H 2.263287 1.015945 2.585667
  C 2.145972 -0.237025 -0.544791
  C 5.431271 -0.391650 -0.924961
  C 5.639465 -0.867786 -2.105345
  H 4.810147 -1.121399 -2.764752
  O 6.808605 -1.119864 -2.732194
  H 3.482570 1.499569 1.404133
  H 3.484079 -0.146172 2.063127
  H 1.938188 -0.619301 -1.507804
  H 5.665795 -0.007301 0.029159
  H 7.572100 -0.907462 -2.184647
 14
 117.105537
  H 0.861311 0.336605 0.904072
  C 1.935176 0.240421 0.651339
  C 2.818266 0.687266 1.761077
  H 2.245205 1.028602 2.615601
  C 2.055834 -0.225285 -0.511958
  C 5.495900 -0.392969 -0.936196
  C 5.686756 -0.871469 -2.119571
  H 4.846267 -1.120457 -2.766087
  O 6.841023 -1.134438 -2.762792
  H 3.446316 1.502041 1.409145
  H 3.447959 -0.143991 2.069304
  H 1.853014 -0.610249 -1.479402
  H 5.723879 -0.005804 0.021389
  H 7.625531 -0.924505 -2.219096
