 19
 0.000000
  C 0.988572 0.132086 0.373864
  C 2.454358 0.143684 0.408698
  C 3.211945 0.615185 1.583123
  C 2.416421 1.097438 2.785028
  H 3.100277 1.411708 3.569877
  C 3.118101 -0.315426 -0.734436
  C 4.513009 -0.389764 -0.922114
  C 5.045727 -0.853753 -2.081075
  H 4.419517 -1.180167 -2.894973
  H 6.109866 -0.912302 -2.228465
  H 0.529524 0.501577 1.281459
  H 0.630918 -0.880832 0.172600
  H 0.636660 0.719677 -0.477539
  H 3.886878 1.417284 1.254663
  H 3.886684 -0.191510 1.900390
  H 1.787200 0.308445 3.189227
  H 1.788025 1.947717 2.532241
  H 2.500766 -0.646515 -1.560552
  H 5.175138 -0.072034 -0.129933
 19
 1.905510
  C 1.029713 0.111375 0.350879
  C 2.491623 0.147281 0.451962
  C 3.225639 0.635219 1.627725
  C 2.394114 1.102758 2.808495
  H 3.049482 1.432999 3.609154
  C 3.127745 -0.299109 -0.697844
  C 4.512330 -0.408769 -0.929901
  C 5.008151 -0.857374 -2.126936
  H 4.352282 -1.144056 -2.933650
  H 6.067237 -0.938791 -2.303163
  H 0.499496 0.545882 1.190417
  H 0.684643 -0.916481 0.202986
  H 0.783261 0.611605 -0.597021
  H 3.892772 1.444388 1.306666
  H 3.909238 -0.157764 1.956145
  H 1.770541 0.300506 3.195924
  H 1.754586 1.939339 2.536171
  H 2.426334 -0.569448 -1.497387
  H 5.199825 -0.132589 -0.142171
 19
 6.017512
  C 1.070463 0.104751 0.321918
  C 2.519851 0.153884 0.476084
  C 3.233781 0.648809 1.661258
  C 2.364386 1.105488 2.838753
  H 2.998287 1.443349 3.659267
  C 3.140292 -0.287051 -0.689312
  C 4.510888 -0.424086 -0.955379
  C 4.964655 -0.857216 -2.158697
  H 4.284005 -1.114293 -2.950561
  H 6.015983 -0.957330 -2.360817
  H 0.484248 0.608057 1.076567
  H 0.746319 -0.932568 0.265832
  H 0.933879 0.475545 -0.694552
  H 3.901384 1.470744 1.346551
  H 3.927463 -0.144329 1.999922
  H 1.742830 0.294812 3.206634
  H 1.720567 1.933259 2.555696
  H 2.373420 -0.504474 -1.443248
  H 5.219632 -0.176129 -0.171971
 19
 12.100277
  C 1.095801 0.106015 0.305961
  C 2.539838 0.160994 0.502138
  C 3.236675 0.657617 1.694286
  C 2.350269 1.096144 2.842454
  H 2.962194 1.435082 3.674115
  C 3.150792 -0.274473 -0.671658
  C 4.518082 -0.429823 -0.971420
  C 4.937272 -0.854240 -2.184831
  H 4.234526 -1.091203 -2.964477
  H 5.981438 -0.968620 -2.410739
  H 0.477236 0.687720 0.975688
  H 0.762502 -0.938416 0.355593
  H 1.051578 0.346135 -0.767001
  H 3.894505 1.477866 1.394712
  H 3.925434 -0.119645 2.039186
  H 1.725896 0.273939 3.192647
  H 1.702398 1.921878 2.546449
  H 2.330168 -0.453037 -1.392127
  H 5.244903 -0.201022 -0.204759
 19
 20.018154
  C 1.111920 0.099109 0.296205
  C 2.550390 0.153683 0.517934
  C 3.236039 0.655838 1.711480
  C 2.331113 1.096667 2.854098
  H 2.929526 1.440780 3.690189
  C 3.160682 -0.278598 -0.664287
  C 4.518624 -0.438858 -0.983240
  C 4.918134 -0.845816 -2.209404
  H 4.202724 -1.061284 -2.985043
  H 5.959606 -0.968307 -2.450336
  H 0.474935 0.747067 0.895631
  H 0.763702 -0.927318 0.430322
  H 1.152596 0.230937 -0.822813
  H 3.895617 1.482732 1.410223
  H 3.930161 -0.121263 2.067724
  H 1.709500 0.278677 3.197631
  H 1.686163 1.912988 2.550188
  H 2.294705 -0.408185 -1.362453
  H 5.258061 -0.227999 -0.221456
 19
 29.616287
  C 1.121435 0.106417 0.284162
  C 2.557885 0.156449 0.523811
  C 3.236364 0.651532 1.726850
  C 2.321432 1.086660 2.859531
  H 2.911008 1.423322 3.705736
  C 3.169103 -0.273795 -0.657849
  C 4.521630 -0.425731 -0.996425
  C 4.905591 -0.844680 -2.224199
  H 4.180649 -1.072251 -2.987007
  H 5.944255 -0.964467 -2.478817
  H 0.490592 0.810437 0.808211
  H 0.743831 -0.899125 0.496468
  H 1.227840 0.127476 -0.860683
  H 3.896921 1.478166 1.435710
  H 3.923638 -0.125267 2.085528
  H 1.692533 0.267056 3.189479
  H 1.681709 1.907782 2.552492
  H 2.246301 -0.401287 -1.328863
  H 5.271818 -0.196791 -0.248767
 19
 39.591334
  C 1.129981 0.123184 0.278874
  C 2.563461 0.159321 0.525662
  C 3.235540 0.634654 1.735429
  C 2.308661 1.072315 2.862628
  H 2.892501 1.389011 3.724493
  C 3.177860 -0.278720 -0.650154
  C 4.526861 -0.394152 -1.015448
  C 4.902564 -0.845811 -2.237544
  H 4.171668 -1.115858 -2.982417
  H 5.940281 -0.950716 -2.504226
  H 0.516746 0.898962 0.725764
  H 0.709373 -0.849370 0.569550
  H 1.281405 0.019364 -0.883199
  H 3.908201 1.457696 1.457485
  H 3.907915 -0.156141 2.095872
  H 1.660200 0.257632 3.173611
  H 1.686030 1.909242 2.556036
  H 2.198234 -0.428037 -1.291081
  H 5.282789 -0.103559 -0.294674
 19
 49.766611
  C 1.129908 0.139657 0.277141
  C 2.565895 0.159735 0.523891
  C 3.237482 0.615284 1.748029
  C 2.304206 1.058114 2.866011
  H 2.883442 1.348520 3.743604
  C 3.182156 -0.289618 -0.639691
  C 4.526857 -0.355760 -1.037383
  C 4.902173 -0.847904 -2.238955
  H 4.172121 -1.180158 -2.963325
  H 5.943846 -0.925415 -2.516495
  H 0.542569 0.971715 0.658408
  H 0.671440 -0.789819 0.614159
  H 1.310331 -0.069379 -0.915683
  H 3.926202 1.429958 1.486706
  H 3.887734 -0.191944 2.109560
  H 1.633177 0.254536 3.154889
  H 1.706136 1.914024 2.562545
  H 2.146417 -0.476622 -1.272055
  H 5.277204 0.016694 -0.352872
 19
 58.802611
  C 1.133087 0.156121 0.286318
  C 2.569953 0.159076 0.522479
  C 3.240464 0.597606 1.757243
  C 2.297537 1.048773 2.868997
  H 2.866969 1.313437 3.752488
  C 3.189845 -0.296690 -0.622709
  C 4.523347 -0.323916 -1.058160
  C 4.901386 -0.854677 -2.241216
  H 4.178202 -1.247276 -2.941891
  H 5.940021 -0.901620 -2.529954
  H 0.571414 1.022912 0.618954
  H 0.641092 -0.752896 0.633538
  H 1.329392 -0.127465 -0.944363
  H 3.942359 1.402810 1.509659
  H 3.868586 -0.225166 2.120310
  H 1.603556 0.254444 3.140330
  H 1.723661 1.922221 2.568408
  H 2.104454 -0.513286 -1.265705
  H 5.266874 0.125698 -0.408136
 19
 66.244930
  C 1.130807 0.167477 0.300598
  C 2.570939 0.161379 0.521937
  C 3.241596 0.585219 1.769708
  C 2.293194 1.039389 2.870335
  H 2.857899 1.282239 3.767293
  C 3.200376 -0.297988 -0.604903
  C 4.519609 -0.298625 -1.077337
  C 4.899049 -0.865691 -2.240125
  H 4.184942 -1.317427 -2.910805
  H 5.932408 -0.884061 -2.543019
  H 0.583494 1.054378 0.601688
  H 0.620720 -0.734095 0.630947
  H 1.335845 -0.165261 -0.985752
  H 3.955872 1.386954 1.534700
  H 3.850548 -0.252000 2.133921
  H 1.582607 0.255726 3.122247
  H 1.740923 1.929001 2.572815
  H 2.073628 -0.531364 -1.282466
  H 5.251959 0.218778 -0.466198
 19
 74.211162
  C 1.127312 0.173138 0.324557
  C 2.566884 0.161707 0.515769
  C 3.240202 0.582780 1.772861
  C 2.290551 1.030424 2.865625
  H 2.851569 1.264776 3.763834
  C 3.211151 -0.288699 -0.589099
  C 4.518639 -0.290464 -1.082937
  C 4.897934 -0.872267 -2.235995
  H 4.187042 -1.350111 -2.894798
  H 5.929524 -0.879977 -2.545128
  H 0.592089 1.064824 0.623410
  H 0.609564 -0.729005 0.634275
  H 1.327918 -0.185079 -1.046947
  H 3.959574 1.393805 1.542802
  H 3.846084 -0.261390 2.137129
  H 1.577140 0.246292 3.109260
  H 1.739182 1.928771 2.569078
  H 2.031807 -0.537118 -1.328391
  H 5.247703 0.250296 -0.487411
 19
 81.377814
  C 1.123818 0.182793 0.351721
  C 2.558332 0.163957 0.507230
  C 3.236974 0.580330 1.772749
  C 2.287086 1.023151 2.870608
  H 2.852295 1.248447 3.768890
  C 3.226174 -0.274105 -0.574038
  C 4.520225 -0.279981 -1.091278
  C 4.900209 -0.883781 -2.231099
  H 4.192493 -1.390310 -2.874486
  H 5.929246 -0.878701 -2.549336
  H 0.598218 1.079663 0.648286
  H 0.596643 -0.722710 0.628427
  H 1.309721 -0.211318 -1.129720
  H 3.950714 1.390014 1.546652
  H 3.838130 -0.268157 2.130735
  H 1.573203 0.240363 3.110745
  H 1.738677 1.926521 2.583317
  H 1.988709 -0.553762 -1.395877
  H 5.245773 0.291577 -0.517455
 19
 87.151856
  C 1.108937 0.188073 0.381580
  C 2.545746 0.165917 0.496758
  C 3.235190 0.579978 1.769120
  C 2.286870 1.020392 2.884038
  H 2.862582 1.238464 3.780397
  C 3.243694 -0.260028 -0.565884
  C 4.524339 -0.272064 -1.100542
  C 4.906193 -0.898560 -2.225823
  H 4.204333 -1.435340 -2.847781
  H 5.930666 -0.880780 -2.553406
  H 0.588585 1.084661 0.688859
  H 0.575654 -0.724153 0.607735
  H 1.280385 -0.231355 -1.240463
  H 3.934103 1.378914 1.544377
  H 3.830899 -0.266473 2.113000
  H 1.573022 0.238689 3.126196
  H 1.743397 1.920756 2.611963
  H 1.943559 -0.567651 -1.494685
  H 5.246116 0.329530 -0.548654
 19
 91.316436
  C 1.099364 0.191672 0.410626
  C 2.524916 0.165990 0.483801
  C 3.227948 0.578953 1.764152
  C 2.289715 1.011988 2.886422
  H 2.877325 1.222117 3.776686
  C 3.255271 -0.242919 -0.552330
  C 4.519913 -0.263741 -1.105309
  C 4.903860 -0.912655 -2.216679
  H 4.207040 -1.476466 -2.816684
  H 5.928139 -0.883917 -2.555322
  H 0.586432 1.081420 0.744238
  H 0.560447 -0.727366 0.585982
  H 1.248006 -0.248985 -1.369602
  H 3.925304 1.384498 1.536246
  H 3.821145 -0.271196 2.095851
  H 1.573307 0.226395 3.132372
  H 1.748446 1.913469 2.627882
  H 1.901242 -0.583272 -1.612310
  H 5.238090 0.365057 -0.577206
