 20
 0.000000
  H 1.426288 0.148697 0.421587
  C 2.505304 0.141702 0.403607
  C 3.252082 0.612511 1.574506
  H 2.620355 0.940186 2.390436
  C 3.086184 -0.326030 -0.760700
  C 4.463027 -0.415063 -0.982841
  C 5.133797 -0.870460 -2.118471
  C 4.615193 -1.389056 -3.411302
  C 3.123188 -1.498196 -3.684200
  H 2.975568 -1.898158 -4.681261
  O 6.448294 -0.871197 -2.120784
  H 3.908362 1.437172 1.285919
  H 3.908940 -0.182033 1.936688
  H 2.413959 -0.639172 -1.540231
  H 5.096691 -0.087510 -0.166793
  H 5.070813 -2.377482 -3.541890
  H 5.071231 -0.765254 -4.188834
  H 2.643130 -0.523664 -3.641763
  H 2.642699 -2.172966 -2.980097
  H 6.855833 -0.541019 -1.296748
 20
 0.512718
  H 1.447368 0.013106 0.495833
  C 2.525672 0.000988 0.431776
  C 3.263848 0.755904 1.448770
  H 2.606868 1.107934 2.236844
  C 3.084139 -0.653343 -0.642689
  C 4.464455 -0.700431 -0.875385
  C 5.143283 -0.995569 -2.058948
  C 4.613707 -1.323684 -3.408622
  C 3.119397 -1.409590 -3.667656
  H 2.966700 -1.607089 -4.725383
  O 6.455745 -0.925044 -2.075822
  H 3.750985 1.623815 0.998180
  H 4.063243 0.154702 1.883161
  H 2.411717 -1.122796 -1.339173
  H 5.094756 -0.399830 -0.045665
  H 5.084004 -2.272825 -3.692874
  H 5.057202 -0.588442 -4.090319
  H 2.618296 -0.475584 -3.430970
  H 2.662295 -2.226397 -3.116434
  H 6.876366 -0.745598 -1.212471
 20
 2.309928
  H 1.453078 -0.054467 0.481188
  C 2.532224 -0.060834 0.403998
  C 3.260670 0.859842 1.280705
  H 2.642912 1.179381 2.112999
  C 3.098324 -0.838725 -0.574633
  C 4.485510 -0.897863 -0.797746
  C 5.159339 -1.058102 -2.001009
  C 4.607117 -1.214482 -3.375325
  C 3.109900 -1.331706 -3.598883
  H 2.926557 -1.404795 -4.668864
  O 6.470359 -0.976936 -2.022565
  H 3.542009 1.755823 0.723752
  H 4.187910 0.425503 1.647324
  H 2.436695 -1.418447 -1.200616
  H 5.115146 -0.711762 0.069980
  H 5.106997 -2.091283 -3.804435
  H 4.997511 -0.369745 -3.956383
  H 2.581663 -0.456976 -3.230633
  H 2.705331 -2.227502 -3.138367
  H 6.905064 -0.944070 -1.144118
 20
 6.792355
  H 1.460986 -0.040032 0.353901
  C 2.537455 -0.103293 0.287041
  C 3.293955 0.945471 0.987885
  H 2.698762 1.381258 1.785675
  C 3.094904 -1.055925 -0.508740
  C 4.498424 -1.134035 -0.715390
  C 5.159196 -1.049892 -1.929443
  C 4.576318 -1.030410 -3.296396
  C 3.082130 -1.204822 -3.492792
  H 2.866874 -1.166380 -4.557470
  O 6.463346 -0.881086 -1.963319
  H 3.544391 1.755750 0.299580
  H 4.235179 0.566852 1.381649
  H 2.442948 -1.726287 -1.047772
  H 5.115333 -1.082011 0.176456
  H 5.105001 -1.811053 -3.856921
  H 4.904569 -0.095947 -3.765935
  H 2.520549 -0.409945 -3.009407
  H 2.739239 -2.166871 -3.124458
  H 6.919488 -0.967263 -1.104812
 20
 12.028058
  H 1.470513 -0.071038 0.241197
  C 2.544532 -0.162449 0.171415
  C 3.323748 0.970779 0.708065
  H 2.764881 1.476685 1.491313
  C 3.091726 -1.225731 -0.453571
  C 4.510519 -1.326729 -0.653577
  C 5.160714 -1.042440 -1.839220
  C 4.553433 -0.877063 -3.184351
  C 3.070087 -1.126781 -3.373210
  H 2.831913 -1.025404 -4.428759
  O 6.459065 -0.830784 -1.860890
  H 3.508185 1.712256 -0.071742
  H 4.292618 0.646408 1.081126
  H 2.445180 -1.984382 -0.873968
  H 5.119181 -1.453082 0.236575
  H 5.116490 -1.544592 -3.848593
  H 4.811613 0.127443 -3.539314
  H 2.470202 -0.405590 -2.823864
  H 2.791002 -2.129846 -3.066269
  H 6.927807 -1.007096 -1.023661
 20
 16.098920
  H 1.446394 -0.174429 0.163603
  C 2.519260 -0.227558 0.067644
  C 3.261897 1.006010 0.434761
  H 2.718211 1.571589 1.186616
  C 3.110179 -1.325023 -0.386704
  C 4.532938 -1.446359 -0.603124
  C 5.197851 -1.049539 -1.758132
  C 4.574277 -0.769505 -3.081106
  C 3.085321 -1.000676 -3.271164
  H 2.837909 -0.844375 -4.318081
  O 6.509063 -0.887731 -1.777626
  H 3.356345 1.646248 -0.444152
  H 4.258640 0.782263 0.800414
  H 2.516144 -2.209651 -0.593826
  H 5.120900 -1.807872 0.233131
  H 5.136522 -1.363740 -3.812240
  H 4.823182 0.268534 -3.338253
  H 2.489176 -0.312722 -2.682131
  H 2.805385 -2.019737 -3.016064
  H 6.976721 -1.104168 -0.948154
 20
 11.811307
  H 1.457972 -0.142098 -0.005101
  C 2.530931 -0.250081 -0.076092
  C 3.297096 0.990578 0.168626
  H 2.740489 1.670824 0.807728
  C 3.103670 -1.447098 -0.328832
  C 4.508165 -1.587950 -0.575280
  C 5.173013 -1.002222 -1.639270
  C 4.564814 -0.644025 -2.951725
  C 3.092092 -0.925933 -3.199241
  H 2.879620 -0.760283 -4.252507
  O 6.470901 -0.798240 -1.636579
  H 3.439368 1.508647 -0.783080
  H 4.273443 0.801514 0.602090
  H 2.491288 -2.341785 -0.344319
  H 5.091441 -2.111941 0.173527
  H 5.165951 -1.172283 -3.700146
  H 4.775946 0.415258 -3.134666
  H 2.445948 -0.271941 -2.624843
  H 2.843809 -1.959278 -2.971966
  H 6.939363 -1.066389 -0.823952
 20
 8.956922
  H 1.495719 -0.088729 -0.141019
  C 2.565004 -0.241936 -0.187596
  C 3.352503 0.990197 -0.007211
  H 2.799296 1.709338 0.592211
  C 3.106234 -1.490138 -0.274550
  C 4.472403 -1.690144 -0.581720
  C 5.140624 -0.969839 -1.570096
  C 4.541919 -0.545719 -2.867987
  C 3.097590 -0.908717 -3.174381
  H 2.909494 -0.727438 -4.229692
  O 6.430148 -0.731534 -1.534269
  H 3.504198 1.473027 -0.975800
  H 4.323934 0.806575 0.440271
  H 2.474651 -2.353122 -0.102505
  H 5.042318 -2.381686 0.026267
  H 5.194302 -0.986294 -3.629502
  H 4.688360 0.533340 -2.979529
  H 2.393513 -0.310340 -2.605090
  H 2.903825 -1.959206 -2.975416
  H 6.895693 -1.053628 -0.739475
 20
 11.802271
  H 1.569271 0.054949 -0.331456
  C 2.628447 -0.165876 -0.283690
  C 3.457797 1.011391 0.023373
  H 2.887721 1.709733 0.634256
  C 3.090193 -1.458718 -0.262535
  C 4.410181 -1.743614 -0.625122
  C 5.077917 -0.923008 -1.548662
  C 4.488912 -0.500888 -2.852265
  C 3.108196 -1.018587 -3.223839
  H 2.945822 -0.853598 -4.285301
  O 6.344027 -0.607441 -1.459271
  H 3.698750 1.567398 -0.886770
  H 4.383738 0.749781 0.524396
  H 2.407103 -2.258846 -0.009146
  H 4.952725 -2.548690 -0.147393
  H 5.216923 -0.836184 -3.598617
  H 4.512283 0.591288 -2.925262
  H 2.320062 -0.502148 -2.684434
  H 3.020966 -2.083818 -3.028131
  H 6.818953 -0.969721 -0.685851
 20
 17.616611
  H 1.653029 0.172039 -0.527738
  C 2.689355 -0.083727 -0.341049
  C 3.524905 1.051799 0.085757
  H 2.926205 1.711140 0.715447
  C 3.093646 -1.411761 -0.248901
  C 4.357089 -1.770130 -0.673723
  C 5.038040 -0.903313 -1.566406
  C 4.466272 -0.504969 -2.879875
  C 3.123772 -1.098151 -3.275990
  H 2.968463 -0.939043 -4.339287
  O 6.269019 -0.528097 -1.418919
  H 3.830462 1.676479 -0.759140
  H 4.411989 0.733123 0.623477
  H 2.409862 -2.150908 0.143456
  H 4.827057 -2.688509 -0.360041
  H 5.228984 -0.806634 -3.606334
  H 4.431947 0.585991 -2.955252
  H 2.301054 -0.628804 -2.746860
  H 3.093003 -2.166763 -3.084588
  H 6.735346 -0.884502 -0.637772
 20
 26.841036
  H 1.887358 0.332178 -0.765284
  C 2.859038 -0.000362 -0.417046
  C 3.681530 1.048213 0.205630
  H 3.027953 1.701540 0.786534
  C 3.099685 -1.387081 -0.262448
  C 4.302368 -1.810377 -0.728393
  C 4.925234 -0.833955 -1.588722
  C 4.383069 -0.507300 -2.933771
  C 3.110213 -1.223746 -3.360262
  H 2.974165 -1.096236 -4.430261
  O 6.100156 -0.333556 -1.364102
  H 4.144004 1.709196 -0.533098
  H 4.454748 0.638946 0.848111
  H 2.348518 -2.034698 0.168604
  H 4.767352 -2.760804 -0.520719
  H 5.193075 -0.766546 -3.626250
  H 4.268072 0.575556 -3.039894
  H 2.231895 -0.824351 -2.864563
  H 3.169147 -2.287894 -3.150799
  H 6.554367 -0.653813 -0.559554
 20
 30.444926
  H 2.145487 0.426978 -0.991607
  C 3.025776 0.046292 -0.486178
  C 3.779979 1.037847 0.296424
  H 3.069137 1.702542 0.794302
  C 3.116270 -1.379274 -0.238376
  C 4.251971 -1.845123 -0.765616
  C 4.812265 -0.764509 -1.589680
  C 4.303113 -0.491054 -2.964113
  C 3.094651 -1.301708 -3.411956
  H 2.977642 -1.199393 -4.486372
  O 5.942024 -0.184887 -1.313672
  H 4.372788 1.698361 -0.342476
  H 4.425926 0.577845 1.038615
  H 2.330074 -1.946901 0.234356
  H 4.714087 -2.810000 -0.646411
  H 5.148907 -0.712688 -3.628277
  H 4.123849 0.579886 -3.091956
  H 2.177102 -0.961055 -2.944985
  H 3.223599 -2.355598 -3.185426
  H 6.386876 -0.492834 -0.501005
 20
 28.574505
  H 2.382798 0.425250 -1.166845
  C 3.197531 0.034392 -0.566470
  C 3.832844 1.028376 0.325308
  H 3.059887 1.701341 0.704504
  C 3.150732 -1.391600 -0.200071
  C 4.226633 -1.888236 -0.800790
  C 4.720747 -0.715621 -1.570079
  C 4.247754 -0.465918 -2.976835
  C 3.095362 -1.339368 -3.447365
  H 2.997135 -1.244002 -4.525180
  O 5.874769 -0.147878 -1.296484
  H 4.526317 1.671949 -0.218971
  H 4.353067 0.564657 1.158833
  H 2.365606 -1.881777 0.348471
  H 4.692743 -2.854967 -0.740888
  H 5.126241 -0.645500 -3.609390
  H 4.014059 0.592139 -3.116320
  H 2.148384 -1.044424 -3.005168
  H 3.271698 -2.384853 -3.212034
  H 6.330765 -0.501216 -0.510577
 20
 25.362747
  H 2.560716 0.426027 -1.274561
  C 3.319739 0.038467 -0.601646
  C 3.842223 1.039567 0.369276
  H 3.021102 1.688722 0.674992
  C 3.160910 -1.369788 -0.163076
  C 4.156513 -1.908000 -0.857695
  C 4.640344 -0.678743 -1.565086
  C 4.231516 -0.440147 -3.010143
  C 3.145553 -1.370305 -3.514878
  H 3.052179 -1.247478 -4.592735
  O 5.843226 -0.178850 -1.289651
  H 4.581291 1.689765 -0.097317
  H 4.277501 0.574504 1.250569
  H 2.443861 -1.781855 0.523394
  H 4.577703 -2.896237 -0.891222
  H 5.152853 -0.563900 -3.593113
  H 3.933311 0.599050 -3.162339
  H 2.173629 -1.144996 -3.079162
  H 3.383599 -2.407759 -3.300365
  H 6.296798 -0.605542 -0.540723
