 20
 0.000000
  C 0.980741 0.050640 0.172990
  C 2.483899 0.051369 0.189601
  C 3.238373 -0.025643 1.497182
  C 2.406811 -0.086062 2.769944
  H 3.071614 -0.135962 3.630435
  C 3.138442 0.118772 -0.979287
  H 2.558889 0.171123 -1.892869
  C 4.565001 0.130101 -1.165130
  C 5.133344 0.199512 -2.368752
  O 6.465361 0.214447 -2.615105
  H 0.555893 -0.024179 1.166744
  H 0.611245 -0.788513 -0.417124
  H 0.603914 0.965646 -0.285391
  H 3.896779 0.846087 1.562742
  H 3.881684 -0.910641 1.468431
  H 1.774066 -0.966949 2.786073
  H 1.787035 0.797673 2.877293
  H 5.196898 0.079863 -0.287982
  H 4.564144 0.251645 -3.284272
  H 6.948882 0.166849 -1.780460
 20
 3.969439
  C 0.985636 0.012411 0.183789
  C 2.465190 0.041701 0.190959
  C 3.229333 -0.036781 1.498399
  C 2.399363 -0.074559 2.773492
  H 3.064685 -0.126207 3.632444
  C 3.121988 0.111830 -0.977815
  H 2.543543 0.159816 -1.892615
  C 4.551177 0.137133 -1.163862
  C 5.121044 0.210124 -2.371203
  O 6.452148 0.233065 -2.616951
  H 0.528009 -0.025589 1.158028
  H 0.588432 -0.790723 -0.429121
  H 0.824619 0.949408 -0.285873
  H 3.901335 0.823924 1.555520
  H 3.858992 -0.930936 1.474893
  H 1.754013 -0.948921 2.799184
  H 1.791484 0.821196 2.874896
  H 5.183203 0.091841 -0.286374
  H 4.551930 0.257181 -3.286880
  H 6.934304 0.189211 -1.782398
 20
 11.519363
  C 0.979355 -0.021893 0.201664
  C 2.460644 0.016938 0.199709
  C 3.227921 -0.059472 1.490924
  C 2.390188 -0.059548 2.764312
  H 3.047281 -0.110981 3.627828
  C 3.114772 0.088150 -0.970997
  H 2.536048 0.118164 -1.885134
  C 4.538455 0.143761 -1.161473
  C 5.100573 0.219434 -2.367896
  O 6.443068 0.267624 -2.620908
  H 0.507558 -0.023749 1.160905
  H 0.561544 -0.766321 -0.441102
  H 1.026973 0.947279 -0.258840
  H 3.920239 0.784521 1.535909
  H 3.833513 -0.970844 1.476369
  H 1.726085 -0.919916 2.798482
  H 1.799427 0.850191 2.846521
  H 5.174177 0.115454 -0.288245
  H 4.524621 0.249145 -3.284701
  H 6.938295 0.238148 -1.773463
 20
 21.976167
  C 0.953309 -0.044592 0.207374
  C 2.455870 0.009961 0.198269
  C 3.226165 -0.063088 1.485497
  C 2.390918 -0.047957 2.759590
  H 3.049218 -0.097211 3.622462
  C 3.113361 0.082441 -0.973268
  H 2.538487 0.103208 -1.889851
  C 4.530217 0.146533 -1.156662
  C 5.099196 0.223724 -2.363455
  O 6.444382 0.281461 -2.609995
  H 0.471014 -0.044275 1.168612
  H 0.521440 -0.745081 -0.477187
  H 1.171225 0.923067 -0.210490
  H 3.928162 0.775365 1.524287
  H 3.822739 -0.982412 1.472568
  H 1.725768 -0.897726 2.801083
  H 1.809804 0.859878 2.835566
  H 5.161796 0.123693 -0.280336
  H 4.528070 0.247338 -3.283952
  H 6.921124 0.256915 -1.781393
 20
 32.427568
  C 0.932136 -0.065206 0.203419
  C 2.437196 0.008174 0.187110
  C 3.221227 -0.063720 1.483381
  C 2.407504 -0.037203 2.766656
  H 3.080912 -0.085452 3.618310
  C 3.098637 0.079384 -0.985613
  H 2.525254 0.089966 -1.904494
  C 4.527287 0.151630 -1.162690
  C 5.103517 0.226383 -2.362339
  O 6.444206 0.287957 -2.596582
  H 0.435226 -0.081301 1.155556
  H 0.480752 -0.718508 -0.524577
  H 1.277320 0.906124 -0.163251
  H 3.930140 0.765906 1.513069
  H 3.807345 -0.984417 1.468149
  H 1.732998 -0.892532 2.824420
  H 1.827474 0.883728 2.848115
  H 5.153873 0.135418 -0.282073
  H 4.541269 0.243358 -3.285366
  H 6.917020 0.267305 -1.756316
 20
 40.973962
  C 0.941722 -0.084975 0.217625
  C 2.444568 0.009584 0.183887
  C 3.220103 -0.057337 1.488973
  C 2.382278 -0.030297 2.764881
  H 3.042144 -0.073855 3.629919
  C 3.111337 0.078567 -0.991360
  H 2.536096 0.083491 -1.907679
  C 4.526366 0.152121 -1.172461
  C 5.099737 0.225654 -2.378215
  O 6.437766 0.288416 -2.614712
  H 0.459372 -0.127274 1.170906
  H 0.480303 -0.673112 -0.550519
  H 1.376766 0.889978 -0.082821
  H 3.929331 0.775834 1.528222
  H 3.806769 -0.981531 1.478713
  H 1.711790 -0.884353 2.813551
  H 1.798607 0.884977 2.833806
  H 5.158495 0.138517 -0.295367
  H 4.534995 0.239909 -3.300629
  H 6.910646 0.268635 -1.774326
 20
 47.000741
  C 0.931365 -0.101571 0.223298
  C 2.431166 0.006315 0.177260
  C 3.209439 -0.054911 1.480869
  C 2.391154 -0.021592 2.761816
  H 3.064654 -0.057113 3.616619
  C 3.100308 0.071146 -1.001351
  H 2.524347 0.066607 -1.918935
  C 4.522110 0.151802 -1.176345
  C 5.103158 0.222913 -2.373083
  O 6.461724 0.293709 -2.602432
  H 0.458822 -0.182145 1.173466
  H 0.456020 -0.614629 -0.588116
  H 1.439814 0.880148 -0.005006
  H 3.918226 0.774197 1.510594
  H 3.791419 -0.975288 1.468514
  H 1.718696 -0.886644 2.828247
  H 1.800141 0.902695 2.833812
  H 5.150193 0.145040 -0.294317
  H 4.544570 0.230599 -3.300518
  H 6.924046 0.279195 -1.766587
 20
 51.521873
  C 0.928575 -0.115603 0.224886
  C 2.428633 0.005702 0.173389
  C 3.203696 -0.052566 1.470940
  C 2.394574 -0.013776 2.758364
  H 3.072356 -0.040681 3.604883
  C 3.102545 0.066730 -1.008583
  H 2.529671 0.053755 -1.922189
  C 4.520392 0.153324 -1.177469
  C 5.111627 0.222090 -2.375993
  O 6.449321 0.295699 -2.589835
  H 0.447808 -0.228368 1.183740
  H 0.444431 -0.563911 -0.618397
  H 1.498098 0.874512 0.055260
  H 3.912185 0.773761 1.493655
  H 3.786183 -0.974886 1.457561
  H 1.731983 -0.874050 2.837831
  H 1.806265 0.899072 2.830026
  H 5.140442 0.152523 -0.296195
  H 4.561928 0.222859 -3.307979
  H 6.906813 0.285109 -1.739289
 20
 54.820697
  C 0.927338 -0.129604 0.227933
  C 2.430998 0.005762 0.176824
  C 3.207139 -0.049415 1.478249
  C 2.384945 -0.006908 2.764155
  H 3.060492 -0.024070 3.624277
  C 3.104697 0.061842 -1.009240
  H 2.526129 0.043528 -1.921974
  C 4.525097 0.153422 -1.184112
  C 5.112213 0.220320 -2.382212
  O 6.459481 0.297862 -2.599856
  H 0.453781 -0.279460 1.162430
  H 0.429653 -0.505004 -0.650325
  H 1.548924 0.867123 0.116760
  H 3.913732 0.778628 1.501147
  H 3.793018 -0.974365 1.469964
  H 1.728888 -0.866876 2.843200
  H 1.792150 0.897628 2.824224
  H 5.148867 0.157388 -0.306344
  H 4.557583 0.216805 -3.317638
  H 6.916079 0.289972 -1.752963
 20
 57.755947
  C 0.930742 -0.142043 0.224724
  C 2.431790 0.008106 0.174197
  C 3.212293 -0.046172 1.478270
  C 2.382079 -0.003052 2.764804
  H 3.051815 -0.012669 3.626375
  C 3.107015 0.058954 -1.015633
  H 2.525121 0.037682 -1.931163
  C 4.522936 0.152874 -1.189306
  C 5.112513 0.218560 -2.388784
  O 6.460364 0.298625 -2.605405
  H 0.441239 -0.324884 1.173605
  H 0.436936 -0.448603 -0.658460
  H 1.590806 0.856188 0.157688
  H 3.918589 0.784452 1.501107
  H 3.797927 -0.965791 1.473276
  H 1.727914 -0.870193 2.844220
  H 1.778743 0.904190 2.818496
  H 5.151928 0.160061 -0.304374
  H 4.567850 0.212831 -3.310144
  H 6.916851 0.292408 -1.755812
 20
 60.408170
  C 0.937286 -0.154084 0.222001
  C 2.430032 0.015367 0.174865
  C 3.214128 -0.039813 1.486553
  C 2.376057 0.000916 2.775866
  H 3.047238 -0.002290 3.649431
  C 3.107187 0.061447 -1.017127
  H 2.525503 0.037208 -1.928088
  C 4.525586 0.157610 -1.193070
  C 5.115567 0.219518 -2.391554
  O 6.465491 0.293458 -2.606902
  H 0.449195 -0.353720 1.151849
  H 0.443617 -0.412138 -0.677796
  H 1.623283 0.848439 0.187144
  H 3.913089 0.787538 1.511249
  H 3.804934 -0.958930 1.484126
  H 1.730004 -0.865649 2.853454
  H 1.770987 0.895399 2.824404
  H 5.149910 0.165979 -0.319824
  H 4.563997 0.209281 -3.325633
  H 6.919996 0.287595 -1.758183
 20
 62.535232
  C 0.929168 -0.168506 0.234399
  C 2.433019 0.018800 0.186371
  C 3.214825 -0.037773 1.480200
  C 2.390637 0.003469 2.755423
  H 3.061834 0.004857 3.619987
  C 3.109807 0.060375 -1.012998
  H 2.523765 0.036573 -1.930036
  C 4.520560 0.158111 -1.183806
  C 5.114683 0.219518 -2.383218
  O 6.464428 0.293623 -2.595052
  H 0.440159 -0.375012 1.158155
  H 0.421907 -0.390402 -0.689921
  H 1.650567 0.848719 0.218294
  H 3.919859 0.798986 1.500195
  H 3.803617 -0.956437 1.474348
  H 1.745289 -0.869731 2.837120
  H 1.776782 0.905806 2.802955
  H 5.152527 0.167871 -0.291981
  H 4.572388 0.208355 -3.307203
  H 6.917430 0.288451 -1.744107
 20
 64.725546
  C 0.926429 -0.185268 0.230662
  C 2.429498 0.023319 0.186708
  C 3.215458 -0.035643 1.483827
  C 2.391520 0.006795 2.756362
  H 3.064532 0.012821 3.622429
  C 3.109628 0.061900 -1.014343
  H 2.530419 0.039069 -1.917577
  C 4.525220 0.164341 -1.185724
  C 5.122425 0.223796 -2.383918
  O 6.472464 0.291460 -2.590732
  H 0.428357 -0.391049 1.158923
  H 0.423153 -0.370054 -0.693079
  H 1.675331 0.850639 0.229697
  H 3.927580 0.812331 1.502328
  H 3.808281 -0.965640 1.477589
  H 1.748238 -0.870712 2.840853
  H 1.774529 0.909060 2.801134
  H 5.149376 0.173891 -0.303195
  H 4.576945 0.208830 -3.320086
  H 6.921671 0.286211 -1.738120
 20
 66.762411
  C 0.932820 -0.200869 0.228259
  C 2.428756 0.029882 0.190014
  C 3.218214 -0.034243 1.485477
  C 2.398031 0.011857 2.755332
  H 3.075301 0.018543 3.626190
  C 3.113741 0.060079 -1.015058
  H 2.528834 0.038518 -1.926140
  C 4.521579 0.156852 -1.182447
  C 5.123590 0.219259 -2.381767
  O 6.467027 0.302063 -2.581622
  H 0.429619 -0.391938 1.151309
  H 0.426556 -0.355825 -0.705947
  H 1.704169 0.856282 0.237635
  H 3.926635 0.802960 1.502227
  H 3.804083 -0.960025 1.479383
  H 1.757106 -0.859021 2.839806
  H 1.786407 0.908808 2.797192
  H 5.145004 0.170563 -0.296448
  H 4.582027 0.210892 -3.318644
  H 6.913107 0.298730 -1.724428
