 9
 0.000000
  C 1.048910 -0.112477 -0.038533
  C 2.547345 -0.142632 -0.039724
  C 3.250097 -1.258324 -0.046515
  H 4.325796 -1.271562 -0.045917
  H 0.688221 0.913787 -0.032826
  H 0.653096 -0.612404 0.844150
  H 0.651096 -0.605139 -0.923716
  H 3.050274 0.814895 -0.032491
  H 2.749087 -2.213140 -0.053267
 9
 5.557993
  C 1.037291 -0.077256 -0.087710
  C 2.503126 -0.135482 -0.037428
  C 3.218855 -1.273298 -0.036512
  H 4.297006 -1.271543 0.022958
  H 0.628229 0.934808 -0.032269
  H 0.899116 -0.615041 0.824673
  H 0.597231 -0.619415 -0.936384
  H 3.043923 0.811312 -0.004763
  H 2.740142 -2.240786 -0.081349
 9
 18.443888
  C 1.027295 -0.063011 -0.122623
  C 2.476117 -0.134356 -0.027502
  C 3.187109 -1.269524 -0.025972
  H 4.255216 -1.267530 0.066191
  H 0.597828 0.920613 -0.035817
  H 1.105798 -0.603639 0.794444
  H 0.575801 -0.632102 -0.933555
  H 3.036911 0.787469 0.024212
  H 2.718459 -2.228937 -0.101911
 9
 32.079137
  C 1.007144 -0.052866 -0.148744
  C 2.457630 -0.150987 -0.002813
  C 3.185237 -1.283839 -0.035489
  H 4.247264 -1.274510 0.111463
  H 0.580599 0.936504 -0.103012
  H 1.251148 -0.514107 0.799828
  H 0.537161 -0.691276 -0.881799
  H 3.018938 0.774991 0.099583
  H 2.724420 -2.242968 -0.192304
 9
 43.378460
  C 0.994635 -0.043307 -0.171284
  C 2.445314 -0.167297 0.019277
  C 3.188848 -1.295937 -0.048868
  H 4.243005 -1.284504 0.143577
  H 0.579207 0.950242 -0.178884
  H 1.365860 -0.424350 0.804724
  H 0.499213 -0.746316 -0.820613
  H 2.989716 0.757059 0.183860
  H 2.742587 -2.249135 -0.273080
 9
 51.906066
  C 0.988873 -0.035515 -0.193024
  C 2.435373 -0.179648 0.041247
  C 3.192617 -1.305317 -0.055210
  H 4.242180 -1.293057 0.160626
  H 0.581436 0.956502 -0.232652
  H 1.454917 -0.361111 0.805418
  H 0.474664 -0.782062 -0.774655
  H 2.964707 0.745551 0.247994
  H 2.759772 -2.249664 -0.325228
 9
 58.949433
  C 0.987324 -0.030065 -0.215306
  C 2.428535 -0.184010 0.058844
  C 3.196840 -1.309637 -0.062515
  H 4.241805 -1.297231 0.179075
  H 0.579363 0.960396 -0.262283
  H 1.527735 -0.326258 0.805442
  H 0.464836 -0.803937 -0.742387
  H 2.951016 0.742202 0.289630
  H 2.769666 -2.253336 -0.357494
 9
 64.805483
  C 0.991881 -0.025295 -0.240619
  C 2.425443 -0.180780 0.088175
  C 3.198022 -1.312834 -0.054286
  H 4.245606 -1.300693 0.172239
  H 0.573472 0.958954 -0.286507
  H 1.582424 -0.310818 0.817994
  H 0.468144 -0.824149 -0.726981
  H 2.951751 0.741674 0.319353
  H 2.768632 -2.244434 -0.373127
 9
 69.601321
  C 0.998191 -0.017215 -0.270125
  C 2.423006 -0.175896 0.102223
  C 3.205225 -1.313626 -0.059410
  H 4.249533 -1.303225 0.182045
  H 0.561831 0.959143 -0.286407
  H 1.634086 -0.312956 0.833185
  H 0.470726 -0.830506 -0.723273
  H 2.953397 0.744305 0.332505
  H 2.772567 -2.245967 -0.372593
 9
 73.087021
  C 1.010165 -0.010718 -0.303822
  C 2.420020 -0.170572 0.120541
  C 3.209224 -1.315068 -0.056080
  H 4.250610 -1.307911 0.195529
  H 0.554857 0.956080 -0.288547
  H 1.683785 -0.320146 0.871176
  H 0.475731 -0.838734 -0.718730
  H 2.955625 0.750580 0.333453
  H 2.775089 -2.240839 -0.384084
 9
 75.101227
  C 1.026120 -0.001068 -0.345369
  C 2.415649 -0.166491 0.136956
  C 3.213393 -1.316785 -0.052128
  H 4.256529 -1.306725 0.193410
  H 0.548678 0.952761 -0.280163
  H 1.731297 -0.339102 0.916139
  H 0.484137 -0.838355 -0.728476
  H 2.954411 0.756121 0.338246
  H 2.775044 -2.243324 -0.369082
 9
 75.918790
  C 1.042150 0.006796 -0.382722
  C 2.408918 -0.162499 0.152184
  C 3.215164 -1.318998 -0.043837
  H 4.254974 -1.310501 0.214894
  H 0.544591 0.947278 -0.272343
  H 1.790561 -0.356810 0.974681
  H 0.492446 -0.839406 -0.734899
  H 2.951745 0.761461 0.333349
  H 2.778451 -2.242467 -0.375412
 9
 75.778362
  C 1.059416 0.017048 -0.417161
  C 2.399641 -0.161014 0.168668
  C 3.220413 -1.322031 -0.039940
  H 4.254598 -1.313807 0.237689
  H 0.543065 0.942055 -0.260939
  H 1.854011 -0.382677 1.035253
  H 0.500103 -0.832193 -0.748938
  H 2.944873 0.764460 0.333193
  H 2.784571 -2.247227 -0.366378
 9
 75.665105
  C 1.074899 0.023401 -0.435937
  C 2.390426 -0.161574 0.188405
  C 3.223533 -1.327565 -0.025797
  H 4.251316 -1.321492 0.275605
  H 0.545733 0.937191 -0.251716
  H 1.921572 -0.406532 1.090738
  H 0.512088 -0.827067 -0.762122
  H 2.941507 0.764942 0.336765
  H 2.792283 -2.249048 -0.368160
