 17
 0.000000
  C 0.922662 0.056982 0.201540
  C 2.407091 0.059189 0.013354
  H 2.995533 0.008883 0.919163
  C 3.044267 0.122891 -1.161047
  C 2.320197 0.197684 -2.474991
  H 1.245325 0.189183 -2.332462
  C 4.496142 0.127879 -1.193761
  C 5.253836 0.198906 -2.290960
  O 6.608307 0.204043 -2.303220
  H 0.673083 -0.003567 1.257226
  H 0.463460 -0.791495 -0.306354
  H 0.480504 0.968527 -0.202025
  H 2.594837 -0.649656 -3.102961
  H 2.593931 1.111241 -3.002445
  H 4.988962 0.068258 -0.229045
  H 4.862119 0.260873 -3.293492
  H 6.940635 0.148092 -1.399401
 17
 0.091891
  C 0.919001 0.061288 0.206789
  C 2.400754 0.007215 0.005030
  H 2.988760 -0.100116 0.906873
  C 3.040203 0.101116 -1.166290
  C 2.325561 0.218348 -2.481773
  H 1.249710 0.172590 -2.353412
  C 4.491783 0.098711 -1.198038
  C 5.250486 0.228666 -2.286615
  O 6.606689 0.236242 -2.295365
  H 0.691143 0.272132 1.248713
  H 0.451386 -0.889244 -0.054389
  H 0.469367 0.841199 -0.406021
  H 2.626683 -0.595494 -3.139464
  H 2.580208 1.158710 -2.968748
  H 4.983206 -0.011465 -0.236950
  H 4.860566 0.345639 -3.285148
  H 6.937597 0.130794 -1.394009
 17
 0.669216
  C 0.918626 0.080981 0.205714
  C 2.391216 -0.076683 0.000585
  H 2.967614 -0.268947 0.896108
  C 3.035008 0.067701 -1.162692
  C 2.332193 0.212710 -2.483405
  H 1.257360 0.112313 -2.380292
  C 4.486912 0.067629 -1.202031
  C 5.243753 0.275672 -2.279564
  O 6.599781 0.301237 -2.285196
  H 0.736046 0.539558 1.176457
  H 0.400423 -0.878280 0.187516
  H 0.496075 0.733165 -0.556235
  H 2.679907 -0.564346 -3.161981
  H 2.552364 1.179501 -2.934381
  H 4.982216 -0.094307 -0.249801
  H 4.854037 0.453057 -3.269039
  H 6.931225 0.136494 -1.392939
 17
 3.056791
  C 0.927699 0.112482 0.196809
  C 2.378088 -0.185824 -0.004798
  H 2.925721 -0.515452 0.867989
  C 3.027721 0.041913 -1.151894
  C 2.334327 0.176939 -2.481314
  H 1.264675 0.017743 -2.399678
  C 4.479154 0.054743 -1.200806
  C 5.230539 0.336392 -2.266056
  O 6.585578 0.396955 -2.267502
  H 0.825474 0.756329 1.072563
  H 0.322734 -0.776085 0.365863
  H 0.566817 0.687751 -0.653629
  H 2.735052 -0.578667 -3.154474
  H 2.509397 1.155176 -2.927929
  H 4.981220 -0.138900 -0.257495
  H 4.837419 0.557341 -3.245339
  H 6.920956 0.183869 -1.386991
 17
 9.634371
  C 0.944304 0.140442 0.192281
  C 2.360525 -0.293568 -0.011035
  H 2.846034 -0.839254 0.784336
  C 3.018472 0.050254 -1.133973
  C 2.330508 0.151534 -2.473170
  H 1.264129 -0.033103 -2.400693
  C 4.474040 0.097522 -1.188478
  C 5.224273 0.327993 -2.267459
  O 6.577121 0.438822 -2.263407
  H 0.933182 0.836582 1.036584
  H 0.239752 -0.658220 0.407799
  H 0.680269 0.753252 -0.672607
  H 2.761443 -0.616076 -3.113606
  H 2.484126 1.119118 -2.953259
  H 4.977840 0.011531 -0.228686
  H 4.833070 0.466935 -3.262886
  H 6.907056 0.337650 -1.365126
 17
 22.288612
  C 0.996683 0.204502 0.192745
  C 2.353230 -0.385720 -0.026168
  H 2.772548 -1.080798 0.680445
  C 2.990514 0.048954 -1.129201
  C 2.314907 0.049776 -2.482672
  H 1.256990 -0.181736 -2.408778
  C 4.443456 0.109544 -1.180027
  C 5.199484 0.420129 -2.238843
  O 6.543050 0.567696 -2.218521
  H 1.091597 0.964757 0.978550
  H 0.191127 -0.469942 0.465767
  H 0.872297 0.843912 -0.691889
  H 2.798284 -0.730236 -3.070663
  H 2.423501 0.990684 -3.022779
  H 4.948372 -0.034464 -0.228351
  H 4.808829 0.602215 -3.223732
  H 6.870877 0.383939 -1.339454
 17
 41.730225
  C 1.059574 0.263423 0.207003
  C 2.353907 -0.435592 -0.020496
  H 2.707488 -1.258475 0.574792
  C 2.965794 0.050893 -1.130401
  C 2.296508 -0.057124 -2.481989
  H 1.238976 -0.288781 -2.384800
  C 4.414739 0.121882 -1.170649
  C 5.161751 0.526279 -2.208769
  O 6.506717 0.628917 -2.199703
  H 1.143998 1.095768 0.918843
  H 0.190583 -0.345769 0.425397
  H 1.171461 0.944386 -0.680422
  H 2.783640 -0.881811 -3.000576
  H 2.400833 0.835465 -3.096473
  H 4.918854 -0.095333 -0.230664
  H 4.762030 0.824945 -3.161967
  H 6.837777 0.386918 -1.339477
 17
 68.207769
  C 1.138223 0.294496 0.213790
  C 2.284696 -0.590993 -0.032253
  H 2.534343 -1.503714 0.476578
  C 2.933484 -0.013699 -1.115614
  C 2.291168 -0.090352 -2.491805
  H 1.235857 -0.343362 -2.420577
  C 4.373896 0.134649 -1.150883
  C 5.110785 0.520918 -2.197851
  O 6.445732 0.733128 -2.170756
  H 1.354249 1.174253 0.835158
  H 0.197041 -0.145653 0.527980
  H 1.517358 0.952597 -0.721333
  H 2.801380 -0.875430 -3.048317
  H 2.379186 0.839278 -3.055380
  H 4.871116 0.021351 -0.191331
  H 4.716392 0.688779 -3.184694
  H 6.783927 0.531305 -1.297355
 17
 84.966531
  C 1.164333 0.241090 0.299315
  C 2.250859 -0.582754 -0.041967
  H 2.554495 -1.500305 0.437475
  C 2.887086 0.071126 -1.145923
  C 2.257936 -0.095090 -2.531406
  H 1.194633 -0.310297 -2.457115
  C 4.345450 0.176726 -1.150372
  C 5.111051 0.550614 -2.177596
  O 6.460666 0.698460 -2.134923
  H 1.346819 1.185336 0.797148
  H 0.225787 -0.194961 0.647861
  H 1.775700 0.977702 -0.830389
  H 2.742260 -0.932815 -3.036955
  H 2.391763 0.792280 -3.146894
  H 4.823461 -0.019734 -0.195009
  H 4.729548 0.794917 -3.156101
  H 6.781469 0.482374 -1.250447
 17
 65.461133
  C 1.198570 0.187235 0.419685
  C 2.148728 -0.623598 -0.073125
  H 2.433645 -1.589580 0.320991
  C 2.844025 0.119948 -1.176665
  C 2.247719 -0.085702 -2.596599
  H 1.181197 -0.284560 -2.537763
  C 4.322530 0.219370 -1.142398
  C 5.112079 0.545851 -2.155216
  O 6.453325 0.727597 -2.071618
  H 1.444166 1.165224 0.801894
  H 0.294147 -0.178287 0.875907
  H 2.047973 0.967254 -0.972031
  H 2.721161 -0.921995 -3.098762
  H 2.400943 0.803785 -3.195998
  H 4.769306 0.067075 -0.166053
  H 4.769894 0.678344 -3.169638
  H 6.745982 0.536150 -1.188125
 17
 40.672598
  C 1.162470 0.110887 0.463952
  C 2.158879 -0.517786 -0.123749
  H 2.510906 -1.501298 0.177172
  C 2.832243 0.272855 -1.215134
  C 2.241237 -0.079049 -2.595280
  H 1.167042 -0.250591 -2.509950
  C 4.320252 0.303338 -1.142638
  C 5.138633 0.533942 -2.154869
  O 6.485753 0.577485 -2.074846
  H 1.235364 1.131161 0.780227
  H 0.373732 -0.409612 0.994724
  H 2.181077 1.172606 -0.995992
  H 2.696951 -0.984304 -2.996287
  H 2.427052 0.732479 -3.296808
  H 4.744950 0.053132 -0.166303
  H 4.810950 0.785879 -3.141664
  H 6.756047 0.392701 -1.186614
 17
 24.968702
  C 1.170422 0.040841 0.534716
  C 2.130011 -0.551181 -0.162752
  H 2.489393 -1.547151 0.053064
  C 2.827420 0.271327 -1.212915
  C 2.253513 -0.048253 -2.603647
  H 1.172874 -0.161789 -2.537484
  C 4.316847 0.292339 -1.141686
  C 5.137276 0.511420 -2.155539
  O 6.492350 0.550002 -2.076080
  H 1.180573 1.104198 0.734981
  H 0.412971 -0.484239 1.100975
  H 2.331787 1.241934 -1.005576
  H 2.674155 -0.967158 -3.004176
  H 2.479642 0.759905 -3.289150
  H 4.730893 0.154336 -0.148143
  H 4.806540 0.716769 -3.160117
  H 6.767577 0.389113 -1.166353
 17
 14.552265
  C 1.227847 0.012058 0.613709
  C 2.127012 -0.484033 -0.197742
  H 2.427399 -1.519871 -0.140093
  C 2.790438 0.374120 -1.243359
  C 2.253472 -0.044594 -2.619113
  H 1.170120 -0.132183 -2.576856
  C 4.284979 0.335002 -1.142945
  C 5.131495 0.514611 -2.138893
  O 6.486314 0.489945 -2.034198
  H 1.091516 1.076982 0.745717
  H 0.585075 -0.611391 1.248336
  H 2.377576 1.364870 -1.050167
  H 2.668125 -1.004024 -2.920216
  H 2.512538 0.697248 -3.369981
  H 4.673132 0.166686 -0.143789
  H 4.829334 0.702990 -3.157013
  H 6.737872 0.333993 -1.113278
 17
 10.261432
  C 1.219618 -0.051071 0.645397
  C 2.148498 -0.440578 -0.206641
  H 2.499873 -1.464589 -0.198206
  C 2.768273 0.444455 -1.251683
  C 2.248342 0.028008 -2.632235
  H 1.165307 -0.069721 -2.600974
  C 4.265840 0.384891 -1.135771
  C 5.128318 0.413139 -2.139748
  O 6.480608 0.368013 -2.015410
  H 0.861413 0.965140 0.674785
  H 0.789266 -0.731559 1.361015
  H 2.424356 1.468332 -1.056324
  H 2.672578 -0.929175 -2.925981
  H 2.504863 0.772305 -3.381219
  H 4.639033 0.328217 -0.118681
  H 4.840458 0.467602 -3.177616
  H 6.717600 0.319004 -1.080589
