 26
 0.000000
  H 1.468098 0.165823 0.465012
  C 2.546889 0.148372 0.421253
  C 3.304997 0.617715 1.588575
  C 2.452163 1.089341 2.762052
  C 3.324692 1.556150 3.923095
  C 3.109094 -0.321941 -0.749593
  C 4.482106 -0.418581 -0.990665
  C 5.131256 -0.877722 -2.136181
  C 4.595268 -1.393603 -3.423170
  C 3.099125 -1.494900 -3.676389
  H 2.936075 -1.893941 -4.671851
  O 6.446984 -0.885044 -2.154952
  H 3.965927 1.436792 1.280348
  H 3.966176 -0.186611 1.932924
  H 1.809491 0.276968 3.106104
  H 1.809325 1.913722 2.448185
  H 3.959400 0.749448 4.282841
  H 2.704378 1.889041 4.751482
  H 3.959178 2.387530 3.624342
  H 2.431166 -0.632823 -1.524044
  H 5.130516 -0.095154 -0.184542
  H 5.044320 -2.384132 -3.559413
  H 5.044625 -0.771704 -4.205955
  H 2.624949 -0.517877 -3.627239
  H 2.624682 -2.167269 -2.966023
  H 6.866137 -0.557194 -1.335987
 26
 -0.109292
  H 1.517704 0.472435 0.389954
  C 2.591169 0.337944 0.348592
  C 3.334639 0.646462 1.575247
  C 2.456423 1.118001 2.729648
  C 3.288153 1.424022 3.971480
  C 3.124800 -0.117368 -0.837693
  C 4.494902 -0.303322 -1.051472
  C 5.142588 -0.794216 -2.188293
  C 4.586577 -1.439497 -3.406705
  C 3.089567 -1.629722 -3.581549
  H 2.922060 -2.193975 -4.494450
  O 6.453058 -0.736900 -2.248794
  H 4.090705 1.411633 1.364537
  H 3.903409 -0.234711 1.893253
  H 1.720838 0.347451 2.971547
  H 1.909654 2.016145 2.433301
  H 3.823753 0.538571 4.308976
  H 2.647713 1.758414 4.784336
  H 4.013177 2.210696 3.770488
  H 2.435943 -0.309935 -1.644266
  H 5.150596 -0.001718 -0.242171
  H 5.079570 -2.417298 -3.465831
  H 4.986806 -0.883098 -4.261313
  H 2.573771 -0.679068 -3.691130
  H 2.658805 -2.196284 -2.760129
  H 6.888529 -0.332095 -1.478839
 26
 0.569004
  H 1.586248 0.798357 0.250302
  C 2.631892 0.523616 0.260561
  C 3.322130 0.607946 1.553612
  C 2.449310 1.131114 2.690689
  C 3.230233 1.210434 3.997914
  C 3.189955 0.098075 -0.923467
  C 4.546767 -0.184831 -1.098858
  C 5.157519 -0.698436 -2.245604
  C 4.563528 -1.507698 -3.339979
  C 3.074025 -1.808735 -3.360677
  H 2.880683 -2.525797 -4.154576
  O 6.450977 -0.550260 -2.406683
  H 4.209891 1.245022 1.457526
  H 3.712093 -0.380788 1.825302
  H 1.588487 0.473928 2.827085
  H 2.071470 2.123441 2.437350
  H 3.597372 0.229531 4.291348
  H 2.595368 1.583816 4.797373
  H 4.080096 1.882645 3.903076
  H 2.550804 0.039484 -1.787226
  H 5.213902 0.097225 -0.293172
  H 5.115867 -2.455367 -3.309512
  H 4.863600 -1.048612 -4.287991
  H 2.484342 -0.923789 -3.579616
  H 2.741372 -2.247942 -2.424527
  H 6.912392 -0.075316 -1.688774
 26
 3.172722
  H 1.759180 1.210376 0.083120
  C 2.732847 0.746551 0.152224
  C 3.293072 0.570087 1.498909
  C 2.444694 1.185028 2.608780
  C 3.100140 1.002327 3.973305
  C 3.334093 0.335220 -1.012439
  C 4.654953 -0.099084 -1.137018
  C 5.184696 -0.609134 -2.329129
  C 4.519417 -1.559218 -3.256952
  C 3.067365 -1.946642 -3.023181
  H 2.814521 -2.760322 -3.697799
  O 6.424501 -0.369534 -2.670092
  H 4.305415 0.989375 1.537653
  H 3.423275 -0.500721 1.697947
  H 1.458147 0.718100 2.620368
  H 2.305330 2.250586 2.416783
  H 3.230043 -0.052802 4.203362
  H 2.483603 1.442689 4.752871
  H 4.074791 1.484280 4.003990
  H 2.788189 0.424847 -1.938660
  H 5.344846 0.102403 -0.327304
  H 5.140488 -2.461715 -3.193629
  H 4.655943 -1.198293 -4.281185
  H 2.385907 -1.130266 -3.236031
  H 2.905691 -2.289037 -2.005165
  H 6.945378 0.152490 -2.029092
 26
 8.679040
  H 1.966722 1.539201 -0.005418
  C 2.832856 0.902480 0.097938
  C 3.253906 0.553940 1.464150
  C 2.489128 1.302690 2.552909
  C 2.973779 0.906287 3.942674
  C 3.447309 0.456954 -1.043865
  C 4.687192 -0.172063 -1.122000
  C 5.170273 -0.584235 -2.386607
  C 4.495683 -1.597492 -3.232611
  C 3.110653 -2.067174 -2.809147
  H 2.792922 -2.867093 -3.472014
  O 6.322069 -0.190040 -2.850998
  H 4.328255 0.734173 1.582603
  H 3.124244 -0.525119 1.611445
  H 1.423009 1.085166 2.469779
  H 2.620851 2.377954 2.419690
  H 2.837796 -0.159535 4.110806
  H 2.416233 1.441415 4.706867
  H 4.027795 1.142759 4.068157
  H 2.994478 0.650263 -2.008333
  H 5.347799 -0.207002 -0.266654
  H 5.185584 -2.450556 -3.206720
  H 4.492248 -1.261959 -4.274084
  H 2.372832 -1.275470 -2.873482
  H 3.119913 -2.451739 -1.793221
  H 6.876328 0.334440 -2.238983
 26
 18.088936
  H 2.397855 1.950623 -0.079356
  C 3.069225 1.114156 0.039730
  C 3.257447 0.570876 1.396595
  C 2.467146 1.316587 2.469868
  C 2.765510 0.765280 3.861230
  C 3.720273 0.627927 -1.071035
  C 4.849971 -0.182167 -1.118128
  C 5.144361 -0.586341 -2.456681
  C 4.401643 -1.673112 -3.126418
  C 3.089507 -2.088755 -2.480689
  H 2.690862 -2.952321 -3.002317
  O 6.164599 -0.140952 -3.115284
  H 4.321516 0.572896 1.657040
  H 2.959629 -0.483189 1.395516
  H 1.397656 1.227320 2.268910
  H 2.725082 2.377528 2.442692
  H 2.498711 -0.288073 3.925322
  H 2.194998 1.304087 4.615291
  H 3.822893 0.867873 4.100786
  H 3.348882 0.841075 -2.070082
  H 5.541648 -0.315306 -0.304103
  H 5.107379 -2.511521 -3.100974
  H 4.256834 -1.433025 -4.182583
  H 2.351119 -1.296082 -2.534338
  H 3.234220 -2.356457 -1.438509
  H 6.835542 0.367683 -2.604319
 26
 34.702607
  H 2.828959 2.098099 -0.115111
  C 3.348110 1.168603 0.057350
  C 3.273797 0.564559 1.405606
  C 2.496147 1.418007 2.405726
  C 2.513548 0.792102 3.795104
  C 4.034316 0.577201 -0.980257
  C 5.059231 -0.348110 -1.069772
  C 5.051121 -0.545771 -2.501370
  C 4.268051 -1.651756 -3.114174
  C 3.097139 -2.160923 -2.282402
  H 2.642193 -3.012929 -2.781031
  O 5.933272 -0.009708 -3.284250
  H 4.282691 0.372438 1.788496
  H 2.799290 -0.418765 1.321614
  H 1.463173 1.530536 2.072681
  H 2.942220 2.413059 2.459676
  H 2.059663 -0.196324 3.779165
  H 1.956083 1.407134 4.496208
  H 3.531625 0.696842 4.163953
  H 3.700728 0.763285 -2.036370
  H 5.810173 -0.625252 -0.358146
  H 5.010568 -2.447170 -3.251455
  H 3.930586 -1.357016 -4.111142
  H 2.335538 -1.394227 -2.163345
  H 3.427776 -2.478987 -1.296903
  H 6.707498 0.413586 -2.856767
 26
 48.278978
  H 3.103364 2.099214 -0.128554
  C 3.544500 1.140051 0.098448
  C 3.293245 0.547483 1.432713
  C 2.527043 1.483816 2.362660
  C 2.344745 0.858051 3.740269
  C 4.259689 0.474569 -0.860532
  C 5.219852 -0.478942 -1.062805
  C 4.955833 -0.495745 -2.505202
  C 4.164023 -1.611446 -3.104850
  C 3.121051 -2.214516 -2.175490
  H 2.653310 -3.063945 -2.660216
  O 5.717114 0.140663 -3.346802
  H 4.244781 0.259292 1.895486
  H 2.732125 -0.386398 1.309209
  H 1.547743 1.709528 1.937066
  H 3.072929 2.422096 2.467531
  H 1.786045 -0.071027 3.672125
  H 1.798415 1.533252 4.394630
  H 3.308362 0.647220 4.200674
  H 3.880126 0.593230 -1.976768
  H 6.016272 -0.878993 -0.475968
  H 4.914365 -2.363867 -3.367046
  H 3.703466 -1.271453 -4.034303
  H 2.344891 -1.494194 -1.941059
  H 3.572505 -2.555759 -1.250531
  H 6.561341 0.483774 -2.991641
 26
 56.950990
  H 3.328121 2.043330 -0.107641
  C 3.726324 1.077802 0.162548
  C 3.332091 0.506630 1.476326
  C 2.525028 1.484243 2.326184
  C 2.196656 0.877783 3.686414
  C 4.470295 0.375320 -0.710956
  C 5.368475 -0.522676 -1.107008
  C 4.877357 -0.422409 -2.516496
  C 4.046173 -1.569744 -3.069611
  C 3.110345 -2.193800 -2.045352
  H 2.594660 -3.035451 -2.497027
  O 5.625662 0.209447 -3.436647
  H 4.229072 0.190977 2.020074
  H 2.751005 -0.409493 1.314169
  H 1.595671 1.740083 1.813972
  H 3.093517 2.404257 2.472337
  H 1.611314 -0.032576 3.574941
  H 1.619572 1.578978 4.283866
  H 3.105265 0.637083 4.233391
  H 4.027014 0.441338 -2.084600
  H 6.253658 -0.941631 -0.680480
  H 4.769735 -2.311086 -3.418705
  H 3.490887 -1.215114 -3.937721
  H 2.360807 -1.480319 -1.714028
  H 3.660409 -2.554832 -1.180866
  H 6.490025 0.517508 -3.115879
 26
 52.145702
  H 3.422359 2.021712 -0.028863
  C 3.783770 1.040103 0.244351
  C 3.331323 0.489100 1.547622
  C 2.521066 1.488523 2.364822
  C 2.137923 0.893977 3.715051
  C 4.529191 0.348333 -0.590393
  C 5.385916 -0.472080 -1.164783
  C 4.845825 -0.387661 -2.580143
  C 4.048046 -1.596418 -3.090258
  C 3.108492 -2.184957 -2.051609
  H 2.613811 -3.056856 -2.471540
  O 5.630584 0.197377 -3.529448
  H 4.203044 0.158122 2.119600
  H 2.737476 -0.415269 1.370830
  H 1.614310 1.762647 1.823056
  H 3.103935 2.396523 2.526144
  H 1.535770 -0.002571 3.588012
  H 1.559422 1.610133 4.292143
  H 3.022869 0.634551 4.290692
  H 4.036104 0.405483 -2.273726
  H 6.318404 -0.879297 -0.819232
  H 4.791008 -2.341832 -3.389281
  H 3.501888 -1.292481 -3.981964
  H 2.341152 -1.469414 -1.766992
  H 3.650522 -2.494979 -1.161750
  H 6.493450 0.496641 -3.200416
 26
 43.845784
  H 3.524127 2.056816 0.063791
  C 3.835017 1.047825 0.311545
  C 3.314630 0.480959 1.586555
  C 2.531780 1.493116 2.414870
  C 2.073948 0.874858 3.732099
  C 4.567706 0.361747 -0.536456
  C 5.370393 -0.405691 -1.237001
  C 4.802949 -0.358160 -2.640999
  C 4.047073 -1.634883 -3.081069
  C 3.121657 -2.191954 -2.014220
  H 2.654799 -3.099910 -2.388593
  O 5.624074 0.138246 -3.625996
  H 4.150002 0.084352 2.173314
  H 2.681414 -0.384173 1.354004
  H 1.656737 1.831965 1.854707
  H 3.153069 2.365678 2.625807
  H 1.432813 0.013592 3.556143
  H 1.512646 1.601471 4.314941
  H 2.926176 0.551277 4.327058
  H 3.996399 0.412520 -2.431605
  H 6.349317 -0.762832 -0.968479
  H 4.814098 -2.368977 -3.338682
  H 3.491480 -1.389532 -3.985898
  H 2.332381 -1.484714 -1.771731
  H 3.667809 -2.437689 -1.106976
  H 6.481121 0.448933 -3.298082
 26
 37.935519
  H 3.557116 2.091025 0.162074
  C 3.816399 1.055996 0.356449
  C 3.262446 0.462344 1.606458
  C 2.520460 1.469205 2.473612
  C 2.021288 0.815815 3.757960
  C 4.523726 0.400982 -0.523994
  C 5.333646 -0.239369 -1.328449
  C 4.787589 -0.324554 -2.720900
  C 4.110151 -1.695537 -3.025567
  C 3.140970 -2.157409 -1.956745
  H 2.729812 -3.120308 -2.250696
  O 5.660985 0.013021 -3.733577
  H 4.070103 -0.000977 2.181332
  H 2.592703 -0.358276 1.323956
  H 1.670525 1.876452 1.922218
  H 3.180729 2.298653 2.733259
  H 1.339806 -0.002747 3.538799
  H 1.491015 1.542646 4.367881
  H 2.849527 0.425219 4.344674
  H 3.960445 0.418712 -2.682212
  H 6.349763 -0.510068 -1.087881
  H 4.919376 -2.417806 -3.150097
  H 3.602455 -1.581455 -3.982648
  H 2.312704 -1.461499 -1.850424
  H 3.633516 -2.276748 -0.996207
  H 6.515967 0.335021 -3.411093
 26
 34.526907
  H 3.408202 2.090576 0.172687
  C 3.750485 1.074952 0.347532
  C 3.290822 0.441435 1.616692
  C 2.465977 1.371830 2.493696
  C 2.041108 0.671808 3.780227
  C 4.488338 0.502703 -0.561128
  C 5.298950 -0.030853 -1.439440
  C 4.780207 -0.293752 -2.811500
  C 4.156301 -1.731951 -2.905820
  C 3.104917 -2.029818 -1.859065
  H 2.726561 -3.036068 -2.027730
  O 5.693813 -0.135823 -3.836522
  H 4.151685 0.066913 2.179325
  H 2.702438 -0.444489 1.348862
  H 1.577433 1.701321 1.950601
  H 3.048305 2.258773 2.751655
  H 1.436561 -0.206171 3.563938
  H 1.451117 1.344815 4.397404
  H 2.907213 0.358159 4.359006
  H 3.937813 0.405970 -2.958047
  H 6.346083 -0.194540 -1.222440
  H 4.984909 -2.438401 -2.840308
  H 3.727833 -1.790617 -3.906202
  H 2.265675 -1.343204 -1.935804
  H 3.514339 -1.987534 -0.854515
  H 6.548667 0.205586 -3.534422
 26
 34.864534
  H 3.253126 2.031680 0.121292
  C 3.711163 1.068359 0.324488
  C 3.397143 0.471097 1.655005
  C 2.383946 1.278640 2.453799
  C 2.087014 0.600448 3.787081
  C 4.458770 0.532934 -0.595977
  C 5.309983 0.028556 -1.457030
  C 4.865881 -0.356103 -2.823493
  C 4.151306 -1.751863 -2.816447
  C 2.942172 -1.839541 -1.913041
  H 2.529368 -2.843753 -1.986672
  O 5.859605 -0.392183 -3.786070
  H 4.321220 0.367261 2.232397
  H 3.028899 -0.547746 1.494437
  H 1.457751 1.376527 1.884316
  H 2.768341 2.281682 2.646242
  H 1.682134 -0.397156 3.634657
  H 1.357043 1.179151 4.347296
  H 2.986607 0.517420 4.392503
  H 4.088681 0.378274 -3.102248
  H 6.366000 -0.013453 -1.217886
  H 4.902286 -2.493974 -2.543762
  H 3.862334 -1.915296 -3.855011
  H 2.169138 -1.138710 -2.216771
  H 3.200924 -1.662594 -0.874252
  H 6.664918 0.071963 -3.516171
 26
 29.270873
  H 3.373768 2.098367 0.196970
  C 3.782688 1.110026 0.383256
  C 3.449656 0.492237 1.684968
  C 2.362085 1.233537 2.454542
  C 2.049766 0.530733 3.770791
  C 4.566664 0.590446 -0.536658
  C 5.312149 0.145347 -1.494775
  C 4.780753 -0.248014 -2.871145
  C 4.242121 -1.700590 -2.697069
  C 2.924848 -1.753454 -1.951221
  H 2.550090 -2.772979 -1.964611
  O 5.726124 -0.133964 -3.861625
  H 4.354642 0.438328 2.302296
  H 3.162594 -0.551783 1.522261
  H 1.454612 1.285235 1.847881
  H 2.680367 2.256871 2.665404
  H 1.708299 -0.487022 3.597922
  H 1.267024 1.062115 4.303759
  H 2.925984 0.494795 4.412469
  H 3.957848 0.408841 -3.162219
  H 6.377061 0.010619 -1.371823
  H 4.987971 -2.323114 -2.204350
  H 4.101284 -2.065667 -3.716479
  H 2.181789 -1.112547 -2.422047
  H 3.040932 -1.455618 -0.912890
  H 6.484633 -0.721123 -3.706925
