 31
 0.000000
  C 0.904686 0.048754 0.271691
  C 2.396097 0.059154 0.087326
  C 3.238875 -0.012278 1.353362
  C 2.524787 -0.088320 2.700888
  C 3.529318 -0.152928 3.845968
  C 2.991148 0.127374 -1.121652
  C 2.350484 0.204784 -2.493535
  C 0.839679 0.217308 -2.715408
  C 0.522440 0.301430 -4.206252
  C 4.453087 0.132313 -1.209117
  C 5.192032 0.194592 -2.312945
  H 6.270484 0.194341 -2.308442
  H 0.604898 -0.009988 1.312663
  H 0.461352 -0.816528 -0.214296
  H 0.461352 0.963214 -0.113869
  H 3.884859 0.870952 1.383233
  H 3.884861 -0.893264 1.283685
  H 1.892256 -0.977996 2.744625
  H 1.892250 0.790783 2.844433
  H 4.164304 -1.032031 3.756945
  H 3.007909 -0.206732 4.799392
  H 4.164299 0.730608 3.856400
  H 2.740401 -0.643682 -3.066720
  H 2.740401 1.112350 -2.967632
  H 0.385649 1.078154 -2.226129
  H 0.385649 -0.693119 -2.326077
  H 0.933754 1.210100 -4.641509
  H -0.554756 0.310056 -4.359122
  H 0.933751 -0.552506 -4.740963
  H 4.995413 0.079765 -0.277831
  H 4.811061 0.251435 -3.320288
 31
 12.841248
  C 0.858516 0.048542 0.275441
  C 2.336451 0.059827 0.075395
  C 3.288623 -0.018765 1.468330
  C 2.559917 -0.093972 2.801068
  C 3.557283 -0.158958 3.952845
  C 2.984021 0.132525 -1.212921
  C 2.343357 0.209722 -2.581019
  C 0.830501 0.221485 -2.789407
  C 0.505583 0.305523 -4.278753
  C 4.439829 0.135626 -1.267834
  C 5.205029 0.196981 -2.355282
  H 6.282396 0.194506 -2.311410
  H 0.583516 -0.010683 1.324971
  H 0.408084 -0.815016 -0.208480
  H 0.408084 0.961058 -0.108259
  H 3.930024 0.863815 1.486064
  H 3.930029 -0.897739 1.386664
  H 1.925997 -0.983347 2.837717
  H 1.925993 0.785628 2.937537
  H 4.192621 -1.038166 3.866357
  H 3.030536 -0.212595 4.903338
  H 4.192611 0.724392 3.965810
  H 2.733426 -0.638864 -3.154896
  H 2.733426 1.117482 -3.055789
  H 0.380609 1.081423 -2.295150
  H 0.380604 -0.688607 -2.395023
  H 0.915855 1.214068 -4.715115
  H -0.572142 0.313945 -4.427995
  H 0.915856 -0.548172 -4.814555
  H 4.956874 0.082278 -0.322391
  H 4.843105 0.254189 -3.369087
 31
 35.673852
  C 0.843127 0.049391 0.261965
  C 2.301350 0.066528 -0.042561
  C 3.418370 -0.023331 1.549564
  C 2.584496 -0.094126 2.803565
  C 3.494479 -0.163483 4.031668
  C 3.007942 0.137661 -1.303253
  C 2.359293 0.214028 -2.656145
  C 0.845637 0.221183 -2.784767
  C 0.447867 0.304104 -4.255670
  C 4.468138 0.138536 -1.319061
  C 5.247275 0.198552 -2.382651
  H 6.320297 0.192632 -2.277801
  H 0.670766 -0.010717 1.327700
  H 0.355164 -0.810981 -0.200808
  H 0.355243 0.956389 -0.101125
  H 4.021281 0.877176 1.505529
  H 4.021242 -0.913166 1.404521
  H 1.947306 -0.981715 2.788582
  H 1.947334 0.789522 2.888402
  H 4.130565 -1.043886 3.986383
  H 2.900726 -0.214825 4.941791
  H 4.130603 0.716412 4.085683
  H 2.738163 -0.632206 -3.234199
  H 2.738219 1.119948 -3.135255
  H 0.424646 1.080215 -2.258784
  H 0.424436 -0.691597 -2.359017
  H 0.839265 1.213249 -4.708326
  H -0.634794 0.309926 -4.358667
  H 0.839209 -0.548307 -4.807788
  H 4.945501 0.084500 -0.361638
  H 4.882610 0.255540 -3.392320
 31
 61.351365
  C 0.812727 0.052224 0.205327
  C 2.250049 0.071864 -0.140520
  C 3.547880 -0.032263 1.703371
  C 2.672428 -0.100163 2.920701
  C 3.536791 -0.172254 4.185370
  C 2.941157 0.140423 -1.352684
  C 2.321553 0.217804 -2.722942
  C 0.808697 0.226875 -2.886559
  C 0.440408 0.310275 -4.366523
  C 4.381576 0.139362 -1.331934
  C 5.189809 0.199273 -2.391023
  H 6.260832 0.192666 -2.272615
  H 0.676648 -0.008084 1.272341
  H 0.315385 -0.805083 -0.235173
  H 0.315281 0.953641 -0.135775
  H 4.138196 0.874185 1.632186
  H 4.137636 -0.924845 1.527841
  H 2.035187 -0.983258 2.883566
  H 2.036733 0.782640 2.982922
  H 4.171705 -1.054815 4.163737
  H 2.907530 -0.221692 5.072426
  H 4.173338 0.706045 4.263010
  H 2.723238 -0.632902 -3.290000
  H 2.722992 1.126945 -3.190548
  H 0.382839 1.085890 -2.368884
  H 0.382598 -0.684908 -2.469193
  H 0.841827 1.218871 -4.811825
  H -0.640685 0.317290 -4.491125
  H 0.841782 -0.542356 -4.911012
  H 4.836324 0.083706 -0.346377
  H 4.844239 0.256944 -3.412248
 31
 81.093557
  C 0.791497 0.053389 0.176349
  C 2.208523 0.078100 -0.246934
  C 3.672831 -0.039726 1.843190
  C 2.747241 -0.104848 3.006761
  C 3.537083 -0.181126 4.325487
  C 2.903391 0.144345 -1.413998
  C 2.309088 0.222268 -2.801686
  C 0.789303 0.232294 -2.960458
  C 0.412074 0.312976 -4.436538
  C 4.351131 0.142818 -1.375579
  C 5.181646 0.201832 -2.415640
  H 6.251046 0.194308 -2.275065
  H 0.713104 -0.008045 1.255784
  H 0.271710 -0.812133 -0.240515
  H 0.270536 0.959965 -0.139626
  H 4.244472 0.874032 1.746297
  H 4.244211 -0.936384 1.641303
  H 2.108269 -0.988422 2.936494
  H 2.111225 0.783093 3.032565
  H 4.167309 -1.066751 4.339131
  H 2.854918 -0.227824 5.172577
  H 4.171846 0.694542 4.439945
  H 2.704604 -0.628900 -3.364850
  H 2.703079 1.130837 -3.265946
  H 0.368225 1.092889 -2.437261
  H 0.358364 -0.678641 -2.540126
  H 0.812459 1.219656 -4.887762
  H -0.669669 0.321817 -4.554024
  H 0.808224 -0.542477 -4.979911
  H 4.766184 0.087220 -0.385944
  H 4.854568 0.259341 -3.439583
 31
 94.269858
  C 0.806103 0.056027 0.126566
  C 2.169724 0.084014 -0.355613
  C 3.796713 -0.046874 1.976257
  C 2.809405 -0.109938 3.089263
  C 3.511762 -0.187629 4.458312
  C 2.872694 0.147669 -1.481200
  C 2.286323 0.226890 -2.894844
  C 0.775313 0.235325 -3.018853
  C 0.357528 0.316955 -4.480470
  C 4.336342 0.144425 -1.415625
  C 5.186292 0.201825 -2.431186
  H 6.262226 0.192697 -2.266271
  H 0.781942 -0.004834 1.199940
  H 0.275956 -0.803015 -0.260458
  H 0.274793 0.952624 -0.160903
  H 4.353989 0.874879 1.864312
  H 4.355568 -0.951315 1.761880
  H 2.172095 -0.995982 2.980919
  H 2.172031 0.783200 3.079376
  H 4.138074 -1.075166 4.511137
  H 2.773467 -0.232852 5.258845
  H 4.139187 0.687321 4.612012
  H 2.672421 -0.618025 -3.452840
  H 2.672162 1.128708 -3.355309
  H 0.364349 1.093244 -2.483478
  H 0.361046 -0.675313 -2.582656
  H 0.743238 1.226698 -4.941074
  H -0.727879 0.323001 -4.567258
  H 0.741342 -0.538118 -5.037188
  H 4.718710 0.087835 -0.409085
  H 4.878068 0.260224 -3.471746
 31
 102.530708
  C 0.771257 0.056127 0.105095
  C 2.124686 0.088684 -0.449661
  C 3.930681 -0.055481 2.100229
  C 2.887660 -0.111220 3.152637
  C 3.500899 -0.194827 4.565483
  C 2.845402 0.150866 -1.538606
  C 2.284989 0.231052 -2.966558
  C 0.754529 0.238196 -3.081358
  C 0.319180 0.319381 -4.541719
  C 4.305621 0.146337 -1.436234
  C 5.177312 0.203294 -2.433368
  H 6.252527 0.193670 -2.243748
  H 0.799725 -0.006531 1.202096
  H 0.220639 -0.810457 -0.257792
  H 0.219386 0.957619 -0.156764
  H 4.479222 0.869968 1.988863
  H 4.476633 -0.960640 1.875478
  H 2.250215 -0.991871 3.008435
  H 2.259803 0.785992 3.105158
  H 4.116490 -1.090004 4.656909
  H 2.712833 -0.233545 5.316180
  H 4.127200 0.678247 4.758828
  H 2.680135 -0.625479 -3.526190
  H 2.679152 1.144181 -3.426087
  H 0.347955 1.098298 -2.535354
  H 0.343343 -0.676434 -2.636186
  H 0.699229 1.228226 -5.005526
  H -0.770235 0.324731 -4.618298
  H 0.696673 -0.532899 -5.100709
  H 4.658692 0.089619 -0.421420
  H 4.891652 0.261553 -3.472166
 31
 107.159637
  C 0.726257 0.058433 0.112619
  C 2.033016 0.093904 -0.506773
  C 4.065085 -0.058420 2.201243
  C 2.972603 -0.111012 3.199077
  C 3.504300 -0.201048 4.640015
  C 2.773900 0.154436 -1.581298
  C 2.257409 0.232674 -2.999976
  C 0.752647 0.240189 -3.141567
  C 0.347373 0.321576 -4.598615
  C 4.229650 0.148544 -1.444612
  C 5.120411 0.204077 -2.431909
  H 6.159653 0.194353 -2.231079
  H 0.820170 -0.003602 1.206250
  H 0.158859 -0.811608 -0.216747
  H 0.158436 0.959584 -0.116071
  H 4.606411 0.856715 2.091406
  H 4.598826 -0.962037 1.970049
  H 2.341193 -0.983007 3.019093
  H 2.356219 0.783932 3.122691
  H 4.106799 -1.095905 4.762537
  H 2.680251 -0.236715 5.341486
  H 4.118171 0.660496 4.867456
  H 2.664425 -0.623947 -3.545564
  H 2.663297 1.143460 -3.447486
  H 0.343038 1.080176 -2.615776
  H 0.346752 -0.654338 -2.709131
  H 0.732839 1.226159 -5.049931
  H -0.730963 0.326077 -4.694058
  H 0.736221 -0.529663 -5.152104
  H 4.562076 0.092909 -0.424477
  H 4.853257 0.260795 -3.468246
 31
 109.930351
  C 0.683212 0.062518 0.081088
  C 1.970302 0.098694 -0.565953
  C 4.233269 -0.062670 2.311636
  C 3.073062 -0.113632 3.239074
  C 3.507625 -0.210886 4.727089
  C 2.738379 0.156203 -1.602836
  C 2.238303 0.235231 -3.053064
  C 0.714354 0.241899 -3.197950
  C 0.291349 0.323108 -4.689710
  C 4.207415 0.147308 -1.411787
  C 5.124885 0.199954 -2.365138
  H 6.150011 0.188138 -2.128049
  H 0.809520 0.002787 1.149178
  H 0.099910 -0.819877 -0.234540
  H 0.100138 0.974891 -0.134256
  H 4.783829 0.860282 2.215482
  H 4.763658 -0.967007 2.094130
  H 2.451137 -0.982095 3.013497
  H 2.463321 0.787178 3.122489
  H 4.096195 -1.105874 4.887699
  H 2.631500 -0.245369 5.377797
  H 4.108277 0.646469 4.998549
  H 2.646855 -0.620522 -3.596125
  H 2.648620 1.148887 -3.501736
  H 0.301475 1.097514 -2.656290
  H 0.305476 -0.666625 -2.752608
  H 0.677963 1.240029 -5.152451
  H -0.789399 0.327339 -4.781722
  H 0.680665 -0.537985 -5.252867
  H 4.509852 0.091173 -0.367883
  H 4.887498 0.256655 -3.418646
 31
 111.155927
  C 0.584929 0.063905 0.068223
  C 1.864093 0.101830 -0.609155
  C 4.386386 -0.065861 2.397492
  C 3.184004 -0.113539 3.250915
  C 3.534996 -0.213390 4.758193
  C 2.665274 0.157572 -1.616453
  C 2.208973 0.237141 -3.088238
  C 0.704139 0.246051 -3.262597
  C 0.320341 0.323978 -4.730063
  C 4.124829 0.146300 -1.374996
  C 5.072099 0.197154 -2.296424
  H 6.129648 0.183660 -2.014933
  H 0.733597 0.003933 1.143890
  H -0.002581 -0.817101 -0.233915
  H -0.002680 0.973171 -0.134180
  H 4.936781 0.853301 2.315249
  H 4.920265 -0.978146 2.192581
  H 2.574336 -0.978598 2.989441
  H 2.584779 0.787508 3.101106
  H 4.113595 -1.113695 4.949465
  H 2.626544 -0.246337 5.358205
  H 4.125836 0.647383 5.064641
  H 2.629844 -0.619383 -3.620557
  H 2.629899 1.148473 -3.526572
  H 0.288538 1.095334 -2.731918
  H 0.286198 -0.653894 -2.828523
  H 0.713557 1.225278 -5.179175
  H -0.752341 0.330292 -4.841752
  H 0.713230 -0.525201 -5.271109
  H 4.397908 0.089515 -0.310155
  H 4.867554 0.253884 -3.354539
 31
 111.548039
  C 0.484658 0.063961 0.056638
  C 1.752661 0.102400 -0.629026
  C 4.551228 -0.071315 2.474337
  C 3.301242 -0.114473 3.276324
  C 3.581849 -0.214077 4.792097
  C 2.589619 0.157069 -1.614748
  C 2.191810 0.236906 -3.089030
  C 0.685679 0.248682 -3.321406
  C 0.359600 0.329867 -4.802388
  C 4.033760 0.143021 -1.326423
  C 5.010433 0.192473 -2.222337
  H 6.039781 0.177372 -1.917423
  H 0.641705 0.003321 1.141924
  H -0.101107 -0.812473 -0.241260
  H -0.101075 0.968218 -0.141859
  H 5.104829 0.851200 2.401789
  H 5.088425 -0.987736 2.278880
  H 2.696626 -0.986000 2.985530
  H 2.708485 0.795463 3.098700
  H 4.147930 -1.116486 5.009684
  H 2.647962 -0.243748 5.348081
  H 4.160302 0.644965 5.124237
  H 2.631642 -0.620615 -3.603799
  H 2.630889 1.144946 -3.508115
  H 0.244573 1.103281 -2.807377
  H 0.249681 -0.657994 -2.900452
  H 0.775215 1.240359 -5.235987
  H -0.722644 0.336815 -4.957778
  H 0.778005 -0.526433 -5.334400
  H 4.273976 0.086147 -0.265910
  H 4.839471 0.249179 -3.275613
 31
 112.043683
  C 0.360416 0.065363 0.014681
  C 1.637105 0.102890 -0.650929
  C 4.714845 -0.078004 2.550893
  C 3.439064 -0.116629 3.290129
  C 3.652359 -0.214161 4.811711
  C 2.513150 0.155828 -1.599392
  C 2.173297 0.236777 -3.083761
  C 0.668684 0.251785 -3.371744
  C 0.394813 0.333345 -4.863919
  C 3.946126 0.138416 -1.257320
  C 4.953436 0.186164 -2.118075
  H 5.972688 0.168697 -1.774637
  H 0.496853 0.004462 1.099004
  H -0.221141 -0.809391 -0.293979
  H -0.220971 0.969320 -0.194166
  H 5.266061 0.840965 2.489476
  H 5.247267 -0.986574 2.368017
  H 2.849592 -0.982673 2.973849
  H 2.858527 0.790026 3.089861
  H 4.207200 -1.117111 5.055063
  H 2.689117 -0.241391 5.329134
  H 4.217056 0.644713 5.165841
  H 2.632245 -0.621131 -3.579122
  H 2.630723 1.143438 -3.484875
  H 0.210740 1.107408 -2.874479
  H 0.214342 -0.652802 -2.968200
  H 0.825211 1.237961 -5.280814
  H -0.666846 0.343011 -5.055248
  H 0.826291 -0.518165 -5.378715
  H 4.150727 0.080811 -0.193087
  H 4.816938 0.245119 -3.200717
 31
 112.299546
  C 0.210112 0.069284 -0.057159
  C 1.515750 0.104026 -0.671000
  C 4.895044 -0.081431 2.603736
  C 3.587043 -0.118296 3.302943
  C 3.749542 -0.214489 4.837675
  C 2.429488 0.154720 -1.577503
  C 2.146713 0.236762 -3.079765
  C 0.660037 0.254955 -3.423709
  C 0.442607 0.336460 -4.922062
  C 3.849566 0.133838 -1.174042
  C 4.893426 0.179167 -1.989567
  H 5.889786 0.159581 -1.604821
  H 0.297472 0.007640 1.038362
  H -0.357590 -0.799186 -0.389968
  H -0.357571 0.969528 -0.290412
  H 5.449630 0.843946 2.549156
  H 5.433689 -1.002265 2.427224
  H 3.005894 -0.987716 2.964036
  H 3.011313 0.791874 3.083112
  H 4.296204 -1.117880 5.102344
  H 2.771138 -0.240508 5.322110
  H 4.303663 0.646914 5.210166
  H 2.621092 -0.619614 -3.556884
  H 2.620234 1.139929 -3.460718
  H 0.187595 1.111629 -2.941610
  H 0.186282 -0.648870 -3.039078
  H 0.892829 1.242651 -5.325380
  H -0.622095 0.349054 -5.154578
  H 0.891058 -0.518146 -5.418964
  H 4.013033 0.075510 -0.096926
  H 4.807126 0.237555 -3.058430
