17

H 1.4339450500829098 -0.07456138629628498 0.041684792870216356
C 2.503817 -0.082075 0.026935
C 3.219087 -0.595307 -0.980627
C 4.656749 -0.605939 -1.001499
C 5.377449 -1.121219 -2.013079
C 6.81589 -1.130789 -2.031862
C 7.534438 -1.642548 -3.036539
C 9.024451 -1.661744 -3.074217
H 3.003291 0.354568 0.88414
H 2.70864 -1.029936 -1.833869
H 5.16114 -0.171016 -0.147676
H 4.873559 -1.556233 -2.867082
H 7.322396 -0.696255 -1.1788
H 7.035875 -2.078871 -3.893097
H 9.458095 -1.208525 -2.184477
H 9.383781 -1.115775 -3.947941
H 9.383782 -2.689499 -3.146317
