 19
 0.000000
  C 1.024875 0.106254 0.348542
  C 2.489203 0.123148 0.408619
  C 3.228646 0.608716 1.584591
  C 2.416773 1.101791 2.769196
  H 3.087269 1.426254 3.557837
  C 3.169162 -0.344067 -0.719545
  C 4.565137 -0.410346 -0.909625
  C 5.097307 -0.855849 -2.074829
  H 4.471080 -1.171175 -2.888246
  H 6.158965 -0.906787 -2.226123
  H 0.549454 0.486169 1.244725
  H 0.674789 -0.909860 0.154752
  H 0.684950 0.683189 -0.515275
  H 3.904819 1.407005 1.255169
  H 3.900570 -0.191781 1.917462
  H 1.783314 0.314705 3.173455
  H 1.788384 1.947642 2.497647
  H 2.560629 -0.682975 -1.549010
  H 5.226935 -0.100613 -0.114425
 19
 -0.135747
  C 1.022914 0.101569 0.364444
  C 2.486561 0.086558 0.412771
  C 3.228720 0.605112 1.572460
  C 2.414743 1.113215 2.752784
  H 3.084864 1.445633 3.538944
  C 3.161632 -0.398347 -0.712496
  C 4.556827 -0.394746 -0.919946
  C 5.103861 -0.878226 -2.063916
  H 4.489210 -1.279902 -2.856662
  H 6.170878 -0.877902 -2.222168
  H 0.559697 0.256830 1.334106
  H 0.633846 -0.799209 -0.110207
  H 0.715048 0.922338 -0.289454
  H 3.884142 1.413508 1.219781
  H 3.921793 -0.171164 1.916243
  H 1.781426 0.330200 3.169014
  H 1.786921 1.953312 2.470485
  H 2.559626 -0.804271 -1.517167
  H 5.207322 0.003818 -0.156363
 19
 3.137757
  C 1.005508 0.068494 0.398233
  C 2.462667 0.074651 0.408830
  C 3.229716 0.598190 1.557965
  C 2.420519 1.080033 2.748943
  H 3.095855 1.367395 3.550617
  C 3.125134 -0.426977 -0.713380
  C 4.510396 -0.321310 -0.956601
  C 5.090988 -0.906694 -2.033309
  H 4.510637 -1.463109 -2.751878
  H 6.148367 -0.826745 -2.214678
  H 0.505979 0.249876 1.334423
  H 0.555633 -0.693086 -0.221850
  H 0.940252 1.013576 -0.190789
  H 3.872126 1.416106 1.211485
  H 3.908185 -0.193277 1.883548
  H 1.773835 0.296756 3.132229
  H 1.815606 1.946817 2.497434
  H 2.548949 -0.974924 -1.447038
  H 5.126504 0.249826 -0.276531
 19
 13.584427
  C 1.020544 -0.027204 0.455076
  C 2.462884 0.063298 0.417704
  C 3.232198 0.638897 1.545949
  C 2.413570 1.105580 2.738486
  H 3.082890 1.446162 3.523498
  C 3.122339 -0.448427 -0.707073
  C 4.512658 -0.371200 -0.944336
  C 5.077123 -0.888489 -2.064566
  H 4.482212 -1.366055 -2.824384
  H 6.137882 -0.821717 -2.242161
  H 0.457205 0.220112 1.341424
  H 0.521487 -0.644627 -0.282677
  H 1.211882 0.983070 -0.088920
  H 3.841978 1.468007 1.182945
  H 3.935003 -0.130671 1.880828
  H 1.808360 0.301932 3.144130
  H 1.767165 1.939035 2.475645
  H 2.527405 -0.944865 -1.461239
  H 5.151421 0.099173 -0.208920
 19
 30.692167
  C 1.002943 -0.093627 0.504160
  C 2.402866 0.113431 0.384264
  C 3.217052 0.626367 1.538432
  C 2.410064 1.131131 2.730637
  H 3.092223 1.424724 3.521975
  C 3.093446 -0.435360 -0.734706
  C 4.466299 -0.332762 -0.969787
  C 5.055457 -0.883905 -2.067950
  H 4.479762 -1.419844 -2.806426
  H 6.118870 -0.811453 -2.232287
  H 0.474296 0.137995 1.405581
  H 0.471120 -0.620147 -0.270018
  H 1.586248 0.958641 -0.084042
  H 3.874846 1.428580 1.191075
  H 3.856013 -0.193465 1.868995
  H 1.764431 0.352770 3.132268
  H 1.809308 2.002894 2.472987
  H 2.510997 -0.976282 -1.465878
  H 5.084954 0.204339 -0.267834
 19
 38.901430
  C 0.978211 -0.101690 0.535971
  C 2.370887 0.150688 0.382595
  C 3.206176 0.682013 1.536372
  C 2.407301 1.091784 2.768034
  H 3.094248 1.400539 3.551085
  C 3.072964 -0.432460 -0.754654
  C 4.444907 -0.341109 -0.988569
  C 5.029321 -0.923782 -2.069742
  H 4.451597 -1.474519 -2.793334
  H 6.090748 -0.865700 -2.232838
  H 0.440426 0.197902 1.416832
  H 0.432216 -0.619370 -0.235635
  H 1.946213 1.002489 -0.278086
  H 3.791630 1.537204 1.198182
  H 3.909301 -0.102971 1.822061
  H 1.822720 0.262173 3.156688
  H 1.747612 1.930438 2.558437
  H 2.482686 -0.989346 -1.469809
  H 5.065650 0.202608 -0.292603
 19
 40.815097
  C 0.974950 -0.093832 0.558435
  C 2.345731 0.179627 0.386950
  C 3.192821 0.712278 1.537785
  C 2.406782 1.081597 2.790015
  H 3.100158 1.387823 3.567711
  C 3.041194 -0.403895 -0.772212
  C 4.421753 -0.327849 -1.007892
  C 4.997425 -0.960606 -2.059273
  H 4.414432 -1.530925 -2.763210
  H 6.059945 -0.930127 -2.217453
  H 0.448364 0.182823 1.452569
  H 0.413390 -0.588735 -0.215725
  H 2.262732 0.953978 -0.486045
  H 3.749930 1.590396 1.209710
  H 3.919153 -0.058132 1.800703
  H 1.843864 0.234993 3.170770
  H 1.728739 1.910015 2.605597
  H 2.442855 -0.975170 -1.470026
  H 5.043867 0.234701 -0.327591
 19
 37.981326
  C 0.967792 -0.067783 0.581596
  C 2.320941 0.164470 0.421209
  C 3.174764 0.707024 1.545253
  C 2.410573 1.071430 2.813985
  H 3.117429 1.387409 3.576511
  C 2.998436 -0.349792 -0.785600
  C 4.402845 -0.295601 -1.012076
  C 4.980708 -0.958247 -2.034369
  H 4.401263 -1.542747 -2.729845
  H 6.044149 -0.938408 -2.186255
  H 0.449105 0.224583 1.475444
  H 0.381439 -0.540764 -0.188214
  H 2.419825 0.816408 -0.678655
  H 3.715422 1.591431 1.205925
  H 3.918296 -0.054130 1.793364
  H 1.864296 0.219076 3.207937
  H 1.719551 1.892917 2.641090
  H 2.408041 -0.949501 -1.468377
  H 5.019950 0.278237 -0.337958
 19
 28.547002
  C 0.974567 -0.054324 0.579925
  C 2.315419 0.154719 0.452461
  C 3.176374 0.699247 1.546109
  C 2.439883 1.046656 2.836549
  H 3.161599 1.364375 3.584385
  C 2.958514 -0.277310 -0.822343
  C 4.387067 -0.262721 -1.027875
  C 4.972800 -0.983079 -2.002738
  H 4.398506 -1.596841 -2.677182
  H 6.039265 -0.981616 -2.140233
  H 0.439182 0.217521 1.471709
  H 0.397533 -0.514455 -0.204687
  H 2.516549 0.790713 -0.951728
  H 3.694843 1.595434 1.197764
  H 3.943827 -0.048815 1.763582
  H 1.910925 0.185330 3.234654
  H 1.736600 1.861609 2.687345
  H 2.378574 -0.943186 -1.452989
  H 4.996909 0.342019 -0.374132
 19
 19.243743
  C 0.969914 -0.032163 0.585066
  C 2.311255 0.156980 0.465478
  C 3.177793 0.696456 1.538587
  C 2.482931 1.021124 2.854713
  H 3.223895 1.339772 3.583188
  C 2.906960 -0.200213 -0.854945
  C 4.358663 -0.203933 -1.039979
  C 4.963653 -1.003909 -1.933026
  H 4.405771 -1.683039 -2.556671
  H 6.032768 -1.009093 -2.052406
  H 0.430643 0.203260 1.485513
  H 0.387792 -0.445762 -0.221423
  H 2.500836 0.743884 -1.294255
  H 3.675759 1.603241 1.180264
  H 3.973935 -0.036250 1.713767
  H 1.973528 0.149669 3.257344
  H 1.764934 1.828897 2.739772
  H 2.387492 -1.001244 -1.379610
  H 4.953202 0.466238 -0.437595
 19
 16.628091
  C 0.948480 0.063350 0.574278
  C 2.302403 0.156485 0.462863
  C 3.179795 0.662992 1.537770
  C 2.512768 0.998754 2.862513
  H 3.268463 1.302091 3.582071
  C 2.884446 -0.234287 -0.846764
  C 4.342683 -0.169809 -1.042033
  C 4.983254 -0.952308 -1.927200
  H 4.462693 -1.684173 -2.523010
  H 6.048706 -0.893206 -2.064384
  H 0.424084 0.370083 1.461779
  H 0.342936 -0.323819 -0.227516
  H 2.408999 0.502874 -1.523805
  H 3.702363 1.555786 1.173548
  H 3.969232 -0.081991 1.698591
  H 1.988110 0.138253 3.269815
  H 1.808622 1.820469 2.759138
  H 2.476652 -1.187312 -1.201199
  H 4.907305 0.546378 -0.463945
 19
 17.255208
  C 0.942690 0.192817 0.540084
  C 2.303582 0.143958 0.474516
  C 3.188745 0.601571 1.563444
  C 2.516617 0.972212 2.875904
  H 3.271697 1.240385 3.609691
  C 2.878034 -0.333821 -0.805802
  C 4.317759 -0.138817 -1.064606
  C 4.992662 -0.866569 -1.964718
  H 4.528674 -1.666712 -2.517487
  H 6.037507 -0.697169 -2.156635
  H 0.426215 0.726725 1.318837
  H 0.323280 -0.293096 -0.195422
  H 2.304530 0.203284 -1.582935
  H 3.769081 1.461958 1.206925
  H 3.936266 -0.182372 1.737140
  H 1.941218 0.140463 3.274096
  H 1.854506 1.826608 2.757122
  H 2.594886 -1.379243 -0.986651
  H 4.834044 0.638429 -0.520990
 19
 15.914799
  C 0.931254 0.165989 0.556586
  C 2.289452 0.189749 0.451561
  C 3.178100 0.659448 1.534577
  C 2.522678 0.972766 2.870785
  H 3.285419 1.256280 3.591060
  C 2.879065 -0.291322 -0.822098
  C 4.332372 -0.167726 -1.034917
  C 4.988505 -0.907478 -1.942740
  H 4.493447 -1.664100 -2.529216
  H 6.042164 -0.785157 -2.112328
  H 0.417490 0.494764 1.440869
  H 0.313403 -0.180893 -0.254559
  H 2.360350 0.236668 -1.640165
  H 3.701857 1.558772 1.184375
  H 3.966833 -0.090287 1.674857
  H 1.994749 0.107010 3.262753
  H 1.822901 1.800899 2.790889
  H 2.563299 -1.329646 -1.001192
  H 4.878654 0.564877 -0.458585
