 20
 0.000000
  C 0.975790 0.137332 0.393142
  C 2.453972 0.138831 0.396445
  H 3.017345 0.478023 1.240518
  C 3.074760 -0.323868 -0.755623
  C 4.452396 -0.411652 -0.974602
  C 5.123831 -0.863395 -2.100714
  C 4.621920 -1.386396 -3.404454
  C 3.129954 -1.502980 -3.695876
  H 2.969462 -1.896832 -4.677723
  O 6.448567 -0.861790 -2.097024
  H 0.536390 0.506813 1.312870
  H 0.606624 -0.875729 0.225913
  H 0.606339 0.752985 -0.428456
  H 2.419633 -0.642347 -1.548686
  H 5.073532 -0.080521 -0.149771
  H 5.075895 -2.376004 -3.531813
  H 5.076265 -0.759449 -4.180462
  H 2.655656 -0.522022 -3.641480
  H 2.655252 -2.174151 -2.978669
  H 6.820588 -0.526463 -1.260938
 20
 0.000000
  C 1.014973 0.136557 0.391209
  C 2.493107 0.141401 0.402841
  H 3.050946 0.481858 1.250075
  C 3.136455 -0.330920 -0.773199
  C 4.446835 -0.424457 -1.006526
  C 5.083279 -0.858949 -2.089639
  C 4.606455 -1.385196 -3.401469
  C 3.120310 -1.511655 -3.717497
  H 2.978677 -1.906509 -4.701842
  O 6.346767 -0.837741 -2.037077
  H 0.569563 0.505033 1.308447
  H 0.649049 -0.877335 0.221905
  H 0.648765 0.751381 -0.432459
  H 2.486529 -0.650874 -1.569939
  H 5.079502 -0.096366 -0.189277
  H 5.069026 -2.371765 -3.521258
  H 5.069393 -0.755207 -4.169900
  H 2.638682 -0.533867 -3.670997
  H 2.638283 -2.185999 -3.008193
  H 6.667577 -0.479003 -1.142608
 20
 0.000000
  C 1.052210 0.135935 0.389658
  C 2.530219 0.144646 0.410920
  H 3.081634 0.486549 1.261770
  C 3.199148 -0.338027 -0.790915
  C 4.444442 -0.436795 -1.037281
  C 5.046547 -0.855101 -2.080054
  C 4.593152 -1.384212 -3.399022
  C 3.112833 -1.519806 -3.737805
  H 2.988751 -1.915478 -4.724192
  O 6.247848 -0.816776 -1.984822
  H 0.599870 0.503232 1.303973
  H 0.690050 -0.878909 0.217976
  H 0.689768 0.749810 -0.436381
  H 2.555265 -0.659671 -1.591872
  H 5.089275 -0.112003 -0.228261
  H 5.063574 -2.367908 -3.511656
  H 5.063936 -0.751348 -4.160291
  H 2.624535 -0.545003 -3.698743
  H 2.624143 -2.197139 -3.035948
  H 6.510378 -0.433913 -1.030188
 20
 0.000000
  C 1.086890 0.135545 0.388684
  C 2.564663 0.148758 0.421160
  H 3.108563 0.492325 1.276168
  C 3.262920 -0.345131 -0.808623
  C 4.445733 -0.448517 -1.066502
  C 5.014339 -0.851942 -2.072184
  C 4.582182 -1.383511 -3.397282
  C 3.107466 -1.527313 -3.756509
  H 2.999243 -1.923630 -4.744505
  O 6.152741 -0.799097 -1.940755
  H 0.626508 0.501447 1.299540
  H 0.729135 -0.880394 0.214264
  H 0.728857 0.748328 -0.440085
  H 2.626116 -0.668723 -1.614441
  H 5.103305 -0.127286 -0.266360
  H 5.059575 -2.364575 -3.503361
  H 5.059932 -0.748012 -4.151988
  H 2.613266 -0.555240 -3.724243
  H 2.612880 -2.207378 -3.061455
  H 6.348998 -0.391711 -0.924965
 20
 0.000000
  C 1.117982 0.135640 0.388916
  C 2.595354 0.154124 0.434523
  H 3.130406 0.499610 1.294330
  C 3.327818 -0.352145 -0.826111
  C 4.451287 -0.459477 -1.093820
  C 4.987570 -0.849687 -2.066569
  C 4.573871 -1.383289 -3.396733
  C 3.104269 -1.534170 -3.773589
  H 3.009791 -1.930973 -4.762800
  O 6.062599 -0.785017 -1.905660
  H 0.648221 0.499876 1.295643
  H 0.765418 -0.881565 0.211331
  H 0.765144 0.747161 -0.443007
  H 2.699357 -0.677991 -1.637554
  H 5.122091 -0.142060 -0.303192
  H 5.057212 -2.362044 -3.497061
  H 5.057563 -0.745477 -4.145682
  H 2.605050 -0.564484 -3.747269
  H 2.604672 -2.216625 -3.084488
  H 6.183745 -0.352907 -0.828208
 20
 0.000000
  C 1.143455 0.136784 0.391762
  C 2.620187 0.161432 0.452725
  H 3.144827 0.509122 1.318045
  C 3.393336 -0.358926 -0.843019
  C 4.461755 -0.469419 -1.118605
  C 4.967802 -0.848807 -2.064380
  C 4.568921 -1.383972 -3.398438
  C 3.103587 -1.540498 -3.789352
  H 3.020117 -1.937643 -4.779416
  O 5.979872 -0.775210 -1.881212
  H 0.662776 0.499029 1.293554
  H 0.797004 -0.881879 0.210534
  H 0.796735 0.746852 -0.443793
  H 2.774709 -0.687370 -1.660948
  H 5.146006 -0.156006 -0.337962
  H 5.056963 -2.360857 -3.494114
  H 5.057307 -0.744289 -4.142730
  H 2.600411 -0.572742 -3.767832
  H 2.600042 -2.224885 -3.105056
  H 6.017037 -0.318340 -0.742012
 20
 0.000000
  C 1.161473 0.139697 0.399017
  C 2.637203 0.171674 0.478241
  H 3.149368 0.521931 1.349980
  C 3.460589 -0.365488 -0.859379
  C 4.477703 -0.478211 -1.140522
  C 4.956110 -0.849815 -2.066896
  C 4.567876 -1.386064 -3.403656
  C 3.105698 -1.546630 -3.804621
  H 3.030124 -1.943993 -4.795231
  O 5.905379 -0.770157 -1.868613
  H 0.667883 0.499516 1.294790
  H 0.822351 -0.880667 0.213537
  H 0.822089 0.748069 -0.440778
  H 2.853763 -0.696969 -1.684893
  H 5.175465 -0.168956 -0.370246
  H 5.059258 -2.361598 -3.495971
  H 5.059594 -0.745029 -4.144584
  H 2.599718 -0.580266 -3.786565
  H 2.599356 -2.232410 -3.123793
  H 5.848134 -0.288258 -0.666992
 20
 0.000000
  C 1.168974 0.145367 0.413142
  C 2.643192 0.185944 0.513794
  H 3.140592 0.539136 1.392873
  C 3.529232 -0.371667 -0.874786
  C 4.499399 -0.485447 -1.158557
  C 4.954234 -0.853471 -2.076013
  C 4.571526 -1.390272 -3.414145
  C 3.111015 -1.552930 -3.820309
  H 3.039535 -1.950398 -4.811181
  O 5.842663 -0.770736 -1.870051
  H 0.660331 0.502257 1.301644
  H 0.838534 -0.876948 0.222785
  H 0.838281 0.751794 -0.431516
  H 2.936400 -0.706641 -1.709020
  H 5.210175 -0.180328 -0.398595
  H 5.064630 -2.365101 -3.504709
  H 5.064959 -0.748530 -4.153320
  H 2.603590 -0.587291 -3.804054
  H 2.603237 -2.239437 -3.141284
  H 5.681611 -0.263691 -0.605715
 20
 0.000000
  C 1.163443 0.154645 0.436256
  C 2.635476 0.205109 0.561545
  H 3.115727 0.561575 1.448809
  C 3.599332 -0.377310 -0.888853
  C 4.526679 -0.490762 -1.171803
  C 4.963131 -0.860409 -2.093310
  C 4.580230 -1.397193 -3.431396
  C 3.119659 -1.559785 -3.837377
  H 3.048036 -1.957249 -4.828241
  O 5.794632 -0.777414 -1.886692
  H 0.637626 0.508055 1.316116
  H 0.843101 -0.869853 0.240442
  H 0.842857 0.758894 -0.413845
  H 3.022792 -0.716204 -1.732873
  H 5.249422 -0.189567 -0.421624
  H 5.073279 -2.372044 -3.522023
  H 5.073599 -0.755474 -4.170633
  H 2.612279 -0.594123 -3.821058
  H 2.611934 -2.246269 -3.158288
  H 5.522171 -0.245241 -0.559687
 20
 0.000000
  C 1.142182 0.168349 0.470395
  C 2.611184 0.229911 0.623342
  H 3.071963 0.589920 1.519465
  C 3.670750 -0.382260 -0.901187
  C 4.559060 -0.493820 -1.179419
  C 4.983409 -0.871239 -2.120306
  C 4.594305 -1.407406 -3.456852
  C 3.131863 -1.567662 -3.856993
  H 3.055645 -1.965009 -4.847564
  O 5.764465 -0.790425 -1.919116
  H 0.597256 0.517709 1.340196
  H 0.833318 -0.858523 0.268649
  H 0.833085 0.770230 -0.385623
  H 3.112755 -0.725430 -1.755884
  H 5.292095 -0.196095 -0.437889
  H 5.085430 -2.383044 -3.549447
  H 5.085742 -0.766474 -4.198057
  H 2.626095 -0.601191 -3.838648
  H 2.625758 -2.253336 -3.175879
  H 5.376325 -0.232959 -0.529033
 20
 0.000000
  C 1.103846 0.186834 0.516449
  C 2.568915 0.260300 0.699063
  H 3.008547 0.623955 1.604298
  C 3.742365 -0.386328 -0.911318
  C 4.595202 -0.494470 -1.181027
  C 5.014248 -0.886124 -2.157406
  C 4.613167 -1.421069 -3.490903
  C 3.147182 -1.576792 -3.879729
  H 3.062080 -1.973889 -4.869680
  O 5.754404 -0.809329 -1.966229
  H 0.538626 0.531682 1.375034
  H 0.807465 -0.842493 0.308570
  H 0.807245 0.786266 -0.345689
  H 3.204566 -0.733939 -1.777101
  H 5.336320 -0.199533 -0.446449
  H 5.100540 -2.398222 -3.587282
  H 5.100844 -0.781652 -4.235893
  H 2.644563 -0.608759 -3.857485
  H 2.644235 -2.260904 -3.194714
  H 5.252283 -0.226197 -0.512137
 20
 0.000000
  C 1.079448 0.195839 0.538886
  C 2.542496 0.274720 0.734994
  H 2.972421 0.639980 1.644242
  C 3.769208 -0.387034 -0.913072
  C 4.608947 -0.493133 -1.177686
  C 5.028852 -0.892378 -2.172993
  C 4.622506 -1.426774 -3.505120
  C 3.154992 -1.580498 -3.888957
  H 3.065981 -1.977478 -4.878615
  O 5.755770 -0.817383 -1.986301
  H 0.505065 0.538577 1.392224
  H 0.788804 -0.834573 0.328295
  H 0.788589 0.794187 -0.325959
  H 3.240698 -0.736616 -1.783774
  H 5.351957 -0.198858 -0.444758
  H 5.108218 -2.404590 -3.603156
  H 5.108518 -0.788020 -4.251768
  H 2.653770 -0.611781 -3.865005
  H 2.653445 -2.263926 -3.202233
  H 5.208054 -0.223470 -0.505323
 20
 0.000000
  C 0.962274 0.243395 0.657366
  C 2.414278 0.346739 0.914447
  H 2.799609 0.718815 1.840733
  C 3.919054 -0.391271 -0.923605
  C 4.690758 -0.487190 -1.162837
  C 5.112802 -0.932622 -2.273301
  C 4.665806 -1.462496 -3.594154
  C 3.187138 -1.600628 -3.939096
  H 3.067840 -1.996501 -4.925997
  O 5.786332 -0.869261 -2.115601
  H 0.347057 0.576122 1.485808
  H 0.698028 -0.791666 0.435160
  H 0.697839 0.837105 -0.219069
  H 3.433366 -0.749344 -1.815506
  H 5.445171 -0.196972 -0.440019
  H 5.138383 -2.445382 -3.704838
  H 5.138668 -0.828814 -4.353455
  H 2.697005 -0.626666 -3.902058
  H 2.696693 -2.278809 -3.239281
  H 5.024867 -0.226382 -0.512515
