 26
 0.000000
  C 1.009700 0.118546 0.347071
  C 2.485021 0.131007 0.378292
  C 3.242720 0.606320 1.560418
  C 2.439927 1.090656 2.764620
  C 3.372624 1.540945 3.884987
  C 3.139038 -0.326757 -0.760487
  C 4.522130 -0.396493 -0.935060
  C 5.168600 -0.854754 -2.078572
  C 4.530733 -1.351076 -3.315943
  H 3.452610 -1.357766 -3.332116
  O 6.481906 -0.879497 -2.142337
  H 0.555517 0.485485 1.259459
  H 0.651875 -0.895883 0.165550
  H 0.651974 0.725008 -0.486155
  H 3.901240 1.421458 1.240006
  H 3.901081 -0.203821 1.893561
  H 1.802052 0.289397 3.141822
  H 1.802386 1.930223 2.482081
  H 4.008191 0.722592 4.216173
  H 2.796076 1.884875 4.740173
  H 4.008494 2.360524 3.557580
  H 2.510544 -0.654204 -1.575397
  H 5.146099 -0.067057 -0.114817
  H 4.900640 -2.360885 -3.502080
  H 4.900385 -0.749559 -4.148170
  H 6.927476 -0.556491 -1.336779
 26
 9.480132
  C 0.973844 0.134983 0.387495
  C 2.437578 0.152538 0.431998
  C 3.205875 0.620141 1.595222
  C 2.418545 1.108229 2.808325
  C 3.367942 1.553437 3.916479
  C 3.169816 -0.357081 -0.835603
  C 4.541847 -0.417399 -0.987112
  C 5.202651 -0.873481 -2.125421
  C 4.569257 -1.370934 -3.364691
  H 3.488834 -1.373420 -3.369473
  O 6.516480 -0.893646 -2.178955
  H 0.513856 0.500934 1.297225
  H 0.620322 -0.880724 0.200527
  H 0.620731 0.738748 -0.450576
  H 3.866769 1.431114 1.266103
  H 3.866327 -0.193219 1.919281
  H 1.781671 0.309914 3.193211
  H 1.782334 1.951223 2.533246
  H 4.003295 0.731685 4.239404
  H 2.804509 1.900466 4.779047
  H 4.003958 2.369541 3.580799
  H 2.541167 -0.682810 -1.646220
  H 5.155783 -0.084930 -0.159585
  H 4.935046 -2.381602 -3.552031
  H 4.934268 -0.769628 -4.198658
  H 6.956927 -0.569430 -1.371556
 26
 28.415584
  C 0.900228 0.136991 0.392957
  C 2.353389 0.169591 0.474409
  C 3.181306 0.617902 1.589761
  C 2.438699 1.116211 2.828247
  C 3.428310 1.549221 3.905803
  C 3.156985 -0.393044 -0.925497
  C 4.512490 -0.426760 -1.011998
  C 5.214539 -0.866264 -2.108195
  C 4.623758 -1.368816 -3.359830
  H 3.539434 -1.372688 -3.368717
  O 6.518351 -0.866836 -2.111714
  H 0.430793 0.502084 1.301093
  H 0.553830 -0.879397 0.198784
  H 0.554091 0.736465 -0.450607
  H 3.844897 1.414480 1.232732
  H 3.844585 -0.204487 1.883678
  H 1.803418 0.328180 3.235067
  H 1.804133 1.966967 2.575972
  H 4.062923 0.719386 4.208358
  H 2.897378 1.903371 4.786007
  H 4.063802 2.356947 3.549694
  H 2.500572 -0.709544 -1.711787
  H 5.090923 -0.087182 -0.167644
  H 5.001751 -2.374320 -3.544456
  H 5.001560 -0.770130 -4.188621
  H 6.924979 -0.537871 -1.290489
 26
 50.043953
  C 0.849740 0.157732 0.445445
  C 2.283756 0.194940 0.537900
  C 3.148246 0.625642 1.609319
  C 2.431617 1.131803 2.866918
  C 3.442562 1.557720 3.926455
  C 3.145320 -0.423420 -1.000785
  C 4.501182 -0.442801 -1.052482
  C 5.253406 -0.883376 -2.151028
  C 4.693394 -1.392952 -3.421058
  H 3.618834 -1.398874 -3.436710
  O 6.562410 -0.870393 -2.119613
  H 0.378074 0.523648 1.356085
  H 0.505435 -0.862233 0.244593
  H 0.505510 0.755260 -0.405244
  H 3.811289 1.417867 1.230769
  H 3.810734 -0.208329 1.884604
  H 1.796086 0.347225 3.281442
  H 1.796846 1.985392 2.622304
  H 4.076364 0.723114 4.218439
  H 2.929318 1.915784 4.815600
  H 4.077082 2.361229 3.559162
  H 2.455243 -0.728386 -1.757302
  H 5.059282 -0.095927 -0.190593
  H 5.074405 -2.398884 -3.599333
  H 5.075073 -0.789917 -4.245252
  H 6.943158 -0.538560 -1.289132
 26
 71.122751
  C 0.792651 0.171625 0.479958
  C 2.230822 0.214726 0.587358
  C 3.119981 0.640456 1.646571
  C 2.424046 1.149727 2.911443
  C 3.451589 1.569683 3.956221
  C 3.164715 -0.456626 -1.083053
  C 4.510015 -0.466022 -1.109920
  C 5.282522 -0.899171 -2.190364
  C 4.739982 -1.411805 -3.467944
  H 3.653528 -1.419637 -3.488054
  O 6.607147 -0.876848 -2.136423
  H 0.313661 0.535668 1.385964
  H 0.453423 -0.845261 0.274533
  H 0.453605 0.763871 -0.371882
  H 3.781943 1.424620 1.260817
  H 3.781328 -0.193060 1.911245
  H 1.790544 0.367369 3.331737
  H 1.791510 2.005759 2.672365
  H 4.084373 0.731701 4.239327
  H 2.952697 1.930615 4.852167
  H 4.085460 2.369496 3.580012
  H 2.461416 -0.757337 -1.829043
  H 5.050165 -0.116622 -0.241797
  H 5.123513 -2.417784 -3.642092
  H 5.124031 -0.805678 -4.289291
  H 6.975479 -0.540635 -1.295272
 26
 90.514572
  C 0.755482 0.195171 0.538020
  C 2.177832 0.239179 0.648365
  C 3.081625 0.653454 1.679361
  C 2.403609 1.167832 2.956362
  C 3.447560 1.581956 3.987021
  C 3.173916 -0.487351 -1.158517
  C 4.523739 -0.489804 -1.168304
  C 5.321608 -0.920788 -2.244249
  C 4.803530 -1.435740 -3.527142
  H 3.725050 -1.447674 -3.556344
  O 6.626198 -0.889839 -2.170611
  H 0.275814 0.560233 1.446285
  H 0.416996 -0.823489 0.330521
  H 0.417480 0.787339 -0.316615
  H 3.744665 1.433413 1.282053
  H 3.743598 -0.185205 1.932949
  H 1.771244 0.387311 3.382846
  H 1.772521 2.027005 2.722838
  H 4.079476 0.740215 4.261772
  H 2.962488 1.945664 4.889460
  H 4.080793 2.378326 3.602221
  H 2.454507 -0.781792 -1.889014
  H 5.052331 -0.136348 -0.290101
  H 5.191675 -2.440194 -3.695848
  H 5.191466 -0.826643 -4.343506
  H 6.973727 -0.553485 -1.330231
 26
 107.287722
  C 0.694486 0.208107 0.569550
  C 2.126009 0.258493 0.696624
  C 3.055083 0.668892 1.718425
  C 2.396874 1.188620 3.008058
  C 3.457738 1.596102 4.022636
  C 3.195832 -0.520891 -1.241256
  C 4.529108 -0.514042 -1.228131
  C 5.346243 -0.936078 -2.282540
  C 4.845565 -1.456003 -3.576860
  H 3.761548 -1.472265 -3.615469
  O 6.674285 -0.894180 -2.183635
  H 0.203499 0.571885 1.474389
  H 0.360430 -0.811778 0.357573
  H 0.361285 0.798239 -0.289194
  H 3.718726 1.444389 1.312149
  H 3.717234 -0.173046 1.962759
  H 1.766590 0.411147 3.441390
  H 1.768230 2.050555 2.781356
  H 4.088208 0.750728 4.288271
  H 2.987508 1.962726 4.931874
  H 4.089955 2.388521 3.628701
  H 2.466368 -0.811919 -1.963366
  H 5.038624 -0.158111 -0.343956
  H 5.238717 -2.459690 -3.740935
  H 5.237717 -0.844068 -4.389617
  H 7.009614 -0.551477 -1.328708
 26
 121.285158
  C 0.665307 0.236020 0.638039
  C 2.073997 0.285335 0.763855
  C 3.008546 0.683312 1.755394
  C 2.370276 1.206796 3.053077
  C 3.447146 1.607946 4.052620
  C 3.203264 -0.549859 -1.311674
  C 4.550259 -0.538351 -1.287537
  C 5.391007 -0.959876 -2.342159
  C 4.913293 -1.480264 -3.636516
  H 3.833309 -1.501307 -3.684847
  O 6.688542 -0.911457 -2.229890
  H 0.174736 0.599902 1.542536
  H 0.332802 -0.782791 0.426036
  H 0.334348 0.825566 -0.220116
  H 3.670402 1.453162 1.339429
  H 3.668176 -0.161719 1.989308
  H 1.741154 0.431550 3.492645
  H 1.743493 2.071830 2.831932
  H 4.076236 0.758784 4.310180
  H 2.990743 1.977268 4.967639
  H 4.078660 2.396886 3.650157
  H 2.461238 -0.835371 -2.020278
  H 5.051863 -0.178669 -0.394015
  H 5.312023 -2.482055 -3.795288
  H 5.309733 -0.865537 -4.444433
  H 7.003101 -0.570912 -1.382296
 26
 131.877483
  C 0.607585 0.251966 0.676253
  C 2.036555 0.302592 0.807366
  C 2.971825 0.707836 1.817688
  C 2.346901 1.238727 3.132175
  C 3.436110 1.635676 4.122404
  C 3.252463 -0.583585 -1.392843
  C 4.577953 -0.570693 -1.366164
  C 5.423258 -0.987068 -2.410301
  C 4.946382 -1.511045 -3.712237
  H 3.864882 -1.536134 -3.767486
  O 6.747859 -0.933135 -2.288632
  H 0.092707 0.615199 1.577965
  H 0.283548 -0.769371 0.457732
  H 0.286041 0.838914 -0.188610
  H 3.635021 1.474881 1.396864
  H 3.631753 -0.139043 2.046837
  H 1.719006 0.466387 3.578289
  H 1.722295 2.106748 2.917219
  H 4.063788 0.783832 4.374028
  H 2.990279 2.007534 5.042620
  H 4.067113 2.421604 3.713797
  H 2.516190 -0.872965 -2.111580
  H 5.071077 -0.211231 -0.473219
  H 5.348358 -2.511986 -3.869275
  H 5.344169 -0.894979 -4.518570
  H 7.065593 -0.584427 -1.422923
 26
 134.768313
  C 0.606871 0.303255 0.798905
  C 2.027499 0.325081 0.864136
  C 2.882433 0.750024 1.924895
  C 2.269059 1.276986 3.225765
  C 3.354267 1.671014 4.214083
  C 3.331157 -0.613519 -1.459439
  C 4.676803 -0.618044 -1.479748
  C 5.502475 -1.039114 -2.542526
  C 4.982252 -1.557795 -3.824518
  H 3.899511 -1.576602 -3.852925
  O 6.802652 -0.991956 -2.451483
  H 0.072326 0.658054 1.676183
  H 0.301225 -0.722166 0.563301
  H 0.306471 0.881519 -0.081896
  H 3.551194 1.510241 1.495377
  H 3.544493 -0.100287 2.144825
  H 1.635749 0.505535 3.668138
  H 1.642488 2.143714 3.007653
  H 3.979911 0.817558 4.465695
  H 2.910074 2.043766 5.133836
  H 3.986782 2.455710 3.805148
  H 2.638559 -0.917044 -2.213987
  H 5.195361 -0.261915 -0.595453
  H 5.372338 -2.561781 -3.990118
  H 5.361705 -0.943611 -4.640812
  H 7.148351 -0.648302 -1.604794
 26
 137.344816
  C 0.570700 0.330285 0.865153
  C 2.000276 0.350265 0.927269
  C 2.851421 0.776997 1.993028
  C 2.226207 1.306445 3.298964
  C 3.309759 1.703461 4.295545
  C 3.378190 -0.641709 -1.526798
  C 4.717972 -0.648889 -1.554511
  C 5.545862 -1.074798 -2.631679
  C 5.027115 -1.591188 -3.907269
  H 3.944976 -1.611098 -3.935794
  O 6.828398 -1.029779 -2.548860
  H 0.033840 0.690066 1.754025
  H 0.263710 -0.691236 0.629573
  H 0.269670 0.905884 -0.013098
  H 3.521134 1.534383 1.566472
  H 3.513839 -0.069679 2.213414
  H 1.591939 0.534109 3.739639
  H 1.599238 2.173371 3.078586
  H 3.935802 0.850790 4.550186
  H 2.860671 2.076103 5.214197
  H 3.943404 2.489159 3.889323
  H 2.687354 -0.949997 -2.293291
  H 5.240555 -0.292766 -0.670032
  H 5.419470 -2.594600 -4.073370
  H 5.407284 -0.976982 -4.723657
  H 7.180601 -0.685547 -1.701511
 26
 139.310955
  C 0.541489 0.359660 0.937547
  C 1.967219 0.376509 0.992822
  C 2.811522 0.804890 2.063062
  C 2.185982 1.332987 3.364837
  C 3.266022 1.729296 4.360350
  C 3.417759 -0.668993 -1.592590
  C 4.763186 -0.678565 -1.627036
  C 5.581847 -1.102011 -2.699596
  C 5.053706 -1.618248 -3.973998
  H 3.970389 -1.636925 -3.997411
  O 6.874917 -1.057072 -2.619682
  H 0.008988 0.717951 1.822333
  H 0.233930 -0.662102 0.701545
  H 0.240354 0.935301 0.058745
  H 3.482700 1.561782 1.636954
  H 3.474862 -0.041503 2.283671
  H 1.552273 0.561097 3.804322
  H 1.560249 2.198995 3.143656
  H 3.891438 0.876861 4.615350
  H 2.816172 2.101694 5.277769
  H 3.899606 2.514609 3.954570
  H 2.734263 -0.977901 -2.360561
  H 5.289352 -0.324151 -0.746770
  H 5.444385 -2.621762 -4.142503
  H 5.431044 -1.005101 -4.792331
  H 7.232658 -0.713961 -1.775594
 26
 140.886030
  C 0.502199 0.388049 1.007134
  C 1.932341 0.404292 1.062329
  C 2.776583 0.833278 2.134640
  C 2.146997 1.361664 3.436010
  C 3.226377 1.759079 4.435173
  C 3.455443 -0.694979 -1.654364
  C 4.796751 -0.705421 -1.692020
  C 5.617393 -1.130375 -2.770520
  C 5.090809 -1.646781 -4.044415
  H 4.008685 -1.666574 -4.067997
  O 6.902466 -1.085126 -2.692854
  H -0.029973 0.747783 1.894803
  H 0.193223 -0.633738 0.770359
  H 0.200350 0.963322 0.127606
  H 3.449712 1.589585 1.709564
  H 3.441176 -0.012459 2.355941
  H 1.512285 0.588663 3.874546
  H 1.520997 2.228330 3.212982
  H 3.851933 0.906618 4.691706
  H 2.774189 2.131622 5.352112
  H 3.860850 2.544887 4.030495
  H 2.772607 -1.005433 -2.426101
  H 5.324909 -0.350582 -0.810833
  H 5.483292 -2.649827 -4.213210
  H 5.468402 -1.033467 -4.862834
  H 7.261600 -0.742005 -1.849493
 26
 142.029781
  C 0.466552 0.418506 1.082068
  C 1.894450 0.433136 1.134452
  C 2.736162 0.862255 2.207441
  C 2.106536 1.390751 3.508115
  C 3.184727 1.787610 4.506665
  C 3.488279 -0.720425 -1.714339
  C 4.832150 -0.731819 -1.755473
  C 5.648792 -1.154996 -2.831858
  C 5.118550 -1.670922 -4.104163
  H 4.035344 -1.690504 -4.124754
  O 6.939166 -1.109067 -2.755659
  H -0.063807 0.778296 1.969191
  H 0.157111 -0.602255 0.845146
  H 0.164836 0.993017 0.202976
  H 3.410122 1.617308 1.782532
  H 3.400984 0.017160 2.428341
  H 1.472163 0.618332 3.946146
  H 1.481515 2.256998 3.284802
  H 3.809678 0.935251 4.763217
  H 2.732493 2.160191 5.423017
  H 3.819230 2.572857 4.102087
  H 2.807441 -1.031048 -2.486439
  H 5.361960 -0.377939 -0.876605
  H 5.510702 -2.673611 -4.274322
  H 5.494390 -1.057901 -4.923323
  H 7.301575 -0.765910 -1.912555
