26

C 0.993261 0.133595 0.38395
C 2.471599 0.140321 0.400275
C 3.239201 0.613746 1.578315
H 2.6825434672411195 0.9543751659219205 2.4262561315333944
C 3.094519 -0.322246 -0.751479
C 4.470156 -0.413577 -0.979476
C 5.130316 -0.867893 -2.111975
C 4.619381 -1.389077 -3.411201
C 3.125412 -1.501692 -3.692789
C 2.886116 -2.062845 -5.091692
O 6.455925 -0.869303 -2.115755
H 0.545013 0.501552 1.299954
H 0.628787 -0.880681 0.214986
H 0.628483 0.748957 -0.439708
H 3.895368 1.429041 1.252415
H 3.895597 -0.200208 1.907036
H 2.434694 -0.63959 -1.541385
H 5.104736 -0.086787 -0.165738
H 5.069941 -2.379791 -3.54125
H 5.070324 -0.763208 -4.189928
H 2.654068 -0.519537 -3.635428
H 2.65362 -2.171648 -2.972597
H 3.319908 -1.417112 -5.852126
H 1.818633 -2.139914 -5.284534
H 3.319463 -3.055296 -5.194916
H 6.838433 -0.535559 -1.28274
