 26
 0.000000
  C 0.955258 0.142863 0.408068
  C 2.430862 0.138449 0.396508
  C 3.224959 0.605278 1.557212
  C 2.458061 1.096872 2.780274
  H 3.146959 1.407624 3.553226
  C 3.040109 -0.328253 -0.764642
  C 4.416719 -0.410007 -0.969311
  C 5.108095 -0.859315 -2.090066
  C 4.617537 -1.382111 -3.394124
  C 3.130219 -1.501230 -3.691968
  H 2.992350 -1.900209 -4.687314
  O 6.427444 -0.850684 -2.069094
  H 0.535101 0.515278 1.334303
  H 0.580384 -0.866908 0.235998
  H 0.579977 0.752251 -0.415097
  H 3.883165 1.413581 1.219705
  H 3.883431 -0.211486 1.873092
  H 1.824688 0.305812 3.178279
  H 1.824560 1.943227 2.520097
  H 2.371237 -0.642793 -1.546634
  H 5.042875 -0.080270 -0.148945
  H 5.082175 -2.367092 -3.517388
  H 5.082621 -0.755375 -4.163678
  H 2.650745 -0.525890 -3.646549
  H 2.650457 -2.175004 -2.985525
  H 6.820116 -0.519338 -1.240557
 26
 5.280733
  C 0.986106 0.116063 0.341096
  C 2.462165 0.125217 0.363488
  C 3.211989 0.605728 1.558258
  C 2.405746 1.087682 2.757525
  H 3.080888 1.405108 3.547126
  C 3.130079 -0.316958 -0.736543
  C 4.494279 -0.411939 -0.973673
  C 5.140891 -0.865943 -2.106357
  C 4.593632 -1.378558 -3.385128
  C 3.093180 -1.466811 -3.606112
  H 2.912227 -1.865222 -4.600152
  O 6.456165 -0.874337 -2.128180
  H 0.544778 0.484931 1.258403
  H 0.622462 -0.897203 0.158967
  H 0.622177 0.721051 -0.491796
  H 3.871767 1.419364 1.237096
  H 3.872088 -0.203508 1.889633
  H 1.774461 0.295092 3.152550
  H 1.774325 1.933098 2.494207
  H 2.351957 -0.578882 -1.387878
  H 5.143600 -0.088591 -0.168532
  H 5.038381 -2.369968 -3.527175
  H 5.038865 -0.760204 -4.172718
  H 2.628331 -0.487055 -3.547574
  H 2.627929 -2.134716 -2.887162
  H 6.882612 -0.548205 -1.313581
 26
 15.182664
  C 1.016693 0.102258 0.299968
  C 2.494457 0.124213 0.359676
  C 3.191362 0.616785 1.589186
  C 2.340090 1.087064 2.759554
  H 2.992521 1.412986 3.574330
  C 3.209823 -0.313725 -0.730141
  C 4.556607 -0.415041 -0.981085
  C 5.186820 -0.879282 -2.141678
  C 4.580020 -1.391193 -3.415582
  C 3.069820 -1.450565 -3.559051
  H 2.830453 -1.848326 -4.549518
  O 6.504475 -0.898558 -2.196007
  H 0.556094 0.467466 1.208037
  H 0.660046 -0.910175 0.114174
  H 0.662293 0.706076 -0.534609
  H 3.855936 1.433774 1.290354
  H 3.854503 -0.181350 1.938146
  H 1.711678 0.288174 3.140635
  H 1.713696 1.929296 2.482638
  H 2.319352 -0.516808 -1.238947
  H 5.209494 -0.096716 -0.185017
  H 5.002678 -2.389277 -3.576029
  H 5.000923 -0.780280 -4.221881
  H 2.629276 -0.465542 -3.480365
  H 2.631174 -2.108831 -2.820836
  H 6.956205 -0.571354 -1.385683
 26
 28.679015
  C 1.015988 0.095656 0.280684
  C 2.496034 0.119697 0.346879
  C 3.177260 0.617033 1.591381
  C 2.318138 1.087124 2.762123
  H 2.961158 1.410211 3.572193
  C 3.241807 -0.312189 -0.729003
  C 4.588600 -0.420305 -0.996262
  C 5.197899 -0.886594 -2.161521
  C 4.581124 -1.389623 -3.410665
  C 3.068323 -1.442584 -3.536098
  H 2.818897 -1.836063 -4.513045
  O 6.512108 -0.913257 -2.235079
  H 0.554238 0.461277 1.191420
  H 0.653070 -0.925737 0.096422
  H 0.655892 0.708547 -0.558107
  H 3.846897 1.436565 1.296298
  H 3.844515 -0.181387 1.943916
  H 1.686969 0.284781 3.142971
  H 1.690003 1.932688 2.483390
  H 2.278041 -0.466015 -1.116853
  H 5.265375 -0.101245 -0.197815
  H 4.997937 -2.389195 -3.573870
  H 4.995545 -0.780335 -4.220956
  H 2.631443 -0.450727 -3.451302
  H 2.634251 -2.100501 -2.787521
  H 6.968489 -0.593176 -1.444448
 26
 43.781773
  C 1.040249 0.082664 0.248590
  C 2.523888 0.113191 0.330853
  C 3.155213 0.620573 1.600204
  C 2.261100 1.081316 2.747573
  H 2.878735 1.411803 3.576037
  C 3.314114 -0.318163 -0.743487
  C 4.652416 -0.423256 -1.002952
  C 5.235916 -0.893616 -2.178925
  C 4.557634 -1.392437 -3.417939
  C 3.042053 -1.413687 -3.464272
  H 2.733933 -1.801872 -4.428254
  O 6.547278 -0.932911 -2.284247
  H 0.573501 0.447608 1.157727
  H 0.677536 -0.935870 0.066001
  H 0.680191 0.694585 -0.587021
  H 3.823998 1.447516 1.321797
  H 3.821650 -0.171687 1.969974
  H 1.629289 0.272524 3.112286
  H 1.632218 1.920404 2.452726
  H 2.313129 -0.430211 -1.027148
  H 5.333660 -0.111347 -0.221821
  H 4.947221 -2.397214 -3.600787
  H 4.944673 -0.792753 -4.245803
  H 2.632688 -0.414620 -3.355957
  H 2.635544 -2.060910 -2.693782
  H 7.023374 -0.616995 -1.504296
 26
 56.544471
  C 1.013969 0.085054 0.262276
  C 2.492010 0.113041 0.332991
  C 3.143855 0.619630 1.594576
  C 2.273126 1.083467 2.748380
  H 2.909928 1.413463 3.571255
  C 3.297955 -0.320757 -0.745778
  C 4.641317 -0.424841 -1.004722
  C 5.230230 -0.895956 -2.182056
  C 4.572130 -1.389530 -3.411740
  C 3.051618 -1.417495 -3.481359
  H 2.755408 -1.809073 -4.456566
  O 6.545864 -0.935816 -2.284882
  H 0.557603 0.450681 1.171947
  H 0.648482 -0.930140 0.085951
  H 0.648915 0.696179 -0.567371
  H 3.809448 1.437287 1.308617
  H 3.808920 -0.169047 1.953685
  H 1.645204 0.280637 3.121905
  H 1.646375 1.922379 2.462657
  H 2.247222 -0.397521 -0.938608
  H 5.333571 -0.109203 -0.215881
  H 4.970254 -2.398472 -3.589651
  H 4.970203 -0.783678 -4.237874
  H 2.638069 -0.422528 -3.376930
  H 2.638130 -2.063829 -2.717977
  H 7.020560 -0.620707 -1.502389
 26
 68.291446
  C 0.987624 0.092795 0.288790
  C 2.466986 0.109249 0.326361
  C 3.145556 0.615994 1.582380
  C 2.293746 1.088982 2.756496
  H 2.947917 1.416712 3.569492
  C 3.257729 -0.331382 -0.766393
  C 4.613243 -0.429037 -1.009823
  C 5.210119 -0.892588 -2.170719
  C 4.580273 -1.389540 -3.414048
  C 3.074875 -1.432201 -3.525004
  H 2.812721 -1.821855 -4.500299
  O 6.525477 -0.924202 -2.251876
  H 0.550696 0.470815 1.227333
  H 0.609918 -0.915767 0.121996
  H 0.608634 0.703236 -0.530472
  H 3.813468 1.431343 1.283604
  H 3.814372 -0.178388 1.931892
  H 1.664471 0.287216 3.143514
  H 1.664273 1.935097 2.479481
  H 2.197944 -0.371034 -0.865723
  H 5.296727 -0.117729 -0.229138
  H 4.991252 -2.395607 -3.581947
  H 4.992914 -0.777560 -4.229143
  H 2.652793 -0.448371 -3.429986
  H 2.650309 -2.079015 -2.777493
  H 6.991227 -0.601406 -1.447858
 26
 77.004152
  C 0.969540 0.077880 0.302308
  C 2.458509 0.103610 0.319444
  C 3.140754 0.624564 1.567791
  C 2.294955 1.099667 2.744110
  H 2.951243 1.433642 3.545692
  C 3.259750 -0.354135 -0.784927
  C 4.616715 -0.444430 -1.000772
  C 5.225679 -0.897761 -2.163509
  C 4.589224 -1.382651 -3.416459
  C 3.070671 -1.410646 -3.515821
  H 2.793656 -1.791579 -4.497264
  O 6.538589 -0.932536 -2.237584
  H 0.550383 0.458752 1.237315
  H 0.590311 -0.938521 0.150263
  H 0.573118 0.685133 -0.518016
  H 3.802486 1.444183 1.261061
  H 3.815391 -0.166623 1.917002
  H 1.675093 0.298907 3.141084
  H 1.661573 1.940212 2.469153
  H 2.176258 -0.365139 -0.820909
  H 5.293034 -0.145167 -0.203347
  H 4.991276 -2.388766 -3.595843
  H 5.002108 -0.768204 -4.227576
  H 2.655662 -0.417370 -3.407091
  H 2.643727 -2.062956 -2.764727
  H 6.997669 -0.617811 -1.431780
 26
 84.584208
  C 0.941503 0.035321 0.327626
  C 2.445164 0.092400 0.308160
  C 3.143041 0.652676 1.534403
  C 2.303554 1.129193 2.710128
  H 2.964092 1.483376 3.496404
  C 3.257103 -0.386124 -0.782694
  C 4.611564 -0.482428 -0.978832
  C 5.228947 -0.911799 -2.146390
  C 4.592264 -1.363393 -3.412486
  C 3.074265 -1.363261 -3.508001
  H 2.789381 -1.716364 -4.493103
  O 6.545274 -0.962659 -2.214186
  H 0.548567 0.426359 1.257359
  H 0.570771 -0.985901 0.207654
  H 0.518248 0.621073 -0.488949
  H 3.789200 1.479778 1.216659
  H 3.829501 -0.127660 1.879596
  H 1.701193 0.322798 3.124728
  H 1.653645 1.957403 2.432592
  H 2.151547 -0.381384 -0.776672
  H 5.283014 -0.223238 -0.159640
  H 4.979116 -2.369881 -3.614299
  H 5.012231 -0.735564 -4.207835
  H 2.676383 -0.363745 -3.376098
  H 2.638470 -2.026981 -2.768640
  H 7.000085 -0.670517 -1.401665
 26
 88.211616
  C 0.929013 -0.047005 0.351993
  C 2.444147 0.057070 0.293199
  C 3.152347 0.694591 1.492496
  C 2.300520 1.185462 2.649756
  H 2.958871 1.580130 3.419640
  C 3.258870 -0.445269 -0.736839
  C 4.617081 -0.555333 -0.945175
  C 5.233076 -0.935599 -2.118534
  C 4.585449 -1.317574 -3.403632
  C 3.065663 -1.272294 -3.489279
  H 2.762322 -1.575586 -4.490419
  O 6.550163 -1.014074 -2.191183
  H 0.549283 0.383154 1.276914
  H 0.576759 -1.079327 0.294421
  H 0.476438 0.500290 -0.477588
  H 3.772255 1.529103 1.145914
  H 3.851409 -0.068796 1.849227
  H 1.721203 0.378282 3.092926
  H 1.632635 1.989335 2.351710
  H 2.145439 -0.446434 -0.722927
  H 5.278267 -0.365421 -0.098902
  H 4.950092 -2.321850 -3.651989
  H 5.020540 -0.663779 -4.169107
  H 2.695061 -0.268418 -3.312857
  H 2.617068 -1.960005 -2.776240
  H 7.010153 -0.762560 -1.369528
 26
 89.032913
  C 0.925055 -0.163649 0.382748
  C 2.443476 -0.004301 0.290096
  C 3.146061 0.751298 1.443739
  C 2.271330 1.278899 2.572402
  H 2.917919 1.752871 3.308517
  C 3.303082 -0.524693 -0.669145
  C 4.650561 -0.673967 -0.901809
  C 5.250800 -0.989012 -2.099630
  C 4.575050 -1.244432 -3.400640
  C 3.054608 -1.129095 -3.446054
  H 2.713371 -1.338719 -4.458957
  O 6.567151 -1.109457 -2.196159
  H 0.551591 0.322008 1.282597
  H 0.614525 -1.208399 0.414578
  H 0.439082 0.308514 -0.473057
  H 3.721543 1.590349 1.031585
  H 3.874442 0.040590 1.847988
  H 1.733142 0.480767 3.073904
  H 1.569420 2.031013 2.226920
  H 2.144220 -0.575019 -0.662301
  H 5.304754 -0.580546 -0.036452
  H 4.890306 -2.239614 -3.731823
  H 5.021385 -0.550338 -4.120877
  H 2.732107 -0.125366 -3.182039
  H 2.592884 -1.853006 -2.779238
  H 7.041077 -0.933772 -1.366367
 26
 90.454420
  C 0.949420 -0.227611 0.379121
  C 2.474242 -0.013919 0.292601
  C 3.122775 0.807029 1.448384
  C 2.207792 1.332702 2.530612
  H 2.820573 1.850686 3.261563
  C 3.382128 -0.537458 -0.597565
  C 4.714761 -0.735854 -0.884887
  C 5.266805 -1.029521 -2.105754
  C 4.542871 -1.205890 -3.397995
  C 3.030272 -1.028562 -3.393055
  H 2.651768 -1.183656 -4.401580
  O 6.576338 -1.197508 -2.248368
  H 0.558193 0.284413 1.258923
  H 0.682211 -1.282017 0.458371
  H 0.448392 0.191718 -0.495618
  H 3.668923 1.651042 1.011025
  H 3.861626 0.140157 1.894343
  H 1.688687 0.530369 3.049940
  H 1.488786 2.049956 2.145486
  H 2.179949 -0.612058 -0.621842
  H 5.386631 -0.705989 -0.029836
  H 4.805065 -2.196783 -3.776453
  H 4.994502 -0.505843 -4.102770
  H 2.758781 -0.025855 -3.081944
  H 2.560746 -1.758405 -2.744252
  H 7.081162 -1.065977 -1.426274
 26
 91.227368
  C 0.983703 -0.296379 0.385351
  C 2.519008 -0.011088 0.293594
  C 3.106478 0.870063 1.431017
  C 2.143938 1.386787 2.465015
  H 2.711071 1.948412 3.193960
  C 3.457108 -0.553741 -0.514780
  C 4.767516 -0.800629 -0.854919
  C 5.263487 -1.065899 -2.095643
  C 4.492007 -1.149886 -3.392791
  C 3.002945 -0.906823 -3.339272
  H 2.592545 -0.997537 -4.350597
  O 6.560809 -1.292172 -2.275866
  H 0.577244 0.260518 1.213767
  H 0.761749 -1.369812 0.552841
  H 0.457976 0.037015 -0.530157
  H 3.613379 1.698957 0.980627
  H 3.851801 0.260419 1.915775
  H 1.646482 0.581274 2.993699
  H 1.409584 2.062158 2.038124
  H 2.245617 -0.676946 -0.553796
  H 5.474378 -0.834762 -0.012437
  H 4.694459 -2.136168 -3.820690
  H 4.959445 -0.434430 -4.081148
  H 2.787694 0.091558 -2.976809
  H 2.515625 -1.648924 -2.712079
  H 7.089606 -1.210755 -1.458993
 26
 91.784274
  C 1.008806 -0.414171 0.437947
  C 2.529077 -0.087968 0.338088
  C 3.065769 0.916493 1.398163
  C 2.063870 1.508906 2.398806
  H 2.615343 2.155011 3.084219
  C 3.493689 -0.638355 -0.475309
  C 4.789829 -0.908605 -0.844659
  C 5.267250 -1.110415 -2.116929
  C 4.483501 -1.060194 -3.391107
  C 3.002557 -0.755993 -3.284473
  H 2.568726 -0.761537 -4.284222
  O 6.557555 -1.369366 -2.340353
  H 0.586271 0.166271 1.236241
  H 0.820836 -1.461885 0.650446
  H 0.485057 -0.137784 -0.481973
  H 3.560412 1.730909 0.871064
  H 3.837145 0.368100 1.949998
  H 1.587397 0.742186 2.998747
  H 1.313741 2.122192 1.916597
  H 2.230324 -0.752935 -0.496824
  H 5.494532 -1.039090 -0.021328
  H 4.627292 -2.025060 -3.892115
  H 4.975094 -0.320542 -4.034952
  H 2.835105 0.223333 -2.850544
  H 2.494559 -1.525816 -2.694240
  H 7.098853 -1.377002 -1.533142
