 28
 0.000000
  C 0.905902 0.048645 0.273637
  C 2.396777 0.059192 0.086655
  C 3.243057 -0.012105 1.350280
  C 2.526318 -0.087994 2.695106
  H 3.248294 -0.133562 3.502711
  C 2.990423 0.127453 -1.123052
  C 2.348416 0.204852 -2.494735
  C 0.837481 0.217328 -2.715757
  C 0.523890 0.301496 -4.207428
  C 4.451888 0.132571 -1.213695
  C 5.189010 0.194923 -2.318817
  H 6.266399 0.194341 -2.308441
  H 0.612424 -0.010176 1.316009
  H 0.461191 -0.815293 -0.213383
  H 0.461192 0.961886 -0.113101
  H 3.889216 0.870846 1.379131
  H 3.889216 -0.892694 1.279622
  H 1.898518 -0.976311 2.748612
  H 1.898510 0.788660 2.848207
  H 2.739170 -0.643478 -3.067540
  H 2.739169 1.112239 -2.968470
  H 0.383188 1.077915 -2.226518
  H 0.383189 -0.692834 -2.326437
  H 0.937127 1.209960 -4.641176
  H -0.552793 0.310321 -4.363808
  H 0.937128 -0.552411 -4.740622
  H 4.995446 0.080059 -0.283051
  H 4.804520 0.251651 -3.324107
 28
 -0.497049
  C 0.902421 0.132858 0.281586
  C 2.391474 0.078037 0.086851
  C 3.242736 -0.035705 1.344691
  C 2.523948 -0.113372 2.689462
  H 3.271136 -0.201892 3.476960
  C 2.984931 0.136391 -1.123808
  C 2.338999 0.236452 -2.494096
  C 0.831473 0.171300 -2.717773
  C 0.530544 0.258601 -4.213779
  C 4.446061 0.113011 -1.223869
  C 5.185235 0.214431 -2.326073
  H 6.259672 0.186958 -2.264623
  H 0.634641 0.099624 1.330853
  H 0.413937 -0.705794 -0.207788
  H 0.495564 1.053095 -0.130053
  H 3.916055 0.826296 1.386941
  H 3.863113 -0.932895 1.258860
  H 1.876772 -0.984825 2.749241
  H 1.940919 0.784384 2.888015
  H 2.774898 -0.572214 -3.088054
  H 2.692246 1.176342 -2.934293
  H 0.326038 0.996082 -2.218690
  H 0.429615 -0.768987 -2.339199
  H 0.896950 1.197071 -4.625043
  H -0.541237 0.203504 -4.390574
  H 1.007977 -0.558575 -4.751295
  H 4.986764 0.006697 -0.295904
  H 4.786551 0.330516 -3.317088
 28
 -0.514431
  C 0.905586 0.182751 0.284937
  C 2.393294 0.103271 0.088309
  C 3.241810 -0.049746 1.343689
  C 2.520544 -0.156661 2.684471
  H 3.265635 -0.288405 3.469727
  C 2.986595 0.163043 -1.122401
  C 2.338964 0.267284 -2.492446
  C 0.829973 0.175959 -2.715458
  C 0.528788 0.223001 -4.210790
  C 4.446870 0.135798 -1.223083
  C 5.186190 0.205268 -2.328019
  H 6.262836 0.186776 -2.264442
  H 0.644344 0.221077 1.334860
  H 0.408344 -0.682385 -0.146280
  H 0.503647 1.077400 -0.184039
  H 3.922730 0.801965 1.409848
  H 3.853495 -0.952208 1.234069
  H 1.852933 -1.015611 2.713308
  H 1.958182 0.746246 2.914293
  H 2.784375 -0.534946 -3.088721
  H 2.680615 1.212011 -2.930246
  H 0.310491 1.006076 -2.237724
  H 0.442826 -0.759735 -2.313190
  H 0.872044 1.162109 -4.641849
  H -0.541756 0.136792 -4.386727
  H 1.027151 -0.592855 -4.730265
  H 4.986400 0.067433 -0.294867
  H 4.786761 0.285036 -3.324041
 28
 -0.498674
  C 0.905637 0.189527 0.291477
  C 2.390629 0.117131 0.090099
  C 3.240309 -0.060220 1.341618
  C 2.516719 -0.182087 2.680853
  H 3.260029 -0.339158 3.464539
  C 2.983907 0.185866 -1.119782
  C 2.336348 0.283194 -2.489921
  C 0.829059 0.195266 -2.713983
  C 0.530107 0.205287 -4.212530
  C 4.447370 0.175580 -1.220885
  C 5.186532 0.194244 -2.327213
  H 6.265721 0.200246 -2.261207
  H 0.650625 0.286116 1.337775
  H 0.418049 -0.708878 -0.083717
  H 0.485617 1.047640 -0.225491
  H 3.929911 0.785901 1.421418
  H 3.843480 -0.963322 1.217906
  H 1.836362 -1.032089 2.692790
  H 1.966571 0.724901 2.928948
  H 2.776676 -0.526522 -3.078299
  H 2.682361 1.221352 -2.936760
  H 0.316815 1.039097 -2.261878
  H 0.434503 -0.724528 -2.286986
  H 0.872218 1.132555 -4.665571
  H -0.540528 0.113314 -4.388494
  H 1.029640 -0.621090 -4.710282
  H 4.988612 0.172643 -0.288725
  H 4.787389 0.213295 -3.326602
 28
 -0.547732
  C 0.902005 0.172897 0.294285
  C 2.389317 0.127458 0.089648
  C 3.240348 -0.052807 1.339422
  C 2.517438 -0.210838 2.674136
  H 3.259546 -0.373340 3.453264
  C 2.981378 0.206516 -1.119929
  C 2.335592 0.295858 -2.490975
  C 0.825913 0.238816 -2.711548
  C 0.526029 0.200470 -4.207955
  C 4.443481 0.210639 -1.217121
  C 5.185903 0.174004 -2.320776
  H 6.260835 0.202329 -2.254532
  H 0.650258 0.328367 1.336349
  H 0.438566 -0.761362 -0.019089
  H 0.454571 0.982904 -0.271909
  H 3.914261 0.803396 1.434690
  H 3.860554 -0.942698 1.200733
  H 1.848730 -1.068442 2.667417
  H 1.956018 0.681936 2.938936
  H 2.759475 -0.534440 -3.066041
  H 2.702645 1.218343 -2.954361
  H 0.336737 1.117442 -2.291692
  H 0.405541 -0.652707 -2.249385
  H 0.893343 1.100618 -4.695688
  H -0.545644 0.131582 -4.379887
  H 1.002694 -0.658788 -4.674839
  H 4.981250 0.274479 -0.283088
  H 4.790307 0.110754 -3.317793
 28
 -0.574790
  C 0.895285 0.144670 0.297390
  C 2.382867 0.127234 0.089984
  C 3.236879 -0.066279 1.337482
  C 2.515890 -0.223857 2.675763
  H 3.258853 -0.393554 3.452918
  C 2.974398 0.222110 -1.117036
  C 2.333409 0.309157 -2.491426
  C 0.822452 0.287989 -2.715406
  C 0.525244 0.225658 -4.209159
  C 4.435192 0.238625 -1.210973
  C 5.181637 0.133216 -2.307888
  H 6.255371 0.180718 -2.242079
  H 0.644223 0.353627 1.334498
  H 0.459259 -0.821471 0.040820
  H 0.422226 0.907285 -0.311520
  H 3.919814 0.783643 1.435582
  H 3.849765 -0.960222 1.191205
  H 1.842727 -1.074334 2.668869
  H 1.961490 0.671234 2.944090
  H 2.738145 -0.539338 -3.054386
  H 2.725501 1.215968 -2.966257
  H 0.359915 1.187946 -2.318038
  H 0.374076 -0.583487 -2.232670
  H 0.916527 1.105438 -4.714932
  H -0.547218 0.180650 -4.382056
  H 0.980859 -0.656025 -4.656240
  H 4.965873 0.375153 -0.285443
  H 4.787258 -0.011109 -3.301786
 28
 -0.503594
  C 0.891083 0.101457 0.302292
  C 2.377206 0.121834 0.092321
  C 3.231201 -0.086706 1.334466
  C 2.513221 -0.190875 2.678625
  H 3.254587 -0.369529 3.456364
  C 2.967408 0.237913 -1.115312
  C 2.325496 0.326169 -2.488174
  C 0.816444 0.291082 -2.712611
  C 0.519196 0.239825 -4.209306
  C 4.429078 0.274820 -1.212294
  C 5.177441 0.113061 -2.300156
  H 6.251873 0.180487 -2.238813
  H 0.637834 0.334284 1.329835
  H 0.484770 -0.884464 0.078725
  H 0.391197 0.829589 -0.326572
  H 3.949293 0.734266 1.415924
  H 3.807843 -1.007226 1.196103
  H 1.808443 -1.018920 2.694776
  H 1.991645 0.729782 2.927441
  H 2.737831 -0.518810 -3.054721
  H 2.709335 1.235742 -2.959939
  H 0.343230 1.184549 -2.306110
  H 0.380461 -0.586012 -2.239459
  H 0.886267 1.137569 -4.704374
  H -0.550188 0.167971 -4.381964
  H 0.998502 -0.624385 -4.669187
  H 4.960353 0.470125 -0.291824
  H 4.786942 -0.106734 -3.277408
 28
 -0.207044
  C 0.882333 0.089618 0.306493
  C 2.368663 0.105857 0.096719
  C 3.222186 -0.121151 1.337230
  C 2.518825 -0.138017 2.692624
  H 3.259141 -0.339486 3.466184
  C 2.957262 0.230878 -1.110234
  C 2.312667 0.334508 -2.482756
  C 0.806605 0.249050 -2.712144
  C 0.513059 0.245806 -4.210325
  C 4.419925 0.263086 -1.211268
  C 5.167172 0.121535 -2.301804
  H 6.238983 0.209257 -2.244149
  H 0.631180 0.313130 1.337225
  H 0.472678 -0.892088 0.069626
  H 0.392823 0.828953 -0.313700
  H 3.993511 0.652524 1.389933
  H 3.738455 -1.077994 1.220200
  H 1.765907 -0.918321 2.748265
  H 2.060079 0.820664 2.914660
  H 2.752891 -0.481899 -3.066108
  H 2.668564 1.268067 -2.936072
  H 0.294334 1.102549 -2.272453
  H 0.406809 -0.664702 -2.275273
  H 0.831781 1.180270 -4.665575
  H -0.553770 0.123665 -4.389374
  H 1.036822 -0.569138 -4.704129
  H 4.952147 0.473704 -0.294433
  H 4.778418 -0.098485 -3.281409
 28
 0.191846
  C 0.872232 0.117406 0.314106
  C 2.357402 0.105904 0.103404
  C 3.205435 -0.163550 1.334688
  C 2.518284 -0.116239 2.699443
  H 3.252144 -0.351438 3.464785
  C 2.947116 0.249455 -1.104808
  C 2.292646 0.360096 -2.472760
  C 0.797345 0.186907 -2.709009
  C 0.505607 0.219858 -4.209659
  C 4.409339 0.299309 -1.210892
  C 5.157802 0.168127 -2.301328
  H 6.230728 0.214996 -2.232992
  H 0.635041 0.288175 1.357061
  H 0.435547 -0.834786 0.015772
  H 0.416065 0.909317 -0.260678
  H 4.025855 0.551697 1.371305
  H 3.657728 -1.154620 1.223023
  H 1.713903 -0.850010 2.781072
  H 2.123765 0.874281 2.909278
  H 2.777379 -0.410698 -3.074374
  H 2.594191 1.324786 -2.898259
  H 0.228117 0.981886 -2.242509
  H 0.460227 -0.769112 -2.305638
  H 0.740776 1.196406 -4.623176
  H -0.546614 0.013179 -4.397443
  H 1.103841 -0.530725 -4.740558
  H 4.946288 0.468636 -0.284616
  H 4.775066 -0.043822 -3.285309
 28
 0.539023
  C 0.872075 0.139400 0.301377
  C 2.359595 0.096535 0.102646
  C 3.190188 -0.214989 1.336733
  C 2.523800 -0.083909 2.703651
  H 3.236279 -0.391937 3.467573
  C 2.951807 0.234389 -1.102246
  C 2.297707 0.350229 -2.468594
  C 0.805613 0.129756 -2.707982
  C 0.507235 0.221073 -4.202505
  C 4.411979 0.293917 -1.209258
  C 5.162884 0.194744 -2.302334
  H 6.232573 0.305911 -2.239224
  H 0.620587 0.301417 1.342671
  H 0.404357 -0.792068 -0.014443
  H 0.432199 0.955853 -0.261364
  H 4.068966 0.431726 1.354137
  H 3.557676 -1.241735 1.239782
  H 1.650030 -0.723648 2.799808
  H 2.239282 0.946539 2.906052
  H 2.803869 -0.401852 -3.081960
  H 2.569585 1.326807 -2.885042
  H 0.200623 0.877609 -2.199342
  H 0.512571 -0.857420 -2.350996
  H 0.687948 1.229187 -4.568098
  H -0.531829 -0.033226 -4.399608
  H 1.138699 -0.463895 -4.765822
  H 4.944686 0.487234 -0.289094
  H 4.782271 -0.012228 -3.286590
 28
 -0.289798
  C 0.873697 0.115454 0.302050
  C 2.363596 0.106435 0.102041
  C 3.214977 -0.071462 1.350844
  C 2.501328 -0.135962 2.697823
  H 3.244144 -0.304258 3.475920
  C 2.955385 0.202186 -1.107734
  C 2.307815 0.276901 -2.478635
  C 0.801164 0.178855 -2.703340
  C 0.501141 0.232840 -4.199321
  C 4.416629 0.232480 -1.207245
  C 5.159505 0.198998 -2.310860
  H 6.233741 0.251394 -2.245446
  H 0.615668 0.221313 1.348622
  H 0.425473 -0.808098 -0.059354
  H 0.420055 0.946233 -0.228430
  H 3.933392 0.751124 1.409332
  H 3.790286 -0.995711 1.239281
  H 1.789635 -0.957204 2.740173
  H 1.989804 0.796899 2.924891
  H 2.753405 -0.543611 -3.051215
  H 2.651050 1.207438 -2.943606
  H 0.275618 1.002507 -2.223222
  H 0.419006 -0.760917 -2.305497
  H 0.805989 1.189903 -4.617150
  H -0.563588 0.105050 -4.378776
  H 1.033435 -0.554911 -4.728255
  H 4.954582 0.312893 -0.275369
  H 4.766322 0.108651 -3.307592
 28
 -0.295345
  C 0.870141 0.047071 0.293902
  C 2.363115 0.055683 0.098437
  C 3.213630 -0.021800 1.359805
  C 2.499841 -0.069155 2.707606
  H 3.249581 -0.152350 3.493175
  C 2.955850 0.124000 -1.111221
  C 2.312295 0.160514 -2.485149
  C 0.801192 0.167334 -2.705192
  C 0.500257 0.295247 -4.196774
  C 4.417226 0.173754 -1.206601
  C 5.155377 0.253063 -2.311112
  H 6.229811 0.305454 -2.244717
  H 0.611632 -0.013603 1.341750
  H 0.421859 -0.799605 -0.218352
  H 0.437516 0.960131 -0.106983
  H 3.880433 0.845200 1.383316
  H 3.841987 -0.915436 1.291157
  H 1.843874 -0.932907 2.790381
  H 1.928774 0.838541 2.890048
  H 2.707197 -0.710207 -3.021405
  H 2.708302 1.047927 -2.989805
  H 0.336373 1.005221 -2.188531
  H 0.356504 -0.760434 -2.345613
  H 0.899014 1.227986 -4.590781
  H -0.573458 0.282062 -4.370830
  H 0.946456 -0.528062 -4.751220
  H 4.959652 0.124682 -0.275538
  H 4.758823 0.295107 -3.309824
