 23
 0.000000
  C 0.952160 0.174508 0.485014
  C 2.411319 0.124668 0.360787
  H 3.032821 0.453780 1.179471
  C 2.990219 -0.341752 -0.800051
  C 4.371770 -0.414408 -0.982154
  C 5.091234 -0.859889 -2.092787
  C 4.624348 -1.385244 -3.401889
  C 3.142263 -1.516173 -3.728454
  C 2.971646 -2.081220 -5.136708
  O 6.404692 -0.839634 -2.043164
  H 0.622681 0.560252 1.444494
  H 0.530756 -0.822149 0.337681
  H 0.530523 0.791722 -0.311169
  H 2.328094 -0.658461 -1.587723
  H 4.975811 -0.078151 -0.145638
  H 5.099537 -2.366762 -3.518508
  H 5.099736 -0.756827 -4.164686
  H 2.656859 -0.540793 -3.689181
  H 2.656744 -2.193849 -3.025912
  H 3.428021 -1.428367 -5.876966
  H 1.916637 -2.178422 -5.379184
  H 3.427958 -3.064697 -5.220395
  H 6.771782 -0.503203 -1.203273
 23
 -0.408145
  C 0.966584 0.338028 0.506087
  C 2.394638 0.059682 0.362756
  H 3.021128 0.125032 1.242330
  C 2.966293 -0.284085 -0.840305
  C 4.336310 -0.525217 -0.956210
  C 5.071235 -0.858969 -2.096080
  C 4.596246 -1.180266 -3.467191
  C 3.163304 -1.652453 -3.704382
  C 3.033971 -2.222319 -5.114621
  O 6.379116 -0.916381 -2.019862
  H 0.695488 0.601752 1.522558
  H 0.380100 -0.526735 0.185765
  H 0.666993 1.139973 -0.172788
  H 2.328767 -0.350901 -1.705461
  H 4.910891 -0.400062 -0.044408
  H 5.287482 -1.940981 -3.846258
  H 4.786165 -0.295638 -4.087413
  H 2.459584 -0.826815 -3.614339
  H 2.900479 -2.427132 -2.983259
  H 3.279233 -1.470865 -5.861351
  H 2.015372 -2.556717 -5.294137
  H 3.696375 -3.073260 -5.255521
  H 6.760561 -0.687840 -1.150104
 23
 -1.893720
  C 0.988118 0.572261 0.386295
  C 2.361990 0.069046 0.313652
  H 2.890329 -0.118556 1.239455
  C 2.999868 -0.181172 -0.876021
  C 4.323582 -0.625070 -0.929771
  C 5.061826 -0.883874 -2.088187
  C 4.503573 -1.026028 -3.463990
  C 3.327149 -2.006583 -3.609840
  C 3.013450 -2.230677 -5.088083
  O 6.357457 -1.020995 -2.033984
  H 0.655831 0.726017 1.409547
  H 0.304797 -0.119284 -0.116976
  H 0.896152 1.506213 -0.174578
  H 2.466202 0.011876 -1.795881
  H 4.846901 -0.704026 0.014895
  H 5.318645 -1.369195 -4.103861
  H 4.203131 -0.040801 -3.827255
  H 2.434322 -1.635913 -3.115612
  H 3.597232 -2.962616 -3.149813
  H 2.730017 -1.297943 -5.571456
  H 2.189656 -2.932786 -5.194983
  H 3.873975 -2.639690 -5.613458
  H 6.757663 -0.958334 -1.142967
 23
 2.199551
  C 0.994718 0.635708 0.321023
  C 2.341898 0.070111 0.274853
  H 2.835661 -0.158048 1.209738
  C 2.999020 -0.191015 -0.903584
  C 4.302691 -0.688013 -0.931159
  C 5.071660 -0.904494 -2.076576
  C 4.506801 -1.004361 -3.444926
  C 3.415849 -2.082280 -3.578892
  C 2.971908 -2.203331 -5.030807
  O 6.379017 -0.828678 -2.021978
  H 0.645973 0.791828 1.335825
  H 0.293011 -0.015746 -0.205879
  H 0.960982 1.578557 -0.229690
  H 2.502032 0.042341 -1.834107
  H 4.794509 -0.808508 0.027274
  H 5.323278 -1.235259 -4.131321
  H 4.093261 -0.037368 -3.745602
  H 2.554203 -1.845755 -2.958346
  H 3.817043 -3.040378 -3.244787
  H 2.553126 -1.266262 -5.389360
  H 2.211995 -2.974743 -5.126859
  H 3.807019 -2.471832 -5.673280
  H 6.820216 -1.180143 -1.225621
 23
 10.169409
  C 0.966830 0.545238 0.341439
  C 2.317254 -0.020878 0.286514
  H 2.791637 -0.312402 1.217131
  C 3.015550 -0.162079 -0.886926
  C 4.308490 -0.683410 -0.923195
  C 5.082738 -0.870898 -2.078825
  C 4.531872 -1.065336 -3.438554
  C 3.295822 -1.966470 -3.544581
  C 2.976956 -2.250879 -5.013682
  O 6.363153 -0.567687 -2.049343
  H 0.592449 0.621870 1.357680
  H 0.277589 -0.065124 -0.247404
  H 0.947078 1.526481 -0.135324
  H 2.559658 0.179355 -1.804268
  H 4.752122 -0.956125 0.029949
  H 5.331633 -1.484018 -4.058073
  H 4.305636 -0.082876 -3.869319
  H 2.425675 -1.510210 -3.075485
  H 3.494529 -2.906229 -3.033841
  H 2.770498 -1.328973 -5.553074
  H 2.102937 -2.892856 -5.092967
  H 3.809866 -2.754890 -5.504954
  H 6.966672 -1.008596 -1.424381
 23
 19.476866
  C 0.992241 0.638803 0.344692
  C 2.291888 -0.030915 0.284572
  H 2.716434 -0.409991 1.206071
  C 2.994877 -0.186716 -0.886655
  C 4.264818 -0.755477 -0.917491
  C 5.079091 -0.936569 -2.052201
  C 4.559343 -1.130869 -3.418571
  C 3.344538 -2.062118 -3.550946
  C 2.958407 -2.228213 -5.020157
  O 6.288995 -0.388155 -1.967795
  H 0.616733 0.716664 1.358958
  H 0.259855 0.093572 -0.261946
  H 1.052947 1.630862 -0.107846
  H 2.590566 0.234144 -1.794751
  H 4.679526 -1.042188 0.040945
  H 5.371008 -1.501558 -4.046603
  H 4.310728 -0.140843 -3.815922
  H 2.487837 -1.676116 -2.995442
  H 3.597492 -3.044700 -3.135419
  H 2.685864 -1.268990 -5.462107
  H 2.103848 -2.895742 -5.114281
  H 3.776464 -2.646792 -5.593039
  H 7.078897 -0.836717 -1.624624
 23
 39.942201
  C 1.009888 0.600385 0.371873
  C 2.320632 -0.064225 0.292517
  H 2.689456 -0.563115 1.180551
  C 3.082853 -0.073749 -0.843240
  C 4.315100 -0.724611 -0.902888
  C 5.054095 -1.013148 -2.085233
  C 4.573826 -1.176780 -3.456027
  C 3.322914 -2.046756 -3.579297
  C 2.966256 -2.279337 -5.041050
  O 6.102367 -0.158269 -1.863224
  H 0.577736 0.524189 1.363525
  H 0.315189 0.158292 -0.348860
  H 1.100530 1.651744 0.096486
  H 2.728495 0.429685 -1.724773
  H 4.614594 -1.234915 0.001654
  H 5.374386 -1.595522 -4.068231
  H 4.381460 -0.178797 -3.873192
  H 2.487245 -1.560407 -3.084646
  H 3.490145 -3.002657 -3.087848
  H 2.754599 -1.337506 -5.545268
  H 2.083869 -2.909833 -5.118944
  H 3.777794 -2.773367 -5.566049
  H 6.967362 -0.548652 -1.640881
 23
 57.205830
  C 1.133897 0.804538 0.586491
  C 2.404937 0.049613 0.413335
  H 2.750195 -0.528694 1.264486
  C 3.095580 0.028261 -0.725858
  C 4.298976 -0.792713 -0.881085
  C 4.816925 -1.129158 -2.172428
  C 4.475816 -1.214678 -3.577891
  C 3.425557 -2.290225 -3.827253
  C 3.105598 -2.397864 -5.312938
  O 5.513119 -0.065948 -1.488305
  H 0.761149 0.722096 1.602803
  H 0.374512 0.425932 -0.092294
  H 1.278766 1.855282 0.348817
  H 2.778770 0.604467 -1.580744
  H 4.581328 -1.370408 -0.005824
  H 5.375451 -1.431147 -4.165631
  H 4.106345 -0.242446 -3.949788
  H 2.516927 -2.048190 -3.275192
  H 3.792982 -3.250525 -3.464819
  H 2.720865 -1.458101 -5.698915
  H 2.352064 -3.164190 -5.481295
  H 3.992942 -2.665298 -5.883490
  H 6.400284 -0.339044 -1.138882
 23
 66.078762
  C 1.128778 0.750623 0.655397
  C 2.445280 0.083645 0.486417
  H 2.848717 -0.401449 1.366124
  C 3.102786 0.049976 -0.665891
  C 4.378994 -0.748179 -0.826625
  C 4.675196 -1.098536 -2.164975
  C 4.459020 -1.228095 -3.580818
  C 3.348396 -2.238133 -3.884390
  C 3.190189 -2.425037 -5.391838
  O 5.484709 -0.033894 -1.487630
  H 0.785702 0.679602 1.681086
  H 0.385836 0.288671 0.006017
  H 1.192409 1.799378 0.382255
  H 2.744072 0.548338 -1.551417
  H 4.482825 -1.229425 0.135777
  H 5.383228 -1.531888 -4.084115
  H 4.183346 -0.251853 -4.008705
  H 2.406387 -1.895810 -3.452812
  H 3.595237 -3.198630 -3.425978
  H 2.933096 -1.486302 -5.877349
  H 2.397869 -3.141303 -5.601690
  H 4.109626 -2.801777 -5.835889
  H 6.387719 -0.411530 -1.364720
 23
 93.338159
  C 1.115392 0.615719 0.637035
  C 2.500824 0.095352 0.474492
  H 2.991172 -0.191683 1.389940
  C 3.100522 0.005972 -0.693623
  C 4.537982 -0.698693 -0.809787
  C 4.619088 -1.063891 -2.139361
  C 4.481692 -1.253948 -3.561303
  C 3.256085 -2.131979 -3.885276
  C 3.165945 -2.375826 -5.395203
  O 5.593458 -0.027922 -1.518331
  H 0.828209 0.619991 1.681048
  H 0.418566 -0.006228 0.086646
  H 1.034511 1.624406 0.245334
  H 2.731771 0.345850 -1.645551
  H 4.417352 -0.972625 0.218851
  H 5.379677 -1.731435 -3.971400
  H 4.374611 -0.282770 -4.062575
  H 2.346548 -1.623538 -3.548369
  H 3.326916 -3.085865 -3.356257
  H 3.057347 -1.435589 -5.937317
  H 2.298187 -2.999214 -5.625206
  H 4.052182 -2.888671 -5.761478
  H 6.460632 -0.455880 -1.305833
 23
 118.608324
  C 0.895117 0.572067 0.816096
  C 2.330703 0.145616 0.545454
  H 2.888402 -0.097924 1.433604
  C 2.838852 0.063986 -0.655390
  C 4.724494 -0.710242 -0.920060
  C 4.741561 -1.078224 -2.190507
  C 4.585199 -1.285751 -3.606989
  C 3.300241 -2.062194 -3.933036
  C 3.226107 -2.317808 -5.434636
  O 5.884365 -0.146291 -1.634193
  H 0.698922 0.581662 1.883063
  H 0.209042 -0.127653 0.338024
  H 0.698398 1.560859 0.413953
  H 2.472521 0.277155 -1.632706
  H 4.585212 -0.846699 0.123600
  H 5.453925 -1.831943 -3.990487
  H 4.546111 -0.315526 -4.119652
  H 2.430899 -1.481582 -3.609696
  H 3.282190 -3.009635 -3.401460
  H 3.227280 -1.384621 -5.992227
  H 2.314451 -2.855123 -5.684004
  H 4.072070 -2.917273 -5.762251
  H 6.734046 -0.648699 -1.462068
 23
 129.765902
  C 0.727423 0.415146 0.868979
  C 2.155545 0.142393 0.419018
  H 2.844947 -0.005168 1.240842
  C 2.545583 0.077996 -0.808301
  C 5.112629 -0.534074 -1.108825
  C 4.877729 -0.979725 -2.288590
  C 4.721084 -1.329197 -3.641676
  C 3.270762 -1.843560 -3.874026
  C 3.125694 -2.312518 -5.314041
  O 6.408691 -0.204192 -1.612614
  H 0.674213 0.436917 1.952189
  H 0.066375 -0.362631 0.494489
  H 0.387554 1.369946 0.475400
  H 2.133858 0.187258 -1.782468
  H 4.861144 -0.537148 -0.074159
  H 5.412519 -2.135191 -3.905388
  H 4.906292 -0.471297 -4.295263
  H 2.565134 -1.038913 -3.678331
  H 3.057047 -2.664798 -3.191337
  H 3.323955 -1.503386 -6.012183
  H 2.110418 -2.662642 -5.481644
  H 3.805385 -3.132153 -5.531763
  H 7.108100 -0.826461 -1.315298
 23
 98.153638
  C 1.010719 0.189006 0.280276
  C 2.479294 -0.014491 0.031298
  H 3.074311 -0.112045 0.927796
  C 2.975401 -0.088244 -1.167769
  C 5.173215 -0.395287 -0.943799
  C 4.618328 -0.941629 -1.992903
  C 4.312499 -1.229235 -3.365923
  C 2.894730 -1.768319 -3.703070
  C 2.847728 -2.215708 -5.156291
  O 6.476471 -0.015442 -1.176936
  H 0.825788 0.284221 1.344091
  H 0.445900 -0.654756 -0.107782
  H 0.664348 1.086746 -0.226150
  H 2.579721 -0.001268 -2.152807
  H 4.889214 -0.410393 0.094600
  H 4.992858 -2.038070 -3.661850
  H 4.509506 -0.347188 -3.987522
  H 2.144483 -0.994848 -3.551147
  H 2.669348 -2.609667 -3.047333
  H 3.086787 -1.395467 -5.828696
  H 1.849572 -2.572215 -5.398485
  H 3.544844 -3.028989 -5.341546
  H 7.176519 -0.602916 -0.848140
 23
 45.574428
  C 1.289122 0.189980 0.305984
  C 2.706362 -0.144021 0.067493
  H 3.315310 -0.224014 0.954903
  C 3.150851 -0.339460 -1.198004
  C 5.271693 -0.371126 -0.956028
  C 4.369479 -1.021350 -1.785481
  C 4.159888 -1.330397 -3.243059
  C 2.776805 -1.718458 -3.778231
  C 2.925969 -2.192760 -5.225355
  O 6.480110 0.045324 -1.235736
  H 1.090119 0.334879 1.361234
  H 0.647851 -0.611994 -0.063224
  H 1.003560 1.087735 -0.243726
  H 2.416321 -0.214206 -1.975287
  H 5.018260 -0.272384 0.090391
  H 4.819243 -2.189983 -3.437155
  H 4.582008 -0.481251 -3.799022
  H 2.061450 -0.897928 -3.772791
  H 2.384923 -2.538049 -3.169660
  H 3.318911 -1.397391 -5.856359
  H 1.958866 -2.491259 -5.622353
  H 3.591289 -3.051980 -5.295094
  H 7.187683 -0.219506 -0.619803
 23
 52.426194
  C 1.369417 0.224144 0.130613
  C 2.689891 -0.375084 -0.063454
  H 3.152723 -0.812384 0.814753
  C 3.316561 -0.341926 -1.268670
  C 5.293917 -0.407266 -0.952909
  C 4.495178 -1.101976 -1.859472
  C 4.181774 -1.302086 -3.291541
  C 2.808433 -1.861948 -3.610171
  C 2.719700 -2.165398 -5.097196
  O 6.427592 0.154477 -1.108223
  H 1.031439 0.123069 1.157173
  H 0.633518 -0.231002 -0.534030
  H 1.390339 1.283396 -0.134042
  H 2.735759 0.114331 -2.064473
  H 5.020016 -0.477845 0.083860
  H 4.915591 -2.012123 -3.709163
  H 4.364231 -0.378288 -3.824667
  H 2.022639 -1.151772 -3.357749
  H 2.650363 -2.769489 -3.031156
  H 2.876075 -1.266235 -5.686680
  H 1.742377 -2.570270 -5.341609
  H 3.460510 -2.899541 -5.395051
  H 6.939104 0.316721 -0.299986
