 20
 0.000000
  C 0.958930 -0.015885 -0.004542
  C 2.455272 0.000463 0.011264
  C 3.169792 0.813169 0.796742
  C 4.607814 0.829080 0.812118
  C 5.327146 1.646184 1.601856
  C 6.765911 1.660276 1.615473
  C 7.482888 2.471413 2.399434
  C 8.972939 2.501018 2.428048
  H 0.598044 -0.755122 -0.719011
  H 0.563202 0.955678 -0.300012
  H 0.563201 -0.278096 0.976520
  H 2.954756 -0.689714 -0.655800
  H 2.658077 1.499498 1.460085
  H 5.112343 0.140219 0.146337
  H 4.823185 2.335213 2.267800
  H 7.273067 0.972265 0.950509
  H 6.984275 3.162525 3.067397
  H 9.408038 1.783424 1.734489
  H 9.331820 2.268165 3.431840
  H 9.331820 3.496296 2.161143
 20
 7.454844
  C 0.843201 -0.027055 -0.015337
  C 2.498803 -0.006174 0.004849
  C 3.203502 0.804383 0.788251
  C 4.640390 0.826092 0.809231
  C 5.355057 1.645165 1.600871
  C 6.792522 1.665706 1.620720
  C 7.504226 2.478366 2.406154
  C 8.993283 2.514498 2.441076
  H 0.489136 -0.765462 -0.729005
  H 0.452748 0.943061 -0.309213
  H 0.452747 -0.287721 0.964224
  H 2.996500 -0.694421 -0.660349
  H 2.687966 1.488830 1.449774
  H 5.149372 0.139256 0.145406
  H 4.846497 2.331998 2.264693
  H 7.303779 0.979744 0.957737
  H 7.000813 3.167218 3.071933
  H 9.432031 1.798681 1.749235
  H 9.349571 2.283869 3.445829
  H 9.349569 3.510810 2.176361
 20
 23.447046
  C 0.726510 -0.033371 -0.021442
  C 2.541582 -0.017793 -0.006381
  C 3.232301 0.791224 0.775534
  C 4.671189 0.819943 0.803290
  C 5.380392 1.640349 1.596219
  C 6.816806 1.669949 1.624820
  C 7.523525 2.485090 2.412652
  C 9.011216 2.530473 2.456515
  H 0.386696 -0.770114 -0.733503
  H 0.362089 0.939785 -0.310417
  H 0.362088 -0.289037 0.960991
  H 3.019595 -0.708300 -0.673764
  H 2.713219 1.474626 1.436046
  H 5.185823 0.135137 0.141426
  H 4.865732 2.324727 2.257666
  H 7.332978 0.985986 0.963770
  H 7.013559 3.171310 3.075886
  H 9.453784 1.816395 1.766355
  H 9.364360 2.303529 3.462749
  H 9.364358 3.528390 2.195432
 20
 41.602553
  C 0.602100 -0.042005 -0.029787
  C 2.576627 -0.035749 -0.023736
  C 3.262672 0.781873 0.766497
  C 4.704195 0.816500 0.799964
  C 5.408073 1.639541 1.595439
  C 6.844489 1.676715 1.631360
  C 7.544608 2.493478 2.420761
  C 9.031807 2.546770 2.472266
  H 0.275260 -0.782718 -0.745687
  H 0.263706 0.942990 -0.317534
  H 0.263704 -0.296039 0.964436
  H 3.034827 -0.734576 -0.699160
  H 2.741377 1.464443 1.426203
  H 5.223992 0.133503 0.139848
  H 4.887324 2.322165 2.255191
  H 7.365957 0.994316 0.971822
  H 7.027926 3.177604 3.081970
  H 9.479192 1.833847 1.783223
  H 9.381913 2.322766 3.480495
  H 9.381914 3.546788 2.214053
 20
 59.592100
  C 0.496201 -0.039279 -0.027153
  C 2.630090 -0.041010 -0.028821
  C 3.291602 0.764268 0.749482
  C 4.731044 0.805732 0.789557
  C 5.425639 1.631344 1.587519
  C 6.860930 1.677220 1.631851
  C 7.554153 2.499144 2.426238
  C 9.040346 2.561626 2.486626
  H 0.186781 -0.780633 -0.743675
  H 0.184986 0.950149 -0.313196
  H 0.184983 -0.291461 0.971442
  H 3.068629 -0.742896 -0.707201
  H 2.766021 1.444107 1.406550
  H 5.257292 0.125488 0.132101
  H 4.897604 2.310912 2.244316
  H 7.388981 0.997448 0.974850
  H 7.029680 3.180188 3.084467
  H 9.494374 1.851198 1.799994
  H 9.386186 2.340681 3.496746
  H 9.386188 3.563643 2.231400
 20
 74.086151
  C 0.365820 -0.019570 -0.008101
  C 2.657218 -0.085763 -0.072075
  C 3.316335 0.732395 0.718671
  C 4.760381 0.784977 0.769488
  C 5.442160 1.617863 1.574481
  C 6.880691 1.678423 1.633017
  C 7.565307 2.512888 2.439528
  C 9.051951 2.590714 2.514736
  H 0.098245 -0.769343 -0.732754
  H 0.164933 0.998242 -0.292475
  H 0.164933 -0.269109 1.018805
  H 3.005106 -0.813239 -0.775183
  H 2.793081 1.412011 1.375527
  H 5.295234 0.108735 0.115903
  H 4.901745 2.293357 2.227351
  H 7.419681 1.001984 0.979228
  H 7.026557 3.189360 3.093330
  H 9.517191 1.882870 1.830601
  H 9.390996 2.374320 3.528168
  H 9.390986 3.596170 2.263949
 20
 88.395065
  C 0.256482 -0.019519 -0.008053
  C 2.706948 -0.092893 -0.078967
  C 3.357283 0.726004 0.712494
  C 4.803794 0.786625 0.771080
  C 5.473885 1.621256 1.577759
  C 6.903884 1.689320 1.643550
  C 7.562839 2.509094 2.435862
  C 9.044890 2.595129 2.519002
  H 0.004208 -0.769324 -0.732737
  H 0.074518 0.998648 -0.292500
  H 0.074516 -0.269118 1.019216
  H 3.043213 -0.822289 -0.783929
  H 2.827925 1.404311 1.368084
  H 5.346120 0.113301 0.120315
  H 4.926484 2.293213 2.227213
  H 7.450081 1.017614 0.994333
  H 7.016253 3.180593 3.084856
  H 9.517750 1.890785 1.838252
  H 9.379003 2.381404 3.534662
  H 9.378991 3.602901 2.270807
 20
 99.678017
  C 0.128303 0.001293 0.012065
  C 2.734314 -0.125238 -0.110225
  C 3.381646 0.692930 0.680535
  C 4.832442 0.765375 0.750553
  C 5.487889 1.606861 1.563855
  C 6.921998 1.688513 1.642768
  C 7.572881 2.522403 2.448727
  C 9.054975 2.622633 2.545591
  H -0.081213 -0.745733 -0.709932
  H 0.035303 1.019205 -0.272256
  H 0.035305 -0.248185 1.039043
  H 3.004241 -0.864481 -0.824706
  H 2.849239 1.373170 1.337988
  H 5.384834 0.095031 0.102663
  H 4.929489 2.273030 2.207709
  H 7.479855 1.020895 0.997511
  H 7.013924 3.189212 3.093195
  H 9.539441 1.924538 1.870880
  H 9.381735 2.412858 3.564262
  H 9.381744 3.633605 2.301238
 20
 109.215082
  C 0.006010 -0.000657 0.010176
  C 2.770975 -0.135198 -0.119863
  C 3.413023 0.683164 0.671083
  C 4.862317 0.761546 0.746843
  C 5.510477 1.605236 1.562276
  C 6.941985 1.692531 1.646642
  C 7.589634 2.533280 2.459231
  C 9.070624 2.639533 2.561927
  H -0.195445 -0.760634 -0.724338
  H -0.075684 1.031565 -0.278971
  H -0.075683 -0.254480 1.051677
  H 3.036359 -0.879027 -0.838773
  H 2.878905 1.359557 1.324823
  H 5.418218 0.094989 0.102616
  H 4.946151 2.270226 2.204984
  H 7.504325 1.027312 1.003708
  H 7.025697 3.197923 3.101599
  H 9.561823 1.941174 1.886963
  H 9.394286 2.430913 3.582276
  H 9.394287 3.652174 2.318676
 20
 116.605181
  C -0.120462 -0.003947 0.007006
  C 2.803407 -0.147035 -0.131297
  C 3.441545 0.672406 0.660692
  C 4.891730 0.757566 0.742998
  C 5.533673 1.606578 1.563574
  C 6.966902 1.700809 1.654642
  C 7.604267 2.541632 2.467302
  C 9.084629 2.654961 2.576832
  H -0.308500 -0.757319 -0.721124
  H -0.188336 1.019155 -0.280318
  H -0.188331 -0.256250 1.039283
  H 3.062009 -0.889767 -0.849148
  H 2.902658 1.348098 1.313753
  H 5.453780 0.092564 0.100273
  H 4.963434 2.268778 2.203588
  H 7.536068 1.037963 1.014000
  H 7.033776 3.203659 3.107146
  H 9.582012 1.959873 1.905028
  H 9.404402 2.448162 3.598493
  H 9.404393 3.668961 2.335363
 20
 122.224952
  C -0.242873 -0.003872 0.007071
  C 2.839818 -0.156392 -0.140343
  C 3.473490 0.663674 0.652250
  C 4.923623 0.755914 0.741401
  C 5.552923 1.602752 1.559878
  C 6.982189 1.703647 1.657390
  C 7.613403 2.550184 2.475573
  C 9.092201 2.670850 2.592197
  H -0.419863 -0.763687 -0.727286
  H -0.296619 1.025840 -0.283012
  H -0.296618 -0.258714 1.046077
  H 3.092364 -0.901193 -0.860194
  H 2.930262 1.337889 1.303885
  H 5.491232 0.094289 0.101942
  H 4.976699 2.261684 2.196734
  H 7.556857 1.043922 1.019764
  H 7.036938 3.209218 3.112525
  H 9.596208 1.978071 1.922626
  H 9.408087 2.465559 3.615486
  H 9.408097 3.686573 2.352171
 20
 126.398241
  C -0.377740 -0.007640 0.003438
  C 2.863612 -0.171213 -0.154666
  C 3.494003 0.648657 0.637732
  C 4.945335 0.747501 0.733261
  C 5.575876 1.608223 1.565153
  C 7.008839 1.715873 1.669199
  C 7.630607 2.562344 2.487321
  C 9.108676 2.689540 2.610261
  H -0.543331 -0.764853 -0.728401
  H -0.417526 1.017623 -0.286179
  H -0.417520 -0.262159 1.037971
  H 3.109579 -0.916355 -0.874843
  H 2.947357 1.321252 1.287799
  H 5.517917 0.087204 0.095088
  H 4.993870 2.265730 2.200637
  H 7.589792 1.058485 1.033834
  H 7.048218 3.218852 3.121832
  H 9.618835 1.998958 1.942809
  H 9.421010 2.485766 3.634924
  H 9.421007 3.706650 2.371713
 20
 129.467526
  C -0.492846 -0.004786 0.006192
  C 2.907680 -0.174088 -0.157444
  C 3.534280 0.648751 0.637828
  C 4.981210 0.755224 0.740732
  C 5.584692 1.597120 1.554429
  C 7.008981 1.711830 1.665301
  C 7.624318 2.566163 2.491020
  C 9.100675 2.701872 2.622179
  H -0.647071 -0.765777 -0.729302
  H -0.521469 1.023776 -0.285195
  H -0.521467 -0.260967 1.044086
  H 3.150563 -0.919999 -0.878366
  H 2.981960 1.319854 1.286452
  H 5.560640 0.099795 0.107262
  H 4.995950 2.249268 2.184734
  H 7.596307 1.057794 1.033169
  H 7.034856 3.219444 3.122413
  H 9.618335 2.014440 1.957774
  H 9.408431 2.499867 3.648535
  H 9.408431 3.720763 2.385335
 20
 131.358265
  C -0.636884 0.004963 0.015605
  C 2.919872 -0.198690 -0.181218
  C 3.546114 0.620601 0.610629
  C 4.999585 0.738916 0.724979
  C 5.599988 1.597982 1.555272
  C 7.032172 1.724499 1.677546
  C 7.633215 2.580693 2.505066
  C 9.107213 2.727477 2.646931
  H -0.765391 -0.759272 -0.723028
  H -0.619867 1.034049 -0.278829
  H -0.619869 -0.254250 1.054135
  H 3.139898 -0.947531 -0.904975
  H 2.987588 1.290630 1.258218
  H 5.588887 0.084945 0.092911
  H 5.000718 2.247483 2.183017
  H 7.629455 1.075408 1.050201
  H 7.034728 3.228982 3.131639
  H 9.634673 2.044492 1.986822
  H 9.408892 2.527794 3.675429
  H 9.408913 3.748646 2.412329
