 13
 0.000000
  H 3.588777 -0.602310 -0.994376
  C 4.663839 -0.608501 -1.006529
  C 5.375543 -1.117821 -2.006406
  C 6.819191 -1.129976 -2.030266
  C 7.534882 -1.640098 -3.031726
  C 9.023675 -1.662152 -3.075017
  H 5.161500 -0.174094 -0.153717
  H 4.871228 -1.552637 -2.860022
  H 7.325677 -0.695830 -1.177966
  H 7.034064 -2.075655 -3.886785
  H 9.456994 -1.209410 -2.186213
  H 9.381882 -1.118499 -3.949709
  H 9.381880 -2.689325 -3.149561
 13
 14.403208
  H 3.486208 -0.586825 -0.963975
  C 4.563092 -0.591582 -0.973318
  C 5.255568 -1.102550 -1.976430
  C 6.877686 -1.108564 -1.988229
  C 7.612800 -1.657077 -3.065061
  C 9.095464 -1.683952 -3.117814
  H 5.053867 -0.155816 -0.117835
  H 4.783645 -1.542204 -2.839536
  H 7.370824 -0.675698 -1.138443
  H 7.086483 -2.084245 -3.903654
  H 9.533537 -1.232317 -2.231188
  H 9.449522 -1.143749 -3.996391
  H 9.449531 -2.712248 -3.197437
 13
 44.052420
  H 3.385566 -0.567288 -0.925659
  C 4.465353 -0.582922 -0.956333
  C 5.102772 -1.095130 -1.961885
  C 6.984902 -1.094623 -1.960825
  C 7.667679 -1.657122 -3.065085
  C 9.165894 -1.701979 -3.153165
  H 4.971560 -0.151702 -0.109744
  H 4.681447 -1.546706 -2.848418
  H 7.454013 -0.657321 -1.102318
  H 7.088717 -2.072709 -3.880948
  H 9.635006 -1.249027 -2.264093
  H 9.508129 -1.163933 -4.044250
  H 9.508180 -2.739100 -3.241959
 13
 75.297735
  H 3.263830 -0.537121 -0.866424
  C 4.346682 -0.570189 -0.931328
  C 4.943260 -1.091458 -1.954680
  C 7.114117 -1.094853 -1.961284
  C 7.747160 -1.654772 -3.060476
  C 9.232089 -1.719294 -3.187171
  H 4.877951 -0.146720 -0.099966
  H 4.555952 -1.547607 -2.850185
  H 7.561495 -0.641956 -1.072161
  H 7.152939 -2.062573 -3.861092
  H 9.723057 -1.278080 -2.321105
  H 9.552298 -1.191381 -4.075698
  H 9.552347 -2.748395 -3.282619
 13
 100.222700
  H 3.139349 -0.505009 -0.803332
  C 4.217438 -0.554889 -0.901263
  C 4.783424 -1.084662 -1.941337
  C 7.234783 -1.089099 -1.950045
  C 7.826222 -1.648183 -3.047599
  C 9.313032 -1.738780 -3.225436
  H 4.769647 -0.135513 -0.077944
  H 4.444788 -1.546001 -2.847049
  H 7.625974 -0.639976 -1.068308
  H 7.217809 -2.050277 -3.836989
  H 9.837097 -1.306994 -2.377799
  H 9.609223 -1.215281 -4.126139
  H 9.609191 -2.775107 -3.331508
 13
 118.000026
  H 2.999860 -0.478360 -0.751075
  C 4.079014 -0.541511 -0.874884
  C 4.626983 -1.071126 -1.914699
  C 7.360629 -1.088595 -1.949086
  C 7.917010 -1.643983 -3.039434
  C 9.393834 -1.758961 -3.265077
  H 4.646496 -0.125835 -0.058993
  H 4.315219 -1.533490 -2.822499
  H 7.721892 -0.635918 -1.060285
  H 7.291617 -2.044467 -3.825625
  H 9.949165 -1.335989 -2.434758
  H 9.666534 -1.237883 -4.176124
  H 9.666483 -2.802273 -3.379129
 13
 129.341342
  H 2.846616 -0.452109 -0.699412
  C 3.929324 -0.524056 -0.840723
  C 4.473470 -1.054140 -1.881431
  C 7.486311 -1.090403 -1.952694
  C 8.011328 -1.642368 -3.036294
  C 9.483490 -1.780051 -3.306502
  H 4.508488 -0.109136 -0.026107
  H 4.175607 -1.521971 -2.799886
  H 7.823828 -0.633632 -1.055919
  H 7.367122 -2.042404 -3.821639
  H 10.065236 -1.367691 -2.497077
  H 9.735319 -1.257594 -4.230114
  H 9.735360 -2.834558 -3.426882
 13
 136.028572
  H 2.687157 -0.433365 -0.662530
  C 3.768299 -0.505254 -0.803771
  C 4.323763 -1.033277 -1.840453
  C 7.614971 -1.094585 -1.961034
  C 8.106826 -1.643130 -3.037978
  C 9.577267 -1.806018 -3.357710
  H 4.339164 -0.091024 0.009406
  H 4.044697 -1.499634 -2.756005
  H 7.931183 -0.634124 -1.057034
  H 7.446215 -2.032876 -3.803121
  H 10.194026 -1.400525 -2.561853
  H 9.806735 -1.288525 -4.287554
  H 9.807063 -2.863616 -3.486077
 13
 139.755658
  H 2.522815 -0.414421 -0.625629
  C 3.605329 -0.482926 -0.760006
  C 4.176478 -1.007725 -1.790234
  C 7.733292 -1.105054 -1.981022
  C 8.206948 -1.652577 -3.055885
  C 9.671878 -1.829200 -3.402886
  H 4.170242 -0.064741 0.060937
  H 3.906641 -1.475396 -2.708371
  H 8.039478 -0.642594 -1.073094
  H 7.536666 -2.040339 -3.817241
  H 10.306858 -1.429840 -2.618722
  H 9.887755 -1.313296 -4.337557
  H 9.887552 -2.887583 -3.534555
 13
 141.506352
  H 2.351102 -0.398430 -0.593091
  C 3.432627 -0.455927 -0.706325
  C 4.033248 -0.975101 -1.726253
  C 7.843759 -1.119608 -2.012485
  C 8.310735 -1.667868 -3.089464
  C 9.773808 -1.851648 -3.450376
  H 3.978358 -0.030071 0.129236
  H 3.775686 -1.445033 -2.649048
  H 8.140998 -0.654948 -1.100097
  H 7.631809 -2.056862 -3.852474
  H 10.418014 -1.454485 -2.672815
  H 9.980995 -1.338322 -4.380997
  H 9.985048 -2.920837 -3.586348
 13
 142.122337
  H 2.170823 -0.381871 -0.561381
  C 3.260726 -0.426473 -0.649295
  C 3.886947 -0.937893 -1.652473
  C 7.953917 -1.144038 -2.057966
  C 8.413849 -1.690205 -3.129453
  C 9.875168 -1.877441 -3.496641
  H 3.779847 0.004384 0.195798
  H 3.651896 -1.409762 -2.577819
  H 8.248193 -0.680187 -1.148601
  H 7.732531 -2.073799 -3.882394
  H 10.522551 -1.481924 -2.719591
  H 10.082358 -1.362086 -4.432525
  H 10.082120 -2.937017 -3.632491
 13
 141.850592
  H 2.198397 -0.378010 -0.553676
  C 3.287363 -0.426573 -0.649266
  C 3.906829 -0.939603 -1.655953
  C 7.908725 -1.154167 -2.078094
  C 8.394310 -1.696536 -3.142217
  C 9.864273 -1.868777 -3.480261
  H 3.814625 0.002301 0.192042
  H 3.665333 -1.411046 -2.580816
  H 8.227537 -0.693377 -1.174108
  H 7.733421 -2.087591 -3.909556
  H 10.491997 -1.466731 -2.689704
  H 10.084196 -1.351418 -4.412257
  H 10.083920 -2.926785 -3.610966
