 10
 0.000000
  H 1.395177 0.143377 0.406272
  C 2.471517 0.111921 0.330216
  H 3.044428 0.453488 1.181858
  C 3.091473 -0.344903 -0.806815
  C 4.501018 -0.389066 -0.919746
  C 5.121222 -0.845677 -2.056756
  H 4.550759 -1.185119 -2.906131
  H 6.196907 -0.878316 -2.133520
  H 2.495470 -0.683985 -1.648653
  H 5.095038 -0.051733 -0.081244
 10
 -0.853519
  H 1.406456 0.258200 0.360022
  C 2.477058 0.133134 0.323876
  H 3.036351 0.493887 1.173179
  C 3.076337 -0.428887 -0.757110
  C 4.484990 -0.399645 -0.951828
  C 5.124201 -0.810283 -2.072158
  H 4.621691 -0.897056 -3.025851
  H 6.177060 -1.046224 -2.063161
  H 2.475941 -0.928660 -1.511619
  H 5.071233 -0.043279 -0.106762
 10
 0.781658
  H 1.419602 0.280880 0.370979
  C 2.491342 0.189310 0.297996
  H 3.070896 0.694475 1.057156
  C 3.053949 -0.496613 -0.729573
  C 4.461113 -0.467305 -0.962594
  C 5.134706 -0.775823 -2.083276
  H 4.691694 -0.682451 -3.069240
  H 6.174192 -1.080879 -2.058877
  H 2.428538 -1.074597 -1.395939
  H 5.004625 -0.249342 -0.041783
 10
 2.670502
  H 1.417659 0.346633 0.355614
  C 2.491244 0.254216 0.262142
  H 3.090091 0.870121 0.911229
  C 3.035828 -0.541575 -0.689471
  C 4.443707 -0.535446 -0.943000
  C 5.121149 -0.747341 -2.078618
  H 4.738136 -0.445976 -3.043650
  H 6.140292 -1.114035 -2.078508
  H 2.412836 -1.198266 -1.284289
  H 5.006350 -0.539225 -0.001428
 10
 7.931939
  H 1.434370 0.356395 0.428467
  C 2.498224 0.308480 0.268566
  H 3.112785 1.010721 0.813153
  C 3.014215 -0.542071 -0.644890
  C 4.403701 -0.527820 -1.022414
  C 5.146408 -0.722239 -2.096694
  H 4.914170 -0.261240 -3.046722
  H 6.102733 -1.225357 -2.057170
  H 2.375318 -1.252166 -1.148358
  H 4.859327 -0.780808 -0.052610
 10
 14.636444
  H 1.474727 0.431147 0.484087
  C 2.530804 0.355924 0.270450
  H 3.170390 1.086193 0.748478
  C 2.997301 -0.561941 -0.598851
  C 4.337552 -0.566457 -1.101973
  C 5.174574 -0.682331 -2.091989
  H 5.013913 -0.185720 -3.041141
  H 6.131959 -1.164572 -2.009704
  H 2.322965 -1.293440 -1.045845
  H 4.666625 -1.037958 -0.137641
 10
 22.459361
  H 1.568644 0.434012 0.621316
  C 2.587238 0.383331 0.282650
  H 3.249838 1.159035 0.625242
  C 2.995536 -0.605140 -0.582792
  C 4.234575 -0.589641 -1.261345
  C 5.214586 -0.636073 -2.100487
  H 5.177324 -0.122696 -3.061037
  H 6.152948 -1.128065 -1.890234
  H 2.278179 -1.350896 -0.917761
  H 4.317245 -1.148200 -0.201633
 10
 26.126615
  H 1.627893 0.469595 0.601712
  C 2.642108 0.409930 0.260959
  H 3.327914 1.185067 0.553212
  C 3.054842 -0.670736 -0.548320
  C 4.211532 -0.646730 -1.342418
  C 5.229705 -0.584908 -2.104225
  H 5.172817 -0.083714 -3.062838
  H 6.197569 -1.016703 -1.890826
  H 2.289866 -1.392000 -0.835578
  H 3.986206 -1.265289 -0.063136
 10
 24.702033
  H 1.654085 0.467099 0.609008
  C 2.668617 0.403453 0.269111
  H 3.352788 1.183967 0.537617
  C 3.097413 -0.720008 -0.523715
  C 4.180770 -0.614799 -1.411324
  C 5.219904 -0.557028 -2.132240
  H 5.198286 -0.120015 -3.127464
  H 6.196258 -0.930702 -1.860124
  H 2.317509 -1.413295 -0.829168
  H 3.840598 -1.292957 0.119153
 10
 22.875123
  H 1.728514 0.401974 0.723826
  C 2.699383 0.403329 0.265973
  H 3.344870 1.248889 0.417531
  C 3.128404 -0.737032 -0.515890
  C 4.193296 -0.612734 -1.422162
  C 5.229327 -0.536440 -2.141503
  H 5.209005 -0.164778 -3.160744
  H 6.225394 -0.838717 -1.837034
  H 2.307308 -1.356497 -0.891227
  H 3.660727 -1.402279 0.212083
 10
 21.945758
  H 1.803735 0.348727 0.831311
  C 2.715100 0.406775 0.267707
  H 3.294639 1.310314 0.308180
  C 3.147629 -0.739437 -0.505344
  C 4.220356 -0.620049 -1.401201
  C 5.242106 -0.530124 -2.138655
  H 5.206710 -0.190003 -3.168406
  H 6.248218 -0.796357 -1.832439
  H 2.309098 -1.303330 -0.938898
  H 3.538636 -1.480801 0.228601
