 17
 0.000000
  C 0.981510 0.132447 0.379259
  C 2.453159 0.139152 0.399799
  C 3.170742 0.617960 1.591380
  H 2.499423 0.936250 2.381331
  C 3.117787 -0.317281 -0.733859
  C 4.503071 -0.379630 -0.890559
  C 5.101492 -0.841988 -2.043439
  H 4.539736 -1.188878 -2.903149
  O 6.383353 -0.916930 -2.238573
  H 0.550634 0.504643 1.303117
  H 0.612311 -0.877968 0.195512
  H 0.614172 0.735018 -0.453205
  H 3.824364 1.451007 1.327983
  H 3.823049 -0.166321 1.978627
  H 2.498868 -0.647985 -1.556601
  H 5.141585 -0.053525 -0.080536
  H 6.931669 -0.611620 -1.487240
 17
 5.117909
  C 0.995043 0.114190 0.334776
  C 2.466646 0.141123 0.403797
  C 3.120033 0.635594 1.635369
  H 2.404925 0.939720 2.392285
  C 3.198682 -0.293477 -0.677715
  C 4.573794 -0.369882 -0.870217
  C 5.110934 -0.850546 -2.065823
  H 4.456201 -1.176181 -2.870706
  O 6.383214 -0.964123 -2.352557
  H 0.533889 0.480133 1.245129
  H 0.642179 -0.899210 0.139400
  H 0.643133 0.711356 -0.507351
  H 3.768177 1.480567 1.404564
  H 3.767658 -0.134769 2.053077
  H 2.440083 -0.570302 -1.366766
  H 5.233868 -0.049717 -0.075703
  H 6.996410 -0.676180 -1.642595
 17
 15.889047
  C 1.016990 0.101644 0.308789
  C 2.478372 0.142839 0.403579
  C 3.084050 0.642674 1.652114
  H 2.347325 0.936221 2.391435
  C 3.244265 -0.279569 -0.656607
  C 4.608310 -0.368503 -0.882922
  C 5.103750 -0.852318 -2.073759
  H 4.422685 -1.167137 -2.855707
  O 6.374947 -0.987010 -2.391150
  H 0.539675 0.462752 1.215419
  H 0.671429 -0.921199 0.111208
  H 0.667645 0.705256 -0.538692
  H 3.732597 1.499442 1.437708
  H 3.735787 -0.123930 2.085789
  H 2.380769 -0.502455 -1.209008
  H 5.284692 -0.051741 -0.102511
  H 7.011002 -0.709606 -1.694416
 17
 29.950600
  C 1.019130 0.093858 0.287933
  C 2.482144 0.140526 0.398870
  C 3.060781 0.651195 1.673007
  H 2.312255 0.941634 2.401707
  C 3.283330 -0.277449 -0.647413
  C 4.641410 -0.374492 -0.891778
  C 5.114391 -0.859578 -2.090830
  H 4.420963 -1.172097 -2.867602
  O 6.358468 -0.996032 -2.419161
  H 0.533622 0.453537 1.187866
  H 0.678223 -0.917742 0.094881
  H 0.675532 0.691328 -0.549800
  H 3.702204 1.500273 1.472306
  H 3.704555 -0.100280 2.113045
  H 2.339877 -0.452691 -1.080090
  H 5.335582 -0.062411 -0.120017
  H 7.000603 -0.719443 -1.728910
 17
 44.724874
  C 1.009366 0.091195 0.280854
  C 2.482768 0.139890 0.397799
  C 3.036192 0.655963 1.685085
  H 2.275813 0.943795 2.406407
  C 3.314238 -0.276962 -0.645046
  C 4.666418 -0.376620 -0.895695
  C 5.126380 -0.864764 -2.103039
  H 4.425450 -1.173449 -2.870497
  O 6.369286 -1.006087 -2.445533
  H 0.520703 0.453755 1.187033
  H 0.662289 -0.926616 0.089428
  H 0.659908 0.693957 -0.560323
  H 3.680818 1.513032 1.490796
  H 3.682994 -0.096488 2.135886
  H 2.317400 -0.409723 -0.971814
  H 5.371037 -0.069328 -0.135448
  H 7.011125 -0.733784 -1.767421
 17
 58.678843
  C 0.996244 0.092611 0.283524
  C 2.469620 0.136494 0.390388
  C 3.028906 0.654971 1.683710
  H 2.273224 0.943204 2.405474
  C 3.319283 -0.282666 -0.658760
  C 4.672234 -0.378929 -0.902142
  C 5.136637 -0.866467 -2.106940
  H 4.438842 -1.177384 -2.876522
  O 6.380470 -1.005517 -2.444786
  H 0.522748 0.455071 1.188298
  H 0.639676 -0.927437 0.097458
  H 0.638164 0.700732 -0.555768
  H 3.674226 1.510059 1.488196
  H 3.676336 -0.096967 2.132680
  H 2.279095 -0.378388 -0.891971
  H 5.383453 -0.068611 -0.136327
  H 7.019852 -0.730757 -1.762314
 17
 70.452437
  C 0.971522 0.099176 0.296103
  C 2.460565 0.131705 0.381835
  C 3.028738 0.644283 1.663450
  H 2.276533 0.936758 2.394075
  C 3.315600 -0.291205 -0.681395
  C 4.670812 -0.377998 -0.906442
  C 5.151882 -0.867562 -2.105269
  H 4.466816 -1.186214 -2.879385
  O 6.399120 -0.999685 -2.428735
  H 0.514248 0.467845 1.214658
  H 0.603302 -0.911803 0.118255
  H 0.604592 0.707289 -0.531445
  H 3.677567 1.498461 1.460238
  H 3.677913 -0.112904 2.107393
  H 2.252385 -0.354766 -0.829646
  H 5.376734 -0.060243 -0.136558
  H 7.031755 -0.716761 -1.737052
 17
 80.058402
  C 0.962564 0.108026 0.304529
  C 2.445330 0.119506 0.364442
  C 3.043002 0.630472 1.654433
  H 2.310723 0.927641 2.389249
  C 3.286490 -0.300317 -0.711271
  C 4.649172 -0.368448 -0.909984
  C 5.159934 -0.870092 -2.091946
  H 4.486932 -1.217074 -2.887435
  O 6.414543 -0.986423 -2.388353
  H 0.532292 0.482020 1.236517
  H 0.573422 -0.912045 0.129875
  H 0.582001 0.732526 -0.525905
  H 3.690613 1.470886 1.441620
  H 3.686564 -0.123592 2.090108
  H 2.218273 -0.341069 -0.783411
  H 5.333777 -0.029299 -0.147841
  H 7.028865 -0.685520 -1.688465
 17
 86.866174
  C 0.934931 0.129546 0.312924
  C 2.432236 0.098521 0.346469
  C 3.059359 0.590555 1.631867
  H 2.320232 0.905575 2.385157
  C 3.267198 -0.305362 -0.739792
  C 4.632891 -0.350159 -0.921321
  C 5.170409 -0.888671 -2.069886
  H 4.531412 -1.269133 -2.838664
  O 6.436707 -0.977349 -2.356533
  H 0.532604 0.508350 1.263718
  H 0.527857 -0.866120 0.147905
  H 0.552647 0.758391 -0.490374
  H 3.713794 1.423094 1.389218
  H 3.699267 -0.165392 2.080617
  H 2.181450 -0.339721 -0.755670
  H 5.307070 0.055819 -0.159481
  H 7.028578 -0.636462 -1.670096
 17
 88.912765
  C 0.903008 0.180743 0.307127
  C 2.418497 0.075980 0.339692
  C 3.063648 0.505592 1.641037
  H 2.329924 0.826166 2.363760
  C 3.283135 -0.279813 -0.696756
  C 4.644523 -0.283263 -0.932309
  C 5.188246 -0.965101 -1.993655
  H 4.550009 -1.508763 -2.679331
  O 6.445136 -0.985252 -2.341459
  H 0.539505 0.534408 1.256022
  H 0.454421 -0.799608 0.125258
  H 0.535697 0.860500 -0.466881
  H 3.743333 1.326552 1.402471
  H 3.664219 -0.281501 2.100243
  H 2.159137 -0.317779 -0.734761
  H 5.289644 0.308166 -0.294640
  H 7.037006 -0.478404 -1.748653
 17
 89.355636
  C 0.894805 0.198864 0.286994
  C 2.421549 0.066399 0.347571
  C 3.039837 0.473313 1.692314
  H 2.279553 0.782278 2.393894
  C 3.325872 -0.232608 -0.649470
  C 4.663824 -0.231648 -0.973365
  C 5.192236 -1.007520 -1.968668
  H 4.568804 -1.656459 -2.556336
  O 6.440110 -1.009191 -2.362681
  H 0.524555 0.544369 1.248853
  H 0.424997 -0.765374 0.083001
  H 0.564131 0.908491 -0.471195
  H 3.724820 1.295348 1.501966
  H 3.606813 -0.332360 2.143003
  H 2.159062 -0.299510 -0.711202
  H 5.308271 0.465713 -0.442154
  H 7.014422 -0.411642 -1.851555
 17
 90.602717
  C 0.896675 0.211311 0.264218
  C 2.427786 0.066736 0.369934
  C 2.998597 0.452574 1.748406
  H 2.210661 0.747633 2.430067
  C 3.370987 -0.179231 -0.597197
  C 4.683935 -0.180788 -1.003000
  C 5.191004 -1.039612 -1.939282
  H 4.565223 -1.777207 -2.428301
  O 6.419869 -1.036242 -2.397533
  H 0.507371 0.534971 1.223740
  H 0.422875 -0.740515 0.023694
  H 0.598500 0.946202 -0.481446
  H 3.691842 1.280367 1.604409
  H 3.550925 -0.370833 2.198924
  H 2.175745 -0.271346 -0.678782
  H 5.328455 0.588672 -0.583747
  H 6.990514 -0.362875 -1.984546
 17
 90.894925
  C 0.891942 0.235949 0.252645
  C 2.423626 0.055062 0.382978
  C 2.974494 0.407260 1.778651
  H 2.181905 0.696256 2.448884
  C 3.389847 -0.123059 -0.578911
  C 4.674093 -0.110308 -1.052784
  C 5.197100 -1.066838 -1.884645
  H 4.606571 -1.904511 -2.225379
  O 6.411647 -1.065135 -2.385441
  H 0.492158 0.531687 1.220332
  H 0.402961 -0.691745 -0.032135
  H 0.625973 1.008355 -0.470469
  H 3.676729 1.224813 1.669935
  H 3.508116 -0.435334 2.223197
  H 2.184298 -0.245628 -0.662487
  H 5.287993 0.744458 -0.775927
  H 6.951929 -0.306348 -2.096899
 17
 89.308072
  C 0.905157 0.299561 0.231819
  C 2.428452 0.050353 0.389340
  C 2.940946 0.336410 1.821729
  H 2.129490 0.565495 2.493018
  C 3.402333 -0.084480 -0.568946
  C 4.642453 -0.047778 -1.126008
  C 5.214645 -1.082105 -1.836927
  H 4.705811 -2.025623 -1.978664
  O 6.415409 -1.065158 -2.382182
  H 0.511704 0.637902 1.186773
  H 0.373366 -0.610276 -0.035173
  H 0.689578 1.063053 -0.510938
  H 3.625217 1.184223 1.771063
  H 3.491328 -0.509079 2.231997
  H 2.154363 -0.323862 -0.607571
  H 5.175201 0.895656 -1.040139
  H 6.903670 -0.238422 -2.219424
