 28
 0.000000
  C 0.955302 0.144071 0.410483
  C 2.428655 0.139658 0.398711
  C 3.223474 0.605105 1.556486
  C 2.462485 1.098171 2.783771
  C 3.430759 1.537789 3.877750
  C 3.039020 -0.326718 -0.762147
  C 4.422128 -0.411579 -0.974492
  C 5.094514 -0.857825 -2.087133
  C 4.628771 -1.378379 -3.384621
  C 3.147053 -1.506715 -3.704503
  H 3.019461 -1.907349 -4.703291
  H 6.174968 -0.843392 -2.051715
  H 0.528858 0.515527 1.334765
  H 0.581232 -0.866766 0.241236
  H 0.580769 0.756385 -0.411216
  H 3.882079 1.412426 1.216094
  H 3.882321 -0.213074 1.869329
  H 1.826268 0.304225 3.179220
  H 1.826139 1.944927 2.519996
  H 4.066494 0.712770 4.191400
  H 2.881206 1.887460 4.748216
  H 4.066388 2.350546 3.533341
  H 2.377725 -0.643886 -1.551031
  H 5.044257 -0.081130 -0.151938
  H 5.099661 -2.363025 -3.504196
  H 5.099723 -0.749462 -4.151611
  H 2.659909 -0.534728 -3.666953
  H 2.659937 -2.183352 -3.005673
 28
 8.744024
  C 0.899093 0.155951 0.439953
  C 2.373313 0.142304 0.405155
  C 3.191351 0.602202 1.549145
  C 2.457494 1.100622 2.789861
  C 3.450282 1.532530 3.864858
  C 2.956766 -0.323355 -0.753900
  C 4.495834 -0.420666 -0.997284
  C 5.142286 -0.864598 -2.104197
  C 4.663063 -1.383189 -3.396662
  C 3.178431 -1.503055 -3.695086
  H 3.038583 -1.904169 -4.694993
  H 6.225100 -0.851246 -2.071583
  H 0.491629 0.530258 1.371296
  H 0.515662 -0.852071 0.274236
  H 0.515151 0.768619 -0.377250
  H 3.851199 1.402989 1.196418
  H 3.851447 -0.219807 1.848515
  H 1.823051 0.311306 3.197438
  H 1.822961 1.952471 2.538111
  H 4.085503 0.702578 4.165913
  H 2.921137 1.886508 4.746105
  H 4.085453 2.340116 3.508030
  H 2.296723 -0.639313 -1.539765
  H 5.115866 -0.091969 -0.178990
  H 5.130224 -2.369141 -3.522882
  H 5.130168 -0.757902 -4.169414
  H 2.695870 -0.529607 -3.653238
  H 2.696046 -2.177829 -2.992091
 28
 27.430541
  C 0.837936 0.171189 0.477788
  C 2.315025 0.147133 0.416965
  C 3.157740 0.601478 1.547197
  C 2.452596 1.105072 2.801011
  C 3.468945 1.529265 3.856938
  C 2.872380 -0.320491 -0.747037
  C 4.568231 -0.428458 -1.016882
  C 5.196281 -0.874716 -2.129582
  C 4.703154 -1.393589 -3.422575
  C 3.214685 -1.503900 -3.696894
  H 3.059247 -1.903969 -4.694051
  H 6.280141 -0.862501 -2.099849
  H 0.452386 0.548677 1.417093
  H 0.443665 -0.833632 0.317227
  H 0.443080 0.785085 -0.333457
  H 3.818787 1.395345 1.181054
  H 3.819094 -0.224821 1.831967
  H 1.819901 0.320425 3.220687
  H 1.819786 1.961941 2.561340
  H 4.103484 0.694451 4.145745
  H 2.959967 1.887298 4.748413
  H 4.103421 2.331919 3.487985
  H 2.220515 -0.638125 -1.537090
  H 5.176114 -0.097709 -0.193343
  H 5.165247 -2.381121 -3.555821
  H 5.165093 -0.772053 -4.201557
  H 2.738165 -0.527689 -3.648759
  H 2.738465 -2.176319 -2.987378
 28
 47.655255
  C 0.776414 0.186262 0.516214
  C 2.249140 0.146265 0.415672
  C 3.124175 0.591042 1.521209
  C 2.462364 1.102175 2.793392
  C 3.510594 1.515476 3.821661
  C 2.757973 -0.319221 -0.742387
  C 4.614832 -0.428380 -1.014957
  C 5.222825 -0.871266 -2.119899
  C 4.743297 -1.391514 -3.417799
  C 3.255227 -1.499270 -3.686793
  H 3.099107 -1.900052 -4.686746
  H 6.309359 -0.852457 -2.073380
  H 0.422725 0.568023 1.465371
  H 0.368112 -0.812766 0.355648
  H 0.367474 0.795463 -0.291387
  H 3.788779 1.373291 1.135573
  H 3.789192 -0.240151 1.783992
  H 1.832045 0.324610 3.230171
  H 1.831789 1.965602 2.570798
  H 4.143918 0.674131 4.093792
  H 3.030181 1.878988 4.726490
  H 4.143670 2.311285 3.435928
  H 2.150184 -0.644650 -1.551785
  H 5.159488 -0.086433 -0.163143
  H 5.208107 -2.376864 -3.553481
  H 5.208270 -0.772919 -4.196592
  H 2.781323 -0.522646 -3.640013
  H 2.781245 -2.173227 -2.978447
 28
 67.737652
  C 0.714929 0.203482 0.558881
  C 2.196018 0.153209 0.432939
  C 3.092332 0.594108 1.528852
  C 2.453376 1.109015 2.810472
  C 3.518496 1.516151 3.823492
  C 2.692797 -0.323863 -0.753825
  C 4.704922 -0.447101 -1.061731
  C 5.285601 -0.887327 -2.160155
  C 4.784810 -1.403482 -3.447729
  C 3.289941 -1.497738 -3.682682
  H 3.106774 -1.896440 -4.677410
  H 6.373765 -0.873234 -2.125601
  H 0.381837 0.587940 1.514502
  H 0.295866 -0.793466 0.406341
  H 0.295316 0.816663 -0.241567
  H 3.756575 1.371076 1.131933
  H 3.757012 -0.241160 1.779829
  H 1.824566 0.335229 3.256632
  H 1.824339 1.976214 2.597289
  H 4.150801 0.671316 4.086619
  H 3.053220 1.882413 4.735210
  H 4.150618 2.308300 3.428869
  H 2.085881 -0.653599 -1.573874
  H 5.241813 -0.102287 -0.202806
  H 5.239621 -2.392852 -3.591587
  H 5.239635 -0.787549 -4.235258
  H 2.826681 -0.516226 -3.623992
  H 2.826782 -2.167081 -2.962335
 28
 85.964764
  C 0.667657 0.217201 0.593059
  C 2.138355 0.155091 0.437962
  C 3.057257 0.585178 1.506824
  C 2.453066 1.104995 2.800409
  C 3.542913 1.502884 3.790271
  C 2.595339 -0.311294 -0.721983
  C 4.765223 -0.442915 -1.050939
  C 5.335857 -0.889324 -2.165123
  C 4.824743 -1.409356 -3.462701
  C 3.324940 -1.493099 -3.671200
  H 3.121257 -1.890337 -4.662597
  H 6.427594 -0.876079 -2.132824
  H 0.362440 0.604952 1.556495
  H 0.237607 -0.775052 0.449936
  H 0.237181 0.833407 -0.197511
  H 3.720843 1.354059 1.091684
  H 3.721211 -0.256836 1.739134
  H 1.826932 0.336891 3.260237
  H 1.826736 1.977544 2.600912
  H 4.173536 0.652732 4.040179
  H 3.100463 1.873051 4.711532
  H 4.173348 2.289663 3.382353
  H 2.006396 -0.642399 -1.545454
  H 5.269937 -0.092222 -0.177271
  H 5.271580 -2.400629 -3.611911
  H 5.271444 -0.795529 -4.255259
  H 2.870878 -0.507896 -3.603180
  H 2.871141 -2.158920 -2.941703
 28
 89.527420
  C 0.622166 0.237587 0.631134
  C 2.133977 0.154060 0.419916
  C 3.071934 0.589740 1.511363
  C 2.461504 1.112751 2.813783
  C 3.560431 1.500262 3.803057
  C 2.452911 -0.308527 -0.736609
  C 4.777607 -0.453281 -1.103860
  C 5.298045 -0.889459 -2.181270
  C 4.882576 -1.427212 -3.496383
  C 3.381498 -1.522314 -3.719759
  H 3.192059 -1.927496 -4.715090
  H 6.401536 -0.860986 -2.120792
  H 0.430667 0.632517 1.620755
  H 0.172306 -0.751855 0.546284
  H 0.171361 0.896264 -0.111470
  H 3.728409 1.372228 1.101345
  H 3.730776 -0.257473 1.754141
  H 1.834451 0.343790 3.276952
  H 1.827680 1.984750 2.626336
  H 4.187281 0.644162 4.041044
  H 3.122888 1.865503 4.728978
  H 4.190630 2.287040 3.394767
  H 1.996337 -0.665833 -1.626011
  H 5.086748 -0.073870 -0.167724
  H 5.337714 -2.416936 -3.612138
  H 5.330302 -0.794769 -4.270658
  H 2.923905 -0.539721 -3.652661
  H 2.928442 -2.181446 -2.985077
 28
 95.834279
  C 0.566016 0.253646 0.672172
  C 2.079594 0.161820 0.440830
  C 3.040448 0.591564 1.517696
  C 2.457819 1.115363 2.823832
  C 3.576214 1.494863 3.788039
  C 2.375293 -0.303905 -0.723396
  C 4.855781 -0.461601 -1.122419
  C 5.361628 -0.900615 -2.207392
  C 4.924770 -1.438590 -3.525173
  C 3.416045 -1.521203 -3.718587
  H 3.204345 -1.922668 -4.705303
  H 6.464963 -0.876016 -2.155151
  H 0.389801 0.649567 1.664385
  H 0.112004 -0.729090 0.592253
  H 0.111301 0.911053 -0.062252
  H 3.687498 1.367938 1.098989
  H 3.688744 -0.257676 1.750017
  H 1.836927 0.352292 3.298049
  H 1.832738 1.991957 2.646553
  H 4.200901 0.634015 4.014801
  H 3.159763 1.864636 4.721514
  H 4.204227 2.276261 3.366065
  H 1.940582 -0.663989 -1.620182
  H 5.136628 -0.076858 -0.172287
  H 5.368907 -2.430587 -3.647546
  H 5.362576 -0.809256 -4.305776
  H 2.967956 -0.534157 -3.644729
  H 2.972031 -2.178864 -2.976302
 28
 100.483018
  C 0.515977 0.270185 0.714810
  C 2.026245 0.167009 0.455537
  C 3.010126 0.589544 1.514038
  C 2.451006 1.118168 2.832616
  C 3.591957 1.491329 3.777643
  C 2.294248 -0.299738 -0.710893
  C 4.929564 -0.472407 -1.146608
  C 5.419854 -0.912509 -2.234925
  C 4.965732 -1.446544 -3.545538
  C 3.453928 -1.517371 -3.711465
  H 3.220593 -1.917406 -4.695784
  H 6.523897 -0.892624 -2.192824
  H 0.362880 0.667680 1.710673
  H 0.053410 -0.710342 0.642822
  H 0.052900 0.931398 -0.012486
  H 3.652746 1.363476 1.082381
  H 3.653783 -0.267453 1.735599
  H 1.833872 0.358116 3.319128
  H 1.830666 2.002056 2.664921
  H 4.214905 0.626036 3.994002
  H 3.195518 1.865107 4.718588
  H 4.217997 2.268061 3.343414
  H 1.878231 -0.662917 -1.615602
  H 5.178901 -0.087070 -0.194000
  H 5.399799 -2.441032 -3.672899
  H 5.394341 -0.819227 -4.330675
  H 3.015573 -0.526529 -3.630581
  H 3.019059 -2.173007 -2.962208
 28
 104.009185
  C 0.464833 0.286688 0.757168
  C 1.970539 0.172318 0.470605
  C 2.978290 0.587482 1.510314
  C 2.446874 1.119108 2.836823
  C 3.607351 1.484023 3.757855
  C 2.215291 -0.295901 -0.699181
  C 5.006349 -0.481488 -1.166677
  C 5.483135 -0.922883 -2.258871
  C 5.005772 -1.453712 -3.563862
  C 3.489153 -1.510526 -3.696541
  H 3.229788 -1.907678 -4.674874
  H 6.589016 -0.908409 -2.228995
  H 0.333309 0.685190 1.755143
  H -0.005300 -0.689888 0.693093
  H -0.005507 0.950459 0.038092
  H 3.615688 1.357314 1.066195
  H 3.616182 -0.275405 1.720194
  H 1.835131 0.364247 3.334847
  H 1.833268 2.007762 2.679660
  H 4.227538 0.614574 3.962887
  H 3.232160 1.861544 4.705600
  H 4.230343 2.255287 3.310812
  H 1.817717 -0.661217 -1.609568
  H 5.227661 -0.093051 -0.205576
  H 5.428829 -2.452815 -3.698170
  H 5.424265 -0.827812 -4.356746
  H 3.062391 -0.515579 -3.606422
  H 3.065323 -2.163007 -2.938352
 28
 106.540376
  C 0.413531 0.303533 0.800048
  C 1.913216 0.177268 0.484236
  C 2.945261 0.584600 1.504033
  C 2.442359 1.120197 2.840935
  C 3.624937 1.477095 3.739528
  C 2.135697 -0.291924 -0.687815
  C 5.082539 -0.490362 -1.186787
  C 5.547089 -0.932970 -2.282577
  C 5.046051 -1.460236 -3.580542
  C 3.526828 -1.503328 -3.680074
  H 3.241690 -1.897719 -4.652488
  H 6.653137 -0.924271 -2.266203
  H 0.304446 0.703219 1.800701
  H -0.064765 -0.669439 0.744536
  H -0.064727 0.970576 0.089491
  H 3.577715 1.349826 1.046676
  H 3.578069 -0.284377 1.701197
  H 1.835095 0.369238 3.351357
  H 1.833864 2.015158 2.694514
  H 4.242752 0.602714 3.933103
  H 3.271459 1.858185 4.694563
  H 4.245128 2.243628 3.279563
  H 1.753755 -0.659469 -1.604102
  H 5.276655 -0.101293 -0.223438
  H 5.457494 -2.461915 -3.721428
  H 5.453436 -0.837009 -4.379406
  H 3.111656 -0.504245 -3.580509
  H 3.114356 -2.152530 -2.912720
 28
 108.318391
  C 0.363517 0.320654 0.844172
  C 1.855401 0.182530 0.498695
  C 2.911572 0.581890 1.497812
  C 2.438685 1.120760 2.843233
  C 3.641065 1.468675 3.716953
  C 2.057498 -0.287707 -0.675823
  C 5.160151 -0.499178 -1.205988
  C 5.612910 -0.942884 -2.305187
  C 5.085674 -1.466166 -3.595626
  C 3.563765 -1.494628 -3.660636
  H 3.251837 -1.885636 -4.626095
  H 6.719245 -0.940820 -2.304134
  H 0.276786 0.721051 1.846385
  H -0.122760 -0.648597 0.797555
  H -0.122728 0.991010 0.142510
  H 3.539174 1.342481 1.027035
  H 3.539625 -0.292940 1.682048
  H 1.836969 0.374677 3.365501
  H 1.836022 2.020444 2.708060
  H 4.255669 0.589991 3.898541
  H 3.309880 1.852788 4.678337
  H 4.257425 2.229945 3.244221
  H 1.688737 -0.656675 -1.595811
  H 5.331477 -0.108247 -0.237121
  H 5.485384 -2.472006 -3.743815
  H 5.482184 -0.844809 -4.401991
  H 3.161070 -0.491551 -3.550976
  H 3.163077 -2.140033 -2.883912
 28
 109.504460
  C 0.314398 0.338038 0.888714
  C 1.797547 0.187802 0.513009
  C 2.877521 0.579104 1.491385
  C 2.434692 1.121634 2.845812
  C 3.657689 1.460675 3.695745
  C 1.979969 -0.283284 -0.663401
  C 5.238305 -0.507809 -1.225444
  C 5.679331 -0.952744 -2.328346
  C 5.125029 -1.471814 -3.610195
  C 3.602049 -1.485846 -3.640530
  H 3.263642 -1.873310 -4.598370
  H 6.785213 -0.957661 -2.343942
  H 0.250194 0.739149 1.892536
  H -0.179906 -0.627364 0.851324
  H -0.179843 1.011873 0.196311
  H 3.500318 1.334622 1.007338
  H 3.500646 -0.301276 1.662620
  H 1.837876 0.379755 3.380176
  H 1.837210 2.026836 2.721624
  H 4.269172 0.577047 3.865684
  H 3.348598 1.847835 4.663598
  H 4.270570 2.217209 3.210295
  H 1.622215 -0.653841 -1.587365
  H 5.388652 -0.116681 -0.255417
  H 5.512501 -2.480553 -3.765491
  H 5.509889 -0.853056 -4.423140
  H 3.211877 -0.478883 -3.520833
  H 3.213484 -2.127459 -2.854438
 28
 110.240875
  C 0.267615 0.356025 0.934620
  C 1.740664 0.193753 0.528509
  C 2.843745 0.576853 1.485788
  C 2.431015 1.122320 2.847938
  C 3.672552 1.452033 3.673226
  C 1.904027 -0.278131 -0.649875
  C 5.317757 -0.516172 -1.245219
  C 5.746479 -0.962470 -2.351660
  C 5.163823 -1.477273 -3.624041
  C 3.640149 -1.476837 -3.619520
  H 3.275397 -1.860717 -4.569129
  H 6.851549 -0.974893 -2.385238
  H 0.226057 0.757523 1.939265
  H -0.234625 -0.605583 0.906788
  H -0.234681 1.033556 0.251687
  H 3.461694 1.327632 0.988725
  H 3.462310 -0.309061 1.644211
  H 1.839718 0.384968 3.393678
  H 1.839034 2.032081 2.734840
  H 4.280324 0.564041 3.831392
  H 3.385413 1.841556 4.646556
  H 4.281240 2.203640 3.175713
  H 1.555672 -0.649693 -1.576350
  H 5.450364 -0.123740 -0.271749
  H 5.539116 -2.489720 -3.786427
  H 5.537088 -0.860790 -4.444368
  H 3.262628 -0.466227 -3.490057
  H 3.263888 -2.114412 -2.824192
