 16
 0.000000
  C 0.931836 0.053214 0.206567
  C 2.414383 0.065316 0.006475
  H 3.011126 0.013366 0.905811
  C 3.044634 0.130980 -1.172144
  C 2.319078 0.204787 -2.482681
  H 1.240088 0.197200 -2.340013
  C 4.498925 0.132295 -1.203326
  C 5.260357 0.192966 -2.292289
  H 6.332905 0.188861 -2.224906
  H 0.690437 -0.001307 1.263759
  H 0.479150 -0.805566 -0.290673
  H 0.475091 0.955098 -0.199820
  H 2.594810 -0.643966 -3.110446
  H 2.595602 1.118021 -3.011902
  H 4.975752 0.077826 -0.232393
  H 4.853782 0.248767 -3.287507
 16
 5.935573
  C 0.941941 0.078640 0.222737
  C 2.383777 0.087103 0.016774
  H 3.007982 0.049113 0.902871
  C 3.019802 0.145346 -1.166470
  C 2.289156 0.226860 -2.485897
  H 1.210480 0.239718 -2.349745
  C 4.487816 0.115318 -1.195243
  C 5.250799 0.168895 -2.278027
  H 6.324826 0.144263 -2.207061
  H 0.652137 -0.013210 1.274627
  H 0.777847 -0.829003 -0.312616
  H 0.407217 0.922055 -0.246062
  H 2.549895 -0.627413 -3.111440
  H 2.578987 1.133402 -3.017776
  H 4.964938 0.045482 -0.220620
  H 4.847512 0.239987 -3.269621
 16
 18.510346
  C 0.926461 0.094901 0.236299
  C 2.365554 0.104062 0.029236
  H 3.007673 0.086094 0.903911
  C 3.011846 0.157540 -1.167664
  C 2.289720 0.245294 -2.479561
  H 1.213379 0.273379 -2.350558
  C 4.459844 0.099726 -1.193393
  C 5.228651 0.150141 -2.276841
  H 6.301820 0.101755 -2.202701
  H 0.607876 -0.013798 1.261956
  H 1.021130 -0.825242 -0.305972
  H 0.359269 0.856876 -0.275970
  H 2.541735 -0.612110 -3.102837
  H 2.592807 1.145866 -3.010907
  H 4.931547 0.010420 -0.222310
  H 4.827962 0.243846 -3.272497
 16
 32.316093
  C 0.901940 0.112515 0.252890
  C 2.345903 0.095664 0.018465
  H 2.985096 0.066541 0.897313
  C 3.008313 0.155149 -1.181663
  C 2.282763 0.257957 -2.487595
  H 1.209892 0.287393 -2.349124
  C 4.460286 0.085077 -1.197629
  C 5.236892 0.142764 -2.274392
  H 6.309721 0.084931 -2.192740
  H 0.587658 0.026960 1.282751
  H 1.183948 -0.813992 -0.236553
  H 0.299235 0.803038 -0.318520
  H 2.527000 -0.594299 -3.121432
  H 2.584498 1.163302 -3.014032
  H 4.929163 -0.020444 -0.218764
  H 4.841681 0.253041 -3.279808
 16
 43.329735
  C 0.890403 0.123979 0.262842
  C 2.337276 0.085891 0.010429
  H 2.970638 0.044284 0.895704
  C 3.006171 0.153528 -1.188323
  C 2.285973 0.279088 -2.495979
  H 1.200607 0.311197 -2.357460
  C 4.447218 0.068490 -1.198303
  C 5.231483 0.134373 -2.272524
  H 6.299896 0.067505 -2.187416
  H 0.581367 0.107367 1.295361
  H 1.330300 -0.818405 -0.134738
  H 0.255246 0.702363 -0.384945
  H 2.529056 -0.570749 -3.144634
  H 2.593227 1.193336 -3.012916
  H 4.907131 -0.053214 -0.226338
  H 4.843368 0.262987 -3.268808
 16
 51.186988
  C 0.880407 0.138539 0.277807
  C 2.325647 0.071568 0.002900
  H 2.950332 0.017781 0.887591
  C 3.002346 0.152405 -1.197744
  C 2.285617 0.297476 -2.508991
  H 1.207585 0.328139 -2.374539
  C 4.440536 0.057848 -1.201112
  C 5.233891 0.128343 -2.270756
  H 6.302735 0.051685 -2.179161
  H 0.580765 0.184395 1.307029
  H 1.439812 -0.821654 -0.038549
  H 0.214604 0.605175 -0.425502
  H 2.526822 -0.537602 -3.166915
  H 2.593442 1.215240 -3.010892
  H 4.894672 -0.076258 -0.230332
  H 4.853966 0.265103 -3.262834
 16
 57.300621
  C 0.872911 0.160876 0.285653
  C 2.319753 0.053192 0.002680
  H 2.944667 -0.000831 0.889750
  C 3.001935 0.148077 -1.203262
  C 2.285645 0.306053 -2.514624
  H 1.210617 0.334476 -2.382119
  C 4.435554 0.047708 -1.202296
  C 5.235381 0.122676 -2.268769
  H 6.305560 0.045029 -2.171264
  H 0.568241 0.233874 1.313299
  H 1.520667 -0.818537 0.012070
  H 0.195141 0.542634 -0.449576
  H 2.527428 -0.521200 -3.183243
  H 2.593753 1.232216 -3.007498
  H 4.888395 -0.093031 -0.228420
  H 4.859709 0.269845 -3.263605
 16
 62.188293
  C 0.871048 0.192780 0.290254
  C 2.316400 0.032185 0.011284
  H 2.943209 -0.011301 0.898107
  C 3.005722 0.143812 -1.204587
  C 2.287263 0.308118 -2.514198
  H 1.215854 0.328826 -2.382210
  C 4.432826 0.043298 -1.201266
  C 5.237051 0.121409 -2.267978
  H 6.297812 0.040215 -2.168660
  H 0.552827 0.260086 1.312567
  H 1.582899 -0.828187 0.029644
  H 0.188558 0.515341 -0.468377
  H 2.532568 -0.509999 -3.189871
  H 2.590991 1.244740 -3.001650
  H 4.885710 -0.102738 -0.226876
  H 4.863782 0.269803 -3.264128
 16
 65.698240
  C 0.873852 0.240048 0.291934
  C 2.313802 0.010364 0.019257
  H 2.945310 -0.016570 0.905602
  C 3.009384 0.136365 -1.207272
  C 2.285440 0.305352 -2.509754
  H 1.207019 0.321509 -2.373118
  C 4.432629 0.030287 -1.202413
  C 5.241121 0.118382 -2.266483
  H 6.309650 0.050650 -2.161045
  H 0.537341 0.277791 1.306948
  H 1.634123 -0.852268 0.027715
  H 0.187701 0.513615 -0.483878
  H 2.532312 -0.508674 -3.195637
  H 2.581212 1.239450 -2.987608
  H 4.886754 -0.117848 -0.226002
  H 4.870201 0.282986 -3.264359
 16
 67.981888
  C 0.878852 0.273508 0.288961
  C 2.311079 -0.006249 0.031617
  H 2.939578 -0.020962 0.918331
  C 3.010388 0.132810 -1.200774
  C 2.286650 0.302825 -2.504917
  H 1.210871 0.308614 -2.370893
  C 4.428812 0.032883 -1.198184
  C 5.238914 0.123324 -2.265608
  H 6.303707 0.040152 -2.163413
  H 0.525291 0.288412 1.299769
  H 1.690837 -0.881441 0.017018
  H 0.202080 0.518094 -0.499901
  H 2.542241 -0.501732 -3.193967
  H 2.573222 1.243426 -2.976779
  H 4.883583 -0.123091 -0.227583
  H 4.868240 0.282217 -3.259053
 16
 68.068596
  C 0.892291 0.322552 0.286257
  C 2.305971 -0.020375 0.035350
  H 2.937691 -0.010800 0.921607
  C 3.011266 0.128822 -1.201820
  C 2.283613 0.300162 -2.500961
  H 1.206068 0.295994 -2.363987
  C 4.422972 0.018811 -1.195275
  C 5.239278 0.117028 -2.260455
  H 6.304930 0.042776 -2.152075
  H 0.523795 0.300498 1.290625
  H 1.757246 -0.933504 0.000834
  H 0.208007 0.523648 -0.509941
  H 2.544965 -0.497738 -3.197230
  H 2.560835 1.245036 -2.966693
  H 4.876650 -0.140420 -0.222953
  H 4.872035 0.292611 -3.254366
 16
 66.559810
  C 0.903329 0.373242 0.289330
  C 2.294574 -0.038546 0.042590
  H 2.928460 -0.012322 0.926666
  C 3.011312 0.117318 -1.203018
  C 2.284452 0.292323 -2.500830
  H 1.208573 0.281680 -2.364186
  C 4.417783 0.002891 -1.193400
  C 5.239265 0.112138 -2.257939
  H 6.305462 0.055913 -2.143892
  H 0.521019 0.315734 1.287935
  H 1.825482 -0.998613 -0.019736
  H 0.216558 0.553036 -0.509719
  H 2.550936 -0.498373 -3.202483
  H 2.556386 1.241367 -2.960137
  H 4.871532 -0.152350 -0.221630
  H 4.874021 0.304143 -3.249190
 16
 64.876836
  C 0.911556 0.410243 0.292681
  C 2.282008 -0.054093 0.047605
  H 2.916137 -0.009442 0.933609
  C 3.015456 0.115078 -1.207460
  C 2.285764 0.290001 -2.500645
  H 1.209240 0.261541 -2.359561
  C 4.417216 0.001401 -1.191505
  C 5.243758 0.110817 -2.255238
  H 6.307959 0.043302 -2.138639
  H 0.515577 0.322852 1.285126
  H 1.901942 -1.055376 -0.040210
  H 0.222735 0.580025 -0.507552
  H 2.563491 -0.490527 -3.210993
  H 2.542492 1.249961 -2.952334
  H 4.868950 -0.164288 -0.218905
  H 4.881262 0.299519 -3.249180
