 22
 0.000000
  C 0.999445 0.157291 0.442108
  C 2.470865 0.137954 0.393837
  C 3.249696 0.602943 1.551550
  H 2.618258 0.931157 2.369327
  C 3.065543 -0.331302 -0.774761
  C 4.446651 -0.419437 -0.994865
  C 5.098542 -0.870341 -2.118615
  C 4.628370 -1.388172 -3.409168
  C 3.145821 -1.512411 -3.718945
  H 3.024281 -1.914407 -4.720950
  H 6.180724 -0.850131 -2.068463
  H 0.619816 0.536274 1.385793
  H 0.603937 -0.846618 0.279579
  H 0.603790 0.769942 -0.369559
  H 3.907002 1.423610 1.259152
  H 3.907248 -0.191836 1.907863
  H 2.395389 -0.645748 -1.557474
  H 5.084875 -0.093813 -0.183705
  H 5.104820 -2.370209 -3.534899
  H 5.105020 -0.765592 -4.178868
  H 2.654704 -0.542989 -3.688069
  H 2.654696 -2.191736 -3.026612
 22
 12.889270
  C 1.040646 0.199810 0.548317
  C 2.501436 0.104204 0.309952
  C 3.350602 0.552931 1.426862
  H 2.739796 0.884991 2.254422
  C 2.869410 -0.385812 -0.910236
  C 4.212536 -0.405408 -0.959981
  C 5.016827 -0.840851 -2.045257
  C 4.672277 -1.366768 -3.355711
  C 3.215021 -1.533816 -3.772473
  H 3.177220 -1.938921 -4.782076
  H 6.084330 -0.777724 -1.888087
  H 0.785143 0.591607 1.523887
  H 0.582756 -0.779596 0.432282
  H 0.582774 0.826998 -0.212902
  H 3.995548 1.376070 1.131842
  H 3.996141 -0.245278 1.782932
  H 2.177718 -0.688555 -1.663812
  H 4.798292 -0.072041 -0.129751
  H 5.194084 -2.334020 -3.447793
  H 5.194391 -0.731874 -4.090908
  H 2.694869 -0.580144 -3.780944
  H 2.694711 -2.228658 -3.119483
 22
 45.422529
  C 1.088382 0.222398 0.604569
  C 2.544747 0.080071 0.250051
  C 3.419818 0.528501 1.365777
  H 2.807167 0.864941 2.204227
  C 2.723823 -0.421050 -0.997492
  C 4.035667 -0.395391 -0.934842
  C 4.961629 -0.824179 -2.003645
  C 4.696425 -1.358528 -3.335079
  C 3.273305 -1.547604 -3.806958
  H 3.281093 -1.952084 -4.815367
  H 6.023679 -0.729424 -1.767634
  H 0.889263 0.621923 1.600337
  H 0.597905 -0.743531 0.515712
  H 0.598157 0.859167 -0.127173
  H 4.056549 1.365021 1.082012
  H 4.057567 -0.271306 1.739257
  H 1.987299 -0.712947 -1.723846
  H 4.621129 -0.064432 -0.110782
  H 5.235911 -2.310161 -3.408376
  H 5.236330 -0.721872 -4.045842
  H 2.741653 -0.600807 -3.834280
  H 2.741447 -2.250685 -3.172471
 22
 88.323794
  C 1.123315 0.232909 0.642715
  C 2.592606 0.059559 0.200552
  C 3.450097 0.521871 1.340050
  H 2.831444 0.853515 2.170077
  C 2.623078 -0.452776 -1.069777
  C 3.927694 -0.375811 -0.896640
  C 4.929477 -0.808677 -1.979392
  C 4.712536 -1.346688 -3.311603
  C 3.298764 -1.560980 -3.831005
  H 3.344720 -1.966327 -4.837058
  H 5.973144 -0.694316 -1.705480
  H 0.961899 0.635810 1.647232
  H 0.617628 -0.734065 0.576380
  H 0.611361 0.882412 -0.072148
  H 4.082223 1.366298 1.061700
  H 4.089711 -0.274593 1.722837
  H 1.885899 -0.735019 -1.760058
  H 4.579653 -0.056857 -0.105205
  H 5.271113 -2.293486 -3.367164
  H 5.265637 -0.700254 -4.009979
  H 2.754421 -0.626009 -3.877724
  H 2.760356 -2.270186 -3.214676
 22
 131.417425
  C 1.138881 0.248419 0.663101
  C 2.622593 0.050497 0.191686
  C 3.466264 0.524079 1.346511
  H 2.850042 0.863772 2.174817
  C 2.564193 -0.484389 -1.093306
  C 3.847859 -0.358643 -0.831763
  C 4.926546 -0.805517 -1.977333
  C 4.731619 -1.344005 -3.316453
  C 3.322331 -1.564622 -3.846912
  H 3.378343 -1.966868 -4.855344
  H 5.959019 -0.681704 -1.681437
  H 0.989047 0.652635 1.658645
  H 0.627820 -0.713634 0.606023
  H 0.629668 0.901428 -0.047119
  H 4.102141 1.365392 1.055784
  H 4.103994 -0.277699 1.730460
  H 1.811985 -0.770886 -1.782597
  H 4.567226 -0.069725 -0.104704
  H 5.294998 -2.288605 -3.370481
  H 5.284451 -0.690111 -4.008897
  H 2.772535 -0.629841 -3.894568
  H 2.783352 -2.281403 -3.235282
 22
 167.525407
  C 1.138998 0.280596 0.661834
  C 2.637070 0.037750 0.213386
  C 3.466434 0.530717 1.376537
  H 2.851942 0.901882 2.188696
  C 2.525010 -0.559738 -1.080426
  C 3.784820 -0.368979 -0.754484
  C 4.957322 -0.812686 -2.015329
  C 4.760083 -1.336215 -3.350182
  C 3.342870 -1.560833 -3.848476
  H 3.376693 -1.948381 -4.863370
  H 5.985807 -0.676028 -1.715591
  H 0.993001 0.697773 1.639884
  H 0.623273 -0.669862 0.614282
  H 0.646014 0.931826 -0.052459
  H 4.112249 1.345720 1.064577
  H 4.086037 -0.268574 1.779023
  H 1.775270 -0.853315 -1.763232
  H 4.586181 -0.109084 -0.088084
  H 5.328250 -2.274728 -3.429082
  H 5.287863 -0.664595 -4.043829
  H 2.784840 -0.628201 -3.867947
  H 2.826854 -2.291900 -3.231660
 22
 190.091537
  C 1.129895 0.351593 0.657417
  C 2.623567 0.031408 0.312666
  C 3.442928 0.548727 1.484955
  H 2.810818 0.979258 2.258385
  C 2.498748 -0.679009 -0.988917
  C 3.718581 -0.417962 -0.626999
  C 5.024078 -0.835473 -2.107149
  C 4.807718 -1.324013 -3.463404
  C 3.376282 -1.589235 -3.905858
  H 3.374323 -1.946165 -4.930453
  H 6.058210 -0.653326 -1.830372
  H 0.984336 0.816377 1.625280
  H 0.568268 -0.576716 0.629455
  H 0.689607 1.006347 -0.095538
  H 4.131564 1.329809 1.151679
  H 4.026955 -0.257654 1.944852
  H 1.743603 -0.984307 -1.663270
  H 4.588197 -0.172377 -0.065389
  H 5.404074 -2.238596 -3.587037
  H 5.274279 -0.614534 -4.163387
  H 2.790726 -0.681529 -3.870550
  H 2.921930 -2.350815 -3.289598
 22
 183.021419
  C 1.068270 0.429346 0.718610
  C 2.540699 0.141826 0.623257
  C 3.348959 0.642635 1.792473
  H 2.699909 1.112546 2.523135
  C 2.522699 -0.740340 -0.850993
  C 3.636359 -0.364009 -0.398124
  C 5.165066 -0.875995 -2.409120
  C 4.906434 -1.380158 -3.742202
  C 3.441802 -1.646197 -4.076012
  H 3.356504 -2.027234 -5.091879
  H 6.245939 -0.718094 -2.255119
  H 0.828381 0.934497 1.646253
  H 0.489396 -0.495016 0.667994
  H 0.725617 1.053658 -0.112060
  H 4.080108 1.382309 1.463581
  H 3.892620 -0.162031 2.293864
  H 1.801073 -1.119847 -1.526908
  H 4.619531 -0.240155 -0.017153
  H 5.498119 -2.299344 -3.872219
  H 5.346754 -0.693100 -4.480122
  H 2.863866 -0.729247 -4.010592
  H 3.030069 -2.391743 -3.402416
 22
 162.595673
  C 1.156961 0.562855 0.399991
  C 2.553325 0.085405 0.664322
  C 3.285458 0.593781 1.873911
  H 2.644298 1.262886 2.441862
  C 2.650662 -1.181382 -0.432801
  C 3.698537 -0.496491 -0.232057
  C 5.226346 -0.771187 -2.494498
  C 4.844691 -1.234835 -3.802046
  C 3.375401 -1.600055 -3.980980
  H 3.190809 -1.935701 -4.998322
  H 6.297839 -0.530259 -2.455420
  H 0.842913 1.240445 1.190235
  H 0.440674 -0.255807 0.372052
  H 1.088615 1.092229 -0.552407
  H 4.176870 1.141647 1.579030
  H 3.612761 -0.215296 2.530097
  H 1.914481 -1.766128 -0.921265
  H 4.747543 -0.416739 -0.078578
  H 5.489017 -2.089836 -4.061363
  H 5.151385 -0.478959 -4.542098
  H 2.742922 -0.739871 -3.782766
  H 3.105749 -2.405899 -3.305478
