 20
 0.000000
  C 0.973850 0.171744 0.488651
  C 2.429716 0.112858 0.340153
  H 3.064779 0.441470 1.150080
  C 2.995460 -0.354421 -0.825273
  C 4.378469 -0.423624 -0.999506
  C 5.110013 -0.864280 -2.102097
  C 4.653319 -1.389182 -3.414790
  C 3.173249 -1.517844 -3.735959
  H 3.069252 -1.918942 -4.739461
  O 6.423166 -0.839644 -2.041573
  H 0.665074 0.559365 1.455194
  H 0.541348 -0.821684 0.350260
  H 0.538870 0.792690 -0.298592
  H 2.332762 -0.670425 -1.612255
  H 4.968749 -0.084809 -0.154213
  H 5.131424 -2.369014 -3.529263
  H 5.131169 -0.758278 -4.173308
  H 2.677944 -0.550984 -3.711925
  H 2.678291 -2.201997 -3.052079
  H 6.790775 -0.504677 -1.201311
 20
 3.394141
  C 0.988176 0.152626 0.524071
  C 2.406900 0.105152 0.325507
  H 3.060405 0.436510 1.124757
  C 2.972695 -0.358517 -0.839481
  C 4.352475 -0.419154 -1.003515
  C 5.095456 -0.856140 -2.096489
  C 4.651479 -1.386296 -3.411988
  C 3.174501 -1.522978 -3.741352
  H 3.082789 -1.927245 -4.746004
  O 6.407882 -0.822887 -2.025406
  H 0.670855 0.567312 1.475125
  H 0.498706 -0.810052 0.361688
  H 0.743207 0.779243 -0.301020
  H 2.314662 -0.677221 -1.628444
  H 4.934220 -0.076254 -0.154567
  H 5.137307 -2.362874 -3.521033
  H 5.132551 -0.754775 -4.167863
  H 2.673241 -0.559457 -3.727439
  H 2.677928 -2.210980 -3.063131
  H 6.769121 -0.484866 -1.184622
 20
 8.487044
  C 0.970628 0.125898 0.551727
  C 2.398606 0.087734 0.334645
  H 3.067720 0.411844 1.125161
  C 2.965308 -0.363850 -0.842022
  C 4.344785 -0.408318 -1.008561
  C 5.090170 -0.843742 -2.097833
  C 4.647872 -1.388219 -3.410653
  C 3.170292 -1.538680 -3.733197
  H 3.080107 -1.952943 -4.735089
  O 6.414668 -0.795580 -2.031112
  H 0.647768 0.512381 1.509363
  H 0.408454 -0.761442 0.251473
  H 0.948176 0.846883 -0.264029
  H 2.310851 -0.689148 -1.632524
  H 4.924760 -0.056908 -0.162188
  H 5.141602 -2.361204 -3.512800
  H 5.121912 -0.758441 -4.171868
  H 2.662057 -0.578894 -3.730591
  H 2.681375 -2.227161 -3.050314
  H 6.777164 -0.446592 -1.188675
 20
 14.868217
  C 0.961687 0.102872 0.563796
  C 2.391190 0.085649 0.327384
  H 3.061814 0.411519 1.117848
  C 2.964322 -0.366488 -0.854825
  C 4.345371 -0.403478 -1.019526
  C 5.085501 -0.835584 -2.097215
  C 4.648017 -1.388291 -3.404439
  C 3.169916 -1.546242 -3.721331
  H 3.078224 -1.967150 -4.720116
  O 6.402355 -0.780554 -2.034054
  H 0.629836 0.455819 1.523873
  H 0.364764 -0.716114 0.171869
  H 1.106930 0.877509 -0.210731
  H 2.312942 -0.699308 -1.647659
  H 4.923811 -0.046038 -0.175145
  H 5.145372 -2.359788 -3.500718
  H 5.117544 -0.759834 -4.169217
  H 2.658473 -0.588188 -3.723424
  H 2.686239 -2.232558 -3.032472
  H 6.758322 -0.426502 -1.195197
 20
 20.202902
  C 0.954546 0.083379 0.582162
  C 2.373103 0.088413 0.320512
  H 3.048025 0.417763 1.114930
  C 2.950014 -0.364125 -0.858359
  C 4.340455 -0.394436 -1.021697
  C 5.087736 -0.830438 -2.100784
  C 4.654480 -1.393496 -3.407636
  C 3.174172 -1.557833 -3.722055
  H 3.082352 -1.985664 -4.718221
  O 6.412457 -0.769537 -2.039914
  H 0.618102 0.396694 1.545614
  H 0.323956 -0.664642 0.105234
  H 1.231369 0.914978 -0.137142
  H 2.300637 -0.703878 -1.649363
  H 4.917037 -0.029901 -0.177567
  H 5.154717 -2.364828 -3.497554
  H 5.121549 -0.767025 -4.176288
  H 2.660166 -0.600957 -3.729738
  H 2.693525 -2.241094 -3.027980
  H 6.761490 -0.411931 -1.207118
 20
 23.972006
  C 0.955976 0.074260 0.617287
  C 2.362407 0.098457 0.327479
  H 3.037999 0.427099 1.118289
  C 2.940018 -0.360132 -0.859683
  C 4.318044 -0.386800 -1.023499
  C 5.075650 -0.826311 -2.102462
  C 4.662223 -1.402051 -3.419906
  C 3.189697 -1.581172 -3.757931
  H 3.118073 -2.014631 -4.753441
  O 6.397154 -0.756565 -2.030753
  H 0.621694 0.359211 1.590469
  H 0.303642 -0.602791 0.084529
  H 1.335468 0.949453 -0.052287
  H 2.292715 -0.703572 -1.639559
  H 4.890677 -0.017664 -0.180698
  H 5.170760 -2.370352 -3.496964
  H 5.134560 -0.773962 -4.184299
  H 2.668378 -0.629767 -3.778533
  H 2.704691 -2.264788 -3.068895
  H 6.734004 -0.391624 -1.192169
 20
 26.282511
  C 0.949804 0.052805 0.610469
  C 2.352302 0.099652 0.310066
  H 3.019019 0.425949 1.098379
  C 2.931744 -0.360672 -0.870321
  C 4.333673 -0.383990 -1.035871
  C 5.085144 -0.823872 -2.107519
  C 4.665588 -1.404092 -3.416518
  C 3.191423 -1.581681 -3.738369
  H 3.108715 -2.018671 -4.728676
  O 6.406634 -0.752455 -2.041566
  H 0.606310 0.309783 1.603071
  H 0.288073 -0.557857 0.023789
  H 1.414564 0.965038 0.001469
  H 2.279865 -0.710680 -1.651871
  H 4.911188 -0.008809 -0.191809
  H 5.170998 -2.371450 -3.493154
  H 5.131263 -0.781423 -4.186207
  H 2.672273 -0.629737 -3.757483
  H 2.712857 -2.260363 -3.041302
  H 6.750837 -0.376408 -1.189991
 20
 28.178923
  C 0.953484 0.042957 0.629780
  C 2.349707 0.112114 0.316630
  H 3.024559 0.438191 1.111200
  C 2.930183 -0.357298 -0.872618
  C 4.313055 -0.378438 -1.038734
  C 5.074594 -0.823548 -2.114106
  C 4.673777 -1.406414 -3.415044
  C 3.203919 -1.593376 -3.753962
  H 3.135984 -2.035826 -4.746344
  O 6.394109 -0.749635 -2.044419
  H 0.613653 0.278932 1.613754
  H 0.276102 -0.519394 0.002751
  H 1.482293 0.983846 0.062186
  H 2.274580 -0.710918 -1.648081
  H 4.887987 -0.000140 -0.196573
  H 5.186151 -2.374367 -3.481039
  H 5.146096 -0.781286 -4.183324
  H 2.679716 -0.643510 -3.783173
  H 2.720501 -2.272776 -3.059567
  H 6.732452 -0.370113 -1.193541
 20
 29.717810
  C 0.946508 0.020791 0.622279
  C 2.354020 0.121639 0.312513
  H 3.026977 0.430638 1.113532
  C 2.941537 -0.354066 -0.876528
  C 4.323902 -0.370382 -1.038849
  C 5.082610 -0.816284 -2.107141
  C 4.673463 -1.410748 -3.417093
  C 3.201832 -1.597536 -3.746279
  H 3.126867 -2.041745 -4.732615
  O 6.409055 -0.739450 -2.036372
  H 0.590020 0.238143 1.615100
  H 0.272722 -0.483747 -0.046693
  H 1.538310 1.000442 0.096743
  H 2.289208 -0.712282 -1.653267
  H 4.896824 0.012029 -0.198220
  H 5.182221 -2.375711 -3.481738
  H 5.139737 -0.792218 -4.187615
  H 2.679200 -0.648324 -3.775045
  H 2.723128 -2.272907 -3.047011
  H 6.739507 -0.360956 -1.198843
 20
 31.424001
  C 0.947037 0.004067 0.621658
  C 2.352398 0.131402 0.310570
  H 3.022969 0.430747 1.110482
  C 2.945047 -0.348560 -0.880414
  C 4.324121 -0.364155 -1.041596
  C 5.084159 -0.814028 -2.108125
  C 4.675959 -1.410072 -3.410185
  C 3.202906 -1.594111 -3.738076
  H 3.126343 -2.043589 -4.725060
  O 6.414162 -0.741715 -2.037664
  H 0.583632 0.222001 1.611986
  H 0.278390 -0.483627 -0.062911
  H 1.581820 1.000721 0.101374
  H 2.297097 -0.706546 -1.651560
  H 4.897175 0.018672 -0.200414
  H 5.187113 -2.386045 -3.471400
  H 5.148832 -0.789598 -4.191178
  H 2.682986 -0.643475 -3.770684
  H 2.722346 -2.264985 -3.035350
  H 6.745073 -0.363636 -1.204438
 20
 32.938002
  C 0.949094 -0.008530 0.635289
  C 2.358881 0.146967 0.320228
  H 3.034127 0.421527 1.127164
  C 2.947306 -0.339791 -0.874478
  C 4.324975 -0.360580 -1.038768
  C 5.084389 -0.812354 -2.104601
  C 4.682238 -1.414396 -3.414896
  C 3.210937 -1.607144 -3.756104
  H 3.145415 -2.056899 -4.744051
  O 6.410894 -0.735113 -2.029779
  H 0.580540 0.208727 1.619297
  H 0.274279 -0.461912 -0.073768
  H 1.629631 1.019594 0.123227
  H 2.287769 -0.697910 -1.652319
  H 4.899099 0.023459 -0.202714
  H 5.191249 -2.375063 -3.470796
  H 5.150666 -0.801057 -4.182013
  H 2.683382 -0.654952 -3.793676
  H 2.726088 -2.284778 -3.054720
  H 6.736912 -0.351977 -1.194992
 20
 34.114288
  C 0.950987 -0.033716 0.618643
  C 2.357949 0.153539 0.313199
  H 3.026008 0.421377 1.125032
  C 2.957345 -0.336502 -0.880364
  C 4.334561 -0.355490 -1.039078
  C 5.093643 -0.811320 -2.105812
  C 4.680816 -1.413586 -3.407693
  C 3.206485 -1.596043 -3.730153
  H 3.125820 -2.045435 -4.708739
  O 6.421171 -0.740061 -2.036823
  H 0.568428 0.188421 1.598793
  H 0.288111 -0.474544 -0.105147
  H 1.667904 1.019852 0.106021
  H 2.306563 -0.694010 -1.655381
  H 4.908337 0.029445 -0.201717
  H 5.187645 -2.385961 -3.466428
  H 5.150285 -0.800765 -4.188748
  H 2.689289 -0.647315 -3.764198
  H 2.728387 -2.261773 -3.026023
  H 6.752400 -0.356617 -1.204868
 20
 34.975225
  C 0.957248 -0.052938 0.620955
  C 2.361517 0.167260 0.314962
  H 3.036526 0.423637 1.145057
  C 2.961816 -0.329527 -0.879494
  C 4.334558 -0.350355 -1.036806
  C 5.095729 -0.808709 -2.101239
  C 4.688593 -1.414968 -3.405925
  C 3.206058 -1.601213 -3.741386
  H 3.131569 -2.062498 -4.740939
  O 6.421778 -0.738283 -2.026475
  H 0.563223 0.176103 1.605632
  H 0.303231 -0.475010 -0.106792
  H 1.711273 1.038157 0.099648
  H 2.306024 -0.687703 -1.656550
  H 4.911067 0.037157 -0.194720
  H 5.196591 -2.386849 -3.458545
  H 5.162705 -0.802982 -4.184481
  H 2.680631 -0.639077 -3.781233
  H 2.716994 -2.275383 -3.029107
  H 6.749976 -0.353323 -1.194761
 20
 35.552983
  C 0.963441 -0.074068 0.624624
  C 2.364886 0.181599 0.317917
  H 3.029234 0.420220 1.142735
  C 2.969660 -0.322913 -0.878568
  C 4.339090 -0.345280 -1.035451
  C 5.102686 -0.808463 -2.102129
  C 4.694964 -1.416607 -3.404205
  C 3.204427 -1.601188 -3.741745
  H 3.130597 -2.051712 -4.712642
  O 6.425753 -0.741677 -2.026511
  H 0.564821 0.158666 1.597073
  H 0.307378 -0.488381 -0.117625
  H 1.757294 1.062152 0.089894
  H 2.307592 -0.682627 -1.657616
  H 4.912727 0.040054 -0.199277
  H 5.201249 -2.387770 -3.453383
  H 5.171134 -0.808268 -4.181535
  H 2.683497 -0.645903 -3.784520
  H 2.716261 -2.267245 -3.035584
  H 6.755296 -0.355326 -1.195112
