 13
 0.000000
  C 0.969021 0.144091 0.411559
  C 2.413834 0.106882 0.318885
  H 2.998606 0.447084 1.165052
  C 3.072388 -0.347534 -0.812468
  C 4.478906 -0.387983 -0.915939
  C 5.102687 -0.838072 -2.037085
  H 4.536340 -1.179780 -2.887087
  H 6.174599 -0.867649 -2.111602
  H 0.611108 0.525840 1.361266
  H 0.547828 -0.851247 0.221634
  H 0.548297 0.732271 -0.413826
  H 2.482724 -0.686115 -1.653956
  H 5.064039 -0.048286 -0.071772
 13
 0.488791
  C 0.969405 0.109055 0.433620
  C 2.408343 0.155427 0.295117
  H 2.994063 0.621168 1.078938
  C 3.067014 -0.322846 -0.824721
  C 4.470662 -0.435122 -0.899997
  C 5.101394 -0.845731 -2.033769
  H 4.546313 -1.124054 -2.915253
  H 6.175557 -0.900425 -2.090351
  H 0.620542 0.490322 1.387057
  H 0.592638 -0.904615 0.256734
  H 0.498196 0.671390 -0.384124
  H 2.491290 -0.577118 -1.705918
  H 5.052350 -0.186994 -0.020364
 13
 2.046987
  C 0.968422 0.074559 0.448234
  C 2.397711 0.201640 0.257855
  H 2.955602 0.811014 0.962485
  C 3.069944 -0.349486 -0.816723
  C 4.471957 -0.481859 -0.882388
  C 5.104654 -0.833875 -2.032387
  H 4.554409 -1.036926 -2.941911
  H 6.174293 -0.898081 -2.082282
  H 0.640927 0.411856 1.427592
  H 0.625223 -0.939810 0.239733
  H 0.446846 0.676800 -0.308117
  H 2.503495 -0.561292 -1.715872
  H 5.042520 -0.324035 0.020818
 13
 5.432889
  C 0.958358 0.051812 0.466495
  C 2.376617 0.230610 0.219087
  H 2.899812 0.959749 0.828452
  C 3.072488 -0.400761 -0.793080
  C 4.473042 -0.570939 -0.862382
  C 5.114403 -0.788035 -2.038497
  H 4.581556 -0.831692 -2.974665
  H 6.184140 -0.892091 -2.080901
  H 0.649319 0.457110 1.425715
  H 0.657921 -0.990670 0.359514
  H 0.379755 0.584184 -0.302485
  H 2.525571 -0.501597 -1.725849
  H 5.033486 -0.555642 0.059444
 13
 9.754387
  C 0.961206 -0.002106 0.484237
  C 2.352764 0.296567 0.178830
  H 2.833830 1.060675 0.781433
  C 3.073102 -0.314575 -0.829066
  C 4.454486 -0.591268 -0.862845
  C 5.115533 -0.789824 -2.031039
  H 4.611916 -0.762196 -2.986024
  H 6.173303 -0.983625 -2.045619
  H 0.663145 0.413761 1.444129
  H 0.764413 -1.076117 0.438304
  H 0.302300 0.444065 -0.267369
  H 2.555255 -0.265201 -1.786586
  H 4.983051 -0.671685 0.076738
 13
 17.444054
  C 0.937555 -0.008417 0.495109
  C 2.314664 0.291873 0.136374
  H 2.759702 1.169280 0.605335
  C 3.101332 -0.422781 -0.753156
  C 4.468600 -0.700890 -0.855791
  C 5.131813 -0.723516 -2.037546
  H 4.646424 -0.502447 -2.973752
  H 6.191337 -0.909605 -2.074819
  H 0.661894 0.486045 1.422028
  H 0.767807 -1.080386 0.551906
  H 0.246010 0.370350 -0.264602
  H 2.546233 -0.265206 -1.691451
  H 4.996971 -0.933075 0.058978
 13
 26.703859
  C 0.931067 -0.030404 0.475540
  C 2.304546 0.327419 0.131702
  H 2.674526 1.234107 0.608478
  C 3.147409 -0.413028 -0.668778
  C 4.485680 -0.730526 -0.848965
  C 5.112027 -0.702929 -2.055643
  H 4.619491 -0.379053 -2.953697
  H 6.159554 -0.960951 -2.140119
  H 0.592840 0.533316 1.336093
  H 0.833143 -1.101007 0.646386
  H 0.238363 0.209664 -0.338131
  H 2.565920 -0.098677 -1.575456
  H 5.022974 -1.095661 0.018146
 13
 35.927400
  C 0.917401 -0.077607 0.440598
  C 2.287391 0.374026 0.108578
  H 2.587049 1.320404 0.561624
  C 3.242147 -0.338648 -0.556349
  C 4.501556 -0.769613 -0.849506
  C 5.101122 -0.719660 -2.078218
  H 4.607927 -0.305688 -2.939284
  H 6.120042 -1.048326 -2.206224
  H 0.544591 0.477309 1.292357
  H 0.888858 -1.144673 0.640693
  H 0.222434 0.112807 -0.380998
  H 2.524749 0.141606 -1.363163
  H 5.044892 -1.213207 -0.020865
 13
 36.807581
  C 0.928004 -0.124574 0.402294
  C 2.283123 0.418521 0.115051
  H 2.502655 1.393384 0.555976
  C 3.298434 -0.263072 -0.484956
  C 4.511820 -0.744582 -0.831171
  C 5.065820 -0.747168 -2.085633
  H 4.557495 -0.326568 -2.935384
  H 6.037751 -1.167339 -2.250112
  H 0.514312 0.359387 1.281759
  H 0.953934 -1.200799 0.544960
  H 0.240383 0.083079 -0.416043
  H 2.532979 0.347422 -1.219173
  H 5.055070 -1.210802 -0.014380
 13
 35.239271
  C 0.956960 -0.174390 0.363817
  C 2.276854 0.503113 0.059172
  H 2.430378 1.451382 0.575848
  C 3.363429 -0.145860 -0.438673
  C 4.498748 -0.721923 -0.825319
  C 5.049065 -0.801858 -2.083084
  H 4.567816 -0.368065 -2.941218
  H 5.965552 -1.330505 -2.241288
  H 0.546530 0.225238 1.286926
  H 1.079795 -1.249880 0.461417
  H 0.233608 0.014686 -0.421710
  H 2.387452 0.646074 -1.127334
  H 5.008045 -1.216176 -0.000467
 13
 33.102758
  C 0.982428 -0.208353 0.345193
  C 2.258948 0.563774 0.008543
  H 2.410418 1.461456 0.610980
  C 3.374697 -0.082016 -0.447405
  C 4.461867 -0.713401 -0.842488
  C 5.043639 -0.852402 -2.081293
  H 4.613226 -0.398536 -2.955716
  H 5.950768 -1.412447 -2.198204
  H 0.609083 0.110886 1.312778
  H 1.166643 -1.278428 0.374144
  H 0.206439 -0.015174 -0.388414
  H 2.212015 0.876720 -1.091189
  H 4.943734 -1.199597 0.012081
 13
 31.443140
  C 1.025380 -0.235649 0.319884
  C 2.230478 0.645614 -0.065480
  H 2.389622 1.469510 0.632487
  C 3.377285 0.007129 -0.479365
  C 4.427207 -0.681454 -0.848417
  C 5.044512 -0.932879 -2.053942
  H 4.648918 -0.539040 -2.964463
  H 5.929805 -1.535259 -2.100999
  H 0.714331 -0.002569 1.334324
  H 1.275564 -1.288817 0.267067
  H 0.182249 -0.049432 -0.340762
  H 2.028521 1.110054 -1.058052
  H 4.879298 -1.118482 0.053330
 13
 30.400078
  C 1.038127 -0.257518 0.281642
  C 2.207972 0.662754 -0.111180
  H 2.386385 1.443121 0.643655
  C 3.373518 0.062228 -0.526028
  C 4.436870 -0.633791 -0.841089
  C 5.040303 -1.006496 -2.018674
  H 4.613931 -0.728148 -2.964732
  H 5.942414 -1.586390 -2.014535
  H 0.901883 -0.240364 1.358763
  H 1.222222 -1.282215 -0.025967
  H 0.117715 0.081848 -0.180804
  H 1.939485 1.266006 -1.001589
  H 4.932346 -0.932312 0.096152
