 13
 0.000000
  C 0.958810 -0.016524 -0.005385
  C 2.455461 0.001322 0.013638
  C 3.168075 0.811647 0.796797
  C 4.610352 0.832811 0.816383
  C 5.320492 1.640463 1.596995
  H 6.395087 1.650361 1.605819
  H 0.597499 -0.754819 -0.718522
  H 0.563034 0.955199 -0.299739
  H 0.561165 -0.273331 0.975379
  H 2.957151 -0.686579 -0.652953
  H 2.656514 1.497099 1.460104
  H 5.115951 0.144891 0.150766
  H 4.821403 2.327889 2.262120
 13
 5.560372
  C 0.958916 -0.062827 0.000779
  C 2.418853 -0.013025 0.023769
  C 3.135346 0.796373 0.812528
  C 4.591319 0.851716 0.807962
  C 5.301803 1.648248 1.586817
  H 6.376630 1.662593 1.561138
  H 0.547036 -0.759121 -0.735102
  H 0.841926 0.949637 -0.302010
  H 0.499438 -0.232790 0.984921
  H 2.961619 -0.680329 -0.635407
  H 2.625045 1.468064 1.498681
  H 5.092900 0.183587 0.113467
  H 4.830725 2.317986 2.283456
 13
 17.882476
  C 0.948269 -0.089272 0.011000
  C 2.398563 -0.024457 0.027634
  C 3.126422 0.785550 0.832677
  C 4.561304 0.863354 0.793523
  C 5.286780 1.653026 1.583396
  H 6.360718 1.686237 1.526526
  H 0.514773 -0.762891 -0.712065
  H 1.071309 0.918425 -0.330983
  H 0.464786 -0.163262 0.972272
  H 2.962242 -0.684693 -0.629101
  H 2.625061 1.431434 1.540161
  H 5.052082 0.228321 0.068795
  H 4.825843 2.295410 2.314749
 13
 31.215527
  C 0.930031 -0.112866 0.017230
  C 2.384487 -0.008081 0.028156
  C 3.120586 0.789943 0.852312
  C 4.551249 0.880264 0.788652
  C 5.288102 1.649805 1.587302
  H 6.361903 1.697537 1.504704
  H 0.498649 -0.817409 -0.671971
  H 1.231264 0.844019 -0.397908
  H 0.418626 -0.071237 0.965892
  H 2.949441 -0.645215 -0.645225
  H 2.621396 1.409099 1.589105
  H 5.036924 0.268917 0.025787
  H 4.836833 2.265130 2.349342
 13
 41.686933
  C 0.914179 -0.134981 0.023959
  C 2.373411 0.010294 0.031835
  C 3.118451 0.791990 0.875013
  C 4.546742 0.904333 0.781309
  C 5.297686 1.650217 1.589123
  H 6.367911 1.700044 1.489225
  H 0.490237 -0.889026 -0.619393
  H 1.355581 0.756879 -0.477778
  H 0.371798 0.041495 0.944073
  H 2.930885 -0.602547 -0.672623
  H 2.624163 1.376212 1.640062
  H 5.019088 0.325782 -0.006224
  H 4.861014 2.230892 2.384789
 13
 49.833308
  C 0.905892 -0.154637 0.034609
  C 2.364972 0.029194 0.029935
  C 3.115839 0.795276 0.885219
  C 4.540374 0.911083 0.781544
  C 5.301456 1.646825 1.591586
  H 6.377671 1.706566 1.474601
  H 0.488336 -0.919481 -0.589408
  H 1.453349 0.709340 -0.508012
  H 0.351208 0.090644 0.920638
  H 2.913772 -0.566860 -0.688438
  H 2.626971 1.360551 1.662109
  H 5.006917 0.347946 -0.021532
  H 4.873679 2.213323 2.394513
 13
 55.971576
  C 0.902661 -0.175223 0.048172
  C 2.359666 0.039598 0.016239
  C 3.120289 0.796354 0.892651
  C 4.540147 0.924059 0.775356
  C 5.308751 1.648133 1.591040
  H 6.375863 1.702757 1.468617
  H 0.476855 -0.947520 -0.565650
  H 1.528486 0.673881 -0.537917
  H 0.337743 0.145330 0.908101
  H 2.907291 -0.554324 -0.708561
  H 2.630234 1.343984 1.683470
  H 5.001337 0.375772 -0.036986
  H 4.888990 2.204580 2.410983
 13
 61.041205
  C 0.905673 -0.195963 0.071261
  C 2.360140 0.049955 -0.002021
  C 3.122887 0.799131 0.886134
  C 4.535253 0.930088 0.768054
  C 5.307410 1.649277 1.590013
  H 6.376962 1.697754 1.470625
  H 0.465833 -0.952866 -0.545564
  H 1.593812 0.671078 -0.549187
  H 0.344431 0.167139 0.909046
  H 2.911459 -0.550161 -0.724547
  H 2.629185 1.337962 1.678425
  H 4.998429 0.384582 -0.047832
  H 4.889216 2.196490 2.417168
 13
 64.863884
  C 0.911069 -0.220059 0.093566
  C 2.358045 0.057884 -0.025270
  C 3.127451 0.805552 0.878784
  C 4.536575 0.929072 0.767297
  C 5.310448 1.646070 1.592327
  H 6.377052 1.706577 1.463573
  H 0.455610 -0.956259 -0.535960
  H 1.646141 0.684478 -0.566018
  H 0.355229 0.178461 0.917832
  H 2.910485 -0.551570 -0.737186
  H 2.627909 1.342657 1.670588
  H 5.000797 0.385627 -0.048256
  H 4.892591 2.183889 2.426570
 13
 66.995759
  C 0.919346 -0.248921 0.119846
  C 2.355392 0.063372 -0.047314
  C 3.133717 0.804265 0.876609
  C 4.536646 0.928141 0.765555
  C 5.312180 1.644766 1.594283
  H 6.380348 1.698471 1.469783
  H 0.443378 -0.951048 -0.530297
  H 1.701456 0.720572 -0.587289
  H 0.366331 0.176667 0.929815
  H 2.908876 -0.556872 -0.750792
  H 2.630263 1.336400 1.669406
  H 5.002863 0.390393 -0.051799
  H 4.891579 2.199193 2.415601
 13
 67.603386
  C 0.929901 -0.277765 0.146879
  C 2.351363 0.065141 -0.062012
  C 3.137511 0.806725 0.872407
  C 4.535567 0.938861 0.756112
  C 5.313540 1.652725 1.588556
  H 6.380484 1.699520 1.467474
  H 0.435810 -0.950250 -0.523433
  H 1.767873 0.758438 -0.619698
  H 0.372491 0.184253 0.937495
  H 2.904647 -0.572614 -0.747262
  H 2.631145 1.337913 1.663362
  H 5.003308 0.404762 -0.062386
  H 4.896737 2.181874 2.427381
 13
 67.052115
  C 0.946869 -0.309561 0.174354
  C 2.344323 0.078755 -0.080863
  C 3.141314 0.811930 0.866870
  C 4.533500 0.937163 0.751603
  C 5.314745 1.645348 1.592227
  H 6.384657 1.676346 1.481192
  H 0.438625 -0.948374 -0.515944
  H 1.826603 0.812750 -0.644831
  H 0.390095 0.165717 0.955191
  H 2.898341 -0.567282 -0.761105
  H 2.632475 1.337336 1.660981
  H 5.002326 0.408396 -0.068358
  H 4.892657 2.211640 2.403377
 13
 65.925363
  C 0.955102 -0.329541 0.188950
  C 2.337869 0.084465 -0.091953
  C 3.147500 0.807503 0.872037
  C 4.535601 0.931382 0.754650
  C 5.319672 1.649245 1.588587
  H 6.385316 1.710592 1.453400
  H 0.433063 -0.938762 -0.518275
  H 1.901567 0.856355 -0.671297
  H 0.394424 0.161757 0.956777
  H 2.893707 -0.580332 -0.754428
  H 2.637767 1.338307 1.662650
  H 5.001698 0.418278 -0.076690
  H 4.900034 2.199249 2.412825
 13
 65.394241
  C 0.967244 -0.352636 0.206965
  C 2.332000 0.095667 -0.110332
  C 3.153405 0.833508 0.859612
  C 4.538395 0.965519 0.732676
  C 5.326239 1.669799 1.575988
  H 6.394501 1.690160 1.467917
  H 0.434516 -0.948942 -0.507779
  H 1.953095 0.879869 -0.706379
  H 0.400961 0.150065 0.967787
  H 2.891684 -0.583631 -0.753757
  H 2.645592 1.361294 1.653941
  H 5.003917 0.446834 -0.092748
  H 4.914124 2.176740 2.430146
