 20
 0.000000
  C 1.005374 0.130578 0.400584
  C 2.472424 0.117261 0.385588
  H 3.039765 0.482372 1.227330
  C 3.091711 -0.364785 -0.742390
  C 4.464704 -0.446676 -0.977079
  C 5.138159 -0.880486 -2.119296
  C 4.625915 -1.382099 -3.421124
  C 3.134043 -1.496472 -3.694017
  H 2.985178 -1.880592 -4.696978
  O 6.454282 -0.869852 -2.117365
  H 0.589040 0.537503 1.317024
  H 0.623606 -0.883031 0.264138
  H 0.628678 0.711837 -0.448166
  H 2.425592 -0.692334 -1.525345
  H 5.096116 -0.125656 -0.153404
  H 5.088717 -2.364862 -3.567677
  H 5.078017 -0.742976 -4.188395
  H 2.650036 -0.525040 -3.633362
  H 2.661077 -2.185875 -2.999316
  H 6.853112 -0.549109 -1.285906
 20
 -1.293924
  C 1.001039 0.194785 0.494792
  C 2.449227 0.073100 0.338645
  H 3.088181 0.407839 1.144781
  C 3.011729 -0.411524 -0.819196
  C 4.391942 -0.465820 -1.006732
  C 5.121209 -0.872480 -2.126265
  C 4.656488 -1.379860 -3.444171
  C 3.177601 -1.581921 -3.728343
  H 3.075199 -1.988598 -4.731248
  O 6.433837 -0.820755 -2.081143
  H 0.708561 0.445241 1.507730
  H 0.489466 -0.707428 0.160957
  H 0.649610 0.984924 -0.177048
  H 2.344493 -0.734592 -1.600290
  H 4.986765 -0.136692 -0.160349
  H 5.188515 -2.324954 -3.604670
  H 5.078668 -0.699979 -4.193907
  H 2.633659 -0.642565 -3.701377
  H 2.733216 -2.294429 -3.039416
  H 6.809574 -0.491550 -1.244224
 20
 -1.104720
  C 1.001987 0.204882 0.512965
  C 2.440413 0.044846 0.336851
  H 3.085768 0.316034 1.163922
  C 2.997236 -0.400563 -0.842088
  C 4.381919 -0.433619 -1.029995
  C 5.119068 -0.849091 -2.140755
  C 4.663722 -1.389874 -3.447746
  C 3.191132 -1.655858 -3.710993
  H 3.095789 -2.097643 -4.699472
  O 6.429268 -0.775437 -2.096575
  H 0.688436 0.174525 1.546393
  H 0.416453 -0.443477 -0.125652
  H 0.827481 1.229592 0.158401
  H 2.329974 -0.713769 -1.629887
  H 4.970880 -0.083991 -0.187619
  H 5.232696 -2.314229 -3.601996
  H 5.048404 -0.701190 -4.209857
  H 2.612515 -0.738001 -3.709802
  H 2.779734 -2.361576 -2.995041
  H 6.799791 -0.419481 -1.265613
 20
 8.201820
  C 0.986055 0.143967 0.555722
  C 2.411799 0.046554 0.318273
  H 3.075845 0.301841 1.136544
  C 2.966351 -0.444774 -0.841521
  C 4.350618 -0.456439 -1.026322
  C 5.091690 -0.832731 -2.136511
  C 4.653859 -1.371697 -3.455091
  C 3.189085 -1.682357 -3.715108
  H 3.105221 -2.131760 -4.701325
  O 6.412340 -0.727957 -2.093726
  H 0.626587 0.254211 1.569292
  H 0.332148 -0.339923 -0.159017
  H 1.162758 1.198602 0.174217
  H 2.312322 -0.789137 -1.619532
  H 4.933684 -0.111366 -0.179587
  H 5.249115 -2.275694 -3.618446
  H 5.011161 -0.659803 -4.207296
  H 2.584214 -0.780310 -3.716990
  H 2.800838 -2.396334 -2.994879
  H 6.765743 -0.358800 -1.263002
 20
 23.463461
  C 0.982141 0.071282 0.609066
  C 2.382223 0.081590 0.313757
  H 3.065228 0.303412 1.127343
  C 2.949915 -0.418273 -0.858181
  C 4.330924 -0.416412 -1.043318
  C 5.077626 -0.820165 -2.137374
  C 4.655707 -1.383221 -3.453794
  C 3.191329 -1.688594 -3.724862
  H 3.113848 -2.143531 -4.709630
  O 6.403043 -0.719961 -2.089186
  H 0.609361 0.272169 1.597654
  H 0.297101 -0.333285 -0.119839
  H 1.472552 1.118459 0.144471
  H 2.293653 -0.769352 -1.633953
  H 4.912528 -0.048652 -0.203817
  H 5.246156 -2.295483 -3.590695
  H 5.026186 -0.687743 -4.215149
  H 2.591720 -0.783408 -3.736906
  H 2.794382 -2.396739 -3.003374
  H 6.743259 -0.346498 -1.256844
 20
 32.270863
  C 0.968051 0.007594 0.637934
  C 2.359646 0.130322 0.322871
  H 3.041796 0.331819 1.144113
  C 2.946411 -0.395300 -0.868299
  C 4.319308 -0.404238 -1.047284
  C 5.066506 -0.820278 -2.138034
  C 4.643811 -1.388076 -3.452805
  C 3.177522 -1.682761 -3.725771
  H 3.098597 -2.142563 -4.708208
  O 6.394549 -0.731575 -2.086042
  H 0.589354 0.239347 1.615963
  H 0.279602 -0.370240 -0.099521
  H 1.761067 1.125767 0.050210
  H 2.284227 -0.750510 -1.636538
  H 4.903529 -0.035387 -0.209970
  H 5.226896 -2.306076 -3.582963
  H 5.021803 -0.699953 -4.217215
  H 2.585626 -0.772647 -3.744327
  H 2.773225 -2.383746 -3.001370
  H 6.733710 -0.355209 -1.254858
 20
 31.677436
  C 0.963109 -0.054351 0.651513
  C 2.344152 0.185633 0.325817
  H 3.014003 0.347776 1.167144
  C 2.952421 -0.365631 -0.876260
  C 4.314158 -0.387718 -1.048372
  C 5.060422 -0.825796 -2.140267
  C 4.626076 -1.395398 -3.447428
  C 3.155292 -1.668677 -3.718434
  H 3.069278 -2.133253 -4.697911
  O 6.380294 -0.762466 -2.082633
  H 0.577616 0.155132 1.630624
  H 0.282723 -0.417429 -0.098163
  H 2.043975 1.191314 -0.069914
  H 2.281984 -0.728054 -1.634716
  H 4.902892 -0.016299 -0.215337
  H 5.195319 -2.322508 -3.573810
  H 5.014528 -0.717755 -4.215954
  H 2.576954 -0.749968 -3.743013
  H 2.739946 -2.359426 -2.990437
  H 6.728582 -0.382859 -1.255278
 20
 33.173835
  C 0.966341 -0.051860 0.662840
  C 2.333206 0.189604 0.349575
  H 3.000034 0.381946 1.185270
  C 2.948531 -0.353597 -0.870733
  C 4.312715 -0.373381 -1.046201
  C 5.051338 -0.828688 -2.133834
  C 4.607167 -1.390452 -3.441180
  C 3.133772 -1.652082 -3.710132
  H 3.043215 -2.110365 -4.692171
  O 6.370831 -0.791635 -2.074877
  H 0.593992 0.088487 1.659128
  H 0.276669 -0.381036 -0.093168
  H 2.289604 1.129174 -0.289294
  H 2.280340 -0.753976 -1.612209
  H 4.904032 0.006618 -0.219132
  H 5.170145 -2.320059 -3.575330
  H 4.997497 -0.710605 -4.206855
  H 2.560564 -0.730044 -3.729284
  H 2.715533 -2.346158 -2.986826
  H 6.728000 -0.416825 -1.249060
 20
 36.083766
  C 0.969273 -0.041145 0.686788
  C 2.311808 0.142193 0.386368
  H 2.983881 0.363827 1.208321
  C 2.923265 -0.317210 -0.874905
  C 4.306873 -0.349720 -1.048295
  C 5.039855 -0.814825 -2.123243
  C 4.597729 -1.382944 -3.431016
  C 3.124340 -1.646924 -3.698626
  H 3.034951 -2.115447 -4.675757
  O 6.365754 -0.784933 -2.065932
  H 0.601720 0.099786 1.685119
  H 0.258686 -0.335182 -0.065142
  H 2.441101 0.966295 -0.479533
  H 2.259053 -0.724725 -1.616816
  H 4.894168 0.027746 -0.217847
  H 5.160387 -2.313488 -3.558327
  H 4.988068 -0.707175 -4.200053
  H 2.551213 -0.725122 -3.729692
  H 2.705598 -2.333838 -2.968729
  H 6.721923 -0.408973 -1.240767
 20
 31.601666
  C 0.995469 -0.059105 0.707220
  C 2.307807 0.082896 0.428070
  H 2.995860 0.309742 1.232248
  C 2.901976 -0.252603 -0.892482
  C 4.309972 -0.317811 -1.061214
  C 5.040026 -0.807388 -2.122513
  C 4.594813 -1.391291 -3.422043
  C 3.118468 -1.633103 -3.693636
  H 3.025909 -2.114587 -4.664320
  O 6.366943 -0.790431 -2.061489
  H 0.621745 0.079948 1.705037
  H 0.273734 -0.315555 -0.049311
  H 2.558884 0.889096 -0.709687
  H 2.236799 -0.695831 -1.616012
  H 4.893977 0.065249 -0.231031
  H 5.142122 -2.333141 -3.531252
  H 5.001456 -0.736136 -4.200562
  H 2.561824 -0.702062 -3.740537
  H 2.683660 -2.302623 -2.957069
  H 6.726032 -0.400682 -1.244642
 20
 21.898840
  C 1.030654 -0.119532 0.725465
  C 2.326096 0.037788 0.457492
  H 3.030718 0.253414 1.247331
  C 2.879498 -0.143441 -0.922773
  C 4.305656 -0.258489 -1.079493
  C 5.036791 -0.799740 -2.118487
  C 4.586165 -1.411992 -3.399930
  C 3.107143 -1.624890 -3.677486
  H 3.010118 -2.132321 -4.634336
  O 6.358569 -0.808529 -2.042419
  H 0.650117 -0.034051 1.727896
  H 0.308441 -0.345452 -0.040975
  H 2.635314 0.959254 -0.963542
  H 2.219738 -0.640893 -1.618910
  H 4.886606 0.136045 -0.252572
  H 5.112531 -2.369047 -3.478634
  H 5.015431 -0.791560 -4.195272
  H 2.573414 -0.682692 -3.755189
  H 2.649319 -2.261764 -2.925924
  H 6.723474 -0.400202 -1.236205
 20
 16.166188
  C 1.062073 -0.128506 0.744148
  C 2.355800 0.008014 0.468335
  H 3.070344 0.222567 1.248901
  C 2.863551 -0.093303 -0.932314
  C 4.303028 -0.225732 -1.081035
  C 5.036333 -0.791803 -2.108160
  C 4.582174 -1.420092 -3.378398
  C 3.103231 -1.600935 -3.673672
  H 3.006629 -2.105638 -4.631925
  O 6.354859 -0.809973 -2.024254
  H 0.683316 -0.072366 1.749440
  H 0.333741 -0.324492 -0.025385
  H 2.596495 0.934560 -1.255509
  H 2.260145 -0.747902 -1.554636
  H 4.881543 0.183140 -0.259138
  H 5.089566 -2.389024 -3.439350
  H 5.035758 -0.825268 -4.180880
  H 2.588148 -0.648823 -3.752942
  H 2.621745 -2.230867 -2.930318
  H 6.723694 -0.391185 -1.224679
 20
 15.243826
  C 1.057309 -0.029073 0.769405
  C 2.357346 -0.002712 0.482383
  H 3.080664 0.238551 1.247509
  C 2.853393 -0.236866 -0.900711
  C 4.299371 -0.277047 -1.060377
  C 5.044329 -0.782566 -2.109600
  C 4.593915 -1.416549 -3.378257
  C 3.115635 -1.537433 -3.702518
  H 3.018500 -1.987146 -4.687629
  O 6.363285 -0.728926 -2.053436
  H 0.691855 0.147137 1.765559
  H 0.311461 -0.250543 0.024020
  H 2.464703 0.653635 -1.429966
  H 2.329360 -1.058983 -1.391672
  H 4.865098 0.156048 -0.242596
  H 5.058382 -2.408829 -3.410955
  H 5.092998 -0.859862 -4.180449
  H 2.628957 -0.567761 -3.732016
  H 2.600327 -2.190794 -3.003440
  H 6.725285 -0.317908 -1.247025
 20
 14.291143
  C 1.071765 -0.073455 0.809188
  C 2.346028 0.082240 0.452011
  H 3.047735 0.532020 1.137425
  C 2.850684 -0.334491 -0.882478
  C 4.297923 -0.283986 -1.056027
  C 5.046450 -0.787593 -2.101814
  C 4.582697 -1.457136 -3.346356
  C 3.121432 -1.380739 -3.755598
  H 3.026485 -1.781782 -4.760380
  O 6.366252 -0.707902 -2.062604
  H 0.713918 0.222714 1.778554
  H 0.343566 -0.512911 0.148071
  H 2.378483 0.337852 -1.620279
  H 2.438135 -1.308865 -1.164831
  H 4.852661 0.199745 -0.256494
  H 4.883128 -2.508304 -3.266541
  H 5.208645 -1.059976 -4.150769
  H 2.764481 -0.355604 -3.771979
  H 2.481476 -1.975502 -3.112320
  H 6.730229 -0.303951 -1.258549
 20
 14.031534
  C 1.074873 -0.086274 0.828590
  C 2.337897 0.095786 0.443634
  H 3.024832 0.623184 1.087943
  C 2.854758 -0.397550 -0.857066
  C 4.298235 -0.302631 -1.042469
  C 5.043772 -0.778884 -2.105195
  C 4.570497 -1.485032 -3.327996
  C 3.136557 -1.299735 -3.799337
  H 3.050730 -1.709179 -4.802046
  O 6.355877 -0.651658 -2.097714
  H 0.715502 0.271934 1.777447
  H 0.358144 -0.603183 0.212759
  H 2.347868 0.163963 -1.659226
  H 2.495738 -1.420066 -1.041874
  H 4.847633 0.190515 -0.250336
  H 4.756358 -2.553605 -3.162050
  H 5.261931 -1.204108 -4.126425
  H 2.870532 -0.246858 -3.849040
  H 2.422357 -1.825610 -3.174897
  H 6.728083 -0.238639 -1.296471
