 13
 0.000000
  H 3.328974 -0.468949 -1.113588
  C 4.402516 -0.457514 -1.086708
  C 5.195038 -0.881066 -2.144489
  C 4.659813 -1.392498 -3.419029
  C 3.156755 -1.453539 -3.573706
  H 2.908455 -1.847312 -4.554381
  O 6.496139 -0.843095 -2.052454
  H 4.884306 -0.098073 -0.191345
  H 5.100529 -2.385676 -3.591727
  H 5.101458 -0.795196 -4.230512
  H 2.702927 -0.469104 -3.481426
  H 2.701483 -2.099717 -2.826311
  H 6.832516 -0.501477 -1.200539
 13
 1.758230
  H 3.318117 -0.599321 -1.077287
  C 4.381772 -0.455522 -1.060472
  C 5.179009 -0.819950 -2.129527
  C 4.644752 -1.341621 -3.400589
  C 3.147186 -1.414179 -3.579400
  H 2.919658 -1.846235 -4.548232
  O 6.476223 -0.637990 -2.114099
  H 4.818409 0.033024 -0.203982
  H 5.085959 -2.344775 -3.521890
  H 5.109669 -0.795274 -4.233455
  H 2.689134 -0.427205 -3.549699
  H 2.675982 -2.023632 -2.811939
  H 6.909890 -0.684045 -1.240380
 13
 7.723841
  H 3.272517 -0.525963 -1.046247
  C 4.340292 -0.435054 -1.048011
  C 5.143788 -0.804991 -2.103200
  C 4.654835 -1.340590 -3.388541
  C 3.166078 -1.475347 -3.583264
  H 2.962553 -1.885733 -4.566859
  O 6.440194 -0.552200 -2.046193
  H 4.851275 0.049204 -0.231223
  H 5.144430 -2.322578 -3.504819
  H 5.104571 -0.773046 -4.217278
  H 2.660672 -0.514879 -3.527732
  H 2.723406 -2.123070 -2.834061
  H 6.983735 -0.988863 -1.368274
 13
 12.744186
  H 3.237305 -0.420620 -1.056907
  C 4.301649 -0.323110 -1.067118
  C 5.121334 -0.757214 -2.087500
  C 4.667128 -1.303804 -3.372793
  C 3.192229 -1.525107 -3.569293
  H 3.006278 -1.923514 -4.564085
  O 6.434658 -0.571333 -1.926996
  H 4.828892 0.138875 -0.246193
  H 5.225461 -2.236785 -3.560339
  H 5.063400 -0.657832 -4.182642
  H 2.618988 -0.604739 -3.471110
  H 2.794770 -2.219864 -2.830639
  H 6.956254 -1.288062 -1.530086
 13
 17.614722
  H 3.181152 -0.398980 -0.888072
  C 4.256559 -0.353904 -1.036719
  C 5.056293 -0.781706 -2.067190
  C 4.684725 -1.371111 -3.350732
  C 3.197479 -1.515427 -3.607227
  H 3.015433 -1.895425 -4.594786
  O 6.325311 -0.477944 -1.794299
  H 4.969311 0.107392 -0.349455
  H 5.215553 -2.328728 -3.481220
  H 5.108590 -0.730046 -4.145705
  H 2.704092 -0.545564 -3.517822
  H 2.731527 -2.224637 -2.916741
  H 7.002321 -1.177029 -1.715734
 13
 35.118809
  H 3.215811 -0.165642 -0.726198
  C 4.238927 -0.281611 -1.026412
  C 4.995863 -0.775911 -2.070189
  C 4.671277 -1.327122 -3.394453
  C 3.211304 -1.587084 -3.640585
  H 3.069186 -1.912300 -4.668880
  O 6.277323 -0.513739 -1.738916
  H 5.179581 0.033950 -0.495679
  H 5.239098 -2.251688 -3.551956
  H 5.093471 -0.614841 -4.122607
  H 2.611912 -0.666739 -3.499021
  H 2.821187 -2.310502 -2.934619
  H 6.824798 -1.322935 -1.603332
 13
 60.014200
  H 3.236370 -0.234535 -0.556642
  C 4.177049 -0.367228 -1.033937
  C 4.886128 -0.778420 -2.049863
  C 4.656947 -1.334568 -3.398238
  C 3.180499 -1.561516 -3.697732
  H 3.067056 -1.955232 -4.703592
  O 6.232555 -0.443301 -1.647301
  H 5.540110 0.005762 -0.664497
  H 5.198392 -2.281337 -3.481768
  H 5.088980 -0.639875 -4.123979
  H 2.623375 -0.631196 -3.635094
  H 2.748031 -2.275505 -3.002538
  H 6.835520 -1.206332 -1.494530
 13
 50.512106
  H 3.082312 -0.088310 -0.651982
  C 4.032113 -0.277461 -1.097994
  C 4.803407 -0.726951 -2.014881
  C 4.666532 -1.409114 -3.328290
  C 3.204957 -1.650539 -3.702214
  H 3.147985 -2.090396 -4.698741
  O 6.219048 -0.351836 -1.630214
  H 5.834406 0.126128 -0.857706
  H 5.223501 -2.335676 -3.324382
  H 5.124101 -0.748159 -4.068947
  H 2.645394 -0.712405 -3.712183
  H 2.727903 -2.327950 -3.007418
  H 6.799565 -1.122945 -1.424613
 13
 44.271154
  H 3.056104 -0.343032 -0.557816
  C 3.998169 -0.442788 -1.023389
  C 4.801574 -0.767953 -1.971872
  C 4.646780 -1.342044 -3.339975
  C 3.187939 -1.549968 -3.725012
  H 3.129042 -1.993912 -4.717843
  O 6.221910 -0.391108 -1.662412
  H 6.006375 0.079534 -0.812020
  H 5.152029 -2.314371 -3.356915
  H 5.141915 -0.684441 -4.055001
  H 2.659010 -0.599573 -3.750884
  H 2.689470 -2.209729 -3.025070
  H 6.820907 -1.156228 -1.521356
 13
 40.503845
  H 2.968966 -0.277824 -0.690627
  C 3.946804 -0.378856 -1.072950
  C 4.805546 -0.740093 -1.951557
  C 4.671577 -1.333624 -3.325786
  C 3.228052 -1.584874 -3.724278
  H 3.191063 -1.999821 -4.726647
  O 6.223998 -0.416759 -1.664584
  H 6.177038 0.035522 -0.786504
  H 5.220906 -2.277094 -3.351463
  H 5.140524 -0.644619 -4.021798
  H 2.653812 -0.664376 -3.714827
  H 2.758331 -2.289716 -3.049494
  H 6.788079 -1.228562 -1.600662
 13
 39.154682
  H 2.900689 -0.323138 -0.766562
  C 3.909157 -0.399581 -1.068063
  C 4.801394 -0.726845 -1.928717
  C 4.678296 -1.315366 -3.310632
  C 3.235386 -1.565666 -3.723719
  H 3.207151 -1.962323 -4.734768
  O 6.209690 -0.439691 -1.628142
  H 6.251957 -0.028175 -0.731676
  H 5.227335 -2.258689 -3.339018
  H 5.145023 -0.613281 -4.005027
  H 2.658676 -0.645127 -3.704569
  H 2.760047 -2.285442 -3.062789
  H 6.789894 -1.237370 -1.677495
 13
 39.053579
  H 2.843029 -0.310811 -0.811709
  C 3.861810 -0.377365 -1.076336
  C 4.784500 -0.708089 -1.903044
  C 4.686054 -1.317407 -3.281155
  C 3.250007 -1.559317 -3.720934
  H 3.239596 -1.986433 -4.719727
  O 6.183027 -0.422905 -1.584222
  H 6.307506 -0.206550 -0.630285
  H 5.220916 -2.270279 -3.281671
  H 5.168339 -0.631614 -3.979903
  H 2.686428 -0.629227 -3.743490
  H 2.748166 -2.251387 -3.050093
  H 6.795317 -1.129312 -1.898606
