13

H 3.5876228549642475 -0.5977960650701434 -0.9853251103777181
C 4.657489 -0.605526 -1.000381
C 5.378044 -1.120859 -2.011907
C 6.816764 -1.130175 -2.03008
C 7.533992 -1.641991 -3.035529
C 9.023928 -1.662061 -3.075295
H 5.161817 -0.170462 -0.14631
H 4.874217 -1.556013 -2.866147
H 7.324575 -0.695399 -1.177671
H 7.034088 -2.07811 -3.891675
H 9.459645 -1.209352 -2.185984
H 9.38297 -1.116192 -3.949383
H 9.382236 -2.69026 -3.147767
