 9
 0.000000
  H 1.326432 0.059787 0.076105
  C 2.401991 0.063056 0.018182
  H 2.930395 0.010227 0.954484
  C 3.037427 0.128096 -1.134455
  C 2.389165 0.203707 -2.474477
  H 1.303645 0.200632 -2.419992
  H 4.120458 0.129704 -1.162913
  H 2.712209 -0.639751 -3.086695
  H 2.712218 1.110699 -2.987933
 9
 0.084995
  H 1.329738 -0.068759 0.043308
  C 2.402850 0.021487 0.007264
  H 2.913802 -0.002221 0.955205
  C 3.047126 0.176568 -1.133967
  C 2.394388 0.216710 -2.474520
  H 1.319843 0.349015 -2.379534
  H 4.127219 0.265627 -1.141916
  H 2.582978 -0.717983 -3.006861
  H 2.803630 1.025172 -3.077073
 9
 0.471591
  H 1.352507 -0.200867 0.033542
  C 2.411434 -0.006650 0.005416
  H 2.923644 -0.021263 0.952818
  C 3.043925 0.220397 -1.130802
  C 2.389205 0.225304 -2.473213
  H 1.337690 0.490437 -2.392882
  H 4.111677 0.401545 -1.128269
  H 2.455113 -0.768254 -2.920915
  H 2.882672 0.924453 -3.142438
 9
 0.916338
  H 1.381849 -0.324967 0.019484
  C 2.422699 -0.044267 0.001750
  H 2.926577 -0.023854 0.952745
  C 3.038335 0.259930 -1.125362
  C 2.386199 0.227693 -2.472214
  H 1.373438 0.622413 -2.421607
  H 4.083235 0.540732 -1.110273
  H 2.325057 -0.799319 -2.833483
  H 2.954986 0.806033 -3.195724
 9
 1.195187
  H 1.427162 -0.449031 0.009561
  C 2.438912 -0.076674 -0.001255
  H 2.935191 -0.019126 0.952363
  C 3.029149 0.293167 -1.122184
  C 2.379739 0.228760 -2.470657
  H 1.423564 0.750386 -2.461208
  H 4.043184 0.668705 -1.097063
  H 2.186483 -0.807459 -2.748338
  H 3.011502 0.674890 -3.232976
 9
 1.211878
  H 1.486554 -0.585925 0.000121
  C 2.452816 -0.109647 -0.003783
  H 2.942283 -0.020128 0.952184
  C 3.004592 0.340513 -1.115361
  C 2.374429 0.229792 -2.469843
  H 1.500380 0.877082 -2.537953
  H 3.980044 0.807171 -1.078647
  H 2.041520 -0.791440 -2.652994
  H 3.072783 0.515354 -3.251650
 9
 2.004969
  H 1.500039 -0.607905 0.027617
  C 2.477554 -0.152790 -0.006968
  H 2.984336 -0.059228 0.939069
  C 2.952499 0.407462 -1.105474
  C 2.368402 0.225537 -2.473113
  H 1.546267 0.922864 -2.637694
  H 3.913250 0.905371 -1.063007
  H 1.970765 -0.781057 -2.585643
  H 3.120622 0.401609 -3.238057
 9
 4.605373
  H 1.546390 -0.684937 0.084878
  C 2.502199 -0.194430 -0.012701
  H 3.051297 -0.084426 0.910414
  C 2.856756 0.487037 -1.089788
  C 2.359908 0.229605 -2.478756
  H 1.623494 0.975921 -2.784740
  H 3.810375 1.005316 -1.043799
  H 1.873450 -0.742112 -2.531042
  H 3.186051 0.268943 -3.182221
 9
 12.970507
  H 1.520008 -0.572783 0.294352
  C 2.496804 -0.225120 -0.006123
  H 3.162518 -0.111675 0.837763
  C 2.752675 0.508679 -1.088499
  C 2.361574 0.228171 -2.511296
  H 1.590234 0.907392 -2.884023
  H 3.741337 0.966863 -1.038437
  H 1.925274 -0.765641 -2.568198
  H 3.233414 0.324101 -3.147017
 9
 23.887262
  H 1.538533 -0.543539 0.471623
  C 2.472951 -0.199475 0.036454
  H 3.246613 -0.168749 0.794935
  C 2.616104 0.528617 -1.071365
  C 2.344366 0.236318 -2.524226
  H 1.573231 0.915275 -2.902883
  H 3.665426 0.870188 -1.066391
  H 2.075288 -0.805990 -2.703596
  H 3.223020 0.426598 -3.129039
 9
 6.735020
  H 1.514536 -0.631631 0.169608
  C 2.491049 -0.210303 -0.005258
  H 3.100572 -0.137203 0.883995
  C 2.820879 0.484188 -1.085417
  C 2.353368 0.232587 -2.486511
  H 1.572750 0.935861 -2.784066
  H 3.766238 1.019273 -1.028222
  H 1.924468 -0.764857 -2.562153
  H 3.183160 0.331440 -3.178762
 9
 1.418407
  H 1.483361 -0.624203 0.003191
  C 2.449022 -0.145866 0.000020
  H 2.940116 -0.061689 0.954807
  C 2.964032 0.378391 -1.097508
  C 2.362809 0.238358 -2.463750
  H 1.498846 0.893110 -2.570369
  H 3.926353 0.873345 -1.048554
  H 2.020480 -0.785384 -2.618425
  H 3.082001 0.493295 -3.236197
 9
 1.121073
  H 1.400685 -0.434816 0.011674
  C 2.421623 -0.088043 0.007700
  H 2.911806 -0.040089 0.964811
  C 3.025588 0.273222 -1.108802
  C 2.382315 0.230039 -2.460705
  H 1.397717 0.693656 -2.434081
  H 4.050240 0.619290 -1.079061
  H 2.252370 -0.803669 -2.781703
  H 2.990432 0.742309 -3.201418
 9
 0.372170
  H 1.322979 -0.168321 0.047965
  C 2.388269 -0.005780 0.018783
  H 2.898470 -0.025489 0.966788
  C 3.024628 0.211520 -1.116579
  C 2.371405 0.221853 -2.460178
  H 1.310062 0.444300 -2.375770
  H 4.093735 0.381015 -1.114624
  H 2.477520 -0.756003 -2.931239
  H 2.839954 0.956261 -3.111932
 9
 -0.064526
  H 1.302522 0.047427 0.075533
  C 2.379375 0.060595 0.023777
  H 2.890879 0.010904 0.970389
  C 3.026335 0.131601 -1.123397
  C 2.372330 0.206565 -2.462235
  H 1.289530 0.193942 -2.366915
  H 4.109108 0.128626 -1.136394
  H 2.685066 -0.637468 -3.077059
  H 2.671874 1.117164 -2.980484
