 20
 0.000000
  H 1.493632 0.143481 0.408128
  C 2.573582 0.136763 0.391263
  C 3.276121 0.617349 1.586979
  C 2.352982 1.068808 2.710708
  H 2.930711 1.410841 3.562138
  C 3.175598 -0.324293 -0.756750
  C 4.554672 -0.405167 -0.957721
  C 5.191562 -0.867964 -2.111890
  C 4.541839 -1.360116 -3.339365
  H 3.462524 -1.349988 -3.314882
  O 6.499408 -0.891540 -2.171381
  H 3.939410 1.445859 1.308073
  H 3.939534 -0.173666 1.958883
  H 1.713503 0.252382 3.037541
  H 1.713515 1.884417 2.381887
  H 2.523951 -0.644897 -1.555494
  H 5.193479 -0.080091 -0.146804
  H 4.896346 -2.373017 -3.536180
  H 4.896812 -0.764011 -4.181446
  H 6.956703 -0.570769 -1.372138
 20
 12.467728
  H 1.613472 0.101517 0.296841
  C 2.691742 0.122090 0.348280
  C 3.276859 0.621148 1.592045
  C 2.254440 1.035795 2.634194
  H 2.749465 1.396178 3.530103
  C 3.406524 -0.323005 -0.759528
  C 4.768166 -0.351387 -0.829851
  C 5.130693 -0.833480 -2.025231
  C 4.370078 -1.312873 -3.219808
  H 3.288566 -1.290073 -3.168266
  O 6.450204 -0.948493 -2.304900
  H 3.935559 1.466271 1.366486
  H 3.939805 -0.141096 2.013657
  H 1.621620 0.196401 2.911132
  H 1.615542 1.830379 2.257293
  H 2.796129 -0.653362 -1.582165
  H 5.440526 -0.040594 -0.057460
  H 4.695077 -2.332697 -3.430022
  H 4.697929 -0.723899 -4.077376
  H 7.038774 -0.659186 -1.581052
 20
 43.034333
  H 1.684811 0.067225 0.208485
  C 2.759712 0.110140 0.315480
  C 3.269437 0.620153 1.585956
  C 2.195329 1.013076 2.582758
  H 2.644009 1.383784 3.501750
  C 3.552849 -0.320034 -0.754822
  C 4.916848 -0.310549 -0.734176
  C 5.042644 -0.804445 -1.953531
  C 4.268074 -1.273768 -3.122380
  H 3.176205 -1.260865 -3.102169
  O 6.380182 -0.991017 -2.404263
  H 3.925712 1.478297 1.393048
  H 3.936740 -0.126927 2.034595
  H 1.567157 0.160054 2.831531
  H 1.555432 1.795870 2.177290
  H 2.962886 -0.651107 -1.578459
  H 5.625504 -0.014317 -0.000269
  H 4.603381 -2.301789 -3.328131
  H 4.610107 -0.680038 -3.983527
  H 7.036879 -0.731065 -1.747032
 20
 81.852524
  H 1.706036 0.051977 0.175734
  C 2.783134 0.102053 0.298343
  C 3.270626 0.615172 1.574040
  C 2.178586 1.005146 2.563138
  H 2.613823 1.377567 3.485533
  C 3.601240 -0.326884 -0.770471
  C 4.972776 -0.288021 -0.683177
  C 4.940737 -0.778769 -1.890708
  C 4.218527 -1.263346 -3.097006
  H 3.139765 -1.269023 -3.128020
  O 6.363880 -1.005973 -2.439625
  H 3.929419 1.476905 1.389717
  H 3.939538 -0.128451 2.031674
  H 1.550458 0.151983 2.805084
  H 1.541570 1.782354 2.151220
  H 2.984041 -0.648184 -1.571127
  H 5.703076 0.005500 0.042220
  H 4.575715 -2.273240 -3.285662
  H 4.585581 -0.673707 -3.934180
  H 7.042191 -0.749915 -1.792950
 20
 117.565934
  H 1.706487 0.052371 0.171155
  C 2.782769 0.100074 0.293503
  C 3.266221 0.610135 1.566008
  C 2.170824 0.997283 2.550806
  H 2.603412 1.372021 3.475807
  C 3.599738 -0.326968 -0.777274
  C 5.001970 -0.265838 -0.650457
  C 4.835663 -0.757321 -1.844869
  C 4.199504 -1.256155 -3.077729
  H 3.114295 -1.266599 -3.134739
  O 6.416990 -1.031220 -2.489118
  H 3.927779 1.476657 1.382509
  H 3.939450 -0.130966 2.031202
  H 1.544040 0.140897 2.790915
  H 1.529608 1.772591 2.137499
  H 2.945187 -0.636850 -1.562621
  H 5.733646 0.023045 0.060007
  H 4.576652 -2.265765 -3.250876
  H 4.595400 -0.668250 -3.907917
  H 7.082962 -0.777199 -1.842643
 20
 133.826021
  H 1.604900 0.053901 0.272754
  C 2.686452 0.085917 0.328229
  C 3.262188 0.615188 1.585563
  C 2.215537 1.009757 2.605435
  H 2.683672 1.391798 3.498748
  C 3.397645 -0.341198 -0.759556
  C 4.865224 -0.190631 -0.718367
  C 4.617050 -0.788732 -1.839770
  C 4.243171 -1.257760 -3.147383
  H 3.179799 -1.248819 -3.376850
  O 6.691957 -1.146109 -2.485579
  H 3.906365 1.492118 1.365901
  H 3.953461 -0.130376 2.026893
  H 1.607699 0.162795 2.878594
  H 1.562285 1.772725 2.215612
  H 2.701433 -0.666608 -1.531626
  H 5.582920 0.174553 -0.019874
  H 4.635569 -2.273369 -3.279290
  H 4.777650 -0.653359 -3.886236
  H 7.330932 -0.901400 -1.814544
 20
 132.663753
  H 1.519002 0.085390 0.359815
  C 2.599807 0.107925 0.350172
  C 3.249006 0.619066 1.576224
  C 2.248146 0.998390 2.655039
  H 2.762777 1.371075 3.535604
  C 3.229032 -0.308610 -0.777038
  C 4.765538 -0.125371 -0.815682
  C 4.426035 -0.751692 -1.858019
  C 4.257182 -1.272439 -3.164830
  H 3.236691 -1.264833 -3.531025
  O 6.985790 -1.219933 -2.483432
  H 3.859504 1.496357 1.345409
  H 3.942788 -0.127218 1.973616
  H 1.650533 0.139173 2.949997
  H 1.571269 1.773411 2.303876
  H 2.513687 -0.614174 -1.537562
  H 5.466248 0.252658 -0.115880
  H 4.645938 -2.292825 -3.197234
  H 4.897456 -0.689456 -3.831405
  H 7.645535 -0.993619 -1.821516
 20
 133.691699
  H 1.471561 0.092872 0.398159
  C 2.550549 0.117824 0.367578
  C 3.216162 0.629349 1.577442
  C 2.239479 0.997659 2.669403
  H 2.767521 1.369061 3.539104
  C 3.159159 -0.300494 -0.773089
  C 4.721640 -0.092763 -0.807820
  C 4.341567 -0.736703 -1.828509
  C 4.215694 -1.259881 -3.151964
  H 3.209829 -1.262109 -3.551091
  O 7.303057 -1.295346 -2.564085
  H 3.817116 1.502664 1.332000
  H 3.915240 -0.116152 1.954769
  H 1.652188 0.137135 2.972536
  H 1.554092 1.770174 2.333343
  H 2.433488 -0.610631 -1.525964
  H 5.388681 0.313488 -0.097675
  H 4.607196 -2.279476 -3.169348
  H 4.885013 -0.682756 -3.794608
  H 8.010132 -1.093111 -1.948198
 20
 135.422614
  H 1.440992 0.098394 0.392858
  C 2.522520 0.115925 0.365716
  C 3.189750 0.629008 1.585830
  C 2.202031 1.008941 2.681254
  H 2.729237 1.377980 3.556764
  C 3.122512 -0.299728 -0.768642
  C 4.712080 -0.077745 -0.791615
  C 4.285468 -0.721407 -1.793463
  C 4.172560 -1.247787 -3.120336
  H 3.168051 -1.254039 -3.519765
  O 7.573252 -1.348404 -2.678727
  H 3.800516 1.504265 1.340723
  H 3.888574 -0.123234 1.969367
  H 1.607769 0.149848 2.984817
  H 1.519940 1.785006 2.341270
  H 2.388349 -0.618595 -1.515212
  H 5.371570 0.343841 -0.077196
  H 4.562559 -2.267210 -3.133502
  H 4.841268 -0.672638 -3.762086
  H 8.321519 -1.158603 -2.103023
 20
 111.111000
  H 1.445449 0.078570 0.366552
  C 2.527026 0.106368 0.353571
  C 3.173216 0.629242 1.580833
  C 2.167584 1.002792 2.662066
  H 2.679679 1.379320 3.543339
  C 3.145834 -0.306718 -0.771581
  C 4.755390 -0.062418 -0.774843
  C 4.268121 -0.703143 -1.734891
  C 4.112823 -1.224155 -3.059603
  H 3.097939 -1.216390 -3.431865
  O 7.687093 -1.374166 -2.736336
  H 3.778790 1.509608 1.341200
  H 3.874065 -0.115199 1.975729
  H 1.577588 0.138912 2.960318
  H 1.482665 1.771338 2.310869
  H 2.424895 -0.635476 -1.526701
  H 5.433161 0.367173 -0.082642
  H 4.489183 -2.248441 -3.085894
  H 4.771384 -0.655731 -3.717634
  H 8.448565 -1.186330 -2.177549
 20
 130.070120
  H 1.354428 0.150653 0.507693
  C 2.434122 0.172798 0.432491
  C 3.149379 0.666273 1.629854
  C 2.204635 1.018283 2.767541
  H 2.762228 1.378847 3.626589
  C 2.968183 -0.239309 -0.737114
  C 4.507062 -0.080358 -0.857716
  C 4.258091 -0.727713 -1.917798
  C 4.232028 -1.300680 -3.197311
  H 3.244398 -1.336207 -3.652760
  O 7.871355 -1.391743 -2.739989
  H 3.740118 1.551710 1.372214
  H 3.864473 -0.088579 1.970589
  H 1.626603 0.150979 3.077554
  H 1.504785 1.795530 2.466516
  H 2.235092 -0.526310 -1.481492
  H 5.109738 0.333964 -0.088452
  H 4.626234 -2.319185 -3.149832
  H 4.905215 -0.712439 -3.828839
  H 8.619160 -1.205622 -2.165427
