 23
 0.000000
  C 1.013709 0.123303 0.396071
  C 2.489981 0.122690 0.407299
  C 3.240681 0.614105 1.575849
  H 2.610362 0.956077 2.387251
  C 3.110176 -0.356420 -0.737155
  C 4.480125 -0.444855 -0.978655
  C 5.139985 -0.882915 -2.122270
  C 4.620174 -1.384988 -3.423596
  C 3.126284 -1.492572 -3.688898
  H 2.971428 -1.877615 -4.690879
  O 6.460848 -0.880413 -2.131511
  H 0.584288 0.515644 1.312877
  H 0.640554 -0.890410 0.244740
  H 0.644111 0.716133 -0.445046
  H 3.894486 1.434155 1.272399
  H 3.893601 -0.176779 1.950435
  H 2.441245 -0.677997 -1.518199
  H 5.123521 -0.128285 -0.164459
  H 5.077186 -2.370258 -3.569809
  H 5.071184 -0.748293 -4.193184
  H 2.646944 -0.518903 -3.627481
  H 2.653154 -2.178609 -2.990990
  H 6.864950 -0.560498 -1.303034
 23
 -0.408013
  C 1.009216 0.201163 0.417984
  C 2.479626 0.100465 0.395006
  C 3.259588 0.556877 1.561180
  H 2.616341 0.807074 2.398407
  C 3.069128 -0.383662 -0.765635
  C 4.443364 -0.439848 -0.989744
  C 5.127892 -0.865248 -2.122277
  C 4.628919 -1.382153 -3.425734
  C 3.142760 -1.582618 -3.672690
  H 3.015463 -1.992616 -4.671519
  O 6.444694 -0.824847 -2.119970
  H 0.616477 0.419948 1.404886
  H 0.537228 -0.691869 0.012721
  H 0.732990 1.017024 -0.255578
  H 3.842910 1.441948 1.301716
  H 3.969965 -0.206045 1.877506
  H 2.400137 -0.716914 -1.539476
  H 5.074982 -0.100076 -0.177222
  H 5.152623 -2.330690 -3.589631
  H 5.032514 -0.707245 -4.189381
  H 2.600931 -0.642076 -3.635616
  H 2.714312 -2.292042 -2.970477
  H 6.843034 -0.489420 -1.295558
 23
 1.001383
  C 1.009018 0.219877 0.428081
  C 2.473611 0.099001 0.387201
  C 3.257645 0.525047 1.564173
  H 2.610128 0.786447 2.395288
  C 3.054211 -0.394721 -0.772179
  C 4.429725 -0.407949 -1.007325
  C 5.122326 -0.840195 -2.133994
  C 4.631763 -1.389347 -3.428316
  C 3.151954 -1.651747 -3.654741
  H 3.030430 -2.085101 -4.644805
  O 6.439140 -0.758931 -2.141457
  H 0.585767 0.258313 1.423773
  H 0.485675 -0.453765 -0.240971
  H 0.911843 1.223926 -0.011668
  H 3.877503 1.390086 1.326676
  H 3.929268 -0.271305 1.882700
  H 2.388605 -0.777347 -1.525167
  H 5.055194 -0.031824 -0.206086
  H 5.191311 -2.317556 -3.588908
  H 4.998326 -0.705105 -4.201913
  H 2.574252 -0.732264 -3.629522
  H 2.759233 -2.364494 -2.935443
  H 6.831611 -0.405482 -1.321726
 23
 12.298485
  C 0.997766 0.227752 0.465673
  C 2.451666 0.169191 0.354099
  C 3.262058 0.440630 1.565624
  H 2.628619 0.674671 2.414093
  C 3.019510 -0.334938 -0.807604
  C 4.397509 -0.343381 -1.034372
  C 5.100132 -0.781320 -2.152350
  C 4.630659 -1.403193 -3.423784
  C 3.163032 -1.745741 -3.624738
  H 3.051009 -2.203517 -4.605575
  O 6.422210 -0.714244 -2.143604
  H 0.552512 0.347127 1.440111
  H 0.412199 -0.278193 -0.289528
  H 1.202599 1.260220 0.035036
  H 3.948677 1.271014 1.413225
  H 3.854421 -0.436481 1.812846
  H 2.359809 -0.697915 -1.573751
  H 5.013557 0.085443 -0.252674
  H 5.234717 -2.307308 -3.553398
  H 4.953769 -0.729396 -4.225961
  H 2.539522 -0.856396 -3.609873
  H 2.817554 -2.463368 -2.885024
  H 6.795971 -0.266857 -1.360822
 23
 30.311093
  C 0.986712 0.107921 0.529170
  C 2.413110 0.137957 0.369748
  C 3.256599 0.548191 1.536942
  H 2.640892 0.747535 2.408839
  C 3.010205 -0.394530 -0.791007
  C 4.382406 -0.379364 -1.025725
  C 5.084016 -0.826937 -2.130524
  C 4.619759 -1.406678 -3.426664
  C 3.144381 -1.688732 -3.661674
  H 3.036191 -2.139378 -4.645695
  O 6.413525 -0.732512 -2.132050
  H 0.522380 0.343006 1.469645
  H 0.368358 -0.311890 -0.248197
  H 1.549435 1.116577 0.004686
  H 3.838946 1.440941 1.319432
  H 3.946497 -0.252928 1.788808
  H 2.351442 -0.816598 -1.527992
  H 5.003044 0.008460 -0.226839
  H 5.189581 -2.332360 -3.561050
  H 4.984997 -0.730740 -4.207953
  H 2.558737 -0.774301 -3.656143
  H 2.754201 -2.394084 -2.933640
  H 6.781358 -0.371339 -1.308573
 23
 41.007320
  C 0.971585 0.077286 0.556334
  C 2.391019 0.179892 0.369611
  C 3.248222 0.558695 1.553897
  H 2.634873 0.716722 2.435461
  C 3.005664 -0.392907 -0.801208
  C 4.369896 -0.389258 -1.026285
  C 5.073378 -0.832257 -2.135380
  C 4.607190 -1.411590 -3.430808
  C 3.131284 -1.693246 -3.664073
  H 3.021456 -2.139493 -4.649949
  O 6.404256 -0.752058 -2.130174
  H 0.515239 0.339761 1.492602
  H 0.340276 -0.309463 -0.225037
  H 1.857747 1.121265 -0.113362
  H 3.815687 1.466520 1.367343
  H 3.947675 -0.242579 1.774495
  H 2.340042 -0.816264 -1.531111
  H 4.988649 0.017624 -0.235397
  H 5.177148 -2.336905 -3.567347
  H 4.971189 -0.735227 -4.212277
  H 2.544737 -0.779479 -3.653354
  H 2.743234 -2.402737 -2.938834
  H 6.772226 -0.375150 -1.311657
 23
 42.425250
  C 0.959808 0.029320 0.582513
  C 2.365285 0.212457 0.374179
  C 3.225332 0.578096 1.570898
  H 2.609083 0.693384 2.456806
  C 3.002780 -0.379438 -0.810050
  C 4.360165 -0.380389 -1.028745
  C 5.064279 -0.836241 -2.138432
  C 4.589800 -1.416774 -3.427748
  C 3.111073 -1.682398 -3.661004
  H 2.997360 -2.133358 -4.644094
  O 6.386960 -0.770398 -2.128934
  H 0.506002 0.258289 1.527612
  H 0.329324 -0.336418 -0.207653
  H 2.140369 1.129505 -0.263329
  H 3.766354 1.506066 1.412907
  H 3.943958 -0.212174 1.769838
  H 2.332168 -0.818983 -1.526655
  H 4.978850 0.029797 -0.239167
  H 5.149034 -2.348964 -3.560773
  H 4.962776 -0.748207 -4.211688
  H 2.534374 -0.762354 -3.657145
  H 2.713804 -2.383758 -2.932918
  H 6.762608 -0.390416 -1.314083
 23
 44.197423
  C 0.973090 0.045130 0.595246
  C 2.355617 0.199663 0.401629
  C 3.219572 0.574134 1.585991
  H 2.611033 0.656281 2.479970
  C 2.988894 -0.357080 -0.815249
  C 4.360104 -0.365246 -1.034399
  C 5.057246 -0.828638 -2.136977
  C 4.578333 -1.416517 -3.422852
  C 3.098285 -1.678267 -3.652908
  H 2.982664 -2.136205 -4.632608
  O 6.383017 -0.769507 -2.133159
  H 0.518243 0.250987 1.545237
  H 0.330560 -0.291272 -0.199966
  H 2.402362 1.005685 -0.460335
  H 3.727021 1.523142 1.438449
  H 3.967509 -0.194319 1.764976
  H 2.318392 -0.814815 -1.520730
  H 4.977833 0.047812 -0.245115
  H 5.133445 -2.351663 -3.549580
  H 4.953115 -0.754894 -4.211525
  H 2.524253 -0.756584 -3.656825
  H 2.699069 -2.373706 -2.920382
  H 6.763295 -0.387652 -1.322128
 23
 41.343672
  C 0.991788 0.059176 0.607736
  C 2.347121 0.167945 0.439744
  C 3.225574 0.538274 1.600714
  H 2.635225 0.602854 2.509224
  C 2.967598 -0.301717 -0.827092
  C 4.359997 -0.334930 -1.045716
  C 5.051121 -0.821349 -2.133526
  C 4.569223 -1.421900 -3.413766
  C 3.087015 -1.673315 -3.642075
  H 2.968534 -2.143591 -4.615511
  O 6.381086 -0.775336 -2.130553
  H 0.532533 0.280477 1.553105
  H 0.340065 -0.248940 -0.190444
  H 2.520446 0.888205 -0.639505
  H 3.714344 1.497718 1.451191
  H 3.991118 -0.218809 1.751471
  H 2.297398 -0.779694 -1.521908
  H 4.976967 0.080496 -0.258242
  H 5.115736 -2.363919 -3.526853
  H 4.951267 -0.774431 -4.210570
  H 2.521194 -0.746737 -3.659671
  H 2.680691 -2.355622 -2.900865
  H 6.763771 -0.384925 -1.325181
 23
 31.259942
  C 1.007270 0.045399 0.626707
  C 2.342469 0.142030 0.477016
  C 3.241945 0.483122 1.616492
  H 2.678694 0.502407 2.544640
  C 2.935272 -0.205225 -0.860626
  C 4.350597 -0.269521 -1.069882
  C 5.046121 -0.805133 -2.130378
  C 4.565915 -1.444588 -3.390702
  C 3.082461 -1.684808 -3.620813
  H 2.964089 -2.185604 -4.578907
  O 6.374706 -0.772538 -2.116509
  H 0.537180 0.237713 1.574374
  H 0.354473 -0.234609 -0.181480
  H 2.611955 0.904466 -0.880514
  H 3.701792 1.460951 1.486436
  H 4.031615 -0.258518 1.711615
  H 2.268436 -0.727551 -1.529131
  H 4.961249 0.167807 -0.289679
  H 5.102052 -2.396286 -3.467551
  H 4.961711 -0.830644 -4.207331
  H 2.528355 -0.752521 -3.672479
  H 2.662460 -2.337131 -2.860511
  H 6.757361 -0.354911 -1.324450
 23
 21.933227
  C 1.025680 0.031624 0.637287
  C 2.354854 0.119469 0.488510
  C 3.275353 0.411232 1.617342
  H 2.735458 0.393416 2.559601
  C 2.903002 -0.086302 -0.899162
  C 4.335952 -0.190574 -1.089169
  C 5.037780 -0.782847 -2.116946
  C 4.560821 -1.471588 -3.350309
  C 3.077002 -1.693455 -3.592655
  H 2.962480 -2.230626 -4.531252
  O 6.363520 -0.765836 -2.086996
  H 0.552792 0.157398 1.595457
  H 0.369470 -0.189442 -0.186674
  H 2.616450 0.963539 -1.144412
  H 3.725779 1.397255 1.511035
  H 4.073313 -0.327316 1.658315
  H 2.271588 -0.708489 -1.520324
  H 4.940605 0.273196 -0.319792
  H 5.081858 -2.434455 -3.380025
  H 4.979142 -0.902480 -4.188563
  H 2.540639 -0.754457 -3.688274
  H 2.633092 -2.307601 -2.814013
  H 6.745892 -0.316884 -1.311236
 23
 18.921284
  C 1.020406 0.120778 0.646247
  C 2.353420 0.109131 0.490186
  C 3.286158 0.366752 1.616909
  H 2.751359 0.374581 2.562095
  C 2.881559 -0.108851 -0.895265
  C 4.326552 -0.188178 -1.075744
  C 5.036989 -0.758977 -2.109424
  C 4.565255 -1.449790 -3.343207
  C 3.084735 -1.693835 -3.581966
  H 2.974323 -2.210035 -4.532710
  O 6.361843 -0.718965 -2.083664
  H 0.562060 0.281422 1.606154
  H 0.346018 -0.057347 -0.173689
  H 2.533653 0.823227 -1.380017
  H 3.770900 1.335608 1.499638
  H 4.059255 -0.398481 1.656526
  H 2.327866 -0.893573 -1.407480
  H 4.922292 0.284763 -0.305592
  H 5.105478 -2.401482 -3.386719
  H 4.968141 -0.866225 -4.179664
  H 2.527867 -0.764783 -3.648072
  H 2.656566 -2.337045 -2.817476
  H 6.739830 -0.263919 -1.309320
 23
 17.835094
  C 1.019002 0.083711 0.672312
  C 2.350737 0.100691 0.501022
  C 3.276398 0.486490 1.597575
  H 2.728462 0.671510 2.517235
  C 2.887524 -0.255649 -0.848247
  C 4.338573 -0.286690 -1.026543
  C 5.047705 -0.786262 -2.097163
  C 4.564399 -1.407813 -3.363019
  C 3.078301 -1.572153 -3.627702
  H 2.954519 -2.001923 -4.618916
  O 6.370958 -0.737422 -2.080778
  H 0.567198 0.338744 1.614444
  H 0.343690 -0.193980 -0.118663
  H 2.467923 0.498605 -1.535946
  H 3.820085 1.394868 1.337220
  H 4.002381 -0.304492 1.779138
  H 2.418923 -1.183149 -1.195940
  H 4.932036 0.146442 -0.232607
  H 5.059946 -2.382802 -3.437934
  H 5.007740 -0.815498 -4.170980
  H 2.557038 -0.621089 -3.613075
  H 2.615912 -2.256756 -2.922250
  H 6.753075 -0.330607 -1.281438
