20
 0
 C -1.00742432 -0.10308642 2.57760978
 C -1.96832633 -0.22024282 1.39548986
 C -2.99380679 0.90835845 1.43527578
 C -1.21162988 -0.21364285 0.06838962
 O 0.00000000 0.00000000 0.00000000
 C -1.99993328 -0.48941155 -1.18739975
 H -1.54886836 -0.15792839 3.52780921
 H -0.45915120 0.84549843 2.55357467
 H -0.26951511 -0.91257726 2.56334712
 H -2.48212758 -1.18627264 1.47072923
 H -2.51581752 1.88351596 1.29159586
 H -3.52119690 0.92267833 2.39499556
 H -3.74556787 0.79283060 0.64793297
 H -3.02212102 -0.79325238 -0.94963706
 H -1.52289067 -1.30366120 -1.73902668
 H -2.02875314 0.41549492 -1.79942126
 O 3.37444406 0.17182063 -0.05502754
 H 2.40000000 0.00000000 0.00000000
 H 3.89589566 -0.56843308 0.34769932
 H 3.61169515 1.04430718 0.35060721
