20
 0
 C -1.04392015 0.08762356 2.56362157
 C -1.98731755 -0.12333869 1.38042164
 C -3.01744914 1.00010700 1.32015050
 C -1.21168446 -0.21365248 0.06738514
 O 0.00000000 0.00000000 0.00000000
 C -1.98085577 -0.58752253 -1.17482025
 H -1.59873662 0.10231774 3.50755538
 H -0.49888645 1.03427916 2.47544136
 H -0.30288001 -0.71707685 2.62111591
 H -2.49855316 -1.08334531 1.52145970
 H -2.54107335 1.96385938 1.10968130
 H -3.55860679 1.08455201 2.26853065
 H -3.75739982 0.82167303 0.53336309
 H -3.00521437 -0.87737595 -0.92907124
 H -1.49292454 -1.43892052 -1.65638955
 H -2.00425159 0.26827850 -1.85402115
 O 3.37448942 0.17182863 -0.05419297
 H 2.40000000 0.00000000 0.00000000
 H 3.57000150 1.14301943 -0.07948505
 H 3.78302514 -0.29989198 -0.82402323
