10

H 3.383602587630204 -0.3458542278295487 -0.810176072814546
C 4.43888 -0.411649 -0.974373
C 5.11699 -0.862273 -2.097854
C 4.625438 -1.38582 -3.403169
H 3.579029098582245 -1.4688061281663058 -3.610633969490401
O 6.442688 -0.856823 -2.084272
H 5.05689 -0.079321 -0.146191
H 5.081006 -2.37488 -3.52806
H 5.081381 -0.757493 -4.176933
H 6.81268 -0.521131 -1.246385
