 7
 0.000000
  H 3.371377 -0.403628 -0.954633
  C 4.449643 -0.400000 -0.944517
  C 5.180201 -0.844477 -2.052901
  H 4.661129 -1.201199 -2.942848
  O 6.444063 -0.868283 -2.112532
  H 4.976626 -0.047903 -0.067335
  H 6.946845 -0.550174 -1.319589
 7
 0.241719
  H 3.366606 -0.576748 -0.872677
  C 4.424726 -0.373576 -0.930014
  C 5.171250 -0.786367 -2.023819
  H 4.650100 -1.063713 -2.945268
  O 6.436449 -0.814337 -2.118048
  H 4.878312 0.231640 -0.155469
  H 6.974518 -0.735542 -1.293173
 7
 4.544838
  H 3.354368 -0.667196 -0.835447
  C 4.395041 -0.383294 -0.926318
  C 5.182958 -0.784748 -1.968396
  H 4.673183 -1.065469 -2.906323
  O 6.454716 -0.689921 -2.100147
  H 4.788579 0.362572 -0.243509
  H 7.010707 -0.980652 -1.346971
 7
 12.645361
  H 3.296897 -0.605580 -0.768613
  C 4.343473 -0.356196 -0.960164
  C 5.133888 -0.763357 -1.973800
  H 4.724759 -1.139838 -2.902840
  O 6.413378 -0.550674 -1.989307
  H 4.893616 0.312331 -0.306767
  H 6.996431 -1.011387 -1.338150
 7
 19.068163
  H 3.293089 -0.612241 -0.813099
  C 4.319696 -0.326673 -0.980061
  C 5.165462 -0.792163 -1.978956
  H 4.812319 -1.248929 -2.909272
  O 6.426755 -0.532358 -1.852622
  H 4.862360 0.327123 -0.302982
  H 7.142594 -1.132477 -1.562634
 7
 22.373368
  H 3.262801 -0.540587 -0.697895
  C 4.258020 -0.323132 -1.037642
  C 5.136353 -0.802638 -2.005125
  H 4.964860 -1.337318 -2.934005
  O 6.347349 -0.439689 -1.659975
  H 5.011621 0.252247 -0.464791
  H 7.048684 -1.130721 -1.610534
 7
 42.989699
  H 3.260361 -0.443365 -0.649154
  C 4.235400 -0.385066 -1.085970
  C 5.083407 -0.855600 -2.024588
  H 4.975913 -1.362962 -2.972108
  O 6.294115 -0.397077 -1.637243
  H 5.209308 0.182009 -0.615364
  H 6.991741 -1.066949 -1.443409
 7
 54.262008
  H 3.225479 -0.391470 -0.667709
  C 4.179723 -0.418302 -1.137877
  C 5.021694 -0.875424 -2.018668
  H 4.961237 -1.388363 -2.963434
  O 6.271549 -0.364689 -1.580926
  H 5.458222 0.134589 -0.698169
  H 6.966327 -1.037075 -1.390415
 7
 50.547033
  H 3.202197 -0.389494 -0.674607
  C 4.143714 -0.435554 -1.162350
  C 4.997959 -0.881139 -2.017854
  H 4.954128 -1.370597 -2.976112
  O 6.275578 -0.362138 -1.563600
  H 5.620781 0.137299 -0.774159
  H 6.937590 -1.055728 -1.329658
 7
 41.528502
  H 3.131886 -0.450564 -0.700439
  C 4.078152 -0.463216 -1.175067
  C 4.991952 -0.866074 -2.001392
  H 4.973273 -1.301274 -2.992145
  O 6.289788 -0.368071 -1.554610
  H 5.789290 0.146786 -0.799269
  H 6.940465 -1.077302 -1.330692
 7
 35.984044
  H 3.057385 -0.438870 -0.745399
  C 4.016342 -0.468037 -1.186612
  C 4.959193 -0.829157 -1.978446
  H 4.977589 -1.316369 -2.943166
  O 6.298808 -0.328716 -1.557573
  H 5.952784 0.180188 -0.780549
  H 6.946560 -1.042071 -1.338071
 7
 32.155415
  H 3.000859 -0.521298 -0.810152
  C 3.985562 -0.524695 -1.188296
  C 4.967182 -0.822864 -1.948434
  H 4.983245 -1.303333 -2.922192
  O 6.308017 -0.358754 -1.586543
  H 6.121889 0.229058 -0.814342
  H 6.915823 -1.100633 -1.343431
 7
 30.611056
  H 2.933362 -0.657525 -0.949839
  C 3.964578 -0.583004 -1.162990
  C 4.981183 -0.765491 -1.917987
  H 4.995245 -1.181842 -2.925962
  O 6.318563 -0.350384 -1.559370
  H 6.283059 0.228660 -0.758886
  H 6.920930 -1.121697 -1.414413
 7
 30.266245
  H 2.901173 -0.616812 -0.996935
  C 3.936261 -0.548231 -1.186277
  C 4.979667 -0.770983 -1.891873
  H 5.019634 -1.248273 -2.871759
  O 6.301190 -0.324537 -1.526142
  H 6.296351 0.135902 -0.651231
  H 6.962643 -1.058349 -1.565231
