 17
 0.000000
  H 1.433019 -0.076850 0.037190
  C 2.506133 -0.083343 0.024445
  C 3.220474 -0.593717 -0.977505
  C 4.657472 -0.605094 -0.999840
  C 5.379041 -1.120102 -2.010884
  C 6.816268 -1.130829 -2.031941
  C 7.534478 -1.641884 -3.035235
  C 9.023399 -1.662211 -3.075131
  H 3.002808 0.351865 0.878833
  H 2.711024 -1.027372 -1.828834
  H 5.161643 -0.170388 -0.146442
  H 4.874931 -1.554855 -2.864376
  H 7.322456 -0.696516 -1.179312
  H 7.035351 -2.077814 -3.891022
  H 9.456067 -1.209183 -2.185766
  H 9.382493 -1.117460 -3.949104
  H 9.382492 -2.689446 -3.148364
 17
 13.747176
  H 1.343999 -0.039343 0.110815
  C 2.417113 -0.044839 0.100031
  C 3.164684 -0.595218 -0.980448
  C 4.599816 -0.610963 -1.011353
  C 5.305723 -1.126353 -2.023150
  C 6.910958 -1.137715 -2.045459
  C 7.611636 -1.648650 -3.048520
  C 9.100867 -1.676253 -3.102699
  H 2.924336 0.386128 0.946089
  H 2.638035 -1.023654 -1.821535
  H 5.111893 -0.177978 -0.161335
  H 4.815088 -1.562353 -2.879088
  H 7.401966 -0.701773 -1.189628
  H 7.103375 -2.082577 -3.900377
  H 9.539973 -1.224562 -2.215958
  H 9.454790 -1.134813 -3.980367
  H 9.454787 -2.704527 -3.180784
 17
 41.758450
  H 1.287866 -0.009029 0.170320
  C 2.367493 -0.013445 0.161655
  C 3.096386 -0.591423 -0.973002
  C 4.535582 -0.620672 -1.030410
  C 5.202486 -1.139069 -2.048100
  C 7.025479 -1.132366 -2.034961
  C 7.685471 -1.646854 -3.044997
  C 9.174249 -1.690123 -3.129969
  H 2.895155 0.396497 0.966437
  H 2.528641 -1.002867 -1.780742
  H 5.064708 -0.192544 -0.189919
  H 4.794272 -1.582365 -2.918363
  H 7.429009 -0.687675 -1.161965
  H 7.161949 -2.074187 -3.883892
  H 9.626863 -1.244722 -2.255574
  H 9.513303 -1.154484 -4.013632
  H 9.513378 -2.719954 -3.216340
 17
 73.520303
  H 1.235639 0.016516 0.220691
  C 2.309004 -0.000313 0.187538
  C 2.978525 -0.570733 -0.932318
  C 4.407230 -0.616586 -1.022457
  C 5.043698 -1.144247 -2.058358
  C 7.170037 -1.127248 -2.025200
  C 7.795607 -1.649499 -3.050456
  C 9.292837 -1.710561 -3.170297
  H 2.878186 0.410887 0.994723
  H 2.384086 -0.974539 -1.724967
  H 4.952732 -0.195889 -0.196640
  H 4.672598 -1.598374 -2.949813
  H 7.533008 -0.672677 -1.132845
  H 7.251425 -2.071575 -3.879042
  H 9.774950 -1.272059 -2.308913
  H 9.614922 -1.179098 -4.068345
  H 9.614877 -2.750041 -3.268229
 17
 99.381706
  H 1.157004 0.045737 0.278031
  C 2.233500 0.014795 0.217190
  C 2.855985 -0.543198 -0.878279
  C 4.279528 -0.608303 -1.006193
  C 4.893285 -1.143331 -2.056565
  C 7.326038 -1.127850 -2.026285
  C 7.924059 -1.656395 -3.063896
  C 9.419383 -1.737705 -3.223503
  H 2.805542 0.418964 1.010587
  H 2.258733 -0.943445 -1.663975
  H 4.840678 -0.191530 -0.188044
  H 4.548328 -1.600172 -2.953346
  H 7.659420 -0.670573 -1.128618
  H 7.360537 -2.073410 -3.882515
  H 9.924719 -1.305147 -2.374056
  H 9.722532 -1.207818 -4.126160
  H 9.722574 -2.779907 -3.325552
 17
 117.917284
  H 1.089349 0.081992 0.349047
  C 2.151867 0.035774 0.258279
  C 2.746998 -0.530024 -0.852469
  C 4.190937 -0.613142 -1.015632
  C 4.776895 -1.142976 -2.055785
  C 7.466761 -1.130123 -2.030458
  C 8.034469 -1.658297 -3.067331
  C 9.521772 -1.760275 -3.267508
  H 2.742830 0.443838 1.059399
  H 2.134094 -0.933048 -1.643671
  H 4.772383 -0.198614 -0.201843
  H 4.457403 -1.604628 -2.962029
  H 7.767499 -0.666783 -1.120882
  H 7.447020 -2.073283 -3.881931
  H 10.061013 -1.328917 -2.420606
  H 9.803335 -1.234118 -4.175118
  H 9.803151 -2.803260 -3.375496
 17
 130.115865
  H 0.999546 0.115239 0.414350
  C 2.065404 0.054663 0.295394
  C 2.624972 -0.506774 -0.806826
  C 4.067853 -0.605803 -1.001243
  C 4.639432 -1.137574 -2.045220
  C 7.613466 -1.134508 -2.039104
  C 8.162288 -1.665218 -3.080978
  C 9.658196 -1.787776 -3.321702
  H 2.666365 0.457547 1.086332
  H 2.001812 -0.908390 -1.595250
  H 4.663956 -0.193518 -0.191871
  H 4.338984 -1.603769 -2.960419
  H 7.888461 -0.667830 -1.122948
  H 7.558064 -2.073211 -3.881935
  H 10.221345 -1.366097 -2.493766
  H 9.922444 -1.265437 -4.236971
  H 9.922410 -2.835147 -3.437108
 17
 137.517296
  H 0.910438 0.145009 0.472852
  C 1.972117 0.075368 0.336080
  C 2.507392 -0.485417 -0.764874
  C 3.951683 -0.595781 -0.981600
  C 4.512830 -1.128357 -2.027174
  C 7.758123 -1.146081 -2.061960
  C 8.295832 -1.678288 -3.106778
  C 9.787963 -1.813180 -3.371597
  H 2.587321 0.475644 1.121863
  H 1.872731 -0.884237 -1.547802
  H 4.555899 -0.188209 -0.181485
  H 4.218846 -1.598209 -2.949546
  H 8.020653 -0.680434 -1.147828
  H 7.681440 -2.081701 -3.898679
  H 10.363602 -1.397817 -2.556432
  H 10.041144 -1.292462 -4.288308
  H 10.041326 -2.861417 -3.489498
 17
 141.877060
  H 0.798795 0.170810 0.522819
  C 1.867858 0.093349 0.370965
  C 2.383592 -0.461688 -0.718483
  C 3.827795 -0.580114 -0.950611
  C 4.385910 -1.112861 -1.996277
  C 7.909384 -1.166001 -2.099559
  C 8.444007 -1.698899 -3.145529
  C 9.922174 -1.842837 -3.427890
  H 2.492158 0.494352 1.158339
  H 1.742958 -0.860954 -1.502393
  H 4.445858 -0.170177 -0.145737
  H 4.110710 -1.579583 -2.912519
  H 8.154377 -0.694573 -1.174099
  H 7.827821 -2.095981 -3.925182
  H 10.511705 -1.431088 -2.618470
  H 10.169523 -1.317572 -4.360061
  H 10.166973 -2.897733 -3.549393
 17
 143.682691
  H 0.691874 0.193580 0.568349
  C 1.751573 0.116486 0.416864
  C 2.266905 -0.438033 -0.671871
  C 3.708651 -0.556459 -0.904557
  C 4.270473 -1.089941 -1.952006
  C 8.050290 -1.193481 -2.155497
  C 8.587717 -1.725730 -3.200508
  C 10.072738 -1.869049 -3.482280
  H 2.374118 0.516940 1.202996
  H 1.633670 -0.834073 -1.449338
  H 4.320117 -0.150000 -0.106633
  H 3.996512 -1.555665 -2.866312
  H 8.288501 -0.728610 -1.242854
  H 7.958189 -2.132452 -3.998936
  H 10.663009 -1.455175 -2.669413
  H 10.315654 -1.352729 -4.397453
  H 10.316315 -2.915777 -3.602585
 17
 144.256389
  H 0.564731 0.212059 0.604898
  C 1.626447 0.139264 0.461616
  C 2.150520 -0.414506 -0.625768
  C 3.596826 -0.529060 -0.850803
  C 4.163494 -1.060028 -1.893340
  C 8.191417 -1.228833 -2.224898
  C 8.733245 -1.759571 -3.266922
  C 10.221498 -1.899020 -3.540952
  H 2.244254 0.540642 1.249759
  H 1.523561 -0.809903 -1.401942
  H 4.201807 -0.122500 -0.052611
  H 3.872621 -1.526681 -2.809493
  H 8.446116 -0.761678 -1.307707
  H 8.113676 -2.163964 -4.060581
  H 10.807357 -1.481642 -2.722145
  H 10.468674 -1.379467 -4.459281
  H 10.469760 -2.950686 -3.660802
 17
 144.644423
  H 0.433585 0.228395 0.637087
  C 1.495582 0.161071 0.502423
  C 2.028698 -0.386120 -0.571744
  C 3.478897 -0.494382 -0.782938
  C 4.056039 -1.023820 -1.821314
  C 8.337185 -1.271502 -2.303785
  C 8.887540 -1.800858 -3.341993
  C 10.385402 -1.932652 -3.599695
  H 2.103815 0.563954 1.296270
  H 1.411494 -0.785651 -1.355135
  H 4.073799 -0.085713 0.019323
  H 3.759081 -1.489135 -2.734550
  H 8.601720 -0.804924 -1.388084
  H 8.267415 -2.214320 -4.153633
  H 10.955601 -1.516261 -2.780856
  H 10.644268 -1.406418 -4.527698
  H 10.636694 -2.968572 -3.715083
 17
 144.527174
  H 0.315111 0.248517 0.677275
  C 1.381972 0.185202 0.550788
  C 1.926762 -0.363736 -0.527325
  C 3.375289 -0.466346 -0.728587
  C 3.961804 -0.993806 -1.763873
  C 8.476480 -1.307091 -2.378166
  C 9.034816 -1.834833 -3.414093
  C 10.525982 -1.963285 -3.665487
  H 1.981638 0.589401 1.346149
  H 1.310351 -0.767956 -1.320140
  H 3.964097 -0.054913 0.078984
  H 3.672362 -1.459765 -2.678528
  H 8.739478 -0.839398 -1.460175
  H 8.427933 -2.244847 -4.218190
  H 11.096427 -1.541447 -2.837870
  H 10.783906 -1.439715 -4.584194
  H 10.783110 -3.012361 -3.781701
 17
 144.548051
  H 0.197758 0.266699 0.711772
  C 1.266348 0.207305 0.593974
  C 1.821107 -0.339624 -0.479454
  C 3.272005 -0.436687 -0.669862
  C 3.867593 -0.961746 -1.699964
  C 8.620458 -1.346598 -2.455445
  C 9.184839 -1.873056 -3.488715
  C 10.676619 -1.997715 -3.733552
  H 1.859860 0.615209 1.395599
  H 1.212896 -0.745518 -1.275130
  H 3.856599 -0.020421 0.146480
  H 3.588380 -1.429138 -2.616901
  H 8.879913 -0.877815 -1.536224
  H 8.584480 -2.283138 -4.293581
  H 11.240573 -1.575958 -2.905810
  H 10.937084 -1.473237 -4.650716
  H 10.937323 -3.048071 -3.849066
