 12
 0.000000
  C 0.932763 0.048800 0.259591
  C 2.427392 0.057395 0.096089
  C 3.264758 -0.011206 1.344317
  H 2.650611 -0.057353 2.239803
  C 2.994847 0.123777 -1.098315
  H 2.425175 0.172456 -2.011144
  H 4.066119 0.131927 -1.215401
  H 0.651384 -0.022847 1.307687
  H 0.492115 -0.798314 -0.263883
  H 0.493228 0.961059 -0.141219
  H 3.913657 0.861070 1.414568
  H 3.908983 -0.889520 1.321137
 12
 5.777587
  C 0.928657 -0.006768 0.271425
  C 2.383812 0.058575 0.094920
  C 3.269107 -0.003406 1.361102
  H 2.666047 -0.031310 2.260918
  C 2.955608 0.136497 -1.098565
  H 2.374835 0.173702 -2.007148
  H 4.025801 0.180627 -1.214493
  H 0.602492 -0.043689 1.303995
  H 0.453580 -0.809886 -0.283478
  H 0.731961 0.950895 -0.183220
  H 3.922895 0.860515 1.407925
  H 3.895440 -0.888384 1.336699
 12
 17.843590
  C 0.918386 -0.050003 0.283671
  C 2.354706 0.053230 0.103701
  C 3.262531 0.005759 1.351130
  H 2.660968 0.002885 2.265913
  C 2.930668 0.147644 -1.084130
  H 2.356627 0.162032 -1.994287
  H 3.998304 0.235926 -1.192991
  H 0.565885 -0.051338 1.302624
  H 0.428199 -0.800350 -0.308943
  H 0.937938 0.910010 -0.175613
  H 3.929867 0.865990 1.365368
  H 3.869410 -0.898605 1.325965
 12
 31.595271
  C 0.900165 -0.084326 0.296210
  C 2.339940 0.052328 0.093125
  C 3.256642 0.024555 1.351703
  H 2.661729 0.055943 2.258420
  C 2.923479 0.151191 -1.097350
  H 2.356551 0.133529 -2.012107
  H 3.984833 0.271472 -1.198297
  H 0.550703 -0.120283 1.315541
  H 0.373984 -0.760644 -0.360068
  H 1.102408 0.895092 -0.106890
  H 3.940896 0.867475 1.344074
  H 3.838440 -0.891871 1.345297
 12
 43.471876
  C 0.892328 -0.114923 0.305917
  C 2.332261 0.052184 0.081865
  C 3.245062 0.046987 1.347171
  H 2.648877 0.109696 2.254388
  C 2.919001 0.148731 -1.113742
  H 2.355840 0.109439 -2.027030
  H 3.978995 0.280226 -1.211859
  H 0.555214 -0.211349 1.322253
  H 0.334184 -0.690542 -0.413164
  H 1.238570 0.880902 -0.015553
  H 3.945044 0.876891 1.323020
  H 3.810772 -0.879235 1.364904
 12
 51.949439
  C 0.892711 -0.145282 0.315329
  C 2.329636 0.051023 0.071710
  C 3.231079 0.068544 1.340767
  H 2.631519 0.160240 2.243113
  C 2.921019 0.137942 -1.129732
  H 2.357818 0.079684 -2.043232
  H 3.979006 0.291235 -1.225292
  H 0.568988 -0.309618 1.324992
  H 0.295717 -0.600291 -0.455644
  H 1.355092 0.868615 0.083209
  H 3.942106 0.888852 1.300145
  H 3.786470 -0.864054 1.385309
 12
 59.164427
  C 0.893421 -0.167316 0.319036
  C 2.326405 0.054667 0.070754
  C 3.222358 0.077872 1.337070
  H 2.625535 0.184572 2.239539
  C 2.920093 0.137740 -1.139249
  H 2.356360 0.071349 -2.049267
  H 3.975206 0.296994 -1.233009
  H 0.572846 -0.357208 1.321205
  H 0.282237 -0.555502 -0.472208
  H 1.442535 0.856283 0.123889
  H 3.950284 0.898652 1.292677
  H 3.764987 -0.847040 1.397593
 12
 64.762443
  C 0.890819 -0.186448 0.320662
  C 2.324038 0.067620 0.074218
  C 3.224754 0.095027 1.338905
  H 2.630480 0.213430 2.238824
  C 2.921611 0.144847 -1.141953
  H 2.356567 0.066058 -2.052177
  H 3.978133 0.300841 -1.234956
  H 0.564060 -0.383487 1.318117
  H 0.273078 -0.526744 -0.488633
  H 1.502171 0.850452 0.145635
  H 3.936193 0.894026 1.282794
  H 3.778232 -0.855857 1.406459
 12
 69.422879
  C 0.886849 -0.211015 0.318346
  C 2.321032 0.074257 0.076481
  C 3.231818 0.096216 1.344205
  H 2.638728 0.221900 2.244913
  C 2.923911 0.146742 -1.144449
  H 2.358811 0.064926 -2.054494
  H 3.980908 0.301662 -1.235648
  H 0.551093 -0.405316 1.314237
  H 0.264600 -0.503504 -0.503516
  H 1.549033 0.849488 0.159410
  H 3.962332 0.907341 1.278163
  H 3.763893 -0.836737 1.408857
 12
 73.050231
  C 0.891506 -0.248184 0.316815
  C 2.318380 0.088401 0.076785
  C 3.238632 0.105305 1.347573
  H 2.647182 0.240851 2.246316
  C 2.931245 0.145886 -1.146889
  H 2.368434 0.054402 -2.058459
  H 3.986113 0.321064 -1.234655
  H 0.539920 -0.414126 1.312260
  H 0.251630 -0.479347 -0.510625
  H 1.584771 0.862626 0.171486
  H 3.968225 0.904601 1.271723
  H 3.764965 -0.841396 1.411703
 12
 76.265359
  C 0.897473 -0.277749 0.315167
  C 2.317577 0.101874 0.081607
  C 3.242168 0.111411 1.349659
  H 2.654032 0.252833 2.248846
  C 2.934490 0.152147 -1.148577
  H 2.370394 0.055643 -2.058463
  H 3.989505 0.328681 -1.235702
  H 0.533351 -0.413794 1.309462
  H 0.252878 -0.471633 -0.517671
  H 1.620463 0.879532 0.174116
  H 3.976987 0.904966 1.269099
  H 3.760926 -0.839441 1.413813
 12
 78.694041
  C 0.905040 -0.311170 0.312056
  C 2.314748 0.117881 0.088476
  C 3.246622 0.117387 1.352786
  H 2.664624 0.264151 2.253766
  C 2.936355 0.160462 -1.149968
  H 2.369989 0.060345 -2.058580
  H 3.991717 0.332903 -1.236365
  H 0.525274 -0.410407 1.306108
  H 0.257835 -0.473003 -0.525996
  H 1.656716 0.911455 0.170901
  H 3.987290 0.904484 1.268669
  H 3.756948 -0.836918 1.414727
 12
 80.374461
  C 0.914453 -0.347414 0.311740
  C 2.311414 0.134072 0.094548
  C 3.250536 0.122755 1.355230
  H 2.673869 0.276607 2.256920
  C 2.939978 0.167528 -1.152193
  H 2.373290 0.058629 -2.058541
  H 3.993778 0.354362 -1.237097
  H 0.517101 -0.400351 1.301834
  H 0.262646 -0.478280 -0.528757
  H 1.696786 0.950299 0.163915
  H 3.998166 0.902138 1.265931
  H 3.749886 -0.837424 1.414101
 12
 81.183998
  C 0.929326 -0.386573 0.310975
  C 2.306231 0.155304 0.099582
  C 3.253175 0.131017 1.356461
  H 2.680784 0.290263 2.260752
  C 2.941634 0.182207 -1.155621
  H 2.372375 0.073553 -2.061151
  H 3.997675 0.356848 -1.238294
  H 0.515103 -0.389714 1.297370
  H 0.272378 -0.490769 -0.530263
  H 1.738392 0.998807 0.154648
  H 4.007451 0.904144 1.264066
  H 3.743420 -0.833749 1.413132
