 17
 0.000000
  C 1.008704 -0.071190 0.048756
  C 2.504471 -0.082224 0.024814
  C 3.220087 -0.595349 -0.980308
  C 4.656608 -0.606964 -1.003405
  C 5.376928 -1.122087 -2.015482
  C 6.814376 -1.132774 -2.034439
  C 7.531019 -1.641038 -3.035005
  H 8.603937 -1.653605 -3.058147
  H 0.647645 0.396542 0.962853
  H 0.612980 -1.085574 0.012378
  H 0.611391 0.490426 -0.795873
  H 3.006013 0.354362 0.877704
  H 2.709366 -1.029409 -1.830503
  H 5.161694 -0.172665 -0.150180
  H 4.872724 -1.555557 -2.869348
  H 7.319463 -0.699698 -1.180235
  H 7.036292 -2.075496 -3.891901
 17
 -0.054887
  C 1.009695 -0.153932 0.065289
  C 2.502277 -0.097869 0.046504
  C 3.239341 -0.408240 -1.023838
  C 4.674725 -0.460346 -1.031602
  C 5.384830 -0.992417 -2.041301
  C 6.816198 -1.137395 -2.044716
  C 7.496276 -1.751362 -3.010670
  H 8.568531 -1.851295 -2.980842
  H 0.603266 0.411805 0.897838
  H 0.684178 -1.192174 0.164802
  H 0.593832 0.231351 -0.863653
  H 2.991382 0.164875 0.974678
  H 2.744410 -0.682374 -1.948072
  H 5.182836 -0.095270 -0.148747
  H 4.862029 -1.371454 -2.911815
  H 7.342301 -0.718488 -1.195531
  H 6.997932 -2.177551 -3.866345
 17
 2.275309
  C 1.057350 -0.310686 0.016829
  C 2.529577 -0.063845 0.045325
  C 3.289022 -0.113486 -1.050445
  C 4.725880 -0.202966 -1.042943
  C 5.380859 -0.854496 -2.016136
  C 6.784867 -1.164675 -2.020026
  C 7.374252 -1.911028 -2.951752
  H 8.425986 -2.137402 -2.921710
  H 0.570516 0.034583 0.924543
  H 0.910143 -1.389446 -0.070542
  H 0.591690 0.161434 -0.845375
  H 2.991597 0.031820 1.018848
  H 2.810765 -0.225926 -2.016353
  H 5.246482 0.127362 -0.153085
  H 4.821908 -1.195314 -2.879846
  H 7.366502 -0.768678 -1.196439
  H 6.818553 -2.320037 -3.779729
 17
 6.488984
  C 1.136814 -0.447029 -0.071146
  C 2.564471 -0.031076 0.052490
  C 3.343758 0.138945 -1.016360
  C 4.777118 -0.023796 -1.003377
  C 5.358425 -0.742418 -1.974777
  C 6.722183 -1.199481 -1.989653
  C 7.220025 -2.008675 -2.922807
  H 8.242125 -2.351507 -2.897010
  H 0.576292 -0.291578 0.842873
  H 1.176695 -1.516512 -0.289307
  H 0.637970 0.054601 -0.901637
  H 3.009702 -0.098235 1.039502
  H 2.879813 0.181570 -1.999231
  H 5.309942 0.216219 -0.092983
  H 4.770862 -1.005167 -2.846349
  H 7.351360 -0.860706 -1.175162
  H 6.618480 -2.355873 -3.744307
 17
 13.276965
  C 1.252402 -0.569681 -0.161650
  C 2.589646 0.051181 0.050531
  C 3.394312 0.327079 -0.976600
  C 4.816939 0.090519 -0.948598
  C 5.311824 -0.686183 -1.919801
  C 6.624168 -1.273014 -1.941108
  C 7.082885 -2.019522 -2.944800
  H 8.055461 -2.475921 -2.917903
  H 0.641204 -0.594684 0.735104
  H 1.514141 -1.592461 -0.452571
  H 0.705690 -0.103692 -0.976029
  H 2.980070 0.046550 1.059793
  H 2.952058 0.352855 -1.967814
  H 5.342276 0.220067 -0.011456
  H 4.723538 -0.827516 -2.816427
  H 7.210984 -1.163432 -1.038541
  H 6.499847 -2.180399 -3.840540
 17
 22.269435
  C 1.397251 -0.703255 -0.275264
  C 2.618090 0.071591 0.078410
  C 3.419241 0.520072 -0.893950
  C 4.829544 0.201037 -0.909153
  C 5.232067 -0.620881 -1.888652
  C 6.493055 -1.322467 -1.895611
  C 6.892300 -2.115714 -2.887859
  H 7.858948 -2.589416 -2.887068
  H 0.744294 -0.923040 0.562123
  H 1.868901 -1.628787 -0.638274
  H 0.832497 -0.253668 -1.086447
  H 3.029233 -0.086518 1.075302
  H 2.974130 0.633259 -1.878879
  H 5.415330 0.342249 -0.008481
  H 4.665332 -0.662842 -2.808094
  H 7.162683 -1.099217 -1.079500
  H 6.267184 -2.303049 -3.740679
 17
 34.964595
  C 1.620434 -0.843244 -0.351006
  C 2.643182 0.130875 0.068790
  C 3.403392 0.684003 -0.907241
  C 4.823887 0.333752 -0.932996
  C 5.128396 -0.555076 -1.861313
  C 6.356316 -1.339224 -1.850032
  C 6.723131 -2.159169 -2.831249
  H 7.633536 -2.728671 -2.784540
  H 1.018531 -1.286854 0.452452
  H 2.317302 -1.606176 -0.766855
  H 0.979761 -0.489904 -1.157840
  H 3.073994 0.000338 1.044046
  H 2.948211 0.774517 -1.866529
  H 5.385111 0.384222 -0.023640
  H 4.570394 -0.550458 -2.808659
  H 6.993686 -1.214633 -0.968152
  H 6.108910 -2.292354 -3.708735
 17
 45.926493
  C 1.839101 -0.973360 -0.413544
  C 2.657388 0.180940 0.060254
  C 3.389085 0.793120 -0.911081
  C 4.782881 0.412456 -0.934559
  C 5.021730 -0.559701 -1.843707
  C 6.220166 -1.363104 -1.820476
  C 6.575740 -2.194569 -2.796229
  H 7.461678 -2.806437 -2.730932
  H 1.315244 -1.519467 0.362882
  H 2.686567 -1.584874 -0.811843
  H 1.195219 -0.747444 -1.257467
  H 3.073798 0.098886 1.055666
  H 2.911893 0.888543 -1.883935
  H 5.335998 0.438422 -0.008145
  H 4.499861 -0.541532 -2.792723
  H 6.822300 -1.294430 -0.921264
  H 6.004579 -2.275643 -3.706071
 17
 56.116396
  C 1.998937 -1.053572 -0.448111
  C 2.716304 0.131626 0.072682
  C 3.351976 0.846261 -0.900877
  C 4.741248 0.477117 -0.991502
  C 4.935098 -0.563161 -1.851333
  C 6.127641 -1.372847 -1.795514
  C 6.517174 -2.188037 -2.770570
  H 7.313919 -2.900623 -2.624695
  H 1.530079 -1.697178 0.293263
  H 2.908743 -1.560567 -0.896202
  H 1.345467 -0.845940 -1.288396
  H 3.143823 0.063785 1.065460
  H 2.833968 0.876369 -1.856172
  H 5.374360 0.587003 -0.121827
  H 4.449115 -0.540338 -2.819128
  H 6.670800 -1.355497 -0.859626
  H 5.948070 -2.293234 -3.678040
 17
 74.745886
  C 2.242957 -1.099785 -0.495817
  C 2.734326 0.141714 0.069548
  C 3.328360 0.900876 -0.941866
  C 4.678691 0.517243 -0.981081
  C 4.794204 -0.593749 -1.829015
  C 5.983467 -1.428517 -1.756980
  C 6.347498 -2.248027 -2.700859
  H 7.188508 -2.912780 -2.580735
  H 1.926060 -1.883733 0.207669
  H 3.344626 -1.425552 -1.045438
  H 1.628882 -1.032826 -1.380554
  H 3.169040 0.113890 1.046427
  H 2.797528 0.906664 -1.889004
  H 5.262278 0.552557 -0.090981
  H 4.346656 -0.538835 -2.796970
  H 6.541735 -1.375032 -0.836296
  H 5.774564 -2.359611 -3.602512
 17
 81.543820
  C 2.242914 -1.081807 -0.430804
  C 2.690369 0.141275 0.073271
  C 3.293125 0.873101 -0.970280
  C 4.632621 0.475208 -0.999283
  C 4.760117 -0.672398 -1.831202
  C 5.979782 -1.477608 -1.760854
  C 6.388475 -2.295728 -2.720630
  H 7.279720 -2.890416 -2.620526
  H 1.980306 -1.857636 0.271641
  H 3.636351 -1.408896 -1.153451
  H 1.666847 -1.102898 -1.345012
  H 3.110212 0.183147 1.068884
  H 2.768157 0.859968 -1.922366
  H 5.213936 0.505735 -0.086175
  H 4.318628 -0.622682 -2.822475
  H 6.546782 -1.394220 -0.842286
  H 5.842202 -2.403298 -3.643391
 17
 75.571551
  C 2.179481 -1.056864 -0.367146
  C 2.666794 0.112927 0.101087
  C 3.286670 0.832889 -0.991906
  C 4.593979 0.448199 -1.000363
  C 4.754699 -0.751927 -1.868015
  C 6.033978 -1.501528 -1.787422
  C 6.468818 -2.318608 -2.720905
  H 7.409848 -2.839540 -2.636936
  H 1.906465 -1.832326 0.351022
  H 3.867160 -1.412265 -1.313885
  H 1.642816 -1.094271 -1.321364
  H 3.072227 0.158902 1.080134
  H 2.763174 0.709151 -1.949932
  H 5.195259 0.495146 -0.096515
  H 4.341027 -0.688115 -2.852673
  H 6.619395 -1.336516 -0.874238
  H 5.890181 -2.509909 -3.614903
 17
 62.863916
  C 1.981595 -1.003052 -0.222266
  C 2.579415 0.161963 0.118284
  C 3.273983 0.729494 -1.026959
  C 4.589055 0.316872 -1.041524
  C 4.826322 -0.881543 -1.905004
  C 6.156419 -1.535062 -1.829393
  C 6.673838 -2.304707 -2.789597
  H 7.636702 -2.771809 -2.695328
  H 1.646129 -1.674169 0.548216
  H 4.048941 -1.550835 -1.372860
  H 1.501767 -1.147483 -1.187065
  H 2.982575 0.296492 1.111811
  H 2.743267 0.613414 -1.978086
  H 5.182003 0.393413 -0.146293
  H 4.435321 -0.815846 -2.935829
  H 6.703722 -1.362342 -0.911964
  H 6.153982 -2.469118 -3.722187
 17
 49.437186
  C 1.776746 -0.890383 -0.064211
  C 2.526487 0.199018 0.107461
  C 3.292754 0.549753 -1.074683
  C 4.576579 0.127416 -1.075254
  C 4.900843 -1.042391 -1.951350
  C 6.284124 -1.587988 -1.874187
  C 6.886541 -2.231804 -2.856415
  H 7.898830 -2.584130 -2.771557
  H 1.364584 -1.422278 0.778308
  H 4.189700 -1.755256 -1.453024
  H 1.330979 -1.129954 -1.015937
  H 2.916588 0.460068 1.079945
  H 2.755705 0.434460 -2.014039
  H 5.175321 0.237676 -0.178166
  H 4.548814 -0.948177 -2.980061
  H 6.797386 -1.424711 -0.934935
  H 6.397652 -2.409501 -3.799138
 17
 42.141607
  C 1.625124 -0.735514 0.052810
  C 2.514384 0.239744 0.122840
  C 3.277969 0.415078 -1.106583
  C 4.559318 -0.010726 -1.061513
  C 4.928945 -1.132215 -1.994876
  C 6.336413 -1.620356 -1.907944
  C 7.005195 -2.140309 -2.917591
  H 8.006032 -2.508984 -2.806548
  H 1.160150 -1.154332 0.938683
  H 4.200989 -1.849820 -1.563423
  H 1.241713 -1.087713 -0.887664
  H 2.917463 0.589385 1.067344
  H 2.730255 0.246843 -2.020524
  H 5.102343 0.024442 -0.127335
  H 4.638333 -0.938013 -3.028475
  H 6.799199 -1.537911 -0.934153
  H 6.575804 -2.217780 -3.902291
