 17
 0.000000
  C 1.011696 0.127921 0.366244
  C 2.485217 0.134258 0.386317
  C 3.200077 0.615094 1.583836
  H 2.512754 0.929077 2.363110
  C 3.159343 -0.320590 -0.742460
  C 4.547743 -0.376712 -0.881588
  C 5.135427 -0.840279 -2.038886
  H 4.526008 -1.178324 -2.874052
  O 6.409064 -0.927688 -2.267660
  H 0.580543 0.499317 1.290115
  H 0.641557 -0.881967 0.177037
  H 0.643738 0.728061 -0.468708
  H 3.850648 1.453533 1.330974
  H 3.849139 -0.166069 1.982191
  H 2.562768 -0.656273 -1.579421
  H 5.176168 -0.049773 -0.065567
  H 6.980193 -0.625960 -1.531405
 17
 0.124044
  C 1.013261 0.082939 0.396643
  C 2.481957 0.153801 0.364214
  C 3.206454 0.665092 1.541187
  H 2.524703 1.035485 2.300140
  C 3.150638 -0.285561 -0.772315
  C 4.539897 -0.380502 -0.884746
  C 5.145791 -0.802165 -2.049891
  H 4.553921 -1.035877 -2.928336
  O 6.418813 -0.955907 -2.236749
  H 0.602024 0.405428 1.347070
  H 0.677742 -0.932840 0.180799
  H 0.590685 0.697874 -0.400840
  H 3.892321 1.464354 1.262443
  H 3.811389 -0.127292 1.984910
  H 2.556026 -0.597003 -1.619997
  H 5.150967 -0.133658 -0.027557
  H 6.976017 -0.753906 -1.457567
 17
 2.244969
  C 1.007200 0.059577 0.456738
  C 2.467892 0.136456 0.312950
  C 3.245338 0.665964 1.455946
  H 2.581768 1.069985 2.217777
  C 3.107245 -0.303034 -0.836692
  C 4.499647 -0.388421 -0.914525
  C 5.190988 -0.701851 -2.065638
  H 4.694110 -0.698999 -3.030414
  O 6.454351 -0.977174 -2.144401
  H 0.656741 0.494226 1.385978
  H 0.683879 -0.982494 0.404015
  H 0.511367 0.554029 -0.380832
  H 3.918258 1.465249 1.153898
  H 3.815772 -0.129489 1.935663
  H 2.513254 -0.632844 -1.676826
  H 5.038648 -0.171941 0.001554
  H 6.927445 -0.989029 -1.286840
 17
 10.207166
  C 1.011628 0.059557 0.457352
  C 2.474699 0.118892 0.307776
  C 3.296547 0.643670 1.425618
  H 2.617144 1.018219 2.205498
  C 3.077856 -0.359211 -0.844369
  C 4.466146 -0.383757 -0.956215
  C 5.241115 -0.569791 -2.087392
  H 4.893538 -0.243499 -3.062492
  O 6.447102 -1.032949 -2.118714
  H 0.645956 0.740387 1.220578
  H 0.731762 -0.961117 0.748592
  H 0.495128 0.257244 -0.479811
  H 3.878786 1.516758 1.150009
  H 3.848731 -0.140635 1.932715
  H 2.466894 -0.762527 -1.643403
  H 4.940309 -0.089464 -0.028671
  H 6.798939 -1.346349 -1.255179
 17
 29.751664
  C 1.016693 0.007057 0.513602
  C 2.464024 0.078692 0.258703
  C 3.344457 0.637910 1.327714
  H 2.655353 0.964002 2.131835
  C 3.030396 -0.401769 -0.908197
  C 4.410700 -0.360485 -1.026416
  C 5.347251 -0.417789 -2.051928
  H 5.300604 0.263063 -2.900424
  O 6.425128 -1.124953 -2.049108
  H 0.665592 0.875112 1.064410
  H 0.799810 -0.868260 1.130080
  H 0.446798 -0.088258 -0.407543
  H 3.791122 1.598359 1.095599
  H 3.884989 -0.116543 1.893833
  H 2.419207 -0.841308 -1.681028
  H 4.771094 0.027324 -0.036246
  H 6.488436 -1.765289 -1.317579
 17
 50.905724
  C 0.998842 0.014830 0.571923
  C 2.432994 -0.003694 0.212048
  C 3.408760 0.601769 1.186917
  H 2.793660 0.956621 2.044262
  C 2.955149 -0.482816 -0.967859
  C 4.328158 -0.432541 -1.108592
  C 5.413926 -0.340217 -1.946990
  H 5.506831 0.463979 -2.677708
  O 6.468688 -1.086765 -1.924601
  H 0.727688 0.928525 1.093196
  H 0.767178 -0.823747 1.235043
  H 0.365510 -0.087528 -0.308992
  H 3.787822 1.583097 0.901660
  H 3.971141 -0.124879 1.774313
  H 2.331975 -0.932760 -1.725736
  H 4.591739 0.090329 0.019214
  H 6.394155 -1.853746 -1.327504
 17
 69.679777
  C 1.008753 -0.027243 0.580876
  C 2.428454 0.023116 0.167553
  C 3.496691 0.599152 1.086316
  H 2.974281 0.940328 2.006786
  C 2.914883 -0.467169 -1.034072
  C 4.246731 -0.403520 -1.286826
  C 5.388736 -0.328126 -1.928499
  H 5.639213 0.529433 -2.553013
  O 6.454673 -1.144652 -1.805935
  H 0.709254 0.880593 1.100202
  H 0.834548 -0.862464 1.262313
  H 0.353437 -0.168767 -0.274914
  H 3.820140 1.635701 0.839584
  H 4.063362 -0.147553 1.689094
  H 2.255337 -0.929922 -1.754646
  H 4.394889 0.310552 0.302973
  H 6.235116 -1.961682 -1.328693
 17
 68.399295
  C 1.058240 -0.073522 0.566204
  C 2.484936 0.035340 0.167335
  C 3.474483 0.654106 1.135713
  H 2.924798 1.053497 2.019432
  C 2.954963 -0.449327 -1.044426
  C 4.241322 -0.410571 -1.438075
  C 5.402884 -0.354122 -2.014417
  H 5.724862 0.506886 -2.594546
  O 6.420608 -1.266161 -1.919917
  H 0.729129 0.799100 1.129039
  H 0.895086 -0.949890 1.198857
  H 0.411608 -0.185465 -0.300638
  H 3.717187 1.717847 0.872602
  H 3.899867 -0.097298 1.863041
  H 2.245132 -0.904059 -1.726297
  H 4.482245 0.482514 0.661533
  H 6.115846 -2.075966 -1.484147
 17
 69.562491
  C 1.067400 -0.092407 0.571846
  C 2.495332 0.048852 0.174116
  C 3.463237 0.714933 1.130267
  H 2.877670 1.271806 1.898069
  C 2.957301 -0.452003 -1.033342
  C 4.236954 -0.413823 -1.456726
  C 5.397408 -0.362537 -2.044543
  H 5.712473 0.493119 -2.641596
  O 6.423563 -1.277697 -1.953005
  H 0.784148 0.611432 1.350864
  H 0.864535 -1.101444 0.943973
  H 0.404512 0.057675 -0.279370
  H 3.886579 1.658717 0.714067
  H 3.736986 0.079113 2.038762
  H 2.234348 -0.918178 -1.696052
  H 4.471382 0.259861 0.902692
  H 6.123921 -2.085814 -1.503542
 17
 75.207381
  C 1.055137 -0.105556 0.576450
  C 2.489684 0.065029 0.187258
  C 3.442720 0.779673 1.132197
  H 2.808542 1.429256 1.777186
  C 2.970592 -0.442008 -1.022912
  C 4.252890 -0.378804 -1.426567
  C 5.414862 -0.349715 -2.060041
  H 5.732218 0.528936 -2.656828
  O 6.440240 -1.321356 -2.034852
  H 0.788176 0.473219 1.458578
  H 0.828349 -1.159834 0.778943
  H 0.389793 0.196132 -0.235110
  H 4.058862 1.540853 0.616192
  H 3.717608 0.321532 2.168793
  H 2.257372 -0.917616 -1.692412
  H 4.305501 -0.003995 1.163921
  H 6.129339 -2.152396 -1.583682
 17
 75.413603
  C 1.068758 -0.136706 0.568574
  C 2.483655 0.039113 0.159990
  C 3.465213 0.774789 1.113435
  H 2.797597 1.481965 1.628339
  C 2.956499 -0.425813 -1.057818
  C 4.235792 -0.380038 -1.466426
  C 5.417722 -0.304445 -1.995014
  H 5.750905 0.573624 -2.540545
  O 6.426633 -1.223888 -1.922341
  H 0.838210 0.365019 1.502174
  H 0.822648 -1.194317 0.681746
  H 0.397592 0.248650 -0.199662
  H 4.191859 1.326428 0.510798
  H 3.938960 0.556440 2.158582
  H 2.232639 -0.858919 -1.739386
  H 3.872104 -0.283228 1.292387
  H 6.117452 -2.039547 -1.509494
 17
 71.100619
  C 1.117630 -0.178975 0.602063
  C 2.530811 -0.000475 0.178094
  C 3.512735 0.848210 1.159171
  H 2.799113 1.571699 1.576903
  C 2.987250 -0.414285 -1.086125
  C 4.256309 -0.364683 -1.503417
  C 5.464075 -0.304727 -1.973776
  H 5.824836 0.584541 -2.480836
  O 6.444327 -1.243226 -1.897207
  H 0.908460 0.284633 1.559695
  H 0.856314 -1.234067 0.672506
  H 0.445549 0.252634 -0.142041
  H 4.250828 1.357439 0.543594
  H 3.976068 0.559120 2.128653
  H 2.243736 -0.806838 -1.766152
  H 3.466134 -0.378217 1.020470
  H 6.114434 -2.068438 -1.512328
 17
 48.709738
  C 1.169353 -0.263551 0.700477
  C 2.618218 -0.099542 0.348082
  C 3.335870 1.068825 1.121473
  H 2.576897 1.807742 1.384609
  C 3.122762 -0.403738 -0.988995
  C 4.352422 -0.273753 -1.411920
  C 5.591701 -0.318545 -1.859064
  H 6.134087 0.612569 -2.020667
  O 6.320912 -1.376407 -2.149972
  H 0.953886 0.175239 1.669281
  H 0.870237 -1.307914 0.707895
  H 0.543585 0.243192 -0.035006
  H 4.067181 1.558876 0.487857
  H 3.788349 0.795481 2.070554
  H 2.366612 -0.716550 -1.709765
  H 3.287283 -0.740101 0.996582
  H 5.836417 -2.217613 -2.073096
 17
 37.113983
  C 1.231075 -0.310715 0.722252
  C 2.718154 -0.124826 0.500261
  C 3.264132 1.153017 1.162444
  H 2.458312 1.860312 1.350006
  C 3.171677 -0.254424 -0.941132
  C 4.368143 -0.280728 -1.391362
  C 5.589614 -0.385274 -1.965995
  H 6.131532 0.518919 -2.247778
  O 6.231729 -1.479278 -2.221817
  H 0.964422 0.018622 1.722353
  H 0.942251 -1.354193 0.616132
  H 0.646722 0.278198 0.017539
  H 4.003515 1.653273 0.543635
  H 3.717591 0.913983 2.120318
  H 2.343047 -0.349558 -1.640005
  H 3.260358 -0.938208 1.004777
  H 5.764231 -2.313841 -1.998702
 17
 36.288745
  C 1.219338 -0.320652 0.704881
  C 2.719633 -0.191887 0.516963
  C 3.282738 1.090573 1.184315
  H 2.483648 1.813791 1.328980
  C 3.135518 -0.161913 -0.942046
  C 4.319367 -0.296961 -1.383040
  C 5.488774 -0.387287 -2.020745
  H 5.840752 0.491574 -2.565440
  O 6.306235 -1.390768 -2.079397
  H 0.954348 -0.027841 1.716690
  H 0.891351 -1.347963 0.564152
  H 0.673192 0.316198 0.013749
  H 4.052730 1.570227 0.586573
  H 3.708773 0.836348 2.150205
  H 2.309476 -0.065632 -1.642284
  H 3.224328 -1.046533 0.975024
  H 6.044146 -2.193357 -1.582938
