 19
 0.000000
  C 1.004656 0.119622 0.344703
  C 2.474514 0.122104 0.357956
  C 3.203021 0.597446 1.539676
  H 2.541529 0.919119 2.337823
  C 3.124151 -0.336297 -0.782528
  C 4.509007 -0.401734 -0.950040
  C 5.144387 -0.855616 -2.084801
  C 4.533167 -1.348889 -3.315362
  H 3.449428 -1.355592 -3.330545
  H 6.228046 -0.857453 -2.092183
  H 0.573502 0.494547 1.267378
  H 0.632868 -0.890385 0.160813
  H 0.642833 0.718502 -0.493358
  H 3.859992 1.425487 1.268201
  H 3.859039 -0.188402 1.917897
  H 2.486999 -0.661717 -1.592720
  H 5.136558 -0.073483 -0.133526
  H 4.910629 -2.356145 -3.511047
  H 4.909759 -0.754940 -4.152480
 19
 2.124439
  C 1.040084 0.082595 0.301995
  C 2.506489 0.119774 0.399591
  C 3.198953 0.628452 1.589815
  H 2.502927 0.941460 2.359762
  C 3.145208 -0.332333 -0.740004
  C 4.529283 -0.424581 -0.936511
  C 5.141482 -0.871270 -2.098660
  C 4.491806 -1.327980 -3.327714
  H 3.409523 -1.303831 -3.297415
  H 6.224450 -0.889888 -2.114306
  H 0.523139 0.531608 1.144752
  H 0.689994 -0.945850 0.176176
  H 0.788335 0.579990 -0.646894
  H 3.841961 1.468271 1.325079
  H 3.863281 -0.134441 1.997598
  H 2.436287 -0.609127 -1.529228
  H 5.171585 -0.125707 -0.119189
  H 4.832358 -2.340886 -3.556474
  H 4.852121 -0.727207 -4.166446
 19
 6.418202
  C 1.076741 0.064696 0.258837
  C 2.531111 0.121605 0.425971
  C 3.184417 0.637839 1.616644
  H 2.460084 0.945290 2.375505
  C 3.169040 -0.326366 -0.723110
  C 4.546651 -0.439637 -0.941390
  C 5.128779 -0.876436 -2.104580
  C 4.448693 -1.303654 -3.315041
  H 3.365297 -1.259585 -3.252553
  H 6.211359 -0.910904 -2.137420
  H 0.490654 0.584682 1.010398
  H 0.753382 -0.974875 0.222881
  H 0.940159 0.427580 -0.762300
  H 3.822471 1.489764 1.356659
  H 3.855884 -0.117811 2.042862
  H 2.395327 -0.558965 -1.477421
  H 5.203035 -0.160205 -0.122526
  H 4.764520 -2.319325 -3.563232
  H 4.797962 -0.698397 -4.154522
 19
 12.708601
  C 1.098088 0.049803 0.223161
  C 2.540118 0.122271 0.448850
  C 3.174342 0.650759 1.661714
  H 2.448220 0.946469 2.397937
  C 3.182556 -0.319647 -0.703217
  C 4.551822 -0.446243 -0.936444
  C 5.118329 -0.880353 -2.115893
  C 4.416526 -1.290627 -3.326966
  H 3.341922 -1.236635 -3.251418
  H 6.196717 -0.927259 -2.163287
  H 0.465647 0.644241 0.877426
  H 0.774798 -0.996032 0.288325
  H 1.071311 0.283466 -0.857590
  H 3.800191 1.500947 1.412200
  H 3.842779 -0.085445 2.095782
  H 2.376927 -0.513685 -1.427206
  H 5.215426 -0.182992 -0.127481
  H 4.717903 -2.306202 -3.587617
  H 4.760176 -0.681475 -4.164088
 19
 20.541005
  C 1.111853 0.038000 0.202247
  C 2.545644 0.115725 0.461176
  C 3.163647 0.653867 1.676470
  H 2.423953 0.950718 2.407174
  C 3.193386 -0.325291 -0.690833
  C 4.559571 -0.456988 -0.935683
  C 5.110401 -0.880312 -2.117781
  C 4.393388 -1.273246 -3.326973
  H 3.318239 -1.212659 -3.239221
  H 6.189260 -0.934943 -2.175173
  H 0.464262 0.693461 0.768124
  H 0.772360 -0.989101 0.358052
  H 1.172877 0.153069 -0.914987
  H 3.789822 1.512986 1.423560
  H 3.838566 -0.079894 2.124859
  H 2.341916 -0.479446 -1.402416
  H 5.232156 -0.203805 -0.129829
  H 4.685650 -2.288952 -3.601101
  H 4.732285 -0.656790 -4.161854
 19
 29.878940
  C 1.117087 0.044778 0.185646
  C 2.549030 0.114946 0.468276
  C 3.154369 0.635154 1.692539
  H 2.405814 0.925382 2.421121
  C 3.204185 -0.318671 -0.684240
  C 4.568793 -0.439614 -0.941968
  C 5.111860 -0.868883 -2.129697
  C 4.381565 -1.274622 -3.329550
  H 3.303622 -1.219590 -3.226261
  H 6.189756 -0.918184 -2.197248
  H 0.471163 0.767906 0.670631
  H 0.741430 -0.956972 0.426322
  H 1.250037 0.042985 -0.950389
  H 3.781757 1.493553 1.455178
  H 3.821111 -0.102538 2.137443
  H 2.298720 -0.461431 -1.376012
  H 5.248875 -0.168133 -0.143764
  H 4.677381 -2.291239 -3.601550
  H 4.704918 -0.660218 -4.173818
 19
 40.752090
  C 1.119363 0.058277 0.172799
  C 2.547579 0.117656 0.465974
  C 3.148214 0.604509 1.709965
  H 2.398786 0.881767 2.437239
  C 3.209603 -0.308109 -0.684639
  C 4.574802 -0.404805 -0.956485
  C 5.111133 -0.848800 -2.137596
  C 4.372030 -1.288260 -3.322788
  H 3.292714 -1.246759 -3.206635
  H 6.189843 -0.886600 -2.215094
  H 0.486687 0.831061 0.601902
  H 0.708347 -0.909057 0.460021
  H 1.309036 -0.028956 -0.986768
  H 3.782959 1.462643 1.499166
  H 3.802601 -0.149062 2.142136
  H 2.251227 -0.454297 -1.360585
  H 5.256921 -0.092604 -0.177572
  H 4.680560 -2.305706 -3.579086
  H 4.674721 -0.684056 -4.182648
 19
 51.353521
  C 1.117846 0.080002 0.168278
  C 2.546087 0.117882 0.462616
  C 3.144980 0.567467 1.723937
  H 2.391347 0.837854 2.453974
  C 3.214071 -0.297953 -0.683651
  C 4.576993 -0.361886 -0.974065
  C 5.110117 -0.825281 -2.146363
  C 4.366636 -1.310476 -3.314290
  H 3.291890 -1.288688 -3.184968
  H 6.186505 -0.845722 -2.232877
  H 0.508988 0.887515 0.559617
  H 0.667809 -0.868435 0.468905
  H 1.347882 -0.070296 -1.018509
  H 3.794007 1.421336 1.539879
  H 3.781682 -0.207856 2.142728
  H 2.203247 -0.447851 -1.354406
  H 5.261244 0.003579 -0.213524
  H 4.693875 -2.326136 -3.548563
  H 4.642854 -0.720634 -4.191516
 19
 60.534436
  C 1.113995 0.111586 0.167368
  C 2.546099 0.115574 0.459782
  C 3.143578 0.514467 1.743218
  H 2.386108 0.778724 2.473567
  C 3.219978 -0.283706 -0.679970
  C 4.576684 -0.302536 -1.000070
  C 5.108812 -0.792757 -2.160617
  C 4.365558 -1.345630 -3.296493
  H 3.293051 -1.357526 -3.145390
  H 6.185302 -0.783417 -2.262426
  H 0.534566 0.953985 0.529862
  H 0.623315 -0.814930 0.461525
  H 1.366049 -0.094468 -1.057519
  H 3.814509 1.358805 1.594278
  H 3.754148 -0.291571 2.145311
  H 2.161820 -0.438892 -1.363944
  H 5.253426 0.133808 -0.273550
  H 4.725793 -2.357226 -3.500352
  H 4.600919 -0.775408 -4.198767
 19
 68.556163
  C 1.116768 0.131171 0.173592
  C 2.545318 0.114308 0.453058
  C 3.135904 0.473913 1.757156
  H 2.377000 0.724244 2.479714
  C 3.232947 -0.262781 -0.670678
  C 4.581464 -0.257944 -1.019172
  C 5.107370 -0.768223 -2.169295
  C 4.359317 -1.376185 -3.279798
  H 3.281296 -1.416127 -3.105944
  H 6.175982 -0.735174 -2.287653
  H 0.560325 0.990675 0.525766
  H 0.599726 -0.786660 0.443094
  H 1.376995 -0.102026 -1.107865
  H 3.820085 1.317707 1.640010
  H 3.729645 -0.355030 2.145007
  H 2.132753 -0.423988 -1.393725
  H 5.258621 0.230331 -0.313962
  H 4.742440 -2.374331 -3.460802
  H 4.557523 -0.826984 -4.195518
 19
 76.539953
  C 1.106796 0.158160 0.202491
  C 2.541652 0.115302 0.448890
  C 3.135353 0.425436 1.770144
  H 2.368637 0.663644 2.503576
  C 3.245497 -0.234225 -0.661635
  C 4.583819 -0.209046 -1.043217
  C 5.106632 -0.742769 -2.180324
  C 4.360602 -1.413969 -3.255907
  H 3.299633 -1.486037 -3.058236
  H 6.178815 -0.680160 -2.319825
  H 0.572907 1.028699 0.561995
  H 0.569745 -0.755947 0.427952
  H 1.360098 -0.091562 -1.182844
  H 3.826621 1.259267 1.683719
  H 3.709597 -0.422846 2.130452
  H 2.085457 -0.398539 -1.456339
  H 5.248284 0.328256 -0.376916
  H 4.778341 -2.413204 -3.411932
  H 4.518201 -0.883322 -4.199158
 19
 83.718195
  C 1.101180 0.167226 0.236473
  C 2.536805 0.116844 0.438990
  C 3.131438 0.385206 1.779542
  H 2.363040 0.601856 2.511919
  C 3.265434 -0.202330 -0.649795
  C 4.588655 -0.169669 -1.062549
  C 5.104971 -0.724544 -2.190446
  C 4.356922 -1.454604 -3.227210
  H 3.298365 -1.558578 -2.996495
  H 6.165442 -0.633311 -2.354993
  H 0.578054 1.024665 0.632247
  H 0.556982 -0.755933 0.380665
  H 1.346394 -0.046906 -1.281297
  H 3.826349 1.221452 1.723204
  H 3.696499 -0.481945 2.114471
  H 2.046218 -0.344159 -1.548142
  H 5.251247 0.413669 -0.424254
  H 4.802829 -2.441095 -3.362527
  H 4.469340 -0.947832 -4.187299
 19
 89.166890
  C 1.095747 0.175398 0.281584
  C 2.526134 0.114613 0.428035
  C 3.130535 0.331302 1.784358
  H 2.360087 0.523173 2.526966
  C 3.284798 -0.161550 -0.639978
  C 4.589800 -0.117903 -1.087824
  C 5.101342 -0.700286 -2.202089
  C 4.352507 -1.504180 -3.185951
  H 3.307679 -1.643297 -2.914909
  H 6.154826 -0.574889 -2.399297
  H 0.583380 1.006320 0.737362
  H 0.542765 -0.750469 0.317168
  H 1.319263 0.023275 -1.408002
  H 3.824063 1.166191 1.756421
  H 3.687333 -0.550695 2.081461
  H 2.002686 -0.273872 -1.674642
  H 5.242725 0.513436 -0.491152
  H 4.833385 -2.475328 -3.294996
  H 4.411708 -1.034252 -4.166700
 19
 93.114229
  C 1.085344 0.164743 0.321992
  C 2.512181 0.106149 0.421263
  C 3.129249 0.297991 1.783080
  H 2.364422 0.471485 2.529719
  C 3.297581 -0.145014 -0.632570
  C 4.587570 -0.095784 -1.101957
  C 5.096388 -0.690042 -2.211052
  C 4.346251 -1.531110 -3.164813
  H 3.311788 -1.687523 -2.869791
  H 6.146805 -0.545074 -2.428488
  H 0.580417 0.970399 0.834239
  H 0.530096 -0.760582 0.290744
  H 1.277738 0.066717 -1.540546
  H 3.820487 1.139213 1.766312
  H 3.689097 -0.593230 2.056562
  H 1.948612 -0.235303 -1.808310
  H 5.238063 0.563492 -0.525922
  H 4.844913 -2.492534 -3.262796
  H 4.375505 -1.081495 -4.155647
