 14
 0.000000
  C 0.939474 0.147767 0.417657
  C 2.391819 0.105200 0.313814
  H 2.980420 0.443211 1.156308
  C 3.044439 -0.346400 -0.810545
  C 4.438945 -0.384602 -0.907546
  C 5.134198 -0.829797 -2.017352
  H 4.635954 -1.189274 -2.911529
  O 6.422637 -0.861967 -2.099764
  H 0.601686 0.532002 1.374237
  H 0.519085 -0.848101 0.256512
  H 0.520201 0.756262 -0.387554
  H 2.458370 -0.685596 -1.654807
  H 5.026680 -0.044398 -0.061949
  H 6.888643 -0.540362 -1.299098
 14
 18.820714
  C 0.959240 0.153770 0.434939
  C 2.438595 0.097556 0.290092
  H 3.036019 0.433521 1.124878
  C 3.041544 -0.360824 -0.852247
  C 4.499288 -0.423168 -1.006340
  C 5.095273 -0.860718 -2.095292
  H 4.688763 -1.235209 -3.029510
  O 6.320824 -0.794936 -1.928666
  H 0.668372 0.543966 1.406983
  H 0.542944 -0.847418 0.285184
  H 0.540756 0.771889 -0.365607
  H 2.435268 -0.695735 -1.684148
  H 5.068413 -0.076966 -0.146158
  H 6.665055 -0.449505 -1.060227
 14
 66.947542
  C 0.912865 0.167085 0.467177
  C 2.495131 0.087075 0.266805
  H 3.098368 0.419933 1.092218
  C 3.041170 -0.375302 -0.883691
  C 4.576993 -0.454591 -1.082966
  C 5.104491 -0.891737 -2.174206
  H 4.811699 -1.275607 -3.133577
  O 6.270723 -0.744819 -1.807427
  H 0.677950 0.561108 1.445271
  H 0.501286 -0.830315 0.336969
  H 0.500617 0.795230 -0.318102
  H 2.425423 -0.704277 -1.701916
  H 5.064214 -0.098531 -0.194299
  H 6.524269 -0.397533 -0.934025
 14
 123.104694
  C 0.851109 0.145517 0.492355
  C 2.468387 0.137372 0.233512
  H 3.033490 0.494649 1.074828
  C 2.930602 -0.299015 -0.893440
  C 4.745980 -0.453190 -1.121975
  C 5.100568 -0.944648 -2.228056
  H 4.837314 -1.328483 -3.187565
  O 6.320300 -0.736814 -1.779050
  H 0.687623 0.532242 1.489367
  H 0.480390 -0.873547 0.405548
  H 0.401190 0.785877 -0.257437
  H 2.435475 -0.634296 -1.780646
  H 5.063351 -0.094522 -0.161616
  H 6.650572 -0.471014 -0.901158
 14
 152.423113
  C 0.749965 0.189368 0.562998
  C 2.314706 0.101681 0.224191
  H 2.936302 0.441350 1.039422
  C 2.734569 -0.335157 -0.907705
  C 4.998129 -0.475975 -1.159544
  C 5.226265 -0.963697 -2.294148
  H 4.965789 -1.341585 -3.256365
  O 6.496626 -0.728295 -1.795745
  H 0.643956 0.576667 1.567627
  H 0.326298 -0.806115 0.496686
  H 0.275071 0.845783 -0.154958
  H 2.287336 -0.683280 -1.805021
  H 5.143956 -0.087868 -0.176987
  H 6.903495 -0.480004 -0.937904
 14
 162.124966
  C 0.616632 0.231731 0.632611
  C 2.119474 0.090538 0.259173
  H 2.783465 0.375232 1.060206
  C 2.541875 -0.361433 -0.875257
  C 5.271647 -0.491937 -1.214752
  C 5.394341 -0.991862 -2.367428
  H 5.131328 -1.375441 -3.330183
  O 6.714094 -0.717804 -1.848297
  H 0.533069 0.610023 1.645682
  H 0.140194 -0.740489 0.569022
  H 0.132572 0.917820 -0.062214
  H 2.062779 -0.734245 -1.755236
  H 5.301910 -0.047587 -0.244132
  H 7.227058 -0.509787 -1.034206
 14
 147.563352
  C 0.482041 0.227962 0.694570
  C 1.955665 0.183438 0.277771
  H 2.632013 0.383621 1.103201
  C 2.402512 -0.285599 -0.837774
  C 5.582333 -0.391293 -1.264615
  C 5.498691 -1.062391 -2.339731
  H 5.251429 -1.558811 -3.250052
  O 6.884407 -0.542294 -1.964886
  H 0.393755 0.533328 1.732485
  H 0.027324 -0.749447 0.567041
  H -0.057820 0.937956 0.072440
  H 2.015264 -0.624143 -1.768975
  H 5.336986 0.021167 -0.313623
  H 7.491476 -0.812132 -1.226173
 14
 137.218086
  C 0.415718 0.258367 0.688735
  C 1.903274 0.059102 0.409267
  H 2.531834 0.258129 1.270909
  C 2.414390 -0.342666 -0.707327
  C 5.580435 -0.372246 -1.277594
  C 5.605735 -1.083030 -2.335595
  H 5.391256 -1.574508 -3.257786
  O 6.881455 -0.402671 -1.964422
  H 0.271514 0.685559 1.675859
  H -0.099236 -0.698082 0.637416
  H -0.020161 0.920503 -0.056045
  H 2.074386 -0.606228 -1.681350
  H 5.268269 0.053505 -0.349568
  H 7.553373 -0.975512 -1.507000
