 18
 0.000000
  C 0.896411 0.055938 0.222650
  C 2.396285 0.058287 0.120239
  C 3.249336 -0.009640 1.370766
  C 2.531981 -0.094424 2.715396
  C 3.540324 -0.156362 3.858302
  C 2.992339 0.121954 -1.062004
  H 2.446065 0.175605 -1.988437
  H 4.066055 0.123502 -1.154704
  H 0.555632 0.020450 1.251500
  H 0.474987 -0.806524 -0.290847
  H 0.484517 0.955434 -0.232941
  H 3.895528 0.873591 1.386421
  H 3.907431 -0.879644 1.282539
  H 1.905053 -0.988120 2.751751
  H 1.894162 0.780653 2.858148
  H 4.180787 -1.030193 3.758247
  H 3.027421 -0.216841 4.815838
  H 4.169621 0.731206 3.863497
 18
 5.680212
  C 0.889685 0.116397 0.231328
  C 2.351033 0.060214 0.114586
  C 3.246344 -0.005582 1.385751
  C 2.537307 -0.103233 2.724846
  C 3.546429 -0.162780 3.866101
  C 2.954228 0.100769 -1.066826
  H 2.396879 0.157164 -1.988942
  H 4.026797 0.065168 -1.160797
  H 0.499604 0.057210 1.239864
  H 0.713540 -0.790628 -0.325187
  H 0.450605 0.973345 -0.271451
  H 3.880297 0.881786 1.395090
  H 3.910808 -0.864234 1.283732
  H 1.917447 -1.003200 2.754482
  H 1.892328 0.766896 2.871356
  H 4.194966 -1.030665 3.759447
  H 3.035944 -0.232633 4.824124
  H 4.168659 0.730331 3.873708
 18
 17.540181
  C 0.883884 0.163097 0.256835
  C 2.328940 0.067123 0.123437
  C 3.253615 0.003622 1.370469
  C 2.535066 -0.110507 2.719568
  C 3.537298 -0.169512 3.864576
  C 2.928414 0.077629 -1.057993
  H 2.372731 0.147844 -1.977264
  H 3.989796 -0.006065 -1.154300
  H 0.474692 0.069808 1.246233
  H 0.921084 -0.744874 -0.293815
  H 0.430349 0.971811 -0.284350
  H 3.871080 0.905612 1.368813
  H 3.926976 -0.848442 1.248128
  H 1.920562 -1.014731 2.738736
  H 1.880905 0.752746 2.866883
  H 4.194619 -1.032640 3.754827
  H 3.022354 -0.249749 4.820092
  H 4.153244 0.729940 3.880312
 18
 31.596721
  C 0.861491 0.201260 0.263260
  C 2.308215 0.071645 0.111739
  C 3.246667 0.008270 1.377740
  C 2.536474 -0.120760 2.720676
  C 3.542590 -0.179751 3.860199
  C 2.919081 0.062391 -1.070521
  H 2.376047 0.147298 -1.992119
  H 3.979793 -0.049040 -1.157201
  H 0.448508 0.134093 1.256841
  H 1.073818 -0.733570 -0.233425
  H 0.384144 0.952738 -0.346495
  H 3.847494 0.918793 1.375776
  H 3.929689 -0.832626 1.249402
  H 1.929864 -1.030045 2.735780
  H 1.877335 0.736374 2.876837
  H 4.205397 -1.035929 3.742322
  H 3.032272 -0.270369 4.815752
  H 4.150668 0.723462 3.879569
 18
 44.780050
  C 0.859312 0.227908 0.280729
  C 2.300870 0.070771 0.106311
  C 3.222673 0.006546 1.359270
  C 2.521891 -0.128225 2.714981
  C 3.548451 -0.186619 3.854319
  C 2.923003 0.053899 -1.075336
  H 2.386323 0.142186 -2.011241
  H 3.993840 -0.061195 -1.148887
  H 0.458925 0.180057 1.270703
  H 1.206294 -0.708506 -0.158516
  H 0.356234 0.922537 -0.369446
  H 3.813274 0.917515 1.353760
  H 3.905849 -0.827759 1.230319
  H 1.912884 -1.047037 2.734046
  H 1.856093 0.733574 2.880936
  H 4.217045 -1.044945 3.728684
  H 3.044884 -0.281209 4.821515
  H 4.157540 0.723426 3.869996
 18
 53.664992
  C 0.852867 0.254879 0.296723
  C 2.298555 0.067674 0.106649
  C 3.220345 0.004340 1.369072
  C 2.524602 -0.133791 2.708203
  C 3.539011 -0.192985 3.831171
  C 2.924443 0.048371 -1.084198
  H 2.391359 0.141598 -2.004260
  H 3.986791 -0.066745 -1.157451
  H 0.458513 0.236110 1.290311
  H 1.307248 -0.705346 -0.083878
  H 0.328857 0.882846 -0.400228
  H 3.810241 0.925551 1.366492
  H 3.914911 -0.832417 1.242916
  H 1.925246 -1.040903 2.725412
  H 1.868001 0.713731 2.876178
  H 4.200005 -1.039011 3.704149
  H 3.042493 -0.289580 4.786023
  H 4.138491 0.706224 3.848041
 18
 60.345320
  C 0.849821 0.281146 0.297022
  C 2.294278 0.068601 0.100484
  C 3.212295 0.007664 1.357358
  C 2.518533 -0.138035 2.708612
  C 3.550482 -0.204137 3.840389
  C 2.921462 0.046198 -1.097061
  H 2.389523 0.143043 -2.004694
  H 3.993940 -0.071933 -1.171151
  H 0.462821 0.293177 1.274641
  H 1.391054 -0.699651 -0.016244
  H 0.304067 0.831129 -0.452236
  H 3.796899 0.928881 1.354374
  H 3.908768 -0.821948 1.227908
  H 1.910611 -1.056964 2.724902
  H 1.855666 0.719428 2.887576
  H 4.215046 -1.054869 3.706418
  H 3.055842 -0.305659 4.804006
  H 4.154971 0.700138 3.859547
 18
 65.260948
  C 0.849466 0.309988 0.296145
  C 2.294235 0.067701 0.101164
  C 3.215860 0.010975 1.363556
  C 2.523729 -0.140750 2.705454
  C 3.550744 -0.214437 3.833774
  C 2.923324 0.043498 -1.104860
  H 2.383581 0.143318 -2.016923
  H 3.985454 -0.071680 -1.178241
  H 0.452918 0.356455 1.286965
  H 1.461531 -0.706705 0.045191
  H 0.293681 0.769439 -0.494929
  H 3.794869 0.930728 1.364776
  H 3.913963 -0.811925 1.233884
  H 1.917298 -1.054147 2.714983
  H 1.865825 0.711750 2.887051
  H 4.211484 -1.062053 3.696491
  H 3.056228 -0.320089 4.793316
  H 4.154092 0.685170 3.858325
 18
 69.432731
  C 0.845733 0.336527 0.293603
  C 2.289189 0.066649 0.104440
  C 3.221218 0.015597 1.363613
  C 2.527505 -0.143443 2.704930
  C 3.553128 -0.226159 3.836278
  C 2.921093 0.042219 -1.107506
  H 2.378905 0.138389 -2.018804
  H 3.987079 -0.073337 -1.181222
  H 0.439824 0.410743 1.273730
  H 1.514523 -0.709254 0.092528
  H 0.277441 0.712870 -0.534271
  H 3.798766 0.941017 1.365059
  H 3.925418 -0.808260 1.225940
  H 1.925099 -1.046229 2.707659
  H 1.873828 0.703611 2.889081
  H 4.218132 -1.082550 3.693091
  H 3.053968 -0.336926 4.797023
  H 4.162650 0.680365 3.867089
 18
 73.136506
  C 0.852262 0.363949 0.288522
  C 2.291356 0.063102 0.100581
  C 3.232040 0.020174 1.359201
  C 2.533196 -0.146487 2.708929
  C 3.559660 -0.235134 3.847421
  C 2.921197 0.040701 -1.118152
  H 2.367302 0.136335 -2.039468
  H 3.983397 -0.080557 -1.195344
  H 0.429715 0.451976 1.272037
  H 1.564679 -0.717260 0.118970
  H 0.277692 0.668642 -0.555533
  H 3.800282 0.942006 1.359163
  H 3.932028 -0.792528 1.216624
  H 1.923888 -1.057055 2.706159
  H 1.877874 0.701196 2.894925
  H 4.215967 -1.079546 3.704434
  H 3.060729 -0.349466 4.804625
  H 4.162590 0.658683 3.883704
 18
 76.081790
  C 0.853307 0.393578 0.290088
  C 2.288122 0.055874 0.107885
  C 3.233299 0.021413 1.365722
  C 2.537046 -0.150329 2.702643
  C 3.559079 -0.242633 3.839414
  C 2.923118 0.036768 -1.116999
  H 2.373707 0.130997 -2.027323
  H 3.987202 -0.090013 -1.194062
  H 0.419163 0.479643 1.261715
  H 1.602378 -0.732376 0.143635
  H 0.267774 0.641666 -0.571288
  H 3.798102 0.950917 1.366824
  H 3.942766 -0.794965 1.219480
  H 1.935806 -1.049994 2.694572
  H 1.884008 0.690470 2.889184
  H 4.225900 -1.099118 3.691150
  H 3.054817 -0.361909 4.799970
  H 4.169582 0.665467 3.880179
 18
 78.551592
  C 0.861101 0.427089 0.285159
  C 2.288280 0.047054 0.107182
  C 3.239950 0.022772 1.365882
  C 2.542245 -0.156356 2.705649
  C 3.564854 -0.249676 3.844303
  C 2.925209 0.030400 -1.124876
  H 2.368975 0.124874 -2.039857
  H 3.987961 -0.103804 -1.201982
  H 0.414516 0.500047 1.257758
  H 1.643747 -0.754653 0.152611
  H 0.269168 0.627269 -0.582006
  H 3.795456 0.953895 1.366472
  H 3.948640 -0.782981 1.217518
  H 1.940520 -1.063403 2.694499
  H 1.882492 0.687094 2.895943
  H 4.229346 -1.097540 3.694929
  H 3.063592 -0.372712 4.798075
  H 4.167316 0.652086 3.888263
 18
 79.233283
  C 0.870823 0.492360 0.279826
  C 2.276401 0.032354 0.109796
  C 3.240514 0.025868 1.373176
  C 2.549452 -0.165301 2.710468
  C 3.570401 -0.257047 3.836627
  C 2.931323 0.021161 -1.124535
  H 2.382492 0.119213 -2.042965
  H 3.992951 -0.135272 -1.191199
  H 0.400165 0.507618 1.241436
  H 1.674864 -0.801957 0.157181
  H 0.261129 0.628570 -0.592921
  H 3.782125 0.968955 1.371561
  H 3.961837 -0.774751 1.219771
  H 1.953030 -1.077558 2.696238
  H 1.882509 0.675467 2.908227
  H 4.238906 -1.098801 3.680000
  H 3.072844 -0.388619 4.793149
  H 4.168854 0.650714 3.882242
 18
 79.444299
  C 0.888801 0.550910 0.279330
  C 2.268956 0.013959 0.116800
  C 3.237659 0.025929 1.373852
  C 2.552358 -0.178898 2.710628
  C 3.575565 -0.264540 3.833700
  C 2.932130 0.002272 -1.126739
  H 2.383374 0.099482 -2.043771
  H 3.992021 -0.165193 -1.190680
  H 0.396584 0.508760 1.231451
  H 1.714829 -0.850113 0.155740
  H 0.275596 0.655254 -0.597566
  H 3.762730 0.978267 1.372137
  H 3.972734 -0.763475 1.218158
  H 1.966898 -1.096543 2.692496
  H 1.876115 0.652896 2.912808
  H 4.253904 -1.099335 3.672343
  H 3.080486 -0.405094 4.791380
  H 4.163779 0.649999 3.882391
