 23
 0.000000
  C 1.002899 0.128296 0.369714
  C 2.475778 0.142359 0.404970
  C 3.230275 0.616385 1.584810
  C 2.429147 1.100558 2.789773
  C 3.364545 1.549602 3.908694
  C 3.126028 -0.317502 -0.739134
  C 4.508142 -0.388414 -0.916607
  C 5.130940 -0.845585 -2.054739
  H 4.613730 -1.201111 -2.938004
  O 6.421225 -0.905493 -2.207508
  H 0.544691 0.494356 1.280533
  H 0.647411 -0.886078 0.182152
  H 0.647592 0.731115 -0.467472
  H 3.891291 1.429907 1.263980
  H 3.891024 -0.193160 1.916061
  H 1.791557 0.299071 3.166817
  H 1.791996 1.940476 2.507625
  H 3.999942 0.730802 4.238759
  H 2.790151 1.893641 4.765138
  H 4.000444 2.368900 3.580946
  H 2.499625 -0.646445 -1.557404
  H 5.134571 -0.059075 -0.097351
  H 6.932947 -0.593052 -1.434035
 23
 0.199476
  C 1.021972 0.243326 0.299069
  C 2.489247 0.161641 0.401790
  C 3.218414 0.759242 1.540311
  C 2.423342 1.011948 2.822087
  C 3.351808 1.472509 3.941394
  C 3.160209 -0.461500 -0.646223
  C 4.546446 -0.513350 -0.816220
  C 5.113720 -0.922240 -2.004377
  H 4.498569 -1.276506 -2.824362
  O 6.380154 -0.923252 -2.284049
  H 0.560262 0.737895 1.144199
  H 0.598322 -0.756481 0.192385
  H 0.748025 0.772523 -0.615512
  H 3.624154 1.722189 1.203626
  H 4.082971 0.138577 1.787726
  H 1.922318 0.093016 3.131230
  H 1.665538 1.780092 2.665045
  H 4.108365 0.721104 4.156056
  H 2.785890 1.646880 4.853140
  H 3.852897 2.400399 3.675187
  H 2.554984 -0.882086 -1.438192
  H 5.195093 -0.159819 -0.027380
  H 6.962104 -0.615411 -1.559455
 23
 3.200445
  C 1.064036 0.391793 0.197959
  C 2.509256 0.191500 0.400056
  C 3.206657 0.884805 1.501167
  C 2.454300 0.891901 2.842744
  C 3.349839 1.437325 3.948237
  C 3.165282 -0.627988 -0.507663
  C 4.548960 -0.624190 -0.735356
  C 5.071863 -0.946537 -1.967788
  H 4.426025 -1.246782 -2.785982
  O 6.322262 -0.887755 -2.304736
  H 0.614663 1.018738 0.958345
  H 0.546746 -0.567720 0.161850
  H 0.894387 0.854328 -0.776343
  H 3.360658 1.929118 1.206287
  H 4.189746 0.446346 1.668950
  H 2.154757 -0.127155 3.091575
  H 1.557933 1.508253 2.788026
  H 4.237061 0.821019 4.074459
  H 2.812731 1.448406 4.894029
  H 3.664842 2.455075 3.727914
  H 2.554930 -1.164745 -1.222701
  H 5.227211 -0.326326 0.051979
  H 6.930970 -0.624673 -1.584313
 23
 14.847811
  C 1.190182 0.443355 0.091360
  C 2.577510 0.115577 0.423714
  C 3.257958 0.853378 1.510869
  C 2.445798 0.908838 2.818205
  C 3.311181 1.443334 3.956751
  C 3.167115 -0.935939 -0.280292
  C 4.524899 -0.722594 -0.665332
  C 4.931761 -0.800888 -1.960777
  H 4.238580 -0.983854 -2.772028
  O 6.160375 -0.624434 -2.397817
  H 0.747134 1.140334 0.799968
  H 0.578409 -0.459307 0.036406
  H 1.153435 0.910629 -0.887913
  H 3.450812 1.877890 1.184876
  H 4.217868 0.385359 1.743581
  H 2.098003 -0.092043 3.073522
  H 1.579034 1.560203 2.706684
  H 4.157012 0.790275 4.148763
  H 2.727430 1.508327 4.871319
  H 3.685224 2.440104 3.723833
  H 2.560527 -1.579118 -0.887061
  H 5.277463 -0.551304 0.106292
  H 6.826242 -0.458459 -1.698419
 23
 38.783146
  C 1.410144 0.463945 -0.048483
  C 2.778955 0.032043 0.421492
  C 3.382327 0.761101 1.550205
  C 2.427305 0.954481 2.748158
  C 3.228962 1.469800 3.952534
  C 3.176346 -1.201040 -0.075372
  C 4.432868 -0.705957 -0.584696
  C 4.696340 -0.577126 -1.914187
  H 3.928280 -0.686441 -2.661174
  O 5.854517 -0.351591 -2.438838
  H 0.976718 1.216503 0.594084
  H 0.737748 -0.395837 -0.079827
  H 1.485410 0.894836 -1.047004
  H 3.726029 1.750192 1.220102
  H 4.261618 0.192871 1.921810
  H 1.953394 0.002243 3.000835
  H 1.656368 1.666414 2.507857
  H 3.988303 0.748744 4.268274
  H 2.575401 1.645907 4.795169
  H 3.734902 2.407787 3.708266
  H 2.606363 -1.936978 -0.589903
  H 5.269971 -0.686230 0.115640
  H 6.579176 -0.276795 -1.819148
 23
 44.197028
  C 1.775926 0.576455 -0.249553
  C 3.012274 -0.020469 0.401959
  C 3.538936 0.696000 1.626654
  C 2.458000 0.914144 2.694708
  C 3.094858 1.418332 3.983022
  C 3.175600 -1.399783 0.156634
  C 4.293568 -0.660427 -0.472762
  C 4.384560 -0.471926 -1.853084
  H 3.498044 -0.517566 -2.477449
  O 5.464716 -0.278997 -2.523250
  H 1.451953 1.457829 0.293248
  H 0.964079 -0.149145 -0.259764
  H 1.982453 0.874907 -1.272793
  H 3.969082 1.658825 1.342811
  H 4.320118 0.091461 2.083888
  H 1.941751 -0.025393 2.889532
  H 1.719291 1.647424 2.365665
  H 3.825362 0.709451 4.362156
  H 2.332994 1.558948 4.747514
  H 3.591471 2.371067 3.821267
  H 2.578998 -2.192518 -0.240774
  H 5.211305 -0.631219 0.107497
  H 6.296396 -0.246905 -2.002534
 23
 57.955844
  C 1.766536 0.420944 -0.190875
  C 3.107671 -0.157672 0.430221
  C 3.551007 0.595295 1.649073
  C 2.454933 0.984547 2.641390
  C 3.087955 1.518895 3.923006
  C 3.049840 -1.508631 0.028250
  C 4.251618 -0.758166 -0.522233
  C 4.414660 -0.190504 -1.785362
  H 3.567943 0.180801 -2.345361
  O 5.532608 -0.001722 -2.387546
  H 1.494313 1.296050 0.376486
  H 0.974500 -0.316663 -0.114198
  H 1.916635 0.706316 -1.220462
  H 4.097460 1.483259 1.337390
  H 4.253339 -0.047670 2.189765
  H 1.844109 0.118627 2.875797
  H 1.808907 1.764504 2.235717
  H 3.666934 0.754526 4.422954
  H 2.319684 1.853762 4.604883
  H 3.740706 2.358640 3.709875
  H 2.523833 -2.297385 -0.461375
  H 5.144827 -1.124745 -0.014205
  H 6.338885 -0.266627 -1.894042
 23
 92.944196
  C 1.599300 0.294320 -0.159376
  C 3.302062 -0.210234 0.512772
  C 3.644267 0.557223 1.725839
  C 2.503903 1.048834 2.624963
  C 3.070887 1.595838 3.930537
  C 2.993517 -1.405255 -0.077633
  C 4.310974 -0.778701 -0.546862
  C 4.434756 -0.080243 -1.767659
  H 3.590015 0.436768 -2.200698
  O 5.517240 0.007161 -2.496878
  H 1.409620 1.074781 0.554201
  H 0.922205 -0.534814 -0.079553
  H 1.783458 0.640137 -1.160936
  H 4.257205 1.412389 1.430927
  H 4.265628 -0.113515 2.331759
  H 1.819676 0.227890 2.841649
  H 1.940526 1.846095 2.138692
  H 3.604626 0.824746 4.480734
  H 2.265713 1.961392 4.562612
  H 3.753505 2.421352 3.742030
  H 2.481329 -2.131406 -0.660147
  H 5.176711 -1.299890 -0.153396
  H 6.301101 -0.447240 -2.130985
 23
 98.524145
  C 1.249798 0.054437 -0.537696
  C 3.321663 -0.176709 0.621898
  C 3.784443 0.551035 1.795543
  C 2.671826 1.093334 2.703286
  C 3.260638 1.620219 4.005978
  C 2.829442 -1.181231 -0.051968
  C 4.284766 -0.718493 -0.458941
  C 4.455654 0.010756 -1.641064
  H 3.658533 0.636329 -2.025170
  O 5.520793 0.032790 -2.379798
  H 1.086182 0.848010 0.165318
  H 0.531695 -0.743538 -0.489577
  H 1.522263 0.351734 -1.531680
  H 4.445242 1.364993 1.487712
  H 4.386923 -0.152879 2.384486
  H 1.956179 0.300251 2.923591
  H 2.144108 1.909009 2.203795
  H 3.765146 0.829371 4.554682
  H 2.472808 2.019093 4.640139
  H 3.976560 2.417752 3.813658
  H 2.302717 -1.903428 -0.633619
  H 5.109044 -1.319260 -0.100892
  H 6.264794 -0.516626 -2.057615
 23
 89.999451
  C 1.223074 -0.064883 -0.495429
  C 3.344016 -0.169812 0.627408
  C 3.819480 0.501942 1.830858
  C 2.721725 1.183286 2.661906
  C 3.293877 1.683226 3.983525
  C 2.709271 -1.105437 -0.083079
  C 4.279467 -0.700439 -0.441612
  C 4.475491 0.027423 -1.601450
  H 3.717719 0.715350 -1.953404
  O 5.514341 -0.022438 -2.387083
  H 1.083730 0.685413 0.265350
  H 0.476317 -0.838437 -0.503862
  H 1.462071 0.317886 -1.471092
  H 4.585129 1.232814 1.552701
  H 4.301475 -0.259457 2.455727
  H 1.915182 0.471705 2.853194
  H 2.306957 2.029558 2.109818
  H 3.685696 0.855924 4.572344
  H 2.518042 2.173004 4.567430
  H 4.094873 2.398638 3.811610
  H 2.265435 -1.784780 -0.799580
  H 5.046084 -1.380269 -0.101804
  H 6.217083 -0.640072 -2.098155
 23
 73.016308
  C 1.162669 -0.176297 -0.392846
  C 3.301487 -0.196823 0.558292
  C 3.793736 0.461155 1.762480
  C 2.728166 1.180535 2.601959
  C 3.328845 1.701963 3.900141
  C 2.498686 -1.072874 -0.082838
  C 4.340098 -0.661743 -0.437329
  C 4.632894 0.125067 -1.510365
  H 3.968486 0.922304 -1.821702
  O 5.691581 0.030547 -2.280783
  H 0.999920 0.552404 0.383326
  H 0.352288 -0.904422 -0.428145
  H 1.290663 0.287692 -1.365720
  H 4.580498 1.159399 1.485778
  H 4.247040 -0.317897 2.383480
  H 1.915516 0.492435 2.831171
  H 2.320943 2.020272 2.036920
  H 3.693067 0.884378 4.516025
  H 2.581038 2.243886 4.470757
  H 4.154627 2.377040 3.700492
  H 2.247921 -1.685551 -0.923158
  H 5.049635 -1.409991 -0.111742
  H 6.307459 -0.683012 -2.029210
 23
 36.461270
  C 1.022343 -0.139847 -0.160885
  C 3.401391 -0.125172 0.419785
  C 3.797504 0.530493 1.668891
  C 2.694530 1.177624 2.515186
  C 3.232949 1.575788 3.885474
  C 2.335425 -0.851514 -0.016277
  C 4.525987 -0.524680 -0.465238
  C 4.806341 0.057455 -1.640948
  H 4.118803 0.754667 -2.108713
  O 5.882531 -0.146645 -2.383968
  H 0.919846 0.686915 0.535827
  H 0.216507 -0.859110 -0.025333
  H 0.942763 0.226866 -1.183601
  H 4.579539 1.264224 1.447787
  H 4.259290 -0.254547 2.278832
  H 1.867021 0.486475 2.649460
  H 2.326638 2.067827 2.008622
  H 3.584362 0.705463 4.435875
  H 2.452380 2.050674 4.473119
  H 4.059985 2.281226 3.790295
  H 2.367296 -1.629107 -0.769479
  H 5.211224 -1.244862 -0.031922
  H 6.508077 -0.792727 -2.001647
 23
 19.247383
  C 0.916903 -0.145545 0.029102
  C 3.473410 -0.192016 0.328768
  C 3.786487 0.407724 1.662028
  C 2.691112 1.158284 2.418452
  C 3.217259 1.604567 3.783986
  C 2.272603 -0.650345 -0.162236
  C 4.667136 -0.500877 -0.429265
  C 4.883896 -0.020563 -1.678482
  H 4.128175 0.558798 -2.199411
  O 5.982861 -0.150853 -2.379344
  H 0.809050 0.544455 0.854785
  H 0.192287 -0.952514 0.112103
  H 0.653771 0.381401 -0.891447
  H 4.654351 1.063037 1.538343
  H 4.118856 -0.415609 2.311682
  H 1.820015 0.519098 2.580322
  H 2.389023 2.039702 1.850668
  H 3.506895 0.749144 4.391343
  H 2.446839 2.151488 4.320031
  H 4.082989 2.258731 3.676297
  H 2.346600 -1.379876 -0.960246
  H 5.449933 -1.059695 0.071304
  H 6.676704 -0.679633 -1.935739
 23
 11.386126
  C 0.945440 -0.059347 0.032810
  C 3.518865 -0.062268 0.291414
  C 3.774496 0.469134 1.670410
  C 2.647792 1.104901 2.478863
  C 3.185139 1.579732 3.826995
  C 2.315834 -0.448443 -0.271611
  C 4.727022 -0.357961 -0.414864
  C 4.865917 -0.321033 -1.774578
  H 4.044497 -0.045217 -2.425828
  O 5.962616 -0.559738 -2.435237
  H 0.811405 0.490497 0.953562
  H 0.279021 -0.921956 -0.003549
  H 0.615864 0.576051 -0.797951
  H 4.589891 1.193587 1.594815
  H 4.168966 -0.365578 2.262369
  H 1.852320 0.385307 2.669607
  H 2.240491 1.963575 1.943642
  H 3.579257 0.747167 4.405215
  H 2.390683 2.044878 4.405450
  H 3.978449 2.312283 3.696023
  H 2.396176 -1.069901 -1.156096
  H 5.599944 -0.579529 0.186472
  H 6.725067 -0.810784 -1.877422
 23
 9.337507
  C 0.943254 0.071009 0.014621
  C 3.522830 0.015030 0.255700
  C 3.769870 0.588245 1.619484
  C 2.623471 1.008730 2.529559
  C 3.181120 1.495251 3.869475
  C 2.305417 -0.282123 -0.341497
  C 4.731616 -0.286262 -0.437419
  C 4.867258 -0.596691 -1.766680
  H 4.028615 -0.627230 -2.452671
  O 5.994367 -0.855238 -2.363667
  H 0.811201 0.532882 0.978052
  H 0.287807 -0.794584 -0.097246
  H 0.598103 0.769740 -0.755508
  H 4.431105 1.451023 1.492773
  H 4.361306 -0.156999 2.163439
  H 1.957236 0.164885 2.723948
  H 2.057581 1.827329 2.078821
  H 3.743952 0.708056 4.368305
  H 2.369691 1.798241 4.529040
  H 3.839433 2.352425 3.731141
  H 2.367899 -0.873079 -1.244358
  H 5.641199 -0.211658 0.146500
  H 6.780821 -0.833624 -1.781300
