 22
 0.000000
  C 0.965848 0.154095 0.435764
  C 2.436642 0.138292 0.396097
  C 3.222747 0.601400 1.547822
  H 2.630734 0.939879 2.390159
  C 3.034716 -0.330916 -0.771476
  C 4.416135 -0.415949 -0.984368
  C 5.087026 -0.862326 -2.097816
  C 4.619518 -1.381075 -3.391629
  C 3.138541 -1.508528 -3.709810
  H 3.019120 -1.910118 -4.711694
  H 6.168729 -0.845714 -2.056885
  H 0.574232 0.531774 1.375159
  H 0.576653 -0.851798 0.269939
  H 0.576354 0.765150 -0.380151
  H 3.879425 1.415881 1.234742
  H 3.879670 -0.202966 1.885528
  H 2.359636 -0.643873 -1.549688
  H 5.049401 -0.088529 -0.169398
  H 5.095717 -2.363627 -3.513028
  H 5.095990 -0.754757 -4.158198
  H 2.649929 -0.537834 -3.675347
  H 2.649853 -2.186664 -3.014476
 22
 4.779799
  C 0.980590 0.130537 0.376668
  C 2.460006 0.125388 0.363870
  C 3.187659 0.606280 1.560349
  H 2.518625 0.924600 2.352770
  C 3.117913 -0.324434 -0.755743
  C 4.500336 -0.420632 -0.996193
  C 5.133524 -0.880318 -2.142969
  C 4.611850 -1.390341 -3.414856
  C 3.115688 -1.485707 -3.652418
  H 2.937732 -1.884839 -4.648039
  H 6.219357 -0.867084 -2.110563
  H 0.578436 0.506161 1.311219
  H 0.595053 -0.874770 0.202869
  H 0.594800 0.735862 -0.444427
  H 3.842416 1.435799 1.295825
  H 3.842721 -0.175414 1.943317
  H 2.308464 -0.580499 -1.392753
  H 5.147547 -0.097497 -0.191169
  H 5.071255 -2.379127 -3.564336
  H 5.071301 -0.778920 -4.206213
  H 2.646019 -0.507772 -3.596136
  H 2.646117 -2.154044 -2.936218
 22
 15.419997
  C 1.015911 0.098962 0.295376
  C 2.485156 0.112039 0.329673
  C 3.149350 0.604302 1.558963
  H 2.447514 0.911395 2.325562
  C 3.196112 -0.326435 -0.764336
  C 4.555511 -0.426104 -1.013016
  C 5.162602 -0.888065 -2.165070
  C 4.589997 -1.388041 -3.409049
  C 3.084173 -1.453656 -3.568857
  H 2.845339 -1.848653 -4.552007
  H 6.246154 -0.885167 -2.159575
  H 0.582662 0.468510 1.216988
  H 0.645110 -0.909462 0.113857
  H 0.645764 0.703125 -0.532289
  H 3.801185 1.442654 1.321586
  H 3.801002 -0.166280 1.965837
  H 2.300772 -0.528591 -1.269410
  H 5.210607 -0.103768 -0.209070
  H 5.027269 -2.383639 -3.580455
  H 5.025895 -0.786954 -4.221828
  H 2.639643 -0.465982 -3.485583
  H 2.641216 -2.110177 -2.825417
 22
 29.098480
  C 1.011279 0.099327 0.295607
  C 2.481267 0.113076 0.332110
  C 3.133164 0.610988 1.576320
  H 2.426317 0.917349 2.341644
  C 3.217521 -0.322493 -0.754777
  C 4.574313 -0.430590 -1.024082
  C 5.165639 -0.891301 -2.173504
  C 4.590619 -1.393170 -3.422143
  C 3.087960 -1.464822 -3.595674
  H 2.858897 -1.861616 -4.582881
  H 6.248275 -0.889738 -2.171829
  H 0.580181 0.469377 1.218820
  H 0.634535 -0.913664 0.118491
  H 0.635504 0.710530 -0.532081
  H 3.788756 1.453778 1.341863
  H 3.788743 -0.160913 1.988172
  H 2.246566 -0.472746 -1.131057
  H 5.238345 -0.113868 -0.234017
  H 5.028215 -2.382830 -3.590005
  H 5.026281 -0.793522 -4.228070
  H 2.640949 -0.480137 -3.514690
  H 2.643229 -2.121110 -2.855584
 22
 44.476133
  C 1.019178 0.083030 0.255099
  C 2.492000 0.104042 0.309524
  C 3.096099 0.611464 1.577551
  H 2.365340 0.910186 2.324029
  C 3.269093 -0.329895 -0.773354
  C 4.623331 -0.433654 -1.031634
  C 5.196036 -0.897245 -2.188220
  C 4.576366 -1.395308 -3.427391
  C 3.070846 -1.442841 -3.540928
  H 2.796812 -1.835727 -4.518562
  H 6.277852 -0.904091 -2.207385
  H 0.581952 0.450711 1.172664
  H 0.644131 -0.927404 0.078547
  H 0.644998 0.692769 -0.570302
  H 3.749644 1.462559 1.360321
  H 3.749875 -0.154307 2.007612
  H 2.264985 -0.438315 -1.045329
  H 5.289200 -0.122054 -0.254010
  H 4.993875 -2.389879 -3.612716
  H 4.991968 -0.804026 -4.249225
  H 2.645347 -0.453647 -3.441196
  H 2.647551 -2.089588 -2.784205
 22
 57.319402
  C 0.994850 0.087042 0.268783
  C 2.473731 0.103052 0.308600
  C 3.097661 0.609705 1.568821
  H 2.381179 0.911821 2.322265
  C 3.265535 -0.334190 -0.779267
  C 4.622009 -0.437054 -1.036282
  C 5.197879 -0.900431 -2.192308
  C 4.588828 -1.395551 -3.427796
  C 3.072833 -1.446222 -3.554226
  H 2.807119 -1.836977 -4.528995
  H 6.283426 -0.906864 -2.208741
  H 0.568056 0.458705 1.192903
  H 0.612023 -0.924957 0.099342
  H 0.611941 0.699823 -0.554079
  H 3.750915 1.452601 1.343011
  H 3.752303 -0.153982 1.988607
  H 2.212849 -0.406654 -0.959421
  H 5.301820 -0.119868 -0.245978
  H 5.011814 -2.395570 -3.608626
  H 5.011733 -0.797056 -4.249054
  H 2.643617 -0.455779 -3.455950
  H 2.643705 -2.094577 -2.799053
 22
 69.120123
  C 0.967389 0.088589 0.275506
  C 2.462299 0.097198 0.294779
  C 3.106685 0.608660 1.562174
  H 2.390159 0.916706 2.329559
  C 3.251533 -0.344485 -0.801281
  C 4.605551 -0.439590 -1.039147
  C 5.194377 -0.905439 -2.201948
  C 4.595260 -1.394854 -3.426470
  C 3.087934 -1.442611 -3.548997
  H 2.820426 -1.831945 -4.523297
  H 6.277748 -0.911473 -2.215981
  H 0.559286 0.464667 1.207976
  H 0.573586 -0.920313 0.114630
  H 0.572609 0.702715 -0.540292
  H 3.764489 1.454734 1.328315
  H 3.767023 -0.161376 1.979310
  H 2.188324 -0.383518 -0.897364
  H 5.279286 -0.122153 -0.247326
  H 5.018947 -2.397087 -3.606796
  H 5.020258 -0.793704 -4.248056
  H 2.661937 -0.452524 -3.448491
  H 2.660131 -2.090422 -2.793115
 22
 77.881246
  C 0.960309 0.089748 0.285173
  C 2.443814 0.086928 0.267054
  C 3.109655 0.595727 1.520683
  H 2.401715 0.901104 2.283644
  C 3.233324 -0.353059 -0.819479
  C 4.605221 -0.441057 -1.037323
  C 5.206413 -0.892482 -2.165838
  C 4.600566 -1.394151 -3.423997
  C 3.088848 -1.434136 -3.534651
  H 2.806733 -1.823235 -4.509734
  H 6.274234 -0.895189 -2.167349
  H 0.586034 0.472923 1.233703
  H 0.557289 -0.907802 0.141793
  H 0.553505 0.704130 -0.510522
  H 3.760222 1.439146 1.281440
  H 3.765174 -0.174890 1.930174
  H 2.153096 -0.370787 -0.864464
  H 5.268292 -0.118829 -0.224001
  H 5.018325 -2.402479 -3.604012
  H 5.022413 -0.789001 -4.248642
  H 2.668788 -0.436949 -3.430587
  H 2.663854 -2.082318 -2.772638
 22
 82.439318
  C 0.924221 0.056764 0.256425
  C 2.446083 0.067243 0.212019
  C 3.130895 0.606608 1.473878
  H 2.405005 0.903607 2.218684
  C 3.257283 -0.364145 -0.805179
  C 4.624527 -0.463115 -1.040099
  C 5.232853 -0.903803 -2.163646
  C 4.596885 -1.388912 -3.411474
  C 3.088621 -1.379154 -3.453220
  H 2.748229 -1.753688 -4.412915
  H 6.309681 -0.921807 -2.175407
  H 0.577970 0.450692 1.200747
  H 0.517299 -0.948527 0.146821
  H 0.494761 0.669828 -0.533906
  H 3.757728 1.460573 1.237299
  H 3.778949 -0.156178 1.890961
  H 2.143456 -0.383671 -0.862271
  H 5.272864 -0.163626 -0.211347
  H 4.973985 -2.403861 -3.600639
  H 4.997811 -0.781690 -4.235193
  H 2.708959 -0.369500 -3.332838
  H 2.680894 -2.022847 -2.677559
 22
 83.645719
  C 0.927294 0.009271 0.228974
  C 2.461093 0.056455 0.192211
  C 3.100562 0.655424 1.463247
  H 2.329969 0.949569 2.177774
  C 3.319658 -0.388085 -0.760442
  C 4.679632 -0.509497 -1.035322
  C 5.262918 -0.936107 -2.168624
  C 4.581275 -1.383855 -3.411869
  C 3.063231 -1.314046 -3.401823
  H 2.673071 -1.660822 -4.346954
  H 6.331637 -0.979438 -2.204223
  H 0.575681 0.429660 1.164949
  H 0.546372 -1.009707 0.161706
  H 0.489904 0.594339 -0.577205
  H 3.704855 1.533493 1.212302
  H 3.754600 -0.092424 1.920060
  H 2.152970 -0.417940 -0.843938
  H 5.330169 -0.246174 -0.201496
  H 4.912917 -2.410521 -3.618479
  H 4.975198 -0.769404 -4.231348
  H 2.731284 -0.294504 -3.263456
  H 2.660106 -1.955002 -2.626650
 22
 84.925819
  C 0.936053 -0.033565 0.205785
  C 2.474692 0.065428 0.203072
  C 3.060900 0.732255 1.468068
  H 2.271840 1.033624 2.146375
  C 3.378410 -0.419422 -0.696142
  C 4.724353 -0.584324 -1.003450
  C 5.264965 -0.998183 -2.163400
  C 4.548075 -1.379859 -3.410434
  C 3.039360 -1.241372 -3.388364
  H 2.628224 -1.548587 -4.348605
  H 6.336858 -1.084693 -2.220088
  H 0.554374 0.417017 1.113904
  H 0.590054 -1.065353 0.179130
  H 0.499581 0.502860 -0.634020
  H 3.647454 1.607905 1.202866
  H 3.713681 0.021407 1.965405
  H 2.190266 -0.442513 -0.800585
  H 5.401280 -0.384152 -0.171328
  H 4.827085 -2.412019 -3.650854
  H 4.960190 -0.760847 -4.216090
  H 2.753535 -0.206658 -3.219350
  H 2.610159 -1.886380 -2.623615
 22
 86.005125
  C 0.943458 -0.087894 0.204109
  C 2.477612 0.077413 0.205408
  C 3.022300 0.801723 1.456547
  H 2.214513 1.098587 2.113606
  C 3.415259 -0.435515 -0.652132
  C 4.747666 -0.628248 -0.983998
  C 5.261554 -1.013300 -2.170941
  C 4.524919 -1.353930 -3.410402
  C 3.013918 -1.193309 -3.370839
  H 2.591324 -1.475019 -4.334294
  H 6.332071 -1.126117 -2.243117
  H 0.534690 0.388476 1.090687
  H 0.644279 -1.134280 0.220908
  H 0.493731 0.389555 -0.663318
  H 3.587470 1.691187 1.172436
  H 3.697033 0.122385 1.987364
  H 2.230587 -0.468558 -0.770234
  H 5.439094 -0.499450 -0.152986
  H 4.786047 -2.387335 -3.678889
  H 4.938302 -0.723610 -4.210623
  H 2.743347 -0.157640 -3.176772
  H 2.581082 -1.847833 -2.615752
 22
 86.999599
  C 0.936925 -0.139209 0.236011
  C 2.468828 0.084052 0.202646
  C 3.003047 0.865744 1.400786
  H 2.196680 1.170454 2.054424
  C 3.427092 -0.462283 -0.616273
  C 4.748126 -0.685783 -0.951266
  C 5.252713 -1.035984 -2.150975
  C 4.511644 -1.324345 -3.406080
  C 2.999664 -1.136861 -3.373560
  H 2.582815 -1.379731 -4.345703
  H 6.322136 -1.178001 -2.221671
  H 0.521496 0.368440 1.109869
  H 0.676202 -1.198757 0.307619
  H 0.453449 0.280221 -0.650925
  H 3.542796 1.751830 1.079596
  H 3.690169 0.229644 1.938982
  H 2.239509 -0.487657 -0.741599
  H 5.440433 -0.632872 -0.115282
  H 4.755291 -2.345145 -3.704712
  H 4.940314 -0.683717 -4.181342
  H 2.744789 -0.106877 -3.149328
  H 2.547891 -1.804514 -2.644672
 22
 88.011086
  C 0.912700 -0.183068 0.284412
  C 2.437119 0.078296 0.188851
  C 2.991879 0.954660 1.329893
  H 2.201319 1.267091 1.996530
  C 3.402063 -0.540255 -0.586516
  C 4.722596 -0.784294 -0.916538
  C 5.238053 -1.100928 -2.126592
  C 4.515222 -1.292069 -3.406291
  C 3.010869 -1.066717 -3.390825
  H 2.606416 -1.238867 -4.387868
  H 6.299606 -1.278167 -2.183062
  H 0.516916 0.360959 1.137251
  H 0.684054 -1.234720 0.423922
  H 0.393437 0.174362 -0.598430
  H 3.487176 1.844419 0.940879
  H 3.729768 0.374095 1.882941
  H 2.188967 -0.547616 -0.696289
  H 5.409364 -0.768523 -0.068651
  H 4.739639 -2.303063 -3.764417
  H 4.976807 -0.616568 -4.137826
  H 2.777848 -0.041305 -3.105790
  H 2.526777 -1.766880 -2.709864
