 23
 0.000000
  C 0.979328 0.168964 0.480494
  C 2.439433 0.124128 0.367656
  H 3.059828 0.456009 1.185473
  C 3.009640 -0.342960 -0.796859
  C 4.390696 -0.419705 -0.990137
  C 5.100669 -0.865754 -2.105244
  C 4.624797 -1.388644 -3.412118
  C 3.139817 -1.514898 -3.728144
  C 2.952056 -2.077647 -5.134922
  O 6.415547 -0.849639 -2.065616
  H 0.639221 0.552506 1.437535
  H 0.563309 -0.830191 0.337433
  H 0.555477 0.788963 -0.313910
  H 2.343170 -0.658253 -1.581495
  H 4.994225 -0.083893 -0.152920
  H 5.093297 -2.372545 -3.532992
  H 5.093579 -0.759897 -4.178328
  H 2.657566 -0.538006 -3.683421
  H 2.657377 -2.191359 -3.022041
  H 3.402324 -1.426041 -5.879985
  H 1.893520 -2.169197 -5.364100
  H 3.402197 -3.063401 -5.224980
  H 6.790279 -0.515515 -1.228229
 23
 4.728507
  C 0.977734 0.157023 0.576088
  C 2.397452 0.109386 0.344510
  H 3.078105 0.432089 1.122658
  C 2.951846 -0.357913 -0.837568
  C 4.351235 -0.420522 -1.014026
  C 5.084102 -0.858067 -2.109599
  C 4.628889 -1.385573 -3.416086
  C 3.147428 -1.521615 -3.741673
  C 2.978135 -2.088609 -5.148642
  O 6.388085 -0.827983 -2.050565
  H 0.672068 0.577187 1.528395
  H 0.450864 -0.786172 0.393182
  H 0.791992 0.804518 -0.261604
  H 2.281032 -0.675570 -1.622110
  H 4.942726 -0.077775 -0.168088
  H 5.109883 -2.363939 -3.530992
  H 5.104054 -0.757025 -4.178205
  H 2.660024 -0.546908 -3.703930
  H 2.665363 -2.200728 -3.037710
  H 3.432639 -1.435201 -5.889688
  H 1.923508 -2.189575 -5.391084
  H 3.437828 -3.070699 -5.231214
  H 6.759165 -0.490306 -1.212347
 23
 13.174971
  C 0.975650 0.131538 0.632102
  C 2.372717 0.107291 0.364606
  H 3.064033 0.425373 1.127141
  C 2.942864 -0.355543 -0.832376
  C 4.318616 -0.407169 -1.005216
  C 5.064047 -0.842477 -2.098425
  C 4.618697 -1.385859 -3.426658
  C 3.139018 -1.535753 -3.765981
  C 2.985107 -2.110113 -5.172845
  O 6.405165 -0.799558 -2.029070
  H 0.678243 0.539389 1.576498
  H 0.383341 -0.734045 0.335406
  H 1.012991 0.857200 -0.198469
  H 2.290385 -0.677981 -1.623653
  H 4.903129 -0.061080 -0.160965
  H 5.107843 -2.362109 -3.534360
  H 5.094415 -0.755229 -4.188359
  H 2.645180 -0.565029 -3.736952
  H 2.658001 -2.215706 -3.063834
  H 3.441429 -1.456287 -5.912506
  H 1.933013 -2.220387 -5.423904
  H 3.453630 -3.088614 -5.247306
  H 6.765720 -0.456022 -1.187671
 23
 20.338486
  C 0.967804 0.106035 0.644168
  C 2.363745 0.093816 0.354764
  H 3.057988 0.416963 1.126864
  C 2.929594 -0.364198 -0.842216
  C 4.315620 -0.403791 -1.017196
  C 5.054299 -0.832293 -2.103941
  C 4.619520 -1.379423 -3.422655
  C 3.141773 -1.541962 -3.762985
  C 2.995106 -2.122925 -5.168103
  O 6.382203 -0.779855 -2.042213
  H 0.662371 0.465209 1.612148
  H 0.316814 -0.645641 0.224003
  H 1.215862 0.913989 -0.094819
  H 2.272146 -0.696325 -1.628841
  H 4.900443 -0.053636 -0.175101
  H 5.116477 -2.351904 -3.524779
  H 5.091299 -0.746025 -4.183751
  H 2.640230 -0.574498 -3.738894
  H 2.665050 -2.224022 -3.058700
  H 3.448192 -1.468485 -5.908987
  H 1.944644 -2.242710 -5.421047
  H 3.472133 -3.097765 -5.237725
  H 6.733301 -0.433562 -1.205844
 23
 25.085731
  C 0.959040 0.084711 0.659096
  C 2.356839 0.096857 0.352004
  H 3.042481 0.425443 1.121266
  C 2.927703 -0.363316 -0.847253
  C 4.307366 -0.396183 -1.019063
  C 5.054072 -0.825706 -2.106646
  C 4.627284 -1.379395 -3.426141
  C 3.145635 -1.547959 -3.765703
  C 2.997070 -2.135030 -5.172701
  O 6.379895 -0.766795 -2.044275
  H 0.640937 0.398367 1.635151
  H 0.284342 -0.577491 0.145176
  H 1.367053 0.947168 0.001330
  H 2.263726 -0.704999 -1.635191
  H 4.887921 -0.038720 -0.177006
  H 5.127875 -2.352054 -3.523694
  H 5.097547 -0.744702 -4.189141
  H 2.640339 -0.578612 -3.742659
  H 2.670895 -2.231175 -3.055747
  H 3.447880 -1.481150 -5.917043
  H 1.945662 -2.258548 -5.424067
  H 3.477276 -3.109818 -5.240501
  H 6.724903 -0.415080 -1.201079
 23
 27.815939
  C 0.956887 0.060692 0.680025
  C 2.348553 0.120157 0.361703
  H 3.037750 0.428942 1.139141
  C 2.919660 -0.352327 -0.855283
  C 4.297334 -0.385227 -1.031549
  C 5.043431 -0.820209 -2.114457
  C 4.624431 -1.383563 -3.433523
  C 3.153777 -1.556143 -3.777581
  C 3.013882 -2.149835 -5.175822
  O 6.370300 -0.759639 -2.050149
  H 0.623178 0.305169 1.676705
  H 0.260696 -0.494319 0.055728
  H 1.480536 0.998661 0.121637
  H 2.253209 -0.694783 -1.627700
  H 4.881257 -0.025459 -0.191012
  H 5.124082 -2.352672 -3.520972
  H 5.094724 -0.754441 -4.195047
  H 2.649027 -0.591622 -3.762566
  H 2.679640 -2.232422 -3.068816
  H 3.467614 -1.499689 -5.921416
  H 1.964773 -2.276749 -5.431387
  H 3.496156 -3.123135 -5.234451
  H 6.707797 -0.405459 -1.212969
 23
 30.901388
  C 0.954583 0.030976 0.669710
  C 2.343818 0.131057 0.347222
  H 3.031925 0.431347 1.139173
  C 2.921404 -0.342822 -0.861926
  C 4.297747 -0.377372 -1.032799
  C 5.047688 -0.816402 -2.113195
  C 4.629425 -1.381057 -3.425193
  C 3.156382 -1.551102 -3.764700
  C 3.009374 -2.154420 -5.173031
  O 6.376733 -0.757754 -2.048620
  H 0.616572 0.264300 1.657422
  H 0.261623 -0.481009 0.013391
  H 1.565171 0.994291 0.139054
  H 2.268563 -0.679926 -1.625824
  H 4.879742 -0.015785 -0.191549
  H 5.124963 -2.347173 -3.510673
  H 5.098868 -0.758424 -4.187641
  H 2.648089 -0.571258 -3.749935
  H 2.677866 -2.231848 -3.042341
  H 3.466913 -1.501737 -5.930523
  H 1.951704 -2.280550 -5.426886
  H 3.492853 -3.137844 -5.230955
  H 6.713806 -0.400490 -1.209849
 23
 33.005772
  C 0.950740 -0.002470 0.679018
  C 2.340784 0.152496 0.354222
  H 3.031104 0.417574 1.151565
  C 2.926603 -0.333753 -0.867469
  C 4.302383 -0.368813 -1.035124
  C 5.052191 -0.810785 -2.111066
  C 4.634549 -1.382490 -3.427544
  C 3.155798 -1.553383 -3.770084
  C 3.010253 -2.158138 -5.168907
  O 6.382581 -0.753165 -2.042161
  H 0.591765 0.227847 1.665644
  H 0.263677 -0.458068 -0.015567
  H 1.636086 1.027015 0.163946
  H 2.261934 -0.671478 -1.638877
  H 4.882185 -0.006351 -0.198011
  H 5.132264 -2.355573 -3.507814
  H 5.107346 -0.759393 -4.193820
  H 2.655269 -0.587767 -3.760365
  H 2.681162 -2.223440 -3.055389
  H 3.464793 -1.514794 -5.920159
  H 1.959125 -2.283460 -5.422356
  H 3.489336 -3.134550 -5.222166
  H 6.716397 -0.393925 -1.204989
 23
 34.534387
  C 0.948247 -0.045992 0.661080
  C 2.337766 0.166667 0.343823
  H 3.025186 0.401211 1.158179
  C 2.937241 -0.329543 -0.877250
  C 4.308064 -0.361471 -1.035707
  C 5.063525 -0.808678 -2.114021
  C 4.641963 -1.381246 -3.422058
  C 3.159668 -1.545645 -3.753484
  C 3.000146 -2.153082 -5.147529
  O 6.390779 -0.754959 -2.046423
  H 0.570062 0.191668 1.635383
  H 0.271361 -0.471835 -0.062005
  H 1.704522 1.054883 0.140864
  H 2.278928 -0.665132 -1.647538
  H 4.886741 0.005062 -0.194566
  H 5.135561 -2.357262 -3.501415
  H 5.113241 -0.762392 -4.192143
  H 2.665780 -0.581189 -3.742627
  H 2.687683 -2.208657 -3.034843
  H 3.451677 -1.515657 -5.902600
  H 1.946430 -2.273321 -5.392515
  H 3.473279 -3.131342 -5.201352
  H 6.727204 -0.392504 -1.209230
 23
 35.636321
  C 0.957055 -0.066325 0.683626
  C 2.342778 0.191042 0.357671
  H 3.025757 0.406922 1.169265
  C 2.931152 -0.314898 -0.864084
  C 4.298163 -0.355253 -1.032777
  C 5.049876 -0.806963 -2.109644
  C 4.634487 -1.382738 -3.420300
  C 3.160971 -1.550558 -3.770908
  C 3.020497 -2.162807 -5.170719
  O 6.375795 -0.755572 -2.036682
  H 0.576687 0.180263 1.661083
  H 0.290074 -0.477239 -0.041083
  H 1.776019 1.088051 0.140466
  H 2.261245 -0.649542 -1.630653
  H 4.882647 0.009646 -0.197007
  H 5.124895 -2.347737 -3.490808
  H 5.107961 -0.771575 -4.176131
  H 2.665142 -0.588170 -3.767973
  H 2.679579 -2.213288 -3.056534
  H 3.483707 -1.521919 -5.925956
  H 1.967180 -2.285734 -5.430562
  H 3.498867 -3.146244 -5.217203
  H 6.712643 -0.391407 -1.199314
 23
 35.574098
  C 0.956184 -0.113664 0.650172
  C 2.340253 0.205484 0.338127
  H 3.014608 0.408873 1.174854
  C 2.950771 -0.310832 -0.874604
  C 4.316248 -0.347126 -1.027280
  C 5.072288 -0.803528 -2.103968
  C 4.640801 -1.385706 -3.420073
  C 3.162044 -1.541169 -3.750421
  C 3.002273 -2.151006 -5.132991
  O 6.391669 -0.757847 -2.030564
  H 0.554504 0.132694 1.614906
  H 0.299905 -0.527594 -0.099529
  H 1.841862 1.122460 0.089073
  H 2.288110 -0.650549 -1.649283
  H 4.896002 0.020535 -0.188023
  H 5.129681 -2.368565 -3.496452
  H 5.121281 -0.770104 -4.201215
  H 2.668222 -0.562279 -3.744804
  H 2.682393 -2.200187 -3.025829
  H 3.458181 -1.520886 -5.890184
  H 1.957900 -2.264636 -5.376295
  H 3.465969 -3.127001 -5.180753
  H 6.730881 -0.393130 -1.198205
 23
 33.465384
  C 0.965048 -0.126839 0.695633
  C 2.329988 0.237205 0.354817
  H 3.013305 0.386317 1.193053
  C 2.937564 -0.305210 -0.872530
  C 4.296072 -0.346281 -1.034180
  C 5.051962 -0.806143 -2.113006
  C 4.637049 -1.384198 -3.414812
  C 3.163010 -1.549455 -3.771850
  C 3.034262 -2.161172 -5.158386
  O 6.372819 -0.762278 -2.033171
  H 0.571010 0.118843 1.661188
  H 0.294251 -0.526107 -0.047492
  H 1.935237 1.208918 0.085818
  H 2.259464 -0.639995 -1.636770
  H 4.883583 0.022285 -0.196832
  H 5.132911 -2.368071 -3.483183
  H 5.125966 -0.766222 -4.190890
  H 2.663749 -0.577427 -3.776805
  H 2.674736 -2.212711 -3.058128
  H 3.500765 -1.526348 -5.908236
  H 1.989614 -2.282838 -5.422647
  H 3.507493 -3.137296 -5.196939
  H 6.713346 -0.392566 -1.200423
 23
 33.119877
  C 0.969063 -0.157581 0.673614
  C 2.332895 0.255247 0.340193
  H 3.002362 0.385859 1.190736
  C 2.952574 -0.291893 -0.876867
  C 4.310118 -0.334371 -1.028785
  C 5.068859 -0.802088 -2.106543
  C 4.641117 -1.385554 -3.412237
  C 3.171531 -1.541120 -3.755800
  C 3.026255 -2.159596 -5.149844
  O 6.382657 -0.761432 -2.026168
  H 0.559140 0.074510 1.639338
  H 0.311822 -0.561535 -0.075238
  H 2.005599 1.231730 0.057177
  H 2.279547 -0.627934 -1.646339
  H 4.894161 0.035365 -0.192649
  H 5.127618 -2.367678 -3.481750
  H 5.126876 -0.776879 -4.191324
  H 2.680717 -0.567983 -3.758850
  H 2.685274 -2.199423 -3.036114
  H 3.486372 -1.535669 -5.899501
  H 1.979992 -2.274925 -5.405823
  H 3.490593 -3.136136 -5.191191
  H 6.727787 -0.388374 -1.196318
 23
 31.928643
  C 0.974346 -0.164795 0.676044
  C 2.323757 0.274326 0.338294
  H 2.993491 0.350931 1.197512
  C 2.953000 -0.288170 -0.882763
  C 4.308332 -0.328089 -1.031347
  C 5.070407 -0.799226 -2.108568
  C 4.645436 -1.385165 -3.409436
  C 3.172575 -1.544944 -3.759090
  C 3.034733 -2.164026 -5.151296
  O 6.381915 -0.757109 -2.024338
  H 0.565931 0.054567 1.644128
  H 0.321423 -0.576508 -0.070863
  H 2.102472 1.279721 0.052866
  H 2.279939 -0.626053 -1.649641
  H 4.892374 0.045351 -0.194486
  H 5.134683 -2.364627 -3.476742
  H 5.130834 -0.780723 -4.185112
  H 2.678465 -0.573998 -3.765124
  H 2.684053 -2.204267 -3.041128
  H 3.498824 -1.534562 -5.905426
  H 1.991520 -2.281976 -5.409753
  H 3.503231 -3.144306 -5.189848
  H 6.727012 -0.378494 -1.194983
