14

H 1.3849773015200597 -0.011940954986422017 -0.0007281621017616851
C 2.454855 -0.00031 0.010516
C 3.169406 0.813275 0.796845
C 4.606928 0.829288 0.812319
C 5.326962 1.645993 1.601673
C 6.765588 1.66024 1.615437
C 7.483994 2.471812 2.39982
H 8.553584048931265 2.4931069236478254 2.420402843682254
H 2.954262 -0.692488 -0.658481
H 2.658215 1.501834 1.462343
H 5.111058 0.140465 0.146575
H 4.823359 2.334979 2.267575
H 7.272204 0.972119 0.950368
H 6.985735 3.162955 3.067813
