 19
 0.000000
  C 0.997327 0.127453 0.369157
  C 2.464094 0.141201 0.402426
  C 3.219265 0.613654 1.576516
  C 2.423029 1.095391 2.778098
  H 3.105885 1.410405 3.561999
  C 3.131062 -0.317056 -0.737611
  C 4.525842 -0.389283 -0.918306
  C 5.066422 -0.853015 -2.073206
  H 4.446059 -1.182274 -2.892581
  H 6.132434 -0.908931 -2.212886
  H 0.539408 0.493694 1.279880
  H 0.641301 -0.885387 0.165247
  H 0.641024 0.717085 -0.479086
  H 3.892990 1.415545 1.249077
  H 3.894595 -0.190642 1.894330
  H 1.794677 0.304844 3.183123
  H 1.793562 1.945952 2.524640
  H 2.521713 -0.650878 -1.567867
  H 5.183433 -0.069945 -0.123253
 19
 13.644642
  C 0.974019 0.143193 0.408288
  C 2.427305 0.163689 0.458384
  C 3.183141 0.630650 1.618795
  C 2.391088 1.113730 2.823811
  H 3.077960 1.427578 3.604804
  C 3.167963 -0.339446 -0.793280
  C 4.540573 -0.400502 -0.946229
  C 5.143876 -0.902577 -2.196588
  H 4.531447 -1.231928 -3.016106
  H 6.209029 -0.951434 -2.318656
  H 0.506255 0.507578 1.314356
  H 0.624933 -0.871415 0.199771
  H 0.624668 0.730900 -0.444527
  H 3.857406 1.431192 1.287263
  H 3.859125 -0.175476 1.932669
  H 1.763904 0.324458 3.231286
  H 1.762793 1.965036 2.573046
  H 2.560731 -0.672453 -1.621503
  H 5.192236 -0.080502 -0.149575
 19
 41.127210
  C 0.927812 0.148069 0.420302
  C 2.366940 0.187411 0.517700
  C 3.172024 0.637712 1.636748
  C 2.406777 1.131886 2.868844
  H 3.111710 1.439980 3.635545
  C 3.191993 -0.374517 -0.880102
  C 4.522995 -0.402365 -0.950677
  C 5.204447 -0.924251 -2.250857
  H 4.590451 -1.255059 -3.074161
  H 6.279539 -0.946634 -2.306972
  H 0.429113 0.509750 1.320216
  H 0.595262 -0.874528 0.192517
  H 0.595103 0.728247 -0.451873
  H 3.847327 1.430292 1.278914
  H 3.849135 -0.180677 1.926086
  H 1.778364 0.345366 3.287450
  H 1.777455 1.988957 2.627804
  H 2.547338 -0.696058 -1.680017
  H 5.189079 -0.085281 -0.161238
 19
 73.526560
  C 0.875892 0.159695 0.449602
  C 2.305678 0.211564 0.577407
  C 3.133852 0.651942 1.672286
  C 2.403975 1.149532 2.912788
  H 3.132447 1.451007 3.662704
  C 3.220609 -0.406258 -0.960508
  C 4.535186 -0.415490 -0.984367
  C 5.292174 -0.959116 -2.337242
  H 4.696997 -1.286824 -3.152374
  H 6.354526 -0.963238 -2.346782
  H 0.358852 0.514347 1.332959
  H 0.559529 -0.857578 0.213944
  H 0.559025 0.731222 -0.424246
  H 3.809073 1.433035 1.298015
  H 3.811517 -0.169471 1.941541
  H 1.785919 0.370055 3.345787
  H 1.784938 2.011274 2.686953
  H 2.558727 -0.716576 -1.732068
  H 5.193247 -0.104233 -0.208678
 19
 104.830683
  C 0.846188 0.184512 0.511438
  C 2.246290 0.240807 0.650115
  C 3.081790 0.665362 1.705606
  C 2.373108 1.171725 2.968094
  H 3.113284 1.466870 3.702895
  C 3.267336 -0.451591 -1.073373
  C 4.580550 -0.445387 -1.059219
  C 5.381645 -0.994749 -2.425986
  H 4.792309 -1.326132 -3.249510
  H 6.446255 -0.984558 -2.399806
  H 0.312631 0.539959 1.397423
  H 0.538118 -0.842042 0.268537
  H 0.537401 0.757838 -0.373658
  H 3.757374 1.439956 1.311076
  H 3.758958 -0.165502 1.955685
  H 1.755629 0.394942 3.410871
  H 1.754776 2.038768 2.751318
  H 2.576897 -0.755457 -1.828917
  H 5.244853 -0.131886 -0.278148
 19
 124.164987
  C 0.709382 0.221399 0.592808
  C 2.112124 0.280211 0.729438
  C 3.028771 0.674866 1.727431
  C 2.436452 1.191523 3.049180
  H 3.234845 1.458367 3.728839
  C 3.315074 -0.546212 -1.386268
  C 4.630035 -0.492477 -1.270238
  C 5.505983 -0.988424 -2.364024
  H 5.052495 -1.383160 -3.248831
  H 6.563885 -0.929149 -2.204793
  H 0.152479 0.569616 1.464172
  H 0.419042 -0.803528 0.331283
  H 0.413780 0.781191 -0.301739
  H 3.698193 1.425319 1.278266
  H 3.703744 -0.176657 1.906616
  H 1.828768 0.430784 3.520232
  H 1.828296 2.069812 2.878804
  H 2.543617 -0.844028 -2.057051
  H 5.179274 -0.133389 -0.422671
 19
 137.705208
  C 0.644393 0.252394 0.686362
  C 2.061600 0.312805 0.805653
  C 2.972307 0.707355 1.793069
  C 2.398232 1.217964 3.118623
  H 3.202305 1.486674 3.787794
  C 3.404602 -0.597203 -1.567355
  C 4.716408 -0.542763 -1.427705
  C 5.609264 -1.029116 -2.451097
  H 5.200608 -1.430745 -3.353307
  H 6.659035 -0.986525 -2.252163
  H 0.083207 0.591825 1.566991
  H 0.359999 -0.771622 0.416135
  H 0.342134 0.807776 -0.205417
  H 3.638911 1.459168 1.345765
  H 3.655798 -0.136961 1.967955
  H 1.795275 0.452296 3.593440
  H 1.779967 2.093604 2.953934
  H 2.607124 -0.878457 -2.227808
  H 5.223683 -0.193091 -0.548728
 19
 145.344989
  C 0.606529 0.287254 0.779039
  C 2.011991 0.337306 0.879285
  C 2.912194 0.742063 1.889829
  C 2.327509 1.254379 3.209954
  H 3.122704 1.525831 3.882659
  C 3.500513 -0.677228 -1.730698
  C 4.810257 -0.615508 -1.587169
  C 5.703012 -1.071204 -2.573452
  H 5.313587 -1.474181 -3.491646
  H 6.759575 -1.034537 -2.357107
  H 0.051642 0.629851 1.655602
  H 0.316781 -0.738413 0.502909
  H 0.303932 0.841959 -0.119886
  H 3.580497 1.496294 1.440137
  H 3.595927 -0.106464 2.069216
  H 1.725779 0.492937 3.680166
  H 1.711800 2.123258 3.040467
  H 2.689698 -0.937713 -2.382827
  H 5.292750 -0.245665 -0.699962
 19
 148.918783
  C 0.554582 0.316244 0.872485
  C 1.973044 0.367551 0.951229
  C 2.858706 0.777227 1.971451
  C 2.264684 1.278048 3.285762
  H 3.062607 1.554730 3.967229
  C 3.584759 -0.712654 -1.890890
  C 4.898656 -0.634483 -1.751080
  C 5.807477 -1.125855 -2.690829
  H 5.448471 -1.570518 -3.601491
  H 6.853808 -1.135001 -2.445340
  H 0.008536 0.656812 1.759245
  H 0.262595 -0.710974 0.604041
  H 0.238372 0.880792 -0.019727
  H 3.518991 1.535465 1.529233
  H 3.544669 -0.063089 2.149583
  H 1.663396 0.502124 3.753553
  H 1.639104 2.150210 3.114193
  H 2.770551 -0.958497 -2.515733
  H 5.345963 -0.244093 -0.838921
 19
 149.786365
  C 0.517980 0.339360 0.958213
  C 1.932192 0.402156 1.029959
  C 2.799321 0.821622 2.074121
  C 2.181441 1.304688 3.385188
  H 2.964719 1.584567 4.074037
  C 3.687345 -0.723748 -2.039328
  C 5.002817 -0.623530 -1.927604
  C 5.894729 -1.193016 -2.825172
  H 5.536393 -1.709788 -3.698306
  H 6.935058 -1.279551 -2.560934
  H -0.025161 0.670805 1.847895
  H 0.235216 -0.692954 0.696652
  H 0.191169 0.909265 0.071789
  H 3.454105 1.594386 1.646282
  H 3.494375 -0.011383 2.256520
  H 1.588505 0.520886 3.839049
  H 1.550746 2.166335 3.214642
  H 2.866646 -0.970338 -2.659771
  H 5.427645 -0.210833 -1.011469
 19
 148.209783
  C 0.487096 0.348678 1.027116
  C 1.893300 0.441751 1.142231
  C 2.732503 0.869251 2.203692
  C 2.069585 1.343448 3.507957
  H 2.841701 1.630471 4.221912
  C 3.835290 -0.723811 -2.120961
  C 5.153092 -0.586391 -2.095754
  C 5.945036 -1.272119 -3.003970
  H 5.506180 -1.834732 -3.809777
  H 6.973037 -1.488218 -2.764292
  H -0.085374 0.668664 1.899136
  H 0.235708 -0.688149 0.769786
  H 0.171988 0.908862 0.137808
  H 3.385403 1.653028 1.793609
  H 3.430800 0.042361 2.401810
  H 1.473321 0.547628 3.949354
  H 1.432684 2.206700 3.325840
  H 3.033030 -0.982826 -2.774999
  H 5.621846 -0.168390 -1.214971
 19
 138.220291
  C 0.564028 0.199547 0.917040
  C 1.912489 0.462782 1.183987
  C 2.741147 0.930042 2.204729
  C 2.078652 1.339204 3.535020
  H 2.840354 1.676644 4.230139
  C 4.044963 -0.504274 -2.063870
  C 5.330259 -0.239900 -2.105489
  C 5.610181 -1.398323 -2.851825
  H 5.126580 -1.638590 -3.775470
  H 6.226424 -2.170965 -2.408723
  H -0.132799 0.436636 1.729942
  H 0.464694 -0.856393 0.635702
  H 0.268779 0.718661 -0.001979
  H 3.329850 1.764396 1.794425
  H 3.512558 0.163469 2.372924
  H 1.555646 0.494806 3.972737
  H 1.373624 2.148760 3.375234
  H 3.329147 -0.811543 -2.796217
  H 5.959653 0.201249 -1.352780
