 14
 0.000000
  C 0.939450 0.138651 0.392364
  C 2.394565 0.110105 0.337300
  H 2.956742 0.452003 1.196124
  C 3.073244 -0.331583 -0.777279
  C 4.467544 -0.366443 -0.857978
  C 5.120545 -0.814742 -1.994208
  H 4.550871 -1.153264 -2.854542
  O 6.395764 -0.882632 -2.163708
  H 0.558688 0.539052 1.324784
  H 0.536811 -0.865532 0.232040
  H 0.550746 0.713184 -0.453356
  H 2.492795 -0.661888 -1.628325
  H 5.043139 -0.032300 -0.005095
  H 6.935956 -0.582625 -1.406204
 14
 1.489440
  C 0.963812 0.118751 0.357483
  C 2.412399 0.115578 0.406786
  H 2.938003 0.467220 1.283955
  C 3.089596 -0.303693 -0.717158
  C 4.471617 -0.368088 -0.836597
  C 5.079957 -0.791277 -1.997040
  H 4.480794 -1.089310 -2.853553
  O 6.362075 -0.882260 -2.203619
  H 0.487881 0.604156 1.203754
  H 0.589200 -0.907631 0.274207
  H 0.683714 0.570520 -0.591452
  H 2.446496 -0.577121 -1.546244
  H 5.076309 -0.077276 0.010824
  H 6.931277 -0.616729 -1.447009
 14
 5.235157
  C 0.976957 0.099957 0.327000
  C 2.425379 0.120714 0.469130
  H 2.918874 0.488476 1.357796
  C 3.099260 -0.280622 -0.657528
  C 4.486824 -0.371098 -0.813957
  C 5.057821 -0.768904 -2.006014
  H 4.430995 -1.023148 -2.855443
  O 6.323408 -0.881838 -2.246972
  H 0.419824 0.654888 1.074333
  H 0.621202 -0.938320 0.329403
  H 0.815435 0.425860 -0.713718
  H 2.398702 -0.489669 -1.463034
  H 5.118224 -0.119903 0.029629
  H 6.919663 -0.657396 -1.491598
 14
 10.791042
  C 0.996751 0.088601 0.295231
  C 2.433926 0.116639 0.517086
  H 2.896523 0.475801 1.426307
  C 3.117462 -0.262650 -0.618094
  C 4.489662 -0.368581 -0.796281
  C 5.037802 -0.748655 -2.013633
  H 4.392693 -0.971681 -2.858236
  O 6.288306 -0.876706 -2.277272
  H 0.392088 0.714302 0.943355
  H 0.629541 -0.949337 0.394046
  H 0.945996 0.288912 -0.795463
  H 2.356632 -0.428032 -1.407440
  H 5.136767 -0.146386 0.045478
  H 6.901177 -0.681450 -1.528205
 14
 18.492670
  C 1.008406 0.081032 0.271842
  C 2.434619 0.106340 0.548356
  H 2.876023 0.437840 1.478426
  C 3.123513 -0.250372 -0.589467
  C 4.493777 -0.364838 -0.788555
  C 5.021446 -0.733039 -2.016311
  H 4.362630 -0.938960 -2.854433
  O 6.272709 -0.870867 -2.299835
  H 0.384577 0.763139 0.824834
  H 0.614046 -0.937179 0.449981
  H 1.063857 0.173846 -0.848742
  H 2.319278 -0.380992 -1.348154
  H 5.152705 -0.154765 0.043911
  H 6.893507 -0.694129 -1.561683
 14
 28.244246
  C 1.013240 0.074167 0.254587
  C 2.433281 0.090691 0.572616
  H 2.856595 0.397916 1.522913
  C 3.133185 -0.250252 -0.569222
  C 4.505503 -0.363476 -0.784275
  C 5.015276 -0.726120 -2.018955
  H 4.344316 -0.928514 -2.850991
  O 6.260602 -0.863542 -2.319149
  H 0.381462 0.802721 0.743985
  H 0.590556 -0.904410 0.473291
  H 1.157984 0.088864 -0.881895
  H 2.271626 -0.356891 -1.303691
  H 5.178237 -0.152189 0.040589
  H 6.887944 -0.690286 -1.589405
 14
 39.023648
  C 1.018631 0.076241 0.246862
  C 2.431823 0.071943 0.588120
  H 2.840467 0.343052 1.546845
  C 3.141973 -0.252736 -0.550629
  C 4.511788 -0.357809 -0.779921
  C 5.008709 -0.725604 -2.018441
  H 4.332912 -0.937400 -2.837577
  O 6.253497 -0.858492 -2.333908
  H 0.398964 0.843446 0.690277
  H 0.553834 -0.885579 0.483262
  H 1.236406 0.030733 -0.910538
  H 2.230997 -0.341001 -1.271907
  H 5.191143 -0.131327 0.027539
  H 6.887697 -0.675936 -1.611477
 14
 49.840053
  C 1.020875 0.084730 0.247075
  C 2.431509 0.041116 0.598913
  H 2.832702 0.263710 1.574311
  C 3.150706 -0.266621 -0.535310
  C 4.518572 -0.349917 -0.780641
  C 5.006202 -0.735548 -2.013637
  H 4.324522 -0.979715 -2.823741
  O 6.251988 -0.853297 -2.341296
  H 0.427559 0.886923 0.668310
  H 0.510961 -0.854428 0.466635
  H 1.290152 -0.002735 -0.939014
  H 2.187424 -0.333950 -1.260155
  H 5.206619 -0.077454 0.010594
  H 6.888358 -0.642962 -1.629713
 14
 59.491819
  C 1.023903 0.090284 0.253412
  C 2.428318 0.020485 0.603902
  H 2.819171 0.208551 1.592291
  C 3.159650 -0.273135 -0.515290
  C 4.522788 -0.343942 -0.781835
  C 4.999942 -0.749057 -2.009117
  H 4.326827 -1.016260 -2.793388
  O 6.248206 -0.854484 -2.352746
  H 0.450400 0.907142 0.670368
  H 0.487158 -0.836787 0.432282
  H 1.328460 -0.013647 -0.970164
  H 2.152809 -0.324386 -1.262996
  H 5.220334 -0.032265 -0.004783
  H 6.887511 -0.617234 -1.653163
 14
 67.011478
  C 1.023095 0.102410 0.271983
  C 2.428080 -0.005931 0.612182
  H 2.807659 0.134432 1.610711
  C 3.175995 -0.277592 -0.491099
  C 4.535700 -0.332603 -0.780458
  C 5.004646 -0.766552 -1.996990
  H 4.313484 -1.081085 -2.786168
  O 6.251841 -0.853640 -2.352140
  H 0.472496 0.932420 0.696749
  H 0.458622 -0.817945 0.401056
  H 1.346796 -0.010018 -1.020013
  H 2.127274 -0.314688 -1.296175
  H 5.227059 0.026386 -0.037377
  H 6.890514 -0.578605 -1.666025
 14
 74.315409
  C 1.015426 0.106843 0.301568
  C 2.425273 -0.032677 0.614855
  H 2.797493 0.055624 1.624083
  C 3.194136 -0.273569 -0.471098
  C 4.544771 -0.308803 -0.789143
  C 5.005499 -0.780571 -1.991899
  H 4.324342 -1.156198 -2.739923
  O 6.253788 -0.869612 -2.357738
  H 0.483793 0.935921 0.749441
  H 0.433707 -0.806186 0.360047
  H 1.351040 0.015670 -1.087041
  H 2.094853 -0.282499 -1.354441
  H 5.242890 0.108078 -0.070712
  H 6.893555 -0.557208 -1.690152
 14
 80.807147
  C 1.013181 0.113058 0.331963
  C 2.416403 -0.058019 0.615153
  H 2.772381 -0.004330 1.634801
  C 3.221364 -0.276840 -0.428930
  C 4.559193 -0.312953 -0.778120
  C 5.005169 -0.824661 -1.966796
  H 4.314742 -1.221308 -2.700887
  O 6.245818 -0.860682 -2.374433
  H 0.502711 0.942717 0.800445
  H 0.410159 -0.785282 0.313501
  H 1.362589 0.043026 -1.175447
  H 2.078309 -0.258464 -1.428955
  H 5.259266 0.160827 -0.101792
  H 6.888727 -0.493726 -1.737456
 14
 85.706102
  C 1.005436 0.108334 0.374676
  C 2.408669 -0.080580 0.607452
  H 2.757436 -0.077376 1.633782
  C 3.249812 -0.263456 -0.401101
  C 4.571658 -0.284440 -0.785628
  C 5.008864 -0.841453 -1.956022
  H 4.317746 -1.311738 -2.648174
  O 6.245688 -0.875808 -2.380243
  H 0.511752 0.921472 0.887612
  H 0.390351 -0.773824 0.271363
  H 1.350288 0.098952 -1.288437
  H 2.050250 -0.201306 -1.541993
  H 5.271344 0.243100 -0.150105
  H 6.889106 -0.461418 -1.774142
 14
 88.371490
  C 0.998090 0.105114 0.414001
  C 2.395166 -0.111024 0.592263
  H 2.730918 -0.168382 1.627180
  C 3.283172 -0.253513 -0.365689
  C 4.583305 -0.261475 -0.790651
  C 5.012874 -0.876567 -1.937424
  H 4.324636 -1.408466 -2.578605
  O 6.235758 -0.879903 -2.398697
  H 0.528157 0.892881 0.982261
  H 0.364036 -0.745955 0.220814
  H 1.339042 0.171906 -1.421757
  H 2.030805 -0.137147 -1.674846
  H 5.278598 0.338521 -0.214387
  H 6.878569 -0.404232 -1.837674
