 22
 0.000000
  C 1.017182 0.131830 0.416677
  C 2.490855 0.120139 0.407930
  C 3.249807 0.612703 1.566097
  H 2.604364 0.955002 2.367042
  C 3.099990 -0.366190 -0.739691
  C 4.470870 -0.452763 -0.982919
  C 5.105666 -0.885017 -2.122054
  C 4.618128 -1.379396 -3.415729
  C 3.131973 -1.498706 -3.709541
  H 2.998612 -1.881619 -4.716986
  H 6.188039 -0.864896 -2.084765
  H 0.606442 0.533678 1.337453
  H 0.633528 -0.879236 0.269763
  H 0.641980 0.716303 -0.427837
  H 3.907584 1.430185 1.265648
  H 3.905587 -0.171750 1.948235
  H 2.427683 -0.689590 -1.517172
  H 5.122428 -0.140130 -0.176687
  H 5.093732 -2.358799 -3.565742
  H 5.085736 -0.743607 -4.180531
  H 2.641075 -0.530409 -3.654882
  H 2.649499 -2.191652 -3.025094
 22
 -0.262659
  C 1.007022 0.166099 0.452183
  C 2.470208 0.094670 0.402270
  C 3.257332 0.585769 1.544939
  H 2.620175 0.906245 2.365873
  C 3.055456 -0.393703 -0.759389
  C 4.434779 -0.429733 -0.994649
  C 5.092256 -0.858971 -2.123943
  C 4.627065 -1.391071 -3.410702
  C 3.144370 -1.561797 -3.710042
  H 3.029206 -1.956399 -4.717117
  H 6.172949 -0.796544 -2.076372
  H 0.629681 0.335512 1.453860
  H 0.541424 -0.718683 0.013819
  H 0.697596 1.009802 -0.176589
  H 3.887025 1.423634 1.242701
  H 3.936573 -0.189633 1.905227
  H 2.385257 -0.754248 -1.525721
  H 5.071696 -0.071849 -0.194503
  H 5.138372 -2.356709 -3.545420
  H 5.084475 -0.759179 -4.188216
  H 2.619659 -0.608836 -3.668020
  H 2.681550 -2.269064 -3.025747
 22
 3.028917
  C 1.003877 0.190868 0.465039
  C 2.460588 0.127036 0.378826
  C 3.255156 0.478476 1.566332
  H 2.626850 0.832724 2.376098
  C 3.033960 -0.316704 -0.805718
  C 4.414541 -0.297552 -1.060401
  C 5.075663 -0.718882 -2.189444
  C 4.629706 -1.396356 -3.409624
  C 3.161096 -1.675002 -3.660120
  H 3.055413 -2.163674 -4.624807
  H 6.153293 -0.570491 -2.174555
  H 0.589258 0.193039 1.462952
  H 0.467459 -0.415024 -0.249871
  H 0.937368 1.235535 0.083639
  H 4.002208 1.239142 1.341772
  H 3.795657 -0.403172 1.910507
  H 2.370578 -0.691255 -1.559814
  H 5.044210 0.126633 -0.285854
  H 5.189506 -2.341474 -3.462037
  H 5.035918 -0.813013 -4.247740
  H 2.583382 -0.757512 -3.694115
  H 2.752597 -2.343488 -2.905072
 22
 18.869785
  C 1.002001 0.046666 0.541864
  C 2.431951 0.127225 0.385247
  C 3.251532 0.576139 1.541489
  H 2.626495 0.962606 2.341765
  C 3.024107 -0.384772 -0.774885
  C 4.391407 -0.309127 -1.055031
  C 5.067243 -0.797690 -2.146488
  C 4.624384 -1.398274 -3.421359
  C 3.147424 -1.621708 -3.705635
  H 3.043142 -2.075668 -4.687479
  H 6.147980 -0.712641 -2.094863
  H 0.550796 0.185848 1.504782
  H 0.417151 -0.445941 -0.218102
  H 1.284703 1.092227 0.078339
  H 3.970654 1.342110 1.261878
  H 3.809088 -0.276116 1.927314
  H 2.371874 -0.858956 -1.486794
  H 5.016261 0.143584 -0.298094
  H 5.151506 -2.358190 -3.506682
  H 5.057531 -0.782353 -4.222571
  H 2.602509 -0.681700 -3.718509
  H 2.705390 -2.301285 -2.984221
 22
 35.835772
  C 0.980492 0.013345 0.587326
  C 2.382955 0.164991 0.383149
  C 3.239654 0.580692 1.545361
  H 2.629409 0.905048 2.381445
  C 3.001587 -0.373398 -0.799872
  C 4.367928 -0.326053 -1.049253
  C 5.050487 -0.776382 -2.153485
  C 4.617311 -1.410913 -3.416629
  C 3.140432 -1.646214 -3.697915
  H 3.036966 -2.089866 -4.685984
  H 6.124970 -0.652660 -2.113904
  H 0.521242 0.251589 1.528909
  H 0.362354 -0.425807 -0.176834
  H 1.683551 1.087386 -0.029370
  H 3.918347 1.387658 1.281394
  H 3.834550 -0.267497 1.869396
  H 2.346470 -0.829290 -1.526611
  H 4.985803 0.109782 -0.281244
  H 5.150875 -2.368015 -3.483006
  H 5.043953 -0.807417 -4.228514
  H 2.586891 -0.711845 -3.697875
  H 2.707662 -2.340671 -2.981018
 22
 40.491144
  C 0.968593 -0.045888 0.614618
  C 2.358165 0.205394 0.379167
  C 3.230232 0.577614 1.562463
  H 2.619142 0.865886 2.411313
  C 2.990243 -0.340160 -0.822779
  C 4.352084 -0.298035 -1.062524
  C 5.035317 -0.771681 -2.158568
  C 4.601831 -1.419175 -3.408214
  C 3.123318 -1.643660 -3.695422
  H 3.021128 -2.099888 -4.678571
  H 6.111187 -0.658146 -2.114389
  H 0.523072 0.163512 1.567243
  H 0.340854 -0.447718 -0.160013
  H 2.014056 1.145716 -0.175026
  H 3.899222 1.400107 1.329314
  H 3.830191 -0.277502 1.854675
  H 2.329313 -0.792904 -1.540823
  H 4.968011 0.146611 -0.295171
  H 5.127760 -2.383054 -3.457165
  H 5.041272 -0.833097 -4.225961
  H 2.576954 -0.702238 -3.711593
  H 2.679529 -2.324356 -2.973021
 22
 42.194110
  C 0.974423 -0.026286 0.629604
  C 2.347556 0.191885 0.408763
  C 3.221942 0.577374 1.582433
  H 2.610764 0.838770 2.440316
  C 2.974105 -0.322120 -0.826474
  C 4.347412 -0.284080 -1.068583
  C 5.021568 -0.770306 -2.156291
  C 4.581147 -1.424826 -3.403505
  C 3.101286 -1.637122 -3.690088
  H 2.996126 -2.099275 -4.669267
  H 6.098854 -0.664003 -2.115480
  H 0.533671 0.151503 1.593058
  H 0.334278 -0.399952 -0.149981
  H 2.301917 1.039995 -0.395363
  H 3.864804 1.421955 1.355251
  H 3.850969 -0.264387 1.862091
  H 2.312849 -0.801465 -1.527495
  H 4.963633 0.169471 -0.304339
  H 5.096742 -2.393644 -3.445012
  H 5.026376 -0.848710 -4.224734
  H 2.564425 -0.692954 -3.715060
  H 2.650276 -2.309046 -2.964634
 22
 39.587820
  C 0.983364 -0.019642 0.645813
  C 2.339785 0.171608 0.438624
  C 3.227698 0.556107 1.587729
  H 2.633341 0.798129 2.462266
  C 2.949814 -0.266778 -0.836303
  C 4.341281 -0.250573 -1.078818
  C 5.012809 -0.759151 -2.151413
  C 4.570895 -1.431226 -3.391049
  C 3.090712 -1.636816 -3.678451
  H 2.985154 -2.115165 -4.649621
  H 6.090908 -0.661108 -2.110304
  H 0.541320 0.161214 1.609801
  H 0.326685 -0.363870 -0.134470
  H 2.454637 0.921536 -0.579699
  H 3.852125 1.414672 1.356054
  H 3.878861 -0.277916 1.840436
  H 2.287582 -0.757323 -1.529620
  H 4.956202 0.208083 -0.316636
  H 5.078311 -2.403841 -3.414767
  H 5.022728 -0.872499 -4.221013
  H 2.561098 -0.689210 -3.722177
  H 2.631980 -2.292987 -2.942982
 22
 30.136560
  C 0.993718 -0.020939 0.655496
  C 2.322725 0.162348 0.475252
  C 3.228411 0.518346 1.602059
  H 2.657458 0.703343 2.506977
  C 2.903781 -0.154017 -0.871150
  C 4.320588 -0.175693 -1.103457
  C 4.993488 -0.727609 -2.147548
  C 4.551082 -1.436970 -3.362959
  C 3.071479 -1.635958 -3.652172
  H 2.965479 -2.148922 -4.605702
  H 6.072844 -0.640897 -2.102080
  H 0.540380 0.126018 1.620389
  H 0.338053 -0.335280 -0.137642
  H 2.538568 0.947171 -0.832307
  H 3.816951 1.407660 1.387929
  H 3.917791 -0.303115 1.789280
  H 2.245538 -0.685159 -1.542276
  H 4.931473 0.293660 -0.345361
  H 5.050011 -2.414861 -3.351677
  H 5.014734 -0.913595 -4.209414
  H 2.552306 -0.684900 -3.732854
  H 2.600524 -2.259091 -2.896089
 22
 20.722842
  C 1.019986 -0.049544 0.673958
  C 2.342992 0.125323 0.492309
  C 3.264365 0.474957 1.599913
  H 2.718573 0.600623 2.530294
  C 2.876491 -0.065552 -0.897439
  C 4.312632 -0.124263 -1.114267
  C 4.990514 -0.728183 -2.126856
  C 4.549888 -1.468084 -3.320977
  C 3.073846 -1.641907 -3.632322
  H 2.972095 -2.180498 -4.571935
  H 6.070823 -0.663753 -2.066875
  H 0.566256 0.055229 1.644238
  H 0.359982 -0.330025 -0.128892
  H 2.560841 0.986808 -1.101607
  H 3.801574 1.399781 1.395853
  H 4.002943 -0.315544 1.727538
  H 2.250655 -0.691807 -1.520980
  H 4.918003 0.374871 -0.370643
  H 5.030855 -2.454592 -3.274928
  H 5.041152 -0.984419 -4.176793
  H 2.575857 -0.683001 -3.746227
  H 2.574393 -2.232246 -2.867515
 22
 17.411996
  C 1.013177 0.050734 0.672363
  C 2.349389 0.100608 0.499650
  C 3.280216 0.409296 1.609261
  H 2.746580 0.502136 2.550318
  C 2.861778 -0.083931 -0.890952
  C 4.309135 -0.121913 -1.102754
  C 4.992350 -0.684174 -2.133906
  C 4.556451 -1.436056 -3.322326
  C 3.083476 -1.660505 -3.610344
  H 2.984877 -2.213858 -4.541625
  H 6.070927 -0.588865 -2.087273
  H 0.555140 0.205181 1.633595
  H 0.341591 -0.175863 -0.138298
  H 2.491989 0.864056 -1.328923
  H 3.806263 1.345407 1.423518
  H 4.030939 -0.375097 1.699442
  H 2.310174 -0.854304 -1.427714
  H 4.906430 0.384066 -0.357436
  H 5.078418 -2.402265 -3.298563
  H 5.012628 -0.927615 -4.184219
  H 2.550913 -0.720653 -3.724175
  H 2.613446 -2.258453 -2.831800
 22
 17.346397
  C 1.010797 0.186534 0.637719
  C 2.351627 0.103329 0.512968
  C 3.275169 0.386152 1.633760
  H 2.727864 0.548112 2.557343
  C 2.868922 -0.201354 -0.860142
  C 4.316831 -0.174462 -1.078391
  C 5.001410 -0.661775 -2.146021
  C 4.559356 -1.368647 -3.360000
  C 3.090337 -1.666239 -3.593455
  H 2.979129 -2.175081 -4.548307
  H 6.075767 -0.523839 -2.120972
  H 0.526711 0.500584 1.547350
  H 0.347829 -0.086457 -0.165270
  H 2.400566 0.615505 -1.440616
  H 3.870949 1.276124 1.428617
  H 3.967872 -0.444611 1.766894
  H 2.398129 -1.101818 -1.262200
  H 4.905266 0.306344 -0.311391
  H 5.142361 -2.295735 -3.425243
  H 4.937691 -0.776100 -4.207709
  H 2.496220 -0.756813 -3.629016
  H 2.695483 -2.331820 -2.828080
 22
 15.802012
  C 1.006102 0.120590 0.664350
  C 2.344832 0.122853 0.497997
  C 3.266892 0.469153 1.605160
  H 2.722292 0.631295 2.530709
  C 2.877320 -0.228642 -0.847349
  C 4.329877 -0.214808 -1.051861
  C 5.009254 -0.706241 -2.120140
  C 4.554053 -1.373472 -3.351863
  C 3.076127 -1.586816 -3.621644
  H 2.957176 -2.057506 -4.595044
  H 6.087210 -0.601670 -2.083799
  H 0.551222 0.363999 1.609335
  H 0.331619 -0.125942 -0.137454
  H 2.411666 0.476242 -1.558496
  H 3.818748 1.379518 1.369421
  H 3.995699 -0.326375 1.756681
  H 2.450594 -1.188088 -1.164675
  H 4.925861 0.241354 -0.277022
  H 5.082985 -2.335498 -3.412291
  H 4.989264 -0.803377 -4.184260
  H 2.531355 -0.647601 -3.634301
  H 2.626143 -2.251036 -2.885617
