 12
 0.000000
  H 1.364184 0.169426 0.473767
  C 2.444682 0.144539 0.411168
  C 3.228802 0.603515 1.552105
  C 2.461015 1.082539 2.744963
  H 3.127951 1.402214 3.540342
  C 3.027032 -0.313261 -0.727835
  H 4.097586 -0.360845 -0.846117
  H 3.933041 1.384865 1.207589
  H 3.933634 -0.198508 1.843797
  H 1.800790 0.302374 3.131237
  H 1.800310 1.912877 2.484353
  H 2.426708 -0.646551 -1.557460
 12
 10.767103
  H 1.344754 0.186696 0.516490
  C 2.422097 0.161863 0.454141
  C 3.211883 0.612261 1.573715
  C 2.455109 1.095775 2.777941
  H 3.131202 1.412311 3.565603
  C 3.065084 -0.351055 -0.821754
  H 4.133230 -0.397817 -0.937672
  H 3.918656 1.387275 1.221894
  H 3.919269 -0.190192 1.855669
  H 1.797192 0.318850 3.171069
  H 1.796712 1.928479 2.524636
  H 2.457133 -0.681231 -1.643726
 12
 32.614971
  H 1.312761 0.185303 0.512350
  C 2.384755 0.180447 0.499969
  C 3.190639 0.617227 1.585675
  C 2.449978 1.107695 2.807709
  H 3.145823 1.417772 3.579607
  C 3.105086 -0.384807 -0.905452
  H 4.171489 -0.413065 -0.974578
  H 3.906244 1.379199 1.226262
  H 3.906940 -0.180964 1.852953
  H 1.804439 0.332173 3.214710
  H 1.803893 1.948898 2.565708
  H 2.477997 -0.706889 -1.707416
 12
 57.105129
  H 1.282931 0.196056 0.539145
  C 2.360299 0.196914 0.540860
  C 3.175223 0.626906 1.609735
  C 2.446300 1.121477 2.842029
  H 3.153311 1.428412 3.606278
  C 3.144241 -0.422890 -1.000186
  H 4.215415 -0.446443 -1.057636
  H 3.893224 1.384612 1.241572
  H 3.893952 -0.174321 1.867676
  H 1.803849 0.346254 3.256683
  H 1.803289 1.967915 2.605794
  H 2.500491 -0.742454 -1.795697
 12
 81.151619
  H 1.261232 0.205091 0.561790
  C 2.334249 0.213084 0.581091
  C 3.159321 0.636482 1.633574
  C 2.442842 1.134936 2.875477
  H 3.160770 1.437968 3.630106
  C 3.182858 -0.461042 -1.095122
  H 4.250464 -0.478682 -1.137879
  H 3.878576 1.388998 1.257179
  H 3.879294 -0.166715 1.881924
  H 1.805071 0.361688 3.297095
  H 1.804647 1.984775 2.645634
  H 2.527360 -0.775092 -1.876829
 12
 102.754562
  H 1.234760 0.214227 0.584888
  C 2.308816 0.229273 0.621555
  C 3.143371 0.645870 1.657113
  C 2.440099 1.148708 2.909661
  H 3.170613 1.447829 3.654616
  C 3.222387 -0.499051 -1.189720
  H 4.292054 -0.510665 -1.217865
  H 3.863804 1.393567 1.272002
  H 3.864520 -0.159923 1.895921
  H 1.805798 0.376595 3.339173
  H 1.805475 2.003285 2.686190
  H 2.551609 -0.809466 -1.962417
 12
 121.384403
  H 1.211034 0.222707 0.606821
  C 2.282641 0.244414 0.659884
  C 3.126903 0.655439 1.681458
  C 2.437866 1.162917 2.944767
  H 3.180640 1.457747 3.678874
  C 3.261951 -0.537717 -1.286215
  H 4.329561 -0.543298 -1.300068
  H 3.848190 1.398483 1.287875
  H 3.848852 -0.152887 1.911236
  H 1.807413 0.393144 3.381790
  H 1.807322 2.021062 2.727967
  H 2.579941 -0.843414 -2.047267
 12
 136.871536
  H 1.185699 0.231582 0.630294
  C 2.257072 0.259093 0.697608
  C 3.109580 0.665103 1.706412
  C 2.436638 1.177420 2.980427
  H 3.192553 1.467930 3.703417
  C 3.302314 -0.576487 -1.383361
  H 4.370658 -0.576482 -1.384101
  H 3.831246 1.403537 1.304377
  H 3.831816 -0.145758 1.927389
  H 1.809271 0.409757 3.425540
  H 1.809488 2.039729 2.770287
  H 2.608034 -0.878691 -2.135851
 12
 149.335575
  H 1.161602 0.240750 0.654127
  C 2.231618 0.273092 0.733240
  C 3.091348 0.675149 1.732026
  C 2.436076 1.192360 3.017268
  H 3.204805 1.478207 3.728415
  C 3.343232 -0.616053 -1.482331
  H 4.410136 -0.610891 -1.471033
  H 3.813238 1.409168 1.321583
  H 3.813703 -0.138374 1.944270
  H 1.811986 0.427458 3.470364
  H 1.812434 2.058242 2.814345
  H 2.639511 -0.914444 -2.225325
 12
 158.355674
  H 1.136049 0.252626 0.684536
  C 2.208604 0.286407 0.767103
  C 3.066745 0.685985 1.759485
  C 2.436799 1.209055 3.058548
  H 3.220392 1.489745 3.756667
  C 3.386264 -0.656446 -1.583174
  H 4.458361 -0.650439 -1.570677
  H 3.788664 1.413336 1.338740
  H 3.789013 -0.129838 1.959978
  H 1.815626 0.447904 3.522036
  H 1.816238 2.079476 2.865330
  H 2.676212 -0.955253 -2.327431
 12
 163.438098
  H 1.114383 0.266635 0.719872
  C 2.186215 0.299661 0.800500
  C 3.043078 0.698328 1.790367
  C 2.437006 1.226342 3.101429
  H 3.232751 1.501857 3.786611
  C 3.427558 -0.697546 -1.685404
  H 4.502333 -0.696042 -1.685027
  H 3.765497 1.420513 1.359738
  H 3.765795 -0.120556 1.980225
  H 1.818586 0.469044 3.574037
  H 1.819296 2.100319 2.917272
  H 2.721090 -0.998554 -2.435738
 12
 166.280974
  H 1.092420 0.282271 0.759785
  C 2.165569 0.313742 0.836530
  C 3.022336 0.711349 1.823338
  C 2.437292 1.242992 3.142456
  H 3.244006 1.514179 3.816567
  C 3.467273 -0.738022 -1.786565
  H 4.545774 -0.744764 -1.807604
  H 3.744858 1.429129 1.384178
  H 3.745093 -0.110312 2.004284
  H 1.820851 0.488704 3.622798
  H 1.821736 2.120203 2.965435
  H 2.768574 -1.043268 -2.548037
 12
 167.618660
  H 1.072366 0.298509 0.800554
  C 2.145761 0.328278 0.872959
  C 3.004369 0.724714 1.856587
  C 2.437656 1.259300 3.182888
  H 3.253721 1.526402 3.846723
  C 3.505894 -0.778659 -1.888013
  H 4.586059 -0.795987 -1.935673
  H 3.727117 1.438933 1.409712
  H 3.727352 -0.099676 2.029431
  H 1.823187 0.507755 3.669755
  H 1.824073 2.139020 3.012356
  H 2.819512 -1.088860 -2.662151
 12
 168.046100
  H 1.053411 0.314682 0.841244
  C 2.127520 0.343101 0.910255
  C 2.989149 0.737748 1.889139
  C 2.439055 1.274682 3.220884
  H 3.263753 1.538090 3.875386
  C 3.544121 -0.819229 -1.989438
  H 4.624890 -0.847525 -2.064804
  H 3.712200 1.448492 1.435143
  H 3.712457 -0.089047 2.054611
  H 1.826272 0.525398 3.713546
  H 1.827186 2.156777 3.055879
  H 2.870802 -1.134404 -2.776263
