 20
 0.000000
  C 0.922311 0.056635 0.299317
  C 2.394480 0.051990 0.036410
  H 3.023464 0.001398 0.914515
  C 2.981857 0.114206 -1.162643
  C 2.341392 0.197510 -2.531581
  C 0.828254 0.211942 -2.721679
  H 0.606598 0.275211 -3.784881
  C 4.438970 0.123915 -1.221905
  C 5.213029 0.207677 -2.304147
  O 6.570617 0.212209 -2.278794
  H 0.705499 0.007529 1.365455
  H 0.439823 -0.802780 -0.159872
  H 0.468217 0.969995 -0.080894
  H 2.729482 -0.649755 -3.107578
  H 2.733292 1.105161 -3.003225
  H 0.374547 1.070043 -2.235639
  H 0.371112 -0.695776 -2.339765
  H 4.947774 0.054383 -0.264616
  H 4.861836 0.281905 -3.320337
  H 6.877613 0.145586 -1.365122
 20
 -0.732161
  C 0.918828 0.075127 0.335591
  C 2.367615 0.022332 -0.030463
  H 3.021756 -0.107957 0.824691
  C 2.968718 0.123370 -1.222508
  C 2.348183 0.259476 -2.592704
  C 0.832517 0.190192 -2.734301
  H 0.579519 0.180706 -3.793572
  C 4.425992 0.089141 -1.229582
  C 5.230829 0.242491 -2.281923
  O 6.581311 0.215029 -2.228882
  H 0.820135 0.249341 1.404559
  H 0.419245 -0.864635 0.106557
  H 0.401482 0.873805 -0.187568
  H 2.776545 -0.540711 -3.205125
  H 2.692938 1.206695 -3.020078
  H 0.348114 1.053044 -2.288875
  H 0.436204 -0.715930 -2.285435
  H 4.891383 -0.065551 -0.261332
  H 4.895785 0.409242 -3.293923
  H 6.866516 0.066539 -1.319288
 20
 0.184899
  C 0.928508 0.113477 0.337119
  C 2.365314 -0.089167 -0.020121
  H 3.000340 -0.336846 0.822547
  C 2.964800 0.092119 -1.202295
  C 2.341007 0.274929 -2.568671
  C 0.831122 0.160641 -2.745042
  H 0.608513 0.138416 -3.811185
  C 4.423471 0.054064 -1.232166
  C 5.221070 0.293786 -2.272762
  O 6.577492 0.280093 -2.225562
  H 0.865975 0.503250 1.352293
  H 0.360599 -0.815673 0.299209
  H 0.480943 0.841070 -0.329739
  H 2.796585 -0.498632 -3.195753
  H 2.666878 1.239895 -2.969120
  H 0.301548 1.009260 -2.322959
  H 0.452679 -0.756075 -2.302413
  H 4.897481 -0.164372 -0.279815
  H 4.880577 0.534408 -3.266870
  H 6.868784 0.064523 -1.330102
 20
 3.200808
  C 0.950754 0.168135 0.329999
  C 2.350317 -0.212093 -0.025759
  H 2.944772 -0.614886 0.785553
  C 2.958631 0.072365 -1.183389
  C 2.333164 0.284043 -2.548680
  C 0.832397 0.107649 -2.756888
  H 0.634855 0.098079 -3.828185
  C 4.415991 0.037360 -1.231589
  C 5.207095 0.350511 -2.257856
  O 6.563615 0.359706 -2.211505
  H 0.974571 0.720213 1.271239
  H 0.285052 -0.683020 0.455434
  H 0.592956 0.853609 -0.429038
  H 2.823689 -0.462413 -3.181895
  H 2.627195 1.266647 -2.930236
  H 0.248467 0.918451 -2.332274
  H 0.489273 -0.835475 -2.340383
  H 4.897303 -0.224666 -0.293309
  H 4.860879 0.651438 -3.233353
  H 6.859936 0.088658 -1.332935
 20
 9.871372
  C 0.985978 0.233234 0.318709
  C 2.325954 -0.311898 -0.048252
  H 2.839672 -0.921878 0.683283
  C 2.950089 0.074316 -1.173189
  C 2.324904 0.281610 -2.543116
  C 0.832585 0.047357 -2.758819
  H 0.636295 0.060656 -3.830005
  C 4.404841 0.041627 -1.225120
  C 5.194864 0.395559 -2.238033
  O 6.550261 0.432755 -2.181688
  H 1.129921 0.873878 1.194921
  H 0.225747 -0.501612 0.563148
  H 0.724635 0.914944 -0.483133
  H 2.844415 -0.451556 -3.167155
  H 2.583462 1.272079 -2.931186
  H 0.207497 0.811580 -2.308029
  H 0.534952 -0.922598 -2.368404
  H 4.887087 -0.226823 -0.288746
  H 4.848739 0.702848 -3.211363
  H 6.846208 0.148331 -1.307503
 20
 20.414890
  C 1.029817 0.288164 0.292726
  C 2.300649 -0.393226 -0.087349
  H 2.698805 -1.188243 0.529033
  C 2.945996 0.081215 -1.173722
  C 2.322220 0.246608 -2.554480
  C 0.828106 -0.001357 -2.728782
  H 0.617551 -0.107404 -3.791991
  C 4.395870 0.066838 -1.213161
  C 5.191007 0.463690 -2.213819
  O 6.542051 0.536046 -2.140427
  H 1.267737 0.951087 1.133799
  H 0.190440 -0.335567 0.580181
  H 0.875202 1.017050 -0.512347
  H 2.827137 -0.532739 -3.129701
  H 2.580719 1.210557 -3.000206
  H 0.214104 0.811902 -2.356484
  H 0.531442 -0.918785 -2.224644
  H 4.873739 -0.218782 -0.279691
  H 4.843109 0.839449 -3.161348
  H 6.839479 0.148474 -1.315732
 20
 37.766922
  C 1.102289 0.371993 0.258213
  C 2.263038 -0.475643 -0.126355
  H 2.576394 -1.344021 0.419887
  C 2.920826 0.064099 -1.176538
  C 2.301408 0.189105 -2.563348
  C 0.809659 -0.089586 -2.713533
  H 0.558822 -0.096959 -3.771330
  C 4.368263 0.064259 -1.197325
  C 5.170330 0.505550 -2.182844
  O 6.517900 0.573223 -2.106151
  H 1.413645 1.077316 1.052286
  H 0.182054 -0.104532 0.571004
  H 1.214359 1.121237 -0.549148
  H 2.842526 -0.544900 -3.161607
  H 2.502542 1.177316 -2.982580
  H 0.194056 0.658630 -2.228903
  H 0.560317 -1.061928 -2.292655
  H 4.839333 -0.233470 -0.260750
  H 4.821312 0.927392 -3.108275
  H 6.807635 0.197646 -1.281643
 20
 61.735119
  C 1.141772 0.365176 0.268611
  C 2.268067 -0.512754 -0.110820
  H 2.503732 -1.469171 0.306791
  C 2.901599 0.127212 -1.155676
  C 2.293481 0.164583 -2.552768
  C 0.795325 -0.081095 -2.678502
  H 0.532430 -0.135932 -3.728235
  C 4.354217 0.126146 -1.170960
  C 5.157300 0.566071 -2.160248
  O 6.507724 0.567113 -2.115605
  H 1.383924 1.175114 0.976503
  H 0.193266 -0.108946 0.502372
  H 1.487179 1.091295 -0.592267
  H 2.816768 -0.616643 -3.107246
  H 2.536448 1.106816 -3.062616
  H 0.215087 0.714137 -2.230864
  H 0.519503 -1.024024 -2.201239
  H 4.818250 -0.205830 -0.248379
  H 4.808941 0.968169 -3.090147
  H 6.794757 0.170602 -1.309443
 20
 79.744783
  C 1.199160 0.319364 0.311691
  C 2.193377 -0.569615 -0.138795
  H 2.426032 -1.547746 0.253021
  C 2.873378 0.132462 -1.183737
  C 2.265641 0.163787 -2.597099
  C 0.764720 -0.077778 -2.686584
  H 0.468047 -0.124477 -3.732345
  C 4.337459 0.129285 -1.169870
  C 5.151932 0.556956 -2.135704
  O 6.508565 0.603520 -2.050501
  H 1.489354 1.185048 0.893440
  H 0.229055 -0.056109 0.650410
  H 1.837755 1.092118 -0.760093
  H 2.771401 -0.626757 -3.162579
  H 2.506988 1.112850 -3.082785
  H 0.200194 0.719695 -2.207672
  H 0.499895 -1.017900 -2.208464
  H 4.781721 -0.195085 -0.233225
  H 4.816218 0.928275 -3.090742
  H 6.788876 0.268283 -1.190605
 20
 62.554979
  C 1.186189 0.240966 0.361095
  C 2.123427 -0.596054 -0.143491
  H 2.383641 -1.576240 0.235306
  C 2.854144 0.153377 -1.206397
  C 2.245784 0.152535 -2.642062
  C 0.738263 -0.043000 -2.694961
  H 0.414815 -0.155434 -3.727428
  C 4.333421 0.136187 -1.166523
  C 5.157098 0.570222 -2.112790
  O 6.511056 0.670930 -1.991480
  H 1.468776 1.179722 0.817218
  H 0.254263 -0.083651 0.811994
  H 2.151212 1.057565 -0.900762
  H 2.693070 -0.700140 -3.170874
  H 2.534387 1.061054 -3.166053
  H 0.209592 0.795609 -2.239529
  H 0.457973 -0.941923 -2.149771
  H 4.760462 -0.243668 -0.244842
  H 4.827016 0.997578 -3.045183
  H 6.785560 0.315923 -1.139506
 20
 37.575158
  C 1.199296 0.170317 0.495233
  C 2.094735 -0.522656 -0.207497
  H 2.325655 -1.565861 -0.051161
  C 2.829037 0.312270 -1.223599
  C 2.259022 0.134419 -2.657267
  C 0.749861 -0.050038 -2.709131
  H 0.436138 -0.176222 -3.742446
  C 4.311798 0.256700 -1.140576
  C 5.156944 0.582451 -2.100605
  O 6.515398 0.523867 -2.003720
  H 1.446343 1.114796 0.942815
  H 0.348421 -0.296756 0.962941
  H 2.241573 1.224431 -0.941211
  H 2.740403 -0.718620 -3.134923
  H 2.542135 1.015326 -3.240264
  H 0.239772 0.827160 -2.319038
  H 0.436970 -0.921360 -2.141060
  H 4.708861 0.007548 -0.162587
  H 4.857131 0.860587 -3.098832
  H 6.765564 0.221871 -1.115053
 20
 22.490115
  C 1.229304 0.100518 0.548059
  C 2.082437 -0.551276 -0.233921
  H 2.366384 -1.581330 -0.079722
  C 2.813707 0.300556 -1.246493
  C 2.262222 0.111695 -2.679716
  C 0.744653 0.003940 -2.740743
  H 0.430056 -0.194014 -3.762785
  C 4.299259 0.245006 -1.145622
  C 5.162611 0.560794 -2.099208
  O 6.514452 0.570290 -1.961189
  H 1.378969 1.133542 0.826467
  H 0.456910 -0.355942 1.154453
  H 2.314328 1.252648 -0.969634
  H 2.708443 -0.778551 -3.132286
  H 2.582212 0.971895 -3.269640
  H 0.274965 0.927498 -2.407851
  H 0.387775 -0.807774 -2.111030
  H 4.681227 -0.082332 -0.183529
  H 4.877747 0.891712 -3.085711
  H 6.750639 0.281034 -1.071835
 20
 11.209465
  C 1.236783 0.007441 0.597309
  C 2.125221 -0.500610 -0.240138
  H 2.442444 -1.535515 -0.181238
  C 2.793327 0.389192 -1.239666
  C 2.272029 0.137779 -2.662653
  C 0.755669 0.063321 -2.738573
  H 0.449790 -0.131347 -3.767922
  C 4.296216 0.313785 -1.138022
  C 5.162000 0.503501 -2.119622
  O 6.511202 0.431242 -2.001504
  H 1.132606 1.053525 0.814295
  H 0.578269 -0.634906 1.182171
  H 2.392362 1.369602 -0.959607
  H 2.715422 -0.782257 -3.050235
  H 2.620507 0.955654 -3.300918
  H 0.301231 0.996369 -2.421391
  H 0.375761 -0.741255 -2.114953
  H 4.666204 0.105164 -0.138514
  H 4.875643 0.738216 -3.134136
  H 6.745934 0.221758 -1.088152
 20
 5.489207
  C 1.247078 -0.095982 0.626602
  C 2.145014 -0.489422 -0.256994
  H 2.497091 -1.512444 -0.273355
  C 2.782201 0.443330 -1.248884
  C 2.268377 0.148499 -2.668357
  C 0.747119 0.132680 -2.751801
  H 0.431078 -0.082893 -3.770006
  C 4.276978 0.383579 -1.128846
  C 5.153919 0.414638 -2.120588
  O 6.503894 0.360735 -1.973401
  H 0.997011 0.941232 0.775792
  H 0.748900 -0.803110 1.270555
  H 2.411873 1.439729 -0.977040
  H 2.664152 -0.812996 -3.002423
  H 2.649338 0.920088 -3.339845
  H 0.338600 1.098828 -2.463017
  H 0.329009 -0.624734 -2.093701
  H 4.643543 0.319452 -0.109282
  H 4.888172 0.483915 -3.163188
  H 6.725275 0.295534 -1.035691
 20
 3.846701
  C 1.376908 -0.167785 0.713519
  C 2.151908 -0.508076 -0.297696
  H 2.413325 -1.542652 -0.474279
  C 2.733957 0.474456 -1.275666
  C 2.259418 0.147574 -2.695979
  C 0.740092 0.190951 -2.810557
  H 0.432622 -0.014859 -3.833175
  C 4.230002 0.481448 -1.121573
  C 5.128339 0.315377 -2.079908
  O 6.475091 0.299237 -1.896047
  H 1.116473 0.860782 0.905742
  H 0.965797 -0.898714 1.391679
  H 2.338615 1.462051 -0.995269
  H 2.618539 -0.841883 -2.978839
  H 2.688434 0.874370 -3.389570
  H 0.365467 1.173306 -2.530468
  H 0.281380 -0.546455 -2.156522
  H 4.571136 0.606719 -0.099473
  H 4.885532 0.163401 -3.118442
  H 6.675584 0.431411 -0.960949
