 11
 0.000000
  H 1.363789 0.138534 0.394016
  C 2.438759 0.112343 0.330826
  H 2.997512 0.456121 1.187788
  C 3.069460 -0.338694 -0.791602
  C 4.468638 -0.377772 -0.888368
  C 5.136985 -0.832587 -2.022769
  H 4.596249 -1.183510 -2.897020
  O 6.408836 -0.877035 -2.135413
  H 2.487034 -0.678108 -1.638017
  H 5.078602 -0.044714 -0.058413
  H 6.910241 -0.560997 -1.348714
 11
 2.714226
  H 1.346255 0.072962 0.391397
  C 2.419622 0.109240 0.320096
  H 2.953637 0.571961 1.134629
  C 3.076292 -0.403177 -0.759116
  C 4.476774 -0.363649 -0.866232
  C 5.149169 -0.776655 -2.013481
  H 4.589193 -0.996538 -2.921182
  O 6.421095 -0.779713 -2.172072
  H 2.513752 -0.859036 -1.562597
  H 5.052361 0.074502 -0.060245
  H 6.973895 -0.914826 -1.371141
 11
 10.102945
  H 1.323134 0.020304 0.397173
  C 2.393602 0.106553 0.317807
  H 2.910424 0.609980 1.119585
  C 3.068480 -0.402831 -0.751654
  C 4.468772 -0.322818 -0.851633
  C 5.166421 -0.746033 -1.974859
  H 4.618809 -0.976313 -2.890913
  O 6.448588 -0.663492 -2.121887
  H 2.524620 -0.893220 -1.547570
  H 5.028139 0.165716 -0.063370
  H 7.038844 -1.157000 -1.518019
 11
 15.550554
  H 1.292045 0.018130 0.366306
  C 2.366065 0.098556 0.315606
  H 2.869690 0.562470 1.150313
  C 3.062512 -0.368574 -0.762275
  C 4.462170 -0.267711 -0.841103
  C 5.177942 -0.732444 -1.940422
  H 4.640167 -1.133270 -2.803175
  O 6.461082 -0.594256 -2.054975
  H 2.534986 -0.832527 -1.583422
  H 5.009553 0.197846 -0.030127
  H 7.119728 -1.242726 -1.752605
 11
 11.246651
  H 1.274161 0.021612 0.346554
  C 2.351223 0.081037 0.312558
  H 2.857163 0.438932 1.198608
  C 3.049142 -0.304662 -0.792329
  C 4.450592 -0.201266 -0.856847
  C 5.191057 -0.735648 -1.901574
  H 4.710405 -1.406041 -2.618963
  O 6.463106 -0.530682 -1.994525
  H 2.523578 -0.679555 -1.657423
  H 4.997187 0.227253 -0.023266
  H 7.125705 -1.249655 -1.974635
 11
 3.013161
  H 1.244679 0.056034 0.286111
  C 2.321535 0.107489 0.289104
  H 2.798513 0.504206 1.172599
  C 3.047049 -0.314242 -0.767117
  C 4.469193 -0.240765 -0.781909
  C 5.243218 -0.775402 -1.810397
  H 4.774208 -1.380616 -2.579006
  O 6.502442 -0.562567 -1.830518
  H 2.540106 -0.715633 -1.639453
  H 5.000890 0.191689 0.063399
  H 7.084939 -1.159596 -2.341649
 11
 4.439249
  H 1.243680 0.125553 0.259524
  C 2.318988 0.187361 0.251787
  H 2.786690 0.813871 0.995847
  C 3.062722 -0.460140 -0.698528
  C 4.459391 -0.353193 -0.750424
  C 5.224715 -0.716772 -1.854053
  H 4.764020 -0.959267 -2.809214
  O 6.506021 -0.634189 -1.737736
  H 2.570401 -1.070945 -1.444515
  H 5.042783 -0.074382 0.122427
  H 7.089420 -1.112451 -2.365695
 11
 12.884897
  H 1.230379 0.168274 0.298321
  C 2.305063 0.216841 0.258608
  H 2.794386 0.933216 0.898560
  C 3.009088 -0.536680 -0.620531
  C 4.405112 -0.407032 -0.764143
  C 5.184279 -0.629435 -1.893679
  H 4.811666 -0.665279 -2.913521
  O 6.459543 -0.613275 -1.660712
  H 2.500498 -1.258142 -1.248341
  H 5.094999 -0.289128 0.070385
  H 7.060696 -1.179429 -2.187007
 11
 26.175121
  H 1.313271 0.150056 0.374185
  C 2.372278 0.246271 0.207495
  H 2.884105 1.047790 0.713994
  C 3.017544 -0.575316 -0.646250
  C 4.397124 -0.453387 -0.906835
  C 5.223160 -0.570792 -2.010092
  H 4.992833 -0.446055 -3.061237
  O 6.476810 -0.618077 -1.616906
  H 2.487929 -1.392858 -1.121889
  H 5.208818 -0.432629 -0.149901
  H 7.086816 -1.265022 -2.026568
 11
 48.091544
  H 1.304587 0.168569 0.517499
  C 2.347918 0.261483 0.269157
  H 2.897329 1.062793 0.735720
  C 2.924823 -0.573416 -0.628210
  C 4.252739 -0.448813 -1.039259
  C 5.148135 -0.531609 -2.049653
  H 5.074965 -0.404507 -3.118243
  O 6.369229 -0.571897 -1.468267
  H 2.367501 -1.420331 -1.015521
  H 5.278899 -0.453295 -0.323405
  H 6.991997 -1.275439 -1.747777
 11
 59.862452
  H 1.323639 0.143626 0.570747
  C 2.347919 0.258680 0.263956
  H 2.899475 1.080193 0.689280
  C 2.902017 -0.585347 -0.643859
  C 4.187857 -0.465617 -1.133361
  C 5.106447 -0.502180 -2.068572
  H 5.098810 -0.349489 -3.133195
  O 6.347749 -0.559226 -1.391345
  H 2.342444 -1.454746 -0.976442
  H 5.487623 -0.500588 -0.403211
  H 6.962045 -1.275723 -1.664992
 11
 50.232385
  H 1.299453 0.145622 0.578320
  C 2.314921 0.268795 0.251274
  H 2.876294 1.074920 0.688383
  C 2.866201 -0.584966 -0.658675
  C 4.125932 -0.472808 -1.171933
  C 5.072101 -0.478524 -2.058382
  H 5.099433 -0.320759 -3.120379
  O 6.351542 -0.550351 -1.345276
  H 2.314423 -1.474045 -0.950644
  H 5.786359 -0.538514 -0.489732
  H 6.949746 -1.285642 -1.620533
 11
 41.304052
  H 1.260873 0.136328 0.582347
  C 2.264750 0.269616 0.245667
  H 2.798369 1.127192 0.620593
  C 2.825990 -0.593356 -0.636571
  C 4.072664 -0.477777 -1.159299
  C 5.069485 -0.487899 -2.005940
  H 5.104562 -0.304877 -3.060962
  O 6.378331 -0.556408 -1.388823
  H 2.273852 -1.488848 -0.917487
  H 6.006173 -0.517259 -0.461486
  H 6.916799 -1.295759 -1.692342
 11
 35.078147
  H 1.261874 0.105400 0.629563
  C 2.244892 0.266452 0.229574
  H 2.759737 1.164232 0.523578
  C 2.799742 -0.627047 -0.647190
  C 4.017409 -0.498423 -1.221145
  C 5.055070 -0.445155 -1.982403
  H 5.108220 -0.190118 -3.030003
  O 6.379987 -0.549807 -1.380014
  H 2.263166 -1.542424 -0.874992
  H 6.172445 -0.596901 -0.418654
  H 6.922999 -1.287686 -1.751752
 11
 32.923557
  H 1.275791 0.019387 0.702371
  C 2.195824 0.269037 0.207140
  H 2.615572 1.241667 0.393860
  C 2.805354 -0.620014 -0.643474
  C 3.953719 -0.390634 -1.313622
  C 5.065990 -0.373395 -1.958761
  H 5.188995 -0.065163 -2.988975
  O 6.371312 -0.590288 -1.355306
  H 2.348655 -1.589733 -0.804129
  H 6.299398 -0.779300 -0.391878
  H 6.885673 -1.283807 -1.837955
