9

C 0.959565 -0.015491 -0.004161
C 2.45583 -0.000652 0.010186
C 3.169662 0.812807 0.796393
H 4.239534008636268 0.8247076773370301 0.807893391972396
H 0.597546 -0.754542 -0.718451
H 0.564337 0.956363 -0.299722
H 0.564336 -0.277783 0.977194
H 2.954001 -0.691315 -0.657348
H 2.657309 1.501021 1.461557
