 9
 0.000000
  C 0.960381 -0.016339 -0.004981
  C 2.458765 0.003588 0.014283
  C 3.161203 0.809508 0.793204
  H 4.235813 0.819692 0.803046
  H 0.597781 -0.754091 -0.718016
  H 0.565288 0.955385 -0.296352
  H 0.565287 -0.274448 0.976103
  H 2.959996 -0.685524 -0.651751
  H 2.657606 1.497346 1.458004
 9
 10.614018
  C 0.974203 0.016957 0.016036
  C 2.500381 0.013860 0.022161
  C 3.214483 0.780781 0.773742
  H 4.270962 0.879316 0.887505
  H 0.593306 -0.681182 -0.719706
  H 0.603248 1.005593 -0.225233
  H 0.592328 -0.253599 1.002477
  H 2.949217 -0.702907 -0.663631
  H 2.464784 1.296281 1.280176
 9
 28.506352
  C 0.977647 0.038810 0.034840
  C 2.530780 0.022233 0.031953
  C 3.249288 0.785581 0.779183
  H 4.289045 0.936488 0.941498
  H 0.597795 -0.663523 -0.695657
  H 0.621045 1.027852 -0.207166
  H 0.611023 -0.236561 1.020600
  H 2.913754 -0.718447 -0.676656
  H 2.355041 1.160157 1.143332
 9
 48.779095
  C 0.957354 0.048021 0.047113
  C 2.545573 0.039238 0.051909
  C 3.290864 0.796191 0.788315
  H 4.321041 0.962726 0.961120
  H 0.595541 -0.660420 -0.689600
  H 0.591742 1.042013 -0.204386
  H 0.583679 -0.235341 1.028545
  H 2.910595 -0.714772 -0.668387
  H 2.318051 1.065932 1.049440
 9
 65.674351
  C 0.941873 0.050459 0.054524
  C 2.548243 0.039111 0.078941
  C 3.310849 0.808905 0.803683
  H 4.342479 0.975686 0.959090
  H 0.594908 -0.651941 -0.693118
  H 0.577150 1.044929 -0.193982
  H 0.556410 -0.243255 1.027841
  H 2.906713 -0.708761 -0.658986
  H 2.295736 1.011643 0.969592
 9
 73.149012
  C 0.933624 0.054006 0.050918
  C 2.544789 0.056497 0.069156
  C 3.316290 0.823859 0.799597
  H 4.349065 0.975372 0.955687
  H 0.589988 -0.651302 -0.697132
  H 0.554202 1.041582 -0.194552
  H 0.551400 -0.246645 1.024878
  H 2.906600 -0.721480 -0.640576
  H 2.283933 0.973662 0.951295
 9
 88.508944
  C 0.923668 0.056123 0.053260
  C 2.555339 0.080059 0.072170
  C 3.330212 0.835755 0.807286
  H 4.363760 0.963078 0.974926
  H 0.601339 -0.661672 -0.691212
  H 0.525897 1.035535 -0.198586
  H 0.545690 -0.247284 1.028481
  H 2.875378 -0.717333 -0.640882
  H 2.262124 0.929955 0.887404
 9
 101.145526
  C 0.898111 0.055470 0.052124
  C 2.562717 0.077148 0.084336
  C 3.343103 0.846937 0.817931
  H 4.381040 0.975245 0.962738
  H 0.589291 -0.663722 -0.697910
  H 0.504210 1.037467 -0.203194
  H 0.516802 -0.252396 1.024162
  H 2.879955 -0.718794 -0.632806
  H 2.253847 0.872969 0.853331
 9
 100.971973
  C 0.871970 0.015259 0.070081
  C 2.493210 0.020451 0.144119
  C 3.331725 0.850571 0.812622
  H 4.374391 0.834295 0.964269
  H 0.575571 -0.726419 -0.662239
  H 0.501271 0.993830 -0.239225
  H 0.469585 -0.238423 1.043827
  H 2.968188 -0.560090 -0.680655
  H 2.285061 0.990415 0.766247
 9
 101.962713
  C 0.864652 0.034771 0.044891
  C 2.541445 0.055053 0.097905
  C 3.338866 0.830844 0.811330
  H 4.378351 0.942809 0.953821
  H 0.583792 -0.704188 -0.693826
  H 0.490083 1.012520 -0.247008
  H 0.505717 -0.238367 1.030736
  H 2.890427 -0.671330 -0.678897
  H 2.249005 0.893045 0.829415
 9
 112.648681
  C 0.849539 0.034504 0.044589
  C 2.564248 0.062614 0.081604
  C 3.354411 0.833719 0.813835
  H 4.377663 0.956475 0.973790
  H 0.574250 -0.707460 -0.691355
  H 0.474884 1.011760 -0.245255
  H 0.481924 -0.245107 1.026425
  H 2.874747 -0.684083 -0.684857
  H 2.239446 0.851284 0.778178
 9
 120.580789
  C 0.836168 0.035650 0.036514
  C 2.591151 0.070407 0.055682
  C 3.359495 0.819366 0.809468
  H 4.414663 0.997038 0.990202
  H 0.564850 -0.710232 -0.709862
  H 0.447751 1.016940 -0.245927
  H 0.472905 -0.257170 1.016097
  H 2.833919 -0.726073 -0.682747
  H 2.200010 0.815040 0.774688
 9
 119.884132
  C 0.819448 0.026843 0.036756
  C 2.573265 0.065504 0.069544
  C 3.342434 0.822523 0.837424
  H 4.389118 0.949583 0.946575
  H 0.563252 -0.721389 -0.701412
  H 0.439285 0.998587 -0.260109
  H 0.445559 -0.255570 1.015389
  H 2.857299 -0.706622 -0.674665
  H 2.196335 0.821611 0.733978
 9
 127.113673
  C 0.789905 0.019810 0.031567
  C 2.591062 0.069732 0.052173
  C 3.359892 0.815840 0.832044
  H 4.389396 0.934156 0.966775
  H 0.554165 -0.733476 -0.703866
  H 0.407765 0.988559 -0.266457
  H 0.433284 -0.265151 1.013480
  H 2.852767 -0.702927 -0.686525
  H 2.168551 0.807246 0.680040
