16

C 0.911634 0.048619 0.274103
C 2.403241 0.059205 0.086406
C 3.241848 -0.012388 1.355317
H 2.740334460930618 -0.06564117199105379 2.299005650881738
C 2.996884 0.127487 -1.123676
H 2.544167676596036 0.18210613755031516 -2.0916453591931807
C 4.454305 0.13233 -1.209419
C 5.195353 0.194929 -2.318927
H 6.265268559716687 0.19569081437422867 -2.3323476823592166
H 0.603824 -0.010018 1.313219
H 0.468728 -0.819717 -0.206124
H 0.468728 0.965465 -0.105392
H 3.887252 0.871678 1.38603
H 3.887254 -0.894302 1.286383
H 4.998468 0.079716 -0.276963
H 4.818973 0.251812 -3.326934
