 19
 0.000000
  C 1.029275 0.118746 0.346651
  C 2.501591 0.121477 0.353075
  C 3.234696 0.596494 1.534952
  H 2.578787 0.918357 2.336422
  C 3.146786 -0.339088 -0.793522
  C 4.533651 -0.409219 -0.969056
  C 5.171677 -0.862453 -2.098516
  C 4.565151 -1.357226 -3.331998
  H 3.481592 -1.365847 -3.354510
  H 6.253858 -0.864853 -2.104398
  H 0.606364 0.491544 1.274658
  H 0.655857 -0.891537 0.169805
  H 0.655671 0.725907 -0.479885
  H 3.891182 1.424391 1.260191
  H 3.891590 -0.191030 1.909306
  H 2.514941 -0.666136 -1.607295
  H 5.153893 -0.079277 -0.147281
  H 4.942468 -2.365459 -3.523642
  H 4.943094 -0.761411 -4.167335
 19
 12.642293
  C 1.051021 0.144434 0.410415
  C 2.548806 0.075178 0.238223
  C 3.336690 0.544689 1.405862
  H 2.677347 0.866731 2.207532
  C 2.968401 -0.396821 -0.936039
  C 4.328409 -0.400552 -0.946933
  C 5.113056 -0.829415 -2.016145
  C 4.643781 -1.340455 -3.290492
  H 3.568014 -1.378585 -3.385957
  H 6.186791 -0.784143 -1.903750
  H 0.751439 0.533172 1.377734
  H 0.626858 -0.853646 0.271309
  H 0.627016 0.768960 -0.380596
  H 3.980766 1.387259 1.142667
  H 3.981359 -0.245246 1.798855
  H 2.321942 -0.717753 -1.734038
  H 4.884935 -0.056061 -0.089285
  H 5.065387 -2.332475 -3.456099
  H 5.065633 -0.737780 -4.095536
 19
 44.760585
  C 1.045409 0.165107 0.461660
  C 2.626159 0.043417 0.159045
  C 3.401922 0.515774 1.334409
  H 2.727734 0.832815 2.123901
  C 2.852110 -0.439460 -1.042616
  C 4.206548 -0.396997 -0.938872
  C 5.079247 -0.806093 -1.959190
  C 4.698127 -1.330632 -3.265553
  H 3.625448 -1.393736 -3.422073
  H 6.145662 -0.733505 -1.779409
  H 0.815953 0.559522 1.444414
  H 0.601119 -0.820557 0.352174
  H 0.601268 0.801873 -0.298856
  H 4.038404 1.373970 1.092199
  H 4.039020 -0.270942 1.753099
  H 2.180682 -0.750050 -1.815400
  H 4.739420 -0.053973 -0.084585
  H 5.154737 -2.316198 -3.408683
  H 5.154470 -0.717661 -4.050543
 19
 86.115960
  C 1.041201 0.179434 0.488519
  C 2.701541 0.016615 0.099923
  C 3.439834 0.500457 1.293500
  H 2.764929 0.814294 2.062339
  C 2.773574 -0.481935 -1.113614
  C 4.126477 -0.391413 -0.920271
  C 5.050283 -0.789649 -1.921568
  C 4.719968 -1.311507 -3.230658
  H 3.650583 -1.382024 -3.419296
  H 6.110784 -0.707957 -1.704545
  H 0.853088 0.575482 1.470996
  H 0.605843 -0.805314 0.393400
  H 0.602796 0.823445 -0.261405
  H 4.071200 1.359829 1.057383
  H 4.071696 -0.279476 1.724858
  H 2.088688 -0.786852 -1.858990
  H 4.688774 -0.058970 -0.076463
  H 5.192930 -2.297329 -3.365385
  H 5.198880 -0.690657 -4.004502
 19
 111.521402
  C 0.911271 0.190494 0.471202
  C 2.913762 -0.017940 0.091276
  C 3.434858 0.535966 1.342705
  H 2.655544 0.847985 2.028695
  C 2.810992 -0.546560 -1.067910
  C 4.281899 -0.415657 -0.905176
  C 5.080999 -0.799683 -1.922116
  C 4.686020 -1.289481 -3.270371
  H 3.616135 -1.308197 -3.423919
  H 6.154126 -0.771079 -1.752545
  H 0.781656 0.601172 1.457640
  H 0.582489 -0.827357 0.380695
  H 0.575750 0.841890 -0.312081
  H 4.034579 1.424161 1.133155
  H 4.037738 -0.207691 1.866690
  H 2.126969 -0.872933 -1.802029
  H 4.891431 -0.129554 -0.069167
  H 5.077769 -2.297264 -3.428246
  H 5.130285 -0.641134 -4.031623
 19
 114.329483
  C 0.595762 0.229972 0.558284
  C 3.136374 -0.013131 0.106821
  C 3.471295 0.542500 1.384254
  H 2.574842 0.791004 1.946436
  C 2.932115 -0.524489 -1.023811
  C 4.476547 -0.420528 -0.933562
  C 5.178750 -0.820148 -2.000569
  C 4.685016 -1.310252 -3.313414
  H 3.605791 -1.311105 -3.409871
  H 6.256013 -0.820878 -1.909500
  H 0.468159 0.637034 1.541917
  H 0.371280 -0.811342 0.433638
  H 0.374814 0.878252 -0.267095
  H 4.040144 1.463604 1.260309
  H 4.037866 -0.175380 1.977334
  H 2.265471 -0.861334 -1.773920
  H 5.126739 -0.111935 -0.128364
  H 5.064619 -2.315215 -3.491812
  H 5.103401 -0.683778 -4.100912
 19
 116.108992
  C 0.373092 0.268591 0.603438
  C 3.305013 -0.016442 0.090471
  C 3.526884 0.537168 1.384383
  H 2.563781 0.737829 1.850299
  C 2.981815 -0.539389 -0.996777
  C 4.563666 -0.422366 -0.943388
  C 5.224136 -0.821901 -2.028324
  C 4.694432 -1.311659 -3.324041
  H 3.613974 -1.319982 -3.388593
  H 6.305650 -0.806807 -1.977067
  H 0.251462 0.682399 1.584332
  H 0.200411 -0.779978 0.482260
  H 0.208439 0.913083 -0.234915
  H 4.075685 1.475639 1.317863
  H 4.073228 -0.163619 2.015655
  H 2.314118 -0.889465 -1.738328
  H 5.237298 -0.135688 -0.142192
  H 5.068815 -2.318039 -3.509477
  H 5.084883 -0.682969 -4.122942
 19
 115.323738
  C 0.077909 0.326592 0.700494
  C 3.463792 -0.006418 0.081875
  C 3.569424 0.530568 1.399813
  H 2.544877 0.682972 1.763614
  C 3.063453 -0.542382 -0.982644
  C 4.677085 -0.418239 -0.972084
  C 5.299992 -0.831177 -2.086177
  C 4.731610 -1.333907 -3.364651
  H 3.653253 -1.341068 -3.398504
  H 6.381616 -0.823151 -2.068305
  H -0.021488 0.737877 1.682800
  H -0.038806 -0.727593 0.576170
  H -0.040201 0.970757 -0.143447
  H 4.086923 1.482759 1.403355
  H 4.081381 -0.157565 2.062843
  H 2.424619 -0.918498 -1.735514
  H 5.364226 -0.125200 -0.195859
  H 5.096924 -2.343839 -3.549584
  H 5.096576 -0.711091 -4.181002
 19
 117.874181
  C -0.138824 0.371955 0.785100
  C 3.528381 -0.017347 0.033611
  C 3.612438 0.515121 1.370488
  H 2.586152 0.659631 1.725818
  C 3.062935 -0.559477 -0.998409
  C 4.708189 -0.414332 -0.981353
  C 5.337037 -0.827330 -2.097276
  C 4.778490 -1.341209 -3.374240
  H 3.700222 -1.362428 -3.413020
  H 6.420653 -0.803675 -2.080045
  H -0.200807 0.786033 1.769207
  H -0.241136 -0.682809 0.661841
  H -0.249935 1.014687 -0.060151
  H 4.130727 1.473875 1.391415
  H 4.125276 -0.181061 2.035252
  H 2.427782 -0.954318 -1.751667
  H 5.401309 -0.120703 -0.198431
  H 5.157538 -2.347100 -3.554220
  H 5.139535 -0.717052 -4.190648
 19
 120.088553
  C -0.370999 0.412792 0.863338
  C 3.587816 -0.027679 -0.006811
  C 3.665691 0.497038 1.341634
  H 2.645792 0.636992 1.702183
  C 3.067246 -0.568481 -1.013834
  C 4.747546 -0.413401 -0.988880
  C 5.368739 -0.825484 -2.098962
  C 4.814074 -1.347072 -3.372626
  H 3.732311 -1.379927 -3.412446
  H 6.449562 -0.786454 -2.086930
  H -0.402278 0.826529 1.845827
  H -0.450364 -0.642851 0.736516
  H -0.462426 1.054711 0.016906
  H 4.186697 1.456676 1.372297
  H 4.183813 -0.205715 1.998600
  H 2.442775 -0.976857 -1.773425
  H 5.451110 -0.101811 -0.210808
  H 5.202997 -2.348182 -3.547796
  H 5.170992 -0.723330 -4.190246
 19
 120.129585
  C -0.712631 0.448873 0.937979
  C 3.677536 -0.038320 -0.011720
  C 3.749948 0.497178 1.325586
  H 2.733413 0.646590 1.690459
  C 3.116532 -0.591543 -0.982971
  C 4.855463 -0.425212 -0.982957
  C 5.424404 -0.841522 -2.115047
  C 4.829729 -1.342333 -3.379640
  H 3.749742 -1.355315 -3.397157
  H 6.509758 -0.829993 -2.132849
  H -0.737589 0.874793 1.919072
  H -0.745250 -0.611434 0.816978
  H -0.760617 1.080917 0.078342
  H 4.281676 1.449641 1.341992
  H 4.269700 -0.199500 1.986626
  H 2.534842 -0.962860 -1.800027
  H 5.590802 -0.144395 -0.226286
  H 5.196428 -2.349946 -3.574011
  H 5.181410 -0.717197 -4.199963
 19
 122.765123
  C -0.898454 0.478147 1.003497
  C 3.705983 -0.047427 -0.056222
  C 3.797106 0.482389 1.287427
  H 2.787016 0.635542 1.664911
  C 3.085873 -0.605264 -0.995092
  C 4.863694 -0.416512 -0.975376
  C 5.441798 -0.834238 -2.106665
  C 4.862188 -1.340649 -3.372578
  H 3.782245 -1.366423 -3.397818
  H 6.524660 -0.807398 -2.120831
  H -0.910343 0.906442 1.978344
  H -0.927845 -0.578671 0.887172
  H -0.949870 1.104414 0.144532
  H 4.335085 1.431388 1.301180
  H 4.321061 -0.219154 1.938868
  H 2.519970 -0.979141 -1.811469
  H 5.593000 -0.130903 -0.212120
  H 5.241486 -2.342936 -3.563700
  H 5.212607 -0.713151 -4.189873
 19
 120.810887
  C -1.312029 0.479356 1.011915
  C 3.813626 -0.081967 -0.036940
  C 3.960748 0.508591 1.277315
  H 2.978050 0.709077 1.689324
  C 3.116965 -0.648683 -0.910595
  C 5.043383 -0.448972 -0.938026
  C 5.492874 -0.855991 -2.120433
  C 4.822508 -1.290429 -3.359762
  H 3.739574 -1.265458 -3.323027
  H 6.578346 -0.881049 -2.204190
  H -1.347300 0.933488 1.980948
  H -1.282380 -0.584919 0.918356
  H -1.301442 1.085101 0.131223
  H 4.521746 1.434318 1.219709
  H 4.490825 -0.173683 1.933916
  H 2.568569 -1.004485 -1.743263
  H 5.816242 -0.220958 -0.208424
  H 5.143279 -2.304631 -3.600621
  H 5.158951 -0.655660 -4.178086
 19
 110.141059
  C -1.369500 0.479068 0.907119
  C 3.854361 -0.160177 0.176187
  C 3.993796 0.646535 1.347230
  H 2.993461 0.826241 1.744614
  C 3.495481 -0.925309 -0.747784
  C 5.087453 -0.660789 -0.946716
  C 5.489983 -0.937239 -2.191368
  C 4.702867 -1.107058 -3.431828
  H 3.642874 -0.904738 -3.322645
  H 6.559706 -1.045389 -2.329194
  H -1.495741 1.029396 1.813063
  H -1.363593 -0.587939 0.930694
  H -1.343303 0.993919 -0.027339
  H 4.464475 1.602906 1.115114
  H 4.592710 0.137416 2.104985
  H 2.894621 -1.492898 -1.412908
  H 5.854351 -0.619283 -0.184338
  H 4.842804 -2.114659 -3.823240
  H 5.105731 -0.426958 -4.182304
