 24
 0.000000
  C 0.830880 0.043096 0.328392
  C 2.316971 0.055362 0.104722
  C 3.230338 -0.012892 1.320575
  C 2.583207 -0.084781 2.699309
  H 3.354645 -0.127874 3.462053
  C 2.898253 0.124737 -1.090893
  C 2.345700 0.204809 -2.490242
  C 0.841734 0.218263 -2.748535
  C 0.563870 0.304775 -4.246927
  H 3.982152 0.126680 -1.112313
  H 0.576184 -0.025143 1.380621
  H 0.372850 -0.812832 -0.160888
  H 0.372835 0.955838 -0.045677
  H 3.880883 0.867116 1.304082
  H 3.875400 -0.890185 1.209842
  H 1.961659 -0.973881 2.794352
  H 1.966830 0.792789 2.888628
  H 2.767509 -0.641642 -3.046643
  H 2.765840 1.110532 -2.945376
  H 0.379369 1.076598 -2.262581
  H 0.381126 -0.691401 -2.365146
  H 0.990188 1.213427 -4.667527
  H -0.508299 0.314421 -4.432218
  H 0.991970 -0.548367 -4.769583
 24
 5.396054
  C 0.814212 0.009720 0.364293
  C 2.258386 0.053566 0.116927
  C 3.226534 -0.032488 1.313795
  C 2.590347 -0.078549 2.701672
  H 3.376712 -0.135468 3.453193
  C 2.849466 0.141595 -1.077977
  C 2.337938 0.226754 -2.487549
  C 0.837604 0.199265 -2.761825
  C 0.568107 0.294846 -4.260448
  H 3.934851 0.176408 -1.071418
  H 0.542061 -0.019338 1.400398
  H 0.300092 -0.779859 -0.160919
  H 0.614168 0.966003 -0.065517
  H 3.898849 0.830261 1.265715
  H 3.844297 -0.927220 1.182919
  H 1.954509 -0.953419 2.818227
  H 2.003570 0.816324 2.898953
  H 2.798684 -0.599856 -3.042377
  H 2.747733 1.147878 -2.920869
  H 0.346207 1.036024 -2.264269
  H 0.406274 -0.729449 -2.385706
  H 0.972706 1.220851 -4.664635
  H -0.501328 0.273681 -4.458347
  H 1.030270 -0.537858 -4.787100
 24
 17.343573
  C 0.801668 0.004152 0.359178
  C 2.235531 0.049831 0.112456
  C 3.231906 -0.059185 1.330338
  C 2.605378 -0.071394 2.714814
  H 3.389281 -0.146573 3.461631
  C 2.832347 0.157431 -1.067923
  C 2.324570 0.253014 -2.481733
  C 0.829081 0.172156 -2.768009
  C 0.568628 0.284420 -4.265991
  H 3.914087 0.212048 -1.054295
  H 0.495129 0.021117 1.393777
  H 0.248417 -0.740290 -0.197390
  H 0.836056 0.964256 -0.103562
  H 3.929050 0.776317 1.267077
  H 3.808336 -0.974939 1.199059
  H 1.943793 -0.922923 2.840478
  H 2.050393 0.842783 2.904751
  H 2.816869 -0.546201 -3.047888
  H 2.702817 1.195960 -2.896093
  H 0.296643 0.977142 -2.259578
  H 0.433827 -0.781259 -2.413837
  H 0.937955 1.233812 -4.649117
  H -0.497703 0.222807 -4.473818
  H 1.069457 -0.518085 -4.803523
 24
 31.822809
  C 0.789811 -0.018756 0.351821
  C 2.232957 0.056623 0.101392
  C 3.222852 -0.059709 1.323348
  C 2.587982 -0.060111 2.710046
  H 3.369711 -0.143257 3.462018
  C 2.849702 0.167285 -1.075709
  C 2.338941 0.264591 -2.486573
  C 0.841100 0.165216 -2.753794
  C 0.555537 0.280325 -4.246920
  H 3.930358 0.220051 -1.054642
  H 0.473456 0.003837 1.369157
  H 0.220525 -0.709968 -0.238231
  H 1.016522 0.931292 -0.092618
  H 3.935717 0.769886 1.258691
  H 3.786460 -0.989150 1.190603
  H 1.914746 -0.904285 2.835513
  H 2.042844 0.862920 2.895426
  H 2.835121 -0.525174 -3.062528
  H 2.701709 1.213976 -2.900486
  H 0.303553 0.960084 -2.232523
  H 0.465478 -0.796434 -2.398378
  H 0.905047 1.236833 -4.631239
  H -0.512308 0.204109 -4.438612
  H 1.059737 -0.512263 -4.796069
 24
 44.656527
  C 0.787595 -0.045402 0.372462
  C 2.227378 0.051615 0.099373
  C 3.211700 -0.058636 1.321686
  C 2.583418 -0.043405 2.703984
  H 3.375097 -0.125297 3.459163
  C 2.855900 0.164745 -1.074209
  C 2.347714 0.267414 -2.494907
  C 0.841898 0.158393 -2.762179
  C 0.549100 0.285427 -4.257349
  H 3.940280 0.223211 -1.040357
  H 0.483351 -0.030032 1.388738
  H 0.187552 -0.686469 -0.243243
  H 1.154015 0.897453 -0.040302
  H 3.930277 0.764191 1.249419
  H 3.764900 -0.993525 1.192279
  H 1.900186 -0.890868 2.840620
  H 2.039340 0.892624 2.885284
  H 2.849585 -0.512240 -3.076947
  H 2.702357 1.220866 -2.901371
  H 0.300030 0.945263 -2.230409
  H 0.476274 -0.808715 -2.415071
  H 0.889746 1.248288 -4.634323
  H -0.517813 0.202701 -4.446669
  H 1.057910 -0.498391 -4.815941
 24
 54.164093
  C 0.782498 -0.066203 0.369541
  C 2.223305 0.055019 0.087786
  C 3.204096 -0.056551 1.316592
  C 2.573127 -0.030162 2.690241
  H 3.348612 -0.111234 3.434238
  C 2.861238 0.167775 -1.091908
  C 2.353516 0.269438 -2.503104
  C 0.858360 0.152387 -2.753464
  C 0.553585 0.284839 -4.233564
  H 3.935187 0.226548 -1.055357
  H 0.477007 -0.079250 1.406182
  H 0.159374 -0.642503 -0.288959
  H 1.262455 0.884397 0.005816
  H 3.933194 0.759993 1.246077
  H 3.747453 -0.997552 1.192810
  H 1.894040 -0.861138 2.829231
  H 2.041172 0.897087 2.863386
  H 2.856057 -0.505592 -3.092937
  H 2.698055 1.230047 -2.911031
  H 0.319258 0.931216 -2.212692
  H 0.502861 -0.820039 -2.408052
  H 0.884549 1.250561 -4.607264
  H -0.514121 0.196147 -4.412810
  H 1.061187 -0.490647 -4.798550
 24
 61.290121
  C 0.772753 -0.092223 0.381630
  C 2.218314 0.056907 0.090093
  C 3.195124 -0.052856 1.311125
  C 2.577322 -0.017990 2.694636
  H 3.370470 -0.095058 3.437540
  C 2.864323 0.167943 -1.094537
  C 2.361528 0.269635 -2.507042
  C 0.859583 0.148653 -2.762236
  C 0.553206 0.286942 -4.243784
  H 3.939630 0.226025 -1.050745
  H 0.473989 -0.130875 1.406495
  H 0.136168 -0.595082 -0.308020
  H 1.347268 0.871177 0.067598
  H 3.933069 0.767399 1.232837
  H 3.737169 -1.005322 1.185973
  H 1.892966 -0.858931 2.849582
  H 2.041199 0.921472 2.869650
  H 2.864872 -0.496838 -3.093750
  H 2.700102 1.224133 -2.909219
  H 0.318391 0.924116 -2.217647
  H 0.508011 -0.823506 -2.423305
  H 0.880643 1.253623 -4.612534
  H -0.509098 0.196326 -4.422655
  H 1.062296 -0.483662 -4.811294
 24
 66.455199
  C 0.779240 -0.116605 0.378376
  C 2.224754 0.062193 0.092812
  C 3.203269 -0.051245 1.324484
  C 2.572803 -0.007632 2.701901
  H 3.352810 -0.077925 3.446005
  C 2.877454 0.169756 -1.098532
  C 2.369726 0.270471 -2.515027
  C 0.862553 0.146872 -2.761390
  C 0.542977 0.287836 -4.249048
  H 3.957392 0.223986 -1.053442
  H 0.474194 -0.191212 1.396146
  H 0.124365 -0.540763 -0.356040
  H 1.425404 0.871812 0.122799
  H 3.937250 0.755732 1.247119
  H 3.737554 -0.996435 1.206371
  H 1.897097 -0.837201 2.855477
  H 2.040012 0.920309 2.864019
  H 2.875792 -0.501432 -3.109281
  H 2.706166 1.232145 -2.923960
  H 0.324885 0.920746 -2.210974
  H 0.514615 -0.827817 -2.420181
  H 0.867466 1.258959 -4.620397
  H -0.527291 0.195328 -4.421597
  H 1.051280 -0.484433 -4.824028
 24
 70.805393
  C 0.777413 -0.149255 0.391500
  C 2.216442 0.060255 0.094351
  C 3.207618 -0.048634 1.319119
  C 2.583049 0.006778 2.708036
  H 3.376397 -0.051775 3.457348
  C 2.863503 0.164213 -1.106328
  C 2.356724 0.267712 -2.523432
  C 0.868849 0.147506 -2.773284
  C 0.563145 0.294395 -4.248086
  H 3.939472 0.216433 -1.063902
  H 0.474886 -0.245680 1.408473
  H 0.100764 -0.503597 -0.363443
  H 1.476782 0.864395 0.170495
  H 3.931810 0.746051 1.227394
  H 3.737092 -0.981656 1.204662
  H 1.903339 -0.836305 2.876707
  H 2.039384 0.943706 2.865027
  H 2.862791 -0.506602 -3.120218
  H 2.693711 1.236536 -2.934908
  H 0.332271 0.918508 -2.224395
  H 0.518856 -0.828610 -2.438353
  H 0.889615 1.259660 -4.609881
  H -0.500264 0.204687 -4.426888
  H 1.070646 -0.470158 -4.818125
 24
 74.321156
  C 0.780756 -0.183423 0.397831
  C 2.217439 0.058898 0.105292
  C 3.211677 -0.046642 1.328650
  C 2.589345 0.019623 2.712232
  H 3.377942 -0.026433 3.458615
  C 2.869873 0.159047 -1.099758
  C 2.367968 0.266424 -2.518182
  C 0.859651 0.146970 -2.781696
  C 0.556170 0.301150 -4.265545
  H 3.953385 0.213256 -1.051999
  H 0.472015 -0.287633 1.400697
  H 0.092970 -0.470824 -0.375404
  H 1.526898 0.861231 0.209527
  H 3.938475 0.751787 1.228774
  H 3.744973 -0.986249 1.219904
  H 1.922456 -0.814950 2.887472
  H 2.044255 0.946616 2.858391
  H 2.877476 -0.504795 -3.112990
  H 2.706773 1.229085 -2.923913
  H 0.322080 0.914015 -2.235125
  H 0.509213 -0.822836 -2.456492
  H 0.884682 1.268665 -4.622476
  H -0.506827 0.213025 -4.448963
  H 1.066207 -0.463234 -4.838753
 24
 77.118169
  C 0.788922 -0.215498 0.390754
  C 2.221169 0.065667 0.105446
  C 3.217776 -0.043251 1.326363
  C 2.590880 0.029767 2.711132
  H 3.370125 -0.007877 3.451270
  C 2.876221 0.159934 -1.107094
  C 2.370717 0.266592 -2.518821
  C 0.873241 0.148549 -2.771530
  C 0.561003 0.304124 -4.265565
  H 3.948003 0.216157 -1.062232
  H 0.467177 -0.321662 1.400099
  H 0.093184 -0.436054 -0.390980
  H 1.571164 0.869072 0.230575
  H 3.941439 0.751275 1.223025
  H 3.747484 -0.982977 1.219434
  H 1.915712 -0.819179 2.893285
  H 2.041078 0.958393 2.850634
  H 2.876841 -0.505061 -3.115037
  H 2.708620 1.229329 -2.928979
  H 0.335464 0.924076 -2.215610
  H 0.521695 -0.831486 -2.438774
  H 0.888510 1.273596 -4.626692
  H -0.499187 0.217044 -4.443726
  H 1.067124 -0.460868 -4.842765
 24
 79.566360
  C 0.782666 -0.250860 0.381143
  C 2.214297 0.075234 0.104455
  C 3.225468 -0.042069 1.339039
  C 2.597663 0.034487 2.716211
  H 3.383189 0.001031 3.466347
  C 2.873856 0.163278 -1.111753
  C 2.368164 0.268588 -2.523877
  C 0.877874 0.152476 -2.775400
  C 0.568028 0.305544 -4.264188
  H 3.963037 0.224309 -1.064424
  H 0.448754 -0.345397 1.392191
  H 0.080476 -0.413343 -0.405469
  H 1.597807 0.885797 0.243120
  H 3.957771 0.761289 1.232760
  H 3.756199 -0.993787 1.231037
  H 1.931666 -0.804845 2.896440
  H 2.045863 0.960710 2.849884
  H 2.873415 -0.505420 -3.119155
  H 2.707836 1.233038 -2.938447
  H 0.343664 0.928801 -2.221860
  H 0.526993 -0.824063 -2.441161
  H 0.897520 1.275016 -4.627027
  H -0.498265 0.219177 -4.443717
  H 1.073812 -0.462187 -4.840276
 24
 81.932041
  C 0.793133 -0.292169 0.368247
  C 2.218610 0.080575 0.105022
  C 3.229990 -0.040621 1.342607
  C 2.600123 0.042169 2.719244
  H 3.390675 0.012457 3.478027
  C 2.886611 0.163493 -1.116416
  C 2.388216 0.271032 -2.521086
  C 0.871225 0.155953 -2.780215
  C 0.565291 0.310922 -4.256390
  H 3.954458 0.227421 -1.065038
  H 0.448324 -0.356409 1.374522
  H 0.088712 -0.401539 -0.419920
  H 1.639862 0.897014 0.246319
  H 3.966167 0.762770 1.234002
  H 3.751509 -0.984161 1.239717
  H 1.936609 -0.793750 2.900165
  H 2.042174 0.973647 2.847077
  H 2.896017 -0.502674 -3.114440
  H 2.733772 1.235596 -2.933866
  H 0.335870 0.932230 -2.229224
  H 0.515205 -0.820621 -2.450697
  H 0.898086 1.281121 -4.615596
  H -0.507296 0.226487 -4.437174
  H 1.073317 -0.460370 -4.834058
 24
 83.701378
  C 0.801913 -0.340952 0.360656
  C 2.216503 0.090158 0.107523
  C 3.236311 -0.032788 1.348063
  C 2.603460 0.055792 2.726177
  H 3.383084 0.033234 3.475638
  C 2.887973 0.166170 -1.119131
  C 2.383811 0.273195 -2.526355
  C 0.878855 0.164676 -2.778529
  C 0.569759 0.318971 -4.254955
  H 3.980784 0.234373 -1.066389
  H 0.448684 -0.363871 1.369645
  H 0.092053 -0.403484 -0.428113
  H 1.672845 0.915687 0.247460
  H 3.970874 0.767436 1.235272
  H 3.758619 -0.980995 1.247655
  H 1.933352 -0.790590 2.913335
  H 2.047032 0.980414 2.847804
  H 2.885370 -0.500547 -3.117393
  H 2.731957 1.233587 -2.942451
  H 0.350193 0.942613 -2.229752
  H 0.517244 -0.813224 -2.445135
  H 0.907633 1.291810 -4.618477
  H -0.498999 0.239176 -4.430599
  H 1.071905 -0.455191 -4.831242
