 25
 0.000000
  C 0.959762 0.058491 0.178993
  C 2.462908 0.062091 0.089666
  C 3.270741 -0.009817 1.371109
  C 2.506771 -0.089906 2.691606
  C 3.479187 -0.157693 3.865185
  C 3.080118 0.127494 -1.108337
  C 2.324284 0.197079 -2.404461
  H 1.251558 0.187783 -2.260411
  C 4.531074 0.135272 -1.232390
  C 5.218348 0.197254 -2.369294
  H 6.294970 0.197894 -2.366608
  H 0.612896 0.011270 1.203561
  H 0.546133 -0.800358 -0.351204
  H 0.547584 0.962076 -0.269710
  H 3.918453 0.871556 1.419828
  H 3.924029 -0.886643 1.317210
  H 1.875586 -0.980957 2.708491
  H 1.872006 0.790209 2.814531
  H 4.117730 -1.035045 3.783992
  H 2.937590 -0.214861 4.806776
  H 4.113955 0.725828 3.888705
  H 2.591698 -0.649706 -3.032368
  H 2.589783 1.107369 -2.937094
  H 5.092294 0.086159 -0.311750
  H 4.756517 0.249468 -3.339154
 25
 5.879606
  C 0.985078 0.104002 0.195503
  C 2.443286 0.073830 0.097994
  C 3.265658 0.011365 1.368972
  C 2.497588 -0.101176 2.686157
  C 3.465960 -0.159038 3.866024
  C 3.063324 0.132283 -1.097652
  C 2.301282 0.215919 -2.390343
  H 1.233899 0.228149 -2.246790
  C 4.510847 0.109227 -1.226239
  C 5.198766 0.163736 -2.371183
  H 6.277064 0.149719 -2.369956
  H 0.594926 0.018044 1.186523
  H 0.843031 -0.806820 -0.373008
  H 0.536347 0.941413 -0.287125
  H 3.889950 0.909532 1.424849
  H 3.942238 -0.846415 1.307525
  H 1.887018 -1.006648 2.689282
  H 1.841852 0.762013 2.815200
  H 4.125665 -1.020118 3.779410
  H 2.920617 -0.239067 4.804115
  H 4.079616 0.738839 3.902497
  H 2.550775 -0.635074 -3.020420
  H 2.579565 1.121120 -2.923920
  H 5.073855 0.050105 -0.311905
  H 4.732019 0.226828 -3.343844
 25
 18.119972
  C 0.976191 0.126823 0.212766
  C 2.426872 0.083256 0.109999
  C 3.263300 0.024401 1.374144
  C 2.495598 -0.108478 2.690360
  C 3.458573 -0.163249 3.868452
  C 3.057433 0.136616 -1.105057
  C 2.284784 0.227993 -2.399257
  H 1.215979 0.251668 -2.254559
  C 4.508042 0.093426 -1.234809
  C 5.197066 0.139559 -2.374369
  H 6.273784 0.111223 -2.369510
  H 0.555787 -0.003041 1.199547
  H 1.064160 -0.776848 -0.352586
  H 0.488353 0.940848 -0.316146
  H 3.868871 0.934076 1.431763
  H 3.954225 -0.819642 1.308108
  H 1.897022 -1.020093 2.683593
  H 1.829291 0.743771 2.823239
  H 4.129111 -1.015135 3.776729
  H 2.912232 -0.257242 4.803966
  H 4.060368 0.741900 3.912769
  H 2.523521 -0.625304 -3.032313
  H 2.570164 1.131096 -2.934747
  H 5.072931 0.027880 -0.319589
  H 4.737381 0.211006 -3.343558
 25
 31.630380
  C 0.956211 0.155487 0.230954
  C 2.415159 0.088929 0.109340
  C 3.251206 0.025646 1.375300
  C 2.490461 -0.113836 2.686325
  C 3.459053 -0.174129 3.860682
  C 3.059033 0.141750 -1.110083
  C 2.293580 0.234800 -2.408416
  H 1.212890 0.250720 -2.266741
  C 4.498422 0.091771 -1.233885
  C 5.186432 0.131412 -2.375334
  H 6.263678 0.095814 -2.372959
  H 0.535719 0.061446 1.217173
  H 1.231480 -0.768724 -0.254928
  H 0.439717 0.885328 -0.373035
  H 3.846473 0.936569 1.431693
  H 3.946198 -0.812298 1.308075
  H 1.890302 -1.028826 2.676997
  H 1.822740 0.740678 2.826621
  H 4.130717 -1.027027 3.762248
  H 2.915718 -0.272685 4.798947
  H 4.061981 0.732631 3.906834
  H 2.539144 -0.614077 -3.042745
  H 2.576374 1.140837 -2.941323
  H 5.064442 0.026772 -0.315878
  H 4.724429 0.200205 -3.342037
 25
 43.112588
  C 0.942075 0.189870 0.243324
  C 2.404837 0.096139 0.103120
  C 3.240184 0.024969 1.368803
  C 2.482828 -0.117719 2.687383
  C 3.460685 -0.191437 3.857857
  C 3.055593 0.146745 -1.119257
  C 2.288800 0.230010 -2.418258
  H 1.215096 0.229338 -2.275792
  C 4.495259 0.098091 -1.235233
  C 5.190909 0.131681 -2.373528
  H 6.265094 0.098482 -2.363523
  H 0.528075 0.149976 1.232096
  H 1.358286 -0.756625 -0.152777
  H 0.403017 0.826514 -0.431691
  H 3.837690 0.941143 1.422292
  H 3.937989 -0.818720 1.296015
  H 1.874706 -1.030444 2.676931
  H 1.820768 0.741781 2.838630
  H 4.124095 -1.045558 3.751409
  H 2.924155 -0.291179 4.796961
  H 4.068327 0.708109 3.905163
  H 2.543772 -0.614887 -3.051520
  H 2.556595 1.136420 -2.953576
  H 5.059165 0.040781 -0.310920
  H 4.734214 0.193947 -3.344180
 25
 51.085967
  C 0.934900 0.222481 0.255632
  C 2.402229 0.104906 0.104018
  C 3.234118 0.027460 1.371395
  C 2.478110 -0.114987 2.688405
  C 3.455359 -0.214372 3.851244
  C 3.058263 0.150716 -1.127571
  C 2.285019 0.220496 -2.424934
  H 1.212829 0.195920 -2.277603
  C 4.495322 0.107831 -1.240368
  C 5.195571 0.135958 -2.377470
  H 6.273086 0.109572 -2.362938
  H 0.525226 0.252866 1.238453
  H 1.464718 -0.746245 -0.039224
  H 0.368967 0.744766 -0.490869
  H 3.838275 0.942164 1.426222
  H 3.929724 -0.821763 1.295535
  H 1.856186 -1.016121 2.672470
  H 1.832301 0.751835 2.850585
  H 4.102279 -1.075634 3.735727
  H 2.921238 -0.312981 4.788771
  H 4.075763 0.672096 3.903675
  H 2.554192 -0.620119 -3.060487
  H 2.531143 1.133069 -2.962938
  H 5.057762 0.062156 -0.315843
  H 4.740072 0.187398 -3.352392
 25
 56.975946
  C 0.924874 0.252979 0.260895
  C 2.394660 0.103744 0.101855
  C 3.228776 0.028235 1.368408
  C 2.477376 -0.111045 2.692914
  C 3.460565 -0.233432 3.850162
  C 3.058053 0.149977 -1.134900
  C 2.290805 0.210799 -2.435182
  H 1.216131 0.160266 -2.294154
  C 4.486331 0.110796 -1.239500
  C 5.194167 0.140831 -2.373084
  H 6.276354 0.119840 -2.351595
  H 0.513913 0.330567 1.241165
  H 1.540604 -0.737217 0.037338
  H 0.336604 0.678160 -0.535661
  H 3.834064 0.936427 1.419143
  H 3.910949 -0.815644 1.289314
  H 1.841003 -1.000353 2.675595
  H 1.844930 0.766757 2.865282
  H 4.096214 -1.110047 3.725004
  H 2.928532 -0.328791 4.793673
  H 4.099618 0.647863 3.903759
  H 2.580525 -0.618026 -3.073485
  H 2.518383 1.130126 -2.966980
  H 5.041792 0.069592 -0.317286
  H 4.743633 0.190558 -3.350364
 25
 62.131768
  C 0.930046 0.283894 0.255905
  C 2.392291 0.100451 0.103801
  C 3.227244 0.031702 1.371773
  C 2.479814 -0.110993 2.687855
  C 3.461030 -0.243918 3.842520
  C 3.058611 0.145869 -1.130024
  C 2.285223 0.200629 -2.444321
  H 1.203874 0.137665 -2.304816
  C 4.472352 0.107963 -1.226774
  C 5.189070 0.141640 -2.358902
  H 6.254027 0.126197 -2.330005
  H 0.509344 0.372714 1.239375
  H 1.610451 -0.734137 0.065232
  H 0.344385 0.654857 -0.558410
  H 3.841083 0.951166 1.423916
  H 3.922348 -0.821923 1.290800
  H 1.845592 -0.989751 2.666423
  H 1.859391 0.757280 2.864071
  H 4.091601 -1.121064 3.712886
  H 2.926546 -0.342241 4.789227
  H 4.102133 0.631667 3.900705
  H 2.583732 -0.625666 -3.087698
  H 2.501983 1.124862 -2.977605
  H 5.020672 0.068375 -0.306804
  H 4.749378 0.193825 -3.331584
 25
 65.926556
  C 0.927167 0.313547 0.258103
  C 2.386317 0.093612 0.102717
  C 3.224517 0.031256 1.374627
  C 2.473442 -0.112648 2.687895
  C 3.457785 -0.252106 3.853752
  C 3.056345 0.141873 -1.139605
  C 2.289265 0.190727 -2.426200
  H 1.217224 0.115053 -2.280619
  C 4.485884 0.107335 -1.247902
  C 5.190673 0.145028 -2.381822
  H 6.277366 0.131839 -2.361559
  H 0.503265 0.395261 1.235828
  H 1.656966 -0.736914 0.077952
  H 0.336251 0.651180 -0.573499
  H 3.827434 0.941391 1.427430
  H 3.912592 -0.812092 1.296901
  H 1.830483 -0.996480 2.660317
  H 1.850008 0.763574 2.863718
  H 4.086395 -1.130684 3.724807
  H 2.922349 -0.350387 4.796205
  H 4.101966 0.621155 3.916055
  H 2.595340 -0.632130 -3.075095
  H 2.492312 1.119659 -2.956073
  H 5.054885 0.066950 -0.315424
  H 4.737202 0.198776 -3.358051
 25
 68.002683
  C 0.936755 0.367914 0.264413
  C 2.385864 0.073925 0.109059
  C 3.234043 0.026554 1.381190
  C 2.472989 -0.112307 2.703337
  C 3.449370 -0.260040 3.869708
  C 3.065715 0.134439 -1.152618
  C 2.287296 0.178980 -2.437726
  H 1.221314 0.068064 -2.286279
  C 4.490018 0.102212 -1.258738
  C 5.198744 0.151740 -2.397671
  H 6.278748 0.142973 -2.377375
  H 0.494883 0.416479 1.231818
  H 1.691377 -0.764305 0.089223
  H 0.335764 0.650549 -0.575206
  H 3.832227 0.937790 1.426142
  H 3.922762 -0.813830 1.307535
  H 1.822409 -0.990261 2.674524
  H 1.854238 0.771626 2.877790
  H 4.069204 -1.143937 3.743260
  H 2.911386 -0.352352 4.807585
  H 4.101095 0.606932 3.933254
  H 2.614867 -0.624268 -3.100309
  H 2.459101 1.123418 -2.955162
  H 5.053995 0.056173 -0.336518
  H 4.745391 0.215447 -3.371127
 25
 70.131452
  C 0.948884 0.404770 0.253808
  C 2.384590 0.064690 0.102453
  C 3.242166 0.025318 1.380725
  C 2.475949 -0.118072 2.706147
  C 3.443260 -0.268164 3.869491
  C 3.058795 0.128880 -1.151724
  C 2.279543 0.167892 -2.436447
  H 1.206370 0.038015 -2.285017
  C 4.484755 0.100525 -1.253297
  C 5.195727 0.152846 -2.389737
  H 6.280410 0.143811 -2.366198
  H 0.496624 0.432843 1.222405
  H 1.735997 -0.776100 0.080017
  H 0.353087 0.661344 -0.589971
  H 3.847301 0.955290 1.426123
  H 3.930536 -0.807472 1.307211
  H 1.831219 -0.987392 2.674056
  H 1.863923 0.754686 2.879234
  H 4.065541 -1.156389 3.741338
  H 2.897702 -0.362999 4.812204
  H 4.097758 0.602822 3.936398
  H 2.616416 -0.616814 -3.096776
  H 2.433863 1.105360 -2.942690
  H 5.051697 0.053400 -0.321901
  H 4.737516 0.216773 -3.376580
 25
 69.329407
  C 0.966633 0.482663 0.262282
  C 2.380286 0.053942 0.118723
  C 3.235494 0.026272 1.389381
  C 2.473841 -0.121678 2.708801
  C 3.444400 -0.279246 3.873784
  C 3.072923 0.122946 -1.156964
  C 2.281892 0.142859 -2.434697
  H 1.223832 -0.036806 -2.271062
  C 4.487148 0.101919 -1.260235
  C 5.197787 0.158999 -2.401883
  H 6.277219 0.156904 -2.381177
  H 0.485155 0.455556 1.216952
  H 1.766958 -0.820956 0.081815
  H 0.371629 0.717545 -0.593427
  H 3.822675 0.948724 1.431488
  H 3.932893 -0.807748 1.315047
  H 1.821713 -0.997491 2.670399
  H 1.858217 0.756859 2.886221
  H 4.063158 -1.165164 3.742311
  H 2.901634 -0.376521 4.813529
  H 4.098367 0.586390 3.943925
  H 2.650021 -0.625391 -3.115076
  H 2.387151 1.103925 -2.935645
  H 5.052926 0.060115 -0.338052
  H 4.743698 0.217622 -3.372432
 25
 68.307667
  C 0.989583 0.559492 0.267549
  C 2.373288 0.042748 0.128082
  C 3.234974 0.023251 1.392042
  C 2.474261 -0.128889 2.713735
  C 3.442677 -0.291530 3.873463
  C 3.076487 0.108510 -1.162537
  C 2.277321 0.111114 -2.435732
  H 1.233832 -0.114792 -2.264421
  C 4.484095 0.095508 -1.259685
  C 5.201943 0.160979 -2.401002
  H 6.268452 0.183874 -2.373730
  H 0.482857 0.480111 1.203569
  H 1.798571 -0.861237 0.080066
  H 0.401206 0.790188 -0.597415
  H 3.810037 0.941028 1.429939
  H 3.940113 -0.811434 1.314373
  H 1.818143 -1.008062 2.671698
  H 1.857824 0.750801 2.895284
  H 4.060455 -1.179692 3.737908
  H 2.900007 -0.391072 4.813392
  H 4.099015 0.574611 3.945761
  H 2.673023 -0.634293 -3.130636
  H 2.336200 1.087107 -2.927414
  H 5.042075 0.068613 -0.341537
  H 4.752007 0.224397 -3.373314
 25
 67.639003
  C 1.019512 0.615348 0.255563
  C 2.373024 0.030980 0.126397
  C 3.237222 0.018074 1.393660
  C 2.472672 -0.143255 2.710444
  C 3.437812 -0.306469 3.878860
  C 3.076440 0.102674 -1.158384
  C 2.266993 0.089959 -2.422990
  H 1.231917 -0.185194 -2.240054
  C 4.483553 0.118576 -1.258779
  C 5.197103 0.174055 -2.404810
  H 6.268625 0.159560 -2.384091
  H 0.486958 0.496655 1.175192
  H 1.843429 -0.888412 0.066500
  H 0.446515 0.849842 -0.618930
  H 3.810571 0.950341 1.435303
  H 3.943704 -0.805208 1.316495
  H 1.822511 -1.023818 2.660679
  H 1.851738 0.729856 2.891262
  H 4.059280 -1.189175 3.744207
  H 2.889826 -0.412121 4.816317
  H 4.087772 0.559536 3.958119
  H 2.685877 -0.623462 -3.132823
  H 2.275189 1.070286 -2.896656
  H 5.047967 0.093898 -0.337896
  H 4.740721 0.201929 -3.379611
