 16
 0.000000
  C 1.008045 0.135718 0.389320
  C 2.469624 0.135190 0.388223
  C 3.208195 0.606247 1.559571
  H 2.544134 0.926471 2.356866
  C 3.125250 -0.325849 -0.759028
  C 4.522616 -0.393888 -0.929768
  C 5.079765 -0.855963 -2.082505
  H 4.479608 -1.189751 -2.914911
  H 6.149400 -0.902478 -2.198979
  H 0.587327 0.508442 1.316648
  H 0.630654 -0.871458 0.194557
  H 0.630871 0.728347 -0.448102
  H 3.870150 1.431558 1.289984
  H 3.870908 -0.175548 1.936048
  H 2.515882 -0.659791 -1.589982
  H 5.179653 -0.074398 -0.133380
 16
 0.554101
  C 1.004856 0.135822 0.390613
  C 2.468521 0.112115 0.393860
  C 3.211709 0.624036 1.546975
  H 2.553264 1.014766 2.315775
  C 3.117876 -0.393921 -0.736200
  C 4.512194 -0.460474 -0.913392
  C 5.079533 -0.809765 -2.096076
  H 4.504974 -0.951682 -2.997108
  H 6.147332 -0.925002 -2.179989
  H 0.587674 0.549418 1.302730
  H 0.613947 -0.872326 0.231017
  H 0.637265 0.704780 -0.467204
  H 3.910119 1.405084 1.241442
  H 3.833278 -0.163934 1.977719
  H 2.503919 -0.779545 -1.540229
  H 5.162816 -0.168816 -0.101345
 16
 2.121402
  C 1.003042 0.130360 0.399129
  C 2.464067 0.098356 0.393792
  C 3.216189 0.637831 1.532161
  H 2.562081 1.012294 2.313710
  C 3.101473 -0.416019 -0.736573
  C 4.495651 -0.516583 -0.907187
  C 5.090817 -0.797248 -2.097747
  H 4.565180 -0.762963 -3.038833
  H 6.144745 -1.025303 -2.142576
  H 0.593922 0.550426 1.310577
  H 0.603880 -0.875434 0.244735
  H 0.637502 0.702551 -0.456807
  H 3.874369 1.444101 1.204680
  H 3.874538 -0.123981 1.956479
  H 2.476812 -0.811965 -1.530707
  H 5.141789 -0.229542 -0.085789
 16
 4.541663
  C 0.999801 0.144333 0.394887
  C 2.464359 0.097700 0.388943
  C 3.221001 0.627527 1.530758
  H 2.567401 0.956304 2.332148
  C 3.096837 -0.438139 -0.733116
  C 4.485598 -0.548950 -0.904341
  C 5.098653 -0.800011 -2.094168
  H 4.613812 -0.688692 -3.051257
  H 6.130634 -1.107415 -2.117923
  H 0.596770 0.545771 1.317085
  H 0.592800 -0.850943 0.216454
  H 0.636644 0.744287 -0.442305
  H 3.832870 1.473968 1.215845
  H 3.919054 -0.117632 1.919139
  H 2.472633 -0.857847 -1.508919
  H 5.130062 -0.169124 -0.118576
 16
 7.777015
  C 0.994862 0.136093 0.409213
  C 2.459392 0.049123 0.396490
  C 3.236141 0.637462 1.492682
  H 2.594190 1.080834 2.247309
  C 3.072487 -0.510834 -0.723047
  C 4.457213 -0.658178 -0.897650
  C 5.112211 -0.731169 -2.090120
  H 4.709202 -0.377683 -3.028005
  H 6.124620 -1.100614 -2.124079
  H 0.611688 0.624479 1.297559
  H 0.566015 -0.858962 0.316736
  H 0.633576 0.678966 -0.471792
  H 3.901076 1.417168 1.108061
  H 3.878532 -0.107566 1.962695
  H 2.435783 -0.903583 -1.502063
  H 5.095733 -0.372663 -0.070240
 16
 11.833790
  C 0.982175 0.134382 0.429861
  C 2.447123 0.072058 0.370810
  C 3.249496 0.660412 1.455761
  H 2.621222 1.033515 2.261500
  C 3.035511 -0.477057 -0.761649
  C 4.404999 -0.698628 -0.932614
  C 5.151279 -0.722445 -2.071495
  H 4.930403 -0.163432 -2.967708
  H 6.079419 -1.266494 -2.082895
  H 0.622675 0.637283 1.321416
  H 0.567340 -0.884430 0.383996
  H 0.583378 0.640405 -0.440470
  H 3.854818 1.488735 1.068110
  H 3.949367 -0.070337 1.865204
  H 2.379021 -0.868553 -1.534665
  H 5.054580 -0.524804 -0.073000
 16
 16.680512
  C 0.979568 0.175409 0.413931
  C 2.446514 0.091376 0.342979
  C 3.261341 0.641588 1.436684
  H 2.642330 0.942727 2.283309
  C 3.017373 -0.553680 -0.748248
  C 4.379094 -0.772718 -0.941738
  C 5.186175 -0.680592 -2.039493
  H 4.931272 -0.126395 -2.929849
  H 6.117145 -1.232485 -2.079205
  H 0.633352 0.677486 1.316708
  H 0.548946 -0.819115 0.379993
  H 0.586680 0.693777 -0.455212
  H 3.812071 1.517778 1.090743
  H 4.008089 -0.084014 1.777638
  H 2.346506 -0.985449 -1.476210
  H 5.050206 -0.499654 -0.111538
 16
 25.723528
  C 0.960861 0.139731 0.459305
  C 2.429686 0.042806 0.356982
  C 3.281800 0.655950 1.389150
  H 2.688837 1.126803 2.166270
  C 2.977057 -0.595819 -0.742796
  C 4.322125 -0.806719 -0.968620
  C 5.221310 -0.656263 -1.987215
  H 5.069292 -0.010109 -2.845991
  H 6.096718 -1.288126 -2.024363
  H 0.644024 0.594847 1.388126
  H 0.504892 -0.840365 0.370385
  H 0.563066 0.732817 -0.376827
  H 3.929674 1.409878 0.961994
  H 3.929020 -0.099821 1.844538
  H 2.305056 -0.962856 -1.519151
  H 5.067675 -0.452710 -0.232225
 16
 33.787317
  C 0.939360 0.115267 0.498982
  C 2.406323 0.065721 0.345132
  C 3.282505 0.679062 1.365176
  H 2.701806 1.153892 2.156094
  C 2.938027 -0.521201 -0.791462
  C 4.261163 -0.756876 -1.041431
  C 5.262629 -0.693102 -1.969840
  H 5.312482 0.021445 -2.791976
  H 6.083005 -1.398813 -1.940017
  H 0.645001 0.525235 1.458514
  H 0.498067 -0.875858 0.384864
  H 0.502085 0.737981 -0.293784
  H 3.932748 1.424282 0.938926
  H 3.919662 -0.094492 1.811848
  H 2.254889 -0.957726 -1.510169
  H 5.108517 -0.424548 -0.390038
 16
 39.022016
  C 0.918505 0.130428 0.508584
  C 2.388039 0.069933 0.342871
  C 3.285072 0.667419 1.363112
  H 2.722730 1.043176 2.211078
  C 2.911174 -0.513891 -0.802583
  C 4.208250 -0.736566 -1.102822
  C 5.304386 -0.710818 -1.904233
  H 5.415449 0.008098 -2.715143
  H 6.063187 -1.484636 -1.867282
  H 0.638544 0.567605 1.461876
  H 0.483174 -0.866339 0.436382
  H 0.464419 0.722028 -0.287580
  H 3.852839 1.498265 0.942079
  H 4.001710 -0.070656 1.725244
  H 2.218311 -0.949409 -1.515039
  H 5.237366 -0.355807 -0.571939
 16
 33.922851
  C 0.897986 0.170862 0.499545
  C 2.367338 0.030256 0.380280
  C 3.271844 0.616442 1.401841
  H 2.716040 0.935862 2.280341
  C 2.897960 -0.540174 -0.774202
  C 4.152971 -0.691606 -1.161048
  C 5.334520 -0.687861 -1.855735
  H 5.459168 -0.045169 -2.724926
  H 6.022752 -1.531104 -1.800639
  H 0.621210 0.712865 1.400462
  H 0.414765 -0.805516 0.522044
  H 0.487922 0.699901 -0.363682
  H 3.802850 1.491331 0.999353
  H 4.023679 -0.108058 1.714855
  H 2.210561 -1.040456 -1.461881
  H 5.499154 -0.157135 -0.840963
 16
 32.163184
  C 0.893665 0.137591 0.512908
  C 2.366354 0.142953 0.326193
  C 3.267599 0.593356 1.408787
  H 2.710849 0.943547 2.267924
  C 2.893990 -0.344394 -0.867976
  C 4.134576 -0.608379 -1.231839
  C 5.359371 -0.703507 -1.823199
  H 5.677348 0.062185 -2.531764
  H 5.871623 -1.662391 -1.912243
  H 0.623437 0.466576 1.516068
  H 0.483029 -0.861587 0.338419
  H 0.399011 0.795999 -0.202162
  H 3.902367 1.412410 1.065812
  H 3.916146 -0.219737 1.727926
  H 2.183694 -0.636090 -1.653641
  H 5.571553 -0.421434 -0.728675
 16
 27.523562
  C 0.888981 0.105115 0.536481
  C 2.355271 0.122221 0.360634
  C 3.249911 0.708351 1.388264
  H 2.685572 1.034326 2.258086
  C 2.906509 -0.410347 -0.801313
  C 4.137293 -0.604408 -1.205128
  C 5.371645 -0.726028 -1.795514
  H 5.592043 -0.071338 -2.638161
  H 5.807710 -1.723845 -1.859132
  H 0.603457 0.520473 1.495384
  H 0.499250 -0.909594 0.463875
  H 0.394738 0.683316 -0.245191
  H 3.786283 1.571544 0.988534
  H 3.998200 -0.018019 1.711083
  H 2.213169 -0.819991 -1.541930
  H 5.866967 -0.297206 -0.884482
 16
 25.712766
  C 0.883247 0.109170 0.545079
  C 2.350203 0.103381 0.362738
  C 3.256121 0.704745 1.367455
  H 2.705464 1.025620 2.246588
  C 2.889070 -0.433341 -0.814094
  C 4.116252 -0.599597 -1.226565
  C 5.389421 -0.695988 -1.750906
  H 5.602199 -0.056310 -2.606632
  H 5.768176 -1.715828 -1.861947
  H 0.608083 0.518992 1.512406
  H 0.475481 -0.900540 0.464715
  H 0.395397 0.704621 -0.229563
  H 3.771703 1.572963 0.953933
  H 4.021881 -0.008790 1.675457
  H 2.175781 -0.841689 -1.536933
  H 5.948519 -0.322839 -0.870243
 16
 24.317407
  C 0.879386 0.100051 0.546660
  C 2.340991 0.091647 0.375166
  C 3.236552 0.712471 1.369091
  H 2.709510 0.943373 2.288134
  C 2.885625 -0.432335 -0.816204
  C 4.132624 -0.545484 -1.185016
  C 5.420154 -0.701149 -1.689788
  H 5.571366 -0.183405 -2.641895
  H 5.677571 -1.761110 -1.777238
  H 0.597227 0.431627 1.539651
  H 0.460856 -0.889953 0.362640
  H 0.410030 0.768096 -0.178874
  H 3.659085 1.641183 0.979613
  H 4.080016 0.055421 1.584230
  H 2.157763 -0.783199 -1.553187
  H 6.138242 -0.282665 -0.971495
