 32
 0.000000
  C 0.978673 0.136895 0.392062
  C 2.457035 0.139445 0.397824
  C 3.237623 0.610173 1.569271
  C 2.454193 1.098458 2.784939
  C 3.397330 1.545445 3.897256
  C 3.077025 -0.323749 -0.755524
  C 4.456168 -0.411822 -0.975226
  C 5.126656 -0.863898 -2.102043
  C 4.621504 -1.386279 -3.404154
  C 3.129250 -1.501962 -3.693433
  C 2.898182 -2.063632 -5.093497
  O 6.453322 -0.864794 -2.104414
  H 0.521890 0.503678 1.305675
  H 0.614534 -0.877409 0.221239
  H 0.614168 0.751186 -0.432784
  H 3.893806 1.423259 1.238074
  H 3.894042 -0.205873 1.892569
  H 1.815826 0.300187 3.168756
  H 1.815627 1.940280 2.509886
  H 4.033404 0.725082 4.223721
  H 2.826889 1.890589 4.756627
  H 4.033173 2.363812 3.565357
  H 2.418633 -0.641422 -1.546356
  H 5.077577 -0.080808 -0.150683
  H 5.074513 -2.376187 -3.532216
  H 5.074933 -0.759689 -4.180907
  H 2.655599 -0.520768 -3.638552
  H 2.655131 -2.172892 -2.975669
  H 3.334530 -1.417034 -5.851771
  H 1.831796 -2.142875 -5.291779
  H 3.334077 -3.055240 -5.194501
  H 6.823609 -0.528907 -1.266628
 32
 -0.454410
  C 0.956114 0.036035 0.454604
  C 2.430347 0.051815 0.427470
  C 3.226253 0.578004 1.563098
  C 2.463044 1.144204 2.756646
  C 3.434193 1.677794 3.806410
  C 3.041197 -0.428731 -0.726446
  C 4.418926 -0.504267 -0.931940
  C 5.108149 -0.941377 -2.058010
  C 4.616544 -1.403261 -3.381125
  C 3.128234 -1.469172 -3.702719
  C 2.931995 -1.943368 -5.137408
  O 6.429225 -0.964801 -2.027406
  H 0.543253 0.254031 1.431234
  H 0.574261 -0.921316 0.099385
  H 0.579601 0.787050 -0.243265
  H 3.894652 1.361080 1.184802
  H 3.879792 -0.223604 1.924192
  H 1.846528 0.369516 3.216000
  H 1.809756 1.959086 2.434734
  H 4.085748 0.890293 4.169193
  H 2.890747 2.078311 4.654219
  H 4.049867 2.472444 3.398764
  H 2.382275 -0.768597 -1.505113
  H 5.046967 -0.189251 -0.108102
  H 5.057880 -2.393629 -3.540284
  H 5.107469 -0.761160 -4.121498
  H 2.674305 -0.483215 -3.601589
  H 2.627167 -2.174016 -3.039136
  H 3.402160 -1.261610 -5.840422
  H 1.873650 -1.995951 -5.375868
  H 3.359603 -2.931756 -5.282489
  H 6.819557 -0.674712 -1.183744
 32
 -0.774937
  C 0.958090 -0.032651 0.509714
  C 2.431049 -0.020006 0.452802
  C 3.229158 0.549464 1.562085
  C 2.464401 1.199576 2.713022
  C 3.434978 1.806066 3.726031
  C 3.036585 -0.520178 -0.696262
  C 4.413885 -0.609213 -0.895267
  C 5.107626 -1.039098 -2.022651
  C 4.621531 -1.429375 -3.371789
  C 3.135260 -1.441070 -3.711391
  C 2.943443 -1.829862 -5.178114
  O 6.424271 -1.110525 -1.971160
  H 0.580013 0.020070 1.524184
  H 0.546356 -0.900995 -0.003145
  H 0.580700 0.848385 -0.015972
  H 3.920677 1.293813 1.150516
  H 3.858563 -0.246882 1.975456
  H 1.845634 0.461394 3.226160
  H 1.811651 1.988773 2.332009
  H 4.086564 1.044790 4.145234
  H 2.890012 2.265604 4.542923
  H 4.052056 2.570195 3.264939
  H 2.375206 -0.870309 -1.469948
  H 5.040828 -0.319369 -0.061726
  H 5.041582 -2.422527 -3.573567
  H 5.138424 -0.764189 -4.076533
  H 2.702644 -0.449665 -3.557215
  H 2.609804 -2.172645 -3.092154
  H 3.437083 -1.117347 -5.838701
  H 1.882511 -1.846303 -5.430851
  H 3.353329 -2.820235 -5.376140
  H 6.813242 -0.875034 -1.106779
 32
 -0.854780
  C 0.946942 0.173392 0.439253
  C 2.410537 0.039631 0.418692
  C 3.218216 0.516320 1.568715
  C 2.469854 1.159928 2.732533
  C 3.452547 1.657330 3.788385
  C 3.013781 -0.460082 -0.730106
  C 4.393249 -0.565513 -0.913445
  C 5.102422 -0.949358 -2.047916
  C 4.630664 -1.403549 -3.383637
  C 3.147884 -1.513949 -3.710331
  C 2.970777 -2.009122 -5.143727
  O 6.420928 -0.920615 -2.012201
  H 0.547581 0.118389 1.446936
  H 0.461267 -0.549340 -0.209512
  H 0.688084 1.167602 0.064327
  H 3.955498 1.239883 1.202562
  H 3.797635 -0.329245 1.958747
  H 1.796087 0.439548 3.199682
  H 1.875568 2.003478 2.378014
  H 4.051256 0.837633 4.179951
  H 2.917749 2.109659 4.620718
  H 4.123521 2.407292 3.374965
  H 2.354287 -0.761824 -1.525426
  H 5.012643 -0.287572 -0.069376
  H 5.102613 -2.378943 -3.551444
  H 5.106252 -0.739416 -4.114411
  H 2.667114 -0.539444 -3.621742
  H 2.664230 -2.224314 -3.039278
  H 3.427140 -1.322307 -5.851716
  H 1.915051 -2.092240 -5.387120
  H 3.425132 -2.987562 -5.276536
  H 6.801353 -0.642275 -1.157759
 32
 -1.076062
  C 0.946765 0.137035 0.484295
  C 2.406995 -0.014366 0.426243
  C 3.222702 0.475299 1.566389
  C 2.478450 1.173399 2.701026
  C 3.461175 1.689552 3.748227
  C 2.998928 -0.538555 -0.715427
  C 4.378760 -0.656436 -0.886893
  C 5.099330 -1.063402 -2.004423
  C 4.640938 -1.503401 -3.349679
  C 3.161625 -1.540463 -3.711052
  C 2.995120 -1.988929 -5.161353
  O 6.417629 -1.071945 -1.940751
  H 0.588422 -0.087372 1.485593
  H 0.431793 -0.464807 -0.256975
  H 0.693583 1.185341 0.309309
  H 3.984430 1.164359 1.188892
  H 3.771191 -0.374949 1.988653
  H 1.785583 0.484799 3.187089
  H 1.902905 2.014717 2.312712
  H 4.040125 0.873413 4.175684
  H 2.927447 2.181967 4.558252
  H 4.150467 2.410447 3.315051
  H 2.338522 -0.847585 -1.505906
  H 4.990666 -0.374705 -0.039302
  H 5.068886 -2.501124 -3.502867
  H 5.165918 -0.866014 -4.070869
  H 2.721685 -0.549067 -3.603958
  H 2.633257 -2.247052 -3.070647
  H 3.493336 -1.301675 -5.841298
  H 1.942229 -2.022992 -5.428228
  H 3.413321 -2.981250 -5.312374
  H 6.788519 -0.805589 -1.079068
 32
 -1.324985
  C 0.954410 0.001299 0.553815
  C 2.417837 -0.053823 0.441268
  C 3.235867 0.508268 1.546947
  C 2.485324 1.270567 2.635725
  C 3.461627 1.861699 3.648573
  C 3.003071 -0.599434 -0.693284
  C 4.380019 -0.748993 -0.855929
  C 5.095531 -1.217462 -1.951842
  C 4.641933 -1.584305 -3.320266
  C 3.177767 -1.466004 -3.722998
  C 3.019514 -1.802748 -5.203253
  O 6.401739 -1.353309 -1.840614
  H 0.665859 -0.359354 1.538618
  H 0.451050 -0.565641 -0.222563
  H 0.617097 1.038707 0.509009
  H 4.000577 1.171052 1.130797
  H 3.779519 -0.316861 2.023025
  H 1.795907 0.609987 3.163022
  H 1.903631 2.080370 2.193021
  H 4.042977 1.080041 4.132128
  H 2.922844 2.404375 4.421235
  H 4.149299 2.555578 3.169346
  H 2.338697 -0.936555 -1.469441
  H 4.991999 -0.479376 -0.003791
  H 4.979968 -2.612823 -3.493393
  H 5.245915 -0.977891 -4.005872
  H 2.821646 -0.448987 -3.558166
  H 2.569126 -2.164094 -3.147529
  H 3.593158 -1.117058 -5.822334
  H 1.975792 -1.730238 -5.498345
  H 3.359045 -2.815128 -5.410354
  H 6.760604 -1.141790 -0.958389
 32
 0.753665
  C 0.972026 -0.385830 0.820240
  C 2.387882 -0.161472 0.495958
  C 3.228653 0.612153 1.443597
  C 2.483662 1.496933 2.442107
  C 3.467637 2.296556 3.290475
  C 2.933431 -0.737011 -0.643921
  C 4.293466 -0.999448 -0.783755
  C 5.000515 -1.546701 -1.849193
  C 4.624265 -1.661930 -3.281047
  C 3.252662 -1.183542 -3.740936
  C 3.144430 -1.287893 -5.259451
  O 6.218851 -1.993988 -1.618456
  H 0.975370 -0.895052 1.785707
  H 0.463882 -0.997849 0.083042
  H 0.431655 0.548516 0.963099
  H 3.934455 1.231284 0.883922
  H 3.834871 -0.098614 2.019332
  H 1.860409 0.894670 3.103304
  H 1.836496 2.193197 1.905607
  H 4.107234 1.636489 3.872253
  H 2.932859 2.940446 3.984303
  H 4.099287 2.925305 2.666917
  H 2.243969 -1.097853 -1.389402
  H 4.891575 -0.831304 0.105410
  H 4.762621 -2.708915 -3.572229
  H 5.397129 -1.114856 -3.834376
  H 3.097782 -0.145505 -3.444964
  H 2.470595 -1.800680 -3.300035
  H 3.889632 -0.663533 -5.746858
  H 2.162491 -0.962002 -5.592567
  H 3.289622 -2.313822 -5.589660
  H 6.460089 -1.991811 -0.673358
 32
 0.964976
  C 0.986068 -0.386989 0.833658
  C 2.397766 -0.152022 0.494817
  C 3.241582 0.633328 1.429351
  C 2.499498 1.531663 2.418013
  C 3.486012 2.342252 3.252875
  C 2.938592 -0.735249 -0.643271
  C 4.295529 -1.016024 -0.779750
  C 4.997021 -1.577930 -1.841931
  C 4.627187 -1.678248 -3.276570
  C 3.269033 -1.165908 -3.739995
  C 3.164823 -1.259810 -5.259433
  O 6.202500 -2.056346 -1.603924
  H 1.007015 -0.900853 1.797304
  H 0.475013 -1.002051 0.101295
  H 0.439463 0.541775 0.986723
  H 3.946445 1.244019 0.859581
  H 3.848264 -0.070137 2.013439
  H 1.877465 0.938842 3.088651
  H 1.851724 2.221105 1.873416
  H 4.125999 1.689874 3.842847
  H 2.953296 2.996599 3.938513
  H 4.117172 2.961135 2.619126
  H 2.245487 -1.095604 -1.385670
  H 4.893080 -0.856773 0.111560
  H 4.743162 -2.726487 -3.572740
  H 5.415239 -1.145768 -3.822538
  H 3.136757 -0.126271 -3.438663
  H 2.471104 -1.766835 -3.305499
  H 3.926058 -0.650012 -5.740439
  H 2.191961 -0.909866 -5.594826
  H 3.288002 -2.287022 -5.594499
  H 6.433429 -2.066568 -0.656568
