29

C 0.950962 0.145598 0.408105
C 2.425598 0.138956 0.397347
C 3.223735 0.603858 1.556545
C 2.462862 1.097947 2.784491
C 3.437454 1.534556 3.874442
C 3.035324 -0.328239 -0.765393
C 4.411617 -0.40772 -0.967909
C 5.105521 -0.856549 -2.087888
C 4.615894 -1.380746 -3.392103
C 3.127948 -1.50405 -3.695693
H 2.992492742642216 -1.8996459550382827 -4.680607064074366
O 6.423515 -0.845612 -2.065043
H 0.530244 0.518326 1.333829
H 0.57312 -0.862801 0.23266
H 0.579287 0.754077 -0.417407
H 3.883393 1.4108 1.217766
H 3.881627 -0.214446 1.870593
H 1.826403 0.305153 3.18076
H 1.828339 1.945909 2.521828
H 4.071722 0.707033 4.18422
H 2.895304 1.886245 4.748575
H 4.073657 2.345148 3.526254
H 2.367284 -0.643985 -1.548238
H 5.039144 -0.077441 -0.148996
H 5.082999 -2.365058 -3.514203
H 5.081599 -0.753582 -4.161342
H 2.647597 -0.526705 -3.64849
H 2.649182 -2.178178 -2.985439
H 6.819924 -0.513815 -1.23788
