 23
 0.000000
  C 0.907363 0.035833 0.297650
  C 2.394661 0.047471 0.072877
  C 3.221974 -0.025507 1.333896
  H 2.641671 -0.064187 2.247203
  C 2.992742 0.120305 -1.131103
  C 2.347331 0.211591 -2.500731
  C 0.835323 0.205128 -2.700165
  H 0.627058 0.276321 -3.763001
  C 4.450363 0.124136 -1.219317
  C 5.192969 0.196558 -2.324856
  O 6.552213 0.194789 -2.333896
  H 0.681750 -0.030450 1.358454
  H 0.440592 -0.816591 -0.189227
  H 0.444272 0.944788 -0.078028
  H 3.873395 0.848258 1.398607
  H 3.857445 -0.911143 1.307279
  H 2.750952 -0.622107 -3.085497
  H 2.729940 1.130024 -2.959283
  H 0.363774 1.050137 -2.207627
  H 0.389454 -0.713450 -2.330184
  H 4.996296 0.060623 -0.288369
  H 4.815760 0.265121 -3.331532
  H 6.883214 0.133285 -1.428310
 23
 -0.358284
  C 0.926964 0.180695 0.307062
  C 2.405392 0.064176 0.057894
  C 3.218636 -0.129104 1.317532
  H 2.575001 -0.412320 2.147386
  C 2.997351 0.129154 -1.146720
  C 2.349074 0.231605 -2.512962
  C 0.838915 0.125135 -2.687374
  H 0.615311 0.170734 -3.752607
  C 4.454733 0.139443 -1.228597
  C 5.204866 0.168863 -2.335547
  O 6.564767 0.214081 -2.338407
  H 0.724193 0.181530 1.374785
  H 0.376662 -0.647180 -0.131793
  H 0.533395 1.108227 -0.101318
  H 3.734773 0.791000 1.597391
  H 3.959870 -0.915727 1.191080
  H 2.791395 -0.568001 -3.114734
  H 2.675977 1.178984 -2.954085
  H 0.310316 0.940269 -2.205970
  H 0.462371 -0.820874 -2.311366
  H 4.993102 0.165667 -0.290534
  H 4.832095 0.160650 -3.347373
  H 6.891207 0.223355 -1.429458
 23
 -0.006859
  C 0.943537 0.324963 0.319471
  C 2.406441 0.098861 0.054750
  C 3.195022 -0.225677 1.300590
  H 2.552281 -0.743728 2.009997
  C 3.003079 0.121912 -1.152030
  C 2.350352 0.221870 -2.517933
  C 0.842699 0.055541 -2.672800
  H 0.601762 0.076121 -3.735123
  C 4.461278 0.159977 -1.233057
  C 5.212916 0.146576 -2.335345
  O 6.567845 0.256300 -2.339174
  H 0.764859 0.364217 1.391793
  H 0.323140 -0.468869 -0.089397
  H 0.614844 1.270509 -0.105828
  H 3.577219 0.671785 1.786996
  H 4.016859 -0.892825 1.060938
  H 2.813823 -0.561792 -3.123807
  H 2.640235 1.181337 -2.958929
  H 0.288773 0.855799 -2.195375
  H 0.511248 -0.899793 -2.275935
  H 4.993411 0.276374 -0.297932
  H 4.845585 0.050858 -3.343565
  H 6.888630 0.345716 -1.432383
 23
 0.739804
  C 0.968977 0.450770 0.328335
  C 2.407494 0.118191 0.047097
  C 3.156395 -0.316032 1.279980
  H 2.544245 -1.043783 1.813603
  C 3.010257 0.139077 -1.156254
  C 2.345773 0.246106 -2.515418
  C 0.849787 -0.018316 -2.647099
  H 0.592477 -0.036138 -3.705377
  C 4.467859 0.177833 -1.238874
  C 5.222374 0.119620 -2.335538
  O 6.573830 0.264929 -2.343568
  H 0.831663 0.566558 1.401616
  H 0.285812 -0.326318 -0.008499
  H 0.689011 1.386523 -0.149548
  H 3.359230 0.511025 1.959306
  H 4.076484 -0.814371 0.996804
  H 2.845213 -0.496283 -3.142712
  H 2.572228 1.229346 -2.940725
  H 0.249846 0.752118 -2.176579
  H 0.590087 -0.984744 -2.223401
  H 4.994910 0.361706 -0.310906
  H 4.861259 -0.045043 -3.337106
  H 6.889336 0.416797 -1.443273
 23
 4.627361
  C 1.034514 0.687588 0.331166
  C 2.394359 0.127501 0.036389
  C 3.093778 -0.472369 1.225559
  H 2.505557 -1.336866 1.545678
  C 3.015369 0.096800 -1.162262
  C 2.339664 0.191600 -2.516624
  C 0.859793 -0.165577 -2.600529
  H 0.567100 -0.220709 -3.647886
  C 4.466602 0.205158 -1.230511
  C 5.232845 0.174497 -2.321203
  O 6.570418 0.418442 -2.324452
  H 0.947862 0.854322 1.402891
  H 0.221409 0.023124 0.040125
  H 0.898922 1.637870 -0.180451
  H 3.196317 0.197627 2.074488
  H 4.036317 -0.880650 0.878631
  H 2.871078 -0.515414 -3.157108
  H 2.493271 1.189476 -2.940532
  H 0.231639 0.577197 -2.122298
  H 0.673978 -1.134974 -2.144159
  H 4.972678 0.418400 -0.296236
  H 4.887659 -0.022328 -3.322428
  H 6.868111 0.601667 -1.424270
 23
 15.342243
  C 1.144916 0.929981 0.342157
  C 2.354592 0.111745 0.022083
  C 3.020105 -0.641967 1.141268
  H 2.410078 -1.524040 1.370669
  C 3.009054 0.018268 -1.167891
  C 2.335714 0.086873 -2.525062
  C 0.871990 -0.335345 -2.565577
  H 0.539401 -0.395251 -3.600331
  C 4.443248 0.234698 -1.198388
  C 5.223098 0.291092 -2.276441
  O 6.537921 0.638634 -2.251641
  H 1.098970 1.076730 1.418968
  H 0.202932 0.467612 0.041650
  H 1.213581 1.898381 -0.148950
  H 3.195816 -0.091095 2.056935
  H 3.861945 -1.110234 0.633345
  H 2.891767 -0.602604 -3.164475
  H 2.438352 1.085334 -2.963439
  H 0.233513 0.376091 -2.053711
  H 0.744683 -1.313449 -2.106840
  H 4.902372 0.490400 -0.250218
  H 4.905635 0.090066 -3.285379
  H 6.796702 0.852172 -1.347195
 23
 34.288859
  C 1.233440 1.101016 0.358035
  C 2.337194 0.153079 0.041561
  C 2.939498 -0.760135 1.067927
  H 2.391836 -1.709681 1.140842
  C 3.004455 -0.032876 -1.143233
  C 2.353744 -0.029229 -2.514039
  C 0.889055 -0.450724 -2.524527
  H 0.545440 -0.565478 -3.550868
  C 4.416846 0.298462 -1.164942
  C 5.202559 0.412751 -2.251543
  O 6.499543 0.837740 -2.218207
  H 1.153056 1.197440 1.438655
  H 0.256227 0.777227 -0.008996
  H 1.444116 2.075188 -0.079058
  H 3.106547 -0.356665 2.057161
  H 3.702167 -1.184478 0.377803
  H 2.914662 -0.746072 -3.117753
  H 2.455739 0.948137 -2.998645
  H 0.257358 0.288988 -2.043235
  H 0.762927 -1.402098 -2.012048
  H 4.862510 0.523526 -0.201226
  H 4.895129 0.212215 -3.263896
  H 6.751894 1.022750 -1.305124
 23
 60.016579
  C 1.290858 1.199535 0.372157
  C 2.316835 0.168127 0.064653
  C 2.860287 -0.809540 1.015777
  H 2.422816 -1.811696 1.001681
  C 3.010064 -0.071033 -1.121870
  C 2.364856 -0.086181 -2.496384
  C 0.907923 -0.533691 -2.496537
  H 0.556965 -0.651364 -3.519748
  C 4.415025 0.317433 -1.137236
  C 5.186858 0.476082 -2.216371
  O 6.475789 0.925989 -2.178113
  H 1.187740 1.288910 1.451860
  H 0.307061 0.942010 -0.028000
  H 1.575785 2.163517 -0.045729
  H 3.033765 -0.487514 2.037946
  H 3.560087 -1.200606 0.073044
  H 2.935690 -0.793893 -3.103353
  H 2.452456 0.893186 -2.979628
  H 0.267606 0.193467 -2.006780
  H 0.802108 -1.488630 -1.985990
  H 4.842371 0.560327 -0.169922
  H 4.884397 0.277416 -3.229869
  H 6.720444 1.114144 -1.263458
 23
 74.375699
  C 1.335817 1.248702 0.386015
  C 2.314315 0.164020 0.104567
  C 2.763318 -0.810565 1.022954
  H 2.405763 -1.827764 0.933217
  C 3.026974 -0.125053 -1.110621
  C 2.369421 -0.134057 -2.480023
  C 0.910557 -0.576921 -2.471643
  H 0.548714 -0.678610 -3.492870
  C 4.442433 0.312590 -1.134728
  C 5.189678 0.519157 -2.215679
  O 6.476221 0.982871 -2.186152
  H 1.197014 1.341723 1.461718
  H 0.363521 1.025148 -0.053462
  H 1.670221 2.204365 -0.018243
  H 2.886851 -0.542994 2.076210
  H 3.510910 -1.178542 -0.191500
  H 2.931269 -0.834041 -3.103918
  H 2.454865 0.853758 -2.943015
  H 0.277545 0.144338 -1.964682
  H 0.806391 -1.538399 -1.973329
  H 4.878564 0.526371 -0.164203
  H 4.873539 0.344068 -3.229699
  H 6.736753 1.140604 -1.270444
 23
 58.363631
  C 1.428217 1.303647 0.385531
  C 2.314431 0.133979 0.138117
  C 2.640376 -0.833261 1.042018
  H 2.310328 -1.845540 0.882154
  C 3.055767 -0.195477 -1.119579
  C 2.366998 -0.190274 -2.471506
  C 0.908824 -0.633207 -2.428925
  H 0.516334 -0.713654 -3.440388
  C 4.475890 0.306175 -1.140134
  C 5.196044 0.567519 -2.208481
  O 6.461197 1.080441 -2.182377
  H 1.276838 1.434656 1.456596
  H 0.455803 1.128437 -0.070558
  H 1.833323 2.226308 -0.033789
  H 2.696563 -0.626134 2.114728
  H 3.450190 -1.157230 -0.479731
  H 2.909614 -0.883257 -3.121254
  H 2.445112 0.803377 -2.919086
  H 0.291266 0.076588 -1.887903
  H 0.819890 -1.604938 -1.947869
  H 4.899375 0.525208 -0.165508
  H 4.879883 0.390901 -3.222110
  H 6.723537 1.235629 -1.267711
 23
 30.812446
  C 1.573514 1.377969 0.344846
  C 2.348939 0.117632 0.171774
  C 2.495071 -0.835402 1.103891
  H 2.294334 -1.872600 0.898532
  C 3.057492 -0.257034 -1.115778
  C 2.344124 -0.220924 -2.454100
  C 0.910720 -0.737816 -2.392544
  H 0.498153 -0.811116 -3.396526
  C 4.464535 0.302835 -1.134782
  C 5.154461 0.678765 -2.213345
  O 6.431418 1.159899 -2.194945
  H 1.341647 1.542462 1.395985
  H 0.635766 1.282748 -0.197979
  H 2.100334 2.250202 -0.045447
  H 2.430690 -0.629185 2.169472
  H 3.370759 -1.247081 -0.688391
  H 2.900300 -0.853459 -3.150456
  H 2.362944 0.797886 -2.847429
  H 0.270487 -0.077799 -1.815157
  H 0.883687 -1.725328 -1.937427
  H 4.927859 0.394225 -0.157734
  H 4.783680 0.628206 -3.224384
  H 6.747707 1.194544 -1.284204
 23
 11.903549
  C 1.791230 1.406109 0.267753
  C 2.366406 0.033196 0.149708
  C 2.339475 -0.873789 1.118531
  H 2.273040 -1.930074 0.917762
  C 3.075871 -0.379757 -1.125739
  C 2.324572 -0.265707 -2.443889
  C 0.887848 -0.768706 -2.353609
  H 0.430942 -0.771022 -3.341046
  C 4.440007 0.269474 -1.122209
  C 5.090387 0.742746 -2.173246
  O 6.324404 1.316708 -2.135781
  H 1.571916 1.646408 1.306129
  H 0.859807 1.440246 -0.293941
  H 2.456399 2.166171 -0.142097
  H 2.126450 -0.636083 2.152533
  H 3.337745 -1.416016 -0.841084
  H 2.849601 -0.869478 -3.187731
  H 2.341704 0.770613 -2.786214
  H 0.282537 -0.143034 -1.704206
  H 0.866947 -1.783951 -1.963686
  H 4.889515 0.362098 -0.139528
  H 4.722560 0.700269 -3.185746
  H 6.639882 1.342883 -1.223652
 23
 2.079792
  C 1.859552 1.387599 0.195080
  C 2.381202 -0.014984 0.146227
  C 2.286322 -0.848808 1.169687
  H 2.478061 -1.904819 1.083206
  C 3.086050 -0.447275 -1.120824
  C 2.305185 -0.248002 -2.420217
  C 0.878816 -0.782353 -2.337379
  H 0.400570 -0.721512 -3.312804
  C 4.436523 0.226307 -1.112393
  C 5.049508 0.784491 -2.144429
  O 6.273534 1.376660 -2.100806
  H 1.587409 1.664481 1.210961
  H 0.974185 1.475384 -0.431030
  H 2.600548 2.093011 -0.180050
  H 1.928686 -0.522001 2.133609
  H 3.290096 -1.518378 -0.984278
  H 2.821703 -0.797357 -3.210650
  H 2.301928 0.807673 -2.695139
  H 0.275583 -0.222491 -1.629039
  H 0.885498 -1.824292 -2.024160
  H 4.921275 0.240813 -0.142045
  H 4.648593 0.815514 -3.144849
  H 6.618421 1.339641 -1.199662
 23
 -0.669116
  C 2.032760 1.461069 0.178677
  C 2.366889 0.001969 0.130749
  C 2.072643 -0.816400 1.115174
  H 2.312707 -1.865031 1.079019
  C 3.104257 -0.476427 -1.105544
  C 2.285022 -0.259567 -2.382689
  C 0.923057 -0.940464 -2.301881
  H 0.381608 -0.816688 -3.237073
  C 4.455197 0.184762 -1.132428
  C 4.972092 0.900937 -2.119335
  O 6.197984 1.482805 -2.102975
  H 1.720628 1.754182 1.178010
  H 1.222717 1.688827 -0.512502
  H 2.896063 2.055967 -0.115169
  H 1.571056 -0.477232 2.005969
  H 3.270592 -1.554287 -0.989500
  H 2.839263 -0.676579 -3.226133
  H 2.154250 0.808391 -2.560629
  H 0.324166 -0.520785 -1.497895
  H 1.041740 -2.005050 -2.112904
  H 5.035852 0.041264 -0.226887
  H 4.471110 1.098608 -3.052331
  H 6.637596 1.289035 -1.262712
 23
 -0.831494
  C 2.053016 1.483644 0.167519
  C 2.370742 0.018678 0.130984
  C 2.059819 -0.793409 1.128049
  H 2.284217 -1.846025 1.100147
  C 3.095195 -0.479671 -1.102643
  C 2.274501 -0.254002 -2.377398
  C 0.937079 -0.981705 -2.317725
  H 0.381702 -0.831874 -3.240446
  C 4.459038 0.155783 -1.138715
  C 4.951824 0.928206 -2.094367
  O 6.190033 1.491438 -2.085825
  H 1.754314 1.789430 1.168038
  H 1.236023 1.712914 -0.516731
  H 2.919750 2.067385 -0.141109
  H 1.560565 -0.440530 2.014455
  H 3.242240 -1.563754 -0.987279
  H 2.845743 -0.625521 -3.229349
  H 2.105210 0.812001 -2.525566
  H 0.335431 -0.617349 -1.488522
  H 1.090717 -2.049489 -2.179826
  H 5.067272 -0.050193 -0.262999
  H 4.420681 1.192872 -2.994511
  H 6.654131 1.240476 -1.277166
