 20
 0.000000
  H 1.503942 0.174284 0.484289
  C 2.584471 0.154960 0.436174
  C 3.320720 0.626602 1.609901
  C 2.437748 1.090446 2.763602
  C 3.271705 1.565660 3.948810
  C 3.149569 -0.315252 -0.733389
  C 4.528728 -0.404468 -0.955154
  C 5.108208 -0.870747 -2.117997
  H 4.561832 -1.219872 -2.986867
  O 6.385613 -0.942146 -2.299214
  H 3.992016 1.444135 1.317095
  H 3.991328 -0.166731 1.964244
  H 1.791377 0.272743 3.087867
  H 1.792441 1.906055 2.432008
  H 3.903665 0.765655 4.327530
  H 2.625030 1.891617 4.759446
  H 3.904828 2.404596 3.669578
  H 2.488928 -0.633809 -1.527238
  H 5.195950 -0.087188 -0.163674
  H 6.934322 -0.637854 -1.546380
 20
 0.148830
  H 1.536904 0.211294 0.461871
  C 2.615037 0.126364 0.448023
  C 3.328540 0.637965 1.618600
  C 2.425036 1.076308 2.765533
  C 3.234813 1.617005 3.939079
  C 3.200774 -0.392392 -0.685143
  C 4.581835 -0.545843 -0.877081
  C 5.105258 -0.789780 -2.132568
  H 4.449522 -0.876442 -2.993108
  O 6.357234 -0.860177 -2.436968
  H 3.956594 1.487476 1.316926
  H 4.045146 -0.111792 1.977283
  H 1.825300 0.228792 3.103399
  H 1.735142 1.848663 2.420065
  H 3.911835 0.859702 4.327552
  H 2.573892 1.920291 4.747044
  H 3.820022 2.484412 3.642868
  H 2.554760 -0.668066 -1.506607
  H 5.251517 -0.434281 -0.035921
  H 6.978659 -0.794841 -1.680536
 20
 1.024726
  H 1.521154 0.206992 0.462771
  C 2.600332 0.138722 0.441987
  C 3.317457 0.697312 1.586145
  C 2.434852 1.020572 2.785697
  C 3.241984 1.642049 3.919225
  C 3.188989 -0.393085 -0.679611
  C 4.570682 -0.610142 -0.849331
  C 5.121005 -0.734332 -2.108166
  H 4.490385 -0.637789 -2.986930
  O 6.372359 -0.877983 -2.386794
  H 3.815518 1.623015 1.265067
  H 4.138472 0.037125 1.884506
  H 1.960229 0.105436 3.142365
  H 1.641012 1.708588 2.490997
  H 4.030201 0.971557 4.248825
  H 2.600253 1.847684 4.770915
  H 3.694371 2.579449 3.608224
  H 2.547518 -0.639078 -1.516286
  H 5.211600 -0.663787 0.020207
  H 6.964713 -0.996817 -1.612431
 20
 4.145704
  H 1.487187 0.129993 0.472114
  C 2.563648 0.044941 0.445913
  C 3.307902 0.661058 1.551725
  C 2.448301 1.025200 2.761962
  C 3.278019 1.691481 3.854491
  C 3.146921 -0.526974 -0.653490
  C 4.532191 -0.760794 -0.813119
  C 5.139717 -0.564123 -2.030705
  H 4.558724 -0.194510 -2.867334
  O 6.404961 -0.643587 -2.283691
  H 3.794182 1.577432 1.186093
  H 4.140071 0.010721 1.849746
  H 1.982852 0.119171 3.162638
  H 1.645270 1.699554 2.460610
  H 4.078161 1.034873 4.190760
  H 2.653477 1.924297 4.712719
  H 3.719943 2.621658 3.499429
  H 2.511706 -0.767567 -1.499005
  H 5.118733 -1.066960 0.041781
  H 6.955498 -0.989874 -1.554272
 20
 8.388445
  H 1.462161 0.072207 0.507024
  C 2.538229 -0.017615 0.467956
  C 3.301131 0.636659 1.538659
  C 2.457404 1.045304 2.739581
  C 3.299250 1.736817 3.804088
  C 3.112563 -0.646597 -0.591225
  C 4.513286 -0.846018 -0.767803
  C 5.159506 -0.384680 -1.887698
  H 4.606422 0.151486 -2.650840
  O 6.434472 -0.426872 -2.117745
  H 3.789624 1.534195 1.141031
  H 4.129328 -0.014956 1.842667
  H 1.986143 0.157398 3.169824
  H 1.657204 1.717021 2.424233
  H 4.094910 1.085052 4.154203
  H 2.683275 2.002513 4.656190
  H 3.746439 2.648320 3.418263
  H 2.472606 -0.966011 -1.409307
  H 5.072293 -1.329755 0.021008
  H 6.961250 -0.911987 -1.451556
 20
 13.578203
  H 1.437389 0.024758 0.512324
  C 2.513887 -0.070338 0.457284
  C 3.299811 0.616449 1.502395
  C 2.472869 1.057464 2.701393
  C 3.324818 1.776732 3.736715
  C 3.074153 -0.734202 -0.572864
  C 4.487817 -0.920880 -0.762539
  C 5.164622 -0.231544 -1.730798
  H 4.635513 0.464064 -2.373861
  O 6.444019 -0.248041 -1.946456
  H 3.780396 1.503983 1.074870
  H 4.131735 -0.031457 1.810825
  H 2.004803 0.180641 3.160342
  H 1.665711 1.720283 2.379429
  H 4.125593 1.135641 4.093129
  H 2.717049 2.064157 4.589234
  H 3.766597 2.678766 3.322773
  H 2.432922 -1.129091 -1.353718
  H 5.006621 -1.611649 -0.111638
  H 6.952021 -0.869584 -1.384936
 20
 18.271030
  H 1.432898 -0.010174 0.471536
  C 2.505551 -0.114508 0.408022
  C 3.305353 0.574334 1.451041
  C 2.484097 1.054065 2.635017
  C 3.337270 1.779235 3.666330
  C 3.056410 -0.824626 -0.585882
  C 4.477285 -0.989231 -0.826639
  C 5.173673 -0.136329 -1.636556
  H 4.654471 0.651726 -2.171034
  O 6.454833 -0.140954 -1.863766
  H 3.797495 1.441080 0.988380
  H 4.121761 -0.072054 1.788424
  H 2.000438 0.196008 3.110929
  H 1.685387 1.718054 2.294895
  H 4.128182 1.134153 4.041440
  H 2.726653 2.091771 4.509048
  H 3.796897 2.666918 3.237885
  H 2.409821 -1.331380 -1.297061
  H 4.969678 -1.827584 -0.345952
  H 6.958636 -0.834601 -1.390902
 20
 13.696725
  H 1.424924 -0.004919 0.448934
  C 2.495430 -0.139086 0.386724
  C 3.299934 0.529446 1.432754
  C 2.485122 1.084242 2.591685
  C 3.362830 1.803949 3.609200
  C 3.041858 -0.916380 -0.571463
  C 4.448944 -1.043256 -0.841136
  C 5.167354 -0.026977 -1.402711
  H 4.648697 0.845744 -1.785544
  O 6.446938 0.002376 -1.634671
  H 3.832584 1.356013 0.935975
  H 4.086050 -0.128448 1.812609
  H 1.965937 0.263298 3.093412
  H 1.720908 1.770020 2.220094
  H 4.120044 1.136055 4.013754
  H 2.760772 2.169904 4.436487
  H 3.863729 2.656142 3.155895
  H 2.389102 -1.508000 -1.206563
  H 4.922202 -1.985612 -0.591244
  H 6.947538 -0.762496 -1.288351
 20
 9.469665
  H 1.437257 -0.009821 0.409757
  C 2.502178 -0.171905 0.323680
  C 3.312879 0.491588 1.363508
  C 2.502045 1.094000 2.503913
  C 3.393339 1.819140 3.506081
  C 3.029461 -1.008677 -0.604423
  C 4.422273 -1.107551 -0.893794
  C 5.154039 0.016338 -1.176951
  H 4.623032 0.944524 -1.368021
  O 6.426177 0.117667 -1.404261
  H 3.874696 1.300510 0.871566
  H 4.076565 -0.179940 1.763313
  H 1.965595 0.296022 3.022764
  H 1.756469 1.788308 2.112288
  H 4.132054 1.143539 3.930724
  H 2.797376 2.220107 4.321775
  H 3.915612 2.648296 3.034554
  H 2.364670 -1.636087 -1.187168
  H 4.881580 -2.087292 -0.884283
  H 6.947704 -0.692424 -1.230073
 20
 8.933837
  H 1.468470 0.038799 0.403960
  C 2.525592 -0.144320 0.269620
  C 3.334638 0.506660 1.319210
  C 2.509347 1.087964 2.465397
  C 3.388283 1.826354 3.468633
  C 3.021280 -1.032803 -0.640737
  C 4.399670 -1.159943 -0.953109
  C 5.180817 -0.030681 -1.018360
  H 4.670405 0.928695 -1.035312
  O 6.436821 0.109745 -1.296196
  H 3.899835 1.336832 0.874231
  H 4.092464 -0.174086 1.715726
  H 1.991977 0.275818 2.981096
  H 1.751035 1.770605 2.078246
  H 4.136086 1.161556 3.894460
  H 2.784925 2.217095 4.283994
  H 3.898190 2.664455 2.999474
  H 2.327641 -1.655036 -1.192405
  H 4.808991 -2.142940 -1.141144
  H 6.964223 -0.715842 -1.296196
