 22
 0.000000
  H 1.503623 0.060270 0.067580
  C 2.580970 0.063636 0.007912
  C 3.270271 -0.011416 1.338062
  C 2.267679 -0.076163 2.485435
  H 2.783392 -0.130065 3.440734
  C 3.170590 0.131352 -1.192141
  C 2.386329 0.203962 -2.478944
  C 0.870043 0.195945 -2.336844
  H 0.411206 0.251448 -3.320515
  C 4.622399 0.138591 -1.320382
  C 5.309968 0.202608 -2.454988
  H 6.386520 0.202679 -2.456222
  H 3.915885 0.862507 1.474674
  H 3.915884 -0.895152 1.375488
  H 1.632502 -0.953770 2.388356
  H 1.632499 0.806788 2.487701
  H 2.684927 -0.640645 -3.109134
  H 2.684928 1.114103 -3.010122
  H 0.529033 1.048808 -1.755394
  H 0.529033 -0.716910 -1.855030
  H 5.173364 0.086145 -0.390893
  H 4.848599 0.257379 -3.425660
 22
 10.450617
  H 1.496646 0.063222 0.015256
  C 2.571693 0.066821 -0.048522
  C 3.324391 -0.014626 1.394956
  C 2.230959 -0.084656 2.635955
  H 2.746691 -0.138443 3.589183
  C 3.161544 0.134048 -1.239912
  C 2.380813 0.206801 -2.529254
  C 0.863614 0.199117 -2.393043
  H 0.408419 0.254769 -3.379347
  C 4.614532 0.140923 -1.361701
  C 5.309039 0.204766 -2.493231
  H 6.386104 0.204476 -2.488059
  H 3.964253 0.857153 1.531455
  H 3.964255 -0.896222 1.432511
  H 1.599199 -0.961697 2.533546
  H 1.599194 0.798334 2.632861
  H 2.681382 -0.637719 -3.157602
  H 2.681382 1.116647 -3.058610
  H 0.520295 1.052488 -1.812861
  H 0.520294 -0.714104 -1.912545
  H 5.159841 0.088309 -0.429249
  H 4.852882 0.259683 -3.466502
 22
 34.111339
  H 1.486035 0.064838 -0.013363
  C 2.554006 0.069818 -0.101626
  C 3.391124 -0.017385 1.443850
  C 2.199507 -0.092337 2.772099
  H 2.723918 -0.145519 3.714627
  C 3.146573 0.136386 -1.281321
  C 2.370842 0.209366 -2.574706
  C 0.852269 0.202217 -2.447979
  H 0.403395 0.258079 -3.438015
  C 4.602686 0.142611 -1.391617
  C 5.308794 0.205959 -2.514349
  H 6.386021 0.204965 -2.496717
  H 4.012334 0.852468 1.576914
  H 4.012339 -0.896684 1.478209
  H 1.580376 -0.969181 2.651728
  H 1.580375 0.792474 2.751136
  H 2.674969 -0.635572 -3.199587
  H 2.674968 1.119231 -3.100566
  H 0.505167 1.056300 -1.870151
  H 0.505166 -0.711447 -1.969900
  H 5.136173 0.089641 -0.452838
  H 4.862600 0.261147 -3.492439
 22
 62.481869
  H 1.465264 0.065722 -0.029046
  C 2.531296 0.072191 -0.143676
  C 3.453941 -0.020673 1.502104
  C 2.162128 -0.100481 2.916370
  H 2.699286 -0.153309 3.852615
  C 3.135493 0.138966 -1.327052
  C 2.365067 0.212179 -2.624564
  C 0.846703 0.205349 -2.503503
  H 0.402062 0.261285 -3.494839
  C 4.592215 0.144718 -1.428966
  C 5.307144 0.207852 -2.547905
  H 6.383941 0.206407 -2.522275
  H 4.063343 0.860910 1.634271
  H 4.063343 -0.911521 1.534253
  H 1.553938 -0.982231 2.775069
  H 1.553929 0.791569 2.875161
  H 2.672361 -0.633880 -3.246980
  H 2.672363 1.122890 -3.147855
  H 0.497635 1.059328 -1.927368
  H 0.497634 -0.708020 -2.027094
  H 5.116523 0.091449 -0.484882
  H 4.867277 0.263212 -3.529101
 22
 92.462150
  H 1.458174 0.068025 -0.069855
  C 2.517307 0.075767 -0.207052
  C 3.524505 -0.022819 1.540155
  C 2.132218 -0.107391 3.038855
  H 2.680058 -0.159644 3.964949
  C 3.118802 0.140824 -1.359967
  C 2.356296 0.214301 -2.662156
  C 0.837233 0.207861 -2.548000
  H 0.396895 0.263936 -3.541816
  C 4.573427 0.145755 -1.447322
  C 5.298154 0.208299 -2.555815
  H 6.374494 0.206194 -2.518483
  H 4.117100 0.862978 1.671052
  H 4.117106 -0.917718 1.570571
  H 1.538015 -0.990708 2.876589
  H 1.538012 0.788565 2.976988
  H 2.667441 -0.632345 -3.281368
  H 2.667436 1.125222 -3.182192
  H 0.485830 1.062116 -1.973302
  H 0.485831 -0.705616 -2.073051
  H 5.085056 0.092086 -0.496149
  H 4.868129 0.263896 -3.541198
 22
 118.593967
  H 1.426741 0.063236 0.014933
  C 2.463438 0.077185 -0.232272
  C 3.611767 -0.024556 1.570779
  C 2.090720 -0.113072 3.139395
  H 2.699511 -0.163061 4.025297
  C 3.098331 0.142274 -1.385717
  C 2.352560 0.216675 -2.704178
  C 0.833891 0.210431 -2.593583
  H 0.394021 0.266473 -3.586782
  C 4.547003 0.145983 -1.451458
  C 5.276090 0.207332 -2.538692
  H 6.350582 0.204448 -2.487602
  H 4.161618 0.892090 1.705361
  H 4.161612 -0.950509 1.601379
  H 1.553964 -1.011047 2.891787
  H 1.553930 0.807111 2.994370
  H 2.671381 -0.629092 -3.318062
  H 2.671401 1.126178 -3.219050
  H 0.483628 1.063788 -2.018735
  H 0.483617 -0.702213 -2.118367
  H 5.033611 0.091631 -0.488268
  H 4.855183 0.263158 -3.528028
 22
 144.806286
  H 1.431454 0.062403 0.029714
  C 2.454053 0.079010 -0.264577
  C 3.691940 -0.026211 1.600199
  C 2.030919 -0.119594 3.255003
  H 2.648316 -0.168872 4.128276
  C 3.086912 0.143883 -1.414248
  C 2.340976 0.218436 -2.735474
  C 0.822325 0.211865 -2.618992
  H 0.376850 0.267802 -3.610374
  C 4.545483 0.147312 -1.474978
  C 5.290939 0.209270 -2.573019
  H 6.366026 0.206049 -2.515921
  H 4.212385 0.898095 1.735919
  H 4.212375 -0.959896 1.631072
  H 1.522981 -1.017343 2.970670
  H 1.522961 0.804468 3.073460
  H 2.658854 -0.630301 -3.347340
  H 2.658855 1.130629 -3.247992
  H 0.475139 1.065255 -2.041053
  H 0.475144 -0.701113 -2.140726
  H 5.024317 0.092622 -0.505724
  H 4.875935 0.265200 -3.564265
 22
 168.644233
  H 1.423129 0.064102 -0.000280
  C 2.441582 0.081440 -0.307550
  C 3.756246 -0.028889 1.647771
  C 1.991126 -0.127741 3.399552
  H 2.617431 -0.176740 4.267911
  C 3.076433 0.146141 -1.454208
  C 2.335400 0.220886 -2.778858
  C 0.817529 0.214548 -2.666493
  H 0.374664 0.270538 -3.658814
  C 4.535484 0.149213 -1.508611
  C 5.285177 0.210900 -2.601889
  H 6.360468 0.207388 -2.539634
  H 4.272344 0.899647 1.784041
  H 4.272350 -0.966869 1.678718
  H 1.491431 -1.027818 3.103692
  H 1.491435 0.799891 3.206824
  H 2.655237 -0.628344 -3.388962
  H 2.655234 1.133352 -3.289560
  H 0.469266 1.067831 -2.089312
  H 0.469265 -0.698248 -2.188962
  H 5.008312 0.094371 -0.536661
  H 4.874249 0.266988 -3.595930
 22
 189.254521
  H 1.412472 0.065488 -0.024917
  C 2.425307 0.083736 -0.348319
  C 3.821319 -0.031344 1.691169
  C 1.955307 -0.136062 3.546866
  H 2.594057 -0.184444 4.404265
  C 3.063088 0.148231 -1.491280
  C 2.329449 0.223324 -2.822057
  C 0.810592 0.217421 -2.717426
  H 0.372639 0.273539 -3.711971
  C 4.521960 0.150770 -1.536267
  C 5.278535 0.212128 -2.623667
  H 6.352829 0.208202 -2.554065
  H 4.333396 0.900218 1.826636
  H 4.333388 -0.972216 1.720974
  H 1.466721 -1.036379 3.239117
  H 1.466706 0.793183 3.342345
  H 2.652808 -0.626264 -3.429392
  H 2.652811 1.135846 -3.329973
  H 0.459825 1.070709 -2.141808
  H 0.459820 -0.695212 -2.241446
  H 4.986589 0.095656 -0.559496
  H 4.874447 0.268344 -3.619917
 22
 206.439732
  H 1.398940 0.066822 -0.048514
  C 2.405877 0.085997 -0.388349
  C 3.885407 -0.033611 1.731447
  C 1.921706 -0.144513 3.696765
  H 2.576427 -0.192212 4.542088
  C 3.047293 0.150235 -1.526774
  C 2.322756 0.225671 -2.863649
  C 0.803991 0.220247 -2.767526
  H 0.371600 0.276497 -3.764429
  C 4.507806 0.152176 -1.561145
  C 5.272456 0.213159 -2.641913
  H 6.346462 0.208746 -2.563734
  H 4.395261 0.900360 1.865255
  H 4.395267 -0.976714 1.759335
  H 1.443791 -1.046432 3.376758
  H 1.443791 0.787672 3.480248
  H 2.650143 -0.624474 -3.467958
  H 2.650145 1.138401 -3.368494
  H 0.450542 1.073540 -2.193638
  H 0.450542 -0.692187 -2.293268
  H 4.963005 0.096803 -0.579771
  H 4.875945 0.269565 -3.641557
 22
 220.385756
  H 1.383567 0.068125 -0.071635
  C 2.384443 0.088183 -0.427091
  C 3.949082 -0.035815 1.770469
  C 1.891605 -0.153197 3.850588
  H 2.562918 -0.200076 4.681378
  C 3.030337 0.152147 -1.560669
  C 2.316663 0.227979 -2.904551
  C 0.797305 0.223130 -2.818573
  H 0.371526 0.279545 -3.818375
  C 4.491521 0.153412 -1.583056
  C 5.265115 0.214002 -2.656855
  H 6.338132 0.209066 -2.569403
  H 4.459278 0.899967 1.901830
  H 4.459277 -0.980430 1.795721
  H 1.424491 -1.055424 3.519583
  H 1.424485 0.780544 3.623175
  H 2.648828 -0.622741 -3.505391
  H 2.648828 1.140884 -3.405878
  H 0.440544 1.076468 -2.246776
  H 0.440539 -0.689122 -2.346395
  H 4.936634 0.097749 -0.596569
  H 4.877148 0.270585 -3.659620
 22
 231.381470
  H 1.365684 0.069467 -0.095444
  C 2.360940 0.090319 -0.464974
  C 4.012047 -0.037999 1.809162
  C 1.865624 -0.162115 4.008627
  H 2.554651 -0.208164 4.824719
  C 3.011946 0.153984 -1.593233
  C 2.310269 0.230227 -2.944407
  C 0.790743 0.226003 -2.869529
  H 0.372267 0.282590 -3.872389
  C 4.474649 0.154521 -1.602714
  C 5.257820 0.214688 -2.669011
  H 6.330137 0.209189 -2.571573
  H 4.525558 0.898412 1.937309
  H 4.525560 -0.982880 1.831150
  H 1.407821 -1.065356 3.667625
  H 1.407813 0.773762 3.771394
  H 2.647517 -0.621038 -3.541501
  H 2.647521 1.143261 -3.441956
  H 0.430399 1.079350 -2.300086
  H 0.430398 -0.685987 -2.399694
  H 4.909274 0.098578 -0.611264
  H 4.878958 0.271471 -3.675331
 22
 239.759040
  H 1.345755 0.070854 -0.120028
  C 2.335843 0.092388 -0.501635
  C 4.074812 -0.040260 1.849266
  C 1.844997 -0.171307 4.171562
  H 2.551052 -0.216471 4.971986
  C 2.992740 0.155739 -1.624340
  C 2.304340 0.232412 -2.983141
  C 0.784399 0.228885 -2.920600
  H 0.374050 0.285664 -3.926847
  C 4.456369 0.155496 -1.620003
  C 5.249602 0.215227 -2.678568
  H 6.320795 0.209143 -2.570737
  H 4.595236 0.895823 1.973673
  H 4.595240 -0.984397 1.867576
  H 1.395483 -1.074676 3.822424
  H 1.395482 0.765598 3.926261
  H 2.647110 -0.619429 -3.576220
  H 2.647110 1.145560 -3.476633
  H 0.420010 1.082309 -2.353800
  H 0.420010 -0.682877 -2.453402
  H 4.880265 0.099278 -0.623654
  H 4.880387 0.272206 -3.688368
 22
 245.841718
  H 1.323851 0.072271 -0.145136
  C 2.309563 0.094369 -0.536746
  C 4.138048 -0.042681 1.892169
  C 1.831091 -0.180805 4.339886
  H 2.553996 -0.225112 5.125117
  C 2.972867 0.157389 -1.653591
  C 2.298342 0.234498 -3.020112
  C 0.778203 0.231707 -2.970611
  H 0.376494 0.288682 -3.980322
  C 4.437745 0.156336 -1.634888
  C 5.241274 0.215617 -2.685492
  H 6.311439 0.208931 -2.566989
  H 4.669153 0.891563 2.012451
  H 4.669152 -0.984519 1.906587
  H 1.387982 -1.084762 3.984114
  H 1.387983 0.757426 4.088061
  H 2.646758 -0.617871 -3.609016
  H 2.646759 1.147703 -3.509396
  H 0.409570 1.085170 -2.406686
  H 0.409568 -0.679771 -2.506275
  H 4.850991 0.099856 -0.633932
  H 4.881986 0.272796 -3.698838
