 9
 0.000000
  C 1.048792 -0.111921 -0.038884
  C 2.548187 -0.144770 -0.038664
  C 3.252755 -1.261243 -0.045294
  H 4.325632 -1.276068 -0.045420
  H 0.692268 0.916567 -0.029796
  H 0.650682 -0.613021 0.842264
  H 0.649426 -0.596675 -0.929436
  H 3.052167 0.811985 -0.031865
  H 2.744544 -2.214027 -0.050822
 9
 -0.279350
  C 1.050631 -0.102440 -0.025306
  C 2.547438 -0.133471 0.017696
  C 3.242814 -1.248098 -0.096562
  H 4.318094 -1.288592 -0.074354
  H 0.683924 0.900213 -0.228571
  H 0.637198 -0.428999 0.928788
  H 0.686954 -0.776389 -0.799456
  H 3.048639 0.815103 0.155200
  H 2.745170 -2.197106 -0.224482
 9
 -0.617498
  C 1.052292 -0.114505 -0.007048
  C 2.544831 -0.138777 0.078668
  C 3.240734 -1.233418 -0.154696
  H 4.315567 -1.297189 -0.128989
  H 0.703368 0.824631 -0.431675
  H 0.607700 -0.224060 0.981527
  H 0.721816 -0.936131 -0.640594
  H 3.035720 0.790391 0.334138
  H 2.742711 -2.159616 -0.399169
 9
 0.732569
  C 1.052167 -0.126669 0.033256
  C 2.543727 -0.144820 0.138915
  C 3.232520 -1.203522 -0.242326
  H 4.301657 -1.258909 -0.288353
  H 0.741221 0.709285 -0.591560
  H 0.561749 -0.037187 0.998650
  H 0.767907 -1.040096 -0.495180
  H 3.031913 0.742203 0.519481
  H 2.738122 -2.141903 -0.448530
 9
 9.988909
  C 1.058489 -0.135902 0.087278
  C 2.548106 -0.144743 0.197241
  C 3.191059 -1.179062 -0.312059
  H 4.243390 -1.176183 -0.563929
  H 0.779499 0.566162 -0.705525
  H 0.512865 0.115623 0.990578
  H 0.853827 -1.094497 -0.392757
  H 3.053603 0.686912 0.664251
  H 2.741547 -2.165739 -0.352104
 9
 29.571226
  C 1.079381 -0.129843 0.117954
  C 2.573082 -0.073448 0.165849
  C 3.124887 -1.157280 -0.388037
  H 4.158739 -1.221146 -0.721012
  H 0.694408 0.470995 -0.723881
  H 0.519178 0.110209 1.012491
  H 1.005533 -1.088956 -0.426603
  H 3.103279 0.665561 0.737454
  H 2.743907 -2.137905 -0.175328
 9
 60.002956
  C 1.095540 -0.107023 0.140451
  C 2.561711 -0.087604 0.283140
  C 3.042233 -1.169486 -0.378927
  H 3.985856 -1.176928 -0.922681
  H 0.703644 0.321358 -0.785362
  H 0.496192 0.209151 0.989879
  H 1.261744 -1.098109 -0.483239
  H 3.135002 0.665919 0.821751
  H 2.752613 -2.160764 -0.078096
 9
 79.809541
  C 1.120277 -0.044249 0.176640
  C 2.520291 -0.065910 0.320151
  C 2.951340 -1.178543 -0.427005
  H 3.901240 -1.155563 -0.963513
  H 0.708415 0.270390 -0.771390
  H 0.480555 0.283841 0.998245
  H 1.497895 -1.216259 -0.617495
  H 3.132744 0.623387 0.883161
  H 2.768215 -2.165860 -0.026333
 9
 60.183017
  C 1.113455 0.042260 0.204719
  C 2.458645 -0.065051 0.342508
  C 2.906705 -1.219411 -0.446644
  H 3.847937 -1.142300 -0.981198
  H 0.653315 0.213906 -0.743042
  H 0.509151 0.406733 1.036847
  H 1.780359 -1.316482 -0.773653
  H 3.096191 0.595217 0.919348
  H 2.776899 -2.212828 -0.002301
 9
 33.826071
  C 1.111260 0.081920 0.278949
  C 2.428723 -0.113993 0.387880
  C 2.869464 -1.236642 -0.498930
  H 3.818366 -1.112179 -1.010349
  H 0.653917 0.165526 -0.699169
  H 0.471189 0.582277 1.006888
  H 1.873020 -1.420807 -0.945629
  H 3.109924 0.495375 0.964832
  H 2.884501 -2.191391 0.054279
 9
 16.929423
  C 1.095336 0.141721 0.279718
  C 2.389185 -0.155473 0.384919
  C 2.880341 -1.256423 -0.498273
  H 3.840587 -1.114128 -0.966195
  H 0.556085 0.095069 -0.654151
  H 0.558414 0.682701 1.052382
  H 2.007037 -1.452999 -1.120025
  H 3.088166 0.440854 0.942375
  H 2.899898 -2.183110 0.090139
 9
 3.820289
  C 1.088734 0.200258 0.323572
  C 2.362097 -0.155529 0.336028
  C 2.853680 -1.271738 -0.525097
  H 3.823019 -1.094172 -0.977269
  H 0.433659 -0.040619 -0.497578
  H 0.662625 0.852672 1.069443
  H 2.072962 -1.501571 -1.245501
  H 3.094640 0.375446 0.927176
  H 2.923634 -2.166535 0.100116
 9
 -1.326610
  C 1.074991 0.264649 0.271851
  C 2.302731 -0.208131 0.357770
  C 2.857505 -1.286310 -0.512369
  H 3.822110 -0.990259 -0.921830
  H 0.379452 -0.089954 -0.471437
  H 0.713561 1.035729 0.931078
  H 2.172544 -1.510787 -1.326104
  H 2.981443 0.176447 1.108977
  H 3.010714 -2.193174 0.072953
