 14
 0.000000
  H 1.425056 0.137817 0.391468
  C 2.506098 0.136188 0.388738
  C 3.194045 0.616198 1.584308
  H 2.499842 0.927124 2.357247
  C 3.124647 -0.324213 -0.756989
  C 4.510376 -0.394494 -0.930879
  C 5.137374 -0.853966 -2.076457
  H 4.626810 -1.210420 -2.964008
  O 6.422038 -0.907213 -2.210943
  H 3.852509 1.452570 1.337769
  H 3.851575 -0.158924 1.985217
  H 2.492880 -0.650857 -1.571411
  H 5.144000 -0.067888 -0.115623
  H 6.939703 -0.595585 -1.438306
 14
 11.342715
  H 1.481774 0.078681 0.244879
  C 2.556380 0.116984 0.340284
  C 3.119990 0.615918 1.584051
  H 2.353924 0.899325 2.291426
  C 3.317940 -0.324240 -0.758256
  C 4.673770 -0.327968 -0.767670
  C 5.025794 -0.809696 -1.966504
  H 4.365428 -1.126503 -2.755255
  O 6.272005 -0.968276 -2.361014
  H 3.770562 1.468386 1.396471
  H 3.770817 -0.129834 2.037258
  H 2.745234 -0.662025 -1.599643
  H 5.326506 -0.016417 0.008093
  H 6.934306 -0.703749 -1.703613
 14
 43.822153
  H 1.519671 0.039328 0.152256
  C 2.584914 0.105392 0.314029
  C 3.073524 0.611822 1.572370
  H 2.273363 0.880008 2.244336
  C 3.449008 -0.326663 -0.763963
  C 4.774597 -0.289082 -0.667491
  C 4.939807 -0.769422 -1.869057
  H 4.233899 -1.074201 -2.632690
  O 6.174866 -1.000831 -2.445775
  H 3.722496 1.479114 1.411807
  H 3.726651 -0.122461 2.055424
  H 2.854414 -0.660475 -1.597386
  H 5.441411 0.015468 0.097275
  H 6.931225 -0.774268 -1.872820
 14
 89.186280
  H 1.519602 0.028927 0.127557
  C 2.581844 0.103567 0.310782
  C 3.049645 0.615611 1.580572
  H 2.237572 0.879047 2.239916
  C 3.517571 -0.346593 -0.813076
  C 4.835831 -0.269160 -0.614565
  C 4.860438 -0.751510 -1.825439
  H 4.230880 -1.072317 -2.629532
  O 6.149875 -1.019089 -2.494431
  H 3.701349 1.490162 1.430614
  H 3.705960 -0.115403 2.077409
  H 2.871727 -0.659889 -1.594970
  H 5.501465 0.033688 0.150813
  H 6.921189 -0.802320 -1.944450
 14
 132.269595
  H 1.522106 0.024862 0.113798
  C 2.581766 0.100427 0.301411
  C 3.056312 0.611353 1.567756
  H 2.235097 0.876663 2.227047
  C 3.519094 -0.352901 -0.827804
  C 4.857570 -0.251719 -0.563697
  C 4.750772 -0.728480 -1.767351
  H 4.235454 -1.077398 -2.639054
  O 6.202900 -1.034459 -2.536761
  H 3.695317 1.486760 1.423702
  H 3.695571 -0.118811 2.071982
  H 2.815307 -0.655052 -1.577641
  H 5.541132 0.048593 0.197718
  H 6.962230 -0.813291 -1.984702
 14
 139.096927
  H 1.415176 0.124191 0.246345
  C 2.493562 0.167963 0.312344
  C 3.050741 0.688710 1.573677
  H 2.256650 1.011225 2.237697
  C 3.198383 -0.330777 -0.739707
  C 4.766002 -0.294761 -0.517182
  C 4.486033 -0.748831 -1.650347
  H 4.336165 -1.167232 -2.619621
  O 6.784383 -1.219149 -2.748498
  H 3.724782 1.527669 1.391655
  H 3.641167 -0.072234 2.087343
  H 2.543875 -0.702687 -1.534180
  H 5.371894 0.038809 0.292635
  H 7.587672 -0.905355 -2.322548
 14
 140.380566
  H 1.348836 0.139965 0.286243
  C 2.425435 0.175286 0.351593
  C 3.000819 0.702794 1.603065
  H 2.223604 1.036740 2.271666
  C 3.120016 -0.317430 -0.696467
  C 4.721843 -0.298005 -0.475832
  C 4.365064 -0.717651 -1.597017
  H 4.363574 -1.121938 -2.586933
  O 7.103042 -1.269446 -2.945946
  H 3.673728 1.537275 1.406539
  H 3.591785 -0.060069 2.115386
  H 2.441941 -0.691275 -1.485692
  H 5.302127 0.022610 0.352767
  H 7.955410 -0.993129 -2.582614
 14
 142.806230
  H 1.296981 0.148398 0.299462
  C 2.368602 0.184826 0.374939
  C 2.932861 0.703038 1.638338
  H 2.145398 1.028502 2.307082
  C 3.083506 -0.295351 -0.673082
  C 4.711387 -0.265006 -0.423328
  C 4.299220 -0.674326 -1.538241
  H 4.331217 -1.073643 -2.519194
  O 7.374039 -1.349670 -3.152796
  H 3.605331 1.542595 1.453650
  H 3.524888 -0.064042 2.148088
  H 2.401935 -0.656043 -1.467079
  H 5.284410 0.053377 0.419804
  H 8.241627 -1.104950 -2.830363
 14
 144.733233
  H 1.227567 0.164716 0.348639
  C 2.307995 0.216629 0.406241
  C 2.880576 0.714257 1.665293
  H 2.096776 1.033513 2.348442
  C 3.010746 -0.277558 -0.646857
  C 4.667585 -0.253871 -0.379413
  C 4.219314 -0.644249 -1.485200
  H 4.269776 -1.043493 -2.475093
  O 7.706147 -1.434841 -3.349767
  H 3.552730 1.550188 1.487303
  H 3.473901 -0.062683 2.157719
  H 2.313909 -0.642534 -1.421405
  H 5.225304 0.065165 0.470964
  H 8.579390 -1.171969 -3.046660
 14
 111.111000
  H 1.187721 0.180903 0.383301
  C 2.267062 0.237686 0.454989
  C 2.821037 0.733714 1.722965
  H 2.027010 1.046970 2.397022
  C 3.052441 -0.294937 -0.687847
  C 4.662056 -0.259895 -0.392701
  C 4.204418 -0.639602 -1.479501
  H 4.250318 -1.036149 -2.470700
  O 7.791608 -1.450191 -3.421106
  H 3.491462 1.573387 1.556438
  H 3.411648 -0.042104 2.220398
  H 2.367422 -0.660424 -1.472629
  H 5.215807 0.055876 0.461479
  H 8.666286 -1.188503 -3.121127
 14
 139.589101
  H 1.163666 0.167905 0.455904
  C 2.243298 0.210833 0.505565
  C 2.830596 0.755846 1.742542
  H 2.048585 1.094453 2.416483
  C 2.896666 -0.271712 -0.567217
  C 4.483142 -0.301744 -0.403286
  C 4.255129 -0.637582 -1.583025
  H 4.267630 -0.960805 -2.598579
  O 8.003121 -1.420549 -3.476642
  H 3.499082 1.594999 1.532558
  H 3.424029 0.004652 2.265280
  H 2.287241 -0.674529 -1.373768
  H 4.978130 -0.024518 0.499031
  H 8.893181 -1.231285 -3.171257
