 26
 0.000000
  C 0.967827 0.140666 0.401950
  C 2.443248 0.137675 0.394087
  C 3.233918 0.605530 1.557824
  C 2.459629 1.095084 2.776203
  H 3.144128 1.408265 3.555349
  C 3.057324 -0.327645 -0.764067
  C 4.435143 -0.410536 -0.971057
  C 5.118232 -0.861380 -2.095486
  C 4.624478 -1.383963 -3.398713
  C 3.135908 -1.501323 -3.691910
  H 2.991626 -1.900987 -4.688680
  O 6.440411 -0.856097 -2.082771
  H 0.539522 0.511831 1.325374
  H 0.594724 -0.870308 0.233065
  H 0.594442 0.753386 -0.419616
  H 3.890888 1.415275 1.221332
  H 3.891139 -0.211664 1.875238
  H 1.826407 0.304108 3.173204
  H 1.826248 1.940727 2.515525
  H 2.399011 -0.645006 -1.553935
  H 5.050167 -0.077471 -0.141185
  H 5.084544 -2.370790 -3.522887
  H 5.084837 -0.756564 -4.170337
  H 2.656029 -0.526569 -3.647758
  H 2.655796 -2.175425 -2.986609
  H 6.807112 -0.519927 -1.243371
 26
 1.183327
  C 0.951671 0.308072 0.352580
  C 2.425770 0.224653 0.361558
  C 3.219649 0.539740 1.575591
  C 2.447499 0.943893 2.824927
  H 3.148364 1.146458 3.630881
  C 3.039943 -0.171848 -0.826222
  C 4.412839 -0.295775 -1.013400
  C 5.107551 -0.784555 -2.114189
  C 4.625363 -1.450986 -3.353062
  C 3.138213 -1.640313 -3.603520
  H 3.013273 -2.170592 -4.543890
  O 6.427591 -0.774229 -2.077552
  H 0.532791 0.602111 1.306535
  H 0.526301 -0.653241 0.058994
  H 0.627782 1.017544 -0.410183
  H 3.919855 1.343707 1.325645
  H 3.838435 -0.331901 1.815748
  H 1.782849 0.149492 3.155954
  H 1.864270 1.846644 2.658349
  H 2.383873 -0.384321 -1.653856
  H 5.059878 -0.006825 -0.192846
  H 5.123288 -2.427303 -3.379688
  H 5.065479 -0.891848 -4.186016
  H 2.625797 -0.686822 -3.696522
  H 2.676906 -2.238675 -2.823318
  H 6.832189 -0.112743 -1.485055
 26
 5.299018
  C 0.961874 0.478982 0.294166
  C 2.425381 0.307709 0.328671
  C 3.201961 0.470191 1.580183
  C 2.419204 0.789509 2.846847
  H 3.109218 0.880101 3.682141
  C 3.048651 -0.025881 -0.870114
  C 4.423214 -0.195736 -1.038840
  C 5.115844 -0.701300 -2.131293
  C 4.632311 -1.489166 -3.293078
  C 3.147784 -1.759265 -3.471091
  H 3.015218 -2.417861 -4.325985
  O 6.451228 -0.664537 -2.085395
  H 0.533647 0.704402 1.262576
  H 0.490359 -0.420891 -0.103352
  H 0.702336 1.277089 -0.403807
  H 3.941799 1.262575 1.419384
  H 3.780381 -0.444703 1.747352
  H 1.711742 -0.000320 3.086692
  H 1.882938 1.730927 2.757920
  H 2.408492 -0.130937 -1.729623
  H 5.075865 0.052414 -0.211117
  H 5.173867 -2.442043 -3.245049
  H 5.026821 -0.995825 -4.188582
  H 2.599472 -0.845201 -3.677463
  H 2.727999 -2.254753 -2.600261
  H 6.834585 0.209612 -1.895534
 26
 9.799191
  C 0.946629 0.453958 0.304704
  C 2.409805 0.294439 0.335815
  C 3.187411 0.456016 1.583930
  C 2.406897 0.756737 2.855585
  H 3.099686 0.854116 3.687418
  C 3.033942 -0.031975 -0.863682
  C 4.407985 -0.192785 -1.030742
  C 5.109697 -0.718684 -2.097703
  C 4.644925 -1.522154 -3.249020
  C 3.157303 -1.732324 -3.473546
  H 3.022572 -2.404504 -4.317042
  O 6.456923 -0.683185 -1.984698
  H 0.518230 0.670601 1.274917
  H 0.481435 -0.446829 -0.097971
  H 0.680137 1.252744 -0.389798
  H 3.918434 1.256902 1.423679
  H 3.780926 -0.450971 1.740404
  H 1.713251 -0.045326 3.095044
  H 1.855303 1.689945 2.774573
  H 2.395819 -0.138411 -1.726209
  H 5.076881 0.103539 -0.231672
  H 5.142638 -2.495043 -3.145333
  H 5.093847 -1.084182 -4.147690
  H 2.658796 -0.798503 -3.716424
  H 2.687287 -2.187201 -2.606226
  H 6.871733 0.155271 -2.228820
 26
 11.520818
  C 0.916867 0.495750 0.293470
  C 2.384217 0.355601 0.299499
  C 3.175758 0.422759 1.549780
  C 2.407424 0.614216 2.849512
  H 3.108763 0.652781 3.679122
  C 3.009508 0.131824 -0.926885
  C 4.383775 -0.021622 -1.097648
  C 5.109516 -0.646992 -2.090574
  C 4.680351 -1.583125 -3.150703
  C 3.188156 -1.765940 -3.373195
  H 3.032451 -2.506022 -4.152947
  O 6.440844 -0.530058 -1.906142
  H 0.495183 0.611894 1.284180
  H 0.458702 -0.368889 -0.187814
  H 0.634624 1.354094 -0.318335
  H 3.894767 1.243023 1.440451
  H 3.782392 -0.484993 1.626323
  H 1.723739 -0.210919 3.031264
  H 1.846611 1.544938 2.849262
  H 2.383833 0.130905 -1.805722
  H 5.095822 0.387794 -0.389107
  H 5.142627 -2.546636 -2.907997
  H 5.145172 -1.269197 -4.092053
  H 2.724888 -0.839540 -3.698647
  H 2.697983 -2.117733 -2.469751
  H 6.927570 -0.028659 -2.581258
 26
 22.046265
  C 0.895404 0.675725 0.260496
  C 2.344927 0.433576 0.211512
  C 3.159513 0.302069 1.435489
  C 2.441062 0.361920 2.774836
  H 3.154142 0.194821 3.576381
  C 2.947117 0.363744 -1.034835
  C 4.321303 0.175508 -1.241265
  C 5.080317 -0.538664 -2.138310
  C 4.744384 -1.676243 -3.016688
  C 3.247851 -1.940528 -3.125166
  H 3.066858 -2.780331 -3.794823
  O 6.396784 -0.256872 -1.933532
  H 0.491347 0.649702 1.264298
  H 0.363818 -0.035890 -0.375343
  H 0.685035 1.661789 -0.175775
  H 3.997425 1.006540 1.409783
  H 3.658768 -0.672929 1.377200
  H 1.682687 -0.415780 2.846301
  H 1.959710 1.328230 2.933122
  H 2.324497 0.535918 -1.905619
  H 5.157780 0.634888 -0.699956
  H 5.293887 -2.561254 -2.672929
  H 5.104295 -1.402408 -4.012620
  H 2.720072 -1.066727 -3.487134
  H 2.843086 -2.215036 -2.155079
  H 6.875625 0.154501 -2.671114
 26
 43.453478
  C 0.865022 0.726803 0.366994
  C 2.310273 0.472632 0.262476
  C 3.170428 0.287566 1.449437
  C 2.477125 0.337945 2.805173
  H 3.219342 0.226047 3.591208
  C 2.864407 0.389496 -1.004626
  C 4.205663 0.126270 -1.264856
  C 5.002011 -0.566279 -2.140849
  C 4.791489 -1.701451 -3.058330
  C 3.315669 -2.005008 -3.299740
  H 3.220144 -2.866305 -3.954072
  O 6.289235 -0.162573 -1.857435
  H 0.513832 0.782659 1.385997
  H 0.307279 -0.045708 -0.167175
  H 0.622102 1.657292 -0.148192
  H 3.900413 1.101838 1.426703
  H 3.725049 -0.646414 1.346946
  H 1.755329 -0.466482 2.917739
  H 1.978707 1.290028 2.962423
  H 2.225683 0.627431 -1.845511
  H 5.266486 0.517730 -0.811430
  H 5.273320 -2.587649 -2.627537
  H 5.289238 -1.512769 -4.014142
  H 2.826705 -1.159297 -3.777707
  H 2.810754 -2.223476 -2.363863
  H 6.785762 0.306993 -2.552188
 26
 63.242092
  C 0.826165 0.828927 0.404125
  C 2.263664 0.511509 0.241683
  C 3.162950 0.259193 1.403971
  C 2.522923 0.262976 2.785988
  H 3.286388 0.070738 3.536225
  C 2.771171 0.434819 -1.039232
  C 4.075244 0.129801 -1.356852
  C 4.904245 -0.524439 -2.144353
  C 4.817012 -1.705841 -3.037039
  C 3.372974 -2.120092 -3.290187
  H 3.345647 -2.999410 -3.925605
  O 6.229193 -0.053212 -1.779496
  H 0.508458 0.821218 1.439507
  H 0.216302 0.116528 -0.154545
  H 0.615106 1.812100 -0.019175
  H 3.958126 1.010888 1.389962
  H 3.652314 -0.707545 1.244020
  H 1.766585 -0.511274 2.876410
  H 2.072070 1.225602 3.014541
  H 2.116932 0.721338 -1.857540
  H 5.516276 0.533162 -0.944801
  H 5.375797 -2.532873 -2.590984
  H 5.300574 -1.463340 -3.987860
  H 2.826279 -1.323714 -3.787804
  H 2.871512 -2.356144 -2.357129
  H 6.714915 0.454117 -2.465932
 26
 54.490619
  C 0.792224 0.856180 0.426636
  C 2.227889 0.521556 0.244077
  C 3.138983 0.250348 1.397627
  C 2.514596 0.261115 2.786584
  H 3.283087 0.054315 3.527939
  C 2.720746 0.446493 -1.040497
  C 4.007458 0.130832 -1.380064
  C 4.857262 -0.500346 -2.135467
  C 4.813497 -1.688261 -3.026907
  C 3.382244 -2.131832 -3.301883
  H 3.383000 -3.011624 -3.939426
  O 6.238445 -0.022069 -1.772549
  H 0.488046 0.843153 1.466120
  H 0.167446 0.155050 -0.127644
  H 0.585866 1.845784 0.015857
  H 3.944618 0.990714 1.377892
  H 3.610111 -0.724146 1.231404
  H 1.745318 -0.501593 2.883406
  H 2.082614 1.230960 3.022122
  H 2.059130 0.745017 -1.849276
  H 5.785617 0.513133 -1.022245
  H 5.380037 -2.503297 -2.568493
  H 5.306549 -1.438558 -3.969924
  H 2.826882 -1.346576 -3.807736
  H 2.869721 -2.378906 -2.375989
  H 6.703748 0.488498 -2.475778
 26
 45.568146
  C 0.797940 0.945145 0.425128
  C 2.211678 0.551712 0.214144
  C 3.121039 0.167888 1.341517
  C 2.503649 0.113335 2.733497
  H 3.265963 -0.172155 3.456156
  C 2.691091 0.521074 -1.075503
  C 3.950436 0.186942 -1.443412
  C 4.846013 -0.424225 -2.134568
  C 4.834113 -1.680061 -2.942245
  C 3.418605 -2.196424 -3.161271
  H 3.444415 -3.121093 -3.729380
  O 6.257453 0.047600 -1.887288
  H 0.501976 0.893137 1.465237
  H 0.134070 0.302458 -0.157503
  H 0.636695 1.962355 0.070964
  H 3.954226 0.873449 1.363798
  H 3.549795 -0.810473 1.109645
  H 1.706986 -0.620931 2.783943
  H 2.110286 1.082465 3.033816
  H 2.033986 0.876337 -1.863485
  H 6.081112 0.645365 -1.124730
  H 5.433754 -2.437052 -2.433503
  H 5.299344 -1.481159 -3.906946
  H 2.824602 -1.471692 -3.714873
  H 2.928636 -2.390236 -2.213511
  H 6.663036 0.514588 -2.654486
 26
 41.714807
  C 0.796852 1.155133 0.560362
  C 2.134650 0.617918 0.210766
  C 3.045728 -0.002586 1.217345
  C 2.503844 -0.144121 2.633678
  H 3.259013 -0.607863 3.264766
  C 2.539433 0.689033 -1.110986
  C 3.707018 0.222806 -1.603227
  C 4.701516 -0.339707 -2.178930
  C 4.889807 -1.655861 -2.860076
  C 3.562730 -2.382733 -3.033940
  H 3.725629 -3.347594 -3.506151
  O 6.068611 0.318725 -2.029114
  H 0.553792 1.016605 1.606768
  H 0.025761 0.672616 -0.043041
  H 0.747372 2.221766 0.332040
  H 3.966557 0.588716 1.259010
  H 3.336074 -0.993113 0.847814
  H 1.617873 -0.774480 2.657576
  H 2.260497 0.824199 3.065413
  H 1.879436 1.179853 -1.817993
  H 6.016461 0.959729 -1.286125
  H 5.572477 -2.263522 -2.265458
  H 5.342791 -1.494329 -3.838723
  H 2.886267 -1.805464 -3.657825
  H 3.084373 -2.547712 -2.072531
  H 6.351868 0.768505 -2.853443
 26
 42.140258
  C 0.858806 1.277476 0.762117
  C 2.100650 0.637089 0.295499
  C 3.014412 -0.093353 1.204791
  C 2.572776 -0.241385 2.654226
  H 3.327397 -0.796150 3.205021
  C 2.405078 0.722927 -1.054129
  C 3.481599 0.134496 -1.647816
  C 4.392086 -0.450827 -2.256326
  C 4.921467 -1.602983 -2.955019
  C 3.798602 -2.618623 -3.193364
  H 4.205464 -3.490269 -3.698339
  O 6.062579 0.606398 -2.059654
  H 0.678381 1.127466 1.820214
  H 0.007767 0.895231 0.197851
  H 0.894321 2.349473 0.558916
  H 3.987278 0.407660 1.185014
  H 3.192532 -1.085496 0.776241
  H 1.636195 -0.790061 2.729066
  H 2.455855 0.725656 3.137091
  H 1.740468 1.278825 -1.703630
  H 5.846582 1.176325 -1.307837
  H 5.717600 -2.051482 -2.358792
  H 5.342230 -1.293994 -3.913003
  H 3.017145 -2.190557 -3.814522
  H 3.357711 -2.936978 -2.252018
  H 6.324785 1.158218 -2.816582
 26
 42.919425
  C 0.754726 1.102900 0.852113
  C 2.034492 0.541556 0.389414
  C 3.077076 0.050134 1.321522
  C 2.744650 0.062684 2.809109
  H 3.592597 -0.322715 3.372234
  C 2.251521 0.469807 -0.983854
  C 3.352040 -0.089179 -1.580902
  C 4.209336 -0.632867 -2.283267
  C 4.874043 -1.572376 -3.147966
  C 3.850925 -2.569661 -3.715119
  H 4.365583 -3.274831 -4.368865
  O 6.119920 0.489642 -1.790326
  H 0.653732 1.096853 1.932544
  H -0.074610 0.547409 0.408388
  H 0.643228 2.128633 0.488446
  H 3.980859 0.647956 1.159262
  H 3.351280 -0.967708 1.013530
  H 1.888301 -0.571500 3.027458
  H 2.539931 1.071251 3.166566
  H 1.494676 0.860558 -1.655936
  H 5.763195 0.849971 -0.961989
  H 5.662590 -2.095522 -2.597454
  H 5.336060 -1.028165 -3.979665
  H 3.084136 -2.052155 -4.292350
  H 3.370988 -3.124385 -2.908514
  H 6.573346 1.209860 -2.250463
 26
 42.072375
  C 0.733751 1.101050 0.937137
  C 1.974268 0.530584 0.397279
  C 3.105206 0.122143 1.255787
  C 2.918413 0.241642 2.760114
  H 3.821844 -0.091910 3.263649
  C 2.065749 0.372538 -0.980545
  C 3.110951 -0.210524 -1.653055
  C 3.982394 -0.777598 -2.315912
  C 4.797143 -1.598708 -3.145059
  C 3.943313 -2.508396 -4.036953
  H 4.594687 -3.097825 -4.675186
  O 6.115846 0.292031 -1.475409
  H 0.735929 1.181558 2.017012
  H -0.119984 0.497123 0.622959
  H 0.558409 2.087209 0.501785
  H 3.977487 0.714741 0.957758
  H 3.368535 -0.910758 0.999080
  H 2.096126 -0.379360 3.106622
  H 2.733426 1.270376 3.059515
  H 1.236436 0.697164 -1.597568
  H 5.626380 0.491289 -0.671723
  H 5.498212 -2.170956 -2.534943
  H 5.392562 -0.937611 -3.783516
  H 3.274992 -1.925533 -4.664912
  H 3.347100 -3.182539 -3.428006
  H 6.777101 0.984321 -1.580468
