 13
 0.000000
  H 1.452021 0.131807 0.379138
  C 2.535102 0.132426 0.380965
  C 3.211860 0.608661 1.565464
  H 2.520833 0.920331 2.341225
  C 3.163109 -0.329523 -0.768994
  C 4.562669 -0.400323 -0.946247
  C 5.114772 -0.863378 -2.101188
  H 4.503806 -1.192958 -2.923492
  H 6.179780 -0.916023 -2.231767
  H 3.893680 1.433418 1.320277
  H 3.894169 -0.156051 1.959099
  H 2.544148 -0.659192 -1.590178
  H 5.208217 -0.077709 -0.141480
 13
 0.474905
  H 1.452100 0.115461 0.393696
  C 2.531739 0.111827 0.374899
  C 3.219305 0.620960 1.542848
  H 2.528646 0.931440 2.326540
  C 3.146790 -0.378178 -0.766313
  C 4.543103 -0.452780 -0.938004
  C 5.113785 -0.849026 -2.108165
  H 4.526572 -0.981000 -3.000600
  H 6.171832 -1.024918 -2.185285
  H 3.853460 1.472492 1.267377
  H 3.934875 -0.103915 1.936981
  H 2.523915 -0.742313 -1.571111
  H 5.172139 -0.209024 -0.090547
 13
 1.639532
  H 1.447755 0.063453 0.468871
  C 2.524547 0.095289 0.381495
  C 3.236859 0.653852 1.515209
  H 2.559075 0.979118 2.303314
  C 3.125569 -0.393677 -0.766771
  C 4.524420 -0.487411 -0.919019
  C 5.130291 -0.813311 -2.092765
  H 4.604579 -0.757189 -3.030318
  H 6.167471 -1.101783 -2.129989
  H 3.843953 1.506323 1.195896
  H 3.963248 -0.046719 1.925000
  H 2.501466 -0.748166 -1.573843
  H 5.127676 -0.317919 -0.033409
 13
 6.264182
  H 1.438114 0.079046 0.531734
  C 2.509942 0.083614 0.382854
  C 3.308517 0.670195 1.462229
  H 2.660811 0.985736 2.281876
  C 3.035408 -0.449436 -0.773343
  C 4.428348 -0.487360 -0.975571
  C 5.165476 -0.803582 -2.066728
  H 4.859795 -0.543992 -3.070667
  H 6.130980 -1.280450 -1.969888
  H 3.835022 1.568007 1.127257
  H 4.015579 -0.040807 1.892041
  H 2.385104 -0.888360 -1.518604
  H 4.963119 -0.252404 -0.043916
 13
 14.361774
  H 1.436033 0.184586 0.536494
  C 2.503346 0.104995 0.386765
  C 3.384818 0.650359 1.434013
  H 2.778939 0.930352 2.297390
  C 2.960374 -0.451803 -0.774939
  C 4.340757 -0.499874 -1.020239
  C 5.169069 -0.820761 -2.037601
  H 5.096788 -0.370575 -3.023038
  H 6.000628 -1.499447 -1.887612
  H 3.842720 1.591220 1.131890
  H 4.083698 -0.086501 1.830429
  H 2.277637 -0.860260 -1.512070
  H 4.841373 -0.218717 -0.069523
 13
 30.124857
  H 1.437676 0.166974 0.702833
  C 2.463967 0.093298 0.374744
  C 3.486957 0.634078 1.305896
  H 2.948078 0.978993 2.205706
  C 2.839165 -0.478569 -0.805036
  C 4.212240 -0.513004 -1.081550
  C 5.200111 -0.792838 -1.949392
  H 5.369455 -0.228059 -2.863607
  H 5.924287 -1.562411 -1.749980
  H 3.938799 1.564206 0.978010
  H 4.096145 -0.127372 1.781402
  H 2.131456 -0.910866 -1.501850
  H 4.643665 -0.148343 -0.061405
 13
 42.372226
  H 1.420958 0.192771 0.711593
  C 2.435869 0.065925 0.370088
  C 3.532641 0.597735 1.206066
  H 3.054420 0.986507 2.139340
  C 2.769638 -0.528018 -0.808391
  C 4.127668 -0.552026 -1.119834
  C 5.219626 -0.724089 -1.864407
  H 5.419404 -0.129378 -2.750074
  H 6.003487 -1.428972 -1.597103
  H 3.972645 1.526007 0.838994
  H 4.134631 -0.165960 1.694903
  H 2.054225 -0.989979 -1.473641
  H 4.525300 -0.138309 0.038969
 13
 50.534163
  H 1.397386 0.170557 0.677455
  C 2.410947 0.064724 0.339523
  C 3.591736 0.572658 1.131420
  H 3.215024 0.956614 2.098623
  C 2.735262 -0.547189 -0.851462
  C 4.047849 -0.584459 -1.211166
  C 5.195868 -0.697927 -1.813068
  H 5.486295 -0.070857 -2.646984
  H 5.965042 -1.377798 -1.472267
  H 4.025329 1.519268 0.760061
  H 4.190591 -0.225024 1.645693
  H 2.000895 -1.026481 -1.480940
  H 4.398415 0.006885 0.278827
 13
 47.676590
  H 1.424124 0.157347 0.635871
  C 2.444576 0.058604 0.317090
  C 3.601699 0.579250 1.132404
  H 3.211571 0.963632 2.094553
  C 2.751645 -0.570235 -0.872211
  C 4.023806 -0.663593 -1.318273
  C 5.192392 -0.720508 -1.865785
  H 5.512755 -0.022435 -2.629612
  H 5.936563 -1.453218 -1.582967
  H 3.990226 1.562550 0.789385
  H 4.144698 -0.206529 1.746359
  H 1.976703 -1.038957 -1.463423
  H 4.449882 0.115063 0.472323
 13
 45.515744
  H 1.472113 0.066969 0.644659
  C 2.493860 0.019092 0.312449
  C 3.608429 0.593018 1.156064
  H 3.181547 0.976576 2.110262
  C 2.780286 -0.578674 -0.902049
  C 4.021700 -0.662689 -1.417753
  C 5.194945 -0.771231 -1.938799
  H 5.599346 -0.035363 -2.621706
  H 5.841338 -1.617616 -1.750006
  H 3.865496 1.643095 0.879912
  H 4.071970 -0.167526 1.859022
  H 1.974025 -1.013959 -1.484010
  H 4.555585 0.309279 0.607669
 13
 45.035870
  H 1.497212 0.052815 0.641940
  C 2.519715 0.015905 0.308377
  C 3.616370 0.562940 1.192674
  H 3.169297 0.945639 2.145886
  C 2.795036 -0.537101 -0.927286
  C 4.017668 -0.635255 -1.483861
  C 5.194434 -0.785763 -1.984483
  H 5.653957 -0.046657 -2.627495
  H 5.789434 -1.674453 -1.817294
  H 3.829696 1.642216 0.968961
  H 4.019193 -0.227747 1.892465
  H 1.970243 -0.916295 -1.518357
  H 4.588383 0.364727 0.664186
