 13
 0.000000
  C 0.959045 -0.018216 -0.006793
  C 2.455560 0.002327 0.013064
  C 3.166873 0.813742 0.797296
  C 4.609897 0.834091 0.816962
  C 5.320500 1.641933 1.597749
  H 6.395640 1.650295 1.605827
  H 0.597213 -0.756032 -0.719891
  H 0.563228 0.953581 -0.298104
  H 0.563226 -0.276260 0.974360
  H 2.957879 -0.688062 -0.654203
  H 2.656264 1.501761 1.462271
  H 5.114918 0.145609 0.151547
  H 4.822895 2.329999 2.262762
 13
 125.556927
  C 0.988461 0.060528 -0.046960
  C 2.298482 -0.090456 0.725167
  C 3.358669 0.773928 0.321855
  C 4.564990 1.146776 0.195285
  C 5.479701 1.337503 1.356208
  H 6.458062 2.008904 1.295612
  H 0.313696 -0.812345 0.035735
  H 1.220552 0.228628 -1.082278
  H 0.437368 0.907896 0.327554
  H 2.595934 -1.185344 0.734482
  H 2.135661 0.227106 1.757095
  H 5.269306 2.300779 0.039472
  H 5.062965 1.230535 2.343299
 13
 150.028617
  C 0.967743 0.093099 -0.031305
  C 2.246115 -0.341540 0.672647
  C 3.387369 0.521399 0.400982
  C 4.531529 0.998044 0.297343
  C 5.273793 1.418304 1.416083
  H 6.658306 2.335817 0.636321
  H 0.312738 -0.756224 -0.203141
  H 1.198070 0.555319 -0.988345
  H 0.428666 0.830820 0.549756
  H 2.510452 -1.375465 0.482727
  H 2.110414 -0.272001 1.741030
  H 5.813800 2.301551 0.754676
  H 4.745134 1.825882 2.274299
 13
 169.840913
  C 0.915558 0.143538 0.075395
  C 2.260492 -0.421292 0.592790
  C 3.375313 0.542381 0.426996
  C 4.488483 1.103541 0.336498
  C 5.038978 1.530352 1.559356
  H 6.972269 1.861117 0.005993
  H 0.296912 -0.635219 -0.327796
  H 1.139203 0.863193 -0.709898
  H 0.412122 0.665646 0.865853
  H 2.464892 -1.424245 0.108903
  H 2.203004 -0.616993 1.671439
  H 6.071045 1.833760 1.562681
  H 4.545304 2.690041 1.835390
 13
 222.155005
  C 1.098301 0.217756 -0.075632
  C 2.308502 -0.046892 0.823045
  C 3.586567 0.643507 0.439222
  C 4.874865 0.867115 0.417114
  C 4.561713 1.619822 1.632247
  H 6.405706 -0.068851 -0.463556
  H 0.386714 -0.629155 -0.077084
  H 1.427229 0.413763 -1.105086
  H 0.551055 1.092424 0.282467
  H 2.449886 -1.148149 0.958439
  H 2.057459 0.271891 1.869287
  H 5.184386 1.421707 2.473980
  H 5.286794 3.481043 0.829130
 13
 291.702304
  C 0.947360 0.206346 0.090700
  C 2.291813 -0.124012 0.770500
  C 3.471213 0.891044 0.515274
  C 4.815449 1.134156 0.468053
  C 4.264563 1.279128 1.743366
  H 7.025956 0.638971 -1.856319
  H 0.391645 -0.744230 -0.111853
  H 1.114042 0.762298 -0.833778
  H 0.300671 0.813991 0.728875
  H 2.549141 -1.185155 0.556623
  H 2.132797 -0.216072 1.951597
  H 4.558450 0.504025 2.515060
  H 6.308679 4.165203 1.456831
 13
 312.471870
  C 0.962723 0.357736 0.033427
  C 2.153916 -0.178498 0.872213
  C 3.453644 0.740398 0.679536
  C 4.860301 0.784316 0.768614
  C 4.280811 0.948258 1.986746
  H 7.678431 0.193362 -2.425189
  H 0.245211 -0.441040 -0.360393
  H 1.393660 0.966170 -0.784396
  H 0.300523 0.982559 0.622597
  H 2.303736 -1.261859 0.671561
  H 1.821700 -0.213760 2.002293
  H 4.372668 0.199219 2.805379
  H 6.330106 5.032673 1.106335
 13
 730.061493
  C 0.595317 0.615626 1.988912
  C 1.931747 1.820701 1.662007
  C 3.405337 1.258714 -0.589562
  C 4.897537 2.104468 -0.648432
  C 3.973082 3.496577 -0.525443
  H 10.285557 -4.151478 -5.776958
  H 0.070475 0.587202 3.647894
  H 1.204650 -0.659212 1.291358
  H -0.397096 1.013121 1.594968
  H 2.335959 2.127405 2.892248
  H 1.025047 3.154929 1.754984
  H 3.948456 3.816054 0.793453
  H 6.913574 -7.317857 -0.095581
 13
 69.107033
  C 1.240856 0.134171 0.104177
  C 2.626840 0.223343 0.738276
  C 3.527304 1.167561 0.111041
  C 4.929167 1.043304 0.406885
  C 4.728629 1.931517 1.389239
  H 4.965449 1.157894 0.666402
  H 0.850046 -0.885313 0.205893
  H 1.315760 0.379949 -0.956013
  H 0.550339 0.839324 0.562905
  H 3.036849 -0.759383 1.025768
  H 2.568453 0.758661 1.690722
  H 4.908185 0.496546 1.362371
  H 4.947342 1.158779 0.636955
