 19
 0.000000
  H 1.513655 0.014413 0.157802
  C 2.592620 0.019137 0.086786
  C 3.325893 -0.029788 1.396532
  C 2.375169 -0.054418 2.586332
  H 2.931821 -0.083926 3.520311
  C 3.163359 0.091492 -1.121751
  C 2.337552 0.205593 -2.369960
  H 1.275691 0.124151 -2.144233
  C 4.611281 0.109386 -1.282056
  C 5.266250 0.208423 -2.435548
  H 6.341053 0.214711 -2.467686
  H 3.978508 0.845733 1.470585
  H 3.965438 -0.917167 1.431639
  H 1.733325 -0.931093 2.542356
  H 1.746223 0.832674 2.590628
  H 2.603098 -0.579633 -3.076362
  H 2.518058 1.167873 -2.848108
  H 5.188021 0.033149 -0.370980
  H 4.772957 0.289581 -3.388710
 19
 0.239435
  H 1.525733 -0.255103 0.145479
  C 2.602452 -0.167729 0.083658
  C 3.324891 -0.203023 1.398533
  C 2.383572 0.084957 2.563211
  H 2.925244 0.065147 3.506083
  C 3.167314 0.024500 -1.112658
  C 2.335639 0.167634 -2.355757
  H 1.279498 0.038410 -2.133188
  C 4.613003 0.098276 -1.280675
  C 5.252288 0.364672 -2.415441
  H 6.328194 0.386157 -2.457567
  H 4.118306 0.548884 1.379535
  H 3.791409 -1.182638 1.545817
  H 1.591022 -0.659356 2.608117
  H 1.928306 1.066398 2.449038
  H 2.626922 -0.571619 -3.100223
  H 2.477982 1.158175 -2.785353
  H 5.201994 -0.104807 -0.396909
  H 4.745143 0.573812 -3.341094
 19
 1.305087
  H 1.529189 -0.538938 0.127086
  C 2.593997 -0.351820 0.079542
  C 3.314438 -0.346649 1.395408
  C 2.424722 0.228292 2.494917
  H 2.959843 0.256258 3.441619
  C 3.151569 -0.032560 -1.091819
  C 2.330967 0.165633 -2.335227
  H 1.274879 0.005604 -2.130018
  C 4.596918 0.079268 -1.263243
  C 5.220955 0.514695 -2.352903
  H 6.296570 0.530535 -2.408682
  H 4.194085 0.290458 1.279475
  H 3.631357 -1.355967 1.672748
  H 1.531640 -0.380051 2.624295
  H 2.117692 1.240290 2.240961
  H 2.642663 -0.521446 -3.120306
  H 2.458265 1.182707 -2.701611
  H 5.201075 -0.266427 -0.435784
  H 4.702069 0.875071 -3.223962
 19
 3.012100
  H 1.533681 -0.817253 0.096242
  C 2.573356 -0.519209 0.075330
  C 3.287170 -0.505181 1.391070
  C 2.501041 0.347817 2.389441
  H 3.040321 0.421080 3.331430
  C 3.125210 -0.087623 -1.067915
  C 2.315808 0.189723 -2.305228
  H 1.258999 0.002330 -2.125027
  C 4.571648 0.045724 -1.239745
  C 5.185606 0.642704 -2.255445
  H 6.258772 0.633416 -2.338613
  H 4.254312 -0.026943 1.222372
  H 3.409866 -1.509904 1.799507
  H 1.524677 -0.089548 2.585723
  H 2.355440 1.350488 1.994003
  H 2.645691 -0.429463 -3.138284
  H 2.432988 1.234370 -2.588938
  H 5.185231 -0.444977 -0.496170
  H 4.660315 1.162215 -3.037895
 19
 8.716879
  H 1.601922 -1.128624 0.037905
  C 2.556599 -0.628654 0.069332
  C 3.283665 -0.570788 1.377246
  C 2.540832 0.407277 2.298519
  H 3.090116 0.534732 3.229377
  C 3.093859 -0.076213 -1.027997
  C 2.286107 0.260051 -2.256767
  H 1.219960 0.161156 -2.055759
  C 4.544755 -0.007139 -1.227895
  C 5.176446 0.681304 -2.171457
  H 6.241771 0.606667 -2.292997
  H 4.240709 -0.089620 1.149438
  H 3.372216 -1.532971 1.874887
  H 1.546714 0.039212 2.535712
  H 2.442772 1.375740 1.815692
  H 2.547846 -0.383481 -3.098095
  H 2.485150 1.292456 -2.544316
  H 5.137530 -0.639941 -0.579001
  H 4.671354 1.340658 -2.857466
 19
 20.966827
  H 1.734601 -1.416328 -0.071992
  C 2.567778 -0.742848 0.051929
  C 3.262712 -0.609777 1.372882
  C 2.526619 0.437688 2.225622
  H 3.121895 0.679933 3.101223
  C 3.099553 -0.035739 -0.960409
  C 2.290480 0.404189 -2.153690
  H 1.225195 0.308909 -1.949025
  C 4.534046 -0.038189 -1.201806
  C 5.168256 0.599149 -2.184109
  H 6.224886 0.459356 -2.341121
  H 4.164868 -0.054763 1.066014
  H 3.390011 -1.527104 1.936433
  H 1.562731 0.065224 2.564278
  H 2.357894 1.339725 1.649172
  H 2.528183 -0.178470 -3.046659
  H 2.509122 1.451975 -2.363631
  H 5.113921 -0.689598 -0.560616
  H 4.667412 1.247632 -2.890113
 19
 37.393447
  H 1.810212 -1.568213 -0.098583
  C 2.576728 -0.823663 0.039498
  C 3.269832 -0.569803 1.345345
  C 2.484731 0.459339 2.185682
  H 3.109653 0.812396 3.003344
  C 3.128482 -0.081675 -0.958872
  C 2.296597 0.494994 -2.075576
  H 1.233204 0.395503 -1.846292
  C 4.551699 -0.149447 -1.233200
  C 5.196932 0.512096 -2.187570
  H 6.247917 0.343267 -2.362111
  H 4.006388 0.123224 0.901985
  H 3.495488 -1.443304 1.945846
  H 1.587440 0.012038 2.618300
  H 2.173199 1.298578 1.573787
  H 2.497043 0.017967 -3.040241
  H 2.529808 1.558434 -2.167077
  H 5.114798 -0.842100 -0.612712
  H 4.717629 1.227269 -2.836851
 19
 63.452367
  H 1.956288 -1.785956 -0.217041
  C 2.599406 -0.947428 0.013359
  C 3.203493 -0.621975 1.322325
  C 2.493665 0.489730 2.151649
  H 3.199195 0.901461 2.872076
  C 3.128837 -0.058082 -0.893786
  C 2.299612 0.546393 -2.002929
  H 1.236187 0.430504 -1.788498
  C 4.556832 -0.158382 -1.194092
  C 5.203897 0.493769 -2.159586
  H 6.238013 0.282814 -2.368451
  H 3.805400 0.209729 0.741634
  H 3.454286 -1.451783 1.985968
  H 1.647574 0.083290 2.712502
  H 2.132001 1.299001 1.518050
  H 2.512872 0.083611 -2.970551
  H 2.527058 1.607730 -2.084397
  H 5.105615 -0.872919 -0.592725
  H 4.735071 1.224252 -2.789322
 19
 82.468058
  H 2.034438 -1.886801 -0.242758
  C 2.625497 -1.029304 0.038821
  C 3.072927 -0.676430 1.322442
  C 2.494729 0.511106 2.089762
  H 3.224449 0.920225 2.786481
  C 3.180315 -0.049989 -0.846392
  C 2.303278 0.582306 -1.907319
  H 1.253343 0.454421 -1.651413
  C 4.608943 -0.166599 -1.200145
  C 5.221547 0.483033 -2.182869
  H 6.259269 0.301924 -2.400560
  H 3.735956 0.329774 0.459389
  H 3.302897 -1.477511 2.035601
  H 1.640438 0.162211 2.673350
  H 2.153329 1.307228 1.431412
  H 2.487715 0.130835 -2.882139
  H 2.509381 1.648415 -1.987004
  H 5.173198 -0.873922 -0.602458
  H 4.726211 1.206563 -2.805489
 19
 64.818767
  H 2.165209 -1.959349 -0.247946
  C 2.673519 -1.063069 0.087692
  C 2.995059 -0.733245 1.360953
  C 2.477688 0.501498 2.070005
  H 3.216755 0.926842 2.751430
  C 3.234937 0.003976 -0.804720
  C 2.301595 0.623044 -1.826834
  H 1.265321 0.466093 -1.534802
  C 4.662475 -0.182288 -1.226140
  C 5.256884 0.443611 -2.227425
  H 6.299355 0.275585 -2.446362
  H 3.668897 0.461055 0.232879
  H 3.187024 -1.493939 2.129128
  H 1.622436 0.186553 2.669361
  H 2.151380 1.277955 1.383712
  H 2.468515 0.174087 -2.804130
  H 2.471323 1.694705 -1.915828
  H 5.222071 -0.899298 -0.633700
  H 4.763960 1.192286 -2.821430
 19
 41.156106
  H 2.335013 -1.924487 -0.270689
  C 2.788598 -1.029783 0.120903
  C 2.937425 -0.753882 1.416329
  C 2.416537 0.464124 2.124467
  H 3.093050 0.821537 2.902797
  C 3.283051 0.087956 -0.767235
  C 2.329993 0.661220 -1.796204
  H 1.301146 0.533469 -1.467288
  C 4.702258 -0.125317 -1.244135
  C 5.235156 0.381432 -2.346899
  H 6.254638 0.169427 -2.622429
  H 3.629411 0.704857 0.110639
  H 3.029586 -1.565031 2.143275
  H 1.488897 0.158245 2.605843
  H 2.202744 1.290305 1.449445
  H 2.460222 0.148901 -2.747290
  H 2.508197 1.723188 -1.950806
  H 5.295841 -0.765700 -0.603163
  H 4.693156 1.034310 -3.008848
 19
 22.716686
  H 2.533922 -1.900461 -0.338479
  C 2.845104 -0.974249 0.119988
  C 2.840531 -0.780356 1.433971
  C 2.431802 0.464811 2.165632
  H 3.120798 0.715295 2.973824
  C 3.305316 0.171341 -0.749847
  C 2.322480 0.656636 -1.802281
  H 1.301467 0.515135 -1.454252
  C 4.699625 -0.103924 -1.261136
  C 5.220901 0.357620 -2.382229
  H 6.242890 0.150179 -2.652017
  H 3.562780 0.895460 0.048216
  H 2.841469 -1.618541 2.129277
  H 1.462431 0.250415 2.614196
  H 2.325861 1.333127 1.520739
  H 2.455257 0.095261 -2.724270
  H 2.466829 1.713045 -2.016312
  H 5.297662 -0.720878 -0.601860
  H 4.669781 0.979202 -3.066563
 19
 11.378602
  H 2.754507 -1.844582 -0.382931
  C 2.890136 -0.896776 0.119201
  C 2.722124 -0.790293 1.427480
  C 2.450441 0.451905 2.220512
  H 3.137260 0.541906 3.062701
  C 3.314535 0.268499 -0.738078
  C 2.314348 0.625890 -1.831410
  H 1.298780 0.509907 -1.458435
  C 4.708194 -0.009854 -1.241975
  C 5.199709 0.338494 -2.416125
  H 6.217880 0.114781 -2.687547
  H 3.452513 1.086913 -0.015722
  H 2.638451 -1.667917 2.060627
  H 1.443149 0.364499 2.628253
  H 2.499396 1.364191 1.633880
  H 2.442560 -0.030328 -2.689102
  H 2.445014 1.655354 -2.155853
  H 5.332257 -0.540185 -0.533008
  H 4.623133 0.871792 -3.152286
 19
 7.316794
  H 3.075048 -1.828541 -0.341837
  C 3.007096 -0.865190 0.146150
  C 2.630678 -0.797616 1.412493
  C 2.334555 0.430680 2.213481
  H 2.958659 0.463070 3.106838
  C 3.414556 0.317481 -0.696263
  C 2.349996 0.673029 -1.731311
  H 1.366439 0.669485 -1.266197
  C 4.767858 0.022212 -1.283427
  C 5.158242 0.253698 -2.522612
  H 6.155150 0.011860 -2.851529
  H 3.553439 1.146399 0.009356
  H 2.483783 -1.706332 1.984999
  H 1.295646 0.391028 2.541751
  H 2.477513 1.349754 1.653854
  H 2.349863 -0.054742 -2.539314
  H 2.531637 1.661338 -2.146979
  H 5.459683 -0.421103 -0.577070
  H 4.514545 0.697687 -3.262201
 19
 6.491877
  H 3.400617 -1.825594 -0.242222
  C 3.165346 -0.863768 0.194392
  C 2.609353 -0.812614 1.394242
  C 2.156419 0.409830 2.124932
  H 2.685920 0.496713 3.074316
  C 3.549864 0.339569 -0.637501
  C 2.411602 0.765573 -1.561276
  H 1.493854 0.881702 -0.989750
  C 4.835906 0.028409 -1.347788
  C 5.081556 0.151417 -2.638519
  H 6.041266 -0.107704 -3.053776
  H 3.757665 1.137986 0.088510
  H 2.437773 -1.733093 1.938477
  H 1.093537 0.323541 2.349319
  H 2.311466 1.319755 1.553497
  H 2.244180 0.011889 -2.326650
  H 2.644112 1.713540 -2.042194
  H 5.613565 -0.337780 -0.688382
  H 4.350382 0.514824 -3.339443
