 18
 0.000000
  C 0.882168 0.075612 0.346357
  C 2.361808 0.054429 0.076035
  C 3.240756 -0.045093 1.301117
  H 2.658817 -0.033557 2.219004
  C 2.938712 0.123294 -1.121708
  C 2.363554 0.238048 -2.509334
  C 0.857082 0.157790 -2.730115
  H 0.654660 0.248445 -3.797587
  H 4.023733 0.119618 -1.151499
  H 0.688739 -0.003701 1.412346
  H 0.378068 -0.752149 -0.143855
  H 0.434599 1.002664 -0.002301
  H 3.946201 0.785786 1.336422
  H 3.819545 -0.966846 1.282485
  H 2.834633 -0.550515 -3.110632
  H 2.722818 1.189070 -2.924935
  H 0.333539 0.962151 -2.221946
  H 0.458962 -0.796427 -2.394375
 18
 -0.330567
  C 0.880135 0.193176 0.361089
  C 2.352032 0.069613 0.075486
  C 3.239218 -0.096286 1.287001
  H 2.654785 -0.307818 2.178328
  C 2.921358 0.107935 -1.124345
  C 2.363812 0.261379 -2.512551
  C 0.867702 0.079263 -2.736592
  H 0.654438 0.171869 -3.800583
  H 4.005020 0.047697 -1.147625
  H 0.694975 0.150083 1.431507
  H 0.316303 -0.608803 -0.108731
  H 0.492590 1.141855 -0.005028
  H 3.816522 0.810369 1.467442
  H 3.940754 -0.914601 1.139778
  H 2.889592 -0.464119 -3.143682
  H 2.657146 1.253598 -2.877586
  H 0.287807 0.831947 -2.213319
  H 0.545173 -0.907160 -2.414208
 18
 -0.846730
  C 0.898169 0.309056 0.364621
  C 2.357199 0.095457 0.070555
  C 3.226753 -0.147427 1.279553
  H 2.649678 -0.602276 2.081794
  C 2.924816 0.099836 -1.130877
  C 2.358292 0.277217 -2.513148
  C 0.874545 0.004094 -2.729779
  H 0.646768 0.090005 -3.791196
  H 4.006183 0.014774 -1.158875
  H 0.727778 0.315866 1.438583
  H 0.284432 -0.477721 -0.067692
  H 0.560249 1.263465 -0.034953
  H 3.649990 0.785122 1.651375
  H 4.038249 -0.823016 1.024001
  H 2.922185 -0.393242 -3.170278
  H 2.584864 1.297651 -2.845758
  H 0.251590 0.713870 -2.196679
  H 0.619382 -1.003088 -2.409920
 18
 -1.300663
  C 0.931949 0.423901 0.360184
  C 2.374357 0.124859 0.060658
  C 3.204420 -0.202897 1.271859
  H 2.657943 -0.883956 1.923236
  C 2.941827 0.104278 -1.140220
  C 2.346357 0.302324 -2.508680
  C 0.882268 -0.071945 -2.711145
  H 0.640166 -0.008283 -3.770904
  H 4.016308 -0.031455 -1.180869
  H 0.786378 0.503584 1.435207
  H 0.274074 -0.359343 -0.009992
  H 0.632218 1.366781 -0.093156
  H 3.444241 0.691764 1.844783
  H 4.118915 -0.696357 0.959512
  H 2.941899 -0.305913 -3.197017
  H 2.495323 1.346399 -2.809835
  H 0.214444 0.594600 -2.177035
  H 0.701692 -1.092763 -2.382791
 18
 1.433838
  C 0.962459 0.573579 0.352076
  C 2.376861 0.167391 0.052719
  C 3.171069 -0.282432 1.246187
  H 2.696487 -1.174700 1.660456
  C 2.963080 0.144875 -1.141892
  C 2.330170 0.315578 -2.498910
  C 0.902467 -0.190656 -2.669759
  H 0.634099 -0.162035 -3.724488
  H 4.044442 0.148198 -1.180542
  H 0.843108 0.704377 1.425365
  H 0.238204 -0.172293 0.028537
  H 0.728335 1.515111 -0.140327
  H 3.237031 0.463435 2.032838
  H 4.140539 -0.596686 0.880716
  H 2.962890 -0.234237 -3.202901
  H 2.377101 1.370396 -2.796434
  H 0.187884 0.419434 -2.129014
  H 0.820999 -1.218819 -2.324367
 18
 12.262800
  C 0.958134 0.696924 0.374436
  C 2.333149 0.189589 0.061607
  C 3.148783 -0.344876 1.205188
  H 2.778178 -1.346613 1.449439
  C 2.961197 0.185234 -1.123527
  C 2.328575 0.305896 -2.488387
  C 0.945981 -0.314352 -2.646592
  H 0.663814 -0.318125 -3.697895
  H 4.005512 0.464156 -1.138289
  H 0.842737 0.773712 1.453093
  H 0.160860 0.050336 0.007619
  H 0.823933 1.681310 -0.069282
  H 3.157013 0.254715 2.106019
  H 4.096730 -0.574348 0.729314
  H 3.007126 -0.196495 -3.184898
  H 2.286812 1.358930 -2.795201
  H 0.192245 0.242367 -2.100929
  H 0.948714 -1.341278 -2.287524
 18
 31.276050
  C 0.938740 0.841909 0.423037
  C 2.266976 0.240718 0.094592
  C 3.104593 -0.433754 1.140111
  H 2.847974 -1.496812 1.227802
  C 2.939602 0.254035 -1.082174
  C 2.330057 0.331981 -2.465106
  C 1.036260 -0.456942 -2.630097
  H 0.748142 -0.489552 -3.679078
  H 3.923786 0.700095 -1.075018
  H 0.841598 0.923804 1.502997
  H 0.092563 0.252142 0.064030
  H 0.864872 1.830709 -0.024575
  H 3.137490 0.020137 2.119998
  H 3.969464 -0.607767 0.470645
  H 3.073989 -0.065632 -3.161343
  H 2.153478 1.377982 -2.751981
  H 0.223623 -0.003691 -2.071763
  H 1.169037 -1.477681 -2.276990
 18
 57.431009
  C 0.917634 0.939204 0.468437
  C 2.214558 0.283877 0.137706
  C 3.045757 -0.482804 1.085487
  H 2.939557 -1.569983 1.044931
  C 2.927171 0.290399 -1.036170
  C 2.347943 0.326800 -2.437474
  C 1.109156 -0.543271 -2.613137
  H 0.832364 -0.598828 -3.664106
  H 3.855583 0.844496 -1.013384
  H 0.802144 0.984507 1.549020
  H 0.060216 0.390897 0.070223
  H 0.884804 1.945884 0.056258
  H 3.099773 -0.143402 2.113119
  H 3.842397 -0.591596 0.185679
  H 3.125542 -0.023125 -3.121674
  H 2.109588 1.359964 -2.725264
  H 0.264317 -0.139339 -2.063033
  H 1.302257 -1.551958 -2.253603
 18
 74.009295
  C 0.929694 1.005161 0.501022
  C 2.202308 0.301254 0.184388
  C 2.956070 -0.504920 1.067353
  H 2.937912 -1.577047 0.931194
  C 2.954707 0.299920 -1.020994
  C 2.360698 0.311938 -2.418209
  C 1.151370 -0.602444 -2.578166
  H 0.862330 -0.668329 -3.625285
  H 3.851818 0.913163 -1.000368
  H 0.777565 1.018809 1.578638
  H 0.076652 0.493870 0.052787
  H 0.937503 2.027855 0.124428
  H 2.999363 -0.255836 2.129944
  H 3.784403 -0.549885 -0.147793
  H 3.139216 -0.012639 -3.115105
  H 2.088403 1.336110 -2.698004
  H 0.299492 -0.229061 -2.016222
  H 1.385352 -1.603413 -2.221681
 18
 54.666878
  C 0.970761 1.077027 0.510840
  C 2.199868 0.293850 0.221399
  C 2.835959 -0.543237 1.073791
  H 2.903412 -1.592992 0.853927
  C 2.997571 0.311258 -1.025831
  C 2.358965 0.311650 -2.399704
  C 1.200747 -0.671818 -2.526372
  H 0.896675 -0.768706 -3.566472
  H 3.875509 0.969562 -1.000830
  H 0.801479 1.125548 1.585835
  H 0.111874 0.583370 0.057848
  H 1.024345 2.090016 0.110704
  H 2.847831 -0.376233 2.151571
  H 3.698591 -0.498199 -0.498655
  H 3.124360 0.046498 -3.135510
  H 2.018055 1.322137 -2.639715
  H 0.339925 -0.339880 -1.952331
  H 1.497756 -1.652438 -2.161355
 18
 28.799357
  C 1.043442 1.165057 0.505359
  C 2.226987 0.296542 0.254613
  C 2.764251 -0.573647 1.121624
  H 2.924728 -1.600394 0.844648
  C 3.004017 0.281671 -1.031270
  C 2.335496 0.286541 -2.392411
  C 1.219614 -0.745223 -2.514478
  H 0.859931 -0.794024 -3.540270
  H 3.767198 1.079282 -1.005906
  H 0.803790 1.185360 1.566785
  H 0.193195 0.746561 -0.029598
  H 1.189045 2.187987 0.154229
  H 2.655566 -0.479101 2.200566
  H 3.721443 -0.506400 -0.708121
  H 3.093501 0.073403 -3.150787
  H 1.941639 1.284767 -2.595189
  H 0.378961 -0.495695 -1.873124
  H 1.584661 -1.729388 -2.230225
 18
 10.792918
  C 1.105845 1.200193 0.471533
  C 2.263221 0.282202 0.257026
  C 2.673060 -0.628021 1.133248
  H 3.035466 -1.594331 0.826675
  C 3.029167 0.307312 -1.037645
  C 2.305424 0.295372 -2.375848
  C 1.223506 -0.775220 -2.460547
  H 0.799164 -0.804876 -3.461979
  H 3.738491 1.147455 -1.003770
  H 0.766832 1.157625 1.504242
  H 0.289651 0.876537 -0.170696
  H 1.340723 2.234324 0.216962
  H 2.416401 -0.603247 2.184574
  H 3.739075 -0.519537 -0.885133
  H 3.042697 0.100777 -3.158802
  H 1.877013 1.280825 -2.570994
  H 0.417820 -0.584803 -1.757331
  H 1.644858 -1.752524 -2.235790
 18
 0.019929
  C 1.149403 1.196015 0.415422
  C 2.276796 0.223981 0.251317
  C 2.614765 -0.638310 1.198843
  H 3.220170 -1.508255 1.011985
  C 3.050566 0.268013 -1.036676
  C 2.263551 0.319736 -2.344318
  C 1.235880 -0.800958 -2.458932
  H 0.787862 -0.802205 -3.450603
  H 3.706913 1.146958 -0.977383
  H 0.783597 1.194079 1.439468
  H 0.328472 0.915311 -0.240683
  H 1.453419 2.209081 0.151834
  H 2.190214 -0.576580 2.188911
  H 3.741449 -0.578646 -1.029940
  H 2.973880 0.217289 -3.168661
  H 1.778383 1.291786 -2.450703
  H 0.439625 -0.692503 -1.728083
  H 1.713470 -1.764727 -2.296077
 18
 -3.544572
  C 1.253344 1.317675 0.444455
  C 2.257937 0.226544 0.226806
  C 2.478840 -0.712877 1.132328
  H 3.210352 -1.488671 0.980807
  C 3.046467 0.286013 -1.054440
  C 2.188629 0.320056 -2.321486
  C 1.298488 -0.910936 -2.437444
  H 0.738302 -0.893004 -3.370054
  H 3.674506 1.182751 -1.028570
  H 0.782670 1.218717 1.419676
  H 0.476955 1.289116 -0.317558
  H 1.736077 2.292748 0.386246
  H 1.933329 -0.742939 2.060944
  H 3.709293 -0.580933 -1.095525
  H 2.851126 0.366659 -3.188766
  H 1.576637 1.224361 -2.332062
  H 0.591530 -0.960615 -1.612923
  H 1.903933 -1.814604 -2.416708
