19
 0
 C -1.51782258 1.75210915 1.57360147
 C -1.63889779 0.24154430 1.41361334
 C -1.07725183 -0.18994840 0.05990901
 C -0.99887269 -0.60324822 2.51656765
 C -0.17192596 0.02987225 3.60620583
 O -1.13916980 -1.83167237 2.50968782
 H -2.06383411 2.26984704 0.77735374
 H -0.47376176 2.08021360 1.52636990
 H -1.93955627 2.08266516 2.52855872
 H -2.70943304 -0.00067913 1.44116282
 H 0.00000000 0.00000000 0.00000000
 H -1.56722226 0.34992794 -0.75738114
 H -1.23290195 -1.26101033 -0.10936174
 H -0.16030049 1.11748873 3.56603852
 H 0.85813727 -0.32669030 3.52198980
 H -0.58655284 -0.26410743 4.57486506
 O 2.30000000 0.00000000 0.00000000
 H 2.98474093 0.23913281 0.64258244
 H 2.78881206 -0.44606170 -0.70784698
