 19
 0.000000
  C -1.520986 1.770801 1.601311
  C -1.638654 0.288376 1.412329
  C -1.050684 -0.201601 0.110453
  C -1.000104 -0.652262 2.507374
  C -0.182800 0.038038 3.538866
  O -1.170689 -1.825129 2.445370
  H -2.088998 2.263170 0.808482
  H -0.496112 2.121665 1.494548
  H -1.947506 2.103502 2.543916
  H -2.696338 0.001004 1.495124
  H 0.022663 -0.005341 0.036501
  H -1.515447 0.339543 -0.715404
  H -1.206512 -1.271073 -0.014046
  H -0.180089 1.115587 3.464435
  H 0.831727 -0.353005 3.437456
  H -0.560780 -0.281229 4.512162
  O 2.307553 -0.006625 0.029110
  H 2.986235 0.267377 0.649490
  H 2.761707 -0.473413 -0.673563
 19
 0.032492
  C -1.473404 1.758354 1.584442
  C -1.594036 0.286548 1.387240
  C -0.975526 -0.211473 0.100264
  C -0.978613 -0.654966 2.504342
  C -0.162524 0.034081 3.530549
  O -1.163813 -1.829356 2.449434
  H -2.042743 2.253687 0.798110
  H -0.450361 2.104068 1.473605
  H -1.897294 2.085946 2.526587
  H -2.647133 -0.011289 1.471750
  H 0.111746 -0.018003 0.056357
  H -1.394338 0.342745 -0.733939
  H -1.131004 -1.272191 -0.032366
  H -0.138263 1.110420 3.439357
  H 0.844382 -0.377254 3.448355
  H -0.551330 -0.263821 4.504803
  O 2.055464 0.022249 0.086259
  H 2.723896 0.316332 0.715768
  H 2.522109 -0.438546 -0.620183
 19
 1.777915
  C -1.431128 1.757600 1.569488
  C -1.538236 0.271021 1.369636
  C -0.906690 -0.219500 0.097810
  C -0.951087 -0.651239 2.494583
  C -0.154035 0.029883 3.547282
  O -1.138487 -1.827662 2.435540
  H -1.998880 2.256512 0.776399
  H -0.403208 2.111151 1.475085
  H -1.865668 2.083367 2.516481
  H -2.591813 -0.036185 1.434848
  H 0.190707 -0.029999 0.063098
  H -1.285093 0.351413 -0.759715
  H -1.062962 -1.296652 -0.036838
  H -0.118482 1.110877 3.454258
  H 0.854339 -0.392588 3.500321
  H -0.571492 -0.260151 4.514960
  O 1.850140 0.046585 0.108121
  H 2.510460 0.354250 0.738640
  H 2.289735 -0.423377 -0.605393
 19
 5.752299
  C -1.388758 1.761439 1.602056
  C -1.528137 0.270896 1.374221
  C -0.896436 -0.195125 0.089950
  C -0.964864 -0.669872 2.499044
  C -0.130401 -0.042546 3.550173
  O -1.182236 -1.846304 2.445642
  H -1.950485 2.298173 0.836524
  H -0.347015 2.077000 1.545667
  H -1.799931 2.053467 2.571077
  H -2.591306 0.001238 1.455344
  H 0.261308 0.027013 0.053368
  H -1.246838 0.423787 -0.733250
  H -1.054142 -1.260689 -0.070608
  H -0.047862 1.042262 3.468644
  H 0.857979 -0.501094 3.472819
  H -0.524258 -0.327069 4.525797
  O 1.728402 0.102646 0.053875
  H 2.420142 0.381140 0.668117
  H 2.091717 -0.365070 -0.707088
 19
 11.079247
  C -1.401617 1.774283 1.638789
  C -1.511878 0.282062 1.392353
  C -0.899623 -0.168487 0.091971
  C -0.931018 -0.664421 2.486685
  C -0.125063 -0.071453 3.586349
  O -1.146954 -1.845463 2.391742
  H -1.986281 2.309916 0.895264
  H -0.376254 2.125393 1.586360
  H -1.804591 2.035971 2.615241
  H -2.575784 0.006052 1.428209
  H 0.393138 0.034899 0.047698
  H -1.219590 0.497201 -0.703612
  H -1.076536 -1.224753 -0.068808
  H -0.030025 1.005289 3.544778
  H 0.870233 -0.514219 3.559306
  H -0.586713 -0.385852 4.520668
  O 1.704708 0.090284 -0.036515
  H 2.436740 0.332165 0.547980
  H 2.030279 -0.389856 -0.811930
 19
 11.430697
  C -1.345341 1.758480 1.627620
  C -1.459085 0.257151 1.398715
  C -0.888249 -0.178176 0.092944
  C -0.935568 -0.671900 2.516083
  C -0.145639 -0.074414 3.633378
  O -1.162110 -1.861763 2.442995
  H -1.903788 2.278536 0.851532
  H -0.317240 2.099478 1.580865
  H -1.782239 2.048609 2.580677
  H -2.531605 -0.007481 1.385744
  H 0.463233 -0.052753 0.104316
  H -1.128556 0.481181 -0.731780
  H -1.016324 -1.240807 -0.095597
  H -0.026354 0.998298 3.560527
  H 0.827241 -0.563597 3.662178
  H -0.637802 -0.329716 4.570211
  O 1.586330 0.193914 -0.104431
  H 2.295770 0.419601 0.516048
  H 1.920890 -0.330182 -0.846360
 19
 12.997502
  C -1.354254 1.754815 1.619397
  C -1.466598 0.249392 1.402973
  C -0.910578 -0.186549 0.102771
  C -0.941439 -0.667380 2.528757
  C -0.147266 -0.069068 3.639796
  O -1.168823 -1.855247 2.471816
  H -1.908120 2.268410 0.838644
  H -0.322722 2.095514 1.575075
  H -1.786221 2.048152 2.566961
  H -2.542471 -0.014848 1.391229
  H 0.582625 -0.026154 0.089241
  H -1.131314 0.471424 -0.723463
  H -1.007704 -1.238332 -0.089041
  H -0.015270 0.989520 3.555640
  H 0.813450 -0.567716 3.683777
  H -0.647530 -0.302744 4.575982
  O 1.603132 0.201482 -0.126425
  H 2.290818 0.403284 0.533191
  H 1.945747 -0.346087 -0.864830
 19
 14.090996
  C -1.367336 1.744408 1.624581
  C -1.488535 0.241619 1.414295
  C -0.945689 -0.198833 0.117749
  C -0.965763 -0.664303 2.535928
  C -0.156436 -0.059881 3.642893
  O -1.206015 -1.854903 2.490784
  H -1.917130 2.257324 0.842565
  H -0.338021 2.077801 1.581308
  H -1.796101 2.042022 2.571738
  H -2.562634 -0.013677 1.405713
  H 0.725054 -0.018502 0.070531
  H -1.139215 0.459019 -0.710722
  H -1.019194 -1.258232 -0.074014
  H -0.001463 1.033431 3.537998
  H 0.805445 -0.582695 3.697702
  H -0.670058 -0.271653 4.593189
  O 1.667755 0.210806 -0.178331
  H 2.340427 0.387516 0.518944
  H 2.006037 -0.343562 -0.890830
 19
 16.159430
  C -1.392097 1.743370 1.633038
  C -1.522847 0.240201 1.441923
  C -0.984830 -0.213884 0.142557
  C -0.998225 -0.657571 2.564820
  C -0.178211 -0.054389 3.657153
  O -1.251529 -1.849738 2.538384
  H -1.941267 2.250226 0.843047
  H -0.357479 2.070919 1.584543
  H -1.817730 2.054260 2.581564
  H -2.599538 -0.007128 1.440953
  H 0.910221 -0.017232 0.047239
  H -1.154092 0.446959 -0.695413
  H -1.038866 -1.278680 -0.043014
  H -0.007500 1.007619 3.538653
  H 0.761173 -0.589128 3.722375
  H -0.689776 -0.237487 4.597949
  O 1.784742 0.227875 -0.245228
  H 2.433569 0.385253 0.434936
  H 2.126440 -0.354699 -0.970049
 19
 18.642774
  C -1.428484 1.742318 1.641007
  C -1.577656 0.234712 1.468885
  C -1.049358 -0.237616 0.162905
  C -1.051234 -0.656788 2.599074
  C -0.205621 -0.057069 3.682976
  O -1.318826 -1.844365 2.589173
  H -1.976393 2.245259 0.846982
  H -0.388834 2.059180 1.584690
  H -1.848012 2.069612 2.592082
  H -2.658345 0.004539 1.479895
  H 1.138404 -0.034274 -0.007238
  H -1.194030 0.430478 -0.662438
  H -1.090543 -1.297617 -0.006654
  H -0.004985 1.003851 3.538510
  H 0.728298 -0.614015 3.749146
  H -0.724273 -0.199050 4.635902
  O 1.955133 0.239891 -0.343620
  H 2.641803 0.392739 0.331199
  H 2.274878 -0.345610 -1.063205
 19
 21.619584
  C -1.461618 1.743280 1.674764
  C -1.623145 0.235216 1.509977
  C -1.097638 -0.256404 0.193155
  C -1.102963 -0.650501 2.639914
  C -0.256001 -0.047036 3.713693
  O -1.382659 -1.835009 2.645568
  H -2.009094 2.244474 0.876059
  H -0.426052 2.052120 1.611419
  H -1.884940 2.080411 2.618715
  H -2.700877 0.007042 1.524755
  H 1.404752 -0.063688 -0.090560
  H -1.242718 0.404661 -0.648622
  H -1.147932 -1.315152 0.028833
  H -0.046332 1.004131 3.557569
  H 0.660463 -0.619573 3.805275
  H -0.783064 -0.163840 4.656010
  O 2.165265 0.237880 -0.475516
  H 2.888866 0.400005 0.167565
  H 2.458386 -0.353741 -1.201830
 19
 22.845562
  C -1.510773 1.747366 1.683019
  C -1.694585 0.238737 1.549911
  C -1.189445 -0.281239 0.226299
  C -1.169629 -0.646779 2.680095
  C -0.283040 -0.047266 3.733517
  O -1.467547 -1.826779 2.701711
  H -2.049487 2.243315 0.875989
  H -0.463011 2.037048 1.623663
  H -1.924075 2.104820 2.623770
  H -2.785112 0.025414 1.558666
  H 1.692398 -0.107991 -0.160854
  H -1.312082 0.387739 -0.602065
  H -1.243924 -1.342718 0.074844
  H -0.045948 0.993018 3.551449
  H 0.628368 -0.639911 3.806639
  H -0.790666 -0.136453 4.691340
  O 2.406628 0.241648 -0.579655
  H 3.152880 0.418320 0.040588
  H 2.695579 -0.344732 -1.316375
 19
 22.449854
  C -1.554776 1.757451 1.716093
  C -1.763504 0.252805 1.597242
  C -1.264633 -0.287795 0.276950
  C -1.228967 -0.638456 2.711544
  C -0.348910 -0.036871 3.767539
  O -1.518234 -1.825901 2.721985
  H -2.086214 2.241729 0.908144
  H -0.506858 2.029786 1.637856
  H -1.952999 2.138186 2.657294
  H -2.849018 0.015059 1.598347
  H 2.047772 -0.186951 -0.263460
  H -1.394795 0.357900 -0.571590
  H -1.340772 -1.350284 0.140594
  H -0.119209 1.005117 3.587641
  H 0.558625 -0.624165 3.841713
  H -0.856783 -0.133922 4.728545
  O 2.702504 0.224092 -0.739099
  H 3.470797 0.429284 -0.165823
  H 2.980659 -0.353843 -1.480279
 19
 22.896032
  C -1.609270 1.756875 1.725577
  C -1.840465 0.253544 1.633843
  C -1.336776 -0.299087 0.301106
  C -1.274116 -0.626420 2.736516
  C -0.359921 -0.022959 3.760873
  O -1.554953 -1.813726 2.761479
  H -2.105684 2.249783 0.902548
  H -0.543232 1.997297 1.685406
  H -2.008008 2.152823 2.661743
  H -2.923437 0.034920 1.612996
  H 2.338915 -0.261097 -0.316606
  H -1.444392 0.355367 -0.540628
  H -1.427466 -1.360888 0.158566
  H -0.116339 1.011553 3.565828
  H 0.545017 -0.626377 3.818645
  H -0.842804 -0.112914 4.732923
  O 2.938428 0.196986 -0.813892
  H 3.725858 0.417365 -0.264608
  H 3.216861 -0.362949 -1.571852
