 20
 0.000000
  C 0.980429 0.136773 0.383076
  C 2.451710 0.138976 0.400589
  C 3.221645 0.608602 1.574318
  C 2.425590 1.095293 2.777724
  H 3.109138 1.408719 3.562404
  C 3.094371 -0.323808 -0.745000
  C 4.477555 -0.395868 -0.919589
  C 5.124983 -0.851582 -2.049140
  H 4.638332 -1.214680 -2.946361
  O 6.419449 -0.879025 -2.169497
  H 0.540227 0.507264 1.300407
  H 0.613556 -0.874085 0.198354
  H 0.618895 0.740291 -0.450976
  H 3.882763 1.417651 1.245933
  H 3.877846 -0.205875 1.899065
  H 1.790972 0.308284 3.178471
  H 1.796300 1.944153 2.520467
  H 2.449825 -0.644582 -1.550180
  H 5.109259 -0.064827 -0.104808
  H 6.912274 -0.556266 -1.387820
 20
 0.057830
  C 1.020368 -0.073420 0.565210
  C 2.482294 0.068853 0.487933
  C 3.255564 0.792877 1.520820
  C 2.475850 1.385114 2.683976
  H 3.162513 1.891217 3.356354
  C 3.124388 -0.526519 -0.596798
  C 4.478877 -0.420659 -0.911448
  C 5.033584 -1.090868 -1.987604
  H 4.484389 -1.857896 -2.520298
  O 6.219973 -0.888466 -2.466124
  H 0.591090 0.380370 1.450072
  H 0.746906 -1.128799 0.533760
  H 0.561998 0.368469 -0.319989
  H 3.812554 1.597911 1.028993
  H 4.016536 0.111594 1.916433
  H 1.964758 0.614438 3.253716
  H 1.746292 2.116098 2.343826
  H 2.508837 -1.075754 -1.289873
  H 5.111980 0.233766 -0.332438
  H 6.737264 -0.202350 -1.999562
 20
 1.195940
  C 1.001171 0.234559 0.301681
  C 2.468884 0.131298 0.416322
  C 3.193078 0.523142 1.648432
  C 2.358530 1.041582 2.810654
  H 3.014678 1.304297 3.635309
  C 3.160991 -0.376942 -0.677123
  C 4.548975 -0.389322 -0.846940
  C 5.129428 -0.965141 -1.955743
  H 4.590168 -1.686562 -2.560782
  O 6.341800 -0.771256 -2.376309
  H 0.523281 0.586991 1.210030
  H 0.577716 -0.733370 0.023816
  H 0.744735 0.908460 -0.519820
  H 3.932729 1.286954 1.383266
  H 3.776037 -0.340158 1.987898
  H 1.665034 0.287765 3.169672
  H 1.800997 1.931828 2.534488
  H 2.578614 -0.737994 -1.510200
  H 5.184478 0.118130 -0.134922
  H 6.870304 -0.150440 -1.834955
 20
 6.888639
  C 1.039363 0.315710 0.257889
  C 2.489800 0.130282 0.435401
  C 3.185347 0.474521 1.697151
  C 2.335695 1.050733 2.822132
  H 2.969784 1.263092 3.679610
  C 3.204695 -0.410959 -0.625109
  C 4.587395 -0.423559 -0.784348
  C 5.140857 -1.054728 -1.890283
  H 4.746234 -2.006262 -2.234232
  O 6.181103 -0.672843 -2.561931
  H 0.551160 0.718991 1.136472
  H 0.569197 -0.631559 -0.010576
  H 0.857153 0.983068 -0.586550
  H 3.987092 1.185179 1.465546
  H 3.692054 -0.427293 2.058499
  H 1.571360 0.347425 3.144239
  H 1.858258 1.980851 2.523578
  H 2.660089 -0.828043 -1.459826
  H 5.228043 0.149205 -0.127553
  H 6.618856 0.135795 -2.228381
 20
 16.510171
  C 1.084556 0.361928 0.204239
  C 2.518995 0.131701 0.449216
  C 3.169023 0.433613 1.746080
  C 2.294742 1.054523 2.828122
  H 2.888808 1.209754 3.725772
  C 3.278840 -0.405819 -0.584409
  C 4.656782 -0.405579 -0.716525
  C 5.167853 -1.104161 -1.823211
  H 4.992704 -2.172511 -1.916886
  O 5.967871 -0.645932 -2.728550
  H 0.577000 0.799213 1.053999
  H 0.593340 -0.576201 -0.057793
  H 0.958526 1.016301 -0.659044
  H 4.020492 1.097786 1.557616
  H 3.603194 -0.497013 2.127288
  H 1.464234 0.403444 3.091435
  H 1.904062 2.020384 2.517077
  H 2.792503 -0.882407 -1.425456
  H 5.306704 0.193750 -0.095658
  H 6.304398 0.262390 -2.581123
 20
 27.425295
  C 1.134311 0.393077 0.154088
  C 2.551950 0.136658 0.466870
  C 3.143956 0.393080 1.795973
  C 2.245974 1.059228 2.833253
  H 2.796037 1.172011 3.765953
  C 3.358943 -0.418463 -0.521924
  C 4.723204 -0.303557 -0.699563
  C 5.165291 -1.125110 -1.758893
  H 5.252122 -2.189891 -1.606226
  O 5.760565 -0.736300 -2.839431
  H 0.565008 0.699303 1.020758
  H 0.672689 -0.498829 -0.281428
  H 1.061107 1.175066 -0.605679
  H 4.052840 1.000914 1.661241
  H 3.497268 -0.569596 2.191376
  H 1.364130 0.458675 3.042754
  H 1.934304 2.048422 2.510184
  H 2.939234 -1.026528 -1.323572
  H 5.360994 0.410973 -0.204079
  H 5.984728 0.214952 -2.892312
 20
 40.867651
  C 1.236283 0.409471 0.078548
  C 2.640314 0.205126 0.480253
  C 3.145411 0.462335 1.852133
  C 2.136788 1.014346 2.849084
  H 2.635978 1.198616 3.800884
  C 3.524743 -0.366645 -0.441750
  C 4.885188 -0.277800 -0.614612
  C 5.120040 -1.168116 -1.719082
  H 5.231422 -2.225855 -1.551255
  O 5.456435 -0.837912 -2.925321
  H 0.614792 0.736358 0.908509
  H 0.814603 -0.508505 -0.342995
  H 1.184489 1.167790 -0.707151
  H 3.975212 1.180850 1.769271
  H 3.585123 -0.463509 2.236208
  H 1.334548 0.307895 3.032044
  H 1.713785 1.949512 2.508530
  H 3.172131 -1.076254 -1.204796
  H 5.565593 0.464819 -0.232811
  H 5.632984 0.116469 -3.078462
 20
 56.657847
  C 1.365350 0.352450 -0.006066
  C 2.756367 0.244348 0.492009
  C 3.162748 0.516264 1.906633
  C 2.049457 0.980806 2.833369
  H 2.463030 1.148940 3.828450
  C 3.756958 -0.215274 -0.345556
  C 5.101463 -0.199988 -0.560710
  C 4.941937 -1.153854 -1.666924
  H 5.118557 -2.214754 -1.468503
  O 4.994293 -0.865450 -2.918677
  H 0.689763 0.713539 0.759164
  H 0.998273 -0.611083 -0.363004
  H 1.323941 1.037859 -0.853751
  H 3.958484 1.272801 1.896509
  H 3.618729 -0.392590 2.317103
  H 1.266337 0.230678 2.922229
  H 1.611939 1.916337 2.492243
  H 3.437876 -0.990993 -1.174291
  H 5.906854 0.432136 -0.271606
  H 5.138874 0.078893 -3.140807
 20
 61.893312
  C 1.455514 0.368906 -0.033737
  C 2.827426 0.304479 0.518140
  C 3.158649 0.542906 1.962341
  C 1.982293 0.926682 2.847951
  H 2.342873 1.083785 3.861867
  C 3.875932 -0.084069 -0.262178
  C 5.156375 -0.098609 -0.628496
  C 4.837700 -1.171301 -1.617540
  H 5.123901 -2.193805 -1.368248
  O 4.815854 -0.957742 -2.930819
  H 0.729899 0.645176 0.720967
  H 1.161541 -0.589323 -0.463186
  H 1.410782 1.101208 -0.841625
  H 3.918179 1.329495 2.012377
  H 3.634580 -0.357566 2.363177
  H 1.233971 0.138574 2.880615
  H 1.516076 1.850130 2.514544
  H 3.616541 -1.099279 -1.167507
  H 5.988244 0.562691 -0.518459
  H 4.951282 -0.030022 -3.193638
 20
 51.977946
  C 1.499259 0.425774 -0.003196
  C 2.858897 0.364837 0.574284
  C 3.136306 0.563873 2.034942
  C 1.928655 0.904972 2.895064
  H 2.259860 1.038478 3.921973
  C 3.913245 0.040710 -0.184159
  C 5.094743 -0.082986 -0.721013
  C 4.807469 -1.235077 -1.663840
  H 5.274606 -2.187550 -1.403820
  O 4.861352 -1.005486 -3.012201
  H 0.752527 0.667109 0.742659
  H 1.240313 -0.525121 -0.469656
  H 1.463003 1.178180 -0.792960
  H 3.882383 1.359219 2.130921
  H 3.617709 -0.341649 2.417908
  H 1.190109 0.107371 2.883797
  H 1.459189 1.832473 2.577212
  H 3.710915 -1.356882 -1.339993
  H 5.941746 0.575283 -0.725792
  H 4.932235 -0.062860 -3.236536
 20
 39.686652
  C 1.501530 0.568941 0.031770
  C 2.850678 0.444442 0.620434
  C 3.105777 0.553226 2.088714
  C 1.897032 0.840237 2.959090
  H 2.218033 0.897755 3.995843
  C 3.893958 0.165545 -0.161253
  C 4.949440 -0.008246 -0.893155
  C 4.872079 -1.302300 -1.669816
  H 5.572315 -2.042117 -1.268114
  O 5.037895 -1.207384 -3.044868
  H 0.747168 0.762825 0.783240
  H 1.234720 -0.332541 -0.519196
  H 1.499689 1.380084 -0.698146
  H 3.860312 1.329937 2.252433
  H 3.582173 -0.381490 2.404621
  H 1.152883 0.052414 2.880160
  H 1.435786 1.792036 2.708298
  H 3.856094 -1.674496 -1.436054
  H 5.728125 0.713046 -1.072547
  H 4.923513 -0.300936 -3.368443
 20
 35.488790
  C 1.404923 0.594225 0.122106
  C 2.775243 0.433090 0.653310
  C 3.092835 0.532364 2.104079
  C 1.937558 0.852938 3.031103
  H 2.305453 0.899304 4.052370
  C 3.783654 0.194755 -0.199652
  C 4.759717 -0.037896 -1.004070
  C 4.879683 -1.322662 -1.787006
  H 5.537724 -1.983274 -1.200696
  O 5.448854 -1.197969 -3.055938
  H 0.685794 0.790722 0.906528
  H 1.097501 -0.291338 -0.433226
  H 1.396556 1.412288 -0.600509
  H 3.892103 1.270001 2.244732
  H 3.548266 -0.425280 2.390718
  H 1.163560 0.090996 2.984043
  H 1.494951 1.820305 2.801635
  H 3.899888 -1.803685 -1.862133
  H 5.535606 0.705432 -1.185343
  H 5.368334 -0.294488 -3.402297
 20
 35.497299
  C 1.295133 0.520423 0.203177
  C 2.698638 0.385006 0.651720
  C 3.106491 0.550022 2.080102
  C 2.005351 0.917057 3.057283
  H 2.433655 1.003398 4.053579
  C 3.650693 0.109663 -0.246791
  C 4.649149 -0.076756 -1.068991
  C 4.859645 -1.302049 -1.900169
  H 5.200838 -2.100969 -1.223984
  O 5.812084 -1.202420 -2.917026
  H 0.612100 0.646722 1.033032
  H 0.987568 -0.338549 -0.391436
  H 1.222362 1.385666 -0.458557
  H 3.904596 1.298687 2.132635
  H 3.576478 -0.394826 2.381375
  H 1.227387 0.158121 3.090005
  H 1.554572 1.876507 2.811929
  H 3.897729 -1.635088 -2.318516
  H 5.369870 0.727090 -1.207620
  H 5.943820 -0.287719 -3.201916
 20
 30.556320
  C 1.350910 0.590449 0.180379
  C 2.731875 0.409721 0.665929
  C 3.069968 0.467177 2.109168
  C 1.956802 0.906752 3.040867
  H 2.337209 0.973301 4.056783
  C 3.729038 0.240771 -0.219615
  C 4.657434 0.055941 -1.080275
  C 4.993785 -1.269431 -1.785205
  H 5.560407 -1.853443 -1.050446
  O 5.822418 -1.102781 -2.878905
  H 0.624391 0.233265 0.898915
  H 1.198621 0.120129 -0.788328
  H 1.170641 1.662105 0.046006
  H 3.950785 1.107547 2.247029
  H 3.421201 -0.532214 2.396880
  H 1.129745 0.202075 3.040679
  H 1.572953 1.884059 2.760008
  H 4.063342 -1.795073 -2.036563
  H 5.347245 0.848340 -1.360140
  H 5.319391 -0.908700 -3.683334
