 17
 0.000000
  C 1.008540 -0.071868 0.046478
  C 2.504922 -0.083223 0.026971
  C 3.220356 -0.595510 -0.978775
  C 4.657110 -0.606612 -1.001621
  C 5.377696 -1.121998 -2.013419
  C 6.815215 -1.131823 -2.033887
  C 7.530198 -1.641667 -3.034820
  H 8.603104 -1.653641 -3.059179
  H 0.646181 0.393904 0.961301
  H 0.611693 -1.085542 0.005813
  H 0.613392 0.494923 -0.796665
  H 3.004465 0.353007 0.881180
  H 2.709408 -1.029127 -1.829067
  H 5.161999 -0.171621 -0.148551
  H 4.873566 -1.557066 -2.866647
  H 7.321594 -0.697046 -1.181241
  H 7.034407 -2.077877 -3.890271
 17
 5.532649
  C 1.017605 -0.085079 0.083809
  C 2.470831 -0.098614 0.039914
  C 3.188792 -0.614703 -0.961371
  C 4.634800 -0.604902 -1.004131
  C 5.369847 -1.130149 -2.018195
  C 6.798584 -1.121519 -2.051411
  C 7.516199 -1.632815 -3.038108
  H 8.592073 -1.611009 -3.034792
  H 0.603511 0.412385 0.964091
  H 0.556116 -1.073376 -0.049131
  H 0.904266 0.506113 -0.795865
  H 3.009945 0.328260 0.875357
  H 2.676743 -1.064911 -1.806976
  H 5.142356 -0.146286 -0.158612
  H 4.869661 -1.588379 -2.860394
  H 7.293722 -0.662562 -1.205814
  H 7.049136 -2.095068 -3.890523
 17
 17.734449
  C 1.008297 -0.094119 0.102511
  C 2.457583 -0.109843 0.049615
  C 3.184864 -0.642420 -0.962911
  C 4.613725 -0.608769 -1.015222
  C 5.345284 -1.137442 -2.010323
  C 6.781600 -1.100561 -2.052619
  C 7.512202 -1.623501 -3.036614
  H 8.588489 -1.576194 -3.033814
  H 0.572106 0.398297 0.957878
  H 0.512703 -1.028761 -0.120889
  H 1.146377 0.532076 -0.755268
  H 3.023850 0.303906 0.883602
  H 2.676838 -1.109452 -1.795459
  H 5.116473 -0.124969 -0.188950
  H 4.848141 -1.625617 -2.837655
  H 7.270173 -0.611783 -1.221159
  H 7.052480 -2.118313 -3.880251
 17
 31.098655
  C 0.981843 -0.102364 0.130854
  C 2.439919 -0.113943 0.034573
  C 3.175910 -0.662485 -0.980463
  C 4.606550 -0.606084 -1.034620
  C 5.350183 -1.146632 -2.019714
  C 6.779726 -1.088771 -2.058709
  C 7.521038 -1.621253 -3.028542
  H 8.598378 -1.559517 -3.029111
  H 0.559198 0.360199 1.004045
  H 0.451833 -0.982263 -0.191602
  H 1.303540 0.572404 -0.658058
  H 3.012604 0.313009 0.861730
  H 2.670674 -1.154090 -1.803347
  H 5.102985 -0.096216 -0.216348
  H 4.863172 -1.661032 -2.835440
  H 7.259111 -0.574739 -1.237614
  H 7.066810 -2.143799 -3.864530
 17
 41.472837
  C 0.976602 -0.110061 0.149342
  C 2.434503 -0.113609 0.017022
  C 3.172129 -0.681764 -0.990129
  C 4.590603 -0.610613 -1.048635
  C 5.342966 -1.161497 -2.022440
  C 6.775782 -1.078332 -2.064600
  C 7.528714 -1.617801 -3.022796
  H 8.601114 -1.535435 -3.021094
  H 0.562239 0.298146 1.055542
  H 0.414316 -0.922360 -0.288037
  H 1.441652 0.622349 -0.554873
  H 2.997976 0.335018 0.825838
  H 2.666942 -1.201086 -1.798052
  H 5.083071 -0.072920 -0.241930
  H 4.861389 -1.702254 -2.828859
  H 7.247505 -0.536070 -1.252138
  H 7.088477 -2.164608 -3.845921
 17
 49.729582
  C 0.970964 -0.121974 0.165699
  C 2.428689 -0.107208 0.002546
  C 3.166497 -0.685867 -0.998687
  C 4.584804 -0.606671 -1.060001
  C 5.345071 -1.165019 -2.028730
  C 6.767180 -1.073843 -2.066333
  C 7.530177 -1.618003 -3.016758
  H 8.604428 -1.524371 -3.009361
  H 0.571807 0.263423 1.068071
  H 0.384346 -0.898955 -0.329509
  H 1.543354 0.631645 -0.497080
  H 2.998701 0.361523 0.817909
  H 2.669420 -1.213500 -1.793759
  H 5.071236 -0.062213 -0.265871
  H 4.867444 -1.719033 -2.832080
  H 7.231422 -0.520018 -1.258917
  H 7.102218 -2.171240 -3.829499
 17
 55.587050
  C 0.961465 -0.143053 0.178060
  C 2.420165 -0.096312 -0.004678
  C 3.164979 -0.688291 -1.006739
  C 4.582929 -0.603358 -1.069679
  C 5.348531 -1.167038 -2.034054
  C 6.774224 -1.070056 -2.069833
  C 7.541199 -1.617369 -3.012635
  H 8.614658 -1.518611 -3.002105
  H 0.546977 0.242876 1.105483
  H 0.386485 -0.863266 -0.354465
  H 1.616937 0.640201 -0.461157
  H 2.982072 0.374111 0.802957
  H 2.662704 -1.228875 -1.799143
  H 5.071249 -0.048264 -0.276749
  H 4.875720 -1.726944 -2.829260
  H 7.235461 -0.507477 -1.264916
  H 7.113565 -2.185281 -3.830118
 17
 59.583321
  C 0.962908 -0.176176 0.198524
  C 2.421282 -0.066705 0.000045
  C 3.176707 -0.688927 -1.005593
  C 4.580803 -0.597683 -1.073561
  C 5.347270 -1.168647 -2.032730
  C 6.777322 -1.065677 -2.073768
  C 7.547167 -1.620111 -3.012856
  H 8.618548 -1.518059 -3.006246
  H 0.524852 0.193205 1.107175
  H 0.384741 -0.835519 -0.412765
  H 1.679207 0.677487 -0.425839
  H 2.980267 0.390051 0.806761
  H 2.659637 -1.243358 -1.785901
  H 5.072102 -0.028754 -0.287131
  H 4.875209 -1.737187 -2.816629
  H 7.235954 -0.495480 -1.280799
  H 7.122480 -2.197419 -3.820268
 17
 63.331874
  C 0.972256 -0.206269 0.206985
  C 2.424856 -0.039578 0.004363
  C 3.183814 -0.675222 -0.999432
  C 4.581783 -0.588472 -1.070268
  C 5.348095 -1.165715 -2.030386
  C 6.773354 -1.062165 -2.073830
  C 7.543923 -1.621961 -3.012455
  H 8.612267 -1.521553 -3.003197
  H 0.512806 0.161078 1.099879
  H 0.405949 -0.843822 -0.446034
  H 1.739653 0.696195 -0.424735
  H 2.978131 0.405938 0.814697
  H 2.661707 -1.232304 -1.773716
  H 5.073677 -0.019928 -0.294350
  H 4.867988 -1.743417 -2.819798
  H 7.234096 -0.487708 -1.281500
  H 7.121140 -2.203528 -3.814464
 17
 64.394571
  C 0.976850 -0.254047 0.234678
  C 2.416703 -0.019053 0.002886
  C 3.186915 -0.673299 -1.005960
  C 4.581089 -0.576546 -1.079950
  C 5.352391 -1.160653 -2.037862
  C 6.774627 -1.065491 -2.072507
  C 7.548180 -1.630216 -3.006708
  H 8.618291 -1.521289 -3.002492
  H 0.497036 0.143038 1.104434
  H 0.407287 -0.846931 -0.453948
  H 1.794984 0.744519 -0.447738
  H 2.979645 0.405685 0.830164
  H 2.662340 -1.226596 -1.771490
  H 5.074934 -0.007388 -0.304286
  H 4.875962 -1.739998 -2.818447
  H 7.235631 -0.484063 -1.281129
  H 7.125587 -2.208969 -3.811230
 17
 63.823596
  C 0.993364 -0.302609 0.258566
  C 2.410711 0.002828 0.000955
  C 3.192673 -0.668460 -1.006998
  C 4.576354 -0.570774 -1.078493
  C 5.351616 -1.158433 -2.037711
  C 6.772089 -1.062103 -2.070941
  C 7.548139 -1.629114 -3.004262
  H 8.615687 -1.519974 -2.997490
  H 0.495266 0.128049 1.100274
  H 0.420793 -0.860910 -0.460101
  H 1.868383 0.802108 -0.486570
  H 2.973200 0.403366 0.839205
  H 2.664442 -1.221202 -1.770828
  H 5.072560 0.001432 -0.305967
  H 4.873717 -1.739418 -2.817670
  H 7.233052 -0.478375 -1.280695
  H 7.126439 -2.210280 -3.809833
 17
 62.936970
  C 1.007898 -0.336544 0.270323
  C 2.406296 0.023751 -0.002932
  C 3.196282 -0.656303 -1.006864
  C 4.573820 -0.559746 -1.078172
  C 5.350783 -1.154231 -2.036541
  C 6.770661 -1.064598 -2.066636
  C 7.546478 -1.634365 -3.000144
  H 8.615920 -1.514941 -2.999870
  H 0.496905 0.108628 1.096407
  H 0.442872 -0.883716 -0.460809
  H 1.942322 0.841949 -0.520326
  H 2.961986 0.412856 0.841537
  H 2.665578 -1.213088 -1.772070
  H 5.072123 0.011073 -0.309137
  H 4.870716 -1.735785 -2.813722
  H 7.233778 -0.475133 -1.279459
  H 7.123940 -2.206405 -3.808806
 17
 60.570178
  C 1.022900 -0.374377 0.293579
  C 2.391769 0.036766 -0.011936
  C 3.197396 -0.650109 -1.020085
  C 4.567758 -0.539027 -1.092679
  C 5.353547 -1.136320 -2.052326
  C 6.767700 -1.045424 -2.075266
  C 7.550002 -1.629636 -2.997147
  H 8.619801 -1.534617 -2.975011
  H 0.504773 0.089297 1.107770
  H 0.445096 -0.903444 -0.442668
  H 2.032191 0.901561 -0.554023
  H 2.960004 0.386869 0.847433
  H 2.667769 -1.207443 -1.781737
  H 5.065128 0.036832 -0.324820
  H 4.876552 -1.724469 -2.825659
  H 7.228029 -0.459743 -1.284549
  H 7.132584 -2.229670 -3.789476
