 16
 0.000000
  C 0.931836 0.053214 0.206567
  C 2.414383 0.065316 0.006475
  H 3.011126 0.013366 0.905811
  C 3.044634 0.130980 -1.172144
  C 2.319078 0.204787 -2.482681
  H 1.240088 0.197200 -2.340013
  C 4.498925 0.132295 -1.203326
  C 5.260357 0.192966 -2.292289
  H 6.332905 0.188861 -2.224906
  H 0.690437 -0.001307 1.263759
  H 0.479150 -0.805566 -0.290673
  H 0.475091 0.955098 -0.199820
  H 2.594810 -0.643966 -3.110446
  H 2.595602 1.118021 -3.011902
  H 4.975752 0.077826 -0.232393
  H 4.853782 0.248767 -3.287507
 16
 5.944533
  C 0.932822 0.088999 0.224657
  C 2.385295 0.077016 0.006652
  H 3.029719 0.029621 0.929825
  C 3.022344 0.137461 -1.169183
  C 2.298722 0.217616 -2.485114
  H 1.223167 0.224336 -2.350704
  C 4.481047 0.117357 -1.197700
  C 5.244237 0.174018 -2.281724
  H 6.319153 0.159582 -2.210422
  H 0.646241 -0.006464 1.268240
  H 0.755014 -0.820185 -0.335914
  H 0.413089 0.942043 -0.215719
  H 2.565366 -0.633764 -3.109344
  H 2.584066 1.124892 -3.014705
  H 4.955287 0.053846 -0.225843
  H 4.839543 0.240180 -3.276573
 16
 18.465235
  C 0.929498 0.103412 0.232900
  C 2.365448 0.095778 0.015766
  H 3.027320 0.066731 0.928328
  C 3.006628 0.149804 -1.162611
  C 2.294525 0.236980 -2.477918
  H 1.208805 0.261464 -2.355941
  C 4.453793 0.099224 -1.193486
  C 5.218758 0.154065 -2.278865
  H 6.290416 0.121249 -2.207162
  H 0.617025 -0.013954 1.256970
  H 1.001043 -0.810824 -0.322698
  H 0.374621 0.879651 -0.266566
  H 2.556269 -0.623671 -3.101247
  H 2.598317 1.139143 -3.006023
  H 4.929579 0.016308 -0.218097
  H 4.816580 0.244874 -3.270665
 16
 32.686237
  C 0.911776 0.116075 0.248064
  C 2.346835 0.094490 0.009524
  H 3.011043 0.064384 0.920935
  C 2.999194 0.150516 -1.165627
  C 2.288307 0.247457 -2.488616
  H 1.206732 0.274852 -2.364576
  C 4.447864 0.088729 -1.187689
  C 5.217324 0.147123 -2.272649
  H 6.288986 0.095366 -2.199589
  H 0.603286 -0.000046 1.274265
  H 1.175144 -0.793322 -0.278228
  H 0.322466 0.840670 -0.298091
  H 2.545578 -0.605811 -3.117281
  H 2.595137 1.148904 -3.013976
  H 4.922223 -0.010316 -0.218708
  H 4.815633 0.250033 -3.264113
 16
 44.357122
  C 0.894832 0.129656 0.262827
  C 2.336147 0.089047 0.001426
  H 2.983615 0.045856 0.915838
  C 2.999440 0.149586 -1.175297
  C 2.289479 0.262043 -2.494034
  H 1.212899 0.292157 -2.371685
  C 4.441141 0.074463 -1.192868
  C 5.219379 0.138265 -2.273515
  H 6.294100 0.079060 -2.194423
  H 0.595154 0.051954 1.288298
  H 1.315577 -0.787957 -0.194770
  H 0.268105 0.768646 -0.338946
  H 2.541572 -0.588103 -3.130805
  H 2.597839 1.169195 -3.015279
  H 4.905309 -0.037790 -0.223126
  H 4.822688 0.260233 -3.269590
 16
 52.505316
  C 0.881247 0.137389 0.268780
  C 2.329082 0.086538 -0.005759
  H 2.967715 0.039566 0.910618
  C 2.999796 0.152426 -1.186263
  C 2.284246 0.281410 -2.500712
  H 1.205068 0.310744 -2.367344
  C 4.443790 0.067898 -1.196926
  C 5.229202 0.132810 -2.271313
  H 6.293825 0.050653 -2.187912
  H 0.582619 0.105477 1.305988
  H 1.436613 -0.788544 -0.116742
  H 0.223370 0.677378 -0.388022
  H 2.531124 -0.566063 -3.151437
  H 2.591710 1.201927 -3.017324
  H 4.904655 -0.062248 -0.221532
  H 4.840419 0.255483 -3.266065
 16
 58.117437
  C 0.876007 0.160991 0.276785
  C 2.326659 0.065346 -0.008624
  H 2.972392 0.014307 0.912850
  C 3.001607 0.145753 -1.196585
  C 2.280842 0.294376 -2.510838
  H 1.204937 0.318804 -2.374896
  C 4.434967 0.054150 -1.199551
  C 5.230334 0.125636 -2.267526
  H 6.299553 0.041172 -2.173657
  H 0.575593 0.187840 1.306461
  H 1.522729 -0.797650 -0.033941
  H 0.203191 0.587713 -0.434342
  H 2.524519 -0.533891 -3.174671
  H 2.581240 1.212266 -3.005770
  H 4.890266 -0.084065 -0.225150
  H 4.851830 0.272247 -3.262955
 16
 63.370372
  C 0.872769 0.192832 0.278354
  C 2.318703 0.042509 -0.004333
  H 2.947037 -0.014996 0.908174
  C 2.999600 0.132376 -1.199050
  C 2.282981 0.288069 -2.500258
  H 1.192994 0.310807 -2.363219
  C 4.439787 0.035673 -1.202041
  C 5.237624 0.118225 -2.266707
  H 6.309289 0.058351 -2.164733
  H 0.573118 0.225078 1.300572
  H 1.582895 -0.798509 -0.013428
  H 0.197235 0.580810 -0.459015
  H 2.527157 -0.531884 -3.167540
  H 2.581634 1.207172 -2.986960
  H 4.896755 -0.097789 -0.229616
  H 4.856187 0.299732 -3.277943
 16
 67.107718
  C 0.872667 0.220970 0.286128
  C 2.320954 0.024520 0.005216
  H 2.961362 -0.023404 0.927752
  C 3.005852 0.131404 -1.197909
  C 2.281464 0.292749 -2.512407
  H 1.208329 0.304068 -2.379144
  C 4.427630 0.041140 -1.197254
  C 5.231600 0.125355 -2.263997
  H 6.296839 0.049051 -2.163163
  H 0.558295 0.241940 1.315307
  H 1.641216 -0.820084 -0.001536
  H 0.199299 0.567479 -0.467786
  H 2.536495 -0.528427 -3.196780
  H 2.574309 1.230581 -2.996944
  H 4.882342 -0.102708 -0.226229
  H 4.859858 0.285423 -3.255151
 16
 68.629738
  C 0.880922 0.278171 0.289451
  C 2.314837 -0.002672 0.010900
  H 2.964357 -0.020688 0.930384
  C 3.007798 0.129690 -1.200490
  C 2.284156 0.294468 -2.504279
  H 1.206144 0.284936 -2.371328
  C 4.428292 0.042303 -1.198507
  C 5.236992 0.132058 -2.263726
  H 6.302905 0.044614 -2.161158
  H 0.538440 0.259201 1.303408
  H 1.690158 -0.868059 0.005914
  H 0.195577 0.553797 -0.485915
  H 2.550982 -0.503129 -3.193284
  H 2.560971 1.243605 -2.974015
  H 4.882237 -0.113911 -0.227729
  H 4.864853 0.268206 -3.261166
 16
 68.978653
  C 0.897312 0.341952 0.293270
  C 2.309592 -0.028529 0.024804
  H 2.947138 -0.041000 0.924468
  C 3.009090 0.117475 -1.199198
  C 2.283761 0.282681 -2.496859
  H 1.209221 0.259684 -2.364475
  C 4.425953 0.026929 -1.195641
  C 5.237939 0.127889 -2.261548
  H 6.296698 0.059248 -2.155797
  H 0.533514 0.274987 1.295048
  H 1.740665 -0.912130 -0.006672
  H 0.215573 0.583412 -0.501820
  H 2.560217 -0.508277 -3.194958
  H 2.546826 1.233030 -2.957629
  H 4.882320 -0.126287 -0.225742
  H 4.867180 0.298193 -3.258285
 16
 67.076738
  C 0.915122 0.411037 0.295648
  C 2.299512 -0.050447 0.033332
  H 2.945771 -0.042677 0.939413
  C 3.013539 0.102836 -1.199937
  C 2.281230 0.273160 -2.498901
  H 1.202117 0.238097 -2.361134
  C 4.421078 0.004576 -1.193981
  C 5.237338 0.120384 -2.258647
  H 6.306058 0.078328 -2.145195
  H 0.521211 0.288765 1.285518
  H 1.804329 -0.986517 -0.021802
  H 0.229490 0.615578 -0.506975
  H 2.564928 -0.509340 -3.208215
  H 2.534060 1.236699 -2.952930
  H 4.876955 -0.144673 -0.224009
  H 4.867647 0.317167 -3.252911
 16
 65.773948
  C 0.928853 0.453985 0.296698
  C 2.289826 -0.069516 0.040158
  H 2.928635 -0.045641 0.936010
  C 3.014919 0.094978 -1.201383
  C 2.281124 0.269483 -2.494840
  H 1.203927 0.216816 -2.355548
  C 4.418660 -0.006664 -1.192457
  C 5.239547 0.119603 -2.256068
  H 6.307340 0.084414 -2.139086
  H 0.518273 0.294129 1.274586
  H 1.869964 -1.033814 -0.034942
  H 0.247924 0.646523 -0.513738
  H 2.575992 -0.498774 -3.213636
  H 2.517057 1.240755 -2.936674
  H 4.874448 -0.161867 -0.223242
  H 4.870581 0.308661 -3.250983
