20
 0
 C 0.28176850 2.43962717 -0.56474262
 C 0.22892438 1.01619717 -1.11748157
 C 1.51176542 0.69796965 -1.87904839
 C 0.00000000 0.00000000 0.00000000
 O 0.00273089 0.31613854 1.19097285
 C -0.24348942 -1.43412424 -0.39809313
 H 0.39637497 3.16861474 -1.37374863
 H 1.12066692 2.56742715 0.12873480
 H -0.63756913 2.68215952 -0.02069737
 H -0.62862361 0.94835004 -1.79783037
 H 2.37859070 0.68931908 -1.20928057
 H 1.69277875 1.43868898 -2.66516322
 H 1.45831531 -0.28477747 -2.35837217
 H -0.35238306 -1.52706846 -1.48124671
 H -1.16846119 -1.78378316 0.06777195
 H 0.59995741 -2.04632874 -0.06936877
 O 4.77447389 0.17182589 0.05419320
 H 5.29705985 -0.65693420 -0.09464306
 H 5.01864710 0.60472535 0.91154596
 H 3.80000000 0.00000000 0.00000000
