 24
 0.000000
  C 0.887512 0.060651 0.277292
  C 2.382360 0.083917 0.096733
  C 3.224936 0.016118 1.361902
  C 2.512887 -0.107419 2.707934
  C 3.526921 -0.167354 3.845708
  C 2.978552 0.140608 -1.098721
  C 2.362679 0.183490 -2.477572
  C 0.858818 0.235602 -2.722452
  H 0.676419 0.263029 -3.792785
  H 4.058381 0.132867 -1.148236
  H 0.597770 0.007897 1.320654
  H 0.453534 -0.809080 -0.208130
  H 0.434833 0.963199 -0.124175
  H 3.845840 0.911021 1.420403
  H 3.899235 -0.841958 1.272207
  H 1.906428 -1.015530 2.735457
  H 1.858734 0.751688 2.871698
  H 4.185540 -1.025930 3.731446
  H 3.016271 -0.255020 4.802535
  H 4.137578 0.733049 3.867045
  H 2.744601 -0.696424 -3.011617
  H 2.797528 1.057581 -2.979695
  H 0.416886 1.127098 -2.286807
  H 0.359565 -0.641677 -2.323036
 24
 -1.453045
  C 0.824611 -0.201936 0.284109
  C 2.311439 -0.055959 0.108066
  C 3.194628 -0.097105 1.347264
  C 2.513947 -0.057467 2.713932
  C 3.554101 -0.045388 3.830025
  C 2.917726 0.095956 -1.067726
  C 2.381578 0.192486 -2.470785
  C 0.895560 0.416810 -2.718115
  H 0.727879 0.503922 -3.790297
  H 4.001309 0.138076 -1.064991
  H 0.555090 -0.340783 1.324765
  H 0.461471 -1.068179 -0.265680
  H 0.300285 0.679772 -0.075856
  H 3.868246 0.761256 1.293538
  H 3.814626 -0.998603 1.302454
  H 1.874109 -0.932403 2.848033
  H 1.896328 0.839963 2.795638
  H 4.174959 -0.937876 3.784286
  H 3.068915 -0.015317 4.803310
  H 4.200847 0.825370 3.743078
  H 2.687460 -0.718851 -2.999268
  H 2.922847 1.016403 -2.949774
  H 0.557880 1.338370 -2.251635
  H 0.294354 -0.409389 -2.354015
 24
 -1.834446
  C 0.843069 -0.451891 0.260986
  C 2.315456 -0.196175 0.100466
  C 3.198016 -0.240083 1.340467
  C 2.516654 0.050981 2.676794
  C 3.539045 0.077542 3.808080
  C 2.914514 0.081792 -1.054585
  C 2.382850 0.255055 -2.452459
  C 0.903697 0.559083 -2.656619
  H 0.719519 0.722761 -3.717574
  H 3.996865 0.159344 -1.044903
  H 0.598038 -0.715562 1.283297
  H 0.532780 -1.277955 -0.376535
  H 0.258948 0.425131 -0.006027
  H 3.956808 0.527441 1.184737
  H 3.693812 -1.213156 1.399282
  H 1.771388 -0.713090 2.904097
  H 2.010835 1.017519 2.625441
  H 4.045407 -0.882249 3.887354
  H 3.052813 0.288616 4.758004
  H 4.289051 0.845204 3.629179
  H 2.640656 -0.644941 -3.024678
  H 2.955399 1.075267 -2.899013
  H 0.619045 1.462902 -2.123772
  H 0.271989 -0.260153 -2.332152
 24
 -2.855677
  C 0.897661 -0.699281 0.217101
  C 2.344590 -0.318193 0.085180
  C 3.193756 -0.378745 1.337310
  C 2.529489 0.185687 2.594981
  C 3.507850 0.205626 3.763905
  C 2.934763 0.068452 -1.042197
  C 2.375343 0.313350 -2.419143
  C 0.907432 0.703279 -2.550195
  H 0.698216 0.955189 -3.588817
  H 4.009638 0.208256 -1.023589
  H 0.700371 -1.125307 1.195991
  H 0.637310 -1.448533 -0.528494
  H 0.243366 0.159192 0.085874
  H 4.066263 0.238752 1.125611
  H 3.514668 -1.406393 1.527519
  H 1.661853 -0.411510 2.878570
  H 2.185028 1.201917 2.391375
  H 3.853340 -0.801383 3.988934
  H 3.032610 0.612332 4.653857
  H 4.375154 0.818643 3.527954
  H 2.566570 -0.573218 -3.036301
  H 2.971393 1.123617 -2.851590
  H 0.688789 1.576535 -1.940261
  H 0.243191 -0.104159 -2.264217
 24
 -1.394669
  C 0.958342 -0.967900 0.162362
  C 2.380335 -0.497135 0.061915
  C 3.189249 -0.556018 1.335233
  C 2.552030 0.304142 2.433547
  C 3.439650 0.364442 3.670839
  C 2.972162 -0.001065 -1.022288
  C 2.363667 0.384989 -2.346137
  C 0.924060 0.885531 -2.340490
  H 0.669419 1.257196 -3.331716
  H 4.054266 0.022155 -1.048045
  H 0.814878 -1.506138 1.096276
  H 0.730305 -1.644715 -0.658925
  H 0.245905 -0.145656 0.138941
  H 4.128524 -0.079958 1.066239
  H 3.321429 -1.575528 1.697191
  H 1.577596 -0.099659 2.714666
  H 2.393542 1.312737 2.046029
  H 3.604453 -0.633973 4.070860
  H 2.976657 0.972261 4.445143
  H 4.407357 0.797642 3.426924
  H 2.449632 -0.455813 -3.045493
  H 2.991827 1.187112 -2.746659
  H 0.808620 1.701602 -1.630740
  H 0.221489 0.099051 -2.090058
 24
 8.308113
  C 0.924554 -1.168356 0.087197
  C 2.328263 -0.642426 0.065036
  C 3.109178 -0.699011 1.356174
  C 2.550401 0.349267 2.334665
  C 3.468618 0.520578 3.538162
  C 2.982055 -0.095675 -0.969267
  C 2.385497 0.427753 -2.253499
  C 1.015084 1.084805 -2.146318
  H 0.761039 1.557181 -3.093605
  H 4.032824 -0.326311 -1.080542
  H 0.771674 -1.741125 0.999012
  H 0.764019 -1.819277 -0.770047
  H 0.168043 -0.384555 0.063615
  H 4.042385 -0.258068 1.014215
  H 3.133976 -1.673693 1.832950
  H 1.559628 0.046255 2.684046
  H 2.437709 1.302083 1.814393
  H 3.598276 -0.427104 4.056546
  H 3.050584 1.240206 4.238673
  H 4.448567 0.874254 3.224907
  H 2.343101 -0.372648 -3.003101
  H 3.089586 1.175467 -2.632171
  H 1.020524 1.848862 -1.371886
  H 0.240595 0.361873 -1.916375
 24
 27.866622
  C 0.830772 -1.390387 -0.017174
  C 2.190918 -0.777720 0.087004
  C 2.949101 -0.771737 1.392145
  C 2.556038 0.430634 2.277602
  C 3.574087 0.636695 3.390493
  C 2.940642 -0.207560 -0.885954
  C 2.437188 0.467702 -2.142868
  C 1.144379 1.255913 -1.972356
  H 0.923275 1.812858 -2.880902
  H 3.923500 -0.625203 -1.056250
  H 0.642014 -1.990595 0.869629
  H 0.779892 -2.023808 -0.900340
  H 0.026707 -0.654983 -0.089137
  H 3.836692 -0.317009 0.913642
  H 2.916743 -1.686880 1.970077
  H 1.571902 0.258241 2.727659
  H 2.479163 1.330977 1.666044
  H 3.653517 -0.257563 4.004834
  H 3.277594 1.466224 4.029030
  H 4.556675 0.853663 2.976816
  H 2.307995 -0.267154 -2.949299
  H 3.224519 1.155177 -2.464583
  H 1.237237 1.961699 -1.149309
  H 0.305165 0.599373 -1.768347
 24
 53.746184
  C 0.747354 -1.537791 -0.094928
  C 2.072796 -0.886856 0.112419
  C 2.782295 -0.790370 1.414229
  C 2.550562 0.489896 2.244564
  C 3.672819 0.702719 3.249631
  C 2.906765 -0.285736 -0.795909
  C 2.494181 0.486790 -2.034536
  C 1.254122 1.351342 -1.845123
  H 1.085988 1.968037 -2.725908
  H 3.834317 -0.806948 -0.993955
  H 0.500491 -2.137297 0.778414
  H 0.768376 -2.175060 -0.977129
  H -0.056549 -0.810498 -0.231331
  H 3.645560 -0.258358 0.773630
  H 2.744614 -1.662344 2.062840
  H 1.601613 0.399761 2.788934
  H 2.466277 1.358392 1.588907
  H 3.759357 -0.156037 3.911538
  H 3.478221 1.584677 3.855847
  H 4.624766 0.837050 2.739821
  H 2.333134 -0.200798 -2.875952
  H 3.334189 1.131005 -2.307803
  H 1.377095 2.006489 -0.984962
  H 0.370060 0.741253 -1.686822
 24
 70.882820
  C 0.744170 -1.646076 -0.126501
  C 2.031840 -0.952370 0.151473
  C 2.654300 -0.794740 1.419615
  C 2.530566 0.519798 2.188806
  C 3.689316 0.734870 3.156080
  C 2.929454 -0.308365 -0.745158
  C 2.524873 0.511926 -1.956929
  C 1.311838 1.403785 -1.724087
  H 1.144271 2.046647 -2.586443
  H 3.830492 -0.870976 -0.977278
  H 0.448656 -2.228655 0.743652
  H 0.823307 -2.306363 -0.990352
  H -0.051042 -0.928292 -0.330401
  H 3.616996 -0.144086 0.528370
  H 2.590854 -1.629934 2.130386
  H 1.595348 0.488531 2.760985
  H 2.465499 1.365702 1.500636
  H 3.759517 -0.095615 3.855415
  H 3.547122 1.651289 3.725388
  H 4.630818 0.806746 2.616466
  H 2.335816 -0.152983 -2.807256
  H 3.375364 1.143148 -2.229674
  H 1.466658 2.034118 -0.850465
  H 0.414914 0.812887 -1.564449
 24
 55.041156
  C 0.773768 -1.758453 -0.142691
  C 2.011311 -1.010041 0.202184
  C 2.538973 -0.813239 1.442577
  C 2.483855 0.532238 2.133547
  C 3.664977 0.781691 3.070670
  C 2.965653 -0.343180 -0.715583
  C 2.535239 0.521277 -1.885550
  C 1.386831 1.468579 -1.560381
  H 1.205699 2.143962 -2.393833
  H 3.829849 -0.959488 -1.001828
  H 0.451590 -2.356865 0.709429
  H 0.910513 -2.413424 -1.005800
  H -0.024024 -1.053845 -0.380862
  H 3.620154 -0.074302 0.266656
  H 2.419284 -1.586809 2.215301
  H 1.559411 0.546373 2.719367
  H 2.429415 1.341227 1.401317
  H 3.734988 -0.011621 3.811765
  H 3.547467 1.728748 3.593051
  H 4.597766 0.811263 2.512233
  H 2.257660 -0.122054 -2.725198
  H 3.395595 1.114905 -2.208667
  H 1.623358 2.064543 -0.681322
  H 0.470686 0.920114 -1.362579
 24
 30.075215
  C 0.862079 -1.806414 -0.196967
  C 2.046120 -1.003476 0.214024
  C 2.449092 -0.769417 1.481345
  C 2.521706 0.588184 2.131364
  C 3.670137 0.736787 3.129025
  C 2.986928 -0.307654 -0.736319
  C 2.499614 0.530402 -1.905272
  C 1.358295 1.472649 -1.539288
  H 1.105962 2.108450 -2.385544
  H 3.779573 -0.997342 -1.069405
  H 0.481939 -2.380816 0.646114
  H 1.074790 -2.487393 -1.023374
  H 0.082448 -1.119824 -0.521780
  H 3.631830 0.122219 0.078629
  H 2.253736 -1.517652 2.259215
  H 1.573324 0.713090 2.661678
  H 2.591122 1.379831 1.382506
  H 3.607050 -0.031661 3.896641
  H 3.635237 1.710086 3.613983
  H 4.629623 0.637860 2.625279
  H 2.183815 -0.135819 -2.711719
  H 3.337740 1.123598 -2.281498
  H 1.645215 2.109538 -0.705688
  H 0.468459 0.919767 -1.253684
 24
 13.126309
  C 0.966235 -1.817756 -0.245639
  C 2.073228 -0.946191 0.243181
  C 2.344694 -0.705753 1.531236
  C 2.546607 0.633133 2.185739
  C 3.701584 0.663445 3.187133
  C 2.986773 -0.220700 -0.709803
  C 2.453769 0.520501 -1.926725
  C 1.300536 1.462548 -1.598146
  H 1.036533 2.055022 -2.471856
  H 3.738273 -0.954959 -1.043808
  H 0.553001 -2.407037 0.570572
  H 1.275532 -2.490576 -1.046995
  H 0.180794 -1.173422 -0.635278
  H 3.619346 0.347936 -0.010412
  H 2.072271 -1.440021 2.292264
  H 1.611892 0.846751 2.711668
  H 2.695055 1.420508 1.444484
  H 3.567035 -0.105691 3.944861
  H 3.755873 1.630028 3.683774
  H 4.648189 0.481688 2.682277
  H 2.143074 -0.200858 -2.685172
  H 3.270557 1.109981 -2.351892
  H 1.582928 2.140753 -0.796142
  H 0.417722 0.913718 -1.283087
 24
 0.866885
  C 1.095347 -1.832716 -0.261548
  C 2.100805 -0.852097 0.254824
  C 2.248222 -0.583796 1.549931
  C 2.619862 0.723174 2.191079
  C 3.680952 0.575548 3.281191
  C 2.998149 -0.157212 -0.734465
  C 2.388513 0.499019 -1.969084
  C 1.234410 1.436993 -1.632465
  H 0.899155 1.959387 -2.526267
  H 3.737534 -0.906549 -1.054031
  H 0.637882 -2.382510 0.557908
  H 1.530807 -2.544003 -0.964576
  H 0.314338 -1.285127 -0.784633
  H 3.611121 0.540230 -0.151826
  H 1.847798 -1.263347 2.299191
  H 1.699660 1.108936 2.640764
  H 2.956841 1.455680 1.457100
  H 3.352494 -0.133895 4.037946
  H 3.871463 1.531115 3.765230
  H 4.613649 0.212002 2.854969
  H 2.057315 -0.268588 -2.671238
  H 3.169733 1.080997 -2.464871
  H 1.552522 2.177040 -0.901278
  H 0.388568 0.896157 -1.217787
 24
 -6.694578
  C 1.241497 -1.886268 -0.267379
  C 2.116198 -0.780796 0.247794
  C 2.132513 -0.458545 1.535395
  C 2.663548 0.791748 2.173429
  C 3.622268 0.485160 3.323689
  C 3.010528 -0.125091 -0.770148
  C 2.299036 0.472924 -1.984733
  C 1.222302 1.472728 -1.579936
  H 0.773830 1.928402 -2.460252
  H 3.713985 -0.894695 -1.110893
  H 0.773186 -2.425007 0.552872
  H 1.807951 -2.592481 -0.874524
  H 0.454798 -1.467163 -0.892816
  H 3.620709 0.636874 -0.280489
  H 1.616747 -1.079495 2.260284
  H 1.803076 1.342610 2.566757
  H 3.161472 1.437104 1.450650
  H 3.134292 -0.136552 4.071458
  H 3.953758 1.403683 3.803196
  H 4.496203 -0.047401 2.954453
  H 1.860143 -0.324157 -2.587530
  H 3.039857 0.983393 -2.605080
  H 1.651528 2.261432 -0.965745
  H 0.437715 0.988028 -1.004390
 24
 -9.189612
  C 1.395052 -1.993531 -0.232103
  C 2.140726 -0.771885 0.227682
  C 2.030794 -0.345360 1.479935
  C 2.670008 0.846568 2.124623
  C 3.534068 0.426778 3.314358
  C 3.009995 -0.130851 -0.820993
  C 2.214396 0.481466 -1.979396
  C 1.252392 1.559905 -1.495195
  H 0.709392 1.993224 -2.332148
  H 3.681688 -0.899180 -1.218132
  H 0.934860 -2.509083 0.607807
  H 2.066481 -2.683542 -0.742175
  H 0.607461 -1.716534 -0.933701
  H 3.631099 0.642973 -0.371589
  H 1.421824 -0.914265 2.174950
  H 1.875911 1.511882 2.480279
  H 3.278199 1.410756 1.419187
  H 2.938753 -0.113338 4.047850
  H 3.969001 1.299007 3.798563
  H 4.340440 -0.223736 2.982830
  H 1.657860 -0.300724 -2.499563
  H 2.915834 0.917600 -2.694406
  H 1.796807 2.354688 -0.989637
  H 0.534097 1.143619 -0.792963
