 32
 0.000000
  C 0.968447 0.139898 0.399890
  C 2.446474 0.138114 0.394891
  C 3.234885 0.607410 1.562447
  C 2.460328 1.097831 2.783180
  C 3.412185 1.542347 3.889144
  C 3.059307 -0.326368 -0.761433
  C 4.438278 -0.411977 -0.975155
  C 5.117422 -0.861992 -2.097132
  C 4.624911 -1.385516 -3.402402
  C 3.134208 -1.503992 -3.698533
  C 2.910214 -2.065927 -5.099641
  O 6.443162 -0.855959 -2.082352
  H 0.534833 0.510360 1.321889
  H 0.596231 -0.872337 0.234760
  H 0.595880 0.756247 -0.419717
  H 3.890739 1.419250 1.227674
  H 3.890993 -0.210154 1.882435
  H 1.822461 0.301296 3.171541
  H 1.822266 1.941490 2.512495
  H 4.048233 0.720293 4.211372
  H 2.848472 1.889086 4.752313
  H 4.048016 2.358953 3.552911
  H 2.399248 -0.643034 -1.549760
  H 5.049667 -0.078472 -0.144672
  H 5.081212 -2.374287 -3.527603
  H 5.081559 -0.757573 -4.176195
  H 2.658608 -0.523648 -3.645194
  H 2.658262 -2.175570 -2.982604
  H 3.348694 -1.418474 -5.855953
  H 1.844851 -2.147089 -5.302586
  H 3.348359 -3.056718 -5.198866
  H 6.812316 -0.520237 -1.244022
 32
 7.683781
  C 1.012501 0.128244 0.371001
  C 2.473339 0.150165 0.424961
  C 3.222904 0.623684 1.602978
  C 2.412813 1.105005 2.800962
  C 3.339116 1.557043 3.925648
  C 3.154724 -0.298669 -0.692386
  C 4.485968 -0.410411 -0.970751
  C 5.147890 -0.883218 -2.149850
  C 4.600037 -1.394594 -3.424846
  C 3.097645 -1.494963 -3.676481
  C 2.848947 -2.056428 -5.076055
  O 6.467044 -0.894179 -2.177959
  H 0.546970 0.492125 1.276643
  H 0.666172 -0.887753 0.175939
  H 0.665673 0.726544 -0.472720
  H 3.885203 1.435842 1.280921
  H 3.885410 -0.185262 1.932403
  H 1.775644 0.301388 3.173310
  H 1.775437 1.942817 2.513792
  H 3.974789 0.740176 4.258745
  H 2.759383 1.899679 4.778594
  H 3.974571 2.377412 3.600819
  H 2.733471 -0.662226 -1.597781
  H 5.171159 -0.095361 -0.185700
  H 5.053651 -2.385160 -3.560891
  H 5.054341 -0.773252 -4.207776
  H 2.631109 -0.511160 -3.617298
  H 2.630327 -2.164650 -2.953912
  H 3.282296 -1.412428 -5.836885
  H 1.782176 -2.132655 -5.267228
  H 3.281635 -3.048014 -5.180625
  H 6.903214 -0.564292 -1.354557
 32
 24.131052
  C 1.077867 0.092237 0.286996
  C 2.536708 0.145197 0.413113
  C 3.236968 0.635052 1.629015
  C 2.373877 1.102424 2.795011
  C 3.247402 1.570761 3.956457
  C 3.278033 -0.283325 -0.654485
  C 4.587640 -0.413209 -0.978970
  C 5.173081 -0.892168 -2.170983
  C 4.563166 -1.392477 -3.418780
  C 3.058439 -1.469929 -3.618809
  C 2.759055 -2.030375 -5.014685
  O 6.486456 -0.927722 -2.254618
  H 0.557772 0.444604 1.164998
  H 0.764090 -0.929840 0.070955
  H 0.761326 0.678930 -0.576296
  H 3.901008 1.452501 1.327587
  H 3.903427 -0.161741 1.976814
  H 1.737694 0.286513 3.141212
  H 1.735013 1.929271 2.480908
  H 3.884763 0.764358 4.314809
  H 2.627263 1.903472 4.786684
  H 3.881907 2.402692 3.656152
  H 3.080447 -0.666848 -1.608195
  H 5.340486 -0.119176 -0.248502
  H 4.994726 -2.388241 -3.576009
  H 4.997873 -0.783954 -4.220749
  H 2.606408 -0.479202 -3.549851
  H 2.602784 -2.135957 -2.884665
  H 3.179078 -1.391880 -5.790652
  H 1.683944 -2.091272 -5.171601
  H 3.175759 -3.029825 -5.132260
  H 6.961798 -0.603703 -1.438857
 32
 42.888395
  C 1.087239 0.081560 0.276712
  C 2.548846 0.146824 0.419040
  C 3.228185 0.641712 1.638463
  C 2.350433 1.101424 2.793817
  C 3.207732 1.576812 3.961990
  C 3.318799 -0.278126 -0.640994
  C 4.621768 -0.405607 -0.964212
  C 5.211055 -0.903557 -2.191222
  C 4.564599 -1.405092 -3.443157
  C 3.051325 -1.463018 -3.611660
  C 2.718645 -2.016826 -4.994423
  O 6.518418 -0.946018 -2.278498
  H 0.556816 0.433308 1.155020
  H 0.786046 -0.940959 0.059150
  H 0.777059 0.663208 -0.588728
  H 3.889337 1.463694 1.347897
  H 3.898825 -0.145574 1.995802
  H 1.717574 0.280394 3.134807
  H 1.707462 1.922975 2.473898
  H 3.848169 0.775974 4.325950
  H 2.578375 1.904335 4.786041
  H 3.837644 2.413542 3.667089
  H 3.302975 -0.669615 -1.608139
  H 5.421159 -0.119816 -0.264613
  H 4.973721 -2.404923 -3.608546
  H 4.984065 -0.804660 -4.254414
  H 2.611049 -0.468113 -3.530920
  H 2.600159 -2.120131 -2.866710
  H 3.130255 -1.384066 -5.777519
  H 1.641494 -2.064738 -5.130749
  H 3.119797 -3.020147 -5.119773
  H 6.991943 -0.635221 -1.489713
 32
 62.436488
  C 1.084447 0.073500 0.259283
  C 2.550670 0.140464 0.405707
  C 3.225128 0.638932 1.631390
  C 2.337958 1.101499 2.792497
  C 3.193206 1.581091 3.968311
  C 3.324587 -0.281867 -0.646344
  C 4.632966 -0.417581 -0.990159
  C 5.221621 -0.911215 -2.205625
  C 4.565387 -1.411568 -3.456582
  C 3.060879 -1.456966 -3.595083
  C 2.700211 -2.001914 -4.963530
  O 6.521844 -0.952394 -2.291214
  H 0.546177 0.425214 1.135773
  H 0.786540 -0.947848 0.041418
  H 0.777524 0.652882 -0.606478
  H 3.888277 1.463994 1.342514
  H 3.898343 -0.148586 1.993140
  H 1.703461 0.276885 3.133038
  H 1.692981 1.924384 2.469038
  H 3.834272 0.781836 4.335760
  H 2.560002 1.907762 4.789356
  H 3.823164 2.419112 3.675840
  H 3.460897 -0.673177 -1.612644
  H 5.465396 -0.139679 -0.311771
  H 4.954945 -2.399470 -3.628967
  H 4.966471 -0.823494 -4.264081
  H 2.626669 -0.453447 -3.502718
  H 2.618920 -2.114285 -2.834781
  H 3.102207 -1.368103 -5.755323
  H 1.619465 -2.041057 -5.077151
  H 3.092720 -3.011319 -5.099892
  H 7.000903 -0.629885 -1.478345
 32
 78.749022
  C 1.059858 0.091142 0.296371
  C 2.524337 0.148510 0.423583
  C 3.210445 0.642091 1.641008
  C 2.339106 1.107169 2.807324
  C 3.204749 1.579797 3.970249
  C 3.283639 -0.278674 -0.640234
  C 4.599852 -0.420002 -0.999935
  C 5.229263 -0.917728 -2.225765
  C 4.596376 -1.417031 -3.471478
  C 3.071765 -1.465446 -3.613541
  C 2.706325 -2.015876 -4.992293
  O 6.537612 -0.948039 -2.287619
  H 0.536133 0.446574 1.181774
  H 0.751500 -0.934168 0.080148
  H 0.744191 0.675975 -0.570517
  H 3.874190 1.463689 1.347716
  H 3.882360 -0.147540 1.996572
  H 1.705186 0.288659 3.152957
  H 1.696688 1.931122 2.491978
  H 3.844287 0.777699 4.330148
  H 2.581496 1.909371 4.797727
  H 3.835311 2.413617 3.671841
  H 3.529389 -0.670090 -1.607984
  H 5.434140 -0.139806 -0.317123
  H 5.001629 -2.423314 -3.642597
  H 5.011517 -0.814959 -4.290793
  H 2.639609 -0.463579 -3.518905
  H 2.630515 -2.120499 -2.854683
  H 3.106833 -1.384258 -5.783700
  H 1.624289 -2.056038 -5.107284
  H 3.097857 -3.022968 -5.128046
  H 6.989111 -0.632201 -1.493485
 32
 92.598129
  C 1.040858 0.160845 0.265937
  C 2.521729 0.172135 0.396816
  C 3.212506 0.623093 1.637185
  C 2.342992 1.084716 2.794149
  C 3.204421 1.515651 3.972031
  C 3.269510 -0.251007 -0.661201
  C 4.599461 -0.386810 -1.048638
  C 5.235377 -0.888994 -2.242876
  C 4.607538 -1.416760 -3.471327
  C 3.084914 -1.483305 -3.582545
  C 2.698396 -2.058415 -4.933078
  O 6.549377 -0.897094 -2.303969
  H 0.525557 0.514988 1.165305
  H 0.707564 -0.850276 0.033559
  H 0.735725 0.770853 -0.587057
  H 3.894822 1.429912 1.355693
  H 3.860832 -0.188655 1.982891
  H 1.686686 0.276089 3.118587
  H 1.724091 1.928275 2.486138
  H 3.820265 0.692842 4.324129
  H 2.579762 1.845215 4.797302
  H 3.856997 2.338810 3.694880
  H 3.611767 -0.632815 -1.619074
  H 5.427406 -0.071376 -0.376184
  H 5.025259 -2.422498 -3.624883
  H 5.007020 -0.823290 -4.307466
  H 2.646440 -0.486101 -3.496224
  H 2.667795 -2.125203 -2.803489
  H 3.074903 -1.440526 -5.739504
  H 1.618769 -2.110804 -5.024231
  H 3.095586 -3.058694 -5.056603
  H 7.000323 -0.559295 -1.512598
 32
 95.859925
  C 1.073193 0.291029 0.194370
  C 2.562007 0.226447 0.346334
  C 3.234243 0.598701 1.657604
  C 2.308791 1.045918 2.786934
  C 3.129756 1.402349 4.023015
  C 3.312768 -0.168605 -0.659141
  C 4.661779 -0.301607 -1.150207
  C 5.294641 -0.835107 -2.299096
  C 4.637455 -1.435286 -3.503073
  C 3.104620 -1.516132 -3.521901
  C 2.627826 -2.153584 -4.826417
  O 6.613270 -0.821204 -2.405407
  H 0.586139 0.624829 1.097619
  H 0.698346 -0.693747 -0.065749
  H 0.800733 0.956299 -0.616427
  H 3.941190 1.402195 1.433986
  H 3.826463 -0.253713 2.003442
  H 1.612200 0.246138 3.049358
  H 1.735622 1.925309 2.483153
  H 3.701180 0.544082 4.372249
  H 2.474629 1.722822 4.829451
  H 3.822377 2.214491 3.808083
  H 3.715961 -0.560397 -1.666296
  H 5.458984 0.060207 -0.480144
  H 5.061137 -2.441259 -3.621138
  H 4.990323 -0.870342 -4.376403
  H 2.662929 -0.514895 -3.454058
  H 2.739110 -2.127877 -2.689343
  H 2.950931 -1.566553 -5.685159
  H 1.539959 -2.213219 -4.846077
  H 3.024137 -3.161805 -4.932993
  H 7.090127 -0.445956 -1.642370
 32
 99.230961
  C 1.033014 0.465392 0.204637
  C 2.523753 0.308370 0.352811
  C 3.212891 0.585602 1.684267
  C 2.320536 1.031096 2.829789
  C 3.163377 1.277864 4.077196
  C 3.250569 -0.085944 -0.660900
  C 4.593673 -0.228163 -1.249305
  C 5.281600 -0.785172 -2.353768
  C 4.670416 -1.459204 -3.532848
  C 3.144798 -1.589433 -3.546050
  C 2.683489 -2.299141 -4.816422
  O 6.602306 -0.719703 -2.435676
  H 0.570412 0.794380 1.120785
  H 0.593570 -0.482131 -0.086918
  H 0.809575 1.183532 -0.570918
  H 3.961200 1.359816 1.500625
  H 3.743393 -0.317059 1.986832
  H 1.580373 0.265819 3.055798
  H 1.802955 1.952688 2.572431
  H 3.681941 0.371939 4.380648
  H 2.529434 1.597763 4.901124
  H 3.903309 2.054315 3.898401
  H 3.675289 -0.490025 -1.724406
  H 5.326136 0.198324 -0.544271
  H 5.123493 -2.454212 -3.602884
  H 5.004230 -0.921326 -4.425784
  H 2.673384 -0.602511 -3.523893
  H 2.801244 -2.175156 -2.688658
  H 2.985313 -1.741433 -5.704594
  H 1.599131 -2.392058 -4.827113
  H 3.110742 -3.301059 -4.878353
  H 7.044728 -0.296594 -1.680213
 32
 103.770240
  C 0.987949 0.627218 0.231382
  C 2.469605 0.382605 0.343631
  C 3.195155 0.560184 1.674490
  C 2.341986 1.002253 2.860324
  C 3.216247 1.145805 4.101905
  C 3.152945 -0.003483 -0.698496
  C 4.509108 -0.152376 -1.313536
  C 5.261855 -0.732505 -2.373521
  C 4.696040 -1.478266 -3.535312
  C 3.175111 -1.652463 -3.559485
  C 2.752877 -2.434348 -4.794801
  O 6.580150 -0.619679 -2.423810
  H 0.564065 0.943004 1.169647
  H 0.487844 -0.283444 -0.090524
  H 0.791918 1.393917 -0.514028
  H 3.981951 1.302466 1.513799
  H 3.680847 -0.384821 1.929438
  H 1.563388 0.266850 3.066188
  H 1.869742 1.963504 2.654134
  H 3.690125 0.198957 4.354641
  H 2.614249 1.460361 4.951136
  H 3.994993 1.889528 3.944959
  H 3.633077 -0.396211 -1.805936
  H 5.180777 0.331273 -0.596598
  H 5.179175 -2.459631 -3.552796
  H 5.029363 -0.972842 -4.445759
  H 2.674958 -0.682688 -3.592425
  H 2.837134 -2.203725 -2.680546
  H 3.049993 -1.913295 -5.703820
  H 1.672561 -2.559715 -4.814433
  H 3.208659 -3.423211 -4.801882
  H 6.989811 -0.151426 -1.679590
 32
 108.228426
  C 0.998650 0.805028 0.213422
  C 2.460030 0.468398 0.328509
  C 3.182561 0.527683 1.677769
  C 2.343609 0.948145 2.878575
  C 3.215517 0.973346 4.135156
  C 3.134840 0.099121 -0.725364
  C 4.480003 -0.050357 -1.385737
  C 5.254520 -0.651910 -2.428693
  C 4.705755 -1.482881 -3.541005
  C 3.199507 -1.719983 -3.523697
  C 2.784335 -2.589333 -4.709581
  O 6.562862 -0.484684 -2.490297
  H 0.579525 1.092480 1.168510
  H 0.449364 -0.058327 -0.154405
  H 0.856995 1.621263 -0.491228
  H 4.005561 1.237024 1.567349
  H 3.605014 -0.459111 1.875681
  H 1.526795 0.241128 3.039459
  H 1.930949 1.947756 2.725193
  H 3.633479 -0.009416 4.338007
  H 2.623219 1.272537 4.995758
  H 4.033269 1.682760 4.026984
  H 3.643359 -0.333895 -1.868906
  H 5.122328 0.496476 -0.689703
  H 5.232669 -2.444555 -3.516556
  H 5.003281 -1.010923 -4.484175
  H 2.658297 -0.771410 -3.599611
  H 2.906247 -2.236779 -2.605929
  H 3.042856 -2.110584 -5.649511
  H 1.712549 -2.760242 -4.699165
  H 3.281722 -3.553485 -4.674957
  H 6.953989 0.053863 -1.780404
 32
 113.411125
  C 1.003421 0.839735 0.231300
  C 2.459263 0.480898 0.349752
  C 3.178650 0.512187 1.703183
  C 2.343965 0.932306 2.912299
  C 3.211705 0.928995 4.167594
  C 3.130086 0.112308 -0.709335
  C 4.459989 -0.039670 -1.416564
  C 5.253795 -0.649420 -2.457139
  C 4.715311 -1.498116 -3.556323
  C 3.214333 -1.753760 -3.528121
  C 2.807331 -2.639476 -4.694556
  O 6.559760 -0.453787 -2.519430
  H 0.585698 1.127128 1.183567
  H 0.441214 -0.014084 -0.153699
  H 0.878624 1.661960 -0.467008
  H 4.015319 1.206924 1.603755
  H 3.592561 -0.484641 1.893154
  H 1.519439 0.244386 3.060186
  H 1.946822 1.931230 2.769666
  H 3.614238 -0.062656 4.357851
  H 2.623596 1.226988 5.031444
  H 4.039687 1.624210 4.068434
  H 3.658857 -0.306693 -1.925484
  H 5.090154 0.512181 -0.722638
  H 5.253897 -2.457727 -3.521315
  H 5.001076 -1.034471 -4.511114
  H 2.661302 -0.815907 -3.614126
  H 2.931191 -2.260105 -2.603092
  H 3.054650 -2.167215 -5.644819
  H 1.732526 -2.824096 -4.675931
  H 3.316746 -3.599243 -4.647522
  H 6.942657 0.094605 -1.812813
 32
 113.492530
  C 1.048286 1.048815 0.228239
  C 2.479421 0.581085 0.334858
  C 3.170884 0.466151 1.690920
  C 2.338954 0.852416 2.911752
  C 3.177007 0.703858 4.181627
  C 3.142086 0.243353 -0.733382
  C 4.429732 0.087641 -1.494626
  C 5.248501 -0.561672 -2.524245
  C 4.727782 -1.503889 -3.549893
  C 3.234051 -1.831304 -3.459556
  C 2.839152 -2.818669 -4.549351
  O 6.538301 -0.295379 -2.625183
  H 0.640231 1.298875 1.190551
  H 0.434420 0.263826 -0.219661
  H 0.988244 1.927567 -0.416348
  H 4.060603 1.109213 1.654973
  H 3.520182 -0.565276 1.817239
  H 1.461974 0.208846 2.993528
  H 2.005306 1.887738 2.832911
  H 3.511501 -0.320928 4.306817
  H 2.592730 0.975449 5.050516
  H 4.049656 1.347308 4.147507
  H 3.660640 -0.203795 -2.031956
  H 5.050316 0.696517 -0.843502
  H 5.308485 -2.426968 -3.465269
  H 4.964504 -1.099253 -4.537871
  H 2.631312 -0.929755 -3.595970
  H 2.998932 -2.281369 -2.490199
  H 3.036996 -2.404676 -5.539073
  H 1.779011 -3.051084 -4.485861
  H 3.395493 -3.749016 -4.449026
  H 6.902984 0.312547 -1.961761
 32
 116.598298
  C 1.097692 1.111896 0.211617
  C 2.517440 0.617312 0.339987
  C 3.175363 0.439046 1.712045
  C 2.328013 0.787537 2.925624
  C 3.134261 0.575475 4.201372
  C 3.203139 0.308777 -0.716808
  C 4.441320 0.119892 -1.534080
  C 5.255707 -0.539681 -2.572505
  C 4.725784 -1.522023 -3.555647
  C 3.252555 -1.875283 -3.398930
  C 2.836167 -2.908482 -4.445083
  O 6.530903 -0.236400 -2.708494
  H 0.661382 1.334032 1.176557
  H 0.487392 0.353618 -0.280879
  H 1.067740 2.013787 -0.399272
  H 4.070327 1.063813 1.722883
  H 3.506006 -0.594809 1.805492
  H 1.438967 0.155296 2.964043
  H 2.011363 1.830714 2.882638
  H 3.451047 -0.459286 4.290913
  H 2.534642 0.821555 5.069226
  H 4.018792 1.206478 4.210215
  H 3.709437 -0.157356 -2.093332
  H 5.043482 0.790086 -0.916223
  H 5.331522 -2.432856 -3.465120
  H 4.917407 -1.142867 -4.564787
  H 2.623655 -0.988352 -3.539498
  H 3.065540 -2.296157 -2.407117
  H 2.986348 -2.523732 -5.453482
  H 1.783878 -3.159539 -4.332458
  H 3.414428 -3.823617 -4.338518
  H 6.890703 0.403201 -2.068903
