 18
 0.000000
  C 0.896411 0.055938 0.222650
  C 2.396285 0.058287 0.120239
  C 3.249336 -0.009640 1.370766
  C 2.531981 -0.094424 2.715396
  C 3.540324 -0.156362 3.858302
  C 2.992339 0.121954 -1.062004
  H 2.446065 0.175605 -1.988437
  H 4.066055 0.123502 -1.154704
  H 0.555632 0.020450 1.251500
  H 0.474987 -0.806524 -0.290847
  H 0.484517 0.955434 -0.232941
  H 3.895528 0.873591 1.386421
  H 3.907431 -0.879644 1.282539
  H 1.905053 -0.988120 2.751751
  H 1.894162 0.780653 2.858148
  H 4.180787 -1.030193 3.758247
  H 3.027421 -0.216841 4.815838
  H 4.169621 0.731206 3.863497
 18
 5.292680
  C 0.894930 0.117561 0.243825
  C 2.359865 0.063360 0.142191
  C 3.242742 -0.000889 1.373587
  C 2.533245 -0.103266 2.717279
  C 3.540333 -0.164630 3.858178
  C 2.957877 0.097988 -1.055258
  H 2.385393 0.158503 -1.978742
  H 4.040464 0.052189 -1.156872
  H 0.494372 0.053222 1.250171
  H 0.733593 -0.780922 -0.303037
  H 0.459563 0.969948 -0.276996
  H 3.876075 0.888631 1.385429
  H 3.911643 -0.857503 1.270373
  H 1.914512 -1.002511 2.742971
  H 1.887545 0.764443 2.864366
  H 4.189964 -1.031207 3.749597
  H 3.029184 -0.237506 4.815899
  H 4.161602 0.728917 3.868252
 18
 17.642275
  C 0.885588 0.170003 0.255978
  C 2.332130 0.070404 0.139700
  C 3.229525 0.008527 1.369503
  C 2.528807 -0.113261 2.719026
  C 3.544501 -0.174741 3.855763
  C 2.938845 0.072801 -1.062686
  H 2.383202 0.142645 -1.971433
  H 4.009975 -0.005209 -1.156032
  H 0.461526 0.098684 1.250559
  H 0.936723 -0.759960 -0.280161
  H 0.434095 0.970167 -0.312270
  H 3.842680 0.904875 1.382351
  H 3.908024 -0.831012 1.257591
  H 1.916093 -1.023179 2.739769
  H 1.872764 0.750871 2.877510
  H 4.202848 -1.034909 3.736176
  H 3.039690 -0.260766 4.815807
  H 4.157925 0.726042 3.869999
 18
 31.459072
  C 0.874866 0.209772 0.277498
  C 2.319815 0.072662 0.137945
  C 3.214745 0.011986 1.359086
  C 2.519769 -0.125161 2.714302
  C 3.540311 -0.187549 3.841857
  C 2.936471 0.063556 -1.064660
  H 2.389759 0.145201 -1.981258
  H 3.999886 -0.036374 -1.149276
  H 0.461075 0.188588 1.263953
  H 1.097947 -0.752056 -0.167166
  H 0.394606 0.923434 -0.371601
  H 3.818760 0.925678 1.372485
  H 3.909972 -0.823521 1.241400
  H 1.918982 -1.031080 2.732068
  H 1.864355 0.726440 2.883180
  H 4.200778 -1.038232 3.713152
  H 3.043922 -0.283306 4.800866
  H 4.144286 0.713064 3.858259
 18
 43.013243
  C 0.865826 0.243499 0.287567
  C 2.314145 0.081209 0.131730
  C 3.208031 0.020926 1.354799
  C 2.515580 -0.132864 2.710470
  C 3.540807 -0.205929 3.838270
  C 2.934685 0.060290 -1.079091
  H 2.384874 0.148739 -2.000468
  H 4.000747 -0.056087 -1.162828
  H 0.461505 0.303382 1.272290
  H 1.232847 -0.747623 -0.039116
  H 0.349346 0.837092 -0.452425
  H 3.798065 0.937473 1.370176
  H 3.911656 -0.803803 1.231925
  H 1.916115 -1.038138 2.719858
  H 1.858656 0.714451 2.892163
  H 4.205021 -1.056736 3.699111
  H 3.044612 -0.313140 4.799944
  H 4.145290 0.698639 3.863223
 18
 51.224350
  C 0.861063 0.272128 0.293328
  C 2.313345 0.092980 0.126230
  C 3.206524 0.037095 1.353951
  C 2.513608 -0.135715 2.705842
  C 3.539616 -0.227268 3.831652
  C 2.934423 0.058417 -1.093124
  H 2.380374 0.151326 -2.014486
  H 3.997726 -0.083242 -1.177846
  H 0.462199 0.423222 1.274218
  H 1.349066 -0.736501 0.086325
  H 0.311793 0.721780 -0.516283
  H 3.785156 0.960623 1.375743
  H 3.922004 -0.780082 1.226490
  H 1.909324 -1.044097 2.701941
  H 1.856559 0.712435 2.902331
  H 4.201221 -1.076156 3.680188
  H 3.044654 -0.347085 4.790443
  H 4.145082 0.674284 3.869183
 18
 58.145317
  C 0.866309 0.293230 0.305823
  C 2.313496 0.091264 0.126712
  C 3.205969 0.042560 1.349524
  C 2.513174 -0.140015 2.705013
  C 3.525936 -0.237050 3.807504
  C 2.934222 0.049641 -1.089502
  H 2.387725 0.136679 -2.004255
  H 3.995882 -0.092051 -1.174016
  H 0.472738 0.474280 1.280976
  H 1.437679 -0.720783 0.145401
  H 0.300343 0.670410 -0.520422
  H 3.782369 0.977920 1.372583
  H 3.928089 -0.772093 1.217872
  H 1.909678 -1.047295 2.698538
  H 1.857688 0.705331 2.911335
  H 4.191057 -1.092121 3.644837
  H 3.028499 -0.363961 4.774533
  H 4.134888 0.672433 3.846604
 18
 63.187819
  C 0.859498 0.328529 0.297499
  C 2.308252 0.086728 0.124524
  C 3.208090 0.053183 1.351286
  C 2.516774 -0.143447 2.701077
  C 3.541161 -0.252381 3.822074
  C 2.936736 0.041864 -1.103806
  H 2.383230 0.130243 -2.021414
  H 3.995260 -0.113249 -1.181983
  H 0.455310 0.538100 1.263649
  H 1.494144 -0.714677 0.189728
  H 0.279315 0.611347 -0.560399
  H 3.769138 0.991769 1.376933
  H 3.935738 -0.744724 1.218590
  H 1.908590 -1.056819 2.682742
  H 1.858233 0.700932 2.912812
  H 4.202999 -1.099580 3.656267
  H 3.045301 -0.387400 4.781679
  H 4.146982 0.649428 3.872592
 18
 67.810392
  C 0.859000 0.366737 0.291204
  C 2.303607 0.079496 0.127637
  C 3.208853 0.063870 1.354336
  C 2.520338 -0.149372 2.700847
  C 3.547040 -0.263424 3.822492
  C 2.939783 0.030024 -1.108428
  H 2.386974 0.115312 -2.024497
  H 3.996674 -0.145356 -1.181872
  H 0.440816 0.577595 1.252874
  H 1.536546 -0.711605 0.212318
  H 0.270921 0.584310 -0.578549
  H 3.749422 1.011520 1.382403
  H 3.954033 -0.723213 1.218216
  H 1.918452 -1.064797 2.673427
  H 1.856461 0.687657 2.919745
  H 4.214904 -1.107852 3.648933
  H 3.053384 -0.409167 4.777973
  H 4.148985 0.642412 3.881747
 18
 71.554735
  C 0.864422 0.409037 0.287957
  C 2.300777 0.069538 0.131245
  C 3.210030 0.072438 1.354829
  C 2.524153 -0.158450 2.698960
  C 3.551639 -0.271744 3.821343
  C 2.942941 0.013672 -1.110734
  H 2.390579 0.093998 -2.025703
  H 3.995974 -0.173563 -1.179499
  H 0.435144 0.603498 1.247787
  H 1.573729 -0.721771 0.221509
  H 0.268076 0.581629 -0.584883
  H 3.731475 1.030294 1.384559
  H 3.970870 -0.701397 1.215097
  H 1.931652 -1.078534 2.663733
  H 1.852239 0.668978 2.923725
  H 4.224818 -1.105061 3.642068
  H 3.057876 -0.429868 4.778712
  H 4.145401 0.637432 3.887127
 18
 74.163861
  C 0.874026 0.457756 0.284878
  C 2.296820 0.059001 0.135411
  C 3.209758 0.079835 1.356449
  C 2.527538 -0.169383 2.698718
  C 3.556409 -0.277806 3.820333
  C 2.946386 -0.004267 -1.113772
  H 2.394480 0.072055 -2.028067
  H 3.995678 -0.205143 -1.178175
  H 0.431228 0.619608 1.244767
  H 1.607477 -0.746568 0.221844
  H 0.270059 0.595266 -0.588730
  H 3.712788 1.048454 1.387672
  H 3.983070 -0.678814 1.213345
  H 1.947095 -1.095963 2.656447
  H 1.843847 0.648579 2.929488
  H 4.241596 -1.104242 3.635682
  H 3.064525 -0.447535 4.776158
  H 4.137177 0.636711 3.892478
 18
 75.734010
  C 0.887958 0.511223 0.282200
  C 2.290798 0.047843 0.139862
  C 3.207921 0.084709 1.358047
  C 2.530878 -0.183983 2.698542
  C 3.561607 -0.282806 3.819893
  C 2.949024 -0.022172 -1.116347
  H 2.397298 0.048070 -2.030328
  H 3.994788 -0.239031 -1.175880
  H 0.430443 0.630664 1.242346
  H 1.638141 -0.779913 0.214945
  H 0.277327 0.621649 -0.590530
  H 3.690654 1.063693 1.391469
  H 3.994704 -0.658296 1.210471
  H 1.964802 -1.118841 2.649786
  H 1.834092 0.621523 2.934178
  H 4.258134 -1.097169 3.630888
  H 3.072803 -0.466184 4.774244
  H 4.129449 0.640722 3.896950
 18
 77.305471
  C 0.897945 0.545262 0.277409
  C 2.287168 0.037738 0.142123
  C 3.206167 0.083638 1.359880
  C 2.533927 -0.197259 2.699749
  C 3.567303 -0.289083 3.820084
  C 2.949539 -0.035950 -1.118879
  H 2.397398 0.026016 -2.032532
  H 3.994639 -0.256968 -1.177474
  H 0.430655 0.640684 1.236917
  H 1.671382 -0.803006 0.209788
  H 0.285851 0.640590 -0.596187
  H 3.677305 1.067795 1.394840
  H 4.000588 -0.650041 1.209168
  H 1.977812 -1.138043 2.647602
  H 1.828017 0.600367 2.939658
  H 4.272619 -1.094845 3.627714
  H 3.081762 -0.480100 4.774214
  H 4.125357 0.640457 3.899587
 18
 77.311803
  C 0.917689 0.597686 0.276521
  C 2.277608 0.026277 0.147709
  C 3.203566 0.087984 1.360589
  C 2.537463 -0.214890 2.698015
  C 3.571832 -0.295833 3.818270
  C 2.949688 -0.055870 -1.121031
  H 2.396030 -0.003563 -2.033456
  H 3.990403 -0.293844 -1.173048
  H 0.439823 0.658949 1.235106
  H 1.711077 -0.850757 0.200940
  H 0.299163 0.674985 -0.594948
  H 3.653643 1.081946 1.398806
  H 4.011798 -0.628695 1.203719
  H 1.998977 -1.165279 2.637779
  H 1.816561 0.566448 2.942863
  H 4.291654 -1.087362 3.620565
  H 3.089124 -0.502307 4.770672
  H 4.112586 0.643061 3.904485
