 23
 0.000000
  H 1.552443 0.159622 0.450802
  C 2.633441 0.140113 0.402885
  C 3.353497 0.617798 1.590511
  C 2.442328 1.075573 2.726836
  C 3.250986 1.558335 3.927985
  C 3.207309 -0.327349 -0.760338
  C 4.582890 -0.414935 -0.979803
  C 5.191313 -0.881901 -2.146968
  C 4.477322 -1.361819 -3.347014
  H 3.394846 -1.322949 -3.251222
  O 6.494444 -0.922095 -2.247790
  H 4.020137 1.442368 1.308739
  H 4.019548 -0.172546 1.958599
  H 1.797847 0.250594 3.038147
  H 1.798931 1.887092 2.379659
  H 3.882982 0.762497 4.317068
  H 2.587454 1.880657 4.727716
  H 3.884143 2.401046 3.657688
  H 2.537900 -0.643118 -1.547174
  H 5.242224 -0.096253 -0.183594
  H 4.795451 -2.383085 -3.565548
  H 4.796180 -0.773525 -4.209582
  H 6.982211 -0.606198 -1.460483
 23
 -0.411226
  H 1.570630 0.255110 0.400252
  C 2.648784 0.186816 0.376542
  C 3.360423 0.624162 1.584569
  C 2.443623 1.098276 2.708131
  C 3.243006 1.540608 3.926930
  C 3.228165 -0.299496 -0.773651
  C 4.605879 -0.434849 -0.966026
  C 5.206114 -0.917014 -2.132555
  C 4.470593 -1.405156 -3.314952
  H 3.465097 -1.731228 -3.081809
  O 6.503598 -0.959279 -2.254481
  H 4.058555 1.431260 1.325922
  H 3.994296 -0.190187 1.955525
  H 1.767728 0.292033 2.996406
  H 1.832103 1.933695 2.357642
  H 3.844699 0.722186 4.315270
  H 2.575892 1.870830 4.718563
  H 3.904046 2.367687 3.678921
  H 2.562756 -0.576100 -1.583133
  H 5.257925 -0.130821 -0.158410
  H 5.032633 -2.212717 -3.780671
  H 4.414769 -0.602110 -4.053272
  H 7.011115 -0.620804 -1.491164
 23
 0.551780
  H 1.611696 0.358054 0.333243
  C 2.686380 0.260969 0.335773
  C 3.373511 0.646564 1.573040
  C 2.435036 1.110547 2.683067
  C 3.210523 1.507887 3.936769
  C 3.282873 -0.218666 -0.809050
  C 4.663231 -0.399436 -0.965350
  C 5.233149 -0.951902 -2.116194
  C 4.433138 -1.471230 -3.247712
  H 3.596164 -2.069038 -2.910313
  O 6.515453 -0.906870 -2.339959
  H 4.095303 1.441141 1.358199
  H 3.972028 -0.194792 1.939753
  H 1.736173 0.309805 2.932440
  H 1.850596 1.963851 2.338261
  H 3.787379 0.666709 4.321043
  H 2.526138 1.832258 4.721098
  H 3.895164 2.329634 3.727215
  H 2.639533 -0.427660 -1.649630
  H 5.281501 -0.207119 -0.095107
  H 5.073215 -2.056258 -3.900863
  H 4.040367 -0.638189 -3.831325
  H 7.070732 -0.626351 -1.584302
 23
 12.344067
  H 1.666223 0.102714 0.414050
  C 2.745055 0.118609 0.388658
  C 3.408121 0.637398 1.594346
  C 2.431732 1.110404 2.670512
  C 3.169237 1.601432 3.911292
  C 3.352888 -0.342624 -0.754433
  C 4.764030 -0.436022 -0.921411
  C 5.217302 -1.047759 -2.092126
  C 4.395085 -1.323407 -3.291694
  H 3.489234 -1.876903 -3.074224
  O 6.487088 -0.952010 -2.409082
  H 4.075459 1.463285 1.327655
  H 4.037959 -0.146258 2.023471
  H 1.765486 0.292600 2.951074
  H 1.813162 1.923044 2.279248
  H 3.761836 0.802779 4.354726
  H 2.460772 1.947105 4.660684
  H 3.830932 2.430486 3.668356
  H 2.707025 -0.608741 -1.573797
  H 5.175009 -0.270871 0.064100
  H 5.001846 -1.879236 -4.002069
  H 4.120154 -0.376760 -3.758707
  H 7.100593 -0.914460 -1.657137
 23
 44.029366
  H 1.705679 0.134454 0.389471
  C 2.791261 0.141134 0.385745
  C 3.428703 0.665602 1.606731
  C 2.426647 1.106274 2.668532
  C 3.137822 1.596703 3.923773
  C 3.413212 -0.356109 -0.727408
  C 4.877411 -0.404094 -0.898152
  C 5.139928 -1.107130 -2.070916
  C 4.368874 -1.339245 -3.307425
  H 3.437405 -1.883187 -3.161236
  O 6.417626 -0.942930 -2.448972
  H 4.094538 1.501498 1.366554
  H 4.046086 -0.129312 2.046806
  H 1.782836 0.268618 2.939220
  H 1.794499 1.907536 2.284366
  H 3.750533 0.807198 4.350578
  H 2.419903 1.905004 4.675958
  H 3.788477 2.437910 3.699134
  H 2.785251 -0.695683 -1.532780
  H 5.011407 -0.120383 0.119030
  H 5.005537 -1.892010 -3.991953
  H 4.153877 -0.371460 -3.763751
  H 7.075324 -0.946300 -1.732067
 23
 84.368693
  H 1.632084 0.161412 0.479603
  C 2.715632 0.159222 0.423382
  C 3.404318 0.676687 1.623443
  C 2.450661 1.078205 2.744767
  C 3.213517 1.610518 3.954104
  C 3.257734 -0.321948 -0.719257
  C 4.803398 -0.439065 -0.913739
  C 4.881874 -1.133252 -2.080521
  C 4.501244 -1.380595 -3.471681
  H 3.514351 -1.836083 -3.565892
  O 6.314051 -0.890027 -2.299562
  H 4.020187 1.546208 1.365333
  H 4.084833 -0.091307 2.014547
  H 1.851671 0.219256 3.054711
  H 1.764516 1.853173 2.399786
  H 3.891950 0.860314 4.352076
  H 2.520631 1.887373 4.744780
  H 3.787930 2.496812 3.691810
  H 2.641819 -0.628227 -1.547168
  H 4.866191 -0.060143 0.080514
  H 5.224234 -2.058446 -3.913445
  H 4.522447 -0.433713 -4.009081
  H 6.945270 -0.985030 -1.570999
 23
 109.366260
  H 1.590473 0.547225 0.394187
  C 2.661392 0.372762 0.346171
  C 3.401692 0.698017 1.603462
  C 2.484572 1.192756 2.724426
  C 3.267852 1.507535 3.990718
  C 3.128921 -0.119277 -0.807660
  C 4.720038 -0.485702 -0.944103
  C 4.704936 -1.141273 -2.100623
  C 4.582803 -1.473822 -3.499128
  H 3.541628 -1.736141 -3.760404
  O 6.274650 -1.032659 -2.064065
  H 4.156683 1.467560 1.408611
  H 3.913628 -0.205297 1.956492
  H 1.734867 0.430892 2.949598
  H 1.963911 2.091132 2.395579
  H 3.788114 0.625746 4.360724
  H 2.595186 1.857083 4.772791
  H 4.002826 2.287671 3.811868
  H 2.533102 -0.285348 -1.681121
  H 4.794647 -0.123656 0.086124
  H 5.217269 -2.333550 -3.727768
  H 4.914549 -0.630456 -4.097367
  H 6.815922 -1.218609 -1.279154
 23
 125.914508
  H 1.560484 0.296901 0.468704
  C 2.643963 0.233857 0.368187
  C 3.400209 0.658805 1.582543
  C 2.479252 1.068138 2.735193
  C 3.285962 1.505771 3.952977
  C 3.067124 -0.212071 -0.790435
  C 4.801747 -0.338169 -1.025598
  C 4.688718 -0.999922 -2.117433
  C 4.505698 -1.509770 -3.430493
  H 3.469853 -1.812851 -3.590913
  O 6.409766 -0.639156 -2.077118
  H 4.040962 1.513428 1.341130
  H 4.029729 -0.166947 1.929441
  H 1.840292 0.228010 3.013347
  H 1.837054 1.892100 2.419015
  H 3.927038 0.700025 4.304487
  H 2.622853 1.786327 4.767455
  H 3.910910 2.364431 3.716797
  H 2.477256 -0.502674 -1.634278
  H 4.846927 0.082024 -0.049922
  H 5.143274 -2.382084 -3.571369
  H 4.787227 -0.748923 -4.157897
  H 6.997868 -0.728753 -1.314321
 23
 137.226281
  H 1.564263 0.274251 0.406366
  C 2.647975 0.213906 0.282773
  C 3.415454 0.625406 1.495035
  C 2.504394 1.020897 2.660065
  C 3.322811 1.453758 3.871701
  C 3.022039 -0.215493 -0.884526
  C 4.966426 -0.282283 -1.050334
  C 4.665375 -0.942360 -2.074379
  C 4.291411 -1.504836 -3.306128
  H 3.229160 -1.752225 -3.316471
  O 6.626131 -0.452177 -1.778092
  H 4.051284 1.482363 1.253735
  H 4.049419 -0.202833 1.824663
  H 1.873781 0.175201 2.940101
  H 1.854287 1.844025 2.358117
  H 3.969976 0.647857 4.211424
  H 2.667981 1.727728 4.695031
  H 3.942800 2.315700 3.634043
  H 2.446521 -0.503107 -1.734874
  H 5.103547 0.092891 -0.068803
  H 4.847889 -2.431140 -3.466557
  H 4.516834 -0.815951 -4.121539
  H 7.172836 -0.493221 -0.982779
 23
 119.005262
  H 1.631894 0.281369 0.303621
  C 2.715641 0.172720 0.198568
  C 3.457897 0.588384 1.423005
  C 2.526310 0.990422 2.576304
  C 3.327146 1.426503 3.798486
  C 3.057697 -0.264939 -0.971806
  C 5.230080 -0.292998 -1.014008
  C 4.745720 -0.921396 -2.013752
  C 4.192698 -1.444697 -3.220814
  H 3.107026 -1.537855 -3.209968
  O 6.715394 -0.401548 -1.358219
  H 4.094827 1.445897 1.187733
  H 4.088240 -0.237011 1.773952
  H 1.886645 0.146309 2.847480
  H 1.880149 1.813292 2.259889
  H 3.963922 0.621733 4.154658
  H 2.662693 1.711473 4.609193
  H 3.958114 2.282010 3.562603
  H 2.444897 -0.498095 -1.813668
  H 5.215568 0.002604 0.008934
  H 4.596283 -2.450444 -3.391644
  H 4.480728 -0.807985 -4.064678
  H 7.174197 -0.403487 -0.502880
 23
 88.386130
  H 1.845234 0.291116 0.139688
  C 2.925604 0.186825 0.074522
  C 3.582775 0.574487 1.345896
  C 2.565873 0.925084 2.441581
  C 3.271114 1.339110 3.732270
  C 3.309379 -0.263343 -1.146121
  C 5.406771 -0.251983 -0.947479
  C 4.669834 -0.904604 -1.884615
  C 3.935078 -1.415952 -3.056830
  H 2.871802 -1.291212 -3.077731
  O 6.751221 -0.329365 -1.111809
  H 4.231120 1.449041 1.197344
  H 4.203416 -0.251369 1.727339
  H 1.929238 0.062573 2.644185
  H 1.925753 1.743397 2.104853
  H 3.894950 0.531304 4.112894
  H 2.542457 1.592314 4.500100
  H 3.901099 2.212169 3.567947
  H 2.484059 -0.394968 -1.823593
  H 5.166633 0.074127 0.042713
  H 4.140500 -2.488460 -3.153490
  H 4.361723 -0.969982 -3.958911
  H 7.245615 -0.248456 -0.276378
 23
 47.134236
  H 1.753103 0.264795 0.139985
  C 2.829619 0.126377 0.084697
  C 3.489817 0.520446 1.342053
  C 2.485260 1.014824 2.387882
  C 3.182552 1.407022 3.690376
  C 3.221407 -0.453488 -1.096472
  C 5.428931 -0.470605 -0.849020
  C 4.498996 -0.995550 -1.711605
  C 4.104261 -1.176900 -3.128719
  H 3.120995 -0.816901 -3.370507
  O 6.733375 -0.654390 -1.072720
  H 4.179793 1.346163 1.149808
  H 4.046147 -0.315200 1.772261
  H 1.748942 0.234425 2.598535
  H 1.931755 1.872167 2.000408
  H 3.711457 0.566312 4.121887
  H 2.458158 1.770375 4.416749
  H 3.900903 2.210124 3.514804
  H 2.378288 -0.613446 -1.755928
  H 5.198525 -0.079412 0.116244
  H 4.162721 -2.231983 -3.400550
  H 4.835250 -0.678149 -3.771246
  H 7.309059 -0.589462 -0.297571
 23
 13.011470
  H 1.524102 0.220879 0.224736
  C 2.592412 0.055645 0.144025
  C 3.347658 0.483822 1.333815
  C 2.446672 1.010156 2.453986
  C 3.272718 1.461852 3.655858
  C 2.993976 -0.476160 -1.053353
  C 5.416854 -0.490654 -0.877285
  C 4.269677 -0.843297 -1.576530
  C 4.302586 -1.115381 -3.035676
  H 3.475948 -0.644252 -3.555762
  O 6.607864 -0.714929 -1.339168
  H 4.052512 1.281963 1.062815
  H 3.939540 -0.347644 1.724239
  H 1.760870 0.219291 2.767664
  H 1.853452 1.850406 2.088776
  H 3.862811 0.637660 4.049812
  H 2.621974 1.813091 4.454067
  H 3.949428 2.271955 3.384996
  H 2.185919 -0.629248 -1.758100
  H 5.328549 -0.076851 0.115660
  H 4.227904 -2.193723 -3.211884
  H 5.254676 -0.807850 -3.462996
  H 7.335609 -0.735366 -0.685293
 23
 6.790818
  H 1.481356 0.325471 0.198866
  C 2.549974 0.174517 0.105755
  C 3.320241 0.542039 1.305689
  C 2.438033 0.993888 2.470310
  C 3.278763 1.376446 3.683632
  C 2.962335 -0.332886 -1.098208
  C 5.431029 -0.409816 -0.904311
  C 4.247007 -0.662181 -1.596663
  C 4.336966 -1.239833 -2.960910
  H 3.534998 -0.882925 -3.599231
  O 6.577831 -0.755684 -1.406417
  H 4.011417 1.357937 1.063883
  H 3.930365 -0.305643 1.635611
  H 1.755348 0.188447 2.747173
  H 1.834897 1.851359 2.166743
  H 3.874214 0.532878 4.025472
  H 2.638858 1.688759 4.504940
  H 3.948401 2.200706 3.448619
  H 2.164461 -0.535097 -1.801999
  H 5.401817 0.068612 0.064336
  H 4.252083 -2.326981 -2.904187
  H 5.301524 -1.022309 -3.412253
  H 7.351792 -0.596337 -0.832445
 23
 6.595050
  H 1.474255 0.375810 0.195197
  C 2.539606 0.204119 0.103149
  C 3.316722 0.544006 1.306156
  C 2.445770 1.023652 2.468048
  C 3.294421 1.374602 3.685418
  C 2.944159 -0.305675 -1.100715
  C 5.414507 -0.461168 -0.893522
  C 4.223498 -0.649376 -1.599527
  C 4.333567 -1.241500 -2.956740
  H 3.388747 -1.231222 -3.487837
  O 6.550510 -0.793138 -1.425813
  H 4.039678 1.333161 1.069871
  H 3.891452 -0.328192 1.636487
  H 1.734237 0.242080 2.740595
  H 1.874620 1.902315 2.163252
  H 3.861104 0.510997 4.026139
  H 2.662224 1.704723 4.505710
  H 3.990933 2.177773 3.455557
  H 2.145372 -0.489913 -1.807712
  H 5.392365 -0.029208 0.097108
  H 4.684570 -2.271850 -2.879813
  H 5.089640 -0.714400 -3.537931
  H 7.331755 -0.646228 -0.858669
