 23
 0.000000
  C 0.979265 0.147860 0.426606
  C 2.453508 0.134074 0.391492
  C 3.235448 0.601112 1.551221
  H 2.633382 0.937684 2.385490
  C 3.054384 -0.332855 -0.772193
  C 4.431166 -0.416063 -0.980794
  C 5.118565 -0.865182 -2.103565
  C 4.628428 -1.387109 -3.408308
  C 3.140200 -1.504072 -3.700929
  H 3.002882 -1.903340 -4.699276
  O 6.439319 -0.857126 -2.083991
  H 0.582990 0.520279 1.366405
  H 0.591959 -0.858790 0.263004
  H 0.585182 0.765832 -0.382371
  H 3.889566 1.419577 1.243519
  H 3.888765 -0.202482 1.897425
  H 2.390035 -0.648235 -1.557711
  H 5.053113 -0.085794 -0.156984
  H 5.091211 -2.372757 -3.532204
  H 5.091379 -0.758993 -4.177844
  H 2.657438 -0.530804 -3.660220
  H 2.657386 -2.180860 -3.000336
  H 6.822060 -0.524518 -1.250433
 23
 3.236501
  C 0.981667 0.128928 0.481478
  C 2.432406 0.132562 0.393524
  C 3.228154 0.604160 1.544379
  H 2.593325 0.944459 2.354467
  C 3.022469 -0.333520 -0.776404
  C 4.411624 -0.409950 -0.983475
  C 5.113376 -0.860499 -2.109830
  C 4.630770 -1.388527 -3.416865
  C 3.145182 -1.513152 -3.713489
  H 3.029007 -1.917295 -4.715806
  O 6.433297 -0.844989 -2.084891
  H 0.585086 0.523880 1.403675
  H 0.539819 -0.841374 0.275819
  H 0.787429 0.769628 -0.354582
  H 3.894266 1.416831 1.255775
  H 3.864130 -0.200170 1.914698
  H 2.353809 -0.651280 -1.558180
  H 5.037661 -0.077284 -0.161778
  H 5.104068 -2.369851 -3.535005
  H 5.098443 -0.760306 -4.183443
  H 2.651936 -0.545555 -3.690198
  H 2.657612 -2.197236 -3.024650
  H 6.822982 -0.510889 -1.255261
 23
 8.764474
  C 0.976478 0.097172 0.498519
  C 2.428963 0.122346 0.403004
  C 3.233723 0.605043 1.538492
  H 2.602881 0.972929 2.339262
  C 3.024325 -0.339129 -0.777089
  C 4.397882 -0.400989 -0.984772
  C 5.097555 -0.846141 -2.102497
  C 4.622149 -1.386215 -3.412427
  C 3.138475 -1.526823 -3.712139
  H 3.031609 -1.934799 -4.707553
  O 6.415373 -0.816396 -2.076673
  H 0.556444 0.482670 1.418587
  H 0.498033 -0.809703 0.184390
  H 0.985970 0.807984 -0.320811
  H 3.923969 1.394903 1.243856
  H 3.836193 -0.218486 1.928537
  H 2.362872 -0.666625 -1.554822
  H 5.020597 -0.062856 -0.167513
  H 5.105522 -2.363386 -3.524313
  H 5.085567 -0.756059 -4.180081
  H 2.634948 -0.562934 -3.699169
  H 2.655408 -2.215947 -3.023529
  H 6.796421 -0.476697 -1.251460
 23
 16.100728
  C 0.971713 0.076614 0.506669
  C 2.424218 0.116707 0.390175
  C 3.230124 0.612050 1.533060
  H 2.598578 0.991110 2.329934
  C 3.020709 -0.342481 -0.788918
  C 4.396289 -0.399086 -0.992176
  C 5.094411 -0.841508 -2.102514
  C 4.620354 -1.383777 -3.406418
  C 3.135727 -1.526394 -3.698842
  H 3.022764 -1.939838 -4.699348
  O 6.412271 -0.809052 -2.080662
  H 0.545600 0.450466 1.420277
  H 0.460244 -0.798098 0.131666
  H 1.131952 0.810246 -0.274933
  H 3.928931 1.392591 1.240056
  H 3.816486 -0.215519 1.929842
  H 2.361254 -0.677188 -1.570019
  H 5.016295 -0.057579 -0.173110
  H 5.104556 -2.360785 -3.517514
  H 5.080177 -0.754513 -4.177174
  H 2.633120 -0.564395 -3.685589
  H 2.658080 -2.212929 -3.006699
  H 6.792026 -0.466058 -1.254757
 23
 22.568715
  C 0.961067 0.060479 0.531635
  C 2.421318 0.119079 0.385018
  C 3.221861 0.619701 1.530451
  H 2.585393 1.005029 2.319741
  C 3.014819 -0.340072 -0.793198
  C 4.394583 -0.396985 -0.996523
  C 5.095419 -0.841313 -2.107153
  C 4.623077 -1.386214 -3.412392
  C 3.139152 -1.529647 -3.707238
  H 3.029064 -1.943980 -4.705193
  O 6.419265 -0.808286 -2.083686
  H 0.522830 0.428836 1.447552
  H 0.427565 -0.787915 0.129705
  H 1.247829 0.813158 -0.246177
  H 3.927179 1.397213 1.236778
  H 3.802659 -0.208920 1.938159
  H 2.353938 -0.676988 -1.572756
  H 5.014796 -0.054233 -0.176068
  H 5.107269 -2.362696 -3.520723
  H 5.083687 -0.758185 -4.182603
  H 2.635547 -0.566738 -3.696868
  H 2.659678 -2.215949 -3.014346
  H 6.799133 -0.463495 -1.255778
 23
 27.022691
  C 0.966877 0.041557 0.559011
  C 2.406315 0.127906 0.390245
  C 3.219558 0.626645 1.529134
  H 2.589183 1.020364 2.323327
  C 3.010699 -0.337556 -0.796834
  C 4.381643 -0.390364 -0.998578
  C 5.087018 -0.836764 -2.105835
  C 4.627678 -1.391641 -3.416576
  C 3.146117 -1.544354 -3.722796
  H 3.045490 -1.967386 -4.727407
  O 6.408813 -0.798261 -2.078053
  H 0.534308 0.377718 1.478342
  H 0.408956 -0.740623 0.065916
  H 1.338454 0.856810 -0.155762
  H 3.928807 1.394103 1.231000
  H 3.785156 -0.208722 1.934207
  H 2.352041 -0.684066 -1.571922
  H 4.999442 -0.043187 -0.179533
  H 5.117224 -2.366967 -3.516452
  H 5.090726 -0.763869 -4.186477
  H 2.638888 -0.585374 -3.720978
  H 2.666038 -2.229092 -3.031180
  H 6.773577 -0.452505 -1.256826
 23
 29.395125
  C 0.964758 0.014948 0.558317
  C 2.400015 0.129481 0.375486
  C 3.216774 0.628844 1.520270
  H 2.588967 1.028464 2.310933
  C 3.006727 -0.342735 -0.806954
  C 4.383325 -0.388891 -1.006830
  C 5.088398 -0.834530 -2.108112
  C 4.628206 -1.394150 -3.413623
  C 3.145697 -1.549570 -3.710039
  H 3.040051 -1.972327 -4.705058
  O 6.418069 -0.790745 -2.082706
  H 0.530895 0.311918 1.497737
  H 0.395645 -0.685609 -0.022003
  H 1.410891 0.902775 -0.076569
  H 3.932073 1.394344 1.220245
  H 3.775433 -0.213404 1.930963
  H 2.347555 -0.699635 -1.579653
  H 4.999783 -0.034162 -0.189470
  H 5.118325 -2.368418 -3.511696
  H 5.085832 -0.767786 -4.186647
  H 2.636704 -0.589758 -3.707377
  H 2.670749 -2.233950 -3.012667
  H 6.784894 -0.438846 -1.254108
 23
 31.853375
  C 0.973663 0.004937 0.588156
  C 2.394742 0.135998 0.384888
  C 3.209125 0.638253 1.518421
  H 2.580647 1.042749 2.306896
  C 3.002476 -0.340455 -0.803971
  C 4.372399 -0.386340 -1.004128
  C 5.087505 -0.836904 -2.111485
  C 4.638419 -1.400852 -3.425303
  C 3.154381 -1.561374 -3.738487
  H 3.059683 -1.987176 -4.739697
  O 6.410192 -0.791534 -2.077832
  H 0.548406 0.277427 1.541458
  H 0.378588 -0.650876 -0.048021
  H 1.473311 0.928168 0.000598
  H 3.913606 1.398789 1.208976
  H 3.773182 -0.194733 1.935840
  H 2.342206 -0.697648 -1.569269
  H 4.986275 -0.031204 -0.186947
  H 5.132644 -2.375814 -3.517573
  H 5.102553 -0.772824 -4.195273
  H 2.641182 -0.600397 -3.741476
  H 2.672747 -2.248851 -3.043680
  H 6.772700 -0.436170 -1.239752
 23
 33.491765
  C 0.970672 -0.026370 0.567433
  C 2.391797 0.132692 0.365836
  C 3.207242 0.640805 1.506468
  H 2.569721 1.048246 2.299630
  C 3.007258 -0.344934 -0.816920
  C 4.384142 -0.386597 -1.010600
  C 5.093885 -0.836420 -2.108600
  C 4.632908 -1.398081 -3.412621
  C 3.151345 -1.546463 -3.701488
  H 3.037861 -1.971825 -4.699189
  O 6.432016 -0.794757 -2.080982
  H 0.530861 0.222542 1.526692
  H 0.386320 -0.624561 -0.100237
  H 1.518231 0.930025 0.020642
  H 3.916392 1.415412 1.190291
  H 3.779498 -0.191436 1.931476
  H 2.344458 -0.710544 -1.592455
  H 4.999003 -0.027122 -0.189169
  H 5.117365 -2.373161 -3.508651
  H 5.090019 -0.775981 -4.186708
  H 2.648655 -0.585908 -3.696461
  H 2.677797 -2.225461 -3.001265
  H 6.792228 -0.446507 -1.260250
 23
 35.350143
  C 0.963939 -0.034326 0.590352
  C 2.386456 0.145129 0.376034
  C 3.223250 0.656444 1.527471
  H 2.600473 1.059480 2.316047
  C 2.996334 -0.340570 -0.811578
  C 4.368502 -0.384303 -1.009317
  C 5.085594 -0.837478 -2.109573
  C 4.643030 -1.404034 -3.424392
  C 3.160085 -1.563686 -3.743750
  H 3.070268 -1.986021 -4.736505
  O 6.409098 -0.792757 -2.070377
  H 0.531163 0.203764 1.536461
  H 0.370770 -0.605127 -0.101850
  H 1.550451 0.942105 0.058626
  H 3.926534 1.428710 1.207909
  H 3.798491 -0.174360 1.948823
  H 2.335150 -0.701128 -1.575474
  H 4.980161 -0.024061 -0.193802
  H 5.136397 -2.379616 -3.512083
  H 5.110831 -0.777373 -4.193155
  H 2.646995 -0.601241 -3.749018
  H 2.674887 -2.251303 -3.050454
  H 6.766350 -0.436420 -1.230378
 23
 37.004328
  C 0.971316 -0.056627 0.569620
  C 2.390560 0.148183 0.360741
  C 3.215234 0.652385 1.515366
  H 2.585067 1.052143 2.302469
  C 3.015715 -0.340611 -0.824547
  C 4.381429 -0.379830 -1.011041
  C 5.099368 -0.837760 -2.113459
  C 4.642592 -1.399705 -3.409965
  C 3.152734 -1.545855 -3.698056
  H 3.036981 -1.972106 -4.696397
  O 6.430061 -0.798866 -2.086083
  H 0.522251 0.178271 1.522295
  H 0.389646 -0.599806 -0.141315
  H 1.590349 0.938760 0.054462
  H 3.911433 1.420930 1.204510
  H 3.781719 -0.166316 1.931623
  H 2.354510 -0.708929 -1.604638
  H 4.991296 -0.015211 -0.191685
  H 5.127554 -2.380648 -3.503342
  H 5.103516 -0.776914 -4.189293
  H 2.649337 -0.578856 -3.692607
  H 2.676166 -2.227253 -2.992680
  H 6.793934 -0.444596 -1.254588
 23
 38.632615
  C 0.971312 -0.059807 0.587142
  C 2.383840 0.159131 0.367813
  C 3.227072 0.656889 1.530538
  H 2.600868 1.062923 2.326808
  C 3.001502 -0.337195 -0.818228
  C 4.364300 -0.378917 -1.009267
  C 5.086301 -0.837093 -2.112471
  C 4.646066 -1.403557 -3.419682
  C 3.168096 -1.562937 -3.732778
  H 3.073210 -1.990332 -4.739351
  O 6.409481 -0.791459 -2.075808
  H 0.522855 0.176161 1.543954
  H 0.385838 -0.577517 -0.135883
  H 1.620893 0.952679 0.074606
  H 3.937569 1.430821 1.212303
  H 3.791452 -0.168960 1.944172
  H 2.341313 -0.698336 -1.586372
  H 4.977083 -0.007186 -0.188720
  H 5.138736 -2.379599 -3.505469
  H 5.111908 -0.775900 -4.190742
  H 2.658588 -0.605296 -3.733173
  H 2.689166 -2.246909 -3.039744
  H 6.767336 -0.432633 -1.235437
 23
 39.962614
  C 0.965584 -0.076036 0.589758
  C 2.391163 0.170958 0.364278
  C 3.223993 0.653759 1.517633
  H 2.601669 1.052479 2.303628
  C 3.013523 -0.330407 -0.822719
  C 4.387322 -0.372774 -1.015316
  C 5.099670 -0.831563 -2.105890
  C 4.647292 -1.401886 -3.410901
  C 3.163001 -1.554858 -3.713303
  H 3.059410 -1.980687 -4.708721
  O 6.435407 -0.788796 -2.071066
  H 0.516335 0.158963 1.534119
  H 0.371962 -0.582644 -0.153855
  H 1.650661 0.969971 0.073354
  H 3.926718 1.422174 1.206634
  H 3.788512 -0.178140 1.930176
  H 2.353108 -0.694983 -1.588883
  H 4.998333 -0.002405 -0.203399
  H 5.135166 -2.380764 -3.497819
  H 5.111150 -0.780774 -4.187430
  H 2.656567 -0.592514 -3.713556
  H 2.684017 -2.236340 -3.013947
  H 6.793209 -0.431866 -1.242356
 23
 41.308476
  C 0.965085 -0.095145 0.595856
  C 2.391197 0.185291 0.361099
  C 3.228711 0.659171 1.522711
  H 2.604075 1.052039 2.315493
  C 3.014924 -0.318428 -0.827787
  C 4.384170 -0.361276 -1.019493
  C 5.100376 -0.830931 -2.111392
  C 4.649549 -1.405979 -3.411548
  C 3.171237 -1.551993 -3.717067
  H 3.069382 -1.983196 -4.708336
  O 6.432838 -0.797144 -2.073016
  H 0.514058 0.141386 1.536299
  H 0.373372 -0.591998 -0.152828
  H 1.672937 0.980874 0.073166
  H 3.929700 1.435610 1.216588
  H 3.797266 -0.177178 1.928616
  H 2.352829 -0.688465 -1.592262
  H 4.995903 0.004545 -0.205385
  H 5.130255 -2.384305 -3.490177
  H 5.117562 -0.794625 -4.187211
  H 2.671632 -0.589830 -3.725997
  H 2.687473 -2.224155 -3.017800
  H 6.792768 -0.436703 -1.242529
