 20
 0.000000
  H 1.431268 0.161160 0.452095
  C 2.505555 0.137758 0.393601
  H 3.090073 0.474451 1.231841
  C 3.061114 -0.327463 -0.765077
  C 4.443968 -0.412524 -0.977219
  C 5.127165 -0.869397 -2.116242
  C 4.606016 -1.386119 -3.404073
  C 3.115521 -1.501593 -3.692746
  C 2.902025 -2.064919 -5.096019
  O 6.434511 -0.866093 -2.108364
  H 2.390139 -0.641157 -1.546388
  H 5.065205 -0.081014 -0.151345
  H 5.064863 -2.373958 -3.537892
  H 5.065499 -0.765305 -4.183718
  H 2.639358 -0.521801 -3.642304
  H 2.638888 -2.174315 -2.978920
  H 3.343800 -1.417496 -5.849518
  H 1.839525 -2.149839 -5.308244
  H 3.343464 -3.053851 -5.192539
  H 6.849159 -0.536668 -1.286298
 20
 0.588796
  H 1.446269 0.296045 0.422497
  C 2.510165 0.203133 0.293609
  H 3.130867 0.803946 0.937287
  C 3.042295 -0.564268 -0.695707
  C 4.429515 -0.564341 -0.927613
  C 5.128538 -0.929945 -2.085749
  C 4.609275 -1.452568 -3.371469
  C 3.117200 -1.529805 -3.666298
  C 2.895432 -1.976276 -5.110094
  O 6.422664 -0.756594 -2.127119
  H 2.385596 -1.146176 -1.317425
  H 5.030367 -0.144112 -0.127784
  H 5.044032 -2.454875 -3.489955
  H 5.101187 -0.865418 -4.157691
  H 2.653607 -0.551164 -3.528083
  H 2.630573 -2.253592 -3.011782
  H 3.342337 -1.274421 -5.810597
  H 1.831657 -2.034050 -5.326733
  H 3.327556 -2.958766 -5.287082
  H 6.844135 -0.460386 -1.296129
 20
 3.974127
  H 1.425850 0.320345 0.131717
  C 2.493050 0.188406 0.118846
  H 3.072357 0.925057 0.654440
  C 3.092771 -0.773685 -0.620248
  C 4.483019 -0.664777 -0.868414
  C 5.152089 -0.923787 -2.063931
  C 4.607145 -1.458615 -3.334724
  C 3.114499 -1.429166 -3.641383
  C 2.870095 -1.892607 -5.074660
  O 6.414648 -0.613533 -2.180174
  H 2.506762 -1.544836 -1.090267
  H 5.067255 -0.208629 -0.075567
  H 4.954506 -2.499030 -3.403525
  H 5.148292 -0.939544 -4.134098
  H 2.733489 -0.413060 -3.528013
  H 2.558247 -2.086566 -2.977291
  H 3.384924 -1.252418 -5.787793
  H 1.807772 -1.862700 -5.303101
  H 3.215886 -2.913137 -5.219816
  H 6.863898 -0.327194 -1.359606
 20
 10.911058
  H 1.455886 0.329908 -0.328672
  C 2.495214 0.130891 -0.123867
  H 3.012325 0.897033 0.433362
  C 3.131136 -0.971432 -0.569035
  C 4.516957 -0.737739 -0.806954
  C 5.165097 -0.914466 -2.019900
  C 4.605296 -1.426748 -3.297962
  C 3.112752 -1.328083 -3.603748
  C 2.838008 -1.849541 -5.011204
  O 6.417546 -0.560172 -2.161328
  H 2.618894 -1.849714 -0.921442
  H 5.083728 -0.302601 0.008567
  H 4.907967 -2.480067 -3.368456
  H 5.159757 -0.915665 -4.092006
  H 2.798654 -0.284371 -3.546876
  H 2.517470 -1.909195 -2.906036
  H 3.395746 -1.284783 -5.754757
  H 1.780600 -1.760396 -5.245920
  H 3.115124 -2.897056 -5.099404
  H 6.870485 -0.257997 -1.349399
 20
 23.109369
  H 1.608661 0.327283 -0.817352
  C 2.551976 0.057997 -0.360689
  H 2.947910 0.816148 0.298738
  C 3.133521 -1.158147 -0.526745
  C 4.483750 -0.739233 -0.763965
  C 5.141227 -0.878855 -1.966955
  C 4.605376 -1.400815 -3.255858
  C 3.118484 -1.247381 -3.578211
  C 2.828555 -1.805742 -4.968697
  O 6.411937 -0.527951 -2.078059
  H 2.675998 -2.075016 -0.855452
  H 5.038573 -0.340247 0.074802
  H 4.875832 -2.461728 -3.307112
  H 5.184478 -0.910437 -4.043949
  H 2.850671 -0.191353 -3.560559
  H 2.499058 -1.777383 -2.861991
  H 3.417195 -1.292126 -5.726458
  H 1.777872 -1.678416 -5.216083
  H 3.061564 -2.866904 -5.017869
  H 6.842049 -0.217785 -1.253353
 20
 33.585300
  H 1.978224 0.368055 -1.188561
  C 2.769396 0.018308 -0.528682
  H 3.091288 0.769462 0.177213
  C 3.105890 -1.312770 -0.450713
  C 4.409224 -0.737701 -0.737794
  C 5.092093 -0.818062 -1.960409
  C 4.582349 -1.334603 -3.258276
  C 3.086884 -1.244521 -3.552513
  C 2.793723 -1.803658 -4.941029
  O 6.347205 -0.432645 -2.036601
  H 2.635610 -2.233406 -0.720329
  H 4.982303 -0.363496 0.103175
  H 4.898747 -2.382069 -3.332991
  H 5.132691 -0.805451 -4.040975
  H 2.769876 -0.201134 -3.519338
  H 2.509566 -1.810129 -2.824329
  H 3.342668 -1.257700 -5.704974
  H 1.733455 -1.722157 -5.165856
  H 3.073310 -2.852388 -5.005137
  H 6.751357 -0.126620 -1.201947
 20
 29.822891
  H 2.242555 0.358483 -1.371727
  C 2.897334 -0.001037 -0.581826
  H 3.040352 0.728659 0.206530
  C 3.122127 -1.385269 -0.396959
  C 4.377872 -0.694814 -0.727981
  C 5.070329 -0.775653 -1.971828
  C 4.557410 -1.302349 -3.257127
  C 3.062172 -1.221286 -3.557115
  C 2.774916 -1.814539 -4.932630
  O 6.315249 -0.403871 -2.042487
  H 2.685835 -2.312451 -0.692015
  H 4.987378 -0.357180 0.107061
  H 4.871632 -2.353266 -3.307356
  H 5.111506 -0.794412 -4.050108
  H 2.741890 -0.177394 -3.551978
  H 2.484777 -1.768884 -2.816338
  H 3.323414 -1.285824 -5.707262
  H 1.714871 -1.740968 -5.161721
  H 3.056791 -2.864032 -4.971444
  H 6.730400 -0.096654 -1.213112
 20
 27.932152
  H 2.337245 0.297021 -1.389027
  C 2.923020 -0.056750 -0.550794
  H 2.867824 0.609966 0.298277
  C 3.188126 -1.441010 -0.381138
  C 4.381091 -0.633804 -0.722705
  C 5.059677 -0.729004 -1.978375
  C 4.534219 -1.312175 -3.233063
  C 3.056091 -1.144854 -3.590361
  C 2.768905 -1.815806 -4.930451
  O 6.296994 -0.367129 -2.069780
  H 2.798873 -2.361973 -0.747514
  H 5.023364 -0.348667 0.104754
  H 4.750844 -2.386703 -3.177952
  H 5.155293 -0.929233 -4.050162
  H 2.815016 -0.085216 -3.672820
  H 2.414473 -1.595278 -2.834642
  H 3.363655 -1.373207 -5.726301
  H 1.720653 -1.697526 -5.192648
  H 2.988556 -2.879624 -4.889276
  H 6.724892 -0.011768 -1.263445
 20
 27.683574
  H 2.262034 0.210437 -1.374495
  C 2.893488 -0.095877 -0.547613
  H 2.809358 0.567658 0.302701
  C 3.253650 -1.456714 -0.364010
  C 4.381908 -0.570052 -0.735728
  C 5.059853 -0.719123 -1.987371
  C 4.523297 -1.367169 -3.205476
  C 3.059406 -1.127829 -3.593307
  C 2.770423 -1.773068 -4.945377
  O 6.302314 -0.381766 -2.095044
  H 2.926764 -2.405640 -0.723487
  H 5.014969 -0.216777 0.073327
  H 4.672243 -2.446229 -3.071193
  H 5.171865 -1.076297 -4.035607
  H 2.869894 -0.057268 -3.668172
  H 2.384317 -1.557387 -2.856737
  H 3.406868 -1.355327 -5.723093
  H 1.736926 -1.601294 -5.229729
  H 2.936163 -2.846552 -4.908292
  H 6.733071 0.013534 -1.308719
