17

H 1.4340109603810487 -0.07429240152765272 0.04221230304180121
C 2.503867 -0.082259 0.026573
C 3.219102 -0.595283 -0.980579
C 4.656991 -0.60653 -1.002657
C 5.376423 -1.122096 -2.014796
C 6.814811 -1.131582 -2.033419
C 7.534336 -1.64294 -3.03731
C 9.024562 -1.660993 -3.072746
H 3.004661 0.353146 0.881349
H 2.707261 -1.028644 -1.831329
H 5.162404 -0.171783 -0.149182
H 4.872332 -1.55711 -2.868806
H 7.320919 -0.696878 -1.180024
H 7.03796 -2.079871 -3.895062
H 9.456629 -1.207403 -2.182276
H 9.384795 -1.114713 -3.945992
H 9.3848 -2.688551 -3.144315
