 17
 0.000000
  H 1.434013 -0.076415 0.038044
  C 2.507134 -0.083316 0.024498
  C 3.219821 -0.594151 -0.978358
  C 4.657029 -0.605952 -1.001522
  C 5.377027 -1.121427 -2.013484
  C 6.814619 -1.131646 -2.033543
  C 7.534224 -1.642474 -3.036393
  C 9.023436 -1.661107 -3.072967
  H 3.004623 0.351750 0.878609
  H 2.709093 -1.027524 -1.829131
  H 5.162223 -0.171462 -0.148552
  H 4.872896 -1.556193 -2.867005
  H 7.320225 -0.697150 -1.180557
  H 7.037879 -2.079202 -3.893748
  H 9.454434 -1.207688 -2.182832
  H 9.383594 -1.115708 -3.946186
  H 9.383596 -2.688117 -3.145232
 17
 3.139244
  H 1.405594 -0.146900 -0.085735
  C 2.480667 -0.119262 -0.034891
  C 3.246946 -0.607543 -1.006094
  C 4.678917 -0.591369 -0.978700
  C 5.456718 -1.086966 -1.965033
  C 6.890250 -1.059147 -1.906613
  C 7.544922 -1.590047 -2.934306
  C 9.004905 -1.704404 -3.149806
  H 2.908173 0.326939 0.848672
  H 2.791231 -1.049945 -1.881944
  H 5.138698 -0.149543 -0.104821
  H 4.996883 -1.529290 -2.834729
  H 7.369348 -0.619505 -1.047850
  H 6.844025 -1.966175 -3.665079
  H 9.553944 -1.274489 -2.314230
  H 9.293721 -1.188252 -4.067208
  H 9.290467 -2.752114 -3.260443
 17
 13.366628
  H 1.366703 -0.245367 -0.243693
  C 2.433138 -0.179475 -0.123164
  C 3.276784 -0.627264 -1.048700
  C 4.712761 -0.561149 -0.930841
  C 5.561521 -1.015128 -1.871186
  C 7.003350 -0.972489 -1.777464
  C 7.548987 -1.540192 -2.842882
  C 8.959376 -1.764203 -3.242876
  H 2.785231 0.269013 0.788593
  H 2.891430 -1.074408 -1.957061
  H 5.098713 -0.114570 -0.026910
  H 5.120558 -1.455562 -2.748751
  H 7.495305 -0.530401 -0.922097
  H 6.666771 -1.831702 -3.402120
  H 9.635759 -1.372788 -2.494821
  H 9.163523 -1.279163 -4.192457
  H 9.150923 -2.824930 -3.372167
 17
 29.666901
  H 1.350475 -0.271034 -0.324571
  C 2.412173 -0.200827 -0.171867
  C 3.289677 -0.640982 -1.079555
  C 4.729302 -0.564240 -0.919432
  C 5.612346 -1.015852 -1.841175
  C 7.057595 -0.932802 -1.697351
  C 7.565579 -1.517245 -2.794855
  C 8.943192 -1.790665 -3.299570
  H 2.731910 0.245865 0.753592
  H 2.932947 -1.089141 -2.008851
  H 5.083424 -0.117787 0.012056
  H 5.136411 -1.433348 -2.721323
  H 7.530815 -0.479840 -0.838089
  H 6.562158 -1.741798 -3.204932
  H 9.692716 -1.416137 -2.599698
  H 9.090705 -1.311251 -4.277757
  H 9.093856 -2.870305 -3.437390
 17
 50.869768
  H 1.357552 -0.260054 -0.374552
  C 2.419443 -0.197927 -0.210847
  C 3.295359 -0.657050 -1.102687
  C 4.726569 -0.585244 -0.933747
  C 5.616399 -1.061790 -1.841982
  C 7.088344 -0.941874 -1.655330
  C 7.569842 -1.510351 -2.767312
  C 8.939683 -1.781948 -3.323014
  H 2.753220 0.283791 0.753700
  H 2.930745 -1.126416 -2.049016
  H 5.077769 -0.127961 0.002170
  H 5.111784 -1.462883 -2.712766
  H 7.538814 -0.491133 -0.804837
  H 6.475449 -1.682341 -3.049571
  H 9.703519 -1.423337 -2.664435
  H 9.053950 -1.300209 -4.292668
  H 9.078636 -2.849708 -3.474433
 17
 75.521639
  H 1.378615 -0.307448 -0.388051
  C 2.442477 -0.220026 -0.232342
  C 3.327336 -0.669349 -1.121374
  C 4.752309 -0.579702 -0.958432
  C 5.650567 -1.044546 -1.870672
  C 7.089858 -0.928990 -1.646447
  C 7.543142 -1.504313 -2.767241
  C 8.887781 -1.791806 -3.318988
  H 2.755767 0.245250 0.682994
  H 2.977551 -1.132000 -2.026493
  H 5.092120 -0.120113 -0.045931
  H 5.100315 -1.451685 -2.723756
  H 7.535653 -0.486576 -0.781740
  H 6.425691 -1.584065 -2.928756
  H 9.688335 -1.452734 -2.653793
  H 9.001166 -1.303168 -4.285197
  H 8.996108 -2.863079 -3.483812
 17
 97.614960
  H 1.378868 -0.283891 -0.373801
  C 2.440197 -0.196850 -0.235367
  C 3.313589 -0.677036 -1.123575
  C 4.742103 -0.595521 -0.976931
  C 5.635592 -1.088256 -1.892619
  C 7.097133 -0.968623 -1.650919
  C 7.533230 -1.521753 -2.804926
  C 8.902733 -1.774669 -3.321963
  H 2.766753 0.292600 0.663571
  H 2.946459 -1.168115 -2.022574
  H 5.096681 -0.106635 -0.075788
  H 5.033834 -1.500100 -2.708784
  H 7.557623 -0.541898 -0.772562
  H 6.338262 -1.540271 -2.878241
  H 9.680480 -1.454249 -2.621735
  H 9.044601 -1.247002 -4.267883
  H 9.029303 -2.840957 -3.522613
 17
 116.298855
  H 1.396334 -0.214702 -0.365000
  C 2.451508 -0.163472 -0.232251
  C 3.301060 -0.673755 -1.125002
  C 4.737056 -0.624974 -0.995962
  C 5.612458 -1.150999 -1.910022
  C 7.078465 -1.021304 -1.673181
  C 7.522944 -1.548457 -2.845979
  C 8.920068 -1.736905 -3.310839
  H 2.803864 0.337505 0.667559
  H 2.912849 -1.158322 -2.010432
  H 5.109559 -0.143764 -0.112829
  H 4.979014 -1.582574 -2.716646
  H 7.533265 -0.592750 -0.789498
  H 6.244740 -1.559154 -2.833975
  H 9.654507 -1.395942 -2.580534
  H 9.074044 -1.188641 -4.249793
  H 9.094973 -2.797075 -3.522291
 17
 130.208829
  H 1.377929 -0.205344 -0.311814
  C 2.465742 -0.148179 -0.207273
  C 3.292911 -0.667182 -1.112894
  C 4.722227 -0.620146 -1.016949
  C 5.574737 -1.153869 -1.946304
  C 7.063783 -1.058549 -1.742419
  C 7.521818 -1.571636 -2.915984
  C 8.955163 -1.721457 -3.283139
  H 2.836736 0.346941 0.661151
  H 2.876858 -1.164394 -1.990740
  H 5.126169 -0.122335 -0.141989
  H 4.883467 -1.614244 -2.703214
  H 7.525082 -0.642488 -0.851083
  H 6.128353 -1.542540 -2.841483
  H 9.643332 -1.383073 -2.505232
  H 9.158666 -1.155196 -4.196433
  H 9.161870 -2.769734 -3.501301
 17
 139.216648
  H 1.400877 -0.183415 -0.227881
  C 2.476912 -0.129838 -0.163122
  C 3.268917 -0.659325 -1.095656
  C 4.703595 -0.621193 -1.049393
  C 5.521204 -1.166102 -2.001646
  C 7.026078 -1.088013 -1.828787
  C 7.538738 -1.592441 -2.993444
  C 9.005401 -1.706511 -3.238355
  H 2.883373 0.364901 0.700626
  H 2.818161 -1.158441 -1.955584
  H 5.138269 -0.123839 -0.201369
  H 4.791283 -1.650621 -2.727005
  H 7.466169 -0.670537 -0.923191
  H 6.012988 -1.545856 -2.878209
  H 9.626003 -1.359654 -2.403441
  H 9.268802 -1.124312 -4.130636
  H 9.250844 -2.747809 -3.453092
 17
 142.624324
  H 1.424788 -0.184588 -0.140576
  C 2.503422 -0.122140 -0.118270
  C 3.261641 -0.653801 -1.078555
  C 4.689572 -0.613165 -1.082634
  C 5.474402 -1.156199 -2.060977
  C 6.976288 -1.122942 -1.921786
  C 7.559097 -1.612444 -3.056171
  C 9.043640 -1.694130 -3.178006
  H 2.939964 0.372167 0.729060
  H 2.782942 -1.156425 -1.913032
  H 5.159217 -0.103600 -0.254211
  H 4.711396 -1.697137 -2.717947
  H 7.392732 -0.719718 -0.994282
  H 5.883245 -1.488381 -2.971552
  H 9.594611 -1.345423 -2.294656
  H 9.359085 -1.096557 -4.036872
  H 9.326756 -2.726537 -3.389617
 17
 146.339338
  H 1.440640 -0.149867 -0.074760
  C 2.517701 -0.103285 -0.078709
  C 3.244281 -0.642772 -1.057342
  C 4.672838 -0.618074 -1.100831
  C 5.427506 -1.170317 -2.099659
  C 6.951059 -1.170026 -1.976539
  C 7.590693 -1.655463 -3.084412
  C 9.080378 -1.671138 -3.131657
  H 2.979967 0.386430 0.756313
  H 2.734664 -1.141387 -1.886939
  H 5.168040 -0.117572 -0.287800
  H 4.632317 -1.723342 -2.721510
  H 7.350777 -0.767062 -1.040770
  H 5.766795 -1.466115 -3.022002
  H 9.573463 -1.292229 -2.224317
  H 9.411237 -1.070324 -3.979977
  H 9.419860 -2.695102 -3.314272
 17
 147.919778
  H 1.499441 -0.154174 0.056898
  C 2.577041 -0.109373 -0.011280
  C 3.246971 -0.643594 -1.031729
  C 4.667348 -0.611923 -1.158623
  C 5.365814 -1.164175 -2.201006
  C 6.897762 -1.165325 -2.114775
  C 7.606008 -1.665308 -3.183429
  C 9.098625 -1.659266 -3.025302
  H 3.088156 0.376729 0.802833
  H 2.694962 -1.137439 -1.825640
  H 5.209409 -0.107674 -0.366733
  H 4.541192 -1.778264 -2.727552
  H 7.257255 -0.738745 -1.174847
  H 5.635863 -1.408873 -3.136525
  H 9.452422 -1.280762 -2.053368
  H 9.526849 -1.051625 -3.821681
  H 9.463582 -2.675617 -3.149580
