13

C 1.049187 -0.113135 -0.038619
C 2.545528 -0.135873 -0.038757
C 3.260043 -1.266103 -0.045532
C 4.698068 -1.288226 -0.045661
C 5.417404 -2.424585 -0.052474
H 6.487304785556472 -2.4391555869706174 -0.05255802961762171
H 0.688294 0.914919 -0.032459
H 0.653452 -0.611705 0.846063
H 0.653452 -0.601072 -0.92921
H 3.045009 0.823963 -0.033008
H 2.748323 -2.220583 -0.051251
H 5.202602 -0.330232 -0.039925
H 4.91345 -3.382816 -0.058218
