 9
 0.000000
  H 5.749477 -1.124371 -2.023397
  C 6.824033 -1.131314 -2.034462
  C 7.531829 -1.639389 -3.028771
  C 9.022978 -1.662403 -3.073894
  H 7.325646 -0.699131 -1.182050
  H 7.031129 -2.074771 -3.884510
  H 9.456689 -1.209055 -2.185439
  H 9.379279 -1.117822 -3.948427
  H 9.384011 -2.688977 -3.148772
 9
 0.371555
  H 5.754222 -1.155138 -2.025251
  C 6.829921 -1.191744 -2.007335
  C 7.536720 -1.558967 -3.059603
  C 9.027971 -1.641314 -3.088715
  H 7.302410 -0.901555 -1.082794
  H 7.034941 -1.856867 -3.971518
  H 9.469470 -0.994172 -2.334280
  H 9.409391 -1.358660 -4.067683
  H 9.349365 -2.664085 -2.888453
 9
 1.099750
  H 5.749759 -1.181693 -2.020112
  C 6.822862 -1.261619 -1.995041
  C 7.537181 -1.500538 -3.077518
  C 9.029880 -1.630422 -3.090588
  H 7.286396 -1.131866 -1.030064
  H 7.041967 -1.633753 -4.030383
  H 9.495498 -0.822536 -2.529129
  H 9.410046 -1.614003 -4.108569
  H 9.330786 -2.570987 -2.628954
 9
 1.150038
  H 5.738229 -1.228954 -2.035374
  C 6.807710 -1.344023 -1.993444
  C 7.544588 -1.454092 -3.082742
  C 9.034889 -1.609185 -3.082956
  H 7.245794 -1.361081 -1.008394
  H 7.071806 -1.426256 -4.055751
  H 9.514160 -0.684130 -2.763279
  H 9.397062 -1.855189 -4.077612
  H 9.342171 -2.395948 -2.395962
 9
 0.500431
  H 5.723648 -1.303914 -2.060800
  C 6.790728 -1.436975 -1.999188
  C 7.554114 -1.415786 -3.075295
  C 9.040692 -1.575144 -3.066678
  H 7.199748 -1.581079 -1.013106
  H 7.108393 -1.251607 -4.048149
  H 9.520971 -0.596974 -3.016883
  H 9.379297 -2.066537 -3.976499
  H 9.366675 -2.159095 -2.207557
 9
 0.010115
  H 5.709997 -1.411880 -2.080681
  C 6.778584 -1.533862 -2.015151
  C 7.563190 -1.353730 -3.061500
  C 9.044639 -1.524717 -3.046232
  H 7.172083 -1.798090 -1.050886
  H 7.137863 -1.072935 -4.018116
  H 9.542325 -0.588263 -3.300763
  H 9.341061 -2.268598 -3.786814
  H 9.380503 -1.854308 -2.068554
 9
 4.531918
  H 5.729006 -1.693499 -2.065648
  C 6.806195 -1.604961 -2.041231
  C 7.551320 -1.325695 -3.095013
  C 9.034726 -1.475189 -3.044061
  H 7.230283 -1.643495 -1.048223
  H 7.116235 -0.964377 -4.017003
  H 9.581470 -0.610051 -3.403855
  H 9.319801 -2.339169 -3.648384
  H 9.280736 -1.765560 -2.023961
 9
 22.221369
  H 5.830575 -1.944713 -2.033099
  C 6.878177 -1.673117 -2.065289
  C 7.539539 -1.269627 -3.140020
  C 9.025243 -1.438300 -3.045472
  H 7.239796 -1.419872 -1.080314
  H 7.068318 -0.885479 -4.031195
  H 9.636534 -0.624777 -3.408039
  H 9.325326 -2.375141 -3.529692
  H 9.073730 -1.804213 -2.007253
 9
 53.959560
  H 5.944833 -2.097359 -1.998197
  C 6.955400 -1.683010 -2.045677
  C 7.535558 -1.251852 -3.183089
  C 9.018105 -1.428380 -3.073640
  H 7.231260 -1.234643 -1.098165
  H 7.025361 -0.823963 -4.019659
  H 9.645574 -0.637361 -3.435422
  H 9.373582 -2.404147 -3.399809
  H 8.839141 -1.883982 -2.034492
 9
 81.156564
  H 6.087133 -2.204794 -2.007702
  C 7.064523 -1.718679 -2.023459
  C 7.586434 -1.187656 -3.217661
  C 8.976061 -1.399484 -3.140223
  H 7.226843 -1.168585 -1.106818
  H 7.038036 -0.722429 -4.023515
  H 9.674864 -0.674175 -3.561541
  H 9.348774 -2.405509 -3.274111
  H 8.500650 -1.970953 -1.876503
 9
 64.874408
  H 6.166865 -2.236609 -2.012849
  C 7.136931 -1.755949 -1.987895
  C 7.664128 -1.177705 -3.260461
  C 8.972214 -1.394659 -3.219121
  H 7.233752 -1.140466 -1.079237
  H 7.108935 -0.638231 -4.020733
  H 9.655889 -0.687165 -3.671969
  H 9.419765 -2.372381 -3.209632
  H 8.259534 -2.039910 -1.775780
 9
 37.610286
  H 6.210834 -2.295558 -2.029825
  C 7.141322 -1.758218 -1.957475
  C 7.680693 -1.154638 -3.206313
  C 9.006258 -1.360162 -3.279410
  H 7.102949 -1.035488 -1.128824
  H 7.085796 -0.631816 -3.941975
  H 9.678299 -0.692016 -3.813713
  H 9.396254 -2.362990 -3.216661
  H 8.116771 -2.167078 -1.597456
 9
 17.110827
  H 6.226481 -2.292450 -2.110998
  C 7.150896 -1.757469 -1.925416
  C 7.736239 -1.088023 -3.128150
  C 9.019058 -1.338947 -3.347376
  H 6.985035 -1.019607 -1.134288
  H 7.083862 -0.593707 -3.830599
  H 9.650572 -0.794914 -4.037604
  H 9.457060 -2.289363 -3.088985
  H 8.006217 -2.290300 -1.505943
 9
 5.620279
  H 6.230187 -2.311517 -2.101198
  C 7.154956 -1.779571 -1.922255
  C 7.750981 -1.144970 -3.133223
  C 9.025388 -1.344383 -3.412917
  H 6.961911 -0.984084 -1.191798
  H 7.112904 -0.512513 -3.742368
  H 9.608974 -0.785267 -4.127168
  H 9.540919 -2.214552 -3.024600
  H 7.929202 -2.387925 -1.453832
 9
 0.056055
  H 6.189021 -2.201961 -2.165823
  C 7.154121 -1.773341 -1.898961
  C 7.801354 -1.149359 -3.090965
  C 9.051612 -1.361769 -3.454091
  H 6.978310 -1.017537 -1.132732
  H 7.174582 -0.476955 -3.661311
  H 9.493750 -0.881012 -4.309035
  H 9.680732 -2.052683 -2.915147
  H 7.791939 -2.550166 -1.481293
