 13
 0.000000
  H 1.381450 0.127483 0.370115
  C 2.455679 0.095686 0.290198
  H 3.028963 0.436754 1.136836
  C 3.053207 -0.359794 -0.842553
  C 4.458638 -0.408120 -0.965683
  C 5.153141 -0.855844 -2.081428
  C 4.589604 -1.350411 -3.315574
  H 3.506027 -1.362816 -3.349570
  H 6.234896 -0.831995 -2.020752
  H 2.426677 -0.690380 -1.662771
  H 5.033892 -0.065596 -0.113807
  H 4.992103 -2.346747 -3.525986
  H 4.993794 -0.776605 -4.155833
 13
 0.281936
  H 1.380002 0.173886 0.362494
  C 2.448960 0.060314 0.301822
  H 3.016643 0.254475 1.198335
  C 3.057361 -0.320082 -0.853476
  C 4.461550 -0.340830 -0.991924
  C 5.149503 -0.858187 -2.076749
  C 4.586895 -1.365830 -3.305268
  H 3.503083 -1.350852 -3.354304
  H 6.229328 -0.900229 -1.992316
  H 2.443543 -0.649358 -1.681129
  H 5.038470 0.084989 -0.181649
  H 4.979967 -2.371164 -3.499172
  H 4.998474 -0.799876 -4.149357
 13
 1.418018
  H 1.388071 0.258409 0.315001
  C 2.440911 0.031731 0.303043
  H 2.938041 0.000507 1.261181
  C 3.081108 -0.248281 -0.860164
  C 4.486181 -0.292732 -1.003639
  C 5.154553 -0.838262 -2.081349
  C 4.573591 -1.394101 -3.285046
  H 3.491529 -1.382810 -3.314570
  H 6.233337 -0.879978 -2.013634
  H 2.473989 -0.531636 -1.711161
  H 5.074100 0.154139 -0.211445
  H 4.962786 -2.403177 -3.446078
  H 4.962622 -0.849482 -4.157075
 13
 3.402029
  H 1.399981 0.297374 0.300404
  C 2.431170 -0.025806 0.303323
  H 2.858469 -0.244378 1.268862
  C 3.109699 -0.170077 -0.861098
  C 4.510063 -0.233426 -1.017247
  C 5.155702 -0.815114 -2.085575
  C 4.556149 -1.407788 -3.262582
  H 3.475010 -1.327064 -3.309474
  H 6.239655 -0.855374 -2.035424
  H 2.503773 -0.413177 -1.733507
  H 5.109165 0.235317 -0.247786
  H 4.868891 -2.454177 -3.340083
  H 4.992436 -0.951955 -4.159719
 13
 6.017694
  H 1.418751 0.362784 0.275168
  C 2.417177 -0.050668 0.286822
  H 2.728399 -0.472926 1.227275
  C 3.152059 -0.089175 -0.851490
  C 4.546653 -0.208011 -1.014805
  C 5.164875 -0.811196 -2.083338
  C 4.531400 -1.430101 -3.232706
  H 3.448222 -1.379657 -3.230688
  H 6.248679 -0.851488 -2.061685
  H 2.547228 -0.244483 -1.749160
  H 5.162559 0.270372 -0.261936
  H 4.859415 -2.472368 -3.303352
  H 4.920411 -0.976999 -4.148501
 13
 9.641864
  H 1.455061 0.421068 0.275937
  C 2.412958 -0.083324 0.269448
  H 2.581269 -0.706743 1.134080
  C 3.201007 -0.036127 -0.830548
  C 4.582362 -0.159889 -1.024078
  C 5.179120 -0.754627 -2.110049
  C 4.509036 -1.440876 -3.203200
  H 3.423407 -1.337543 -3.198141
  H 6.264499 -0.796423 -2.118053
  H 2.551539 -0.121652 -1.709839
  H 5.211745 0.243134 -0.245309
  H 4.794945 -2.496564 -3.197219
  H 4.901715 -1.070327 -4.156076
 13
 13.129841
  H 1.481184 0.547615 0.240905
  C 2.363473 -0.067875 0.247172
  H 2.534537 -0.601784 1.174639
  C 3.204208 -0.048267 -0.822230
  C 4.578846 -0.216222 -0.998776
  C 5.178013 -0.795535 -2.092377
  C 4.510268 -1.427724 -3.221467
  H 3.427576 -1.474153 -3.130270
  H 6.258827 -0.843643 -2.091618
  H 2.540046 -0.245396 -1.673692
  H 5.205755 0.174777 -0.208384
  H 4.916942 -2.436813 -3.371056
  H 4.774742 -0.893771 -4.134839
 13
 21.426477
  H 1.501580 0.582286 0.201498
  C 2.346043 -0.097109 0.224426
  H 2.363504 -0.751391 1.085998
  C 3.278499 -0.034219 -0.767421
  C 4.631904 -0.197045 -0.997451
  C 5.192505 -0.794246 -2.092620
  C 4.485615 -1.424645 -3.202334
  H 3.408068 -1.392821 -3.102464
  H 6.275086 -0.836672 -2.129801
  H 2.516721 -0.266194 -1.550465
  H 5.267836 0.305174 -0.287046
  H 4.815335 -2.466426 -3.300826
  H 4.780220 -0.945885 -4.133457
 13
 31.220968
  H 1.523103 0.668269 0.157756
  C 2.289784 -0.095979 0.155372
  H 2.182297 -0.837823 0.945807
  C 3.357795 -0.049435 -0.682898
  C 4.676833 -0.185126 -0.996968
  C 5.217742 -0.756761 -2.121532
  C 4.472741 -1.444887 -3.176472
  H 3.399250 -1.448594 -3.016411
  H 6.292117 -0.728569 -2.232428
  H 2.465203 -0.233082 -1.380561
  H 5.350567 0.248718 -0.265700
  H 4.825433 -2.471092 -3.268177
  H 4.689796 -0.977036 -4.138408
 13
 34.257716
  H 1.537306 0.723059 0.093611
  C 2.274693 -0.075939 0.116603
  H 2.111307 -0.822561 0.893432
  C 3.399300 -0.059274 -0.634431
  C 4.694926 -0.197121 -0.980531
  C 5.227886 -0.763199 -2.117985
  C 4.462056 -1.443174 -3.175511
  H 3.395676 -1.486967 -2.976653
  H 6.299012 -0.731779 -2.243411
  H 2.378251 -0.331142 -1.242362
  H 5.372483 0.267323 -0.270910
  H 4.840540 -2.457635 -3.313967
  H 4.630162 -0.938177 -4.128830
 13
 30.797386
  H 1.598894 0.796553 0.076088
  C 2.250412 -0.081950 0.051576
  H 2.020355 -0.825210 0.814563
  C 3.461271 -0.112412 -0.559079
  C 4.720283 -0.225113 -0.966760
  C 5.246359 -0.760033 -2.128152
  C 4.467292 -1.454740 -3.167223
  H 3.414942 -1.549137 -2.923660
  H 6.307244 -0.662145 -2.298277
  H 2.156949 -0.328057 -1.115315
  H 5.405513 0.251434 -0.267293
  H 4.883391 -2.450611 -3.335097
  H 4.570910 -0.931370 -4.118224
 13
 26.231922
  H 1.677543 0.831495 0.188903
  C 2.223317 -0.101570 0.022881
  H 2.027772 -0.874444 0.788155
  C 3.445239 -0.086118 -0.557496
  C 4.689310 -0.202788 -0.993954
  C 5.243135 -0.768628 -2.137979
  C 4.488301 -1.459833 -3.178928
  H 3.434201 -1.513504 -2.952857
  H 6.329887 -0.701483 -2.267489
  H 1.916367 -0.348522 -1.035944
  H 5.392890 0.295941 -0.308821
  H 4.884697 -2.461512 -3.315452
  H 4.628652 -0.965849 -4.145317
 13
 21.851307
  H 1.744222 0.841528 0.230574
  C 2.208757 -0.122844 0.006997
  H 2.039718 -0.873032 0.781921
  C 3.464380 -0.112614 -0.554090
  C 4.683632 -0.190933 -1.019427
  C 5.253847 -0.754893 -2.147869
  C 4.494162 -1.475665 -3.181001
  H 3.426966 -1.484134 -2.991994
  H 6.318577 -0.677394 -2.280438
  H 1.716485 -0.381266 -0.955954
  H 5.353631 0.353759 -0.341904
  H 4.854616 -2.502857 -3.250922
  H 4.684576 -1.029422 -4.159495
 13
 19.944040
  H 1.863288 0.956310 0.170206
  C 2.176273 -0.076948 -0.011675
  H 2.025743 -0.712997 0.864170
  C 3.430463 -0.180030 -0.579129
  C 4.650336 -0.252109 -1.032748
  C 5.275347 -0.800249 -2.140172
  C 4.548005 -1.491101 -3.217522
  H 3.509846 -1.677270 -2.963758
  H 6.341004 -0.687963 -2.243639
  H 1.500543 -0.445335 -0.799406
  H 5.291535 0.288553 -0.321487
  H 5.044411 -2.432870 -3.453564
  H 4.586774 -0.897760 -4.134880
