 22
 0.000000
  C 0.979719 0.157822 0.438066
  C 2.450922 0.140395 0.394932
  C 3.237190 0.603414 1.548426
  H 2.635407 0.937957 2.384676
  C 3.046380 -0.329655 -0.773198
  C 4.429611 -0.416460 -0.989346
  C 5.094756 -0.865558 -2.107174
  C 4.627988 -1.385488 -3.401231
  C 3.145883 -1.512023 -3.716476
  H 3.020908 -1.913929 -4.716853
  H 6.176280 -0.848095 -2.064018
  H 0.589831 0.541012 1.376317
  H 0.582588 -0.847422 0.282724
  H 0.588745 0.769579 -0.376577
  H 3.892554 1.420759 1.240495
  H 3.894046 -0.199318 1.889736
  H 2.377699 -0.644923 -1.556734
  H 5.059386 -0.087766 -0.172141
  H 5.101483 -2.369011 -3.522890
  H 5.101715 -0.759752 -4.169593
  H 2.656942 -0.541066 -3.682191
  H 2.656813 -2.189320 -3.019976
 22
 3.147722
  C 0.984908 0.206415 0.452371
  C 2.432561 0.141314 0.393100
  C 3.228175 0.594896 1.546839
  H 2.597693 0.912673 2.370207
  C 3.026128 -0.335807 -0.779627
  C 4.419846 -0.425899 -0.988442
  C 5.083246 -0.875876 -2.108093
  C 4.624654 -1.388716 -3.401035
  C 3.144728 -1.509128 -3.721478
  H 3.030626 -1.908254 -4.726162
  H 6.164585 -0.855043 -2.041536
  H 0.586741 0.561908 1.387203
  H 0.788496 -0.833055 0.292318
  H 0.544270 0.757990 -0.369533
  H 3.868702 1.427294 1.252844
  H 3.898433 -0.190421 1.896583
  H 2.357743 -0.649459 -1.567694
  H 5.054347 -0.101175 -0.173678
  H 5.102664 -2.369799 -3.527291
  H 5.110640 -0.767316 -4.165634
  H 2.654785 -0.539093 -3.693949
  H 2.647173 -2.191331 -3.036939
 22
 8.120402
  C 0.986989 0.245335 0.434668
  C 2.428770 0.155066 0.392180
  C 3.231571 0.587839 1.549805
  H 2.599880 0.879902 2.387028
  C 3.024904 -0.337153 -0.775314
  C 4.403223 -0.437517 -0.974635
  C 5.067183 -0.887529 -2.088891
  C 4.613100 -1.388255 -3.394381
  C 3.134030 -1.493162 -3.730063
  H 3.027900 -1.882098 -4.741684
  H 6.149918 -0.878642 -2.011443
  H 0.565513 0.632288 1.342087
  H 0.991054 -0.845576 0.372660
  H 0.505528 0.646889 -0.442243
  H 3.837450 1.449724 1.260243
  H 3.926117 -0.184847 1.878757
  H 2.363822 -0.644036 -1.566694
  H 5.035295 -0.117972 -0.159091
  H 5.084437 -2.372969 -3.526323
  H 5.112521 -0.766625 -4.151635
  H 2.652219 -0.519667 -3.701036
  H 2.624653 -2.180242 -3.060209
 22
 14.702199
  C 0.971240 0.273101 0.440447
  C 2.420912 0.155816 0.390273
  C 3.226935 0.577927 1.551073
  H 2.599492 0.859934 2.394231
  C 3.017760 -0.341619 -0.779818
  C 4.396513 -0.443921 -0.973558
  C 5.067852 -0.894559 -2.087050
  C 4.617836 -1.392054 -3.399905
  C 3.138747 -1.490819 -3.739543
  H 3.033358 -1.875133 -4.752357
  H 6.149919 -0.889378 -2.005235
  H 0.540452 0.673495 1.339697
  H 1.128845 -0.803878 0.427752
  H 0.458236 0.600028 -0.449611
  H 3.819491 1.447147 1.259970
  H 3.928556 -0.190648 1.871291
  H 2.359695 -0.645485 -1.573252
  H 5.023579 -0.125910 -0.154586
  H 5.085106 -2.378048 -3.532047
  H 5.120078 -0.768578 -4.153063
  H 2.660575 -0.515196 -3.707587
  H 2.625960 -2.179239 -3.073052
 22
 20.798349
  C 0.965985 0.297857 0.435787
  C 2.419670 0.147848 0.382821
  C 3.223488 0.571305 1.559069
  H 2.592750 0.842629 2.397394
  C 3.012293 -0.348054 -0.783158
  C 4.395144 -0.449241 -0.976900
  C 5.065484 -0.897252 -2.087536
  C 4.617817 -1.392299 -3.399947
  C 3.139549 -1.491120 -3.740578
  H 3.035804 -1.872986 -4.753443
  H 6.145363 -0.891813 -2.004850
  H 0.521710 0.705880 1.328066
  H 1.249514 -0.790101 0.444580
  H 0.431417 0.583199 -0.459434
  H 3.809482 1.446925 1.278019
  H 3.931038 -0.194010 1.877966
  H 2.350785 -0.651304 -1.578941
  H 5.024285 -0.130407 -0.154757
  H 5.085111 -2.377539 -3.532974
  H 5.119677 -0.767249 -4.151063
  H 2.660746 -0.515969 -3.707253
  H 2.626605 -2.181467 -3.076399
 22
 24.582614
  C 0.968633 0.329383 0.439735
  C 2.402815 0.146903 0.388831
  C 3.216128 0.567286 1.562298
  H 2.591848 0.832872 2.402463
  C 3.004780 -0.353435 -0.783800
  C 4.390034 -0.458497 -0.975846
  C 5.063312 -0.902621 -2.079977
  C 4.622878 -1.394184 -3.408155
  C 3.144373 -1.488729 -3.760513
  H 3.047707 -1.864104 -4.778247
  H 6.144791 -0.900029 -1.989400
  H 0.529507 0.766065 1.312865
  H 1.338779 -0.754496 0.539966
  H 0.413731 0.495930 -0.462626
  H 3.787391 1.444246 1.281304
  H 3.925700 -0.195355 1.872119
  H 2.343831 -0.647947 -1.580683
  H 5.017025 -0.145002 -0.154533
  H 5.087282 -2.381335 -3.542201
  H 5.128940 -0.763812 -4.152725
  H 2.667043 -0.512100 -3.724611
  H 2.625801 -2.183984 -3.104752
 22
 27.311505
  C 0.971448 0.347660 0.433608
  C 2.394929 0.139667 0.377179
  C 3.211448 0.558877 1.549664
  H 2.582237 0.819980 2.405944
  C 3.002619 -0.362287 -0.797207
  C 4.378164 -0.466200 -0.976969
  C 5.061726 -0.911159 -2.083642
  C 4.627213 -1.392468 -3.403496
  C 3.151596 -1.477908 -3.751582
  H 3.051035 -1.847165 -4.770121
  H 6.141591 -0.912547 -1.990161
  H 0.539340 0.803352 1.305232
  H 1.412987 -0.729383 0.604699
  H 0.395299 0.434092 -0.473214
  H 3.782457 1.451621 1.265621
  H 3.928313 -0.208128 1.852740
  H 2.344014 -0.652515 -1.599949
  H 5.000558 -0.154050 -0.147590
  H 5.085714 -2.379653 -3.539988
  H 5.133775 -0.760998 -4.143957
  H 2.680529 -0.501006 -3.709316
  H 2.632851 -2.172678 -3.099003
 22
 29.255870
  C 0.970937 0.369816 0.431291
  C 2.389866 0.135606 0.389045
  C 3.208005 0.556085 1.560833
  H 2.583368 0.813980 2.409649
  C 2.998303 -0.362940 -0.789393
  C 4.385172 -0.470202 -0.974395
  C 5.065423 -0.908538 -2.072061
  C 4.633634 -1.394096 -3.414336
  C 3.149647 -1.483401 -3.777811
  H 3.057296 -1.850952 -4.800972
  H 6.146014 -0.908240 -1.972577
  H 0.535778 0.857261 1.288357
  H 1.469159 -0.700976 0.677597
  H 0.383457 0.370149 -0.473168
  H 3.779094 1.445417 1.282194
  H 3.917908 -0.212203 1.862874
  H 2.339355 -0.645752 -1.584641
  H 5.009255 -0.162156 -0.146461
  H 5.097048 -2.386021 -3.550494
  H 5.145867 -0.755062 -4.153940
  H 2.674346 -0.505873 -3.736840
  H 2.626012 -2.183211 -3.130112
 22
 31.049999
  C 0.973564 0.382764 0.418307
  C 2.387270 0.126565 0.388290
  C 3.212327 0.552851 1.560616
  H 2.590539 0.814466 2.408410
  C 3.000826 -0.370557 -0.797583
  C 4.372157 -0.474555 -0.975431
  C 5.059997 -0.913199 -2.083560
  C 4.627878 -1.390619 -3.411750
  C 3.166286 -1.475077 -3.758981
  H 3.067673 -1.839647 -4.780935
  H 6.152090 -0.913086 -1.986445
  H 0.538282 0.882839 1.259016
  H 1.514729 -0.680593 0.709888
  H 0.381132 0.327006 -0.480630
  H 3.777430 1.425489 1.285702
  H 3.919380 -0.218238 1.863552
  H 2.333553 -0.657581 -1.609072
  H 4.989806 -0.169020 -0.148677
  H 5.082081 -2.369973 -3.551323
  H 5.128493 -0.758686 -4.143239
  H 2.697869 -0.503668 -3.711836
  H 2.651678 -2.169727 -3.113463
 22
 32.538837
  C 0.964272 0.396454 0.408341
  C 2.387319 0.111410 0.394144
  C 3.216992 0.550456 1.560830
  H 2.597811 0.820809 2.404354
  C 3.002972 -0.378572 -0.795047
  C 4.380756 -0.484745 -0.971714
  C 5.068178 -0.915052 -2.078569
  C 4.639392 -1.387305 -3.411897
  C 3.161108 -1.471911 -3.764877
  H 3.063400 -1.830378 -4.781616
  H 6.141570 -0.914128 -1.981269
  H 0.523250 0.910718 1.241769
  H 1.545281 -0.671495 0.746058
  H 0.369254 0.283210 -0.480740
  H 3.793132 1.427284 1.275611
  H 3.913595 -0.218564 1.869180
  H 2.344832 -0.658284 -1.596200
  H 5.001196 -0.183369 -0.138321
  H 5.098865 -2.375072 -3.555204
  H 5.145426 -0.744597 -4.145578
  H 2.690094 -0.498941 -3.714965
  H 2.643511 -2.171055 -3.121206
 22
 34.432080
  C 0.968785 0.403106 0.392075
  C 2.386492 0.099905 0.392670
  C 3.219255 0.549437 1.561321
  H 2.596995 0.824034 2.406003
  C 3.006430 -0.386417 -0.797636
  C 4.380932 -0.489610 -0.968755
  C 5.072283 -0.916576 -2.078997
  C 4.643315 -1.382450 -3.404049
  C 3.156403 -1.465631 -3.750849
  H 3.051888 -1.825338 -4.778051
  H 6.158748 -0.914867 -1.982228
  H 0.526434 0.915439 1.223355
  H 1.581208 -0.668903 0.748782
  H 0.375157 0.263605 -0.497012
  H 3.798862 1.427186 1.273493
  H 3.915074 -0.219674 1.873871
  H 2.347185 -0.667689 -1.605482
  H 4.999575 -0.189469 -0.131289
  H 5.105075 -2.375060 -3.551379
  H 5.149772 -0.733744 -4.141086
  H 2.682948 -0.485778 -3.695644
  H 2.637926 -2.170582 -3.101318
 22
 36.113805
  C 0.962947 0.430372 0.427509
  C 2.376206 0.102757 0.418615
  C 3.229752 0.553146 1.571788
  H 2.618391 0.832496 2.429761
  C 2.981607 -0.384639 -0.782906
  C 4.358007 -0.492077 -0.969761
  C 5.050169 -0.914003 -2.073361
  C 4.649929 -1.385437 -3.413028
  C 3.186977 -1.489456 -3.808970
  H 3.124560 -1.850020 -4.835747
  H 6.121929 -0.905818 -1.965732
  H 0.532073 0.940808 1.269714
  H 1.606394 -0.657829 0.787009
  H 0.358183 0.277973 -0.449686
  H 3.807071 1.425410 1.273848
  H 3.928848 -0.220943 1.875818
  H 2.312435 -0.660827 -1.576622
  H 4.980744 -0.193895 -0.135915
  H 5.123503 -2.363247 -3.544818
  H 5.164577 -0.736390 -4.128143
  H 2.700901 -0.521566 -3.773153
  H 2.659355 -2.198847 -3.181775
 22
 37.567264
  C 0.971253 0.426686 0.377843
  C 2.386904 0.087109 0.401321
  C 3.223186 0.548897 1.566735
  H 2.599212 0.826102 2.413993
  C 3.012278 -0.393992 -0.792482
  C 4.390533 -0.495554 -0.962649
  C 5.082220 -0.916101 -2.073130
  C 4.649818 -1.381870 -3.407801
  C 3.166423 -1.467860 -3.750883
  H 3.061476 -1.820958 -4.766715
  H 6.164202 -0.910743 -1.977554
  H 0.516249 0.933225 1.224534
  H 1.644762 -0.676226 0.758224
  H 0.384910 0.261008 -0.499915
  H 3.798835 1.424965 1.272620
  H 3.923876 -0.221316 1.883733
  H 2.353115 -0.674091 -1.600136
  H 5.001186 -0.200961 -0.134289
  H 5.113028 -2.370292 -3.559389
  H 5.151723 -0.731562 -4.142414
  H 2.694147 -0.495728 -3.692368
  H 2.654812 -2.171204 -3.106099
 22
 39.105725
  C 0.967388 0.447777 0.397108
  C 2.384864 0.084966 0.422255
  C 3.234072 0.551722 1.576657
  H 2.620056 0.831707 2.426199
  C 3.001728 -0.396937 -0.783229
  C 4.376322 -0.501043 -0.960246
  C 5.069104 -0.916659 -2.069775
  C 4.654455 -1.381527 -3.410624
  C 3.184409 -1.479929 -3.781233
  H 3.103066 -1.835118 -4.810672
  H 6.141941 -0.905718 -1.967796
  H 0.526961 0.939027 1.230362
  H 1.669518 -0.675241 0.785087
  H 0.362098 0.269279 -0.487815
  H 3.808692 1.427959 1.272359
  H 3.933362 -0.216512 1.889585
  H 2.337414 -0.673318 -1.583693
  H 4.998703 -0.202008 -0.119013
  H 5.123519 -2.358391 -3.556350
  H 5.158103 -0.730326 -4.130374
  H 2.699685 -0.505476 -3.730002
  H 2.663743 -2.195606 -3.143880
