 20
 0.000000
  C 1.008176 -0.071331 0.048026
  C 2.504485 -0.082028 0.027027
  C 3.219407 -0.595010 -0.980046
  C 4.656704 -0.606840 -1.003268
  C 5.376256 -1.122363 -2.015324
  C 6.814752 -1.131232 -2.032732
  C 7.534538 -1.642654 -3.036746
  C 9.024599 -1.661119 -3.072990
  H 0.645614 0.394855 0.963222
  H 0.612814 -1.086228 0.009214
  H 0.612815 0.493994 -0.795734
  H 3.003906 0.353792 0.882618
  H 2.707057 -1.028196 -1.830451
  H 5.162463 -0.172234 -0.150065
  H 4.872411 -1.557351 -2.869277
  H 7.320217 -0.696458 -1.179197
  H 7.037018 -2.079223 -3.893787
  H 9.457165 -1.207689 -2.182839
  H 9.384502 -1.114972 -3.946363
  H 9.384501 -2.688692 -3.144740
 20
 -0.074522
  C 1.003897 -0.105688 0.071479
  C 2.498113 -0.095714 0.035618
  C 3.219843 -0.539023 -0.997566
  C 4.655393 -0.538529 -1.033293
  C 5.380659 -1.085776 -2.024274
  C 6.816877 -1.097068 -2.053242
  C 7.539602 -1.667591 -3.020080
  C 9.027855 -1.689727 -3.064084
  H 0.632439 0.272347 1.020430
  H 0.622368 -1.117403 -0.070764
  H 0.597780 0.513530 -0.728220
  H 3.004586 0.287600 0.911052
  H 2.714518 -0.935696 -1.870232
  H 5.160946 -0.073803 -0.195961
  H 4.875160 -1.560184 -2.856397
  H 7.319311 -0.608183 -1.228767
  H 7.038497 -2.157730 -3.845913
  H 9.453808 -1.186469 -2.199256
  H 9.386321 -1.197712 -3.968301
  H 9.390697 -2.718622 -3.086576
 20
 0.166131
  C 1.007436 -0.144200 0.086889
  C 2.501755 -0.111111 0.039221
  C 3.220508 -0.483699 -1.022989
  C 4.656127 -0.469206 -1.067548
  C 5.380362 -1.052493 -2.037287
  C 6.816705 -1.067309 -2.068167
  C 7.537593 -1.687324 -3.005783
  C 9.025853 -1.715978 -3.049435
  H 0.639180 0.175271 1.058224
  H 0.638012 -1.150723 -0.108505
  H 0.586436 0.511898 -0.675012
  H 3.010650 0.214627 0.935582
  H 2.713797 -0.842127 -1.910544
  H 5.161918 0.020672 -0.245005
  H 4.873845 -1.557311 -2.850434
  H 7.320877 -0.540480 -1.267363
  H 7.034353 -2.216108 -3.805830
  H 9.452540 -1.179337 -2.205549
  H 9.385942 -1.261433 -3.973326
  H 9.385783 -2.745108 -3.031567
 20
 0.366648
  C 1.014155 -0.166548 0.099614
  C 2.507014 -0.119419 0.038992
  C 3.217258 -0.440161 -1.046080
  C 4.653552 -0.439331 -1.092623
  C 5.377237 -1.027034 -2.059268
  C 6.814837 -1.052094 -2.077396
  C 7.538759 -1.695245 -2.996531
  C 9.025404 -1.731262 -3.030641
  H 0.648432 0.196784 1.056534
  H 0.655675 -1.187960 -0.031125
  H 0.580288 0.437174 -0.697831
  H 3.023030 0.143466 0.953034
  H 2.703836 -0.740797 -1.950033
  H 5.165332 0.045794 -0.268399
  H 4.878168 -1.538189 -2.872783
  H 7.317146 -0.512994 -1.283878
  H 7.037481 -2.237659 -3.790392
  H 9.448177 -1.225426 -2.168354
  H 9.393115 -1.246642 -3.939226
  H 9.381965 -2.762391 -3.044880
 20
 0.387682
  C 1.016751 -0.156434 0.085791
  C 2.510998 -0.119974 0.039038
  C 3.228480 -0.445833 -1.039773
  C 4.665439 -0.433506 -1.086134
  C 5.389712 -1.026055 -2.051673
  C 6.825882 -1.046648 -2.078994
  C 7.546536 -1.687970 -3.001976
  C 9.033752 -1.717076 -3.045800
  H 0.647610 0.146699 1.062416
  H 0.649787 -1.160429 -0.123582
  H 0.594733 0.508893 -0.667585
  H 3.020511 0.160198 0.950490
  H 2.719764 -0.763523 -1.940208
  H 5.173806 0.055836 -0.264170
  H 4.882005 -1.539350 -2.859470
  H 7.330085 -0.505020 -1.288154
  H 7.043674 -2.231799 -3.790611
  H 9.461937 -1.178850 -2.201597
  H 9.389360 -1.262685 -3.969756
  H 9.396743 -2.745735 -3.028214
 20
 0.354243
  C 1.011037 -0.167374 0.089027
  C 2.505074 -0.128343 0.041196
  C 3.223936 -0.459725 -1.034611
  C 4.660325 -0.442283 -1.078809
  C 5.384378 -1.038915 -2.041787
  C 6.820493 -1.054488 -2.072453
  C 7.540847 -1.694490 -2.996140
  C 9.029399 -1.720777 -3.042252
  H 0.643638 0.089077 1.078660
  H 0.642707 -1.160003 -0.170231
  H 0.588142 0.535154 -0.629313
  H 3.015174 0.162650 0.949755
  H 2.717022 -0.786640 -1.935301
  H 5.166427 0.055692 -0.261107
  H 4.877116 -1.558876 -2.844992
  H 7.324721 -0.508918 -1.284145
  H 7.037466 -2.241242 -3.783029
  H 9.457067 -1.171364 -2.206938
  H 9.385001 -1.278588 -3.973221
  H 9.392710 -2.748762 -3.010952
 20
 0.248339
  C 1.011165 -0.176163 0.090101
  C 2.504493 -0.129995 0.039896
  C 3.225417 -0.490069 -1.025045
  C 4.661929 -0.460278 -1.071418
  C 5.388477 -1.060641 -2.029825
  C 6.824134 -1.060177 -2.067198
  C 7.547424 -1.698543 -2.989925
  C 9.035727 -1.709693 -3.041755
  H 0.644759 0.060139 1.085253
  H 0.645704 -1.163584 -0.190073
  H 0.584363 0.540863 -0.612174
  H 3.012694 0.198611 0.935687
  H 2.721374 -0.848289 -1.914588
  H 5.164669 0.056742 -0.263420
  H 4.882949 -1.596387 -2.824417
  H 7.325770 -0.502580 -1.285810
  H 7.046394 -2.257153 -3.770938
  H 9.460838 -1.141286 -2.217869
  H 9.384148 -1.280844 -3.981528
  H 9.408700 -2.733114 -2.993446
 20
 0.308184
  C 1.011235 -0.181680 0.092712
  C 2.505252 -0.133400 0.041071
  C 3.224856 -0.480560 -1.028803
  C 4.661871 -0.450895 -1.076246
  C 5.388236 -1.053931 -2.033384
  C 6.824478 -1.055796 -2.069758
  C 7.547400 -1.700095 -2.988492
  C 9.035672 -1.713879 -3.039096
  H 0.645148 0.060922 1.086233
  H 0.647216 -1.172600 -0.179764
  H 0.582420 0.528922 -0.614662
  H 3.014183 0.182423 0.940299
  H 2.719950 -0.829378 -1.921184
  H 5.164911 0.064846 -0.268246
  H 4.882211 -1.591077 -2.827494
  H 7.326579 -0.494742 -1.290651
  H 7.046113 -2.261799 -3.767038
  H 9.461022 -1.143372 -2.216973
  H 9.385498 -1.288837 -3.980019
  H 9.406875 -2.737517 -2.986997
 20
 -0.102182
  C 1.007109 -0.147861 0.079138
  C 2.500063 -0.107969 0.031322
  C 3.225351 -0.543075 -1.002738
  C 4.660077 -0.505110 -1.050035
  C 5.390250 -1.095075 -2.013620
  C 6.825911 -1.082163 -2.055714
  C 7.551085 -1.688101 -2.998748
  C 9.039066 -1.686163 -3.055588
  H 0.641232 0.061278 1.080832
  H 0.635360 -1.122582 -0.233835
  H 0.586228 0.595739 -0.599225
  H 3.004987 0.297259 0.898897
  H 2.725435 -0.971473 -1.863228
  H 5.160389 0.009020 -0.238141
  H 4.886540 -1.621510 -2.814435
  H 7.325958 -0.542487 -1.260965
  H 7.052158 -2.227646 -3.793206
  H 9.462278 -1.130648 -2.222337
  H 9.381530 -1.236334 -3.988975
  H 9.420119 -2.707543 -3.027886
