19
 0
 C 0.23459023 -1.58151583 -2.03714940
 C 0.27770127 -1.41015684 -0.52359758
 C 1.62050165 -1.89357746 0.02169057
 C 0.00000000 0.00000000 0.00000000
 C -0.15363769 1.16743834 -0.94099786
 O -0.07984775 0.19900363 1.21769388
 H 0.37525182 -2.63290311 -2.31099363
 H 1.02248176 -1.00257977 -2.53111937
 H -0.73163630 -1.26372506 -2.44271721
 H -0.51720970 -2.04133914 -0.10502581
 H 2.44322720 -1.26825692 -0.34195471
 H 1.81607191 -2.92810532 -0.27997985
 H 1.63850376 -1.85790555 1.11643102
 H -0.13322408 0.88385536 -1.99162727
 H 0.65921220 1.87631815 -0.76204556
 H -1.11513436 1.65056191 -0.74413247
 O 4.85284803 -0.16801267 -0.05299053
 H 4.99107554 -0.44436833 -0.97140631
 H 3.90000000 0.00000000 0.00000000
