 19
 0.000000
  C 0.206751 -1.563146 -2.059136
  C 0.271599 -1.423399 -0.569947
  C 1.594287 -1.851690 0.027582
  C 0.000387 0.008985 0.042154
  C -0.136027 1.113106 -0.942823
  O -0.057153 0.137703 1.220133
  H 0.322764 -2.620719 -2.305980
  H 1.017865 -1.048405 -2.567993
  H -0.754085 -1.257235 -2.461008
  H -0.553301 -1.989931 -0.117295
  H 2.431395 -1.251381 -0.333958
  H 1.799848 -2.879178 -0.277687
  H 1.575713 -1.794438 1.112921
  H -0.107105 0.801148 -1.976391
  H 0.666167 1.824009 -0.736980
  H -1.078273 1.617943 -0.722053
  O 4.883013 -0.167975 -0.055703
  H 5.075352 -0.391023 -0.971804
  H 3.941581 0.020356 0.016046
 19
 1.293974
  C 0.192538 -1.586026 -2.054925
  C 0.284912 -1.453279 -0.568021
  C 1.601246 -1.893594 0.012195
  C 0.098719 -0.003054 0.048269
  C 0.003372 1.103136 -0.942230
  O 0.056034 0.123343 1.226709
  H 0.254822 -2.649058 -2.299386
  H 1.020542 -1.114744 -2.577491
  H -0.760058 -1.239506 -2.443373
  H -0.562215 -1.975495 -0.101623
  H 2.382737 -1.254156 -0.367471
  H 1.828484 -2.911639 -0.297047
  H 1.598426 -1.836135 1.095678
  H 0.027811 0.788668 -1.975642
  H 0.822403 1.792107 -0.731888
  H -0.922058 1.638352 -0.726210
  O 4.632475 -0.067442 -0.037566
  H 4.853305 -0.238437 -0.961867
  H 3.682998 0.073417 0.025193
 19
 1.785903
  C 0.127815 -1.618399 -2.047832
  C 0.288770 -1.478716 -0.559514
  C 1.624993 -1.937688 -0.041386
  C 0.201438 -0.003917 0.041971
  C 0.167145 1.075189 -0.952355
  O 0.174183 0.132823 1.221874
  H 0.112675 -2.685842 -2.277035
  H 0.961622 -1.207247 -2.611058
  H -0.820007 -1.220744 -2.403964
  H -0.566108 -1.949858 -0.042253
  H 2.391304 -1.274132 -0.442926
  H 1.847096 -2.945570 -0.386771
  H 1.665264 -1.900837 1.045873
  H 0.204294 0.745445 -1.984553
  H 0.998066 1.746103 -0.730525
  H -0.747283 1.641448 -0.766239
  O 4.387959 0.040196 0.042186
  H 4.638385 0.013934 -0.882019
  H 3.426537 0.135739 0.098544
 19
 2.223804
  C 0.048073 -1.654886 -2.027302
  C 0.301658 -1.500352 -0.557002
  C 1.655413 -2.001981 -0.108573
  C 0.312427 -0.007223 0.032149
  C 0.308976 1.072516 -0.984150
  O 0.317548 0.140172 1.207690
  H -0.042845 -2.727798 -2.233013
  H 0.871927 -1.301207 -2.646271
  H -0.894774 -1.206976 -2.336813
  H -0.531028 -1.923953 0.012840
  H 2.414979 -1.354722 -0.557845
  H 1.835165 -3.012829 -0.463942
  H 1.753471 -1.959651 0.973827
  H 0.347804 0.733966 -2.011183
  H 1.146222 1.734045 -0.762778
  H -0.595283 1.656594 -0.815028
  O 4.142799 0.149584 0.170762
  H 4.494109 0.297398 -0.708422
  H 3.175555 0.182962 0.128352
 19
 2.032040
  C -0.025836 -1.660501 -1.995405
  C 0.337805 -1.509936 -0.551839
  C 1.683294 -2.075657 -0.185701
  C 0.440846 -0.009445 0.011285
  C 0.449226 1.051558 -1.025586
  O 0.497806 0.155712 1.184686
  H -0.212113 -2.723850 -2.174786
  H 0.776891 -1.378797 -2.671139
  H -0.950224 -1.148601 -2.248688
  H -0.470885 -1.888636 0.082702
  H 2.473319 -1.524515 -0.690473
  H 1.759351 -3.108090 -0.531319
  H 1.860308 -2.036028 0.887764
  H 0.493206 0.694625 -2.043176
  H 1.283519 1.722838 -0.806516
  H -0.461847 1.636784 -0.876103
  O 3.844019 0.345872 0.320323
  H 4.323417 0.602633 -0.473454
  H 2.923651 0.172820 0.079680
 19
 3.242794
  C -0.072122 -1.651924 -1.966913
  C 0.389895 -1.510499 -0.543549
  C 1.712508 -2.148605 -0.252712
  C 0.577683 -0.009349 -0.002425
  C 0.572848 1.031795 -1.054000
  O 0.658502 0.162166 1.167916
  H -0.330183 -2.703324 -2.121638
  H 0.697448 -1.422218 -2.692526
  H -0.973668 -1.093059 -2.167946
  H -0.393381 -1.844511 0.146790
  H 2.507636 -1.696238 -0.843744
  H 1.679248 -3.200650 -0.549547
  H 1.964849 -2.086300 0.796976
  H 0.611499 0.659059 -2.061850
  H 1.396252 1.713659 -0.850574
  H -0.342698 1.606810 -0.906382
  O 3.492903 0.515456 0.423417
  H 4.118091 0.800358 -0.249824
  H 2.701551 0.167299 -0.014603
 19
 7.426105
  C -0.057145 -1.620996 -1.944271
  C 0.436798 -1.508508 -0.534896
  C 1.737560 -2.204372 -0.273431
  C 0.666311 -0.004804 0.006470
  C 0.634578 1.034006 -1.056035
  O 0.686887 0.155624 1.180536
  H -0.368327 -2.656087 -2.090905
  H 0.707922 -1.425703 -2.683861
  H -0.939187 -1.016482 -2.128911
  H -0.344147 -1.821353 0.172667
  H 2.534944 -1.820438 -0.913643
  H 1.630737 -3.249208 -0.533452
  H 2.035055 -2.135036 0.774285
  H 0.730966 0.661834 -2.055017
  H 1.394248 1.780504 -0.834456
  H -0.326766 1.536810 -0.944793
  O 3.300550 0.548956 0.391240
  H 3.940372 0.787141 -0.285121
  H 2.498734 0.185654 -0.036910
 19
 14.031860
  C -0.021612 -1.608036 -1.934309
  C 0.477339 -1.506509 -0.523091
  C 1.758987 -2.217659 -0.271564
  C 0.711644 0.019599 0.025377
  C 0.660181 1.061805 -1.039615
  O 0.665157 0.177571 1.200463
  H -0.356539 -2.636637 -2.078726
  H 0.755741 -1.427633 -2.682194
  H -0.892559 -0.984987 -2.119801
  H -0.300744 -1.809104 0.184056
  H 2.537375 -1.858075 -0.936865
  H 1.629919 -3.277457 -0.512277
  H 2.075582 -2.141314 0.763434
  H 0.809379 0.691996 -2.037137
  H 1.372409 1.857409 -0.798328
  H -0.334135 1.507544 -0.961406
  O 3.190123 0.465026 0.318671
  H 3.770510 0.659589 -0.423902
  H 2.313233 0.181774 -0.012897
 19
 19.473245
  C 0.041555 -1.567979 -1.928352
  C 0.515221 -1.487304 -0.510101
  C 1.787602 -2.221215 -0.242280
  C 0.740451 0.035331 0.048380
  C 0.647975 1.089797 -1.019475
  O 0.605763 0.195444 1.221970
  H -0.310893 -2.600521 -2.087007
  H 0.828095 -1.394974 -2.653801
  H -0.816236 -0.929300 -2.125407
  H -0.283876 -1.792614 0.180645
  H 2.587574 -1.879131 -0.900753
  H 1.635458 -3.275696 -0.476672
  H 2.099460 -2.149964 0.795641
  H 0.871892 0.738072 -2.014451
  H 1.287372 1.928048 -0.741739
  H -0.383591 1.451124 -0.983958
  O 3.133549 0.324855 0.184286
  H 3.585482 0.471424 -0.652747
  H 2.165990 0.147125 0.014247
 19
 25.958113
  C 0.082738 -1.559150 -1.930027
  C 0.538355 -1.486775 -0.506211
  C 1.799872 -2.243549 -0.218620
  C 0.779484 0.049350 0.056976
  C 0.639941 1.115854 -1.010168
  O 0.604628 0.215804 1.229721
  H -0.282563 -2.580222 -2.094182
  H 0.883496 -1.397530 -2.644555
  H -0.762607 -0.905735 -2.138870
  H -0.272192 -1.781215 0.172849
  H 2.613341 -1.912628 -0.862836
  H 1.631947 -3.300858 -0.450194
  H 2.099466 -2.175014 0.819854
  H 0.902350 0.783027 -1.999384
  H 1.234639 1.977103 -0.709112
  H -0.407011 1.418584 -0.990921
  O 3.069188 0.255206 0.099381
  H 3.427331 0.436642 -0.778446
  H 2.066969 0.112081 0.023610
 19
 35.448812
  C 0.097074 -1.552176 -1.939152
  C 0.555300 -1.500225 -0.522355
  C 1.802822 -2.268309 -0.216640
  C 0.811857 0.045632 0.056637
  C 0.638291 1.132717 -1.012587
  O 0.628372 0.215035 1.233803
  H -0.291675 -2.565341 -2.111481
  H 0.900461 -1.409466 -2.658119
  H -0.740955 -0.892341 -2.147803
  H -0.250460 -1.788447 0.172257
  H 2.630019 -1.962160 -0.845108
  H 1.621206 -3.326374 -0.436050
  H 2.099801 -2.176016 0.818158
  H 0.883998 0.808131 -2.008422
  H 1.219281 2.001043 -0.712394
  H -0.414839 1.414787 -0.973635
  O 3.020211 0.245927 0.095914
  H 3.346022 0.467247 -0.789711
  H 1.984809 0.074796 0.041132
 19
 41.928088
  C 0.119739 -1.553962 -1.935316
  C 0.571972 -1.499358 -0.513309
  C 1.801146 -2.293127 -0.214195
  C 0.841715 0.060064 0.052939
  C 0.593136 1.141855 -1.024342
  O 0.621302 0.227763 1.226956
  H -0.272749 -2.562026 -2.102280
  H 0.924465 -1.415100 -2.644017
  H -0.710754 -0.883268 -2.148912
  H -0.239667 -1.769958 0.169924
  H 2.633663 -2.023470 -0.847663
  H 1.580617 -3.346705 -0.420436
  H 2.101138 -2.211783 0.826325
  H 0.860351 0.823744 -2.018876
  H 1.145541 2.031501 -0.727867
  H -0.465078 1.371799 -0.975621
  O 2.998328 0.230433 0.096147
  H 3.352157 0.501841 -0.757131
  H 1.946927 0.081236 -0.016167
 19
 47.478244
  C 0.151083 -1.531391 -1.936591
  C 0.581995 -1.491175 -0.508465
  C 1.795964 -2.308599 -0.194651
  C 0.850764 0.067827 0.066037
  C 0.577598 1.126179 -1.010239
  O 0.597932 0.239480 1.233987
  H -0.237077 -2.538789 -2.117389
  H 0.970851 -1.382531 -2.631063
  H -0.672917 -0.864068 -2.154531
  H -0.244399 -1.756284 0.158155
  H 2.647635 -2.075814 -0.823094
  H 1.546845 -3.357285 -0.385461
  H 2.090171 -2.221188 0.849076
  H 0.898116 0.819262 -1.995125
  H 1.080462 2.040715 -0.697567
  H -0.494077 1.298460 -0.994283
  O 2.959073 0.204182 0.017601
  H 3.240056 0.498770 -0.864027
  H 1.906721 0.082913 -0.003643
 19
 51.032868
  C 0.160399 -1.560142 -1.948495
  C 0.573241 -1.493118 -0.505893
  C 1.780084 -2.312986 -0.173305
  C 0.866238 0.059687 0.051584
  C 0.529362 1.144944 -1.024538
  O 0.627645 0.231320 1.226914
  H -0.216378 -2.570265 -2.118829
  H 0.990676 -1.417189 -2.635496
  H -0.665721 -0.898166 -2.192614
  H -0.263703 -1.740930 0.154250
  H 2.622012 -2.099226 -0.826627
  H 1.515354 -3.362607 -0.330719
  H 2.084544 -2.208533 0.864369
  H 0.861396 0.864726 -2.018867
  H 0.991642 2.076137 -0.693976
  H -0.557424 1.267827 -0.997160
  O 2.979999 0.142612 0.024115
  H 3.303912 0.557944 -0.790274
  H 1.900839 0.099596 -0.046351
