 22
 0.000000
  H 1.521853 0.142681 0.407236
  C 2.602942 0.136434 0.391753
  C 3.326021 0.611394 1.573049
  C 2.444937 1.075245 2.726827
  C 3.283083 1.550621 3.909092
  C 3.199566 -0.328431 -0.765391
  C 4.584272 -0.416003 -0.984041
  C 5.171447 -0.878507 -2.137800
  C 4.516317 -1.361731 -3.344434
  H 3.436461 -1.357480 -3.335502
  H 6.251586 -0.897549 -2.184827
  H 3.993986 1.432126 1.279444
  H 3.994151 -0.184084 1.929221
  H 1.800621 0.257013 3.054012
  H 1.800589 1.892203 2.396606
  H 3.916852 0.751152 4.285339
  H 2.639167 1.877147 4.721364
  H 3.916709 2.388135 3.627153
  H 2.542759 -0.648084 -1.561103
  H 5.238272 -0.095172 -0.184547
  H 4.876904 -2.373199 -3.550521
  H 4.877857 -0.772878 -4.191829
 22
 0.002836
  H 1.545819 0.367750 0.355413
  C 2.624542 0.282425 0.330392
  C 3.342021 0.661199 1.545915
  C 2.448869 1.060443 2.713348
  C 3.268940 1.441962 3.940622
  C 3.198110 -0.179438 -0.833308
  C 4.583591 -0.237948 -1.070627
  C 5.172488 -0.795465 -2.182409
  C 4.513953 -1.513917 -3.263446
  H 3.438169 -1.594690 -3.160086
  H 6.249338 -0.715861 -2.262969
  H 4.023512 1.492034 1.312426
  H 4.014002 -0.149827 1.854602
  H 1.786635 0.231002 2.969883
  H 1.818733 1.904554 2.425825
  H 3.888953 0.611081 4.269177
  H 2.613880 1.716074 4.763488
  H 3.914721 2.291363 3.730259
  H 2.530920 -0.493501 -1.623062
  H 5.233514 0.217678 -0.336745
  H 4.952293 -2.512109 -3.347502
  H 4.765723 -1.039172 -4.215940
 22
 1.142677
  H 1.528733 0.591116 0.287507
  C 2.600896 0.448426 0.252027
  C 3.335613 0.696156 1.492129
  C 2.460033 1.008044 2.698995
  C 3.296619 1.239925 3.952228
  C 3.161342 0.022098 -0.928401
  C 4.547153 -0.007612 -1.182977
  C 5.158245 -0.702694 -2.197467
  C 4.535566 -1.714558 -3.039943
  H 3.484968 -1.876969 -2.826921
  H 6.211962 -0.523211 -2.367288
  H 4.027067 1.535471 1.324455
  H 3.997283 -0.147975 1.720380
  H 1.772156 0.179062 2.877477
  H 1.856748 1.896105 2.499916
  H 3.896363 0.364003 4.188340
  H 2.653617 1.444646 4.804281
  H 3.963462 2.089562 3.824828
  H 2.491298 -0.263528 -1.728066
  H 5.157602 0.628639 -0.556030
  H 5.080211 -2.656436 -2.935798
  H 4.675581 -1.445884 -4.090664
 22
 4.103957
  H 1.506831 0.807428 0.214907
  C 2.570460 0.622142 0.148638
  C 3.332524 0.714172 1.396751
  C 2.489573 0.910134 2.648542
  C 3.354514 1.001123 3.900481
  C 3.118290 0.282782 -1.057342
  C 4.509166 0.258065 -1.339295
  C 5.151389 -0.653024 -2.129031
  C 4.544648 -1.858468 -2.685309
  H 3.487555 -1.950714 -2.459556
  H 6.205845 -0.509919 -2.323567
  H 4.033490 1.557873 1.294175
  H 3.989444 -0.154067 1.519304
  H 1.795277 0.073952 2.756584
  H 1.891076 1.818820 2.555679
  H 3.949675 0.100222 4.030050
  H 2.731578 1.120604 4.783114
  H 4.027978 1.853461 3.848389
  H 2.443466 0.054787 -1.874651
  H 5.080817 1.066064 -0.896348
  H 5.074357 -2.741704 -2.321491
  H 4.707885 -1.873810 -3.766182
 22
 9.193264
  H 1.426897 0.917036 0.186472
  C 2.485113 0.740545 0.050712
  C 3.316168 0.729363 1.260861
  C 2.545218 0.799509 2.568591
  C 3.474350 0.795928 3.776557
  C 2.972038 0.503328 -1.196213
  C 4.361551 0.498745 -1.549805
  C 5.097614 -0.519063 -2.054350
  C 4.588426 -1.876966 -2.268016
  H 3.534775 -1.970901 -2.023308
  H 6.137654 -0.346482 -2.293280
  H 4.004537 1.587383 1.192634
  H 3.987637 -0.136304 1.268116
  H 1.868995 -0.055931 2.640048
  H 1.926705 1.699640 2.588911
  H 4.085312 -0.103426 3.797935
  H 2.897783 0.830766 4.697260
  H 4.135512 1.659275 3.762740
  H 2.263392 0.364028 -2.006711
  H 4.823980 1.453078 -1.314783
  H 5.164847 -2.595219 -1.682651
  H 4.762689 -2.158276 -3.309214
 22
 14.590887
  H 1.325122 0.837329 0.204293
  C 2.380121 0.739008 -0.016345
  C 3.304124 0.709599 1.122753
  C 2.644866 0.646915 2.488266
  C 3.657532 0.619609 3.625035
  C 2.782297 0.615121 -1.300814
  C 4.162261 0.656111 -1.732337
  C 5.010662 -0.374421 -1.942464
  C 4.627407 -1.792464 -1.819032
  H 3.578694 -1.912732 -1.562540
  H 6.037409 -0.170079 -2.218029
  H 3.943195 1.604550 1.054115
  H 4.027852 -0.109823 1.016471
  H 2.019365 -0.247793 2.550311
  H 1.973654 1.500520 2.618761
  H 4.319383 -0.239520 3.543120
  H 3.148685 0.559796 4.583481
  H 4.268757 1.520357 3.625873
  H 2.035814 0.573045 -2.083271
  H 4.511078 1.688637 -1.775974
  H 5.245759 -2.299368 -1.078800
  H 4.839478 -2.293334 -2.766825
 22
 13.914147
  H 1.238863 0.775346 0.311474
  C 2.270523 0.695190 -0.000491
  C 3.295211 0.708521 1.047266
  C 2.750284 0.542414 2.455993
  C 3.866405 0.536100 3.489255
  C 2.554242 0.636815 -1.328679
  C 3.881975 0.604736 -1.873664
  C 4.892876 -0.272227 -1.832940
  C 4.724413 -1.715162 -1.562234
  H 3.694189 -1.964648 -1.329847
  H 5.890607 0.046872 -2.105537
  H 3.852770 1.653173 1.007693
  H 4.043055 -0.057573 0.812891
  H 2.189794 -0.395314 2.521898
  H 2.057043 1.353786 2.686698
  H 4.566943 -0.268612 3.298362
  H 3.457323 0.396591 4.484220
  H 4.412439 1.473460 3.482616
  H 1.756518 0.749725 -2.054530
  H 4.005213 1.654552 -2.162367
  H 5.378583 -1.997112 -0.738416
  H 5.049792 -2.305788 -2.418903
 22
 26.856128
  H 1.196563 0.920285 0.417606
  C 2.211208 0.742827 0.088051
  C 3.265438 0.716144 1.103364
  C 2.756744 0.651782 2.538450
  C 3.907990 0.587040 3.535766
  C 2.424113 0.572973 -1.251292
  C 3.708171 0.379073 -1.849234
  C 4.830011 -0.292807 -1.946497
  C 4.936156 -1.770101 -1.765849
  H 3.979463 -2.207756 -1.497044
  H 5.743124 0.200420 -2.251790
  H 3.904458 1.604908 1.002269
  H 3.942652 -0.123138 0.897717
  H 2.122921 -0.228515 2.662247
  H 2.142945 1.527940 2.756205
  H 4.532583 -0.284041 3.352656
  H 3.526008 0.517911 4.551058
  H 4.530669 1.476447 3.472236
  H 1.575970 0.598905 -1.925580
  H 3.598812 1.498122 -1.973530
  H 5.668173 -1.975527 -0.986581
  H 5.297873 -2.231891 -2.682036
 22
 37.667972
  H 1.217527 1.067688 0.450264
  C 2.217816 0.811238 0.136161
  C 3.269221 0.729637 1.156740
  C 2.741358 0.729182 2.589896
  C 3.879509 0.609691 3.597324
  C 2.429116 0.584926 -1.217753
  C 3.651861 0.195000 -1.803361
  C 4.799896 -0.359479 -2.051696
  C 5.062381 -1.827363 -1.935699
  H 4.187238 -2.362369 -1.581315
  H 5.631515 0.220445 -2.432464
  H 3.962720 1.574949 1.045215
  H 3.885666 -0.160383 0.982114
  H 2.052511 -0.106451 2.725542
  H 2.187879 1.650183 2.781503
  H 4.446065 -0.304508 3.435913
  H 3.488529 0.587214 4.611426
  H 4.559620 1.454944 3.518454
  H 1.557228 0.590519 -1.865181
  H 3.391795 1.389971 -1.829761
  H 5.889557 -1.983331 -1.246502
  H 5.360029 -2.222137 -2.904289
 22
 41.433179
  H 1.221453 1.103312 0.467110
  C 2.231126 0.877864 0.165676
  C 3.280160 0.793194 1.188312
  C 2.736538 0.730515 2.616298
  C 3.867353 0.614498 3.632102
  C 2.480182 0.659124 -1.228604
  C 3.671185 0.095188 -1.719361
  C 4.784695 -0.431138 -2.084851
  C 5.087557 -1.900170 -2.018608
  H 4.255348 -2.461224 -1.606334
  H 5.581362 0.164394 -2.520138
  H 3.945434 1.664875 1.115976
  H 3.923388 -0.074019 0.994307
  H 2.073119 -0.130126 2.717904
  H 2.152584 1.627577 2.829271
  H 4.466902 -0.273886 3.445364
  H 3.467045 0.543012 4.640694
  H 4.518585 1.484948 3.590506
  H 1.603274 0.582581 -1.864671
  H 3.137412 1.536061 -1.626624
  H 5.968123 -2.047227 -1.398086
  H 5.314040 -2.264394 -3.017600
 22
 38.680342
  H 1.276397 1.289636 0.445902
  C 2.264111 0.973699 0.153790
  C 3.292979 0.789168 1.173659
  C 2.744729 0.748398 2.601409
  C 3.863987 0.529223 3.612696
  C 2.505979 0.737961 -1.261808
  C 3.669422 0.081647 -1.705396
  C 4.768980 -0.463334 -2.061469
  C 5.105762 -1.926004 -1.966595
  H 4.291712 -2.492173 -1.526688
  H 5.560870 0.131249 -2.512750
  H 4.024987 1.606936 1.114434
  H 3.869378 -0.119766 0.959725
  H 2.016806 -0.059517 2.690945
  H 2.233507 1.685328 2.828448
  H 4.388290 -0.402860 3.414705
  H 3.460620 0.479731 4.621009
  H 4.584308 1.343478 3.578080
  H 1.614581 0.566359 -1.866097
  H 2.885260 1.747304 -1.552101
  H 6.001270 -2.039942 -1.360742
  H 5.318117 -2.309795 -2.961294
 22
 36.373408
  H 1.304716 1.401906 0.438634
  C 2.259671 0.988303 0.155688
  C 3.266991 0.721311 1.174508
  C 2.754220 0.804042 2.610068
  C 3.869463 0.515633 3.609876
  C 2.507449 0.754219 -1.262746
  C 3.681540 0.087298 -1.660857
  C 4.795276 -0.440246 -1.994647
  C 5.145304 -1.902272 -2.000404
  H 4.316891 -2.507831 -1.646717
  H 5.607766 0.190182 -2.351647
  H 4.092533 1.439045 1.056230
  H 3.731194 -0.254985 0.987229
  H 1.948937 0.082166 2.752704
  H 2.348475 1.798590 2.801228
  H 4.284654 -0.479445 3.452166
  H 3.488799 0.563732 4.629780
  H 4.674292 1.244199 3.515944
  H 1.620909 0.382411 -1.788413
  H 2.622523 1.771510 -1.684870
  H 6.012113 -2.059629 -1.363162
  H 5.408334 -2.203413 -3.010730
