 22
 0.000000
  C 0.931775 0.047166 0.299828
  C 2.417006 0.060734 0.059350
  C 3.238578 -0.010761 1.326441
  H 2.595393 -0.060101 2.200765
  C 3.004746 0.129103 -1.152257
  C 2.353746 0.206263 -2.519710
  C 0.839636 0.216252 -2.696681
  H 0.621278 0.276429 -3.763124
  C 4.466707 0.133987 -1.238771
  C 5.210250 0.196038 -2.338537
  H 6.286556 0.192480 -2.275461
  H 0.719492 -0.012918 1.364584
  H 0.461033 -0.809783 -0.174691
  H 0.461036 0.952060 -0.075270
  H 3.877292 0.865633 1.432158
  H 3.877293 -0.893479 1.332896
  H 2.742704 -0.641462 -3.093956
  H 2.742704 1.113204 -2.994940
  H 0.381582 1.075428 -2.216815
  H 0.381573 -0.691463 -2.316509
  H 4.996960 0.081071 -0.300958
  H 4.815882 0.252432 -3.337978
 22
 10.575891
  C 0.819577 0.047231 0.298659
  C 2.430732 0.062701 0.024497
  C 3.320890 -0.015057 1.402580
  H 2.672763 -0.064076 2.271232
  C 3.011282 0.130386 -1.175003
  C 2.359911 0.207443 -2.540638
  C 0.846424 0.217247 -2.714333
  H 0.625914 0.277370 -3.779847
  C 4.473168 0.135106 -1.258612
  C 5.219823 0.197104 -2.357428
  H 6.295593 0.193375 -2.291320
  H 0.621574 -0.012926 1.364714
  H 0.350248 -0.809442 -0.172267
  H 0.350250 0.951447 -0.072901
  H 3.955885 0.861192 1.505865
  H 3.955889 -0.897359 1.406636
  H 2.748220 -0.640360 -3.115030
  H 2.748221 1.114482 -3.016008
  H 0.389652 1.076315 -2.233597
  H 0.389648 -0.690451 -2.333287
  H 5.000557 0.082075 -0.318761
  H 4.827647 0.253546 -3.357746
 22
 34.034715
  C 0.714047 0.046366 0.313995
  C 2.443531 0.065595 -0.026799
  C 3.390996 -0.018917 1.470996
  H 2.720294 -0.066659 2.317015
  C 3.015048 0.132198 -1.207119
  C 2.364628 0.209121 -2.570367
  C 0.852540 0.218263 -2.732356
  H 0.623340 0.278265 -3.795710
  C 4.480187 0.136194 -1.277899
  C 5.235924 0.197685 -2.367717
  H 6.310377 0.193306 -2.290104
  H 0.566368 -0.014018 1.384080
  H 0.252716 -0.812055 -0.147832
  H 0.252717 0.951294 -0.048328
  H 4.013495 0.859437 1.564455
  H 4.013503 -0.902209 1.465052
  H 2.751401 -0.639174 -3.144997
  H 2.751402 1.116672 -3.045918
  H 0.400583 1.077150 -2.247313
  H 0.400581 -0.689735 -2.347012
  H 4.995190 0.082753 -0.330776
  H 4.852744 0.254336 -3.371744
 22
 61.792385
  C 0.599601 0.044620 0.344945
  C 2.447389 0.067159 -0.054517
  C 3.445784 -0.024367 1.567571
  H 2.746888 -0.070793 2.390296
  C 3.031422 0.134733 -1.252040
  C 2.377857 0.211578 -2.613911
  C 0.863186 0.219341 -2.751468
  H 0.614814 0.279112 -3.810757
  C 4.500323 0.138265 -1.314600
  C 5.261995 0.199666 -2.402830
  H 6.336431 0.194989 -2.319924
  H 0.495091 -0.016018 1.419511
  H 0.148648 -0.821184 -0.116415
  H 0.148650 0.956831 -0.016083
  H 4.059534 0.862137 1.651051
  H 4.059543 -0.914634 1.550795
  H 2.760519 -0.637369 -3.190893
  H 2.760522 1.120044 -3.091729
  H 0.420014 1.078063 -2.256923
  H 0.420013 -0.689559 -2.356665
  H 5.005627 0.084539 -0.362425
  H 4.882203 0.256414 -3.408569
 22
 88.214527
  C 0.505918 0.042893 0.375546
  C 2.450798 0.071457 -0.130702
  C 3.483467 -0.028178 1.635074
  H 2.710398 -0.070819 2.390715
  C 3.041939 0.137443 -1.300084
  C 2.391960 0.214300 -2.662148
  C 0.871265 0.218911 -2.743847
  H 0.573720 0.277927 -3.789766
  C 4.510671 0.138985 -1.327411
  C 5.290163 0.200072 -2.410034
  H 6.364094 0.194621 -2.313356
  H 0.516303 -0.017983 1.454408
  H 0.091044 -0.839701 -0.089941
  H 0.091052 0.972255 0.012308
  H 4.066835 0.880384 1.684935
  H 4.066840 -0.936577 1.582410
  H 2.765874 -0.636644 -3.240100
  H 2.765886 1.124876 -3.140717
  H 0.451972 1.075469 -2.223043
  H 0.451965 -0.690811 -2.322696
  H 4.983188 0.084404 -0.360077
  H 4.918496 0.257001 -3.418952
 22
 115.951602
  C 0.399654 0.041570 0.399000
  C 2.456796 0.073658 -0.169687
  C 3.549573 -0.032853 1.717913
  H 2.763776 -0.073870 2.444767
  C 3.052526 0.139493 -1.336400
  C 2.400289 0.216393 -2.699225
  C 0.883179 0.219770 -2.759063
  H 0.568716 0.278489 -3.799723
  C 4.519685 0.140326 -1.351148
  C 5.290179 0.200096 -2.410434
  H 6.361444 0.194327 -2.308140
  H 0.451517 -0.018759 1.468147
  H 0.002410 -0.837249 -0.065212
  H 0.002417 0.967037 0.036604
  H 4.120362 0.873471 1.747987
  H 4.120365 -0.936799 1.645838
  H 2.770870 -0.634324 -3.280033
  H 2.770867 1.127034 -3.180639
  H 0.473701 1.074699 -2.231620
  H 0.473706 -0.689062 -2.331142
  H 4.982548 0.085317 -0.376223
  H 4.921730 0.257028 -3.419400
 22
 139.833851
  C 0.306673 0.039562 0.434648
  C 2.441044 0.076455 -0.219246
  C 3.600080 -0.038459 1.817207
  H 2.771639 -0.076061 2.483525
  C 3.050736 0.141614 -1.373969
  C 2.402872 0.218711 -2.740279
  C 0.886205 0.220292 -2.768384
  H 0.543891 0.278495 -3.799906
  C 4.521628 0.140762 -1.358827
  C 5.313682 0.200672 -2.420594
  H 6.384990 0.194249 -2.306777
  H 0.451042 -0.019927 1.488852
  H -0.050137 -0.842988 -0.039767
  H -0.050129 0.969886 0.062534
  H 4.147593 0.874952 1.795212
  H 4.147585 -0.943584 1.692595
  H 2.770040 -0.631885 -3.322778
  H 2.770039 1.129426 -3.223386
  H 0.492102 1.073589 -2.229830
  H 0.492109 -0.688172 -2.329242
  H 4.959430 0.084975 -0.370132
  H 4.952207 0.257813 -3.433299
 22
 161.479262
  C 0.203540 0.038668 0.450509
  C 2.445112 0.078164 -0.249509
  C 3.669848 -0.043993 1.915340
  H 2.817475 -0.080915 2.569632
  C 3.059903 0.143306 -1.403951
  C 2.412092 0.220338 -2.769135
  C 0.890972 0.221105 -2.782813
  H 0.536530 0.279136 -3.811302
  C 4.527530 0.141994 -1.380665
  C 5.324448 0.201770 -2.440059
  H 6.395022 0.195116 -2.322128
  H 0.374261 -0.021130 1.510203
  H -0.144344 -0.856265 -0.034616
  H -0.144335 0.982499 0.069145
  H 4.215496 0.881721 1.877720
  H 4.215504 -0.959607 1.773816
  H 2.777252 -0.630938 -3.352980
  H 2.777254 1.131891 -3.253509
  H 0.501138 1.077064 -2.236773
  H 0.501145 -0.690846 -2.336531
  H 4.956591 0.086177 -0.391408
  H 4.966215 0.258941 -3.453342
 22
 179.193663
  C 0.100540 0.037550 0.470325
  C 2.444570 0.079988 -0.281864
  C 3.741615 -0.049374 2.010637
  H 2.881995 -0.084768 2.637833
  C 3.062545 0.144943 -1.432972
  C 2.415267 0.222029 -2.799107
  C 0.896602 0.221955 -2.797852
  H 0.530393 0.279688 -3.821027
  C 4.530472 0.142886 -1.396489
  C 5.332953 0.202249 -2.448554
  H 6.402729 0.195184 -2.323333
  H 0.302017 -0.021429 1.515460
  H -0.228584 -0.850856 -0.016322
  H -0.228576 0.975069 0.086716
  H 4.274053 0.872261 1.952254
  H 4.274046 -0.958579 1.848943
  H 2.777737 -0.628894 -3.384204
  H 2.777741 1.133375 -3.284766
  H 0.514094 1.075176 -2.247730
  H 0.514094 -0.687744 -2.347202
  H 4.949933 0.086673 -0.400213
  H 4.980190 0.259542 -3.464001
 22
 192.987192
  C -0.003765 0.036356 0.491488
  C 2.444837 0.081572 -0.309926
  C 3.815075 -0.054882 2.108323
  H 2.935975 -0.089390 2.719850
  C 3.066443 0.146512 -1.460800
  C 2.421819 0.223623 -2.827380
  C 0.901135 0.222872 -2.814073
  H 0.524649 0.280447 -3.834487
  C 4.533175 0.143786 -1.412427
  C 5.342358 0.202912 -2.460298
  H 6.411182 0.195490 -2.328720
  H 0.227486 -0.022601 1.536262
  H -0.319921 -0.859836 -0.004829
  H -0.319913 0.982696 0.099145
  H 4.341924 0.875187 2.030178
  H 4.341932 -0.970267 1.926042
  H 2.782749 -0.627938 -3.413272
  H 2.782745 1.135682 -3.313753
  H 0.522882 1.077203 -2.258099
  H 0.522885 -0.688580 -2.357738
  H 4.943033 0.087406 -0.413165
  H 4.994625 0.260293 -3.477304
 22
 203.216703
  C -0.109493 0.035077 0.514133
  C 2.443844 0.083123 -0.337443
  C 3.889664 -0.060318 2.204591
  H 3.002790 -0.093544 2.793392
  C 3.068142 0.147980 -1.486840
  C 2.426894 0.225125 -2.854014
  C 0.907028 0.223719 -2.829082
  H 0.521217 0.281048 -3.845109
  C 4.534297 0.144528 -1.425609
  C 5.349505 0.203318 -2.467529
  H 6.417510 0.195510 -2.329061
  H 0.149467 -0.023176 1.546424
  H -0.408196 -0.857258 0.013922
  H -0.408188 0.978026 0.117487
  H 4.405142 0.867855 2.106512
  H 4.405136 -0.971556 2.002719
  H 2.785923 -0.626354 -3.440524
  H 2.785924 1.137184 -3.341016
  H 0.534102 1.076443 -2.269342
  H 0.534100 -0.686568 -2.368819
  H 4.935178 0.087889 -0.421777
  H 5.007075 0.260803 -3.486369
 22
 210.390798
  C -0.217655 0.033655 0.539350
  C 2.443952 0.084461 -0.361154
  C 3.965578 -0.065758 2.301046
  H 3.064501 -0.098205 2.876032
  C 3.070648 0.149331 -1.510787
  C 2.433368 0.226535 -2.879018
  C 0.912427 0.224629 -2.845250
  H 0.518879 0.281825 -3.858932
  C 4.536634 0.145239 -1.438201
  C 5.358116 0.203793 -2.475931
  H 6.425157 0.195638 -2.331337
  H 0.067165 -0.024435 1.568739
  H -0.503588 -0.863357 0.030897
  H -0.503580 0.982174 0.135039
  H 4.475010 0.867868 2.185186
  H 4.475011 -0.980425 2.080891
  H 2.791116 -0.625452 -3.465943
  H 2.791116 1.139143 -3.366374
  H 0.542819 1.077604 -2.281294
  H 0.542825 -0.686363 -2.380836
  H 4.929837 0.088441 -0.431538
  H 5.020609 0.261366 -3.496344
 22
 215.116387
  C -0.327527 0.032133 0.566347
  C 2.444627 0.085718 -0.383409
  C 4.041509 -0.071151 2.396606
  H 3.134749 -0.102677 2.955272
  C 3.072912 0.150552 -1.532397
  C 2.439818 0.227795 -2.901322
  C 0.919054 0.225447 -2.859714
  H 0.518992 0.282469 -3.870295
  C 4.538523 0.145854 -1.449091
  C 5.365156 0.204153 -2.482298
  H 6.431480 0.195678 -2.332050
  H -0.020994 -0.025387 1.585629
  H -0.599560 -0.862325 0.053897
  H -0.599552 0.978566 0.157778
  H 4.542341 0.861269 2.265284
  H 4.542341 -0.982880 2.161222
  H 2.796213 -0.624241 -3.488490
  H 2.796214 1.140478 -3.388913
  H 0.552884 1.077434 -2.292903
  H 0.552880 -0.684904 -2.392342
  H 4.924991 0.088911 -0.439850
  H 5.032104 0.261809 -3.504171
 22
 217.974719
  C -0.439147 0.030440 0.596334
  C 2.446610 0.086782 -0.402287
  C 4.117696 -0.076585 2.492904
  H 3.201808 -0.107551 3.041660
  C 3.075837 0.151620 -1.551342
  C 2.446504 0.228925 -2.921350
  C 0.925149 0.226244 -2.873861
  H 0.519801 0.283162 -3.882606
  C 4.541900 0.146394 -1.458662
  C 5.373284 0.204506 -2.488557
  H 6.438770 0.195758 -2.333469
  H -0.112999 -0.026878 1.612042
  H -0.701015 -0.866516 0.077769
  H -0.701007 0.980043 0.181970
  H 4.613712 0.858960 2.348610
  H 4.613712 -0.989958 2.244279
  H 2.801878 -0.623489 -3.508645
  H 2.801876 1.141996 -3.409025
  H 0.561237 1.078050 -2.304256
  H 0.561241 -0.684230 -2.403698
  H 4.923085 0.089340 -0.447468
  H 5.044161 0.262232 -3.511678
