17

H 1.329076653273768 0.03817114405602779 0.21931914724010868
C 2.391425 0.042963 0.091675
C 3.233957 -0.026184 1.35737
H 2.7316782961868316 -0.06245481893371311 2.3014571418410705
C 2.991432 0.115832 -1.115578
C 2.338768 0.210693 -2.483035
H 1.2806357469467318 0.20773353940977324 -2.6419292309885085
C 4.447412 0.122099 -1.21009
C 5.183635 0.195514 -2.320017
O 6.543367 0.196542 -2.337128
H 3.890998 0.849357 1.380981
H 3.8714 -0.913904 1.30925
H 2.745471 -0.621047 -3.068719
H 2.723436 1.130608 -2.937263
H 4.996853 0.059763 -0.281317
H 4.799792 0.262574 -3.324035
H 6.880235 0.136251 -1.432943
