 32
 0.000000
  C 0.914862 0.046754 0.267292
  C 2.407346 0.056628 0.082147
  C 3.244136 -0.015958 1.356647
  C 2.522814 -0.087442 2.700853
  C 3.517040 -0.151077 3.854401
  C 2.998488 0.126410 -1.125097
  C 2.353486 0.205189 -2.497234
  C 0.841634 0.217090 -2.713929
  C 0.513206 0.302621 -4.201718
  C 4.457710 0.131863 -1.212697
  C 5.196995 0.195873 -2.320024
  O 6.557095 0.197201 -2.336164
  H 0.611085 -0.013652 1.307272
  H 0.470969 -0.819413 -0.217615
  H 0.472083 0.963920 -0.113739
  H 3.891270 0.867231 1.388080
  H 3.889541 -0.899146 1.295973
  H 1.888144 -0.975950 2.742489
  H 1.890633 0.793213 2.837968
  H 4.151400 -1.032215 3.773830
  H 2.986477 -0.201537 4.803514
  H 4.153889 0.731816 3.868992
  H 2.740655 -0.642772 -3.073541
  H 2.740004 1.113982 -2.972395
  H 0.389562 1.077408 -2.221486
  H 0.390253 -0.694428 -2.323517
  H 0.920083 1.212612 -4.639547
  H -0.565691 0.310493 -4.345843
  H 0.920766 -0.550784 -4.741086
  H 5.003199 0.078224 -0.280701
  H 4.819951 0.253852 -3.327966
  H 6.886684 0.145035 -1.429310
 32
 6.074338
  C 0.837325 0.077544 0.304676
  C 2.379919 0.073176 0.123634
  C 3.186908 0.044277 1.356184
  C 2.532514 -0.057165 2.735062
  C 3.600011 -0.203825 3.813838
  C 2.973229 0.135233 -1.088222
  C 2.345428 0.194900 -2.481707
  C 0.841782 0.193698 -2.737733
  C 0.579033 0.266617 -4.241012
  C 4.426309 0.147602 -1.175901
  C 5.168652 0.205488 -2.285253
  O 6.526506 0.212309 -2.295583
  H 0.574291 0.008330 1.357226
  H 0.381126 -0.758784 -0.199015
  H 0.406972 0.990943 -0.075688
  H 3.881521 0.900154 1.386609
  H 3.727329 -0.852059 1.088238
  H 1.869671 -0.919663 2.789261
  H 1.947365 0.840263 2.935689
  H 4.188560 -1.103171 3.648219
  H 3.140986 -0.271674 4.796311
  H 4.270941 0.651940 3.810162
  H 2.757809 -0.654159 -3.039869
  H 2.743416 1.102190 -2.951240
  H 0.369282 1.049603 -2.265498
  H 0.385714 -0.714241 -2.355032
  H 1.004247 1.175061 -4.662197
  H -0.490156 0.266533 -4.440311
  H 1.020904 -0.586913 -4.750752
  H 4.980090 0.107033 -0.245805
  H 4.791079 0.253751 -3.293208
  H 6.858647 0.169295 -1.389275
 32
 18.025985
  C 0.840476 0.192553 0.307595
  C 2.388609 0.142658 0.135297
  C 3.182445 0.130951 1.370949
  C 2.539927 -0.043892 2.742830
  C 3.608939 -0.314618 3.799135
  C 2.971805 0.174488 -1.078158
  C 2.347559 0.183626 -2.466235
  C 0.841857 0.141572 -2.733274
  C 0.588835 0.177115 -4.237837
  C 4.432908 0.189728 -1.169496
  C 5.173055 0.234342 -2.276967
  O 6.527318 0.241425 -2.285591
  H 0.583659 0.135957 1.359736
  H 0.355532 -0.635506 -0.206171
  H 0.448944 1.134318 -0.082378
  H 3.928376 0.934006 1.411065
  H 3.561271 -0.768819 0.929190
  H 1.838403 -0.881756 2.736814
  H 1.993668 0.865351 3.014798
  H 4.158925 -1.222643 3.559260
  H 3.155297 -0.436243 4.780790
  H 4.316152 0.511343 3.850012
  H 2.780688 -0.668077 -2.998390
  H 2.727681 1.085405 -2.955762
  H 0.343574 0.998024 -2.280796
  H 0.404433 -0.774557 -2.335308
  H 0.996382 1.087189 -4.674217
  H -0.479222 0.146490 -4.445591
  H 1.057194 -0.675404 -4.726710
  H 4.991455 0.166631 -0.243906
  H 4.798007 0.274705 -3.283897
  H 6.855131 0.208660 -1.386954
 32
 32.383807
  C 0.837700 0.205318 0.308041
  C 2.385360 0.147998 0.141717
  C 3.160833 0.168768 1.382848
  C 2.546983 -0.014220 2.751339
  C 3.624659 -0.349601 3.776577
  C 2.971451 0.178171 -1.077638
  C 2.351348 0.181465 -2.463203
  C 0.848621 0.118042 -2.731198
  C 0.595115 0.151704 -4.238769
  C 4.431330 0.192233 -1.162231
  C 5.174690 0.247276 -2.266056
  O 6.551419 0.254230 -2.271810
  H 0.570195 0.155541 1.353959
  H 0.341713 -0.608535 -0.200677
  H 0.470181 1.144842 -0.080302
  H 3.934801 0.928623 1.406408
  H 3.423045 -0.716412 0.828154
  H 1.817303 -0.820943 2.744004
  H 2.042140 0.902615 3.057886
  H 4.136452 -1.271844 3.503883
  H 3.185581 -0.477758 4.763921
  H 4.363486 0.448942 3.831903
  H 2.797503 -0.668481 -2.996692
  H 2.721184 1.090093 -2.956465
  H 0.336630 0.964490 -2.278573
  H 0.426009 -0.804033 -2.335837
  H 0.988223 1.068427 -4.674768
  H -0.472158 0.104642 -4.445243
  H 1.076495 -0.692050 -4.730163
  H 4.986930 0.155247 -0.229417
  H 4.801225 0.300451 -3.276225
  H 6.880460 0.212478 -1.363627
 32
 44.752158
  C 0.852998 0.178305 0.292538
  C 2.405346 0.134244 0.137340
  C 3.158114 0.196978 1.395771
  C 2.539539 0.028477 2.764235
  C 3.611944 -0.361276 3.785830
  C 2.991863 0.173992 -1.090347
  C 2.358969 0.183502 -2.474526
  C 0.859026 0.102406 -2.721214
  C 0.587837 0.146422 -4.222669
  C 4.453409 0.187194 -1.177707
  C 5.199795 0.270686 -2.285421
  O 6.551612 0.262099 -2.291320
  H 0.580575 0.129042 1.342225
  H 0.361651 -0.641128 -0.225226
  H 0.486188 1.123621 -0.100706
  H 3.971558 0.915377 1.408192
  H 3.311975 -0.704386 0.771360
  H 1.773318 -0.751948 2.755709
  H 2.069714 0.966190 3.085413
  H 4.084444 -1.300255 3.503561
  H 3.172968 -0.480299 4.774260
  H 4.382298 0.405406 3.844949
  H 2.808926 -0.653734 -3.019692
  H 2.711825 1.098359 -2.964441
  H 0.340568 0.939512 -2.252772
  H 0.454078 -0.832797 -2.327333
  H 0.962977 1.072636 -4.653555
  H -0.481305 0.086256 -4.417649
  H 1.075350 -0.685950 -4.726796
  H 5.004742 0.115082 -0.247580
  H 4.826556 0.360242 -3.287062
  H 6.881129 0.187355 -1.373704
 32
 53.915315
  C 0.862320 0.168449 0.287205
  C 2.409843 0.129198 0.131820
  C 3.148536 0.218767 1.395327
  C 2.539452 0.056031 2.771121
  C 3.610781 -0.375656 3.776727
  C 3.004515 0.173326 -1.103840
  C 2.365024 0.183346 -2.487765
  C 0.861442 0.088384 -2.719518
  C 0.572266 0.134893 -4.219755
  C 4.458977 0.186934 -1.177263
  C 5.218494 0.286474 -2.274339
  O 6.594176 0.268326 -2.266335
  H 0.578852 0.120400 1.337487
  H 0.370626 -0.646942 -0.232057
  H 0.498669 1.110729 -0.104123
  H 3.993957 0.899673 1.394525
  H 3.205968 -0.690491 0.725962
  H 1.755393 -0.695635 2.769816
  H 2.102768 0.999440 3.109098
  H 4.052814 -1.328263 3.480774
  H 3.179816 -0.490471 4.770668
  H 4.406220 0.367562 3.834152
  H 2.820275 -0.649628 -3.043100
  H 2.705860 1.106041 -2.980208
  H 0.340392 0.917680 -2.242981
  H 0.470637 -0.850979 -2.324631
  H 0.933943 1.067833 -4.651848
  H -0.500193 0.064578 -4.403223
  H 1.063234 -0.692143 -4.732839
  H 4.997169 0.094054 -0.237384
  H 4.851570 0.399048 -3.282688
  H 6.905118 0.176500 -1.365952
 32
 59.513750
  C 0.859006 0.141291 0.294577
  C 2.393832 0.112879 0.133269
  C 3.141504 0.233979 1.400054
  C 2.560779 0.089663 2.769563
  C 3.630135 -0.372967 3.752479
  C 2.994553 0.166337 -1.108058
  C 2.361047 0.184674 -2.491110
  C 0.857649 0.078190 -2.733335
  C 0.575958 0.135134 -4.233639
  C 4.454549 0.178292 -1.169350
  C 5.226937 0.300495 -2.255945
  O 6.585855 0.269977 -2.231921
  H 0.579580 0.089425 1.337992
  H 0.367017 -0.671076 -0.224900
  H 0.488286 1.084785 -0.092316
  H 4.020960 0.868954 1.375305
  H 3.102057 -0.699146 0.692499
  H 1.753265 -0.637530 2.784779
  H 2.161299 1.042816 3.115512
  H 4.036192 -1.338452 3.449626
  H 3.211998 -0.473344 4.752786
  H 4.448689 0.345886 3.794725
  H 2.824678 -0.634187 -3.049291
  H 2.694239 1.109712 -2.971126
  H 0.326026 0.898493 -2.253191
  H 0.472698 -0.868870 -2.349116
  H 0.931004 1.073933 -4.655018
  H -0.493670 0.056736 -4.423651
  H 1.076905 -0.681859 -4.750785
  H 4.983922 0.057262 -0.228659
  H 4.877061 0.443494 -3.255652
  H 6.887171 0.150245 -1.315582
 32
 63.099254
  C 0.868187 0.097759 0.279211
  C 2.399554 0.088433 0.128371
  C 3.143909 0.247554 1.404023
  C 2.559217 0.124041 2.788319
  C 3.624589 -0.361060 3.784219
  C 3.009959 0.156498 -1.119125
  C 2.369595 0.190375 -2.508043
  C 0.866382 0.074473 -2.736710
  C 0.567962 0.147844 -4.235232
  C 4.455337 0.161965 -1.180593
  C 5.224835 0.311839 -2.268058
  O 6.593739 0.268120 -2.251109
  H 0.583974 0.037689 1.330233
  H 0.391217 -0.723650 -0.251496
  H 0.489207 1.038105 -0.106974
  H 4.049409 0.835602 1.363389
  H 3.029649 -0.722286 0.671495
  H 1.732008 -0.582159 2.811041
  H 2.180790 1.094131 3.130806
  H 4.007939 -1.341694 3.489466
  H 3.202570 -0.442710 4.787965
  H 4.462395 0.339158 3.820820
  H 2.839308 -0.621347 -3.085113
  H 2.693670 1.130525 -2.981276
  H 0.333162 0.883543 -2.240287
  H 0.493820 -0.879286 -2.360032
  H 0.911423 1.096821 -4.649304
  H -0.504720 0.062522 -4.415710
  H 1.071359 -0.659644 -4.768761
  H 4.990760 0.001731 -0.242451
  H 4.869334 0.494437 -3.267323
  H 6.895650 0.118052 -1.348197
 32
 65.706328
  C 0.857743 0.048160 0.269429
  C 2.390506 0.059651 0.128564
  C 3.133678 0.261499 1.405904
  C 2.570451 0.152500 2.784770
  C 3.629500 -0.331763 3.762510
  C 3.012050 0.144982 -1.122670
  C 2.378471 0.196906 -2.502247
  C 0.868671 0.072842 -2.733236
  C 0.566146 0.165520 -4.227493
  C 4.456927 0.140626 -1.178853
  C 5.230615 0.317875 -2.258048
  O 6.602106 0.255046 -2.239953
  H 0.572785 -0.022374 1.301030
  H 0.401003 -0.776422 -0.268922
  H 0.464539 0.988891 -0.115034
  H 4.064366 0.806564 1.347205
  H 2.957093 -0.758122 0.654507
  H 1.738842 -0.539445 2.824146
  H 2.209214 1.124052 3.122988
  H 3.994463 -1.310454 3.474325
  H 3.220312 -0.399184 4.763120
  H 4.468247 0.353424 3.783100
  H 2.854304 -0.599359 -3.089905
  H 2.695425 1.143805 -2.957292
  H 0.330879 0.868654 -2.225468
  H 0.504418 -0.886109 -2.370758
  H 0.900171 1.119390 -4.626907
  H -0.502468 0.075020 -4.406270
  H 1.072461 -0.627225 -4.771820
  H 4.987400 -0.060360 -0.249353
  H 4.881625 0.541895 -3.244815
  H 6.899177 0.069017 -1.342109
 32
 67.669330
  C 0.839029 0.009443 0.269184
  C 2.372204 0.034967 0.125672
  C 3.120809 0.282786 1.398911
  C 2.581670 0.175679 2.790828
  C 3.663627 -0.308890 3.767489
  C 3.000647 0.134765 -1.131127
  C 2.375979 0.202315 -2.507592
  C 0.872907 0.072849 -2.749493
  C 0.578514 0.183152 -4.247500
  C 4.442923 0.120626 -1.178438
  C 5.225267 0.318052 -2.248206
  O 6.593977 0.238587 -2.223858
  H 0.555152 -0.071980 1.310143
  H 0.394070 -0.816370 -0.272995
  H 0.437022 0.938435 -0.105064
  H 4.060005 0.789745 1.318973
  H 2.892583 -0.792704 0.628376
  H 1.742615 -0.519333 2.846877
  H 2.222956 1.158264 3.131595
  H 4.026850 -1.298016 3.478678
  H 3.265179 -0.370335 4.781920
  H 4.510326 0.380672 3.773023
  H 2.861558 -0.584857 -3.105681
  H 2.690629 1.161772 -2.948210
  H 0.325529 0.861676 -2.233170
  H 0.511433 -0.895759 -2.400175
  H 0.910134 1.146956 -4.633735
  H -0.490639 0.088341 -4.434512
  H 1.094466 -0.601716 -4.800484
  H 4.965977 -0.112958 -0.252206
  H 4.883720 0.575193 -3.230632
  H 6.884532 0.022554 -1.323086
 32
 68.653796
  C 0.832374 -0.037001 0.258491
  C 2.361497 -0.000096 0.128678
  C 3.103747 0.309489 1.394258
  C 2.588617 0.193023 2.782884
  C 3.682310 -0.272364 3.747657
  C 3.002511 0.117081 -1.134199
  C 2.375919 0.207322 -2.516391
  C 0.880857 0.074738 -2.750302
  C 0.578595 0.206766 -4.238771
  C 4.437711 0.089940 -1.168964
  C 5.233688 0.313288 -2.228567
  O 6.598698 0.215097 -2.194631
  H 0.543926 -0.129969 1.300489
  H 0.401150 -0.870807 -0.296474
  H 0.418793 0.897896 -0.115658
  H 4.059473 0.792982 1.296877
  H 2.839355 -0.843799 0.608949
  H 1.761717 -0.508144 2.847762
  H 2.219410 1.171445 3.124764
  H 4.051981 -1.244845 3.462495
  H 3.299073 -0.335582 4.753795
  H 4.508638 0.419101 3.743516
  H 2.865855 -0.569927 -3.134894
  H 2.684914 1.182848 -2.943420
  H 0.333618 0.851572 -2.218415
  H 0.527392 -0.899830 -2.413819
  H 0.902357 1.176355 -4.610566
  H -0.489393 0.109386 -4.420476
  H 1.094298 -0.564766 -4.805557
  H 4.949977 -0.179418 -0.245191
  H 4.899477 0.614475 -3.213772
  H 6.874966 -0.034692 -1.306858
 32
 68.706098
  C 0.819477 -0.077006 0.253850
  C 2.348325 -0.031728 0.127164
  C 3.085111 0.343212 1.382019
  C 2.594527 0.202864 2.781365
  C 3.714000 -0.236679 3.735961
  C 3.001840 0.100129 -1.142042
  C 2.380768 0.211589 -2.523538
  C 0.874474 0.078441 -2.764660
  C 0.569733 0.231045 -4.256963
  C 4.433449 0.061495 -1.163419
  C 5.244160 0.304139 -2.207696
  O 6.614610 0.189307 -2.163367
  H 0.533022 -0.180234 1.290921
  H 0.401464 -0.900001 -0.299362
  H 0.400132 0.847631 -0.110109
  H 4.043135 0.820397 1.266195
  H 2.797619 -0.895810 0.577307
  H 1.781447 -0.523684 2.854248
  H 2.200788 1.177148 3.133506
  H 4.108862 -1.205986 3.441422
  H 3.340122 -0.313119 4.755233
  H 4.528362 0.483231 3.723742
  H 2.871887 -0.547448 -3.148269
  H 2.687312 1.186935 -2.929897
  H 0.322264 0.850635 -2.219522
  H 0.520758 -0.907347 -2.439721
  H 0.891437 1.207827 -4.616128
  H -0.500245 0.133595 -4.440494
  H 1.087853 -0.532655 -4.835983
  H 4.928364 -0.229606 -0.249916
  H 4.926611 0.635037 -3.171638
  H 6.881126 -0.092582 -1.275198
 32
 67.977602
  C 0.799750 -0.109675 0.245075
  C 2.334339 -0.059832 0.129375
  C 3.057898 0.382891 1.371498
  C 2.599800 0.206194 2.770489
  C 3.745211 -0.195657 3.704807
  C 3.000493 0.086693 -1.145788
  C 2.386891 0.217916 -2.522988
  C 0.879218 0.083616 -2.768346
  C 0.574883 0.253385 -4.252339
  C 4.428912 0.033109 -1.154265
  C 5.251209 0.288665 -2.189410
  O 6.610506 0.157438 -2.135021
  H 0.506908 -0.222530 1.283198
  H 0.383917 -0.942356 -0.324297
  H 0.379365 0.812657 -0.112592
  H 4.003130 0.863733 1.243278
  H 2.759079 -0.946210 0.548958
  H 1.815098 -0.551330 2.846918
  H 2.177575 1.153508 3.134732
  H 4.173676 -1.147269 3.396117
  H 3.387869 -0.294883 4.726525
  H 4.529967 0.555479 3.688156
  H 2.883101 -0.528872 -3.157650
  H 2.691963 1.198331 -2.912353
  H 0.328203 0.840972 -2.218243
  H 0.530502 -0.899487 -2.458294
  H 0.894017 1.237577 -4.599455
  H -0.493129 0.154971 -4.435883
  H 1.096021 -0.502643 -4.841624
  H 4.919595 -0.288407 -0.227851
  H 4.939035 0.654350 -3.163842
  H 6.863883 -0.148575 -1.253256
 32
 65.486998
  C 0.780795 -0.161011 0.233875
  C 2.312679 -0.105049 0.132671
  C 2.999799 0.440111 1.345553
  C 2.600033 0.200629 2.754646
  C 3.798577 -0.133263 3.653103
  C 2.993115 0.055063 -1.149291
  C 2.390872 0.222774 -2.525089
  C 0.892792 0.094478 -2.771198
  C 0.588888 0.295262 -4.253938
  C 4.403962 -0.017961 -1.138093
  C 5.248847 0.254775 -2.156235
  O 6.612807 0.111436 -2.083817
  H 0.484570 -0.281088 1.270482
  H 0.379279 -0.990274 -0.336894
  H 0.350301 0.767780 -0.126055
  H 3.934496 0.956436 1.197538
  H 2.717561 -1.015970 0.523136
  H 1.874178 -0.607265 2.834542
  H 2.120172 1.109799 3.149923
  H 4.286068 -1.046663 3.315928
  H 3.477125 -0.275409 4.683885
  H 4.527806 0.674253 3.629216
  H 2.888948 -0.507584 -3.178413
  H 2.696448 1.215673 -2.889720
  H 0.340662 0.843923 -2.201231
  H 0.543750 -0.899978 -2.477661
  H 0.907168 1.283611 -4.580026
  H -0.479959 0.200631 -4.440212
  H 1.108824 -0.446470 -4.857333
  H 4.866911 -0.351281 -0.219142
  H 4.958303 0.651388 -3.107347
  H 6.849801 -0.224260 -1.210080
