 16
 0.000000
  C 1.023062 0.132207 0.382493
  C 2.489264 0.133181 0.383353
  C 3.229729 0.604130 1.554553
  H 2.575175 0.927032 2.359032
  C 3.131898 -0.330790 -0.772193
  C 4.524034 -0.400820 -0.948580
  C 5.115933 -0.855550 -2.082026
  H 4.570553 -1.203161 -2.947737
  H 6.190337 -0.890229 -2.169388
  H 0.606518 0.508340 1.312503
  H 0.643352 -0.876924 0.205139
  H 0.645145 0.740571 -0.442761
  H 3.891000 1.428752 1.277909
  H 3.891923 -0.181947 1.925135
  H 2.506411 -0.660855 -1.592897
  H 5.154240 -0.072947 -0.132653
 16
 -0.117819
  C 1.050947 0.206997 0.342049
  C 2.512739 0.128927 0.378618
  C 3.232380 0.562394 1.576798
  H 2.573348 0.631754 2.437288
  C 3.163250 -0.404833 -0.738093
  C 4.556815 -0.435784 -0.929835
  C 5.109572 -0.863124 -2.095923
  H 4.499633 -1.222220 -2.908829
  H 6.174657 -0.851987 -2.249952
  H 0.631655 0.657996 1.235705
  H 0.632866 -0.795083 0.213311
  H 0.716289 0.757964 -0.540031
  H 3.643753 1.562642 1.403666
  H 4.083849 -0.076196 1.803092
  H 2.548758 -0.790984 -1.541710
  H 5.203361 -0.071735 -0.143934
 16
 1.415715
  C 1.085870 0.278658 0.293605
  C 2.542287 0.128508 0.381147
  C 3.225212 0.551384 1.602246
  H 2.587262 0.429600 2.466702
  C 3.175573 -0.548795 -0.663539
  C 4.560050 -0.507342 -0.923674
  C 5.086982 -0.831431 -2.130201
  H 4.458370 -1.117429 -2.959843
  H 6.148043 -0.797506 -2.306192
  H 0.673609 0.824308 1.137627
  H 0.630231 -0.714903 0.229774
  H 0.793815 0.783987 -0.624615
  H 3.427612 1.633689 1.534395
  H 4.175382 0.051127 1.760535
  H 2.548350 -1.008612 -1.418194
  H 5.217187 -0.158367 -0.139151
 16
 9.303114
  C 1.179063 0.343287 0.197240
  C 2.636883 0.142733 0.392108
  C 3.177556 0.548617 1.682968
  H 2.437400 0.390661 2.466309
  C 3.217182 -0.726333 -0.526417
  C 4.556951 -0.557008 -0.956438
  C 5.015141 -0.790030 -2.204993
  H 4.342642 -1.005775 -3.022741
  H 6.040691 -0.597766 -2.460146
  H 0.747327 0.976317 0.964808
  H 0.677967 -0.624463 0.198739
  H 0.974373 0.795668 -0.773175
  H 3.373450 1.625137 1.681552
  H 4.110728 0.048130 1.925012
  H 2.574917 -1.372482 -1.109722
  H 5.244303 -0.197898 -0.204150
 16
 31.235312
  C 1.343699 0.294640 0.177360
  C 2.877248 0.183623 0.466087
  C 3.028554 0.610236 1.856014
  H 2.142976 0.416946 2.450422
  C 3.255619 -0.702894 -0.525906
  C 4.567537 -0.556898 -1.069024
  C 4.929189 -0.776477 -2.347321
  H 4.196691 -0.926778 -3.126059
  H 5.962321 -0.798844 -2.641594
  H 0.836220 0.919854 0.908439
  H 0.916290 -0.700280 0.199382
  H 1.165746 0.736159 -0.799792
  H 3.189250 1.694605 1.878418
  H 3.897141 0.152518 2.333589
  H 2.541242 -1.256428 -1.112013
  H 5.322438 -0.288729 -0.336186
 16
 61.046312
  C 1.385923 0.237417 0.205975
  C 3.066048 0.175712 0.533021
  C 2.952028 0.671870 1.904192
  H 1.978860 0.614355 2.365268
  C 3.263312 -0.609923 -0.558858
  C 4.608078 -0.601393 -1.109973
  C 4.908377 -0.771620 -2.406115
  H 4.145394 -0.835170 -3.171210
  H 5.928892 -0.876530 -2.733513
  H 0.834755 0.760939 0.972662
  H 1.055186 -0.787792 0.158846
  H 1.228185 0.759150 -0.736033
  H 3.229247 1.735022 1.899222
  H 3.669897 0.161169 2.557816
  H 2.520826 -1.085430 -1.177312
  H 5.395594 -0.538085 -0.371319
 16
 79.000079
  C 1.178049 0.158344 0.243883
  C 3.172673 0.163111 0.534382
  C 3.045045 0.720526 1.855204
  H 2.046158 0.812801 2.253084
  C 3.259663 -0.531446 -0.576302
  C 4.645676 -0.629469 -1.089328
  C 4.935875 -0.790976 -2.377022
  H 4.186833 -0.774716 -3.151634
  H 5.952733 -0.940637 -2.696887
  H 0.707835 0.663255 1.069027
  H 0.966241 -0.894289 0.216304
  H 1.050299 0.692250 -0.684542
  H 3.455954 1.738103 1.840018
  H 3.626952 0.130919 2.571538
  H 2.522970 -0.840412 -1.290580
  H 5.427598 -0.650674 -0.342389
 16
 80.611311
  C 0.760163 0.074174 0.278656
  C 3.121548 0.173501 0.476047
  C 3.290243 0.761131 1.746318
  H 2.331208 1.017108 2.192725
  C 3.217959 -0.413612 -0.666694
  C 4.643550 -0.671232 -1.005354
  C 5.045116 -0.771291 -2.266320
  H 4.386479 -0.627241 -3.105757
  H 6.074128 -0.989695 -2.496213
  H 0.517452 0.567254 1.200162
  H 0.648145 -0.991705 0.253496
  H 0.650991 0.645147 -0.621587
  H 3.865237 1.686766 1.673637
  H 3.763546 0.061628 2.440480
  H 2.545684 -0.633933 -1.470611
  H 5.338558 -0.839006 -0.198923
 16
 92.603206
  C 0.466238 0.068257 0.279412
  C 3.287905 0.150048 0.470887
  C 3.491244 0.752234 1.708869
  H 2.518011 1.028237 2.113420
  C 3.216967 -0.438198 -0.660696
  C 4.670556 -0.674919 -0.960372
  C 5.075090 -0.718403 -2.221597
  H 4.431497 -0.493691 -3.053705
  H 6.091346 -0.985129 -2.454149
  H 0.358576 0.584197 1.210905
  H 0.323855 -0.991823 0.271108
  H 0.356758 0.630460 -0.623303
  H 4.083304 1.663279 1.613687
  H 3.950201 0.069353 2.426354
  H 2.543437 -0.634397 -1.462445
  H 5.348961 -0.935139 -0.166136
 16
 100.376626
  C 0.269876 0.041424 0.152821
  C 3.416860 0.098419 0.427163
  C 3.700702 0.756672 1.634097
  H 2.732794 1.067287 2.034356
  C 3.081376 -0.544480 -0.599198
  C 4.624711 -0.660052 -0.789320
  C 5.043637 -0.586319 -2.049326
  H 4.414631 -0.274607 -2.864757
  H 6.051385 -0.875032 -2.296894
  H 0.297744 0.592529 1.067241
  H 0.046032 -1.002534 0.190831
  H 0.141538 0.577183 -0.762508
  H 4.317511 1.639769 1.473378
  H 4.179485 0.107254 2.365789
  H 2.408021 -0.767849 -1.387568
  H 5.278985 -1.024939 -0.012457
 16
 93.534824
  C 0.647124 -0.020728 -0.018954
  C 3.410407 0.057916 0.334513
  C 3.723643 0.783442 1.541159
  H 2.806137 1.209122 1.944752
  C 2.705294 -0.589608 -0.502340
  C 4.492504 -0.643176 -0.603132
  C 4.892138 -0.465034 -1.860349
  H 4.273061 -0.018839 -2.620347
  H 5.873205 -0.789221 -2.162986
  H 0.729910 0.586805 0.859691
  H 0.271863 -1.019138 0.101685
  H 0.446574 0.476634 -0.946413
  H 4.423711 1.589351 1.336985
  H 4.153171 0.116524 2.287698
  H 2.037472 -1.001096 -1.212298
  H 5.135790 -1.133329 0.123739
 16
 71.879096
  C 0.883967 -0.021361 -0.011351
  C 3.370726 0.000548 0.209265
  C 3.636683 0.805181 1.395467
  H 2.723664 1.268532 1.755104
  C 2.488073 -0.684260 -0.471603
  C 4.570739 -0.627500 -0.516974
  C 4.974478 -0.486502 -1.768548
  H 4.369283 -0.073524 -2.564613
  H 5.958290 -0.802670 -2.051012
  H 1.003655 0.662000 0.811622
  H 0.319035 -0.912313 0.237101
  H 0.543829 0.459210 -0.919148
  H 4.364002 1.581092 1.170867
  H 4.035635 0.169487 2.195613
  H 1.799223 -1.131446 -1.149935
  H 5.187245 -1.103726 0.237662
 16
 26.803619
  C 0.944413 -0.101071 0.051633
  C 3.414494 -0.044220 0.157633
  C 3.605186 0.810867 1.323282
  H 2.688475 1.302140 1.646080
  C 2.283758 -0.606798 -0.404981
  C 4.615025 -0.620271 -0.446402
  C 4.960312 -0.460828 -1.722773
  H 4.290359 -0.033243 -2.453776
  H 5.920101 -0.778501 -2.078880
  H 0.999096 0.592541 0.879135
  H 0.325457 -0.955887 0.329125
  H 0.476607 0.351420 -0.820460
  H 4.366427 1.555355 1.116701
  H 3.963946 0.201165 2.161190
  H 1.999396 -0.924298 -1.390417
  H 5.286096 -1.126453 0.250485
 16
 5.370409
  C 0.929206 -0.068917 0.057022
  C 3.461881 -0.020630 0.130577
  C 3.576590 0.765128 1.369310
  H 2.672972 1.319884 1.605082
  C 2.249004 -0.395579 -0.437696
  C 4.687315 -0.490689 -0.461890
  C 4.905879 -0.607604 -1.782753
  H 4.171294 -0.319767 -2.517335
  H 5.862852 -0.922233 -2.160146
  H 0.918242 0.488215 0.985418
  H 0.329953 -0.977712 0.170628
  H 0.390672 0.477712 -0.726464
  H 4.423821 1.444653 1.309593
  H 3.787489 0.096583 2.208093
  H 2.277321 -0.924188 -1.380335
  H 5.494657 -0.702938 0.228470
 16
 4.163368
  C 0.927906 0.012616 0.016753
  C 3.469882 0.011617 0.130506
  C 3.571126 0.663801 1.448080
  H 2.628585 1.059616 1.810868
  C 2.253420 -0.308816 -0.466063
  C 4.713522 -0.312947 -0.510616
  C 4.877662 -0.751209 -1.775973
  H 4.065892 -0.892476 -2.469848
  H 5.863014 -0.959622 -2.155299
  H 0.894785 0.518764 0.974241
  H 0.308928 -0.889808 0.036353
  H 0.423334 0.627220 -0.739281
  H 4.316287 1.458578 1.420799
  H 3.943134 -0.059569 2.178904
  H 2.284941 -0.859817 -1.395680
  H 5.596732 -0.156029 0.093830
