 19
 0.000000
  H 1.505719 0.145516 0.416294
  C 2.587338 0.133452 0.384546
  C 3.281415 0.614223 1.576886
  C 2.358370 1.063970 2.698181
  H 2.934866 1.407653 3.551329
  C 3.182048 -0.330490 -0.769097
  C 4.571658 -0.412609 -0.973253
  C 5.175098 -0.873238 -2.122395
  C 4.528283 -1.356611 -3.332334
  H 3.444637 -1.342940 -3.302293
  H 6.258206 -0.881048 -2.139047
  H 3.956817 1.436505 1.298797
  H 3.959088 -0.169784 1.945095
  H 1.719787 0.247859 3.027401
  H 1.717719 1.879458 2.371416
  H 2.527815 -0.651314 -1.566972
  H 5.218776 -0.090905 -0.169091
  H 4.882289 -2.370170 -3.546689
  H 4.884683 -0.771772 -4.186420
 19
 10.062747
  H 1.464232 0.172220 0.482411
  C 2.542809 0.161690 0.454559
  C 3.247678 0.634858 1.628216
  C 2.338566 1.088545 2.759497
  H 2.926931 1.429512 3.606059
  C 3.203833 -0.356293 -0.833540
  C 4.580361 -0.432560 -1.023168
  C 5.193297 -0.892187 -2.169653
  C 4.556042 -1.378267 -3.386075
  H 3.472745 -1.367924 -3.364264
  H 6.275933 -0.896813 -2.178425
  H 3.924461 1.452561 1.341507
  H 3.926775 -0.151869 1.986905
  H 1.700201 0.275108 3.096230
  H 1.698155 1.907365 2.440128
  H 2.545184 -0.673967 -1.623612
  H 5.220706 -0.108751 -0.213940
  H 4.913707 -2.389840 -3.597082
  H 4.916047 -0.792651 -4.236445
 19
 30.295443
  H 1.379614 0.178142 0.498908
  C 2.453352 0.180601 0.502652
  C 3.216626 0.636451 1.631614
  C 2.370158 1.106380 2.803112
  H 3.007655 1.435865 3.619926
  C 3.179454 -0.391975 -0.920308
  C 4.542876 -0.443702 -1.049162
  C 5.193155 -0.890802 -2.165457
  C 4.600531 -1.383672 -3.400966
  H 3.518054 -1.387118 -3.414635
  H 6.274377 -0.881207 -2.138269
  H 3.899079 1.434852 1.313311
  H 3.901861 -0.157633 1.954185
  H 1.734820 0.304545 3.170997
  H 1.732372 1.937901 2.514062
  H 2.490860 -0.697564 -1.679824
  H 5.151554 -0.113166 -0.222510
  H 4.977753 -2.388211 -3.599589
  H 4.980592 -0.794002 -4.236806
 19
 52.796777
  H 1.303821 0.191368 0.533192
  C 2.377529 0.205440 0.565120
  C 3.184002 0.644266 1.651279
  C 2.383503 1.130457 2.862649
  H 3.056364 1.448959 3.651044
  C 3.165005 -0.422015 -0.994453
  C 4.518099 -0.456277 -1.079847
  C 5.210295 -0.901026 -2.190667
  C 4.651440 -1.397818 -3.436952
  H 3.567080 -1.408651 -3.469622
  H 6.290023 -0.880890 -2.136737
  H 3.870903 1.436921 1.299889
  H 3.874580 -0.168140 1.945836
  H 1.751644 0.338667 3.255340
  H 1.748663 1.971669 2.598088
  H 2.439632 -0.716544 -1.726501
  H 5.104134 -0.118985 -0.235799
  H 5.038554 -2.404580 -3.626065
  H 5.041708 -0.799794 -4.267141
 19
 75.122838
  H 1.249772 0.214276 0.589676
  C 2.318781 0.233119 0.633555
  C 3.147623 0.664056 1.700505
  C 2.380108 1.154417 2.922566
  H 3.075136 1.467407 3.697572
  C 3.168912 -0.448903 -1.062083
  C 4.522348 -0.475105 -1.127499
  C 5.233098 -0.916261 -2.228952
  C 4.689605 -1.418687 -3.488415
  H 3.607982 -1.434496 -3.533109
  H 6.312706 -0.889799 -2.159477
  H 3.830609 1.444720 1.337623
  H 3.834084 -0.147752 1.978248
  H 1.750252 0.366877 3.327650
  H 1.747492 2.001135 2.670150
  H 2.430991 -0.735559 -1.774669
  H 5.095227 -0.135419 -0.277990
  H 5.080860 -2.420993 -3.671970
  H 5.083775 -0.820320 -4.311745
 19
 95.402596
  H 1.191098 0.234526 0.639453
  C 2.261896 0.258542 0.696437
  C 3.114903 0.681541 1.744263
  C 2.376595 1.181415 2.989991
  H 3.092419 1.486928 3.746963
  C 3.174132 -0.478159 -1.135482
  C 4.518747 -0.494800 -1.177278
  C 5.252509 -0.932047 -2.268816
  C 4.731207 -1.436424 -3.531983
  H 3.648733 -1.457487 -3.588914
  H 6.329493 -0.898508 -2.182330
  H 3.800564 1.457632 1.363994
  H 3.803816 -0.139340 2.006198
  H 1.749069 0.399700 3.409688
  H 1.746537 2.034409 2.752279
  H 2.415755 -0.759023 -1.833886
  H 5.077472 -0.151007 -0.318119
  H 5.129452 -2.439018 -3.709373
  H 5.131874 -0.833715 -4.351368
 19
 112.851909
  H 1.139444 0.260072 0.702251
  C 2.207067 0.286771 0.766186
  C 3.077732 0.700867 1.792658
  C 2.372487 1.206658 3.053169
  H 3.109629 1.505205 3.793511
  C 3.177663 -0.505161 -1.203625
  C 4.521045 -0.514467 -1.227245
  C 5.275121 -0.947617 -2.308262
  C 4.771811 -1.456481 -3.581128
  H 3.690961 -1.482823 -3.650169
  H 6.350926 -0.907139 -2.205195
  H 3.761277 1.468438 1.398576
  H 3.764124 -0.123759 2.038541
  H 1.747876 0.430342 3.485852
  H 1.745761 2.065047 2.828740
  H 2.405696 -0.778188 -1.882771
  H 5.067036 -0.167845 -0.361602
  H 5.175632 -2.456628 -3.752965
  H 5.177473 -0.851950 -4.395242
 19
 127.284842
  H 1.084968 0.284148 0.761637
  C 2.154466 0.313087 0.831550
  C 3.042900 0.721799 1.845321
  C 2.366935 1.235425 3.124878
  H 3.122900 1.526976 3.848492
  C 3.184766 -0.533808 -1.275567
  C 4.519248 -0.535568 -1.280578
  C 5.296924 -0.964849 -2.351877
  C 4.814983 -1.476946 -3.631478
  H 3.734692 -1.508937 -3.713511
  H 6.369794 -0.917006 -2.231284
  H 3.726992 1.484086 1.437018
  H 3.729366 -0.109266 2.077371
  H 1.744791 0.464105 3.570540
  H 1.743210 2.099601 2.913211
  H 2.396073 -0.801072 -1.940560
  H 5.051685 -0.185385 -0.406593
  H 5.225599 -2.475953 -3.797275
  H 5.226832 -0.869187 -4.440800
 19
 138.734584
  H 1.038047 0.313394 0.833967
  C 2.106297 0.341752 0.902926
  C 3.004252 0.743625 1.900219
  C 2.359704 1.262984 3.193151
  H 3.133747 1.547760 3.900445
  C 3.190400 -0.561444 -1.343794
  C 4.524039 -0.557644 -1.335344
  C 5.321204 -0.982389 -2.395984
  C 4.857269 -1.497509 -3.682692
  H 3.778344 -1.534478 -3.776055
  H 6.391778 -0.927806 -2.259492
  H 3.686503 1.498724 1.479344
  H 3.688298 -0.091369 2.118513
  H 1.740589 0.496881 3.650731
  H 1.739645 2.132004 2.993411
  H 2.388464 -0.821241 -1.990390
  H 5.045561 -0.204968 -0.455495
  H 5.273368 -2.494651 -3.843560
  H 5.273976 -0.887365 -4.487247
 19
 147.159041
  H 0.993832 0.345261 0.913266
  C 2.067644 0.369451 0.972128
  C 2.961748 0.771993 1.971263
  C 2.340507 1.297717 3.279153
  H 3.126788 1.578105 3.975717
  C 3.209022 -0.589475 -1.412697
  C 4.538052 -0.583865 -1.400119
  C 5.350678 -1.006448 -2.456085
  C 4.898984 -1.522542 -3.745412
  H 3.820291 -1.562405 -3.845505
  H 6.419992 -0.947567 -2.309253
  H 3.644185 1.521360 1.541094
  H 3.645647 -0.065531 2.179188
  H 1.723212 0.535448 3.746235
  H 1.722676 2.170777 3.088557
  H 2.397521 -0.846140 -2.051683
  H 5.053015 -0.229465 -0.515956
  H 5.318763 -2.518798 -3.903399
  H 5.319089 -0.910715 -4.547188
 19
 151.817839
  H 0.965805 0.385966 1.015008
  C 2.042445 0.400362 1.049559
  C 2.913718 0.806940 2.058382
  C 2.305457 1.334492 3.370130
  H 3.095142 1.613532 4.063081
  C 3.238003 -0.614807 -1.474605
  C 4.572497 -0.613551 -1.473064
  C 5.386912 -1.036866 -2.531591
  C 4.933909 -1.550437 -3.815696
  H 3.854636 -1.589106 -3.913103
  H 6.457181 -0.978385 -2.385516
  H 3.596572 1.551676 1.624594
  H 3.597978 -0.029639 2.260771
  H 1.688854 0.574052 3.840861
  H 1.688398 2.208741 3.183105
  H 2.426585 -0.870973 -2.112570
  H 5.090770 -0.259402 -0.589094
  H 5.353285 -2.546536 -3.975087
  H 5.353757 -0.939325 -4.618019
 19
 154.379765
  H 0.937805 0.424010 1.110040
  C 2.018229 0.430098 1.123948
  C 2.874467 0.846268 2.156321
  C 2.263986 1.373644 3.467211
  H 3.050271 1.653934 4.163074
  C 3.275081 -0.639948 -1.536709
  C 4.605048 -0.642556 -1.544909
  C 5.420479 -1.067805 -2.608529
  C 4.964655 -1.580232 -3.890406
  H 3.884656 -1.618010 -3.986006
  H 6.492023 -1.010037 -2.463916
  H 3.560781 1.591336 1.723354
  H 3.562270 0.010075 2.359701
  H 1.646144 0.612254 3.936396
  H 1.645713 2.247506 3.278196
  H 2.464729 -0.898061 -2.179568
  H 5.125748 -0.288545 -0.661066
  H 5.384784 -2.576719 -4.051512
  H 5.385502 -0.969916 -4.694042
 19
 156.066021
  H 0.919171 0.467565 1.218361
  C 2.001222 0.464258 1.209407
  C 2.835720 0.883629 2.249941
  C 2.219144 1.408760 3.554172
  H 3.000280 1.690846 4.254790
  C 3.309109 -0.662161 -1.591950
  C 4.646375 -0.670193 -1.614096
  C 5.453647 -1.097150 -2.682049
  C 4.989522 -1.606394 -3.955718
  H 3.909110 -1.641754 -4.045143
  H 6.526090 -1.041818 -2.543718
  H 3.522871 1.627544 1.819836
  H 3.523895 0.049994 2.455060
  H 1.599785 0.646294 4.019592
  H 1.599909 2.281080 3.361257
  H 2.499565 -0.920410 -2.235019
  H 5.174375 -0.317289 -0.733354
  H 5.408359 -2.602770 -4.119994
  H 5.409019 -0.998427 -4.761654
 19
 157.151169
  H 0.893246 0.505675 1.313219
  C 1.978009 0.496061 1.288876
  C 2.801269 0.924348 2.351495
  C 2.171573 1.448342 3.652162
  H 2.945201 1.733319 4.360105
  C 3.348079 -0.685221 -1.648549
  C 4.679928 -0.696641 -1.679515
  C 5.483244 -1.125563 -2.752906
  C 5.012764 -1.634280 -4.025777
  H 3.931512 -1.668552 -4.112448
  H 6.557443 -1.071620 -2.618210
  H 3.491869 1.670276 1.925489
  H 3.492666 0.091964 2.561294
  H 1.550099 0.683793 4.112370
  H 1.550558 2.318717 3.453757
  H 2.540237 -0.945415 -2.296408
  H 5.211328 -0.344353 -0.800332
  H 5.432252 -2.630999 -4.192812
  H 5.432868 -1.027701 -4.833742
