 13
 0.000000
  C 0.982900 0.144855 0.413146
  C 2.425010 0.103854 0.311300
  H 3.022814 0.441378 1.151626
  C 3.081397 -0.350875 -0.821269
  C 4.484420 -0.389796 -0.920686
  C 5.117505 -0.839177 -2.039750
  H 4.561635 -1.184807 -2.899405
  H 6.192246 -0.865292 -2.105412
  H 0.629739 0.527640 1.366673
  H 0.558239 -0.851201 0.220263
  H 0.558570 0.731597 -0.414816
  H 2.500849 -0.692486 -1.670157
  H 5.067120 -0.049188 -0.074273
 13
 8.396521
  C 0.882994 0.151458 0.429532
  C 2.483626 0.104156 0.312142
  H 3.076261 0.440779 1.150233
  C 3.120301 -0.350237 -0.819557
  C 4.526124 -0.393984 -0.931153
  C 5.147128 -0.845994 -2.056779
  H 4.582319 -1.189090 -2.910089
  H 6.221161 -0.876099 -2.132417
  H 0.546728 0.534114 1.382757
  H 0.469207 -0.842328 0.241680
  H 0.469600 0.740038 -0.393179
  H 2.530228 -0.689572 -1.662758
  H 5.117872 -0.055495 -0.090120
 13
 25.229623
  C 0.783449 0.152862 0.433100
  C 2.544729 0.110306 0.327192
  H 3.096809 0.453682 1.182083
  C 3.149634 -0.346764 -0.811365
  C 4.558281 -0.397401 -0.939726
  C 5.157093 -0.851903 -2.071512
  H 4.577958 -1.190397 -2.913723
  H 6.228943 -0.888384 -2.162380
  H 0.482967 0.537580 1.391279
  H 0.432368 -0.855143 0.242982
  H 0.432517 0.749830 -0.401060
  H 2.546739 -0.682010 -1.644527
  H 5.162948 -0.062765 -0.107759
 13
 44.725853
  C 0.677206 0.158135 0.446189
  C 2.597986 0.114555 0.337956
  H 3.135478 0.462037 1.203089
  C 3.186642 -0.344585 -0.805775
  C 4.594005 -0.400105 -0.946467
  C 5.186395 -0.862037 -2.096855
  H 4.595549 -1.199513 -2.936607
  H 6.259536 -0.902711 -2.198157
  H 0.402060 0.545318 1.410327
  H 0.356090 -0.859708 0.260003
  H 0.356147 0.764830 -0.392078
  H 2.573806 -0.678130 -1.634714
  H 5.207903 -0.067015 -0.118333
 13
 61.762215
  C 0.571867 0.156476 0.430014
  C 2.653826 0.113283 0.357495
  H 3.123125 0.469845 1.251421
  C 3.213100 -0.344106 -0.778589
  C 4.621835 -0.400299 -0.955535
  C 5.180622 -0.863104 -2.110023
  H 4.572074 -1.199724 -2.937369
  H 6.251815 -0.910308 -2.231895
  H 0.368412 0.547951 1.402985
  H 0.343358 -0.881241 0.257666
  H 0.351185 0.789862 -0.411863
  H 2.590472 -0.681202 -1.599360
  H 5.251170 -0.064475 -0.141644
 13
 70.786123
  C 0.494302 0.199386 0.363564
  C 2.728716 0.017721 0.439325
  H 3.033661 0.383363 1.392144
  C 3.233332 -0.432722 -0.661035
  C 4.664753 -0.370944 -0.987064
  C 5.144966 -0.826535 -2.141393
  H 4.516675 -1.198080 -2.936180
  H 6.210519 -0.863242 -2.313677
  H 0.352037 0.597155 1.343327
  H 0.328350 -0.845858 0.197764
  H 0.426348 0.860699 -0.475362
  H 2.614666 -0.844465 -1.449318
  H 5.306144 0.059211 -0.235309
 13
 79.839479
  C 0.395886 0.209898 0.364867
  C 2.788939 0.017702 0.454007
  H 3.061632 0.382083 1.414455
  C 3.275508 -0.429152 -0.648191
  C 4.707175 -0.378088 -0.998683
  C 5.161289 -0.832897 -2.158293
  H 4.521881 -1.206869 -2.939734
  H 6.220792 -0.862051 -2.353173
  H 0.269363 0.605394 1.352433
  H 0.251851 -0.838640 0.198227
  H 0.343387 0.877128 -0.471733
  H 2.648768 -0.838565 -1.434312
  H 5.361294 0.048522 -0.254022
 13
 86.729279
  C 0.295654 0.214069 0.366448
  C 2.848812 0.030349 0.467727
  H 3.082814 0.394972 1.439462
  C 3.315818 -0.412121 -0.637616
  C 4.748104 -0.389007 -1.007765
  C 5.173441 -0.843438 -2.173907
  H 4.519208 -1.215835 -2.945065
  H 6.229247 -0.867793 -2.392864
  H 0.188171 0.604210 1.357361
  H 0.185962 -0.839397 0.198858
  H 0.257947 0.886977 -0.467211
  H 2.681767 -0.809127 -1.423188
  H 5.415289 0.020934 -0.268387
 13
 91.440379
  C 0.194460 0.215626 0.368031
  C 2.907932 0.045914 0.480818
  H 3.102046 0.409547 1.459777
  C 3.355735 -0.392631 -0.627954
  C 4.786902 -0.399860 -1.016394
  C 5.183752 -0.854696 -2.189931
  H 4.515154 -1.222705 -2.949078
  H 6.233688 -0.877345 -2.431694
  H 0.104588 0.601886 1.363752
  H 0.119357 -0.840157 0.199828
  H 0.170492 0.892937 -0.462352
  H 2.712800 -0.776422 -1.413751
  H 5.469262 -0.008171 -0.280714
 13
 94.707000
  C 0.091386 0.214777 0.371796
  C 2.965424 0.065110 0.492467
  H 3.123030 0.428505 1.478589
  C 3.395286 -0.370257 -0.620855
  C 4.823380 -0.410932 -1.025092
  C 5.193760 -0.866605 -2.206184
  H 4.509902 -1.226918 -2.955714
  H 6.239304 -0.893306 -2.467556
  H 0.016795 0.597373 1.369776
  H 0.048361 -0.842951 0.203290
  H 0.076306 0.895714 -0.455867
  H 2.742731 -0.738427 -1.406266
  H 5.520423 -0.041173 -0.293025
 13
 97.029076
  C -0.013757 0.211449 0.377624
  C 3.020939 0.086871 0.502345
  H 3.145836 0.450059 1.492395
  C 3.434150 -0.346141 -0.615840
  C 4.857589 -0.422329 -1.034476
  C 5.203221 -0.879045 -2.222607
  H 4.505064 -1.227830 -2.963610
  H 6.244035 -0.915331 -2.500087
  H -0.076426 0.592041 1.378045
  H -0.028395 -0.846967 0.209397
  H -0.025747 0.894762 -0.448207
  H 2.770897 -0.697265 -1.400829
  H 5.569625 -0.076299 -0.304931
 13
 98.674118
  C -0.121451 0.206906 0.385061
  C 3.073712 0.108485 0.511043
  H 3.170193 0.472794 1.504326
  C 3.471333 -0.323277 -0.611285
  C 4.888951 -0.433024 -1.044851
  C 5.211227 -0.891105 -2.239021
  H 4.498792 -1.226971 -2.972648
  H 6.247899 -0.940556 -2.530430
  H -0.174715 0.586733 1.386108
  H -0.112280 -0.851891 0.217959
  H -0.133846 0.891139 -0.440038
  H 2.796818 -0.658205 -1.394408
  H 5.615061 -0.109738 -0.319212
 13
 99.810075
  C -0.232849 0.202930 0.393616
  C 3.122424 0.125910 0.519224
  H 3.196116 0.492414 1.513034
  C 3.505858 -0.306392 -0.606079
  C 4.916768 -0.441100 -1.056698
  C 5.217244 -0.901692 -2.255817
  H 4.491226 -1.226221 -2.980896
  H 6.249334 -0.965129 -2.560063
  H -0.279377 0.584048 1.394717
  H -0.206537 -0.855687 0.228886
  H -0.246806 0.886146 -0.432082
  H 2.819611 -0.630027 -1.384467
  H 5.656586 -0.134135 -0.337537
 13
 100.555011
  C -0.349115 0.198120 0.403598
  C 3.166149 0.142188 0.526379
  H 3.221101 0.512259 1.520227
  C 3.536298 -0.292283 -0.601293
  C 4.939497 -0.448089 -1.069450
  C 5.219189 -0.912206 -2.272606
  H 4.479862 -1.226493 -2.988913
  H 6.246635 -0.989709 -2.589108
  H -0.390597 0.581793 1.403679
  H -0.309148 -0.860497 0.242259
  H -0.366305 0.878925 -0.423810
  H 2.837995 -0.607425 -1.373237
  H 5.692182 -0.153972 -0.358475
