 14
 0.000000
  H 1.361000 0.121756 0.352971
  C 2.434120 0.091439 0.278066
  H 3.000512 0.433675 1.129018
  C 3.050458 -0.362086 -0.849924
  C 4.450669 -0.403669 -0.954951
  C 5.186089 -0.850696 -2.069802
  C 4.589104 -1.349752 -3.313940
  H 3.510112 -1.344912 -3.303249
  O 6.481518 -0.842680 -2.050878
  H 2.443583 -0.695234 -1.678211
  H 5.016710 -0.058951 -0.097462
  H 4.955908 -2.358461 -3.508657
  H 4.956817 -0.756000 -4.151885
  H 6.896124 -0.512827 -1.227490
 14
 16.120557
  H 1.412013 0.159880 0.449539
  C 2.481444 0.110088 0.324511
  H 3.088680 0.444176 1.154381
  C 3.043769 -0.355718 -0.834387
  C 4.503174 -0.430225 -1.021853
  C 5.115178 -0.876683 -2.135013
  C 4.615050 -1.384920 -3.401919
  H 3.539033 -1.400480 -3.442221
  O 6.350840 -0.782304 -1.900541
  H 2.408059 -0.680968 -1.641613
  H 5.072774 -0.087927 -0.171760
  H 5.009395 -2.379515 -3.567189
  H 5.010298 -0.781220 -4.208893
  H 6.657991 -0.438384 -1.039082
 14
 59.059039
  H 1.467779 0.191641 0.529540
  C 2.526443 0.121674 0.353042
  H 3.171995 0.444739 1.154565
  C 3.019081 -0.348170 -0.816316
  C 4.555505 -0.447307 -1.064859
  C 5.060431 -0.896465 -2.185053
  C 4.643458 -1.410080 -3.464438
  H 3.561832 -1.444026 -3.548236
  O 6.238126 -0.740120 -1.797514
  H 2.360443 -0.670361 -1.618130
  H 5.051767 -0.093930 -0.180018
  H 5.068167 -2.405637 -3.606633
  H 5.067941 -0.789776 -4.256100
  H 6.506993 -0.394795 -0.931776
 14
 108.815861
  H 1.445201 0.104745 0.567026
  C 2.500116 0.128435 0.353571
  H 3.123926 0.450875 1.166441
  C 2.943379 -0.278149 -0.798843
  C 4.696851 -0.423438 -1.083414
  C 5.043980 -0.910512 -2.211293
  C 4.635027 -1.438341 -3.501483
  H 3.546130 -1.477291 -3.573320
  O 6.254608 -0.678081 -1.757972
  H 2.367300 -0.590720 -1.646522
  H 5.092562 -0.102372 -0.148305
  H 5.043223 -2.435803 -3.623107
  H 5.043190 -0.824822 -4.296897
  H 6.571353 -0.407505 -0.877858
 14
 133.895530
  H 1.314831 0.200611 0.698599
  C 2.365594 0.140883 0.424157
  H 3.036955 0.459839 1.198753
  C 2.725433 -0.279260 -0.737793
  C 4.881763 -0.436466 -1.108549
  C 5.071155 -0.931275 -2.260298
  C 4.670811 -1.455497 -3.537471
  H 3.588745 -1.492680 -3.600208
  O 6.365201 -0.670660 -1.803676
  H 2.202944 -0.602361 -1.607230
  H 5.121546 -0.072741 -0.142176
  H 5.093093 -2.449189 -3.671848
  H 5.082173 -0.831204 -4.336811
  H 6.788333 -0.485172 -0.945956
 14
 143.485593
  H 1.150779 0.240342 0.810426
  C 2.187800 0.148697 0.488867
  H 2.898150 0.481403 1.227972
  C 2.512950 -0.254863 -0.689622
  C 5.091847 -0.438212 -1.144045
  C 5.152219 -0.945958 -2.302864
  C 4.703529 -1.465875 -3.553932
  H 3.618273 -1.480738 -3.575552
  O 6.518140 -0.656121 -1.862463
  H 1.953286 -0.584929 -1.535387
  H 5.249490 -0.048962 -0.173787
  H 5.129819 -2.462703 -3.719756
  H 5.104911 -0.859485 -4.361557
  H 7.031568 -0.596732 -1.030439
 14
 127.083101
  H 1.037171 0.118965 0.926646
  C 2.034490 0.200982 0.497394
  H 2.778193 0.468400 1.247790
  C 2.333022 -0.131196 -0.714094
  C 5.336299 -0.325928 -1.154553
  C 5.243208 -0.877945 -2.294350
  C 4.737657 -1.442125 -3.497568
  H 3.653250 -1.473107 -3.435351
  O 6.673420 -0.528713 -1.936745
  H 1.797343 -0.468402 -1.574423
  H 5.269623 -0.098547 -0.130057
  H 5.121655 -2.446754 -3.632488
  H 5.039603 -0.837893 -4.357362
  H 7.215532 -1.107031 -1.346609
 14
 121.485757
  H 1.030289 0.261557 0.862610
  C 2.065311 0.168814 0.526054
  H 2.778848 0.366838 1.311991
  C 2.400364 -0.143384 -0.666261
  C 5.283112 -0.345859 -1.119768
  C 5.193383 -0.903528 -2.269021
  C 4.760520 -1.475430 -3.497675
  H 3.682518 -1.609877 -3.459994
  O 6.581275 -0.417847 -1.867981
  H 1.902756 -0.360791 -1.583210
  H 5.141711 -0.090422 -0.101501
  H 5.237323 -2.442264 -3.661785
  H 5.025094 -0.825565 -4.332079
  H 7.187960 -1.131538 -1.543150
