9

H -2.4693957135693 0.7001083472450511 -0.05808373397765089
C -2.057255 0.586231 -0.027594
C -1.648633 -0.47699 0.643604
C -0.236436 -0.948928 0.80641
H 0.07443055739069804 -0.6903627058811044 0.5994542969855838
H -1.3499 1.224655 -0.534196
H -2.388411 -1.098077 1.140119
H -0.00824 -1.001787 1.876628
H -0.172058 -1.970236 0.413756
