 20
 0.000000
  H 1.506019 0.145556 0.413359
  C 2.587574 0.134001 0.386136
  C 3.277252 0.618376 1.589985
  C 2.333993 1.063424 2.695413
  H 2.896880 1.410701 3.559627
  C 3.188408 -0.329032 -0.764649
  C 4.571963 -0.406221 -0.954926
  C 5.208885 -0.867443 -2.108793
  C 4.524801 -1.352920 -3.321876
  H 3.447100 -1.323444 -3.247833
  O 6.511431 -0.897306 -2.186004
  H 3.940045 1.445900 1.321302
  H 3.939689 -0.164772 1.969488
  H 1.695276 0.242060 3.014962
  H 1.696002 1.877892 2.357048
  H 2.536072 -0.648965 -1.563344
  H 5.207095 -0.081926 -0.142165
  H 4.851493 -2.371005 -3.530630
  H 4.851347 -0.759889 -4.175219
  H 6.990999 -0.577261 -1.391691
 20
 9.009419
  H 1.493173 0.156862 0.442023
  C 2.574077 0.148111 0.421703
  C 3.255855 0.635009 1.631337
  C 2.300979 1.077835 2.730940
  H 2.855128 1.426542 3.598331
  C 3.183614 -0.313651 -0.725666
  C 4.555204 -0.385717 -0.903220
  C 5.256879 -0.900986 -2.192538
  C 4.552505 -1.378213 -3.385473
  H 3.474645 -1.340566 -3.291334
  O 6.545314 -0.928039 -2.262540
  H 3.918924 1.466973 1.366704
  H 3.918677 -0.148396 2.017022
  H 1.662989 0.255168 3.045505
  H 1.663699 1.889612 2.387918
  H 2.537884 -0.635868 -1.529825
  H 5.196072 -0.064684 -0.098565
  H 4.868885 -2.399688 -3.599534
  H 4.868963 -0.786249 -4.244971
  H 7.022160 -0.608886 -1.469930
 20
 27.263890
  H 1.506916 0.152200 0.432414
  C 2.586162 0.151438 0.432693
  C 3.243887 0.642452 1.650559
  C 2.255765 1.077683 2.728100
  H 2.784620 1.431744 3.606923
  C 3.217193 -0.300066 -0.687580
  C 4.583056 -0.357117 -0.827863
  C 5.319503 -0.930791 -2.266581
  C 4.525598 -1.382513 -3.398371
  H 3.460322 -1.314229 -3.227498
  O 6.592598 -0.948919 -2.315364
  H 3.902029 1.483845 1.397841
  H 3.901474 -0.139099 2.052664
  H 1.619602 0.249445 3.027734
  H 1.620841 1.882873 2.368999
  H 2.593040 -0.626381 -1.501769
  H 5.267855 -0.050332 -0.058013
  H 4.798771 -2.413798 -3.635798
  H 4.798555 -0.797359 -4.280223
  H 7.067327 -0.635801 -1.536716
 20
 47.753641
  H 1.500436 0.154814 0.438992
  C 2.579103 0.161630 0.459105
  C 3.219321 0.659980 1.694780
  C 2.211627 1.087357 2.750325
  H 2.724392 1.446049 3.641200
  C 3.247162 -0.289986 -0.660403
  C 4.589242 -0.334283 -0.768302
  C 5.366025 -0.965432 -2.353098
  C 4.521346 -1.397064 -3.435688
  H 3.464905 -1.307121 -3.209215
  O 6.633436 -0.980873 -2.396125
  H 3.871326 1.504125 1.454073
  H 3.869979 -0.115501 2.108154
  H 1.576583 0.251963 3.040226
  H 1.578325 1.891144 2.378535
  H 2.639753 -0.622812 -1.490981
  H 5.312795 -0.044328 -0.039632
  H 4.761227 -2.432700 -3.688089
  H 4.760632 -0.817779 -4.330584
  H 7.135593 -0.661692 -1.602595
 20
 68.005884
  H 1.474059 0.170486 0.477664
  C 2.553214 0.180379 0.505116
  C 3.185037 0.679675 1.743574
  C 2.165503 1.105273 2.795411
  H 2.669104 1.464714 3.688287
  C 3.235296 -0.271073 -0.614332
  C 4.601389 -0.312604 -0.715106
  C 5.423806 -1.001320 -2.442924
  C 4.551665 -1.424617 -3.504381
  H 3.502836 -1.324212 -3.252581
  O 6.669733 -1.017370 -2.486556
  H 3.838033 1.528643 1.506076
  H 3.836718 -0.097119 2.162353
  H 1.531490 0.269592 3.079882
  H 1.533288 1.905483 2.419844
  H 2.634063 -0.605061 -1.447472
  H 5.345817 -0.028321 -0.000633
  H 4.775381 -2.464247 -3.762382
  H 4.775383 -0.846847 -4.406367
  H 7.164353 -0.707247 -1.715441
 20
 85.966308
  H 1.472931 0.171674 0.473480
  C 2.552909 0.193862 0.533142
  C 3.154553 0.699777 1.794660
  C 2.102963 1.115394 2.824282
  H 2.579354 1.478184 3.730451
  C 3.282232 -0.251511 -0.573331
  C 4.624250 -0.279817 -0.640259
  C 5.464745 -1.032337 -2.520916
  C 4.538113 -1.442514 -3.544308
  H 3.503620 -1.321512 -3.241844
  O 6.718968 -1.056860 -2.585498
  H 3.805789 1.556772 1.574002
  H 3.802829 -0.073589 2.229135
  H 1.469120 0.273743 3.089860
  H 1.472594 1.909207 2.433236
  H 2.708534 -0.591540 -1.423289
  H 5.413171 -0.014499 0.026637
  H 4.727423 -2.487179 -3.810294
  H 4.727351 -0.869916 -4.457774
  H 7.234819 -0.752280 -1.831462
 20
 101.693748
  H 1.474625 0.177044 0.481987
  C 2.549065 0.207005 0.565575
  C 3.125388 0.714479 1.834532
  C 2.055044 1.121820 2.838564
  H 2.512212 1.487810 3.755587
  C 3.303651 -0.229909 -0.518296
  C 4.638078 -0.249175 -0.560404
  C 5.496112 -1.061259 -2.594663
  C 4.535683 -1.456967 -3.578188
  H 3.512695 -1.321238 -3.234400
  O 6.741002 -1.094543 -2.686504
  H 3.773712 1.572944 1.626978
  H 3.767553 -0.053360 2.279985
  H 1.420233 0.274358 3.090813
  H 1.427160 1.913302 2.433254
  H 2.746477 -0.574232 -1.382092
  H 5.457083 -0.000685 0.066446
  H 4.700296 -2.504535 -3.850578
  H 4.697400 -0.886257 -4.498329
  H 7.289973 -0.787666 -1.930716
 20
 114.305450
  H 1.456719 0.192997 0.520400
  C 2.529558 0.226609 0.614510
  C 3.091962 0.734235 1.884764
  C 2.010317 1.138362 2.879059
  H 2.456991 1.505229 3.798999
  C 3.298393 -0.208508 -0.464239
  C 4.630245 -0.224507 -0.496958
  C 5.529531 -1.093287 -2.675374
  C 4.557266 -1.485675 -3.649174
  H 3.540319 -1.346037 -3.293767
  O 6.774131 -1.131675 -2.781957
  H 3.739895 1.594932 1.682651
  H 3.732701 -0.032185 2.335899
  H 1.376449 0.290025 3.125076
  H 1.384529 1.926862 2.468465
  H 2.749931 -0.554166 -1.332365
  H 5.461103 0.019292 0.119272
  H 4.714174 -2.533335 -3.923079
  H 4.710169 -0.915656 -4.570530
  H 7.331224 -0.826741 -2.031843
 20
 124.334557
  H 1.438024 0.209040 0.558002
  C 2.509881 0.247331 0.664294
  C 3.057332 0.755985 1.939311
  C 1.964512 1.155276 2.922669
  H 2.401266 1.523580 3.847974
  C 3.293219 -0.184925 -0.408238
  C 4.622699 -0.197666 -0.432108
  C 5.562275 -1.124819 -2.754270
  C 4.579982 -1.516320 -3.723942
  H 3.565719 -1.373111 -3.359492
  O 6.806465 -1.170613 -2.879621
  H 3.703975 1.618472 1.744088
  H 3.696464 -0.007756 2.395871
  H 1.330972 0.303667 3.162092
  H 1.339323 1.942343 2.505941
  H 2.752655 -0.532695 -1.282360
  H 5.460620 0.041315 0.173067
  H 4.731154 -2.565173 -3.998427
  H 4.726766 -0.946705 -4.647062
  H 7.371917 -0.867463 -2.134483
 20
 131.498662
  H 1.413033 0.229777 0.607709
  C 2.484488 0.271282 0.721694
  C 3.019187 0.778900 1.996222
  C 1.919757 1.174853 2.973994
  H 2.350525 1.543150 3.901008
  C 3.277397 -0.159739 -0.349499
  C 4.606317 -0.171438 -0.371018
  C 5.592882 -1.156916 -2.834150
  C 4.611531 -1.551092 -3.808792
  H 3.597980 -1.407940 -3.445608
  O 6.839529 -1.211645 -2.980697
  H 3.665364 1.642229 1.804942
  H 3.658221 0.016821 2.455020
  H 1.287310 0.322336 3.209578
  H 1.295243 1.960247 2.555202
  H 2.741351 -0.508625 -1.226573
  H 5.446426 0.067378 0.234249
  H 4.763200 -2.599616 -4.081346
  H 4.759034 -0.981772 -4.731152
  H 7.410992 -0.910055 -2.239170
 20
 136.344957
  H 1.382973 0.251813 0.661793
  C 2.454723 0.295684 0.781421
  C 2.979709 0.803171 2.056660
  C 1.876975 1.197270 3.031655
  H 2.305419 1.565826 3.960264
  C 3.252625 -0.134610 -0.289133
  C 4.582763 -0.146392 -0.311531
  C 5.624140 -1.188610 -2.913113
  C 4.649297 -1.588682 -3.901131
  H 3.632609 -1.448339 -3.545706
  O 6.872663 -1.252159 -3.080874
  H 3.626312 1.666570 1.867759
  H 3.619550 0.042518 2.516462
  H 1.244672 0.343720 3.265723
  H 1.252193 1.982494 2.611862
  H 2.718706 -0.484201 -1.167911
  H 5.418174 0.094565 0.299213
  H 4.806397 -2.637057 -4.170991
  H 4.802307 -1.018636 -4.822081
  H 7.449008 -0.951583 -2.341424
 20
 139.518231
  H 1.350360 0.275394 0.719860
  C 2.422441 0.320452 0.843518
  C 2.939224 0.827512 2.118111
  C 1.835071 1.221226 3.091352
  H 2.262358 1.589614 4.020024
  C 3.222813 -0.110087 -0.227383
  C 4.554248 -0.122903 -0.252416
  C 5.654379 -1.219956 -2.991628
  C 4.690113 -1.626542 -3.994272
  H 3.670102 -1.490901 -3.649415
  O 6.904910 -1.290843 -3.178974
  H 3.587178 1.690142 1.930536
  H 3.579940 0.067923 2.578351
  H 1.202718 0.368101 3.324915
  H 1.210794 2.006239 2.671410
  H 2.689679 -0.459689 -1.106836
  H 5.384288 0.121514 0.367465
  H 4.855087 -2.673814 -4.261060
  H 4.850118 -1.055371 -4.912533
  H 7.484023 -0.990737 -2.441590
 20
 141.547892
  H 1.315930 0.299747 0.778659
  C 2.388431 0.345628 0.905604
  C 2.898513 0.852083 2.180274
  C 1.793644 1.245587 3.152992
  H 2.220881 1.613551 4.082081
  C 3.189666 -0.084831 -0.165374
  C 4.522685 -0.098682 -0.193185
  C 5.685383 -1.250732 -3.068421
  C 4.731908 -1.664255 -4.086216
  H 3.707596 -1.533409 -3.752318
  O 6.937225 -1.327654 -3.271902
  H 3.548369 1.713910 1.993927
  H 3.540566 0.093106 2.640425
  H 1.160795 0.392579 3.386354
  H 1.169548 2.031131 2.733431
  H 2.656836 -0.434296 -1.045291
  H 5.345160 0.149301 0.435945
  H 4.905252 -2.710850 -4.349744
  H 4.899445 -1.091818 -5.002192
  H 7.517796 -1.027445 -2.535685
 20
 142.872984
  H 1.281750 0.323723 0.837368
  C 2.354439 0.370512 0.968163
  C 2.857107 0.876797 2.243063
  C 1.750642 1.270025 3.213788
  H 2.176495 1.637829 4.143225
  C 3.157161 -0.059854 -0.102026
  C 4.491252 -0.074498 -0.131745
  C 5.716030 -1.280811 -3.143480
  C 4.771816 -1.699799 -4.173067
  H 3.744562 -1.573155 -3.847898
  O 6.968985 -1.362091 -3.359928
  H 3.508844 1.737870 2.058364
  H 3.500255 0.118861 2.703953
  H 1.117541 0.417330 3.446402
  H 1.127193 2.055484 2.793776
  H 2.625339 -0.409260 -0.982637
  H 5.308283 0.176658 0.506075
  H 4.952129 -2.745411 -4.433920
  H 4.945221 -1.126126 -5.086627
  H 7.549668 -1.061405 -2.624789
