 23
 0.000000
  C 0.996384 0.132972 0.381868
  C 2.475139 0.140018 0.399085
  C 3.241227 0.613797 1.578372
  H 2.683154 0.954049 2.425534
  C 3.096863 -0.322475 -0.752613
  C 4.472906 -0.413204 -0.978851
  C 5.132414 -0.867699 -2.111643
  C 4.618673 -1.388937 -3.410716
  C 3.124514 -1.501358 -3.691727
  H 2.956077 -1.894820 -4.672399
  O 6.457488 -0.870547 -2.119086
  H 0.547238 0.500715 1.297563
  H 0.632250 -0.881396 0.212641
  H 0.631990 0.748397 -0.441931
  H 3.897288 1.429656 1.253616
  H 3.897458 -0.199872 1.908184
  H 2.436796 -0.639606 -1.542199
  H 5.100515 -0.083792 -0.158214
  H 5.068655 -2.379864 -3.541239
  H 5.069011 -0.763340 -4.190016
  H 2.653353 -0.519100 -3.634327
  H 2.652914 -2.171265 -2.971344
  H 6.834017 -0.535875 -1.285013
 23
 0.000000
  C 1.035533 0.111875 0.329299
  C 2.544291 0.122496 0.355428
  C 3.302593 0.598009 1.539042
  H 2.738947 0.936985 2.383020
  C 3.136195 -0.325369 -0.759836
  C 4.447527 -0.411482 -0.974568
  C 5.080435 -0.850187 -2.068017
  C 4.589384 -1.374452 -3.374630
  C 3.100309 -1.495860 -3.678015
  H 2.948972 -1.890285 -4.661088
  O 6.342452 -0.836537 -2.034351
  H 0.580361 0.478589 1.242428
  H 0.674674 -0.903318 0.158014
  H 0.674422 0.726475 -0.496559
  H 3.958629 1.415361 1.218010
  H 3.958791 -0.214167 1.872579
  H 2.473545 -0.641749 -1.547558
  H 5.075903 -0.082272 -0.154438
  H 5.047237 -2.362644 -3.498347
  H 5.047584 -0.746117 -4.147116
  H 2.622429 -0.516461 -3.627730
  H 2.622001 -2.168630 -2.964756
  H 6.674110 -0.483804 -1.155266
 23
 0.000000
  C 1.072070 0.091020 0.277334
  C 2.614248 0.105712 0.313611
  C 3.364005 0.583100 1.501905
  H 2.794290 0.920666 2.342368
  C 3.177910 -0.328026 -0.766470
  C 4.424173 -0.410164 -0.971292
  C 5.030848 -0.833731 -2.027021
  C 4.562039 -1.360814 -3.340655
  C 3.078292 -1.490954 -3.665774
  H 2.943663 -1.886217 -4.650941
  O 6.228816 -0.805312 -1.956556
  H 0.610328 0.456594 1.187618
  H 0.714807 -0.925066 0.103819
  H 0.714563 0.704726 -0.550754
  H 4.019986 1.402084 1.184945
  H 4.020140 -0.227443 1.839514
  H 2.512185 -0.643506 -1.551957
  H 5.054150 -0.081376 -0.152220
  H 5.027449 -2.346294 -3.457626
  H 5.027785 -0.729764 -4.106387
  H 2.593983 -0.514380 -3.622520
  H 2.593567 -2.166553 -2.959555
  H 6.511344 -0.433064 -1.028836
 23
 0.000000
  C 1.105713 0.070352 0.225833
  C 2.684994 0.089662 0.273622
  C 3.425438 0.569062 1.466937
  H 2.849165 0.905080 2.303541
  C 3.222015 -0.330483 -0.772604
  C 4.403198 -0.409169 -0.968823
  C 4.984010 -0.818311 -1.988609
  C 4.536693 -1.347980 -3.308685
  C 3.058418 -1.486485 -3.654621
  H 2.939882 -1.882463 -4.641570
  O 6.117258 -0.776961 -1.885922
  H 0.636864 0.434669 1.132984
  H 0.752372 -0.946694 0.049924
  H 0.752136 0.683098 -0.604650
  H 4.081326 1.389818 1.154397
  H 4.081471 -0.239710 1.808965
  H 2.552780 -0.644927 -1.555520
  H 5.035616 -0.081030 -0.151373
  H 5.009261 -2.330812 -3.419067
  H 5.009586 -0.714279 -4.067821
  H 2.568039 -0.512663 -3.618215
  H 2.567636 -2.164839 -2.955258
  H 6.345486 -0.384035 -0.906667
 23
 0.000000
  C 1.135272 0.049960 0.175019
  C 2.756606 0.074531 0.235923
  C 3.486912 0.556083 1.434609
  H 2.903564 0.890403 2.266981
  C 3.268749 -0.332728 -0.778214
  C 4.385171 -0.408495 -0.967152
  C 4.940560 -0.804128 -1.953277
  C 4.513569 -1.336120 -3.279141
  C 3.040754 -1.482470 -3.644601
  H 2.937394 -1.879038 -4.633020
  O 6.008847 -0.751771 -1.823162
  H 0.658747 0.412892 1.078720
  H 0.786203 -0.968114 -0.003455
  H 0.785976 0.661678 -0.658030
  H 4.142660 1.378759 1.126857
  H 4.142796 -0.250770 1.781425
  H 2.595504 -0.645979 -1.558165
  H 5.021038 -0.081280 -0.152010
  H 4.992775 -2.316422 -3.383228
  H 4.993088 -0.699886 -4.031976
  H 2.544765 -0.511271 -3.614717
  H 2.544376 -2.163450 -2.951769
  H 6.176806 -0.336790 -0.788945
 23
 0.000000
  C 1.159102 0.029849 0.124906
  C 2.829630 0.060492 0.200945
  C 3.548848 0.544353 1.405395
  H 2.957840 0.876802 2.233101
  C 3.318722 -0.334750 -0.783265
  C 4.370767 -0.408135 -0.966267
  C 4.901104 -0.791372 -1.921505
  C 4.492834 -1.325401 -3.252439
  C 3.025293 -1.478923 -3.635741
  H 2.935871 -1.875960 -4.625331
  O 5.904288 -0.729960 -1.768823
  H 0.674255 0.391249 1.024788
  H 0.814708 -0.989330 -0.056326
  H 0.814491 0.640462 -0.710901
  H 4.204397 1.369119 1.102855
  H 4.204523 -0.260410 1.757422
  H 2.640846 -0.646608 -1.559757
  H 5.011345 -0.082194 -0.154307
  H 4.978046 -2.303350 -3.350676
  H 4.978345 -0.686812 -3.999418
  H 2.524245 -0.510156 -3.611905
  H 2.523871 -2.162337 -2.948964
  H 6.004655 -0.291070 -0.675021
 23
 0.000000
  C 1.176270 0.010221 0.075996
  C 2.903040 0.047776 0.169262
  C 3.610368 0.534061 1.379764
  H 3.011231 0.864485 2.202425
  C 3.371226 -0.336546 -0.787757
  C 4.360567 -0.408023 -0.966000
  C 4.866599 -0.780221 -1.893732
  C 4.474859 -1.315966 -3.228938
  C 3.012166 -1.475779 -3.627884
  H 2.935020 -1.873172 -4.618365
  O 5.805809 -0.711805 -1.723596
  H 0.682580 0.369957 0.971729
  H 0.836892 -1.010121 -0.108139
  H 0.836686 0.619672 -0.762713
  H 4.265651 1.361056 1.082786
  H 4.265767 -0.268473 1.737351
  H 2.688190 -0.646835 -1.560348
  H 5.007079 -0.083709 -0.158099
  H 4.965287 -2.291821 -3.321968
  H 4.965571 -0.675281 -3.970705
  H 2.506737 -0.509173 -3.609420
  H 2.506379 -2.161357 -2.946484
  H 5.831180 -0.247808 -0.567222
 23
 0.000000
  C 1.184646 -0.008857 0.028456
  C 2.977076 0.036652 0.141548
  C 3.671635 0.525483 1.358405
  H 3.063871 0.853714 2.175600
  C 3.426641 -0.338083 -0.791602
  C 4.355326 -0.408152 -0.966332
  C 4.837818 -0.770933 -1.870600
  C 4.459865 -1.308051 -3.209224
  C 3.001352 -1.473082 -3.621138
  H 2.934423 -1.870732 -4.612259
  O 5.714526 -0.697521 -1.688013
  H 0.681555 0.349067 0.919676
  H 0.850659 -1.030422 -0.158733
  H 0.850463 0.599371 -0.813306
  H 4.326575 1.354860 1.067365
  H 4.326680 -0.274671 1.721928
  H 2.737799 -0.646582 -1.559744
  H 5.009241 -0.085899 -0.163575
  H 4.954582 -2.282146 -3.297882
  H 4.954851 -0.665604 -3.946614
  H 2.492328 -0.508288 -3.607177
  H 2.491987 -2.160474 -2.944246
  H 5.656314 -0.206803 -0.465047
 23
 0.000000
  C 1.182177 -0.027229 -0.017325
  C 3.051370 0.027444 0.118606
  C 3.732343 0.518919 1.342063
  H 3.115510 0.844792 2.153387
  C 3.484813 -0.339314 -0.794684
  C 4.355727 -0.408491 -0.967188
  C 4.815579 -0.763773 -1.852772
  C 4.448032 -1.301894 -3.193888
  C 2.992756 -1.470848 -3.615543
  H 2.933527 -1.868666 -4.607086
  O 5.632002 -0.687320 -1.662603
  H 0.669187 0.328741 0.869024
  H 0.853931 -1.050067 -0.207693
  H 0.853746 0.579727 -0.862264
  H 4.386850 1.350814 1.057305
  H 4.386945 -0.278717 1.711864
  H 2.789458 -0.645776 -1.557760
  H 5.018662 -0.088800 -0.170824
  H 4.945953 -2.274652 -3.279228
  H 4.946206 -0.658109 -3.927957
  H 2.481055 -0.507428 -3.604994
  H 2.480731 -2.159616 -2.942066
  H 5.480925 -0.168223 -0.368917
 23
 0.000000
  C 1.167002 -0.044715 -0.060900
  C 3.125324 0.020476 0.101244
  C 3.792028 0.514655 1.331454
  H 3.165795 0.838029 2.136554
  C 3.545292 -0.340164 -0.796813
  C 4.362199 -0.408975 -0.968406
  C 4.800404 -0.758931 -1.840722
  C 4.439302 -1.297659 -3.183344
  C 2.986066 -1.469041 -3.611010
  H 2.931600 -1.866953 -4.602787
  O 5.559513 -0.681268 -1.647531
  H 0.643733 0.309172 0.820261
  H 0.844790 -1.068859 -0.254528
  H 0.844615 0.560935 -0.909097
  H 4.446009 1.349179 1.053251
  H 4.446094 -0.280354 1.707807
  H 2.842683 -0.644316 -1.554149
  H 5.035858 -0.092405 -0.179827
  H 4.939194 -2.269585 -3.266622
  H 4.939430 -0.653041 -3.915349
  H 2.472718 -0.506477 -3.602579
  H 2.472412 -2.158665 -2.939654
  H 5.305952 -0.132249 -0.279281
 23
 0.000000
  C 1.137047 -0.061132 -0.101810
  C 3.198156 0.016093 0.090323
  C 3.850061 0.513000 1.327347
  H 3.214209 0.833757 2.125928
  C 3.607471 -0.340532 -0.797743
  C 4.375119 -0.409533 -0.969806
  C 4.792735 -0.756586 -1.834892
  C 4.433603 -1.295499 -3.177967
  C 2.980995 -1.467631 -3.607463
  H 2.927984 -1.865571 -4.599308
  O 5.498267 -0.679355 -1.642774
  H 0.603241 0.290563 0.773891
  H 0.821099 -1.086597 -0.298738
  H 0.820935 0.543198 -0.953305
  H 4.503417 1.350234 1.055900
  H 4.503492 -0.279301 1.710452
  H 2.896872 -0.642093 -1.548635
  H 5.061214 -0.096686 -0.190514
  H 4.934101 -2.267166 -3.260616
  H 4.934319 -0.650622 -3.909342
  H 2.467140 -0.505332 -3.599679
  H 2.466852 -2.157521 -2.936755
  H 5.132777 -0.098939 -0.196283
 23
 0.000000
  C 1.088720 -0.075965 -0.138772
  C 3.269643 0.014867 0.087268
  C 3.906707 0.514433 1.330934
  H 3.261339 0.832539 2.122914
  C 3.671159 -0.340281 -0.797131
  C 4.395474 -0.410244 -0.971588
  C 4.793245 -0.757284 -1.836647
  C 4.430410 -1.295857 -3.178864
  C 2.976623 -1.466617 -3.604903
  H 2.920876 -1.864506 -4.596619
  O 5.449767 -0.682023 -1.649430
  H 0.544469 0.273500 0.731374
  H 0.779058 -1.102722 -0.338927
  H 0.778905 0.527074 -0.993490
  H 4.559358 1.354368 1.066220
  H 4.559424 -0.275169 1.720766
  H 2.951547 -0.638857 -1.540594
  H 5.096086 -0.101889 -0.203501
  H 4.929793 -2.267996 -3.262702
  H 4.929994 -0.651452 -3.911429
  H 2.463696 -0.503834 -3.595897
  H 2.463426 -2.156022 -2.932972
  H 4.963641 -0.068072 -0.119373
 23
 0.000000
  C 1.064853 -0.081217 -0.151856
  C 3.291424 0.014867 0.087270
  C 3.923125 0.515376 1.333290
  H 3.274351 0.832518 2.122870
  C 3.691564 -0.340555 -0.797815
  C 4.403546 -0.411044 -0.973583
  C 4.795227 -0.758968 -1.840845
  C 4.429862 -1.297306 -3.182471
  C 2.975274 -1.467122 -3.606147
  H 2.917657 -1.864975 -4.597771
  O 5.436904 -0.684635 -1.655939
  H 0.516859 0.267435 0.716265
  H 0.757464 -1.108433 -0.353156
  H 0.757314 0.521364 -1.007719
  H 4.575504 1.356282 1.070998
  H 4.575567 -0.273255 1.725543
  H 2.968928 -0.638116 -1.538751
  H 5.109321 -0.104325 -0.209575
  H 4.928478 -2.269768 -3.267119
  H 4.928673 -0.653224 -3.915847
  H 2.462986 -0.504007 -3.596308
  H 2.462721 -2.156195 -2.933382
  H 4.908531 -0.058466 -0.095439
 23
 0.000000
  C 0.934486 -0.104522 -0.209935
  C 3.419312 0.021546 0.103906
  C 4.024038 0.526645 1.361395
  H 3.358386 0.838887 2.138777
  C 3.810583 -0.337065 -0.789141
  C 4.455894 -0.410793 -0.972980
  C 4.810292 -0.765232 -1.856485
  C 4.423624 -1.301509 -3.192954
  C 2.962456 -1.463334 -3.596642
  H 2.889070 -1.860829 -4.587367
  O 5.371460 -0.697708 -1.688531
  H 0.367901 0.239974 0.647841
  H 0.638540 -1.133981 -0.416837
  H 0.638407 0.495818 -1.071392
  H 4.674889 1.372404 1.111200
  H 4.674938 -0.257138 1.765733
  H 3.068601 -0.627932 -1.513417
  H 5.193413 -0.114619 -0.235271
  H 4.915694 -2.276686 -3.284393
  H 4.915856 -0.660144 -3.933124
  H 2.455638 -0.497426 -3.579818
  H 2.455406 -2.149612 -2.916887
  H 4.591566 -0.009287 0.027087
