 32
 0.000000
  C 0.897619 0.036225 0.271160
  C 2.391425 0.042963 0.091675
  C 3.233957 -0.026184 1.357370
  C 2.516450 -0.077997 2.706002
  C 3.535482 -0.138236 3.840941
  C 2.991432 0.115832 -1.115578
  C 2.338768 0.210693 -2.483035
  C 0.828867 0.206470 -2.709769
  C 0.542183 0.312268 -4.206149
  C 4.447412 0.122099 -1.210090
  C 5.183635 0.195514 -2.320017
  O 6.543367 0.196542 -2.337128
  H 0.622809 -0.025968 1.316242
  H 0.448628 -0.816527 -0.231388
  H 0.454008 0.946012 -0.124743
  H 3.890998 0.849357 1.380981
  H 3.871400 -0.913904 1.309250
  H 1.878251 -0.961993 2.764643
  H 1.895797 0.809941 2.842540
  H 4.160997 -1.023788 3.749536
  H 3.030780 -0.175481 4.803520
  H 4.178749 0.739140 3.827008
  H 2.745471 -0.621047 -3.068719
  H 2.723436 1.130608 -2.937263
  H 0.357411 1.051006 -2.210041
  H 0.383296 -0.715484 -2.339100
  H 0.955611 1.232487 -4.613208
  H -0.530090 0.310284 -4.387854
  H 0.980741 -0.526381 -4.742639
  H 4.996853 0.059763 -0.281317
  H 4.799792 0.262574 -3.324035
  H 6.880235 0.136251 -1.432943
 32
 -0.155607
  C 0.913167 0.425902 0.290053
  C 2.395538 0.253148 0.100713
  C 3.235901 0.120641 1.362959
  C 2.509034 -0.172038 2.676460
  C 3.516171 -0.403260 3.799030
  C 2.993138 0.230419 -1.110061
  C 2.346548 0.259017 -2.483427
  C 0.839772 0.128336 -2.693312
  C 0.530766 0.091637 -4.187846
  C 4.451875 0.213786 -1.203403
  C 5.194565 0.172112 -2.312329
  O 6.551234 0.199084 -2.322662
  H 0.656585 0.526547 1.336643
  H 0.359136 -0.423603 -0.101689
  H 0.568148 1.324202 -0.216147
  H 3.817451 1.039001 1.503384
  H 3.943631 -0.699050 1.213958
  H 1.888982 -1.064030 2.566365
  H 1.868124 0.664248 2.961185
  H 4.162323 -1.248047 3.569272
  H 3.002437 -0.611294 4.734773
  H 4.140694 0.476577 3.940360
  H 2.800853 -0.568076 -3.037965
  H 2.673189 1.183458 -2.972410
  H 0.306173 0.969345 -2.255281
  H 0.475409 -0.794034 -2.240932
  H 0.872239 1.004236 -4.672111
  H -0.540198 -0.002798 -4.352707
  H 1.025540 -0.752658 -4.663690
  H 5.001191 0.285526 -0.274755
  H 4.819334 0.114016 -3.319913
  H 6.879822 0.253616 -1.421158
 32
 -0.270804
  C 0.972414 0.759207 0.292022
  C 2.429264 0.441662 0.101530
  C 3.243018 0.257496 1.372470
  C 2.485018 -0.318827 2.572223
  C 3.445680 -0.612861 3.719762
  C 3.019515 0.310992 -1.104357
  C 2.358101 0.264810 -2.470128
  C 0.850989 0.073935 -2.627878
  C 0.501641 -0.090839 -4.104750
  C 4.477202 0.289614 -1.206104
  C 5.215349 0.113855 -2.304026
  O 6.572768 0.179222 -2.330394
  H 0.762815 0.995133 1.328882
  H 0.331149 -0.071136 0.006750
  H 0.695971 1.627415 -0.301741
  H 3.694726 1.209125 1.672424
  H 4.040153 -0.451910 1.150208
  H 1.985234 -1.242721 2.274757
  H 1.727463 0.378365 2.931392
  H 4.203649 -1.331070 3.413552
  H 2.908361 -1.025227 4.570837
  H 3.947691 0.297828 4.040685
  H 2.821970 -0.579524 -2.987891
  H 2.649299 1.169604 -3.014891
  H 0.301940 0.929208 -2.240638
  H 0.532319 -0.820106 -2.090639
  H 0.801842 0.789830 -4.668954
  H -0.570101 -0.228285 -4.229739
  H 1.008714 -0.955862 -4.527610
  H 5.029127 0.509282 -0.301328
  H 4.837003 -0.097284 -3.290350
  H 6.906163 0.372136 -1.444426
 32
 -0.435359
  C 1.049716 1.066910 0.290237
  C 2.468631 0.611896 0.100441
  C 3.242883 0.379729 1.380268
  C 2.468904 -0.461886 2.403375
  C 3.351502 -0.810948 3.596230
  C 3.054819 0.381214 -1.091870
  C 2.374677 0.257092 -2.442622
  C 0.869248 0.015903 -2.531398
  C 0.470344 -0.277882 -3.975020
  C 4.511685 0.368352 -1.203065
  C 5.246136 0.068585 -2.276237
  O 6.599888 0.176635 -2.331093
  H 0.907819 1.416261 1.309148
  H 0.325670 0.275871 0.107642
  H 0.829219 1.897217 -0.376959
  H 3.539272 1.323964 1.845008
  H 4.120791 -0.204821 1.114163
  H 2.126933 -1.380341 1.922145
  H 1.590567 0.073724 2.765000
  H 4.223830 -1.377525 3.276850
  H 2.799689 -1.410009 4.317171
  H 3.695419 0.093452 4.094322
  H 2.845743 -0.603050 -2.925146
  H 2.626263 1.136969 -3.044500
  H 0.311088 0.885552 -2.192446
  H 0.597621 -0.837727 -1.908351
  H 0.726988 0.560242 -4.619737
  H -0.601321 -0.449523 -4.047234
  H 0.983787 -1.162878 -4.345648
  H 5.061960 0.720491 -0.338986
  H 4.864897 -0.285221 -3.219765
  H 6.934576 0.500398 -1.484681
 32
 2.089933
  C 1.155129 1.425851 0.259480
  C 2.502502 0.785721 0.099021
  C 3.226039 0.480643 1.387772
  C 2.437979 -0.570167 2.187147
  C 3.232117 -1.049759 3.395724
  C 3.096178 0.443150 -1.065365
  C 2.398103 0.215904 -2.392238
  C 0.901622 -0.086553 -2.386188
  C 0.441477 -0.526827 -3.772656
  C 4.548708 0.497654 -1.186679
  C 5.292892 0.132591 -2.232788
  O 6.635095 0.329363 -2.324344
  H 1.081805 1.850701 1.258327
  H 0.326824 0.729005 0.138647
  H 1.034477 2.229403 -0.464043
  H 3.390753 1.359820 2.010147
  H 4.140841 -0.019322 1.079494
  H 2.212628 -1.416062 1.534737
  H 1.488541 -0.152287 2.528187
  H 4.169416 -1.505187 3.082985
  H 2.663647 -1.787054 3.958265
  H 3.461401 -0.216528 4.056961
  H 2.888152 -0.655405 -2.833101
  H 2.588701 1.062812 -3.059968
  H 0.329944 0.792576 -2.096903
  H 0.695214 -0.883708 -1.669166
  H 0.635915 0.254710 -4.504299
  H -0.625688 -0.737382 -3.772090
  H 0.966943 -1.426488 -4.086861
  H 5.078674 0.951598 -0.357077
  H 4.922406 -0.330830 -3.132144
  H 6.954969 0.760324 -1.521206
 32
 11.584547
  C 1.289192 1.721551 0.207592
  C 2.531069 0.891612 0.105222
  C 3.206012 0.488288 1.393540
  C 2.357049 -0.615993 2.057431
  C 3.113819 -1.273358 3.204783
  C 3.136134 0.427076 -1.023970
  C 2.435013 0.102370 -2.329786
  C 0.943618 -0.216432 -2.252484
  C 0.434809 -0.759259 -3.583975
  C 4.572173 0.628438 -1.168012
  C 5.322529 0.340655 -2.234374
  O 6.634596 0.680561 -2.362718
  H 1.234230 2.146934 1.207598
  H 0.364556 1.167344 0.042415
  H 1.329015 2.530122 -0.520168
  H 3.376647 1.293881 2.101763
  H 4.063240 -0.071348 1.011065
  H 2.091415 -1.364446 1.308930
  H 1.427228 -0.189708 2.442526
  H 4.028838 -1.738663 2.843830
  H 2.501898 -2.039198 3.676323
  H 3.380342 -0.535456 3.958619
  H 2.938516 -0.786943 -2.717438
  H 2.588631 0.904561 -3.059559
  H 0.377129 0.678234 -2.003378
  H 0.769860 -0.957139 -1.468471
  H 0.584856 -0.027421 -4.375127
  H -0.627396 -0.986096 -3.524350
  H 0.964398 -1.669935 -3.857254
  H 5.062417 1.146828 -0.351814
  H 4.976135 -0.167648 -3.118620
  H 6.929292 1.135415 -1.562784
 32
 31.302172
  C 1.326836 2.012715 0.122790
  C 2.450787 1.030453 0.112039
  C 3.071651 0.508830 1.385379
  C 2.333733 -0.726648 1.958532
  C 3.193900 -1.430160 2.997508
  C 3.104069 0.484185 -0.962718
  C 2.451930 0.046558 -2.262831
  C 0.971467 -0.309949 -2.164481
  C 0.471822 -0.942617 -3.458557
  C 4.523813 0.758762 -1.099268
  C 5.305252 0.457432 -2.141794
  O 6.623155 0.825696 -2.247799
  H 1.240897 2.437659 1.119951
  H 0.358599 1.573752 -0.124792
  H 1.520656 2.807910 -0.593764
  H 3.251199 1.237364 2.169687
  H 3.823233 -0.079094 0.809546
  H 2.077560 -1.414923 1.152198
  H 1.394656 -0.414230 2.429575
  H 4.120097 -1.786193 2.552466
  H 2.663002 -2.281871 3.415824
  H 3.444670 -0.750923 3.808490
  H 2.991627 -0.846591 -2.586797
  H 2.585709 0.805214 -3.042257
  H 0.383280 0.583406 -1.961642
  H 0.819851 -1.006710 -1.336771
  H 0.613052 -0.260680 -4.294569
  H -0.587092 -1.180066 -3.385195
  H 1.014256 -1.861408 -3.672381
  H 4.993957 1.247284 -0.251136
  H 4.976510 -0.040607 -3.041268
  H 6.886096 1.313416 -1.454516
 32
 57.467322
  C 1.381004 2.191823 0.062656
  C 2.414272 1.122584 0.136416
  C 2.937327 0.516635 1.380465
  C 2.291418 -0.790220 1.893257
  C 3.237988 -1.545190 2.814284
  C 3.101102 0.473417 -0.886747
  C 2.476901 -0.015482 -2.183634
  C 0.997322 -0.378693 -2.089381
  C 0.513969 -1.055671 -3.366908
  C 4.510103 0.828545 -1.033946
  C 5.298385 0.559001 -2.078753
  O 6.588592 0.988010 -2.196869
  H 1.260043 2.638715 1.047481
  H 0.405158 1.807526 -0.243084
  H 1.670615 2.962519 -0.650157
  H 3.112959 1.191306 2.216941
  H 3.636676 -0.138439 0.611469
  H 1.992418 -1.427393 1.059100
  H 1.381310 -0.538446 2.453220
  H 4.140188 -1.839263 2.281210
  H 2.757798 -2.441609 3.199983
  H 3.527783 -0.921907 3.657180
  H 3.027201 -0.912721 -2.478016
  H 2.617047 0.724515 -2.979433
  H 0.401263 0.517522 -1.919788
  H 0.840248 -1.049145 -1.240885
  H 0.651921 -0.396891 -4.221790
  H -0.542339 -1.304415 -3.293035
  H 1.069851 -1.973005 -3.550257
  H 4.935583 1.396381 -0.212968
  H 5.002060 0.003332 -2.951810
  H 6.828757 1.496822 -1.412653
 32
 71.667647
  C 1.444158 2.282783 0.038906
  C 2.403246 1.152421 0.170885
  C 2.814164 0.535233 1.377207
  C 2.252909 -0.812850 1.827683
  C 3.224825 -1.574692 2.721746
  C 3.129582 0.442767 -0.854129
  C 2.487764 -0.053349 -2.139427
  C 1.012835 -0.429691 -2.015190
  C 0.507601 -1.104261 -3.285448
  C 4.547493 0.841516 -1.018863
  C 5.321474 0.602505 -2.074239
  O 6.611741 1.038578 -2.199793
  H 1.292618 2.743602 1.013840
  H 0.473291 1.935053 -0.315982
  H 1.803557 3.036358 -0.661805
  H 2.943431 1.176402 2.260023
  H 3.593170 -0.200029 0.369637
  H 1.985117 -1.431359 0.967452
  H 1.333134 -0.616501 2.392282
  H 4.139528 -1.810855 2.180581
  H 2.778320 -2.504927 3.065445
  H 3.487539 -0.978691 3.592676
  H 3.036558 -0.945129 -2.454094
  H 2.609477 0.695681 -2.928295
  H 0.413533 0.460503 -1.827879
  H 0.879299 -1.105639 -1.167031
  H 0.621386 -0.440449 -4.139582
  H -0.544442 -1.362403 -3.189993
  H 1.066759 -2.015717 -3.485040
  H 4.968377 1.405359 -0.192671
  H 5.019915 0.053635 -2.950680
  H 6.858436 1.535470 -1.410107
 32
 56.526901
  C 1.542916 2.337371 0.025376
  C 2.413227 1.155548 0.223831
  C 2.691439 0.558668 1.392588
  C 2.207034 -0.819842 1.773827
  C 3.181876 -1.577605 2.671563
  C 3.170448 0.383038 -0.818041
  C 2.503977 -0.116281 -2.087620
  C 1.029856 -0.487250 -1.931573
  C 0.486361 -1.130867 -3.202197
  C 4.592978 0.849615 -1.011822
  C 5.331979 0.681824 -2.090638
  O 6.616046 1.118632 -2.223159
  H 1.347147 2.816010 0.983652
  H 0.588673 2.023536 -0.394459
  H 1.985105 3.068753 -0.651850
  H 2.751621 1.154851 2.309032
  H 3.570273 -0.257067 0.121723
  H 1.987639 -1.420033 0.889012
  H 1.269603 -0.675328 2.319384
  H 4.121139 -1.758887 2.151999
  H 2.762924 -2.536073 2.968683
  H 3.393735 -1.003218 3.570728
  H 3.045736 -0.995955 -2.441307
  H 2.596972 0.658055 -2.856594
  H 0.441452 0.400803 -1.706240
  H 0.914396 -1.182360 -1.096680
  H 0.574807 -0.446484 -4.043544
  H -0.562852 -1.391772 -3.081492
  H 1.039513 -2.037015 -3.440297
  H 4.994989 1.442575 -0.195957
  H 5.027767 0.132906 -2.964268
  H 6.879106 1.573387 -1.422724
 32
 34.805329
  C 1.712477 2.343168 -0.027609
  C 2.502182 1.110875 0.240004
  C 2.652606 0.524360 1.438032
  C 2.164192 -0.847737 1.822277
  C 3.103084 -1.597519 2.768349
  C 3.209545 0.297509 -0.829607
  C 2.503219 -0.120531 -2.104029
  C 1.044068 -0.526581 -1.919007
  C 0.477998 -1.140837 -3.193210
  C 4.601193 0.840384 -1.042618
  C 5.306702 0.776301 -2.161084
  O 6.544444 1.322134 -2.334948
  H 1.511013 2.874061 0.902329
  H 0.759176 2.046800 -0.463236
  H 2.205969 3.022957 -0.725067
  H 2.661893 1.151917 2.337069
  H 3.523165 -0.483224 -0.082623
  H 1.994892 -1.463276 0.935360
  H 1.202142 -0.691336 2.316703
  H 4.061348 -1.782170 2.287551
  H 2.674022 -2.554421 3.058132
  H 3.279184 -1.014302 3.669367
  H 3.032127 -0.995789 -2.494424
  H 2.588373 0.668868 -2.851344
  H 0.442230 0.343386 -1.651204
  H 0.965111 -1.245693 -1.101450
  H 0.540080 -0.433021 -4.016654
  H -0.565063 -1.416012 -3.055492
  H 1.034100 -2.034277 -3.468574
  H 5.036648 1.320162 -0.173466
  H 4.963498 0.317353 -3.074351
  H 6.823438 1.750179 -1.516364
 32
 17.775180
  C 1.884004 2.346206 -0.091430
  C 2.521946 1.040121 0.242034
  C 2.534937 0.489822 1.453484
  C 2.169386 -0.924228 1.812451
  C 3.095913 -1.555717 2.851270
  C 3.220805 0.209968 -0.824234
  C 2.496794 -0.184670 -2.103997
  C 1.031682 -0.568909 -1.899790
  C 0.417020 -1.097899 -3.190830
  C 4.591230 0.816677 -1.058718
  C 5.258061 0.839080 -2.199844
  O 6.492278 1.391858 -2.373724
  H 1.616988 2.887356 0.814397
  H 0.972621 2.144429 -0.649629
  H 2.522477 2.979405 -0.709238
  H 2.422542 1.116517 2.339871
  H 3.534582 -0.626866 -0.166485
  H 2.122801 -1.567019 0.931834
  H 1.159944 -0.861990 2.230074
  H 4.106780 -1.642436 2.457544
  H 2.747344 -2.549409 3.123983
  H 3.130956 -0.944672 3.750681
  H 3.014946 -1.036290 -2.548713
  H 2.557854 0.645655 -2.811840
  H 0.458630 0.293802 -1.563045
  H 0.961687 -1.336482 -1.125985
  H 0.459643 -0.340684 -3.970985
  H -0.624115 -1.371877 -3.035880
  H 0.954611 -1.977056 -3.539418
  H 5.017263 1.309765 -0.191545
  H 4.916599 0.379850 -3.113151
  H 6.789437 1.782105 -1.541710
 32
 5.500025
  C 2.057634 2.325091 -0.149240
  C 2.520936 0.950954 0.216185
  C 2.396796 0.437022 1.436532
  C 2.157058 -0.997996 1.815118
  C 3.081841 -1.487088 2.929903
  C 3.224169 0.122658 -0.842031
  C 2.469923 -0.174302 -2.133438
  C 1.024164 -0.609715 -1.898644
  C 0.363183 -1.060748 -3.195941
  C 4.577880 0.760864 -1.055406
  C 5.228816 0.868719 -2.202711
  O 6.463511 1.423331 -2.353129
  H 1.813737 2.901710 0.740688
  H 1.158592 2.236050 -0.755895
  H 2.801046 2.868434 -0.732932
  H 2.189546 1.078966 2.290462
  H 3.482654 -0.796828 -0.290096
  H 2.243455 -1.665453 0.956979
  H 1.121785 -1.043714 2.165705
  H 4.118150 -1.467659 2.598861
  H 2.831288 -2.505596 3.218518
  H 2.991329 -0.849185 3.806693
  H 2.985368 -0.986113 -2.652605
  H 2.494986 0.702982 -2.782347
  H 0.446760 0.211250 -1.472330
  H 1.007521 -1.429841 -1.177787
  H 0.361869 -0.251948 -3.923750
  H -0.666307 -1.362649 -3.017070
  H 0.898076 -1.905110 -3.625637
  H 5.038573 1.143561 -0.151018
  H 4.853299 0.516934 -3.150059
  H 6.783376 1.733236 -1.496538
 32
 -1.710389
  C 2.130968 2.253208 -0.182505
  C 2.506333 0.852838 0.199349
  C 2.256535 0.362551 1.406770
  C 2.212188 -1.071092 1.849168
  C 3.118265 -1.330588 3.052718
  C 3.223528 0.039495 -0.858193
  C 2.448671 -0.156962 -2.160680
  C 1.019039 -0.641792 -1.924167
  C 0.311202 -0.950800 -3.238082
  C 4.576106 0.682029 -1.049769
  C 5.203879 0.880750 -2.197924
  O 6.434700 1.447185 -2.330185
  H 1.818780 2.824439 0.688774
  H 1.301079 2.223498 -0.886398
  H 2.959005 2.769025 -0.667883
  H 1.934026 1.021366 2.207308
  H 3.437191 -0.935449 -0.399334
  H 2.475604 -1.757676 1.044824
  H 1.176243 -1.281596 2.132885
  H 4.157529 -1.143829 2.790286
  H 3.026783 -2.361651 3.387193
  H 2.851540 -0.675503 3.879432
  H 2.967205 -0.907422 -2.762087
  H 2.437637 0.775312 -2.727666
  H 0.451993 0.114433 -1.379626
  H 1.043091 -1.540762 -1.304216
  H 0.267895 -0.063049 -3.865738
  H -0.705500 -1.291053 -3.055263
  H 0.840037 -1.728922 -3.784482
  H 5.058712 0.985726 -0.126678
  H 4.804722 0.610706 -3.162320
  H 6.776027 1.683407 -1.458466
 32
 -4.626727
  C 2.317090 2.266883 -0.133921
  C 2.523849 0.813432 0.179575
  C 2.119564 0.296890 1.332149
  C 2.185641 -1.123542 1.809564
  C 3.002916 -1.231447 3.097008
  C 3.260180 0.014256 -0.877538
  C 2.438081 -0.145823 -2.159577
  C 1.059201 -0.744652 -1.889006
  C 0.283207 -0.968755 -3.181217
  C 4.606484 0.650913 -1.098808
  C 5.152598 0.976886 -2.262288
  O 6.382849 1.537807 -2.420793
  H 1.960097 2.807048 0.739294
  H 1.579118 2.375897 -0.928285
  H 3.243198 2.722131 -0.480591
  H 1.687845 0.942864 2.089337
  H 3.450732 -0.977425 -0.450872
  H 2.606110 -1.793330 1.060040
  H 1.163105 -1.459666 2.010075
  H 4.030661 -0.922582 2.918374
  H 3.008491 -2.256079 3.462058
  H 2.583696 -0.592203 3.871027
  H 2.978140 -0.802304 -2.845322
  H 2.324815 0.825887 -2.643128
  H 0.492935 -0.079077 -1.234828
  H 1.175653 -1.696444 -1.365620
  H 0.164426 -0.032212 -3.722189
  H -0.705290 -1.370127 -2.970288
  H 0.807899 -1.670555 -3.826127
  H 5.163549 0.837744 -0.185956
  H 4.676506 0.829794 -3.218226
  H 6.797667 1.655608 -1.556878
