 28
 0.000000
  C 0.905902 0.048645 0.273637
  C 2.396777 0.059192 0.086655
  C 3.243057 -0.012105 1.350280
  C 2.526318 -0.087994 2.695106
  H 3.248294 -0.133562 3.502711
  C 2.990423 0.127453 -1.123052
  C 2.348416 0.204852 -2.494735
  C 0.837481 0.217328 -2.715757
  C 0.523890 0.301496 -4.207428
  C 4.451888 0.132571 -1.213695
  C 5.189010 0.194923 -2.318817
  H 6.266399 0.194341 -2.308441
  H 0.612424 -0.010176 1.316009
  H 0.461191 -0.815293 -0.213383
  H 0.461192 0.961886 -0.113101
  H 3.889216 0.870846 1.379131
  H 3.889216 -0.892694 1.279622
  H 1.898518 -0.976311 2.748612
  H 1.898510 0.788660 2.848207
  H 2.739170 -0.643478 -3.067540
  H 2.739169 1.112239 -2.968470
  H 0.383188 1.077915 -2.226518
  H 0.383189 -0.692834 -2.326437
  H 0.937127 1.209960 -4.641176
  H -0.552793 0.310321 -4.363808
  H 0.937128 -0.552411 -4.740622
  H 4.995446 0.080059 -0.283051
  H 4.804520 0.251651 -3.324107
 28
 9.954315
  C 0.821727 0.048228 0.281026
  C 2.439485 0.060445 0.064464
  C 3.283363 -0.010302 1.318335
  C 2.499422 -0.092518 2.775267
  H 3.223835 -0.137943 3.580358
  C 3.019773 0.128676 -1.144710
  C 2.366631 0.205726 -2.510224
  C 0.854511 0.217356 -2.716239
  C 0.528823 0.301390 -4.205537
  C 4.481081 0.134451 -1.247011
  C 5.208791 0.197037 -2.356277
  H 6.286910 0.196603 -2.348535
  H 0.546098 -0.010786 1.326815
  H 0.377344 -0.814324 -0.203275
  H 0.377344 0.959787 -0.103166
  H 3.926728 0.871276 1.352465
  H 3.926729 -0.890122 1.253076
  H 1.874781 -0.979765 2.824504
  H 1.874774 0.783553 2.924006
  H 2.753404 -0.642402 -3.086038
  H 2.753402 1.113248 -2.986969
  H 0.404665 1.077452 -2.222354
  H 0.404665 -0.692844 -2.322245
  H 0.938671 1.209968 -4.642313
  H -0.548978 0.309760 -4.353861
  H 0.938672 -0.552291 -4.741753
  H 5.031609 0.082170 -0.320449
  H 4.815170 0.253558 -3.357902
 28
 32.148689
  C 0.759632 0.047208 0.299085
  C 2.502711 0.061769 0.041000
  C 3.320055 -0.008184 1.280800
  C 2.430147 -0.095490 2.827927
  H 3.147748 -0.141039 3.635196
  C 3.058528 0.130068 -1.169377
  C 2.387254 0.206526 -2.524395
  C 0.874209 0.216439 -2.700023
  C 0.523294 0.300178 -4.184084
  C 4.521625 0.136820 -1.288975
  C 5.237096 0.199875 -2.406549
  H 6.315701 0.199410 -2.398320
  H 0.528957 -0.012205 1.351962
  H 0.324701 -0.814163 -0.182616
  H 0.324702 0.957302 -0.082655
  H 3.953847 0.871085 1.347096
  H 3.953852 -0.889329 1.247762
  H 1.813426 -0.981202 2.847046
  H 1.813412 0.782448 2.946567
  H 2.766794 -0.641420 -3.105565
  H 2.766794 1.114473 -3.006486
  H 0.434377 1.075320 -2.196146
  H 0.434380 -0.693669 -2.295967
  H 0.925994 1.208977 -4.627128
  H -0.556566 0.307601 -4.315628
  H 0.925994 -0.553014 -4.726550
  H 5.082161 0.084812 -0.367269
  H 4.829302 0.256045 -3.402011
 28
 58.139839
  C 0.679230 0.046117 0.318419
  C 2.548347 0.062783 0.023046
  C 3.360559 -0.007366 1.266333
  C 2.388518 -0.100462 2.916047
  H 3.115924 -0.145515 3.714531
  C 3.087262 0.131973 -1.203125
  C 2.404874 0.208150 -2.553174
  C 0.889568 0.216850 -2.707313
  C 0.518644 0.300315 -4.186493
  C 4.550193 0.139160 -1.330465
  C 5.259416 0.202343 -2.450306
  H 6.337299 0.201652 -2.438062
  H 0.487324 -0.013608 1.376826
  H 0.255253 -0.820272 -0.166034
  H 0.255253 0.961506 -0.065491
  H 3.988030 0.876439 1.361643
  H 3.988030 -0.896276 1.261614
  H 1.778324 -0.991925 2.913349
  H 1.778316 0.785638 3.013655
  H 2.779789 -0.639702 -3.137708
  H 2.779790 1.116380 -3.038618
  H 0.457633 1.075049 -2.195628
  H 0.457631 -0.693466 -2.295419
  H 0.915502 1.209240 -4.634429
  H -0.562739 0.306985 -4.304666
  H 0.915500 -0.552450 -4.733835
  H 5.113497 0.087200 -0.409580
  H 4.844267 0.258301 -3.442026
 28
 85.282345
  C 0.608614 0.046385 0.313678
  C 2.605602 0.064853 -0.013629
  C 3.397550 -0.004610 1.217477
  C 2.334639 -0.103112 2.963019
  H 3.065609 -0.147776 3.754625
  C 3.119075 0.133075 -1.222661
  C 2.424558 0.208600 -2.561159
  C 0.907603 0.215480 -2.683055
  C 0.504441 0.298456 -4.153563
  C 4.581540 0.140464 -1.353579
  C 5.290606 0.203904 -2.477949
  H 6.368708 0.202963 -2.461267
  H 0.449576 -0.013584 1.376405
  H 0.199300 -0.821654 -0.173479
  H 0.199300 0.963716 -0.072733
  H 4.013439 0.879009 1.342316
  H 4.013446 -0.896663 1.242122
  H 1.733374 -0.995845 2.935244
  H 1.733366 0.787071 3.035852
  H 2.791792 -0.639046 -3.150439
  H 2.791793 1.117158 -3.051343
  H 0.487491 1.072824 -2.160053
  H 0.487491 -0.695254 -2.259820
  H 0.890927 1.207830 -4.609769
  H -0.579106 0.303838 -4.248923
  H 0.890923 -0.553820 -4.709168
  H 5.144003 0.088442 -0.431575
  H 4.871383 0.259761 -3.467900
 28
 108.477073
  C 0.505368 0.044185 0.352780
  C 2.632572 0.065560 -0.026076
  C 3.413552 -0.004509 1.215735
  C 2.320256 -0.110073 3.086496
  H 3.122192 -0.150513 3.802988
  C 3.115425 0.135162 -1.259576
  C 2.429781 0.211214 -2.607488
  C 0.912563 0.217957 -2.726974
  C 0.505251 0.300686 -4.193132
  C 4.581748 0.141784 -1.376877
  C 5.297944 0.204936 -2.496224
  H 6.375747 0.202853 -2.459306
  H 0.443370 -0.016043 1.420088
  H 0.141745 -0.831740 -0.143604
  H 0.141747 0.970392 -0.041913
  H 4.002352 0.883688 1.390073
  H 4.002371 -0.906696 1.289055
  H 1.757269 -1.019137 3.031965
  H 1.757259 0.799317 3.134582
  H 2.801213 -0.634887 -3.195738
  H 2.801202 1.118113 -3.096819
  H 0.496368 1.073144 -2.201254
  H 0.496375 -0.690928 -2.300800
  H 0.892304 1.208905 -4.649546
  H -0.577658 0.306035 -4.288006
  H 0.892297 -0.550415 -4.748807
  H 5.125254 0.089203 -0.444956
  H 4.876042 0.260780 -3.486064
 28
 130.774884
  C 0.451972 0.043417 0.366294
  C 2.708577 0.066839 -0.048815
  C 3.437070 -0.003060 1.189951
  C 2.218175 -0.112676 3.132520
  H 3.020151 -0.153013 3.847325
  C 3.172207 0.137107 -1.294084
  C 2.463930 0.212268 -2.626162
  C 0.943279 0.216080 -2.693653
  C 0.475313 0.297928 -4.144129
  C 4.641170 0.144989 -1.433726
  C 5.343488 0.208988 -2.568054
  H 6.420908 0.207641 -2.544174
  H 0.444699 -0.016622 1.430234
  H 0.113222 -0.839442 -0.137807
  H 0.113222 0.977385 -0.035285
  H 4.004290 0.892787 1.437329
  H 4.004295 -0.921037 1.334984
  H 1.660934 -1.024501 3.026661
  H 1.660918 0.805260 3.129913
  H 2.821466 -0.637996 -3.219490
  H 2.821458 1.123886 -3.120073
  H 0.547545 1.068569 -2.146383
  H 0.547532 -0.692579 -2.245749
  H 0.840962 1.207752 -4.615916
  H -0.611550 0.300763 -4.194344
  H 0.840961 -0.553058 -4.715277
  H 5.193846 0.092492 -0.503301
  H 4.904864 0.264273 -3.547980
 28
 148.941649
  C 0.391157 0.043056 0.373068
  C 2.779401 0.068147 -0.071792
  C 3.449799 -0.001235 1.157733
  C 2.148177 -0.116290 3.196309
  H 2.963891 -0.155435 3.889828
  C 3.213716 0.138719 -1.322485
  C 2.482697 0.213360 -2.645260
  C 0.965198 0.214891 -2.672031
  C 0.458068 0.295807 -4.107031
  C 4.683775 0.147187 -1.472671
  C 5.383950 0.211920 -2.620041
  H 6.462757 0.210912 -2.602269
  H 0.432626 -0.017242 1.441595
  H 0.074776 -0.841989 -0.135437
  H 0.074787 0.979693 -0.032637
  H 3.975537 0.880428 1.462555
  H 3.975530 -0.911621 1.361434
  H 1.604239 -1.025087 3.062353
  H 1.604237 0.801795 3.165465
  H 2.826834 -0.634570 -3.243691
  H 2.826837 1.123223 -3.144492
  H 0.584563 1.066910 -2.112086
  H 0.584623 -0.694730 -2.211526
  H 0.809445 1.206448 -4.588713
  H -0.628406 0.296904 -4.127064
  H 0.809491 -0.554867 -4.688043
  H 5.234251 0.094757 -0.543493
  H 4.936066 0.267187 -3.599552
 28
 162.077747
  C 0.344901 0.041366 0.403713
  C 2.860971 0.069390 -0.093704
  C 3.469419 0.000015 1.135337
  C 2.070434 -0.119878 3.259513
  H 2.889555 -0.158812 3.948962
  C 3.257554 0.140395 -1.351871
  C 2.506990 0.214240 -2.659865
  C 0.987223 0.214202 -2.659818
  C 0.450871 0.294599 -4.086162
  C 4.722425 0.150249 -1.527023
  C 5.391765 0.215111 -2.676520
  H 6.469366 0.215413 -2.682225
  H 0.428413 -0.018599 1.466212
  H 0.030001 -0.846891 -0.101878
  H 0.030037 0.980881 0.001272
  H 3.960309 0.892908 1.506121
  H 3.960261 -0.928946 1.403288
  H 1.531397 -1.032014 3.106615
  H 1.531423 0.803665 3.210248
  H 2.842965 -0.636608 -3.263965
  H 2.842995 1.127591 -3.164474
  H 0.617246 1.064670 -2.092749
  H 0.617360 -0.694685 -2.192037
  H 0.791459 1.205023 -4.574672
  H -0.636758 0.294440 -4.084551
  H 0.791572 -0.555107 -4.673946
  H 5.288515 0.098153 -0.604197
  H 4.924763 0.269701 -3.643590
 28
 170.971016
  C 0.273413 0.042470 0.385131
  C 2.923301 0.070685 -0.116541
  C 3.489101 0.000659 1.123485
  C 2.007363 -0.124811 3.346430
  H 2.831310 -0.163496 4.031014
  C 3.301717 0.142019 -1.380324
  C 2.528504 0.215088 -2.674034
  C 1.007794 0.212755 -2.633599
  C 0.432804 0.292122 -4.043082
  C 4.764650 0.152815 -1.572468
  C 5.420096 0.218141 -2.730069
  H 6.497386 0.219161 -2.748786
  H 0.367025 -0.017310 1.444074
  H -0.032865 -0.846255 -0.123743
  H -0.032792 0.982841 -0.020493
  H 3.958047 0.886169 1.523929
  H 3.957973 -0.924344 1.421716
  H 1.472601 -1.037430 3.184096
  H 1.472647 0.800322 3.287868
  H 2.851633 -0.634849 -3.284502
  H 2.851678 1.128245 -3.185084
  H 0.651649 1.063683 -2.055014
  H 0.651858 -0.697995 -2.154455
  H 0.758530 1.203362 -4.540812
  H -0.654184 0.290189 -4.011306
  H 0.758750 -0.557325 -4.640043
  H 5.338674 0.101084 -0.656462
  H 4.940935 0.272470 -3.692210
 28
 173.843799
  C 0.254445 0.042118 0.401358
  C 3.033094 0.072501 -0.146692
  C 3.505129 0.001496 1.106350
  C 1.867818 -0.126661 3.373618
  H 2.674590 -0.166653 4.076792
  C 3.368902 0.144363 -1.417994
  C 2.557263 0.216092 -2.680690
  C 1.042698 0.210727 -2.577765
  C 0.406965 0.286993 -3.963092
  C 4.829953 0.156870 -1.646605
  C 5.452026 0.222990 -2.817494
  H 6.528187 0.225411 -2.865724
  H 0.385387 -0.018120 1.465113
  H -0.059819 -0.849709 -0.103623
  H -0.059398 0.985372 0.000244
  H 3.913736 0.881383 1.569725
  H 3.913279 -0.925269 1.467415
  H 1.340873 -1.037971 3.186206
  H 1.341191 0.800192 3.290354
  H 2.858744 -0.630668 -3.303443
  H 2.859342 1.127468 -3.204020
  H 0.708642 1.061786 -1.981844
  H 0.710634 -0.703490 -2.082797
  H 0.708238 1.199541 -4.475471
  H -0.677418 0.281285 -3.884942
  H 0.710453 -0.562341 -4.573469
  H 5.426460 0.105731 -0.746371
  H 4.947959 0.276859 -3.765947
 28
 173.196576
  C 0.181007 0.038746 0.440762
  C 3.083919 0.073564 -0.169929
  C 3.499623 0.003268 1.081142
  C 1.814930 -0.131582 3.469228
  H 2.645081 -0.169339 4.142923
  C 3.396846 0.145418 -1.445890
  C 2.571536 0.216111 -2.702719
  C 1.061817 0.209162 -2.575761
  C 0.400394 0.287406 -3.950378
  C 4.851996 0.158921 -1.681421
  C 5.465176 0.225260 -2.857747
  H 6.540684 0.228581 -2.913522
  H 0.365747 -0.020758 1.499546
  H -0.140828 -0.854881 -0.057789
  H -0.141186 0.982530 0.045572
  H 3.844465 0.891162 1.590191
  H 3.844713 -0.936010 1.487371
  H 1.291976 -1.045437 3.281101
  H 1.291582 0.797349 3.384889
  H 2.867136 -0.628683 -3.332225
  H 2.867091 1.126533 -3.232741
  H 0.741573 1.059379 -1.976187
  H 0.740893 -0.702678 -2.075662
  H 0.693236 1.200396 -4.467253
  H -0.683170 0.282331 -3.852983
  H 0.692570 -0.561689 -4.567007
  H 5.454148 0.108408 -0.782349
  H 4.952391 0.278250 -3.800403
 28
 156.494748
  C 0.705859 0.159738 0.382556
  C 2.885868 0.092670 -0.169880
  C 3.204327 -0.036779 1.151513
  C 1.915600 -0.171272 3.427730
  H 2.888639 -0.267844 3.875981
  C 3.278227 0.188558 -1.442704
  C 2.499917 0.239822 -2.727082
  C 0.978228 0.179697 -2.650073
  C 0.369777 0.218195 -4.042388
  C 4.752936 0.190153 -1.603273
  C 5.433423 0.254845 -2.758748
  H 6.510629 0.222863 -2.764032
  H 0.981442 0.020895 1.406416
  H 0.221289 -0.668196 -0.098326
  H 0.337653 1.131971 0.114351
  H 3.382182 0.823261 1.775442
  H 3.298855 -1.004285 1.616168
  H 1.307905 -1.055876 3.354581
  H 1.412849 0.774678 3.521188
  H 2.848731 -0.596369 -3.345176
  H 2.786262 1.166304 -3.240384
  H 0.607598 1.022636 -2.072774
  H 0.674772 -0.737563 -2.151426
  H 0.649956 1.133509 -4.558306
  H -0.715340 0.176783 -3.985125
  H 0.713078 -0.626556 -4.634566
  H 5.302715 0.113403 -0.674359
  H 4.961967 0.316478 -3.726544
