 17
 0.000000
  C 0.994073 0.132889 0.380388
  C 2.465292 0.134924 0.388639
  C 3.189670 0.613302 1.578640
  H 2.509306 0.929127 2.363336
  C 3.130174 -0.321891 -0.746168
  C 4.513238 -0.382239 -0.898223
  C 5.115703 -0.843607 -2.049554
  H 4.551341 -1.188864 -2.907189
  O 6.400356 -0.908586 -2.217820
  H 0.575459 0.506765 1.308933
  H 0.618448 -0.875721 0.201474
  H 0.619973 0.737393 -0.447270
  H 3.843036 1.447465 1.319360
  H 3.841521 -0.169109 1.969732
  H 2.525996 -0.656441 -1.578528
  H 5.174310 -0.063086 -0.105058
  H 6.909749 -0.595952 -1.443283
 17
 2.750119
  C 0.988781 0.108342 0.387792
  C 2.459727 0.145557 0.399562
  C 3.168590 0.670614 1.576164
  H 2.479373 0.995341 2.349400
  C 3.138758 -0.321875 -0.721277
  C 4.527089 -0.350202 -0.866865
  C 5.123382 -0.757313 -2.042824
  H 4.524935 -0.949902 -2.928668
  O 6.405989 -0.800150 -2.265901
  H 0.555233 0.476355 1.311214
  H 0.637517 -0.908269 0.203361
  H 0.605867 0.697324 -0.446961
  H 3.803363 1.510464 1.296486
  H 3.832703 -0.087665 1.992795
  H 2.546049 -0.695534 -1.546988
  H 5.159949 0.021999 -0.072404
  H 6.951831 -0.998845 -1.480631
 17
 9.918165
  C 0.979755 0.098354 0.395021
  C 2.446843 0.161769 0.415754
  C 3.140931 0.699343 1.594155
  H 2.444622 1.016832 2.363283
  C 3.140100 -0.295317 -0.702516
  C 4.531059 -0.298973 -0.840942
  C 5.140947 -0.704299 -2.005603
  H 4.544571 -0.933907 -2.886264
  O 6.440023 -0.673949 -2.213016
  H 0.532709 0.458521 1.315419
  H 0.648069 -0.924483 0.206178
  H 0.591669 0.678580 -0.444826
  H 3.768474 1.546742 1.314208
  H 3.816577 -0.046875 2.014161
  H 2.559735 -0.679521 -1.530694
  H 5.159027 0.074259 -0.045479
  H 6.996906 -1.274595 -1.689029
 17
 9.918165
  C 0.979755 0.098354 0.395021
  C 2.446843 0.161769 0.415754
  C 3.140931 0.699343 1.594155
  H 2.444622 1.016832 2.363283
  C 3.140100 -0.295317 -0.702516
  C 4.531059 -0.298973 -0.840942
  C 5.140947 -0.704299 -2.005603
  H 4.544571 -0.933907 -2.886264
  O 6.440023 -0.673949 -2.213016
  H 0.532709 0.458521 1.315419
  H 0.648069 -0.924483 0.206178
  H 0.591669 0.678580 -0.444826
  H 3.768474 1.546742 1.314208
  H 3.816577 -0.046875 2.014161
  H 2.559735 -0.679521 -1.530694
  H 5.159027 0.074259 -0.045479
  H 6.996906 -1.274595 -1.689029
 17
 12.535386
  C 0.970788 0.098233 0.392169
  C 2.435871 0.177357 0.420776
  C 3.119757 0.701276 1.609404
  H 2.418548 0.995650 2.383282
  C 3.139668 -0.253174 -0.703474
  C 4.531263 -0.240477 -0.834337
  C 5.160547 -0.703773 -1.965370
  H 4.583476 -1.096259 -2.802206
  O 6.466724 -0.612339 -2.126642
  H 0.515467 0.435884 1.317056
  H 0.651336 -0.924208 0.180911
  H 0.580050 0.690256 -0.438407
  H 3.738956 1.560100 1.345919
  H 3.805073 -0.043891 2.016024
  H 2.567405 -0.627645 -1.541954
  H 5.161028 0.124662 -0.035392
  H 7.036059 -1.379170 -1.957948
 17
 6.668430
  C 0.958953 0.090099 0.379466
  C 2.425791 0.172236 0.420036
  C 3.098492 0.689078 1.620475
  H 2.389433 0.967623 2.393075
  C 3.139650 -0.247690 -0.698731
  C 4.530822 -0.234861 -0.813729
  C 5.188182 -0.741635 -1.913700
  H 4.642298 -1.218331 -2.725111
  O 6.486471 -0.613699 -2.014056
  H 0.497043 0.419835 1.303873
  H 0.643369 -0.931571 0.160635
  H 0.573117 0.688908 -0.448077
  H 3.709101 1.557568 1.369680
  H 3.788297 -0.053568 2.023214
  H 2.575710 -0.614319 -1.546177
  H 5.160779 0.134329 -0.015759
  H 7.025946 -1.383254 -2.267699
 17
 3.463210
  C 0.954935 0.100737 0.361873
  C 2.424159 0.175433 0.399525
  C 3.104976 0.619934 1.626163
  H 2.403454 0.807173 2.432439
  C 3.133783 -0.193207 -0.736784
  C 4.525433 -0.187277 -0.845023
  C 5.220207 -0.839819 -1.843012
  H 4.724012 -1.507687 -2.539953
  O 6.504815 -0.648809 -1.923946
  H 0.500305 0.392665 1.302561
  H 0.634228 -0.910901 0.108267
  H 0.567190 0.734561 -0.437731
  H 3.668618 1.533308 1.429663
  H 3.835670 -0.118746 1.955163
  H 2.568445 -0.503657 -1.605416
  H 5.156824 0.339095 -0.140781
  H 7.042485 -1.293856 -2.419512
 17
 11.096296
  C 0.922306 0.151392 0.399161
  C 2.393833 0.177808 0.374231
  C 3.147432 0.496848 1.597769
  H 2.493077 0.641818 2.450906
  C 3.046900 -0.129402 -0.808941
  C 4.438391 -0.122487 -0.965006
  C 5.211167 -0.920976 -1.777823
  H 4.879949 -1.848877 -2.229913
  O 6.441303 -0.514907 -1.944282
  H 0.521901 0.379792 1.381412
  H 0.554178 -0.826110 0.084720
  H 0.522279 0.861170 -0.327167
  H 3.732217 1.404742 1.440662
  H 3.867567 -0.286333 1.831354
  H 2.447355 -0.368455 -1.677411
  H 5.107799 0.596094 -0.497133
  H 7.157736 -1.157277 -2.099650
 17
 23.302307
  C 0.910511 0.170587 0.427583
  C 2.378500 0.182481 0.355865
  C 3.175901 0.462606 1.560133
  H 2.552969 0.615644 2.433289
  C 2.991963 -0.115115 -0.849865
  C 4.378575 -0.192838 -1.020023
  C 5.212214 -0.995051 -1.760158
  H 5.032676 -1.980382 -2.165151
  O 6.391332 -0.427848 -1.913409
  H 0.541214 0.393347 1.421307
  H 0.520748 -0.792989 0.100770
  H 0.500847 0.895055 -0.281265
  H 3.787886 1.352566 1.397754
  H 3.879116 -0.345579 1.758385
  H 2.369790 -0.295612 -1.716978
  H 5.151109 0.540393 -0.713139
  H 7.199000 -0.971964 -1.920456
 17
 49.748940
  C 0.895357 0.207258 0.459511
  C 2.360240 0.177511 0.346703
  C 3.196537 0.421517 1.531844
  H 2.602315 0.569189 2.425216
  C 2.927135 -0.127159 -0.881932
  C 4.293581 -0.303305 -1.077887
  C 5.207519 -1.061087 -1.735366
  H 5.202597 -2.069981 -2.113099
  O 6.330755 -0.321247 -1.846721
  H 0.554202 0.441038 1.458291
  H 0.473985 -0.739395 0.125482
  H 0.491374 0.936805 -0.248156
  H 3.832681 1.293534 1.378055
  H 3.883299 -0.409653 1.685703
  H 2.278456 -0.222701 -1.744427
  H 5.271022 0.458478 -0.919023
  H 7.193756 -0.763546 -1.750320
 17
 66.992239
  C 0.883262 0.287723 0.462991
  C 2.346283 0.124270 0.321192
  C 3.230343 0.322527 1.491891
  H 2.661128 0.507965 2.396994
  C 2.866900 -0.229606 -0.906250
  C 4.203623 -0.422497 -1.168307
  C 5.188822 -1.098568 -1.705335
  H 5.329934 -2.123822 -1.990480
  O 6.288156 -0.196726 -1.807006
  H 0.597242 0.532577 1.481005
  H 0.364615 -0.622978 0.160521
  H 0.525815 1.074103 -0.202628
  H 3.897165 1.168281 1.326791
  H 3.860701 -0.553718 1.641093
  H 2.191306 -0.278832 -1.754326
  H 5.420499 0.496942 -1.148260
  H 7.175461 -0.513764 -1.540417
 17
 58.800929
  C 0.870595 0.309167 0.464322
  C 2.333519 0.121745 0.301321
  C 3.240348 0.296725 1.467674
  H 2.685741 0.519276 2.374158
  C 2.830840 -0.241582 -0.930097
  C 4.145782 -0.464327 -1.209360
  C 5.165449 -1.115175 -1.668681
  H 5.362218 -2.150639 -1.865701
  O 6.284890 -0.159414 -1.783099
  H 0.606609 0.575883 1.483502
  H 0.333476 -0.601695 0.189850
  H 0.510876 1.090064 -0.208747
  H 3.942600 1.110827 1.287326
  H 3.832824 -0.606696 1.627112
  H 2.141439 -0.294343 -1.765022
  H 5.620277 0.522750 -1.279078
  H 7.177805 -0.456538 -1.470931
