 25
 0.000000
  C 1.028628 0.095472 0.329216
  C 2.498940 0.109167 0.383652
  C 3.241397 0.596045 1.557176
  C 2.433793 1.095379 2.748377
  C 3.361139 1.558314 3.867396
  C 3.166649 -0.359574 -0.741572
  C 4.555256 -0.427147 -0.928864
  C 5.173634 -0.864353 -2.077724
  C 4.548596 -1.332769 -3.311060
  H 3.463352 -1.327991 -3.297027
  H 6.257396 -0.865054 -2.084721
  H 0.559881 0.479008 1.227227
  H 0.676240 -0.921820 0.149511
  H 0.685322 0.676459 -0.530519
  H 3.911778 1.398786 1.229152
  H 3.906494 -0.205899 1.897752
  H 1.793678 0.298715 3.131480
  H 1.799712 1.932355 2.450971
  H 3.994224 0.743721 4.211699
  H 2.782282 1.913862 4.715854
  H 4.000034 2.372528 3.532967
  H 2.538988 -0.693295 -1.557107
  H 5.195413 -0.114181 -0.115551
  H 4.909256 -2.339149 -3.532122
  H 4.907689 -0.726404 -4.144629
 25
 -0.054555
  C 1.021590 0.107361 0.335086
  C 2.490451 0.084874 0.385327
  C 3.238555 0.587948 1.553982
  C 2.432139 1.094128 2.746672
  C 3.361731 1.550526 3.866679
  C 3.152387 -0.386383 -0.745707
  C 4.539768 -0.385713 -0.947764
  C 5.168052 -0.837466 -2.082863
  C 4.552563 -1.378883 -3.293134
  H 3.469525 -1.419353 -3.266724
  H 6.249162 -0.789312 -2.098937
  H 0.558358 0.292789 1.295919
  H 0.627611 -0.809411 -0.103738
  H 0.730317 0.911550 -0.347070
  H 3.901251 1.395726 1.216724
  H 3.914780 -0.205315 1.898794
  H 1.787558 0.302393 3.131645
  H 1.803449 1.934236 2.447777
  H 3.986590 0.731251 4.213022
  H 2.784896 1.912352 4.713400
  H 4.008087 2.357862 3.532659
  H 2.531467 -0.778817 -1.538388
  H 5.171106 -0.000208 -0.158803
  H 4.954696 -2.377543 -3.482202
  H 4.875701 -0.786462 -4.153250
 25
 0.786057
  C 1.015915 0.140255 0.347170
  C 2.482136 0.143646 0.351459
  C 3.240804 0.578705 1.541559
  C 2.438041 1.061112 2.743025
  C 3.369859 1.503736 3.866500
  C 3.136332 -0.325959 -0.784295
  C 4.517409 -0.237440 -1.022139
  C 5.160338 -0.752938 -2.120789
  C 4.574467 -1.498916 -3.231142
  H 3.498183 -1.612846 -3.174020
  H 6.229327 -0.600666 -2.182045
  H 0.557117 0.135047 1.325595
  H 0.586349 -0.588081 -0.330605
  H 0.810677 1.130164 -0.093183
  H 3.934820 1.373957 1.248464
  H 3.875114 -0.257245 1.857043
  H 1.799552 0.260515 3.119485
  H 1.803798 1.902628 2.459429
  H 3.992436 0.678207 4.205020
  H 2.794334 1.860608 4.717774
  H 4.019625 2.311299 3.539497
  H 2.524000 -0.769937 -1.557461
  H 5.130781 0.267935 -0.289051
  H 5.040701 -2.485692 -3.278582
  H 4.846146 -1.018443 -4.173486
 25
 10.053629
  C 1.011416 0.054633 0.389167
  C 2.465259 0.131200 0.358553
  C 3.235777 0.606524 1.529634
  C 2.425230 1.077308 2.735273
  C 3.354748 1.525252 3.859946
  C 3.117648 -0.370843 -0.766756
  C 4.495008 -0.266329 -1.009050
  C 5.141814 -0.764166 -2.113987
  C 4.554939 -1.466103 -3.249975
  H 3.477055 -1.578229 -3.193298
  H 6.211046 -0.628179 -2.163104
  H 0.488055 0.149139 1.320806
  H 0.539374 -0.539360 -0.377695
  H 1.104612 1.090927 -0.057531
  H 3.901784 1.420666 1.223146
  H 3.883929 -0.220598 1.845558
  H 1.797890 0.268894 3.107894
  H 1.784294 1.916071 2.457576
  H 3.997937 0.707776 4.183105
  H 2.776092 1.859145 4.722524
  H 3.984382 2.349064 3.539987
  H 2.509961 -0.864618 -1.516028
  H 5.106788 0.232853 -0.271647
  H 5.015028 -2.450261 -3.336382
  H 4.820319 -0.944898 -4.171639
 25
 26.914197
  C 0.999237 -0.012329 0.438280
  C 2.418268 0.144597 0.347063
  C 3.222420 0.628194 1.516127
  C 2.425767 1.067142 2.744467
  C 3.371044 1.502201 3.860431
  C 3.095838 -0.389212 -0.774952
  C 4.467656 -0.266239 -1.005050
  C 5.133813 -0.758695 -2.098939
  C 4.566440 -1.481251 -3.246226
  H 3.489727 -1.597132 -3.204822
  H 6.203324 -0.602693 -2.140182
  H 0.450085 0.216588 1.332687
  H 0.479277 -0.548272 -0.341288
  H 1.452292 1.028440 -0.111013
  H 3.857884 1.460530 1.203391
  H 3.887317 -0.187730 1.809222
  H 1.813542 0.242954 3.112497
  H 1.772948 1.905817 2.496701
  H 4.024251 0.684757 4.157192
  H 2.807623 1.815930 4.735651
  H 3.991308 2.337537 3.542873
  H 2.505376 -0.908715 -1.514176
  H 5.066070 0.245630 -0.266092
  H 5.030908 -2.466761 -3.314898
  H 4.839486 -0.965782 -4.168447
 25
 37.902650
  C 0.984371 -0.053607 0.472594
  C 2.386457 0.173705 0.342362
  C 3.211133 0.660775 1.514658
  C 2.420468 1.069955 2.756912
  C 3.370366 1.504440 3.868929
  C 3.082391 -0.386728 -0.790031
  C 4.449708 -0.272523 -1.013236
  C 5.118075 -0.774528 -2.102941
  C 4.550039 -1.492951 -3.253689
  H 3.471739 -1.594975 -3.220682
  H 6.189562 -0.632032 -2.136462
  H 0.439299 0.205360 1.360466
  H 0.445884 -0.555324 -0.315240
  H 1.750545 1.044729 -0.194498
  H 3.823453 1.509206 1.202765
  H 3.893683 -0.144715 1.792227
  H 1.825227 0.230913 3.119209
  H 1.751861 1.901439 2.527340
  H 4.039871 0.693441 4.146511
  H 2.811484 1.796120 4.754711
  H 3.973338 2.354269 3.556736
  H 2.489231 -0.917797 -1.518739
  H 5.047673 0.239276 -0.273882
  H 5.002489 -2.484160 -3.317886
  H 4.836015 -0.981540 -4.174206
 25
 41.229442
  C 0.976526 -0.074391 0.494774
  C 2.366671 0.203459 0.341257
  C 3.203109 0.689295 1.519137
  C 2.413608 1.072140 2.769933
  C 3.362941 1.497680 3.885736
  C 3.074363 -0.372238 -0.805154
  C 4.439614 -0.272564 -1.024976
  C 5.101614 -0.793396 -2.110867
  C 4.525295 -1.503611 -3.259157
  H 3.444695 -1.581429 -3.234944
  H 6.176753 -0.678396 -2.136508
  H 0.440385 0.171326 1.390809
  H 0.428390 -0.549494 -0.300782
  H 2.042517 1.075323 -0.325414
  H 3.798881 1.550894 1.214706
  H 3.898691 -0.108606 1.786523
  H 1.826038 0.222830 3.120564
  H 1.736891 1.900582 2.553324
  H 4.040996 0.688538 4.147708
  H 2.804041 1.769140 4.777970
  H 3.956399 2.358387 3.585440
  H 2.472095 -0.918948 -1.515415
  H 5.040541 0.241311 -0.289226
  H 4.957093 -2.504444 -3.316297
  H 4.830970 -1.003168 -4.179370
 25
 42.589379
  C 0.976987 -0.047827 0.502338
  C 2.349482 0.224856 0.349169
  C 3.192679 0.706774 1.523508
  C 2.410639 1.063915 2.786981
  C 3.365565 1.481992 3.900775
  C 3.053117 -0.338958 -0.821298
  C 4.427799 -0.259760 -1.037468
  C 5.081016 -0.805718 -2.110456
  C 4.497268 -1.520961 -3.252114
  H 3.415744 -1.584073 -3.231903
  H 6.158179 -0.711723 -2.132967
  H 0.450734 0.169652 1.410726
  H 0.414507 -0.493060 -0.299643
  H 2.315823 1.026671 -0.498445
  H 3.774110 1.581407 1.228542
  H 3.901170 -0.085021 1.776687
  H 1.832680 0.205035 3.129791
  H 1.724677 1.888791 2.585946
  H 4.052397 0.674941 4.145916
  H 2.811385 1.735968 4.800959
  H 3.949149 2.351932 3.607977
  H 2.442532 -0.895084 -1.517708
  H 5.031346 0.255012 -0.304955
  H 4.915753 -2.527834 -3.296950
  H 4.813465 -1.034997 -4.176363
 25
 39.500328
  C 0.978994 -0.026167 0.510008
  C 2.326039 0.212543 0.375866
  C 3.175401 0.704265 1.525711
  C 2.412358 1.045451 2.806096
  C 3.382782 1.473191 3.902421
  C 3.017244 -0.274980 -0.843055
  C 4.416286 -0.219519 -1.053251
  C 5.069373 -0.797374 -2.100613
  C 4.486019 -1.540779 -3.226957
  H 3.403864 -1.592737 -3.213224
  H 6.147274 -0.711227 -2.121392
  H 0.455200 0.204283 1.417511
  H 0.397426 -0.448666 -0.290396
  H 2.483244 0.901941 -0.703159
  H 3.735597 1.590983 1.223233
  H 3.904482 -0.074930 1.761427
  H 1.853364 0.176585 3.155336
  H 1.710640 1.860602 2.620859
  H 4.085548 0.675086 4.131329
  H 2.842556 1.715570 4.814182
  H 3.947685 2.352667 3.601726
  H 2.410408 -0.851509 -1.527514
  H 5.015931 0.306931 -0.325631
  H 4.893704 -2.552969 -3.237937
  H 4.813767 -1.086477 -4.162890
 25
 28.638836
  C 0.959568 -0.001429 0.501508
  C 2.284872 0.236479 0.394027
  C 3.144907 0.726681 1.513853
  C 2.415479 1.003641 2.829541
  C 3.407911 1.435887 3.903983
  C 2.946549 -0.134986 -0.904070
  C 4.373721 -0.120545 -1.086653
  C 5.042551 -0.779027 -2.072141
  C 4.473937 -1.599551 -3.147958
  H 3.390875 -1.634898 -3.156487
  H 6.121644 -0.700746 -2.079508
  H 0.426004 0.190974 1.413925
  H 0.378707 -0.397140 -0.313321
  H 2.545683 0.937329 -1.009056
  H 3.655827 1.645287 1.214940
  H 3.917841 -0.025164 1.697283
  H 1.899936 0.104503 3.169244
  H 1.678354 1.796260 2.691672
  H 4.145961 0.657820 4.086121
  H 2.891115 1.632828 4.840069
  H 3.930126 2.343625 3.609971
  H 2.355040 -0.771725 -1.550301
  H 4.959878 0.449138 -0.380988
  H 4.865535 -2.615719 -3.067897
  H 4.834148 -1.230506 -4.109557
 25
 19.473295
  C 0.960424 0.010969 0.494775
  C 2.282217 0.247923 0.388789
  C 3.148814 0.734166 1.493628
  C 2.455167 0.951441 2.838075
  C 3.466135 1.383765 3.895160
  C 2.899853 -0.005604 -0.957675
  C 4.350171 -0.029149 -1.102187
  C 5.036537 -0.760713 -2.022212
  C 4.485382 -1.654348 -3.045233
  H 3.402469 -1.680286 -3.079363
  H 6.116348 -0.687398 -2.012724
  H 0.426046 0.134509 1.419219
  H 0.377536 -0.335225 -0.341558
  H 2.548041 0.984120 -1.328156
  H 3.615700 1.678900 1.199414
  H 3.961289 0.011478 1.625065
  H 1.976936 0.026725 3.164380
  H 1.688962 1.722625 2.746299
  H 4.233680 0.625182 4.031832
  H 2.972015 1.537025 4.851484
  H 3.950110 2.316366 3.613694
  H 2.360543 -0.749389 -1.538230
  H 4.922935 0.586161 -0.424564
  H 4.865981 -2.665423 -2.882735
  H 4.876994 -1.364652 -4.022320
 25
 17.658867
  C 0.933952 0.095317 0.496696
  C 2.276565 0.210403 0.409138
  C 3.148205 0.685838 1.512769
  C 2.458251 0.976264 2.843587
  C 3.480990 1.386120 3.898632
  C 2.885896 -0.108190 -0.918178
  C 4.340968 -0.059451 -1.073553
  C 5.041664 -0.718951 -2.034455
  C 4.508251 -1.595523 -3.081818
  H 3.427910 -1.682980 -3.083002
  H 6.116334 -0.592388 -2.046109
  H 0.390731 0.314993 1.397360
  H 0.343053 -0.244811 -0.336924
  H 2.452946 0.715734 -1.517868
  H 3.663665 1.596650 1.191035
  H 3.928298 -0.067545 1.671778
  H 1.928662 0.087597 3.190797
  H 1.733429 1.783026 2.724430
  H 4.197685 0.587308 4.076219
  H 2.985859 1.608240 4.840770
  H 4.026225 2.274702 3.588195
  H 2.443420 -1.006949 -1.353222
  H 4.896831 0.561390 -0.387775
  H 4.951871 -2.589118 -2.984492
  H 4.849687 -1.235789 -4.054515
 25
 17.389983
  C 0.932060 0.178413 0.478031
  C 2.282220 0.199216 0.421855
  C 3.150457 0.671111 1.531357
  C 2.451647 1.007575 2.846809
  C 3.470937 1.390523 3.913557
  C 2.900765 -0.232789 -0.861717
  C 4.350894 -0.111860 -1.040239
  C 5.044882 -0.682857 -2.061693
  C 4.504896 -1.526092 -3.135240
  H 3.427425 -1.662704 -3.094610
  H 6.110927 -0.510253 -2.103917
  H 0.379041 0.548484 1.319527
  H 0.345611 -0.218517 -0.329890
  H 2.397231 0.389494 -1.626588
  H 3.698511 1.556690 1.197290
  H 3.906918 -0.100416 1.718146
  H 1.877422 0.144781 3.197040
  H 1.763258 1.842202 2.705354
  H 4.160936 0.571921 4.103582
  H 2.970658 1.630939 4.847241
  H 4.045732 2.260245 3.607548
  H 2.556105 -1.245147 -1.119093
  H 4.901637 0.481027 -0.333702
  H 4.995427 -2.501252 -3.113737
  H 4.785748 -1.098843 -4.097416
 25
 16.716374
  C 0.927157 0.166827 0.487210
  C 2.276293 0.217861 0.413829
  C 3.144198 0.685126 1.524021
  C 2.449681 1.005332 2.844983
  C 3.471470 1.402174 3.906062
  C 2.902402 -0.222829 -0.865391
  C 4.360134 -0.135073 -1.023737
  C 5.048471 -0.702181 -2.050641
  C 4.497537 -1.509916 -3.142156
  H 3.418872 -1.612345 -3.118071
  H 6.119527 -0.555458 -2.080841
  H 0.384850 0.460532 1.366566
  H 0.332685 -0.172816 -0.343417
  H 2.426553 0.369547 -1.664554
  H 3.678944 1.582388 1.191400
  H 3.909768 -0.077821 1.702999
  H 1.895451 0.133303 3.196167
  H 1.745275 1.828051 2.711616
  H 4.177075 0.594883 4.087719
  H 2.974129 1.630609 4.845178
  H 4.029242 2.283712 3.598770
  H 2.556221 -1.238915 -1.098038
  H 4.921812 0.430997 -0.298575
  H 4.955940 -2.500941 -3.125121
  H 4.807659 -1.081158 -4.096483
