 19
 0.000000
  C 1.020904 0.123071 0.352741
  C 2.490001 0.117579 0.346154
  C 3.225270 0.592046 1.525593
  H 2.552210 0.910710 2.316534
  C 3.136345 -0.342874 -0.796843
  C 4.529209 -0.409217 -0.960714
  C 5.169304 -0.861938 -2.093252
  C 4.562803 -1.350917 -3.327561
  H 3.477517 -1.346288 -3.325554
  H 6.252340 -0.859594 -2.080191
  H 0.609165 0.506370 1.280855
  H 0.640104 -0.885899 0.179964
  H 0.642891 0.717574 -0.481174
  H 3.879988 1.423057 1.260772
  H 3.879587 -0.190789 1.910674
  H 2.507858 -0.670745 -1.612958
  H 5.152083 -0.083218 -0.140088
  H 4.927466 -2.360443 -3.530139
  H 4.932862 -0.758654 -4.167355
 19
 0.353477
  C 1.023721 0.021782 0.392963
  C 2.488161 0.143272 0.334732
  C 3.219963 0.720666 1.472010
  H 2.549452 1.047167 2.259879
  C 3.136702 -0.308520 -0.811970
  C 4.519271 -0.488230 -0.931968
  C 5.158927 -0.966674 -2.052730
  C 4.567734 -1.282065 -3.347247
  H 3.502875 -1.097588 -3.408798
  H 6.227104 -1.126234 -1.980316
  H 0.626924 0.262538 1.373185
  H 0.720840 -0.986112 0.107097
  H 0.564723 0.683993 -0.341912
  H 3.830643 1.563764 1.147467
  H 3.917280 -0.009068 1.886852
  H 2.511917 -0.585336 -1.646662
  H 5.132516 -0.280836 -0.068049
  H 4.775932 -2.325717 -3.592850
  H 5.084615 -0.712569 -4.122251
 19
 1.805380
  C 1.041409 -0.044213 0.424117
  C 2.491058 0.178810 0.328565
  C 3.212167 0.824365 1.435390
  H 2.565711 1.028261 2.278272
  C 3.142494 -0.258386 -0.822997
  C 4.501244 -0.574096 -0.905180
  C 5.130477 -1.074110 -2.022259
  C 4.584891 -1.183039 -3.370918
  H 3.580419 -0.793745 -3.475623
  H 6.147277 -1.419882 -1.902963
  H 0.642430 0.238928 1.394896
  H 0.830177 -1.099262 0.232530
  H 0.513643 0.507412 -0.352443
  H 3.653351 1.760209 1.092524
  H 4.051896 0.215657 1.765856
  H 2.521681 -0.463077 -1.682548
  H 5.086686 -0.508605 -0.004152
  H 4.611449 -2.227576 -3.689686
  H 5.251187 -0.667334 -4.065550
 19
 4.258830
  C 1.070365 -0.144546 0.479597
  C 2.494848 0.179597 0.333605
  C 3.202189 0.925154 1.377920
  H 2.602501 1.049662 2.275254
  C 3.140161 -0.240798 -0.830682
  C 4.458220 -0.701148 -0.881646
  C 5.077756 -1.208502 -1.998080
  C 4.621238 -1.096465 -3.382181
  H 3.711625 -0.515714 -3.499487
  H 6.010791 -1.730064 -1.853579
  H 0.684150 0.119503 1.460012
  H 0.956828 -1.213354 0.312176
  H 0.469931 0.343625 -0.287449
  H 3.465058 1.915454 0.990658
  H 4.157020 0.460100 1.627246
  H 2.528961 -0.345979 -1.718848
  H 4.991476 -0.789780 0.056781
  H 4.479240 -2.095134 -3.802075
  H 5.417056 -0.651951 -3.984409
 19
 8.193010
  C 1.123127 -0.238558 0.507826
  C 2.494432 0.246757 0.313858
  C 3.190922 0.989185 1.368273
  H 2.614509 1.053600 2.286023
  C 3.158268 -0.113147 -0.866206
  C 4.397246 -0.746626 -0.882808
  C 5.018670 -1.268414 -1.991265
  C 4.628395 -1.075172 -3.389494
  H 3.782729 -0.407559 -3.518446
  H 5.879691 -1.900979 -1.826409
  H 0.759897 -0.045723 1.510086
  H 1.130030 -1.313657 0.307332
  H 0.430248 0.198747 -0.215389
  H 3.393831 2.000677 1.006483
  H 4.177235 0.566810 1.566564
  H 2.589539 -0.063401 -1.786762
  H 4.864489 -0.930485 0.076148
  H 4.406197 -2.042889 -3.845510
  H 5.483070 -0.687167 -3.947956
 19
 13.323224
  C 1.199816 -0.341057 0.533960
  C 2.516479 0.271166 0.330454
  C 3.167055 1.069104 1.367642
  H 2.600297 1.104743 2.289881
  C 3.195053 -0.041566 -0.862805
  C 4.343392 -0.813305 -0.883124
  C 4.949300 -1.333119 -2.003498
  C 4.614349 -1.042588 -3.403130
  H 3.834743 -0.298057 -3.517783
  H 5.741257 -2.050964 -1.849218
  H 0.835892 -0.211018 1.546794
  H 1.315707 -1.398679 0.290347
  H 0.454171 0.045845 -0.165571
  H 3.300846 2.085695 0.990605
  H 4.182292 0.716886 1.553709
  H 2.676950 0.159346 -1.792847
  H 4.754380 -1.099917 0.076044
  H 4.316763 -1.963577 -3.908029
  H 5.512109 -0.704502 -3.923995
 19
 18.575964
  C 1.268680 -0.429264 0.594441
  C 2.532828 0.260938 0.358275
  C 3.136844 1.142812 1.350312
  H 2.575003 1.186465 2.277115
  C 3.221211 -0.032272 -0.851827
  C 4.295252 -0.900575 -0.899988
  C 4.899929 -1.389424 -2.036031
  C 4.612034 -1.001476 -3.423081
  H 3.875888 -0.209558 -3.506317
  H 5.650358 -2.156039 -1.906412
  H 0.915792 -0.315938 1.613764
  H 1.428514 -1.479439 0.339471
  H 0.487817 -0.082031 -0.088027
  H 3.213476 2.147319 0.924965
  H 4.175663 0.857850 1.540791
  H 2.762537 0.309354 -1.772149
  H 4.645349 -1.291903 0.047056
  H 4.270985 -1.873301 -3.984035
  H 5.535607 -0.683511 -3.909209
 19
 24.825952
  C 1.352240 -0.527941 0.723026
  C 2.552098 0.223231 0.396175
  C 3.092366 1.236349 1.282671
  H 2.543527 1.321545 2.215526
  C 3.245847 -0.090503 -0.829887
  C 4.205001 -1.072685 -0.931685
  C 4.840357 -1.465176 -2.093700
  C 4.622990 -0.923700 -3.444294
  H 3.913753 -0.104101 -3.470593
  H 5.566883 -2.261078 -2.017414
  H 1.025520 -0.379371 1.748084
  H 1.488865 -1.585432 0.490663
  H 0.542633 -0.214302 0.053516
  H 3.099352 2.205835 0.773511
  H 4.150969 1.040321 1.470444
  H 2.920610 0.437564 -1.716442
  H 4.493874 -1.579151 -0.020261
  H 4.272535 -1.718831 -4.105826
  H 5.573086 -0.587984 -3.862058
 19
 15.833657
  C 1.481556 -0.647142 0.816459
  C 2.611564 0.185714 0.412722
  C 3.017860 1.342407 1.210730
  H 2.438014 1.439522 2.126200
  C 3.308874 -0.118659 -0.783422
  C 4.121296 -1.230012 -0.968009
  C 4.748252 -1.552571 -2.147731
  C 4.614655 -0.869612 -3.442521
  H 3.971435 0.006836 -3.412022
  H 5.405667 -2.409268 -2.139241
  H 1.189870 -0.491246 1.848772
  H 1.626978 -1.702714 0.596133
  H 0.636523 -0.362711 0.175800
  H 2.932178 2.265397 0.631933
  H 4.082334 1.264741 1.441226
  H 3.194292 0.585536 -1.597467
  H 4.309215 -1.857899 -0.109045
  H 4.223048 -1.570709 -4.180196
  H 5.602973 -0.583086 -3.808160
 19
 9.429781
  C 1.638143 -0.721173 0.816257
  C 2.675861 0.231459 0.416402
  C 2.930329 1.445113 1.201848
  H 2.309515 1.494285 2.089959
  C 3.422533 -0.045078 -0.736093
  C 4.058213 -1.262652 -0.989146
  C 4.642406 -1.592383 -2.177888
  C 4.551561 -0.856229 -3.439778
  H 3.985914 0.066701 -3.370600
  H 5.223214 -2.504220 -2.211134
  H 1.354085 -0.637154 1.861187
  H 1.894405 -1.739548 0.528963
  H 0.750064 -0.490551 0.215591
  H 2.767212 2.342792 0.600888
  H 3.984337 1.482310 1.480970
  H 3.508670 0.742976 -1.473417
  H 4.160173 -1.951522 -0.163071
  H 4.093279 -1.498524 -4.194492
  H 5.555871 -0.646744 -3.812650
 19
 9.950217
  C 1.764672 -0.765505 0.677667
  C 2.738175 0.298801 0.403370
  C 2.832666 1.492037 1.252034
  H 2.120218 1.464751 2.069973
  C 3.620044 0.063036 -0.648726
  C 4.136994 -1.216664 -0.938652
  C 4.577410 -1.623521 -2.160088
  C 4.403280 -0.910840 -3.425093
  H 3.921929 0.055315 -3.316859
  H 5.052563 -2.591653 -2.228494
  H 1.424256 -0.798763 1.706610
  H 2.172312 -1.703947 0.296706
  H 0.888576 -0.584939 0.044436
  H 2.669024 2.400477 0.667941
  H 3.845466 1.583288 1.644575
  H 3.863520 0.877060 -1.320274
  H 4.300639 -1.871273 -0.092628
  H 3.820084 -1.526664 -4.112126
  H 5.375839 -0.790195 -3.905985
