 22
 0.000000
  C 1.002704 0.053235 0.192260
  C 2.505027 0.054613 0.167814
  C 3.295722 -0.017816 1.451442
  C 2.501272 -0.091270 2.753145
  C 3.439174 -0.158957 3.952789
  C 3.119048 0.121738 -1.021745
  H 2.513005 0.172195 -1.915940
  C 4.541588 0.135037 -1.257410
  C 5.076850 0.203689 -2.474149
  H 6.138005 0.212741 -2.634553
  H 0.601411 -0.003489 1.197462
  H 0.619737 -0.796628 -0.371174
  H 0.619740 0.961092 -0.271986
  H 3.946655 0.859787 1.505790
  H 3.946662 -0.895960 1.406720
  H 1.864129 -0.978246 2.753086
  H 1.864116 0.790084 2.852872
  H 4.075626 -1.039397 3.893087
  H 2.870642 -0.211197 4.878511
  H 4.075620 0.722616 3.992504
  H 5.194601 0.086439 -0.396143
  H 4.471139 0.253746 -3.361231
 22
 12.665880
  C 0.950717 0.055122 0.158808
  C 2.441799 0.057592 0.115015
  C 3.334853 -0.022686 1.537742
  C 2.519268 -0.094937 2.818163
  C 3.439156 -0.163465 4.032708
  C 3.116860 0.128511 -1.141759
  H 2.515004 0.179090 -2.038116
  C 4.539778 0.139617 -1.338574
  C 5.108630 0.207552 -2.542583
  H 6.176169 0.214903 -2.672877
  H 0.567224 -0.002044 1.171840
  H 0.559814 -0.795023 -0.400308
  H 0.559816 0.962774 -0.301114
  H 3.978947 0.856474 1.573949
  H 3.978954 -0.900338 1.474817
  H 1.880779 -0.981266 2.806819
  H 1.880780 0.787031 2.906600
  H 4.075925 -1.044359 3.982559
  H 2.856017 -0.215198 4.949491
  H 4.075923 0.717483 4.081965
  H 5.166347 0.089990 -0.459074
  H 4.523563 0.258517 -3.445762
