 32
 0.000000
  C 0.914862 0.046754 0.267292
  C 2.407346 0.056628 0.082147
  C 3.244136 -0.015958 1.356647
  C 2.522814 -0.087442 2.700853
  C 3.517040 -0.151077 3.854401
  C 2.998488 0.126410 -1.125097
  C 2.353486 0.205189 -2.497234
  C 0.841634 0.217090 -2.713929
  C 0.513206 0.302621 -4.201718
  C 4.457710 0.131863 -1.212697
  C 5.196995 0.195873 -2.320024
  O 6.557095 0.197201 -2.336164
  H 0.611085 -0.013652 1.307272
  H 0.470969 -0.819413 -0.217615
  H 0.472083 0.963920 -0.113739
  H 3.891270 0.867231 1.388080
  H 3.889541 -0.899146 1.295973
  H 1.888144 -0.975950 2.742489
  H 1.890633 0.793213 2.837968
  H 4.151400 -1.032215 3.773830
  H 2.986477 -0.201537 4.803514
  H 4.153889 0.731816 3.868992
  H 2.740655 -0.642772 -3.073541
  H 2.740004 1.113982 -2.972395
  H 0.389562 1.077408 -2.221486
  H 0.390253 -0.694428 -2.323517
  H 0.920083 1.212612 -4.639547
  H -0.565691 0.310493 -4.345843
  H 0.920766 -0.550784 -4.741086
  H 5.003199 0.078224 -0.280701
  H 4.819951 0.253852 -3.327966
  H 6.886684 0.145035 -1.429310
 32
 5.343878
  C 0.881403 0.141177 0.298227
  C 2.380631 0.115447 0.125056
  C 3.201224 0.070919 1.360068
  C 2.526232 -0.064380 2.730819
  C 3.577340 -0.252322 3.822033
  C 2.977058 0.160193 -1.090423
  C 2.346076 0.192325 -2.477606
  C 0.836797 0.172712 -2.728238
  C 0.567241 0.224605 -4.230535
  C 4.428177 0.172578 -1.181086
  C 5.164732 0.216497 -2.293807
  O 6.523419 0.225199 -2.309664
  H 0.612498 0.079973 1.343361
  H 0.407469 -0.691559 -0.210852
  H 0.460778 1.064921 -0.091073
  H 3.919411 0.904276 1.402085
  H 3.695005 -0.834784 1.080376
  H 1.854223 -0.923509 2.744977
  H 1.946410 0.834556 2.951189
  H 4.162326 -1.149892 3.636978
  H 3.103699 -0.346548 4.795733
  H 4.255220 0.597115 3.853442
  H 2.766728 -0.662500 -3.024430
  H 2.735224 1.097945 -2.963387
  H 0.356585 1.030175 -2.263670
  H 0.391762 -0.737350 -2.332733
  H 0.982306 1.131870 -4.664310
  H -0.502855 0.210674 -4.425909
  H 1.017557 -0.629601 -4.731732
  H 4.989784 0.146980 -0.250067
  H 4.784193 0.252204 -3.298011
  H 6.858757 0.194390 -1.404999
 32
 17.549751
  C 0.893106 0.226781 0.281160
  C 2.386118 0.157259 0.138262
  C 3.178624 0.128135 1.376290
  C 2.524951 -0.046078 2.738574
  C 3.580993 -0.332310 3.797358
  C 2.990773 0.183116 -1.088041
  C 2.353917 0.187446 -2.473694
  C 0.846136 0.122577 -2.710516
  C 0.560898 0.158387 -4.211818
  C 4.446698 0.195337 -1.175046
  C 5.187617 0.242228 -2.286603
  O 6.537577 0.251215 -2.297154
  H 0.606394 0.179794 1.329405
  H 0.395556 -0.588469 -0.234255
  H 0.516826 1.164798 -0.115090
  H 3.936689 0.911070 1.427951
  H 3.532373 -0.772934 0.932131
  H 1.819424 -0.871810 2.722092
  H 1.987213 0.863041 3.012094
  H 4.125748 -1.244426 3.554465
  H 3.118406 -0.457068 4.774377
  H 4.295186 0.488096 3.859406
  H 2.790778 -0.660669 -3.011719
  H 2.715134 1.094330 -2.971428
  H 0.342671 0.968349 -2.243888
  H 0.433785 -0.801788 -2.305906
  H 0.943330 1.076282 -4.653561
  H -0.509858 0.110058 -4.397099
  H 1.033139 -0.683839 -4.713539
  H 5.004537 0.171466 -0.248206
  H 4.812200 0.283884 -3.289640
  H 6.870609 0.217349 -1.385291
 32
 31.467851
  C 0.895711 0.234490 0.278437
  C 2.393417 0.160559 0.136882
  C 3.174476 0.156832 1.388126
  C 2.530574 -0.000045 2.757047
  C 3.586107 -0.368606 3.800290
  C 2.999433 0.193544 -1.106530
  C 2.358675 0.195537 -2.484502
  C 0.850813 0.091864 -2.712899
  C 0.556403 0.126605 -4.210434
  C 4.450505 0.198976 -1.182696
  C 5.202950 0.275907 -2.284768
  O 6.563803 0.268728 -2.282388
  H 0.608104 0.186404 1.324741
  H 0.387060 -0.575961 -0.246030
  H 0.531046 1.186744 -0.114545
  H 3.986308 0.878035 1.421796
  H 3.382331 -0.751201 0.834749
  H 1.774389 -0.781053 2.741773
  H 2.050950 0.934286 3.055249
  H 4.072387 -1.308391 3.535611
  H 3.130277 -0.481257 4.782875
  H 4.350124 0.406703 3.864782
  H 2.811467 -0.633794 -3.028176
  H 2.694240 1.109816 -2.976068
  H 0.324154 0.923609 -2.237702
  H 0.465605 -0.849038 -2.308642
  H 0.910937 1.057189 -4.649485
  H -0.513623 0.049391 -4.389887
  H 1.049435 -0.699817 -4.719054
  H 4.997134 0.133659 -0.249721
  H 4.836208 0.361390 -3.289699
  H 6.886175 0.198938 -1.372362
 32
 43.115538
  C 0.890375 0.204970 0.280770
  C 2.393404 0.141418 0.139143
  C 3.164858 0.162901 1.405012
  C 2.542385 0.052671 2.777398
  C 3.593407 -0.374884 3.802189
  C 3.003371 0.186937 -1.111356
  C 2.363422 0.200050 -2.492868
  C 0.856141 0.070813 -2.724126
  C 0.562057 0.119844 -4.217792
  C 4.456187 0.192394 -1.186013
  C 5.206210 0.309973 -2.283448
  O 6.575093 0.287048 -2.285806
  H 0.597736 0.153220 1.326357
  H 0.383498 -0.602803 -0.250356
  H 0.528171 1.164846 -0.110284
  H 4.032033 0.806263 1.411592
  H 3.229661 -0.757758 0.788370
  H 1.737324 -0.682372 2.787883
  H 2.125909 1.015453 3.081571
  H 4.013348 -1.338494 3.536595
  H 3.153138 -0.453347 4.789896
  H 4.400278 0.347847 3.846762
  H 2.833156 -0.612178 -3.050291
  H 2.682582 1.128586 -2.971408
  H 0.314099 0.883551 -2.240163
  H 0.489164 -0.881421 -2.333785
  H 0.898871 1.062955 -4.643411
  H -0.506382 0.024461 -4.398726
  H 1.071273 -0.689944 -4.736846
  H 5.003715 0.080359 -0.250717
  H 4.835332 0.445470 -3.283643
  H 6.895665 0.175232 -1.385971
 32
 51.044182
  C 0.882480 0.147365 0.287788
  C 2.386089 0.114033 0.136947
  C 3.156350 0.164347 1.407152
  C 2.558936 0.110224 2.790713
  C 3.603266 -0.361186 3.801576
  C 2.996050 0.179025 -1.115294
  C 2.361742 0.210136 -2.492065
  C 0.862194 0.059255 -2.733183
  C 0.574256 0.129094 -4.233791
  C 4.452414 0.178531 -1.188950
  C 5.206982 0.337220 -2.279571
  O 6.573540 0.294660 -2.280559
  H 0.592317 0.082888 1.329684
  H 0.390635 -0.659920 -0.246296
  H 0.507823 1.098274 -0.091266
  H 4.075543 0.723072 1.381223
  H 3.091759 -0.773345 0.756559
  H 1.713149 -0.574678 2.835659
  H 2.204097 1.101364 3.089259
  H 3.961720 -1.356052 3.544300
  H 3.177193 -0.396731 4.803097
  H 4.454780 0.316226 3.817192
  H 2.852222 -0.588851 -3.070051
  H 2.667996 1.161746 -2.954400
  H 0.303508 0.853773 -2.238957
  H 0.509831 -0.906010 -2.361080
  H 0.896816 1.085124 -4.641646
  H -0.492215 0.018202 -4.422857
  H 1.100408 -0.662537 -4.764254
  H 4.995251 0.009929 -0.262468
  H 4.840773 0.526649 -3.270142
  H 6.888384 0.137116 -1.383475
 32
 57.599693
  C 0.885977 0.118697 0.262530
  C 2.397375 0.097440 0.120068
  C 3.141826 0.174083 1.396170
  C 2.549334 0.141204 2.767144
  C 3.594964 -0.355475 3.799494
  C 3.010132 0.174249 -1.121804
  C 2.378404 0.219107 -2.483591
  C 0.871087 0.048941 -2.710953
  C 0.566703 0.129541 -4.188747
  C 4.466966 0.166948 -1.199085
  C 5.227343 0.348899 -2.287191
  O 6.585699 0.291119 -2.285830
  H 0.581010 0.044826 1.304623
  H 0.408207 -0.683834 -0.276681
  H 0.515078 1.061410 -0.110179
  H 4.089353 0.693022 1.362643
  H 3.014707 -0.774361 0.705118
  H 1.676983 -0.526646 2.819202
  H 2.221708 1.132515 3.051847
  H 3.928001 -1.359784 3.552855
  H 3.168336 -0.371644 4.796916
  H 4.463598 0.297804 3.813196
  H 2.875462 -0.562926 -3.074417
  H 2.668706 1.177087 -2.932436
  H 0.310994 0.823341 -2.207553
  H 0.540819 -0.914479 -2.350457
  H 0.869324 1.091479 -4.587781
  H -0.495842 0.005549 -4.363884
  H 1.095763 -0.646039 -4.731768
  H 5.002803 -0.034808 -0.285451
  H 4.862519 0.574236 -3.282705
  H 6.894001 0.104693 -1.391346
 32
 61.540029
  C 0.893965 0.092492 0.277454
  C 2.398369 0.074170 0.131926
  C 3.148806 0.176051 1.406902
  C 2.570048 0.162371 2.787314
  C 3.600898 -0.343651 3.798954
  C 3.013395 0.164097 -1.122858
  C 2.374452 0.224357 -2.495025
  C 0.865447 0.037292 -2.727253
  C 0.552747 0.135348 -4.238016
  C 4.461679 0.152851 -1.191065
  C 5.228275 0.358009 -2.269006
  O 6.594425 0.290343 -2.262110
  H 0.596910 0.010318 1.313089
  H 0.413813 -0.714992 -0.271763
  H 0.515612 1.042411 -0.088603
  H 4.118131 0.646376 1.352833
  H 2.952064 -0.794282 0.685460
  H 1.693735 -0.477199 2.853477
  H 2.263868 1.172912 3.074063
  H 3.908386 -1.352781 3.557165
  H 3.185018 -0.343347 4.797091
  H 4.477808 0.287906 3.798219
  H 2.880946 -0.540214 -3.098195
  H 2.652072 1.193304 -2.929192
  H 0.287010 0.807957 -2.205875
  H 0.543523 -0.950209 -2.372570
  H 0.846250 1.119618 -4.631032
  H -0.523244 -0.002282 -4.418643
  H 1.098973 -0.635786 -4.799919
  H 4.994005 -0.074725 -0.275702
  H 4.871734 0.611292 -3.253352
  H 6.895838 0.079046 -1.373078
 32
 64.554502
  C 0.871669 0.072360 0.277624
  C 2.382562 0.052979 0.131287
  C 3.141953 0.186783 1.401072
  C 2.583855 0.182948 2.781556
  C 3.624910 -0.333708 3.790792
  C 3.002168 0.153886 -1.126789
  C 2.362871 0.227943 -2.502967
  C 0.873556 0.027665 -2.741198
  C 0.572994 0.139248 -4.232861
  C 4.450250 0.137274 -1.186469
  C 5.223814 0.362153 -2.256158
  O 6.586335 0.285349 -2.243467
  H 0.577978 -0.018022 1.317132
  H 0.390642 -0.737303 -0.278942
  H 0.482667 1.040602 -0.087597
  H 4.126615 0.612780 1.328940
  H 2.885364 -0.813530 0.655838
  H 1.702546 -0.441875 2.860008
  H 2.294725 1.192424 3.066326
  H 3.920376 -1.357519 3.548628
  H 3.214693 -0.322996 4.805197
  H 4.517775 0.293815 3.776462
  H 2.880191 -0.524162 -3.121006
  H 2.628503 1.210564 -2.925479
  H 0.290345 0.775903 -2.219819
  H 0.565302 -0.958840 -2.403102
  H 0.854028 1.120500 -4.606874
  H -0.489153 -0.007536 -4.419548
  H 1.126088 -0.609918 -4.793911
  H 4.976301 -0.111449 -0.276723
  H 4.872715 0.642944 -3.237257
  H 6.880905 0.051050 -1.356090
 32
 66.648714
  C 0.889582 0.052735 0.259372
  C 2.393411 0.033521 0.130345
  C 3.143302 0.207896 1.411271
  C 2.572607 0.192828 2.798583
  C 3.598796 -0.317604 3.806874
  C 3.028230 0.147893 -1.143227
  C 2.383081 0.237162 -2.510056
  C 0.882854 0.021875 -2.734689
  C 0.562209 0.144535 -4.220207
  C 4.459390 0.120962 -1.209690
  C 5.224297 0.364409 -2.286493
  O 6.592536 0.272513 -2.294627
  H 0.584830 -0.045765 1.301907
  H 0.423370 -0.742986 -0.300670
  H 0.510679 1.000098 -0.095795
  H 4.143151 0.606774 1.342244
  H 2.854816 -0.840507 0.634686
  H 1.677538 -0.446412 2.869551
  H 2.274854 1.208153 3.090143
  H 3.898605 -1.331464 3.566043
  H 3.183940 -0.311827 4.806604
  H 4.482977 0.311104 3.801340
  H 2.901105 -0.495360 -3.141091
  H 2.634532 1.223795 -2.919553
  H 0.290630 0.767127 -2.193041
  H 0.587679 -0.978244 -2.400971
  H 0.827395 1.131562 -4.587357
  H -0.497741 -0.011711 -4.394436
  H 1.116055 -0.592598 -4.795295
  H 4.998187 -0.158270 -0.301255
  H 4.864317 0.671054 -3.247361
  H 6.897497 0.012622 -1.415161
 32
 68.301160
  C 0.873532 0.048892 0.249278
  C 2.388635 0.015363 0.127960
  C 3.134799 0.232160 1.403063
  C 2.577047 0.198240 2.782747
  C 3.613037 -0.304980 3.785988
  C 3.030123 0.138287 -1.140559
  C 2.389610 0.241918 -2.502038
  C 0.889182 0.011020 -2.727229
  C 0.563480 0.144113 -4.207654
  C 4.456163 0.099623 -1.202669
  C 5.226899 0.359973 -2.274491
  O 6.588575 0.262803 -2.278192
  H 0.559197 -0.053970 1.296967
  H 0.402090 -0.746650 -0.323636
  H 0.503353 1.004460 -0.104128
  H 4.146578 0.608253 1.326696
  H 2.809094 -0.870172 0.600626
  H 1.686338 -0.451819 2.853390
  H 2.269942 1.205708 3.079979
  H 3.925967 -1.322476 3.537429
  H 3.197275 -0.308584 4.795263
  H 4.496924 0.339774 3.780076
  H 2.917928 -0.477485 -3.144529
  H 2.631544 1.239263 -2.897198
  H 0.295577 0.733419 -2.184796
  H 0.609671 -0.984640 -2.406443
  H 0.817167 1.144101 -4.566951
  H -0.501398 -0.024570 -4.380821
  H 1.127872 -0.584402 -4.793818
  H 4.994241 -0.200926 -0.289993
  H 4.867469 0.698701 -3.238038
  H 6.887812 -0.019009 -1.401825
 32
 67.873142
  C 0.855155 0.040583 0.251269
  C 2.368450 -0.013858 0.133971
  C 3.112593 0.273969 1.395781
  C 2.583928 0.196608 2.788716
  C 3.658441 -0.278786 3.773350
  C 3.018375 0.121269 -1.147148
  C 2.376674 0.248982 -2.512732
  C 0.890430 0.003563 -2.744879
  C 0.568031 0.153408 -4.230426
  C 4.441313 0.062520 -1.195467
  C 5.232809 0.345719 -2.247906
  O 6.600068 0.239339 -2.230923
  H 0.542987 -0.062322 1.286504
  H 0.375922 -0.747087 -0.323290
  H 0.496718 1.003133 -0.098299
  H 4.120355 0.632573 1.308004
  H 2.759594 -0.927904 0.572942
  H 1.728730 -0.479501 2.864270
  H 2.240839 1.188015 3.105532
  H 4.005370 -1.274039 3.509911
  H 3.262690 -0.310206 4.783726
  H 4.509837 0.394844 3.761148
  H 2.913325 -0.449450 -3.170484
  H 2.604471 1.258500 -2.886726
  H 0.283141 0.714888 -2.190463
  H 0.623083 -1.008673 -2.434052
  H 0.808984 1.157844 -4.574477
  H -0.491164 -0.026105 -4.410556
  H 1.142175 -0.557115 -4.823361
  H 4.956556 -0.254770 -0.292970
  H 4.894732 0.729039 -3.194826
  H 6.880945 -0.076349 -1.363261
 32
 66.542999
  C 0.843869 0.034380 0.246806
  C 2.357334 -0.030583 0.136986
  C 3.087643 0.332552 1.385554
  C 2.580151 0.187003 2.779431
  C 3.684928 -0.250079 3.744072
  C 3.015541 0.116679 -1.143673
  C 2.381009 0.265075 -2.505256
  C 0.896857 -0.001795 -2.744502
  C 0.573089 0.159886 -4.227454
  C 4.434490 0.043179 -1.183760
  C 5.235970 0.328126 -2.232331
  O 6.601538 0.186159 -2.218277
  H 0.533450 -0.073963 1.271079
  H 0.361243 -0.748149 -0.336943
  H 0.495223 0.998839 -0.094080
  H 4.093628 0.709402 1.293326
  H 2.720532 -0.978914 0.527600
  H 1.759866 -0.538039 2.843626
  H 2.186579 1.146841 3.123237
  H 4.084281 -1.218156 3.454122
  H 3.299873 -0.327455 4.754179
  H 4.495393 0.468579 3.742467
  H 2.931490 -0.411981 -3.175968
  H 2.594398 1.286673 -2.858998
  H 0.278754 0.690329 -2.184281
  H 0.647802 -1.018298 -2.445644
  H 0.797400 1.171533 -4.559089
  H -0.482498 -0.034852 -4.410797
  H 1.158586 -0.533321 -4.827712
  H 4.937424 -0.298519 -0.288618
  H 4.903579 0.728502 -3.173908
  H 6.874711 -0.151724 -1.356466
 32
 64.316911
  C 0.816125 0.016120 0.246155
  C 2.335945 -0.056922 0.143262
  C 3.046308 0.393542 1.367489
  C 2.586849 0.169696 2.763665
  C 3.741896 -0.209634 3.696903
  C 3.004347 0.103459 -1.144244
  C 2.378942 0.274351 -2.507555
  C 0.900920 0.000185 -2.757463
  C 0.583554 0.179588 -4.240737
  C 4.419463 0.023273 -1.160496
  C 5.243627 0.306468 -2.193942
  O 6.602063 0.125618 -2.164533
  H 0.503118 -0.100091 1.273779
  H 0.334747 -0.757001 -0.343003
  H 0.473091 0.985037 -0.087871
  H 4.033956 0.816344 1.262733
  H 2.670703 -1.044592 0.480967
  H 1.824386 -0.612239 2.820692
  H 2.129931 1.088893 3.144411
  H 4.206795 -1.137951 3.371832
  H 3.383898 -0.343388 4.712964
  H 4.498997 0.570193 3.700509
  H 2.936057 -0.382398 -3.185814
  H 2.584438 1.301774 -2.839532
  H 0.274168 0.681984 -2.188640
  H 0.658528 -1.025088 -2.471278
  H 0.802265 1.197898 -4.557975
  H -0.469899 -0.020274 -4.432065
  H 1.177500 -0.501902 -4.847779
  H 4.903230 -0.338662 -0.253351
  H 4.931028 0.717567 -3.138451
  H 6.854642 -0.231724 -1.304560
