 23
 0.000000
  C 0.995837 0.164900 0.461683
  C 2.457621 0.127139 0.367003
  H 3.049210 0.464155 1.205443
  C 3.049724 -0.336547 -0.787465
  C 4.428341 -0.418150 -0.991638
  C 5.116540 -0.870769 -2.119508
  C 4.616472 -1.391793 -3.417947
  C 3.128013 -1.511977 -3.718709
  C 2.928712 -2.075876 -5.123750
  O 6.430631 -0.863199 -2.100902
  H 0.647436 0.548353 1.416319
  H 0.583327 -0.834685 0.310081
  H 0.582896 0.781644 -0.339220
  H 2.386170 -0.653135 -1.574859
  H 5.048979 -0.086189 -0.165423
  H 5.080450 -2.377410 -3.543949
  H 5.081225 -0.767279 -4.190371
  H 2.649956 -0.533207 -3.672064
  H 2.649383 -2.186648 -3.008462
  H 3.376100 -1.426578 -5.872514
  H 1.868595 -2.164888 -5.346422
  H 3.375620 -3.062885 -5.215708
  H 6.829249 -0.531927 -1.273496
 23
 9.483382
  C 1.105010 0.257777 0.692312
  C 2.513879 0.082827 0.257815
  H 3.250962 0.375509 0.987944
  C 2.822552 -0.398499 -0.941064
  C 4.183431 -0.429766 -1.019446
  C 5.003227 -0.862246 -2.097943
  C 4.617856 -1.397809 -3.432113
  C 3.158056 -1.556031 -3.827132
  C 3.063479 -2.123241 -5.241718
  O 6.304405 -0.810540 -1.972282
  H 1.029402 0.660908 1.697681
  H 0.585983 -0.702695 0.640036
  H 0.587164 0.916959 -0.009112
  H 2.118149 -0.696185 -1.683252
  H 4.748025 -0.087193 -0.164739
  H 5.120497 -2.368376 -3.527985
  H 5.120431 -0.762949 -4.172408
  H 2.654942 -0.589227 -3.811740
  H 2.654485 -2.243995 -3.148011
  H 3.541857 -1.461927 -5.960188
  H 2.022906 -2.239714 -5.533329
  H 3.541078 -3.098080 -5.304115
  H 6.628374 -0.469387 -1.123365
 23
 38.905326
  C 1.167680 0.294467 0.782940
  C 2.588567 0.041216 0.155596
  H 3.342287 0.324869 0.866644
  C 2.697528 -0.443649 -1.052927
  C 4.062694 -0.433684 -1.028354
  C 4.935197 -0.851415 -2.071764
  C 4.613826 -1.390623 -3.414417
  C 3.166803 -1.569528 -3.861361
  C 3.127277 -2.139179 -5.280433
  O 6.236522 -0.777608 -1.893686
  H 1.239719 0.697659 1.792128
  H 0.611514 -0.640151 0.794240
  H 0.614721 0.981372 0.146620
  H 1.961430 -0.731870 -1.773619
  H 4.645539 -0.099733 -0.190381
  H 5.135927 -2.356101 -3.492180
  H 5.136297 -0.747672 -4.137929
  H 2.651545 -0.609664 -3.863092
  H 2.650656 -2.263761 -3.199002
  H 3.620676 -1.472506 -5.982301
  H 2.099476 -2.269543 -5.607462
  H 3.619192 -3.106888 -5.326242
  H 6.527514 -0.430818 -1.034695
 23
 80.212308
  C 1.185384 0.312574 0.821305
  C 2.671437 0.016506 0.093094
  H 3.361378 0.316290 0.847600
  C 2.639818 -0.472554 -1.110906
  C 4.009442 -0.421615 -0.999191
  C 4.908820 -0.840863 -2.049716
  C 4.608187 -1.386310 -3.406066
  C 3.168052 -1.575852 -3.878451
  C 3.157854 -2.145181 -5.296105
  O 6.201860 -0.762396 -1.856304
  H 1.315436 0.713825 1.828233
  H 0.638291 -0.614753 0.851732
  H 0.640027 1.008174 0.206272
  H 1.898603 -0.751611 -1.803495
  H 4.650351 -0.108524 -0.203438
  H 5.139100 -2.351941 -3.478666
  H 5.139099 -0.739772 -4.125813
  H 2.647540 -0.623672 -3.891097
  H 2.647418 -2.272465 -3.229148
  H 3.656745 -1.477051 -5.987636
  H 2.139313 -2.282785 -5.640125
  H 3.655886 -3.106498 -5.333458
  H 6.484695 -0.415528 -0.998031
 23
 116.785738
  C 1.147348 0.352970 0.848090
  C 2.758829 -0.009327 0.002691
  H 3.393930 0.311141 0.794429
  C 2.582157 -0.549295 -1.153085
  C 4.025807 -0.422140 -1.017005
  C 4.882824 -0.817679 -2.024690
  C 4.603259 -1.378849 -3.386361
  C 3.171359 -1.566278 -3.875048
  C 3.178217 -2.135211 -5.289529
  O 6.215522 -0.767239 -1.845422
  H 1.373565 0.734314 1.831974
  H 0.668919 -0.614449 0.885209
  H 0.597267 1.060973 0.241598
  H 1.827383 -0.847052 -1.831842
  H 4.679693 -0.139778 -0.204465
  H 5.122517 -2.337855 -3.441623
  H 5.127606 -0.719899 -4.083095
  H 2.647251 -0.604896 -3.893362
  H 2.642947 -2.271602 -3.225735
  H 3.688988 -1.464591 -5.975858
  H 2.162322 -2.274438 -5.647322
  H 3.681890 -3.098125 -5.318655
  H 6.514579 -0.408992 -0.995111
 23
 135.593783
  C 1.000495 0.379403 0.919816
  C 2.857287 -0.031481 -0.055256
  H 3.398328 0.351761 0.769736
  C 2.570939 -0.577070 -1.162602
  C 4.101317 -0.429153 -1.022960
  C 4.916325 -0.829542 -2.031228
  C 4.626749 -1.383226 -3.397781
  C 3.187084 -1.562941 -3.880159
  C 3.184833 -2.127451 -5.295718
  O 6.261961 -0.792114 -1.879996
  H 1.292154 0.789504 1.872695
  H 0.580436 -0.603027 1.008336
  H 0.490262 1.086159 0.294694
  H 1.808727 -0.893698 -1.824349
  H 4.781839 -0.147530 -0.224631
  H 5.138025 -2.347892 -3.453363
  H 5.150756 -0.724321 -4.097618
  H 2.682519 -0.595867 -3.882820
  H 2.670836 -2.262692 -3.220943
  H 3.697551 -1.456850 -5.981874
  H 2.166287 -2.261582 -5.651031
  H 3.685450 -3.092661 -5.328907
  H 6.579523 -0.437818 -1.030590
 23
 133.865648
  C 0.650395 0.460441 1.049959
  C 3.066947 -0.023190 -0.055283
  H 3.289141 0.373705 0.908498
  C 2.679127 -0.605329 -1.090014
  C 4.313996 -0.438293 -1.032377
  C 5.040099 -0.851311 -2.091005
  C 4.669395 -1.394147 -3.445841
  C 3.216592 -1.576182 -3.863990
  C 3.156922 -2.108227 -5.293114
  O 6.388325 -0.837177 -2.027062
  H 0.963766 0.878939 1.984359
  H 0.335453 -0.561895 1.058117
  H 0.261601 1.130171 0.312537
  H 1.946189 -0.963013 -1.766235
  H 5.007637 -0.161365 -0.235857
  H 5.183281 -2.357959 -3.525849
  H 5.161697 -0.732662 -4.166172
  H 2.700774 -0.615971 -3.835205
  H 2.727654 -2.296922 -3.210427
  H 3.633812 -1.419257 -5.986725
  H 2.123404 -2.240464 -5.606155
  H 3.657710 -3.070607 -5.372871
  H 6.770552 -0.505735 -1.198627
 23
 136.305487
  C 0.480038 0.536660 1.177223
  C 3.146583 -0.040363 -0.107098
  H 3.373890 0.369399 0.852766
  C 2.703532 -0.667444 -1.087550
  C 4.364346 -0.451376 -1.048162
  C 5.070088 -0.863171 -2.110241
  C 4.689264 -1.399784 -3.462831
  C 3.235143 -1.578853 -3.876129
  C 3.174334 -2.097996 -5.310097
  O 6.412129 -0.845500 -2.052882
  H 0.836328 0.973408 2.085872
  H 0.186337 -0.491333 1.199051
  H 0.100419 1.185254 0.417279
  H 1.994171 -1.074955 -1.767162
  H 5.051845 -0.185312 -0.247524
  H 5.206639 -2.360693 -3.560835
  H 5.180272 -0.735851 -4.183319
  H 2.714365 -0.622302 -3.837759
  H 2.751832 -2.312492 -3.233399
  H 3.656817 -1.405294 -5.996608
  H 2.142598 -2.240016 -5.625569
  H 3.686150 -3.054347 -5.393054
  H 6.796540 -0.509337 -1.226579
 23
 138.101869
  C 0.305391 0.592891 1.277014
  C 3.218316 -0.063333 -0.159878
  H 3.439884 0.309225 0.807872
  C 2.715949 -0.687612 -1.111988
  C 4.426889 -0.460699 -1.062714
  C 5.122329 -0.871827 -2.133473
  C 4.725661 -1.403594 -3.477045
  C 3.261707 -1.581682 -3.867806
  C 3.174708 -2.098395 -5.303018
  O 6.467073 -0.847313 -2.094501
  H 0.684482 1.015617 2.184367
  H 0.012569 -0.433977 1.278816
  H -0.056633 1.249475 0.516847
  H 2.021812 -1.095829 -1.786847
  H 5.124006 -0.191538 -0.255782
  H 5.240705 -2.361233 -3.584631
  H 5.204554 -0.736350 -4.199133
  H 2.739371 -0.625048 -3.819068
  H 2.785955 -2.317872 -3.219640
  H 3.640978 -1.403445 -5.996174
  H 2.139102 -2.235367 -5.598138
  H 3.682373 -3.056258 -5.399613
  H 6.860972 -0.508833 -1.276050
 23
 139.651305
  C 0.152280 0.656049 1.407017
  C 3.273590 -0.074537 -0.193044
  H 3.505596 0.300376 0.773986
  C 2.701864 -0.716904 -1.101441
  C 4.467733 -0.462367 -1.066768
  C 5.149038 -0.875749 -2.150860
  C 4.748136 -1.411176 -3.497945
  C 3.288045 -1.588255 -3.893338
  C 3.205301 -2.104916 -5.328123
  O 6.497110 -0.855811 -2.118768
  H 0.551059 1.086876 2.301189
  H -0.136836 -0.372167 1.420869
  H -0.216931 1.304292 0.642779
  H 1.993615 -1.143407 -1.755208
  H 5.174806 -0.190538 -0.281913
  H 5.264285 -2.369593 -3.605338
  H 5.224784 -0.740885 -4.219799
  H 2.765338 -0.632195 -3.845963
  H 2.810307 -2.324306 -3.246441
  H 3.674326 -1.408622 -6.019558
  H 2.169165 -2.240247 -5.627892
  H 3.714604 -3.061032 -5.424325
  H 6.897068 -0.518212 -1.302115
 23
 136.696683
  C -0.097082 0.718679 1.425173
  C 3.385243 -0.099401 -0.218002
  H 3.553333 0.344966 0.734331
  C 2.786017 -0.831475 -1.036024
  C 4.624092 -0.489117 -1.049333
  C 5.242026 -0.902280 -2.173838
  C 4.777764 -1.409221 -3.508978
  C 3.298169 -1.571933 -3.849463
  C 3.155027 -2.045826 -5.296306
  O 6.588534 -0.890783 -2.200068
  H 0.284767 1.236291 2.278883
  H -0.334079 -0.319408 1.513315
  H -0.464871 1.282855 0.596235
  H 2.110325 -1.349151 -1.656826
  H 5.356009 -0.215526 -0.285384
  H 5.288421 -2.367995 -3.666466
  H 5.229983 -0.724074 -4.239162
  H 2.776860 -0.624241 -3.741435
  H 2.854202 -2.334950 -3.209133
  H 3.578637 -1.323736 -5.990768
  H 2.103808 -2.174930 -5.546902
  H 3.650759 -3.002294 -5.443740
  H 7.028397 -0.565555 -1.395209
 23
 113.780659
  C -0.377295 0.530514 0.715615
  C 3.707858 -0.042679 -0.232575
  H 3.551495 0.739885 0.467661
  C 3.535104 -1.272489 -0.540893
  C 4.985792 -0.567969 -0.945432
  C 5.422233 -0.988643 -2.192860
  C 4.680056 -1.405317 -3.427033
  C 3.161292 -1.314455 -3.558847
  C 2.760392 -1.697861 -4.984057
  O 6.713363 -1.071258 -2.406460
  H -0.212627 1.378389 1.342188
  H -0.355632 -0.451429 1.132364
  H -0.611140 0.667554 -0.316425
  H 3.218823 -2.196423 -0.954205
  H 5.748716 -0.333201 -0.207480
  H 5.015783 -2.413880 -3.688216
  H 5.114228 -0.762616 -4.203346
  H 2.819037 -0.296246 -3.360027
  H 2.645683 -2.001941 -2.891322
  H 3.214673 -1.031109 -5.714767
  H 1.680332 -1.636288 -5.100452
  H 3.068082 -2.716563 -5.213785
  H 7.290093 -0.775079 -1.678746
