 26
 0.000000
  H 1.405224 0.134920 0.386628
  C 2.475139 0.140018 0.399085
  C 3.241227 0.613797 1.578372
  C 2.445071 1.099206 2.786946
  H 3.098730 1.415018 3.573007
  C 3.096863 -0.322475 -0.752613
  C 4.472906 -0.413204 -0.978851
  C 5.132414 -0.867699 -2.111643
  C 4.618673 -1.388937 -3.410716
  C 3.124514 -1.501358 -3.691727
  C 2.884273 -2.062550 -5.090453
  O 6.457488 -0.870547 -2.119086
  H 3.897288 1.429656 1.253616
  H 3.897458 -0.199872 1.908184
  H 1.806291 0.298662 3.165430
  H 1.806160 1.939037 2.506526
  H 2.436796 -0.639606 -1.542199
  H 5.100515 -0.083792 -0.158214
  H 5.068655 -2.379864 -3.541239
  H 5.069011 -0.763340 -4.190016
  H 2.653353 -0.519100 -3.634327
  H 2.652914 -2.171265 -2.971344
  H 3.317761 -1.416949 -5.851212
  H 1.816603 -2.139379 -5.282649
  H 3.317322 -3.055145 -5.193870
  H 6.834017 -0.535875 -1.285013
 26
 0.000000
  H 1.461245 0.117787 0.343937
  C 2.531051 0.125458 0.362809
  C 3.288914 0.601068 1.546665
  C 2.484361 1.084551 2.750442
  H 3.132534 1.401927 3.540406
  C 3.134451 -0.330734 -0.773197
  C 4.441145 -0.414857 -0.982979
  C 5.075929 -0.850813 -2.069583
  C 4.592372 -1.376043 -3.378604
  C 3.105052 -1.500402 -3.689334
  C 2.897239 -2.063387 -5.092533
  O 6.332771 -0.834036 -2.028134
  H 3.944946 1.418505 1.225844
  H 3.945111 -0.211023 1.880411
  H 1.845250 0.282470 3.125094
  H 1.845124 1.922845 2.466191
  H 2.473358 -0.647566 -1.562045
  H 5.066332 -0.084805 -0.160752
  H 5.052789 -2.363324 -3.500058
  H 5.053131 -0.746796 -4.148823
  H 2.624988 -0.521953 -3.641410
  H 2.624565 -2.174124 -2.978441
  H 3.340623 -1.414273 -5.844552
  H 1.834257 -2.148748 -5.305967
  H 3.340200 -3.052474 -5.187224
  H 6.658927 -0.479894 -1.145539
 26
 0.000000
  H 1.517272 0.102297 0.305341
  C 2.586930 0.112466 0.330441
  C 3.336775 0.589835 1.518687
  C 2.524101 1.071428 2.717757
  H 3.166921 1.390311 3.511481
  C 3.173474 -0.339234 -0.794382
  C 4.409549 -0.417523 -0.989631
  C 5.019850 -0.835178 -2.030643
  C 4.567375 -1.364238 -3.349209
  C 3.087754 -1.500743 -3.690168
  C 2.913187 -2.065291 -5.097273
  O 6.206468 -0.800485 -1.944557
  H 3.992754 1.408805 1.201686
  H 3.992913 -0.220724 1.856252
  H 1.884694 0.267854 3.088687
  H 1.884574 1.908230 2.429786
  H 2.510444 -0.655501 -1.581829
  H 5.032881 -0.086982 -0.166192
  H 5.038240 -2.347709 -3.461181
  H 5.038567 -0.731175 -4.109934
  H 2.598817 -0.526259 -3.652111
  H 2.598412 -2.178436 -2.989155
  H 3.366473 -1.412506 -5.840157
  H 1.855502 -2.159333 -5.332314
  H 3.366069 -3.050712 -5.182843
  H 6.476625 -0.424991 -1.008747
 26
 0.000000
  H 1.572763 0.088545 0.271071
  C 2.642241 0.101091 0.302097
  C 3.384427 0.580116 1.494479
  C 2.564052 1.059892 2.689025
  H 3.201755 1.380196 3.486297
  C 3.213604 -0.348038 -0.816323
  C 4.378685 -0.421134 -0.998638
  C 4.964916 -0.820862 -1.994989
  C 4.544026 -1.353529 -3.322542
  C 3.072897 -1.502222 -3.693836
  C 2.931961 -2.068072 -5.104195
  O 6.080242 -0.770262 -1.869270
  H 4.040331 1.400543 1.181114
  H 4.040484 -0.228986 1.835677
  H 1.924387 0.254896 3.056409
  H 1.924273 1.895273 2.397511
  H 2.547842 -0.663504 -1.601785
  H 5.000656 -0.090236 -0.174314
  H 5.025205 -2.333067 -3.424733
  H 5.025514 -0.716529 -4.073474
  H 2.575245 -0.531813 -3.665916
  H 2.574859 -2.183994 -3.002974
  H 3.395018 -1.411500 -5.837659
  H 1.880138 -2.170827 -5.360922
  H 3.394634 -3.049712 -5.180358
  H 6.287903 -0.372020 -0.876769
 26
 0.000000
  H 1.627002 0.076841 0.241901
  C 2.696280 0.091576 0.278387
  C 3.431386 0.572111 1.474542
  C 2.603941 1.050198 2.664883
  H 3.236907 1.371801 3.465400
  C 3.254463 -0.357234 -0.839245
  C 4.349048 -0.425716 -1.010063
  C 4.911864 -0.808054 -1.963089
  C 4.522693 -1.344058 -3.298961
  C 3.060755 -1.504840 -3.700340
  C 2.953442 -2.071712 -5.113255
  O 5.955949 -0.743717 -1.803146
  H 4.087200 1.393882 1.164528
  H 4.087347 -0.235649 1.819089
  H 1.964058 0.243891 3.028998
  H 1.963949 1.884269 2.370103
  H 2.585216 -0.671672 -1.622153
  H 4.970128 -0.094582 -0.185162
  H 5.013926 -2.319589 -3.391184
  H 5.014217 -0.703046 -4.039914
  H 2.554650 -0.538567 -3.682709
  H 2.554285 -2.190754 -3.019780
  H 3.426021 -1.411282 -5.837124
  H 1.907982 -2.183111 -5.391495
  H 3.425659 -3.049499 -5.179836
  H 6.094129 -0.321538 -0.750988
 26
 0.000000
  H 1.679642 0.067665 0.219027
  C 2.748716 0.084335 0.260338
  C 3.477548 0.566190 1.459797
  C 2.643877 1.042771 2.646392
  H 3.272643 1.365514 3.449757
  C 3.296140 -0.367114 -0.863869
  C 4.320763 -0.431483 -1.024444
  C 4.860823 -0.796948 -1.935433
  C 4.503525 -1.336025 -3.278962
  C 3.051481 -1.508804 -3.710197
  C 2.977808 -2.076421 -5.124978
  O 5.834103 -0.720973 -1.746491
  H 4.133267 1.389148 1.152744
  H 4.133408 -0.240384 1.807300
  H 2.003817 0.235306 3.007618
  H 2.003715 1.875686 2.348726
  H 2.622568 -0.680264 -1.643579
  H 4.941427 -0.100239 -0.199274
  H 5.004563 -2.307471 -3.361026
  H 5.004835 -0.690924 -4.009745
  H 2.537179 -0.546732 -3.703015
  H 2.536837 -2.198924 -3.040099
  H 3.459666 -1.412059 -5.839069
  H 1.939214 -2.196400 -5.424570
  H 3.459327 -3.050282 -5.181793
  H 5.894495 -0.273190 -0.630524
 26
 0.000000
  H 1.729883 0.061692 0.204127
  C 2.798771 0.079940 0.249379
  C 3.522463 0.562864 1.451518
  C 2.683720 1.038207 2.635031
  H 3.309042 1.361873 3.440709
  C 3.338471 -0.377999 -0.891000
  C 4.294218 -0.438693 -1.042420
  C 4.812324 -0.787870 -1.912829
  C 4.486868 -1.329739 -3.263317
  C 3.045356 -1.514357 -3.724008
  C 3.005142 -2.082438 -5.139957
  O 5.716117 -0.702332 -1.700058
  H 4.178094 1.386792 1.146885
  H 4.178229 -0.242742 1.801437
  H 2.043526 0.229794 2.993894
  H 2.043429 1.870176 2.335007
  H 2.659706 -0.689586 -1.666825
  H 4.914911 -0.107454 -0.217271
  H 4.997407 -2.297047 -3.335090
  H 4.997656 -0.680496 -3.983798
  H 2.523157 -0.556524 -3.727370
  H 2.522840 -2.208721 -3.064466
  H 3.495987 -1.414095 -5.844147
  H 1.973872 -2.210885 -5.460619
  H 3.495672 -3.052322 -5.186884
  H 5.689303 -0.226825 -0.514997
 26
 0.000000
  H 1.776684 0.059746 0.199258
  C 2.845433 0.079100 0.247275
  C 3.565512 0.562768 1.451282
  C 2.723219 1.037236 2.632624
  H 3.346120 1.361545 3.439917
  C 3.381171 -0.390279 -0.921604
  C 4.269924 -0.447666 -1.064787
  C 4.767070 -0.781219 -1.896272
  C 4.473157 -1.325584 -3.252981
  C 3.042709 -1.521785 -3.742490
  C 3.035498 -2.090055 -5.158923
  O 5.603813 -0.688126 -1.664673
  H 4.221075 1.387375 1.148348
  H 4.221204 -0.242161 1.802895
  H 2.082936 0.228159 2.989828
  H 2.082846 1.868543 2.330947
  H 2.696372 -0.700024 -1.692852
  H 4.891019 -0.116528 -0.239898
  H 4.992821 -2.288738 -3.314422
  H 4.993047 -0.672182 -3.963120
  H 2.512972 -0.568195 -3.756403
  H 2.512680 -2.220397 -3.093510
  H 3.534968 -1.417716 -5.853176
  H 2.011935 -2.226791 -5.500204
  H 3.534680 -3.055948 -5.195924
  H 5.479337 -0.182186 -0.403772
 26
 0.000000
  H 1.819119 0.062784 0.206803
  C 2.887801 0.082643 0.256087
  C 3.606225 0.566645 1.460948
  C 2.762308 1.040710 2.641293
  H 3.384098 1.365310 3.449325
  C 3.424062 -0.404455 -0.956935
  C 4.248309 -0.458819 -1.092587
  C 4.725573 -0.777402 -1.886773
  C 4.462745 -1.323967 -3.248967
  C 3.043808 -1.531445 -3.766529
  C 3.068982 -2.099640 -5.182788
  O 5.498633 -0.678589 -1.640921
  H 4.261757 1.391564 1.158795
  H 4.261879 -0.237975 1.813334
  H 2.121984 0.231330 2.997734
  H 2.121899 1.871717 2.338860
  H 2.732439 -0.712085 -1.722924
  H 4.870053 -0.127848 -0.268121
  H 4.991126 -2.282972 -3.300093
  H 4.991328 -0.666413 -3.948782
  H 2.506915 -0.582077 -3.790939
  H 2.506651 -2.234282 -3.128057
  H 3.576687 -1.423313 -5.867124
  H 2.053450 -2.244446 -5.544145
  H 3.576427 -3.061549 -5.209882
  H 5.264499 -0.138585 -0.295135
 26
 0.000000
  H 1.855771 0.071193 0.227726
  C 2.924476 0.090872 0.276571
  C 3.643475 0.574748 1.481141
  C 2.800121 1.048950 2.661833
  H 3.422297 1.373442 3.469612
  C 3.465869 -0.420508 -0.996938
  C 4.230133 -0.472086 -1.125651
  C 4.689080 -0.776608 -1.884805
  C 4.456057 -1.325045 -3.251665
  C 3.048713 -1.543208 -3.795806
  C 3.104812 -2.111092 -5.211304
  O 5.404073 -0.673745 -1.628857
  H 4.299022 1.399558 1.178722
  H 4.299139 -0.229984 1.833255
  H 2.159807 0.239675 3.018534
  H 2.159728 1.880065 2.359667
  H 2.767022 -0.725859 -1.757262
  H 4.852522 -0.141280 -0.301606
  H 4.992543 -2.280023 -3.292781
  H 4.992720 -0.663460 -3.941461
  H 2.505210 -0.597925 -3.830374
  H 2.504973 -2.250135 -3.167501
  H 3.620169 -1.430894 -5.886018
  H 2.097378 -2.263546 -5.591686
  H 3.619937 -3.069135 -5.228786
  H 5.050149 -0.096363 -0.189934
 26
 0.000000
  H 1.886276 0.085136 0.262433
  C 2.955095 0.103938 0.309104
  C 3.676941 0.587217 1.512210
  C 2.836381 1.062104 2.694618
  H 3.460466 1.386081 3.501130
  C 3.506043 -0.438517 -1.041816
  C 4.215401 -0.487464 -1.163974
  C 4.657624 -0.778758 -1.890171
  C 4.452988 -1.328762 -3.260939
  C 3.057188 -1.556989 -3.830110
  C 3.142630 -2.124361 -5.244345
  O 5.320892 -0.673144 -1.627364
  H 4.332547 1.411491 1.208460
  H 4.332660 -0.218054 1.862985
  H 2.196131 0.253353 3.052618
  H 2.196057 1.893746 2.393759
  H 2.799882 -0.741520 -1.796300
  H 4.838164 -0.156753 -0.340174
  H 4.996967 -2.279861 -3.292410
  H 4.997118 -0.663295 -3.941083
  H 2.507615 -0.615631 -3.874435
  H 2.507406 -2.267844 -3.211571
  H 3.665054 -1.440435 -5.909790
  H 2.143270 -2.284020 -5.642645
  H 3.664850 -3.078679 -5.252567
  H 4.837575 -0.054814 -0.086415
 26
 0.000000
  H 1.911063 0.103948 0.309271
  C 2.980063 0.121259 0.352240
  C 3.706744 0.603525 1.552839
  C 2.870947 1.079574 2.738153
  H 3.498272 1.402675 3.542500
  C 3.543973 -0.458082 -1.090569
  C 4.203781 -0.504471 -1.206354
  C 4.630824 -0.783259 -1.901389
  C 4.453121 -1.334557 -3.275386
  C 3.068723 -1.572229 -3.868046
  C 3.181902 -2.138921 -5.280601
  O 5.249037 -0.675818 -1.634029
  H 4.362442 1.426886 1.246823
  H 4.362552 -0.202662 1.901340
  H 2.230814 0.271713 3.098367
  H 2.230743 1.912109 2.439515
  H 2.830819 -0.758799 -1.839368
  H 4.826355 -0.173708 -0.382432
  H 5.004003 -2.281935 -3.297609
  H 5.004130 -0.665366 -3.946275
  H 2.513595 -0.634625 -3.921702
  H 2.513413 -2.286841 -3.258846
  H 3.710834 -1.451420 -5.937161
  H 2.190524 -2.305343 -5.695720
  H 3.710658 -3.089667 -5.279945
  H 4.628725 -0.013670 0.016087
 26
 0.000000
  H 1.922188 0.109720 0.323647
  C 2.991212 0.126819 0.366087
  C 3.718583 0.608938 1.566328
  C 2.883466 1.085153 2.752056
  H 3.511254 1.408129 3.556093
  C 3.560220 -0.463165 -1.103233
  C 4.207778 -0.508686 -1.216854
  C 4.631667 -0.784104 -1.903494
  C 4.462271 -1.335765 -3.278395
  C 3.081475 -1.576330 -3.878250
  C 3.203188 -2.142776 -5.290195
  O 5.238637 -0.676078 -1.634674
  H 4.374294 1.432170 1.259989
  H 4.374402 -0.197380 1.914504
  H 2.243351 0.277419 3.112585
  H 2.243281 1.917816 2.453736
  H 2.845888 -0.763493 -1.851065
  H 4.829434 -0.177682 -0.392336
  H 5.015242 -2.281988 -3.297746
  H 5.015361 -0.665419 -3.946411
  H 2.524672 -0.639889 -3.934799
  H 2.524498 -2.292106 -3.271944
  H 3.734090 -1.454166 -5.943998
  H 2.214334 -2.311269 -5.710467
  H 3.733922 -3.092413 -5.286783
  H 4.578881 -0.001958 0.045268
 26
 0.000000
  H 1.952229 0.149735 0.423289
  C 3.021646 0.162952 0.456073
  C 3.761572 0.642400 1.649690
  C 2.938933 1.121612 2.842907
  H 3.575124 1.442288 3.641238
  C 3.613703 -0.499418 -1.193572
  C 4.181021 -0.539854 -1.294522
  C 4.579325 -0.792695 -1.924907
  C 4.457928 -1.346099 -3.304158
  C 3.098772 -1.603194 -3.945122
  C 3.269620 -2.167861 -5.352663
  O 5.117942 -0.683035 -1.652009
  H 4.417472 1.463253 1.337434
  H 4.417578 -0.166301 1.991936
  H 2.299173 0.316198 3.209210
  H 2.299105 1.956600 2.550374
  H 2.888942 -0.796252 -1.932710
  H 4.799343 -0.207980 -0.467850
  H 5.022603 -2.285575 -3.306738
  H 5.022677 -0.669001 -3.955392
  H 2.532663 -0.673532 -4.018520
  H 2.532540 -2.325753 -3.355678
  H 3.811544 -1.472772 -5.990360
  H 2.295938 -2.348195 -5.802381
  H 3.811427 -3.111024 -5.333157
  H 4.192250 0.069786 0.223990
