15

H      2.295931    0.064637    0.815789
C      1.429912    1.033814    0.098208
C     -1.341186   -0.045509    0.227019
C     -2.128845    1.009462   -0.464509
C     -3.643082    0.948150   -0.174117
O     -4.334824    2.008333   -0.788611
H     -1.155490   -1.396740   -0.372382
H      1.583365    1.112237   -0.966190
H      1.315618    1.995227    0.577963
H     -1.528998   -0.076382    1.293422
H     -1.788595    1.986754   -0.099410
H     -1.959259    0.984426   -1.543272
H     -3.804710    0.958139    0.912860
H     -4.095472    0.044379   -0.578254
H     -3.936651    2.841299   -0.511018
