 9
 0.000000
  C 1.049957 -0.111630 -0.038610
  C 2.548360 -0.144219 -0.038807
  C 3.250562 -1.260285 -0.045497
  H 4.326080 -1.272806 -0.045571
  H 0.689513 0.914708 -0.032461
  H 0.653877 -0.613294 0.842403
  H 0.653876 -0.602704 -0.925569
  H 3.052017 0.812964 -0.033073
  H 2.748964 -2.214885 -0.051216
 9
 20.265495
  C 0.907615 -0.070905 -0.049165
  C 2.658054 -0.106849 -0.071873
  C 3.339632 -1.319651 -0.044573
  H 4.414664 -1.320306 -0.042278
  H 0.575969 0.945276 -0.045430
  H 0.600069 -0.607459 0.844336
  H 0.567951 -0.623491 -0.916608
  H 3.101825 0.859575 0.056905
  H 2.808414 -2.248170 -0.099714
 9
 47.975362
  C 0.759359 -0.074445 -0.039547
  C 2.754296 -0.095379 -0.037891
  C 3.412020 -1.339924 -0.054556
  H 4.486943 -1.371669 -0.040879
  H 0.502749 0.966412 -0.055813
  H 0.498162 -0.582793 0.867623
  H 0.494003 -0.612603 -0.930382
  H 3.198217 0.871610 0.039862
  H 2.859932 -2.256167 -0.109640
 9
 76.248102
  C 0.598821 -0.063655 -0.038599
  C 2.881473 -0.107927 -0.026245
  C 3.487684 -1.347192 -0.061679
  H 4.563319 -1.418660 -0.050400
  H 0.421132 0.992030 -0.059335
  H 0.390421 -0.569921 0.882129
  H 0.397966 -0.598558 -0.945539
  H 3.297673 0.871090 0.036660
  H 2.914480 -2.253089 -0.096690
 9
 98.014032
  C 0.433185 -0.040062 -0.038072
  C 3.010653 -0.130185 -0.025178
  C 3.572962 -1.350817 -0.062695
  H 4.649618 -1.477684 -0.047689
  H 0.333767 1.023847 -0.061836
  H 0.278194 -0.551082 0.887257
  H 0.284016 -0.582380 -0.946877
  H 3.380435 0.866936 0.033094
  H 2.988300 -2.253669 -0.097148
 9
 113.091796
  C 0.265418 -0.007257 -0.040669
  C 3.125937 -0.166314 -0.012308
  C 3.670568 -1.366624 -0.055898
  H 4.747349 -1.519976 -0.053877
  H 0.251151 1.058139 -0.065012
  H 0.154138 -0.510888 0.894015
  H 0.157887 -0.559248 -0.948656
  H 3.440071 0.849690 0.028269
  H 3.084770 -2.271287 -0.104540
 9
 122.550317
  C 0.093860 0.036321 -0.041912
  C 3.222151 -0.212972 -0.008438
  C 3.777700 -1.393810 -0.056487
  H 4.858641 -1.543661 -0.066485
  H 0.169035 1.100220 -0.067132
  H 0.021376 -0.468252 0.894945
  H 0.021878 -0.514870 -0.952201
  H 3.482154 0.817670 0.027154
  H 3.203379 -2.308474 -0.091632
 9
 128.150660
  C -0.081964 0.091460 -0.041354
  C 3.307125 -0.267739 -0.017815
  C 3.890808 -1.424842 -0.053780
  H 4.976211 -1.553695 -0.061824
  H 0.087704 1.144665 -0.068085
  H -0.118960 -0.418134 0.895595
  H -0.130438 -0.464080 -0.951644
  H 3.522021 0.773594 0.026056
  H 3.338135 -2.354687 -0.093686
 9
 131.252280
  C -0.256350 0.162006 -0.038739
  C 3.383440 -0.342740 -0.023333
  C 4.022295 -1.463243 -0.060459
  H 5.112083 -1.546005 -0.039313
  H -0.007049 1.198663 -0.068261
  H -0.289126 -0.349275 0.897518
  H -0.312826 -0.396633 -0.947046
  H 3.551351 0.706488 0.014631
  H 3.514906 -2.417923 -0.104517
 9
 132.453070
  C -0.421959 0.241021 -0.039507
  C 3.457811 -0.431352 -0.025139
  C 4.164665 -1.507505 -0.050653
  H 5.258310 -1.527307 -0.058802
  H -0.113897 1.262443 -0.070723
  H -0.483062 -0.265871 0.897752
  H -0.514190 -0.312922 -0.947671
  H 3.564189 0.627170 0.019915
  H 3.715646 -2.492357 -0.094784
 9
 132.818432
  C -0.578377 0.322483 -0.036967
  C 3.534169 -0.520833 -0.041384
  C 4.305078 -1.551837 -0.070830
  H 5.396959 -1.508968 -0.024144
  H -0.241018 1.334203 -0.064239
  H -0.681725 -0.175271 0.901588
  H -0.719664 -0.217238 -0.947014
  H 3.573025 0.540633 0.005417
  H 3.915877 -2.561257 -0.094978
 9
 132.712824
  C -0.573555 0.321820 -0.037437
  C 3.531856 -0.522599 -0.037270
  C 4.303874 -1.551711 -0.062507
  H 5.396911 -1.506304 -0.033567
  H -0.241184 1.335574 -0.067785
  H -0.682800 -0.173324 0.901625
  H -0.719499 -0.218809 -0.946008
  H 3.571625 0.539271 0.008338
  H 3.917096 -2.562002 -0.097941
