 17
 0.000000
  H 1.480461 0.169814 0.470228
  C 2.562572 0.159906 0.445469
  C 3.247719 0.641562 1.646033
  C 2.309207 1.086219 2.756219
  H 2.874110 1.431319 3.618157
  C 3.170401 -0.302075 -0.704225
  C 4.554245 -0.381186 -0.901220
  C 5.093539 -0.855636 -2.079347
  H 4.446540 -1.181787 -2.887667
  O 6.353039 -0.962555 -2.345533
  H 3.917469 1.468987 1.374984
  H 3.917622 -0.143858 2.021480
  H 1.669874 0.267035 3.077074
  H 1.669873 1.900364 2.423041
  H 2.537102 -0.629223 -1.517527
  H 5.227913 -0.065115 -0.116899
  H 6.955806 -0.671698 -1.625429
 17
 7.871247
  H 1.467899 0.200581 0.485624
  C 2.545991 0.172053 0.433040
  C 3.268876 0.627259 1.620099
  C 2.368658 1.089003 2.755138
  H 2.959279 1.412433 3.603215
  C 3.100287 -0.308100 -0.730687
  C 4.484268 -0.467553 -0.955199
  C 5.062366 -0.908886 -2.116806
  H 4.643930 -1.339772 -3.011808
  O 6.350042 -0.774489 -2.205730
  H 3.953346 1.438402 1.335740
  H 3.918178 -0.166455 2.009409
  H 1.717045 0.279456 3.080783
  H 1.741372 1.918927 2.444291
  H 2.438248 -0.563115 -1.550374
  H 5.049376 -0.178271 -0.080944
  H 6.894968 -0.491685 -1.441766
 17
 17.254612
  H 1.465507 0.231839 0.491124
  C 2.545195 0.197369 0.420951
  C 3.297694 0.598168 1.618264
  C 2.388334 1.075962 2.754083
  H 2.984703 1.381070 3.620165
  C 3.059817 -0.284340 -0.761137
  C 4.461754 -0.493864 -0.961280
  C 5.094142 -0.960796 -2.105590
  H 4.684467 -1.513620 -2.919197
  O 6.337773 -0.606099 -2.193845
  H 4.007264 1.379416 1.333066
  H 3.872557 -0.265388 1.988896
  H 1.698401 0.281261 3.028348
  H 1.808439 1.942259 2.447256
  H 2.420029 -0.490414 -1.605523
  H 4.934218 -0.208895 -0.025005
  H 6.893486 -0.322327 -1.452041
 17
 27.701232
  H 1.484309 0.316302 0.466115
  C 2.563213 0.244313 0.401566
  C 3.294999 0.575818 1.634774
  C 2.378066 1.051453 2.758117
  H 2.959756 1.290752 3.644465
  C 3.089370 -0.217547 -0.782540
  C 4.469104 -0.488496 -0.955380
  C 5.069493 -1.073854 -2.041869
  H 4.791881 -1.764351 -2.816630
  O 6.208319 -0.459042 -2.260240
  H 4.040431 1.352655 1.430123
  H 3.809469 -0.330720 1.982708
  H 1.639726 0.298393 3.020401
  H 1.860793 1.963504 2.466202
  H 2.441860 -0.405198 -1.629076
  H 4.973407 -0.257658 -0.027886
  H 6.877479 -0.156757 -1.617690
 17
 32.055436
  H 1.483429 0.399301 0.425853
  C 2.552280 0.250499 0.415101
  C 3.244670 0.491475 1.684195
  C 2.347769 1.075177 2.767352
  H 2.901474 1.206235 3.690814
  C 3.120831 -0.215696 -0.763352
  C 4.473405 -0.480529 -0.906299
  C 5.165621 -1.046721 -1.943486
  H 4.867130 -1.896599 -2.541931
  O 6.088155 -0.294773 -2.477085
  H 4.106733 1.157689 1.510693
  H 3.654186 -0.463855 2.052404
  H 1.503961 0.416916 2.967961
  H 1.957888 2.046184 2.466361
  H 2.489332 -0.398154 -1.622518
  H 5.065717 -0.233908 -0.033700
  H 6.934961 -0.078136 -2.029320
 17
 57.578496
  H 1.546492 0.505029 0.379855
  C 2.598374 0.287855 0.409620
  C 3.260151 0.454447 1.708420
  C 2.348208 1.046659 2.770585
  H 2.891017 1.169049 3.701163
  C 3.175018 -0.168637 -0.747622
  C 4.540440 -0.485430 -0.883842
  C 5.165704 -1.169385 -1.949562
  H 5.002040 -2.073110 -2.561141
  O 5.809198 -0.068421 -2.409316
  H 4.120482 1.100592 1.584654
  H 3.637978 -0.525680 2.055293
  H 1.483932 0.408199 2.960721
  H 1.996366 2.026614 2.469608
  H 2.529344 -0.293875 -1.628447
  H 5.126085 -0.390294 0.009255
  H 6.740924 0.092885 -2.223911
 17
 66.502557
  H 1.629944 0.582955 0.321408
  C 2.674085 0.307517 0.347122
  C 3.337882 0.437631 1.674946
  C 2.406247 1.033014 2.723482
  H 2.917098 1.118292 3.683954
  C 3.221298 -0.141538 -0.784646
  C 4.622862 -0.557386 -0.888835
  C 5.122804 -1.349654 -1.955071
  H 5.096154 -2.164518 -2.634313
  O 5.358633 0.020541 -2.137666
  H 4.224146 1.075323 1.588865
  H 3.668348 -0.545953 2.013370
  H 1.530813 0.403968 2.863248
  H 2.071921 2.022471 2.426865
  H 2.633620 -0.223595 -1.687248
  H 5.201710 -0.466164 0.025750
  H 6.279712 0.339607 -1.954793
 17
 69.183958
  H 1.625160 0.597621 0.331190
  C 2.670772 0.323628 0.341068
  C 3.352621 0.442788 1.664316
  C 2.426221 1.012460 2.734223
  H 2.960264 1.135327 3.673427
  C 3.205133 -0.119846 -0.804406
  C 4.603154 -0.557620 -0.917108
  C 5.050790 -1.370779 -1.989027
  H 5.242396 -2.218932 -2.598570
  O 5.367925 -0.014595 -2.167781
  H 4.222682 1.097669 1.572023
  H 3.706064 -0.538098 1.990546
  H 1.581896 0.350989 2.908331
  H 2.044101 1.986694 2.435721
  H 2.615902 -0.170984 -1.705005
  H 5.191108 -0.492627 -0.007180
  H 6.248026 0.304180 -1.832086
