 29
 0.000000
  C 0.907794 0.048509 0.272038
  C 2.400436 0.057218 0.086396
  C 3.240912 -0.013524 1.354424
  C 2.523692 -0.087638 2.699641
  H 3.235316 -0.132994 3.511756
  C 2.994107 0.126479 -1.122481
  C 2.352309 0.204659 -2.495200
  C 0.841125 0.216699 -2.715250
  C 0.521040 0.301777 -4.205140
  C 4.453433 0.131814 -1.210686
  C 5.193085 0.195338 -2.319570
  O 6.552985 0.196601 -2.335658
  H 0.607928 -0.014165 1.312702
  H 0.462346 -0.814868 -0.215712
  H 0.463194 0.965272 -0.108139
  H 3.887654 0.869824 1.384555
  H 3.886673 -0.895541 1.286741
  H 1.892383 -0.975465 2.745474
  H 1.893332 0.790381 2.843227
  H 2.741664 -0.643369 -3.069584
  H 2.741061 1.112869 -2.969205
  H 0.387638 1.076923 -2.224530
  H 0.388271 -0.694206 -2.325856
  H 0.931208 1.211047 -4.640535
  H -0.556577 0.310004 -4.355935
  H 0.931851 -0.551633 -4.741340
  H 4.999684 0.078687 -0.279455
  H 4.815473 0.252840 -3.327083
  H 6.883445 0.144880 -1.429220
 29
 3.812452
  C 0.902027 0.022726 0.293078
  C 2.370065 0.050311 0.098372
  C 3.238423 -0.028220 1.352308
  C 2.535422 -0.080362 2.701859
  H 3.285728 -0.132342 3.486818
  C 2.967702 0.123508 -1.112466
  C 2.329966 0.204919 -2.492097
  C 0.819322 0.207162 -2.728508
  C 0.536003 0.298676 -4.225927
  C 4.425261 0.138490 -1.202521
  C 5.167671 0.209082 -2.309268
  O 6.525790 0.213241 -2.317139
  H 0.596413 -0.006197 1.327018
  H 0.410787 -0.788095 -0.226483
  H 0.674367 0.958991 -0.133540
  H 3.902143 0.839846 1.368992
  H 3.867339 -0.919737 1.281024
  H 1.900374 -0.959253 2.787692
  H 1.933165 0.809556 2.872190
  H 2.735065 -0.637437 -3.063740
  H 2.723311 1.117273 -2.954459
  H 0.348574 1.058666 -2.239615
  H 0.368229 -0.708092 -2.350415
  H 0.954611 1.213081 -4.641628
  H -0.536159 0.299733 -4.410131
  H 0.972018 -0.547905 -4.752444
  H 4.974976 0.083048 -0.273743
  H 4.792813 0.269103 -3.317055
  H 6.855036 0.158655 -1.411194
 29
 11.130024
  C 0.909908 0.034614 0.266226
  C 2.379891 0.043769 0.091042
  C 3.223831 -0.056881 1.349306
  C 2.484758 -0.079664 2.673667
  H 3.225887 -0.152969 3.495013
  C 2.986100 0.119748 -1.112286
  C 2.337509 0.205816 -2.479227
  C 0.823869 0.173508 -2.687999
  C 0.509997 0.279532 -4.178371
  C 4.447591 0.146439 -1.210534
  C 5.186300 0.232469 -2.322458
  O 6.548072 0.241681 -2.335702
  H 0.572893 0.039686 1.274380
  H 0.387589 -0.702017 -0.300613
  H 0.917144 1.007042 -0.179907
  H 3.914182 0.785495 1.380966
  H 3.819914 -0.970381 1.292558
  H 1.827530 -0.933193 2.745697
  H 1.913915 0.825059 2.823619
  H 2.751664 -0.621111 -3.063636
  H 2.705218 1.131192 -2.933795
  H 0.337853 1.001685 -2.175715
  H 0.406591 -0.760486 -2.316041
  H 0.896094 1.210666 -4.586780
  H -0.564073 0.253507 -4.343386
  H 0.960049 -0.545312 -4.725385
  H 5.003129 0.080113 -0.289094
  H 4.807623 0.304006 -3.328122
  H 6.883933 0.176258 -1.424115
 29
 21.680897
  C 0.881949 0.026036 0.293287
  C 2.372362 0.039521 0.095527
  C 3.231337 -0.061031 1.347610
  C 2.504813 -0.072355 2.686114
  H 3.234432 -0.145315 3.478432
  C 2.974937 0.116742 -1.112987
  C 2.330317 0.207245 -2.484645
  C 0.821307 0.160733 -2.706882
  C 0.520176 0.280677 -4.198224
  C 4.435020 0.144462 -1.206576
  C 5.174001 0.239062 -2.316755
  O 6.533902 0.251153 -2.328629
  H 0.536701 0.053307 1.309680
  H 0.325944 -0.680253 -0.291587
  H 1.061903 0.975466 -0.153756
  H 3.932094 0.776506 1.367795
  H 3.818646 -0.979831 1.284977
  H 1.838206 -0.929212 2.771339
  H 1.939253 0.845781 2.840770
  H 2.756577 -0.610749 -3.074528
  H 2.692473 1.140971 -2.930704
  H 0.319071 0.978536 -2.188671
  H 0.411902 -0.784788 -2.350467
  H 0.898814 1.221602 -4.592525
  H -0.552772 0.243635 -4.372852
  H 0.985564 -0.532610 -4.751502
  H 4.988254 0.070837 -0.282546
  H 4.796455 0.318733 -3.321618
  H 6.867121 0.178664 -1.417202
 29
 31.762124
  C 0.874237 0.005197 0.298105
  C 2.370799 0.038269 0.087832
  C 3.226843 -0.061466 1.353242
  C 2.500536 -0.062513 2.694188
  H 3.246098 -0.137693 3.500638
  C 2.979234 0.116293 -1.120956
  C 2.334049 0.209383 -2.495913
  C 0.820871 0.157479 -2.712188
  C 0.511615 0.283050 -4.202666
  C 4.432307 0.145566 -1.207425
  C 5.175182 0.244356 -2.313843
  O 6.538808 0.255181 -2.320860
  H 0.516587 0.042363 1.303220
  H 0.297510 -0.678078 -0.295842
  H 1.186097 0.949695 -0.156110
  H 3.935382 0.772947 1.371755
  H 3.809672 -0.986909 1.295801
  H 1.831806 -0.910677 2.783980
  H 1.942201 0.855249 2.845211
  H 2.762885 -0.604804 -3.090113
  H 2.692226 1.145883 -2.939903
  H 0.317860 0.969620 -2.187520
  H 0.418178 -0.790227 -2.358325
  H 0.884228 1.227291 -4.594133
  H -0.561746 0.242045 -4.372927
  H 0.977982 -0.525267 -4.761445
  H 4.982827 0.068405 -0.278662
  H 4.800539 0.327926 -3.320417
  H 6.864325 0.179361 -1.421605
 29
 40.382976
  C 0.859924 -0.009923 0.296356
  C 2.364096 0.042294 0.085211
  C 3.222193 -0.046168 1.342461
  C 2.493049 -0.049628 2.674663
  H 3.223408 -0.117421 3.472036
  C 2.985510 0.110789 -1.122684
  C 2.339736 0.205283 -2.492623
  C 0.829844 0.140447 -2.699994
  C 0.508770 0.286034 -4.184306
  C 4.438241 0.136203 -1.208712
  C 5.182374 0.248296 -2.318035
  O 6.537678 0.251370 -2.324091
  H 0.515211 0.012497 1.312843
  H 0.279322 -0.632435 -0.352474
  H 1.279895 0.934475 -0.101459
  H 3.924951 0.788929 1.361737
  H 3.800779 -0.967067 1.282508
  H 1.827883 -0.903335 2.762385
  H 1.926673 0.866097 2.821296
  H 2.773217 -0.597588 -3.096002
  H 2.686275 1.147779 -2.931127
  H 0.321366 0.939096 -2.156895
  H 0.442511 -0.819917 -2.359866
  H 0.867505 1.240968 -4.562669
  H -0.564752 0.234682 -4.348069
  H 0.981490 -0.507521 -4.758916
  H 4.992720 0.041668 -0.284333
  H 4.809938 0.351619 -3.319861
  H 6.863139 0.155126 -1.415701
 29
 47.045005
  C 0.856656 -0.033543 0.310486
  C 2.351613 0.038634 0.081063
  C 3.212232 -0.036768 1.338732
  C 2.497686 -0.034649 2.680987
  H 3.237426 -0.090868 3.466023
  C 2.980311 0.103879 -1.127338
  C 2.340654 0.202707 -2.501370
  C 0.831602 0.134561 -2.711408
  C 0.510759 0.293719 -4.194743
  C 4.428701 0.127474 -1.206673
  C 5.173502 0.248630 -2.311247
  O 6.548262 0.250306 -2.315796
  H 0.529104 -0.032452 1.324739
  H 0.267944 -0.607612 -0.360208
  H 1.348599 0.913725 -0.049458
  H 3.911887 0.801960 1.346730
  H 3.794147 -0.956249 1.279484
  H 1.838767 -0.895098 2.786168
  H 1.925781 0.881197 2.829946
  H 2.779177 -0.595501 -3.108577
  H 2.685074 1.149718 -2.934233
  H 0.320677 0.926864 -2.160670
  H 0.448308 -0.831348 -2.381941
  H 0.866292 1.254061 -4.563291
  H -0.562978 0.239940 -4.360098
  H 0.987101 -0.492642 -4.776831
  H 4.980635 0.022243 -0.284630
  H 4.798900 0.364404 -3.317058
  H 6.872208 0.144014 -1.412737
 29
 52.082939
  C 0.860288 -0.052434 0.312903
  C 2.347111 0.035644 0.077447
  C 3.209460 -0.029733 1.345814
  C 2.490478 -0.019836 2.693898
  H 3.240130 -0.065425 3.487980
  C 2.983392 0.096510 -1.132705
  C 2.346183 0.198915 -2.507436
  C 0.835159 0.126246 -2.717398
  C 0.511654 0.300973 -4.199222
  C 4.434328 0.121191 -1.211585
  C 5.177468 0.252745 -2.319230
  O 6.533300 0.249973 -2.326151
  H 0.534392 -0.073980 1.323968
  H 0.251289 -0.578926 -0.389885
  H 1.413084 0.901744 -0.005986
  H 3.908732 0.810911 1.348358
  H 3.795819 -0.951164 1.293344
  H 1.837687 -0.881701 2.808229
  H 1.913556 0.892165 2.835676
  H 2.790083 -0.593218 -3.119856
  H 2.687053 1.149800 -2.935434
  H 0.322797 0.909639 -2.157687
  H 0.456477 -0.845713 -2.398726
  H 0.862730 1.266769 -4.557140
  H -0.562042 0.244341 -4.364382
  H 0.990954 -0.476498 -4.790260
  H 4.989657 0.004565 -0.290377
  H 4.803695 0.380338 -3.317235
  H 6.854410 0.131598 -1.428604
 29
 55.430652
  C 0.857490 -0.082035 0.326918
  C 2.344053 0.029670 0.081025
  C 3.209297 -0.018630 1.341790
  C 2.497791 -0.002156 2.685890
  H 3.244250 -0.028616 3.471647
  C 2.980992 0.086667 -1.135672
  C 2.349140 0.193557 -2.507333
  C 0.841876 0.122223 -2.722578
  C 0.523053 0.311980 -4.202227
  C 4.419337 0.111893 -1.212040
  C 5.162868 0.253037 -2.316859
  O 6.536188 0.247936 -2.323100
  H 0.534319 -0.132412 1.342917
  H 0.236622 -0.552244 -0.396043
  H 1.457588 0.885086 0.045917
  H 3.899470 0.825136 1.333220
  H 3.801604 -0.932661 1.295095
  H 1.857185 -0.870878 2.812548
  H 1.910155 0.903304 2.818324
  H 2.795128 -0.593737 -3.121307
  H 2.689189 1.145472 -2.929087
  H 0.328471 0.900270 -2.156673
  H 0.463070 -0.853205 -2.415366
  H 0.874904 1.281652 -4.549006
  H -0.549758 0.256534 -4.371185
  H 1.004780 -0.459350 -4.799744
  H 4.972550 -0.015343 -0.293991
  H 4.785386 0.393508 -3.321888
  H 6.858745 0.118195 -1.423600
 29
 58.339767
  C 0.857566 -0.105576 0.310893
  C 2.343977 0.028731 0.072865
  C 3.211796 -0.010489 1.332378
  C 2.507017 0.011714 2.686840
  H 3.261192 -0.000049 3.469370
  C 2.985769 0.082642 -1.144164
  C 2.340924 0.192182 -2.523867
  C 0.826634 0.122048 -2.724958
  C 0.489828 0.317733 -4.202584
  C 4.443337 0.107349 -1.206559
  C 5.207384 0.255475 -2.297310
  O 6.571694 0.244436 -2.277805
  H 0.525470 -0.183743 1.314636
  H 0.234461 -0.524565 -0.438525
  H 1.499744 0.875031 0.071487
  H 3.900242 0.840177 1.313049
  H 3.810963 -0.925415 1.287971
  H 1.874783 -0.864943 2.827993
  H 1.909675 0.915183 2.815967
  H 2.781765 -0.596559 -3.143782
  H 2.677201 1.147052 -2.949028
  H 0.319958 0.899548 -2.150030
  H 0.450057 -0.855555 -2.416325
  H 0.837991 1.288390 -4.550031
  H -0.585950 0.263277 -4.359712
  H 0.964222 -0.451535 -4.808438
  H 4.984290 -0.027911 -0.282625
  H 4.855103 0.405323 -3.296306
  H 6.874440 0.104482 -1.374795
 29
 60.761565
  C 0.858972 -0.131754 0.325231
  C 2.343418 0.028772 0.080243
  C 3.214267 -0.002367 1.343846
  C 2.500948 0.023999 2.694699
  H 3.254414 0.027029 3.487585
  C 2.985393 0.078499 -1.144554
  C 2.350324 0.188694 -2.518092
  C 0.846490 0.125026 -2.729268
  C 0.524314 0.326196 -4.204520
  C 4.423254 0.103554 -1.215602
  C 5.174945 0.257690 -2.316818
  O 6.536514 0.245102 -2.313565
  H 0.524482 -0.228351 1.337105
  H 0.222375 -0.507795 -0.441399
  H 1.531022 0.863516 0.108987
  H 3.894265 0.848063 1.321583
  H 3.819132 -0.914521 1.307157
  H 1.880007 -0.852816 2.838253
  H 1.895728 0.915908 2.811031
  H 2.790909 -0.596460 -3.132940
  H 2.689983 1.136808 -2.939142
  H 0.341717 0.899436 -2.159380
  H 0.464282 -0.850658 -2.427468
  H 0.879028 1.295590 -4.545283
  H -0.548851 0.276448 -4.370578
  H 1.000638 -0.442438 -4.807796
  H 4.969024 -0.037201 -0.305246
  H 4.804097 0.416812 -3.324669
  H 6.850021 0.098383 -1.412996
 29
 62.900600
  C 0.862728 -0.160095 0.328448
  C 2.348740 0.031016 0.084231
  C 3.218763 0.006129 1.346858
  C 2.508374 0.035757 2.685582
  H 3.255086 0.051992 3.473938
  C 2.993040 0.075923 -1.144024
  C 2.354022 0.187463 -2.520797
  C 0.833840 0.127335 -2.730981
  C 0.503393 0.335175 -4.217094
  C 4.436439 0.101492 -1.210514
  C 5.191474 0.258033 -2.305656
  O 6.563075 0.241983 -2.297834
  H 0.527010 -0.265432 1.327476
  H 0.219578 -0.500174 -0.453960
  H 1.560532 0.855457 0.130402
  H 3.893704 0.858717 1.321606
  H 3.824345 -0.898416 1.316613
  H 1.895405 -0.846436 2.833959
  H 1.894420 0.922708 2.792778
  H 2.795106 -0.601664 -3.139335
  H 2.696949 1.138590 -2.944182
  H 0.327350 0.910336 -2.150967
  H 0.447688 -0.854632 -2.428926
  H 0.859864 1.308445 -4.558306
  H -0.573774 0.288027 -4.380484
  H 0.977512 -0.435618 -4.827403
  H 4.989135 -0.047956 -0.283086
  H 4.830074 0.420066 -3.298920
  H 6.872963 0.090703 -1.399523
 29
 64.947612
  C 0.858711 -0.196252 0.336672
  C 2.340309 0.029363 0.082235
  C 3.220238 0.014726 1.344453
  C 2.510298 0.049021 2.691232
  H 3.264209 0.080458 3.481911
  C 2.984283 0.071528 -1.150472
  C 2.350573 0.185997 -2.522028
  C 0.846276 0.132490 -2.737523
  C 0.529725 0.346436 -4.212022
  C 4.425705 0.100090 -1.218499
  C 5.179847 0.258299 -2.314613
  O 6.548228 0.238129 -2.308795
  H 0.522738 -0.300632 1.346503
  H 0.212628 -0.508370 -0.443530
  H 1.572995 0.843539 0.140443
  H 3.897258 0.880516 1.310248
  H 3.833165 -0.888927 1.318248
  H 1.905595 -0.839580 2.849804
  H 1.884152 0.933323 2.792640
  H 2.789890 -0.599308 -3.137509
  H 2.697104 1.135176 -2.942162
  H 0.341269 0.913118 -2.159112
  H 0.457773 -0.842797 -2.445213
  H 0.890133 1.314381 -4.543822
  H -0.540939 0.304020 -4.381789
  H 1.002571 -0.418657 -4.818093
  H 4.975432 -0.051277 -0.300857
  H 4.817130 0.421241 -3.306706
  H 6.859179 0.083742 -1.409085
 29
 66.874815
  C 0.865551 -0.233138 0.342934
  C 2.342358 0.024837 0.086700
  C 3.225163 0.020055 1.341919
  C 2.519746 0.067281 2.688088
  H 3.271221 0.113183 3.473829
  C 2.988669 0.058019 -1.151459
  C 2.355422 0.178518 -2.520696
  C 0.844434 0.141418 -2.735710
  C 0.525412 0.364464 -4.219097
  C 4.428080 0.081277 -1.214867
  C 5.188893 0.244905 -2.307107
  O 6.555207 0.260310 -2.286588
  H 0.527945 -0.325100 1.344581
  H 0.207966 -0.522863 -0.448437
  H 1.596189 0.833159 0.147723
  H 3.898577 0.882827 1.295985
  H 3.837536 -0.881763 1.321660
  H 1.923299 -0.819037 2.858465
  H 1.890898 0.945127 2.778893
  H 2.787081 -0.614201 -3.138345
  H 2.712459 1.127061 -2.942374
  H 0.348388 0.927352 -2.153661
  H 0.444618 -0.835117 -2.444735
  H 0.897205 1.335273 -4.551035
  H -0.552326 0.333312 -4.388328
  H 0.992060 -0.408347 -4.831955
  H 4.972407 -0.063854 -0.296092
  H 4.827734 0.418372 -3.312044
  H 6.860035 0.114279 -1.383257
