18

C -3.512866 0.974113 -0.125079
C -2.063498 0.598975 -0.041088
C -1.64625 -0.460062 0.629964
C -0.237184 -0.934317 0.796199
C 0.814879 -0.076355 0.104652
C 2.22361 -0.615777 0.343975
H 2.5456568245619873 -0.3671043516691622 0.1219149539237443
H -4.10164 0.145739 -0.522599
H -3.660833 1.847087 -0.752823
H -3.893311 1.191897 0.874506
H -1.366453 1.247676 -0.552373
H -2.389728 -1.074119 1.129143
H -0.014825 -0.983486 1.868707
H -0.176179 -1.957483 0.409838
H 0.613335 -0.058517 -0.968846
H 0.755844 0.945327 0.483009
H 2.422416 -0.592739 1.421014
H 2.266071 -1.659907 0.029133
