9

H -3.509222 0.977943 -0.131761
C -2.064824 0.585656 -0.033075
C -1.649005 -0.466622 0.643589
C -0.235124 -0.940397 0.802164
H 0.45718161611878727 -0.25863953837896436 0.2864899775648684
H -1.364255 1.223646 -0.54978
H -2.381081 -1.085421 1.148786
H -0.006046 -1.000975 1.87089
H -0.175662 -1.95959 0.402533
