 23
 0.000000
  H 1.409334 0.149728 0.425521
  C 2.488774 0.140519 0.401426
  C 3.234078 0.611807 1.572363
  H 2.602309 0.939909 2.389180
  C 3.073129 -0.326484 -0.760925
  C 4.450166 -0.413043 -0.977169
  C 5.123545 -0.867952 -2.111671
  C 4.613985 -1.387510 -3.407341
  C 3.122818 -1.503683 -3.697647
  C 2.908845 -2.066354 -5.100802
  O 6.438332 -0.865654 -2.106629
  H 3.889110 1.437174 1.283737
  H 3.890043 -0.182874 1.935268
  H 2.411131 -0.642325 -1.547201
  H 5.080827 -0.084586 -0.159109
  H 5.071655 -2.375461 -3.536433
  H 5.072014 -0.762724 -4.183296
  H 2.647065 -0.523723 -3.646212
  H 2.646767 -2.176433 -2.983420
  H 3.351170 -1.418179 -5.853528
  H 1.846158 -2.151157 -5.312734
  H 3.350965 -3.055111 -5.197069
  H 6.840359 -0.534710 -1.279921
 23
 -0.144156
  H 1.441934 -0.071168 0.548397
  C 2.509183 0.036141 0.434875
  C 3.228879 0.752244 1.495555
  H 2.555638 1.090256 2.276140
  C 3.073785 -0.499892 -0.703394
  C 4.446282 -0.474213 -0.964022
  C 5.132360 -0.942033 -2.086917
  C 4.615438 -1.417807 -3.395694
  C 3.122865 -1.511896 -3.684162
  C 2.904361 -1.946193 -5.130858
  O 6.444191 -0.977042 -2.063756
  H 3.761214 1.613667 1.089187
  H 3.993832 0.113892 1.941801
  H 2.412695 -0.985839 -1.399938
  H 5.071773 -0.062674 -0.180751
  H 5.079346 -2.394935 -3.577845
  H 5.074453 -0.761820 -4.145696
  H 2.643830 -0.541894 -3.537565
  H 2.655102 -2.251897 -3.033930
  H 3.337132 -1.230095 -5.822728
  H 1.842260 -2.020793 -5.345706
  H 3.354309 -2.917562 -5.318263
  H 6.857400 -0.654890 -1.242697
 23
 0.441007
  H 1.598228 -0.703262 0.754071
  C 2.575540 -0.311211 0.510617
  C 3.089736 0.783327 1.339475
  H 2.385574 1.062748 2.115847
  C 3.218599 -0.849772 -0.581837
  C 4.533369 -0.538717 -0.940931
  C 5.204073 -0.909116 -2.108011
  C 4.633498 -1.333585 -3.411669
  C 3.133338 -1.524185 -3.599191
  C 2.819338 -1.735879 -5.077287
  O 6.509767 -0.822638 -2.170460
  H 3.314725 1.659626 0.729240
  H 4.035919 0.498462 1.806081
  H 2.699991 -1.607640 -1.146430
  H 5.121347 -0.000089 -0.207902
  H 5.161075 -2.244362 -3.717405
  H 4.976644 -0.575400 -4.127075
  H 2.591271 -0.646601 -3.247684
  H 2.787571 -2.401482 -3.053131
  H 3.118116 -0.872782 -5.668396
  H 1.751860 -1.886633 -5.218458
  H 3.336576 -2.610716 -5.463604
  H 6.947802 -0.491387 -1.362764
 23
 2.537886
  H 1.686113 -0.926647 0.729347
  C 2.610015 -0.453841 0.438993
  C 2.929412 0.851256 1.031655
  H 2.178595 1.162258 1.750097
  C 3.385282 -1.080928 -0.497718
  C 4.682854 -0.682631 -0.867561
  C 5.304039 -0.955440 -2.081863
  C 4.645095 -1.288441 -3.374614
  C 3.143037 -1.509804 -3.457222
  C 2.703106 -1.560165 -4.920504
  O 6.603639 -0.853629 -2.227354
  H 3.019248 1.618934 0.259197
  H 3.905450 0.815728 1.519119
  H 3.034045 -2.006618 -0.932565
  H 5.280203 -0.179916 -0.112153
  H 5.171147 -2.152213 -3.798622
  H 4.907883 -0.459830 -4.045032
  H 2.613017 -0.705045 -2.957933
  H 2.866699 -2.457959 -2.986102
  H 2.913813 -0.620662 -5.425733
  H 1.629685 -1.746163 -4.987564
  H 3.217177 -2.357326 -5.454135
  H 7.090045 -0.551427 -1.436172
 23
 5.083095
  H 1.754205 -1.012095 0.796073
  C 2.639261 -0.523112 0.416452
  C 2.866466 0.878243 0.795062
  H 2.132669 1.226141 1.513804
  C 3.424250 -1.194723 -0.473275
  C 4.747502 -0.835623 -0.828807
  C 5.345545 -0.955871 -2.073788
  C 4.654269 -1.189248 -3.368442
  C 3.153511 -1.439023 -3.390275
  C 2.647263 -1.485049 -4.829426
  O 6.637316 -0.780546 -2.232372
  H 2.834051 1.528736 -0.080190
  H 3.871373 0.994692 1.207047
  H 3.127285 -2.194220 -0.771367
  H 5.359668 -0.426943 -0.030569
  H 5.169603 -2.018548 -3.866767
  H 4.883799 -0.316362 -3.991940
  H 2.629411 -0.644407 -2.855997
  H 2.917698 -2.388538 -2.911829
  H 2.815008 -0.536350 -5.333928
  H 1.580708 -1.692140 -4.848212
  H 3.151243 -2.265471 -5.394369
  H 7.139990 -0.616586 -1.412082
 23
 11.274550
  H 1.809664 -1.084038 0.850053
  C 2.630249 -0.561896 0.380682
  C 2.710180 0.900457 0.564477
  H 1.949799 1.259565 1.249700
  C 3.458545 -1.237795 -0.443780
  C 4.823513 -0.984118 -0.776249
  C 5.395389 -1.052695 -2.032434
  C 4.668847 -1.183817 -3.322320
  C 3.155579 -1.342954 -3.304961
  C 2.604769 -1.347194 -4.728029
  O 6.697142 -0.961059 -2.201241
  H 2.596929 1.423907 -0.384392
  H 3.700774 1.164497 0.940349
  H 3.291935 -2.306663 -0.601931
  H 5.467092 -0.709146 0.052896
  H 5.118294 -2.024909 -3.862254
  H 4.936123 -0.303286 -3.919082
  H 2.696555 -0.520916 -2.752827
  H 2.875236 -2.278030 -2.822460
  H 2.812457 -0.405757 -5.231175
  H 1.527827 -1.492104 -4.715824
  H 3.045662 -2.150515 -5.313190
  H 7.217530 -0.868738 -1.381416
 23
 21.647991
  H 2.114810 -1.282058 0.966212
  C 2.750725 -0.606889 0.412621
  C 2.478934 0.845536 0.567314
  H 1.705138 1.023577 1.306337
  C 3.638763 -1.101169 -0.450931
  C 5.000278 -0.946780 -0.848940
  C 5.491167 -1.030900 -2.137707
  C 4.691143 -1.176429 -3.381173
  C 3.178136 -1.293370 -3.258435
  C 2.535768 -1.350257 -4.641523
  O 6.788359 -0.983336 -2.371062
  H 2.162114 1.285061 -0.376885
  H 3.392880 1.359158 0.866250
  H 3.684880 -2.212198 -0.502232
  H 5.697074 -0.699752 -0.053951
  H 5.085652 -2.042387 -3.924012
  H 4.938540 -0.317045 -4.015625
  H 2.779109 -0.431766 -2.720755
  H 2.907212 -2.196910 -2.713520
  H 2.734649 -0.440063 -5.202550
  H 1.458544 -1.463658 -4.554307
  H 2.917897 -2.192601 -5.213198
  H 7.347562 -0.879966 -1.580091
 23
 34.095200
  H 2.283668 -1.393877 0.926569
  C 2.817793 -0.617856 0.398130
  C 2.283939 0.772296 0.566065
  H 1.456446 0.784509 1.267324
  C 3.808108 -0.932015 -0.404408
  C 5.146187 -0.922100 -0.902313
  C 5.552947 -1.014591 -2.225391
  C 4.682371 -1.171164 -3.418263
  C 3.176922 -1.254935 -3.199925
  C 2.451608 -1.345196 -4.539408
  O 6.838807 -1.012026 -2.527420
  H 1.937469 1.167461 -0.386776
  H 3.069055 1.432671 0.928901
  H 4.089527 -2.052524 -0.414349
  H 5.908155 -0.714095 -0.157700
  H 5.028773 -2.056132 -3.963560
  H 4.902867 -0.329712 -4.085258
  H 2.826625 -0.367960 -2.670898
  H 2.924254 -2.136121 -2.610216
  H 2.631781 -0.457377 -5.140988
  H 1.379715 -1.435772 -4.384783
  H 2.785170 -2.212266 -5.104605
  H 7.438913 -0.890747 -1.771556
 23
 43.329622
  H 2.222723 -1.388827 0.773694
  C 2.796683 -0.586592 0.328658
  C 2.215053 0.786867 0.494467
  H 1.309773 0.746932 1.089569
  C 3.880277 -0.841037 -0.341132
  C 5.175879 -0.998548 -0.873787
  C 5.568471 -1.076120 -2.211685
  C 4.683316 -1.196358 -3.398439
  C 3.178534 -1.241108 -3.156343
  C 2.431178 -1.304757 -4.485059
  O 6.865780 -1.123416 -2.524032
  H 1.978432 1.217731 -0.475640
  H 2.932151 1.443237 0.982294
  H 4.368315 -1.986331 -0.405895
  H 5.971981 -0.822527 -0.157686
  H 4.997450 -2.085997 -3.955299
  H 4.914985 -0.354793 -4.061025
  H 2.860154 -0.347139 -2.618244
  H 2.911724 -2.119175 -2.567622
  H 2.626131 -0.418034 -5.084069
  H 1.359557 -1.368657 -4.315480
  H 2.734581 -2.176935 -5.060464
  H 7.474329 -1.009800 -1.767981
 23
 46.096100
  H 2.203092 -1.416592 0.705535
  C 2.803949 -0.602204 0.313737
  C 2.213684 0.770877 0.511038
  H 1.281063 0.703916 1.059504
  C 3.910866 -0.830977 -0.303075
  C 5.200901 -1.020556 -0.859947
  C 5.558785 -1.019625 -2.242332
  C 4.643219 -1.135009 -3.407466
  C 3.152441 -1.294212 -3.130037
  C 2.374389 -1.338815 -4.441823
  O 6.842220 -0.981239 -2.588182
  H 2.025439 1.242072 -0.450708
  H 2.906448 1.401735 1.061917
  H 4.687945 -2.043002 -0.536978
  H 6.016385 -0.808012 -0.170312
  H 4.996717 -1.971571 -4.021124
  H 4.796447 -0.245930 -4.030549
  H 2.790319 -0.454649 -2.538274
  H 2.961948 -2.218099 -2.583284
  H 2.492998 -0.410484 -4.995787
  H 1.314478 -1.484888 -4.250466
  H 2.719589 -2.156005 -5.071202
  H 7.459984 -0.861358 -1.847023
 23
 43.156262
  H 2.285740 -1.353218 0.696422
  C 2.859400 -0.516136 0.305932
  C 2.220386 0.833319 0.533456
  H 1.297860 0.722839 1.091679
  C 3.962464 -0.706917 -0.322325
  C 5.241765 -1.006641 -0.881449
  C 5.564769 -1.008590 -2.297053
  C 4.611380 -1.148557 -3.423617
  C 3.134735 -1.359827 -3.097900
  C 2.316970 -1.432261 -4.387707
  O 6.824880 -0.952016 -2.676125
  H 2.003115 1.311354 -0.418984
  H 2.897294 1.479548 1.087142
  H 4.923168 -2.054334 -0.622986
  H 6.070221 -0.731469 -0.226713
  H 4.970257 -1.970410 -4.054729
  H 4.713434 -0.252489 -4.048039
  H 2.760879 -0.533380 -2.493392
  H 2.995393 -2.290291 -2.544921
  H 2.385606 -0.499319 -4.944965
  H 1.267467 -1.615591 -4.163146
  H 2.670633 -2.237715 -5.028780
  H 7.466630 -0.818168 -1.957309
 23
 39.755382
  H 2.216944 -1.262905 0.671712
  C 2.849888 -0.455647 0.302043
  C 2.294902 0.927531 0.566511
  H 1.369086 0.860776 1.126562
  C 3.931711 -0.711527 -0.335650
  C 5.201730 -1.065262 -0.879873
  C 5.538842 -0.973623 -2.308299
  C 4.590429 -1.103597 -3.435534
  C 3.140445 -1.452391 -3.118548
  C 2.325581 -1.521157 -4.404297
  O 6.795017 -0.871503 -2.672919
  H 2.104379 1.440183 -0.372080
  H 3.011743 1.515580 1.132518
  H 5.071342 -2.160295 -0.736385
  H 6.016302 -0.746921 -0.222720
  H 5.004678 -1.847645 -4.127007
  H 4.617518 -0.159688 -3.995099
  H 2.703534 -0.697879 -2.467186
  H 3.084721 -2.419523 -2.617404
  H 2.314445 -0.558124 -4.909446
  H 1.298111 -1.800076 -4.187325
  H 2.738020 -2.259853 -5.088388
  H 7.438131 -0.749550 -1.949179
 23
 38.975035
  H 2.141836 -1.260679 0.640557
  C 2.796025 -0.457300 0.300980
  C 2.263796 0.925982 0.598084
  H 1.333026 0.861964 1.150104
  C 3.881765 -0.721283 -0.326597
  C 5.133004 -1.158882 -0.842194
  C 5.519514 -1.015303 -2.258348
  C 4.598652 -1.074319 -3.412633
  C 3.140946 -1.437965 -3.147794
  C 2.355441 -1.444338 -4.455471
  O 6.784225 -0.957585 -2.580687
  H 2.088399 1.466156 -0.329048
  H 2.986750 1.487231 1.184384
  H 5.010241 -2.260325 -0.775097
  H 5.941360 -0.885706 -0.157216
  H 5.027755 -1.774147 -4.139278
  H 4.638464 -0.097716 -3.911733
  H 2.687769 -0.717616 -2.469640
  H 3.075964 -2.428129 -2.695415
  H 2.355873 -0.458423 -4.914261
  H 1.322899 -1.731980 -4.275510
  H 2.782743 -2.150204 -5.164149
  H 7.411887 -0.874093 -1.837340
 23
 38.715307
  H 2.160931 -1.256595 0.615503
  C 2.800271 -0.432945 0.294643
  C 2.236427 0.931466 0.612810
  H 1.305078 0.838270 1.159463
  C 3.899841 -0.664246 -0.322181
  C 5.131693 -1.158244 -0.838331
  C 5.519525 -1.029843 -2.256396
  C 4.595386 -1.074957 -3.407809
  C 3.136716 -1.433114 -3.140805
  C 2.349079 -1.435455 -4.447043
  O 6.783814 -1.014274 -2.580556
  H 2.052524 1.482951 -0.305982
  H 2.943592 1.499648 1.211527
  H 4.993422 -2.257016 -0.777762
  H 5.951458 -0.901346 -0.159360
  H 5.019050 -1.769334 -4.142356
  H 4.637410 -0.093411 -3.897192
  H 2.687422 -0.712428 -2.460662
  H 3.069491 -2.423485 -2.689175
  H 2.353359 -0.449537 -4.905697
  H 1.315407 -1.718193 -4.265184
  H 2.771605 -2.143365 -5.156543
  H 7.416009 -0.931353 -1.840686
 23
 38.525921
  H 2.191882 -1.259367 0.557743
  C 2.814594 -0.409332 0.272239
  C 2.204844 0.927552 0.612232
  H 1.266107 0.794431 1.136398
  C 3.938435 -0.595895 -0.315678
  C 5.144427 -1.155041 -0.838269
  C 5.528318 -1.039998 -2.260154
  C 4.597346 -1.073778 -3.404692
  C 3.138860 -1.424446 -3.130135
  C 2.346937 -1.431442 -4.433172
  O 6.788486 -1.067941 -2.590079
  H 2.023096 1.496002 -0.296255
  H 2.881388 1.501881 1.239419
  H 5.007523 -2.253851 -0.779049
  H 5.979736 -0.903928 -0.171676
  H 5.012548 -1.764582 -4.146681
  H 4.640912 -0.088748 -3.887225
  H 2.694915 -0.699266 -2.451876
  H 3.070330 -2.411806 -2.672205
  H 2.355415 -0.448936 -4.899058
  H 1.311765 -1.706657 -4.245249
  H 2.762494 -2.147288 -5.139079
  H 7.429153 -0.984369 -1.857267
