 14
 0.000000
  C 0.996384 0.132972 0.381868
  C 2.475139 0.140018 0.399085
  H 3.027530 0.481638 1.249414
  C 3.096863 -0.322475 -0.752613
  C 4.472906 -0.413204 -0.978851
  C 5.132414 -0.867699 -2.111643
  H 4.763744 -1.241749 -3.043882
  O 6.457488 -0.870547 -2.119086
  H 0.547238 0.500715 1.297563
  H 0.632250 -0.881396 0.212641
  H 0.631990 0.748397 -0.441931
  H 2.436796 -0.639606 -1.542199
  H 5.100515 -0.083792 -0.158214
  H 6.834017 -0.535875 -1.285013
 14
 0.000000
  C 1.049100 0.120395 0.350530
  C 2.558027 0.125567 0.363081
  H 3.113700 0.466447 1.211567
  C 3.138233 -0.324414 -0.757450
  C 4.447262 -0.415260 -0.983974
  C 5.068703 -0.856229 -2.083059
  H 4.706536 -1.231160 -3.017491
  O 6.331002 -0.847142 -2.060764
  H 0.603495 0.488737 1.267713
  H 0.683049 -0.893485 0.182519
  H 0.682792 0.736307 -0.472055
  H 2.467385 -0.638388 -1.539175
  H 5.084174 -0.088331 -0.169532
  H 6.671815 -0.495647 -1.184769
 14
 0.000000
  C 1.099262 0.108003 0.319656
  C 2.641888 0.111480 0.327985
  H 3.200435 0.451708 1.174844
  C 3.182687 -0.326281 -0.762111
  C 4.424399 -0.417479 -0.989506
  C 5.008720 -0.845385 -2.056033
  H 4.652523 -1.221108 -2.992439
  O 6.207926 -0.825693 -2.007318
  H 0.656769 0.476869 1.238134
  H 0.731531 -0.905446 0.152717
  H 0.731277 0.724346 -0.501858
  H 2.500556 -0.636863 -1.535385
  H 5.071492 -0.093333 -0.182004
  H 6.509902 -0.455588 -1.084945
 14
 0.000000
  C 1.146644 0.095823 0.289306
  C 2.726699 0.097775 0.293844
  H 3.287732 0.437435 1.139287
  C 3.230177 -0.328093 -0.766633
  C 4.404600 -0.419743 -0.995148
  C 4.952701 -0.835096 -2.030392
  H 4.601725 -1.211502 -2.968495
  O 6.088695 -0.806230 -1.958818
  H 0.706851 0.465139 1.208900
  H 0.777460 -0.917252 0.123300
  H 0.777210 0.712539 -0.531276
  H 2.536336 -0.635053 -1.530888
  H 5.062732 -0.098691 -0.195364
  H 6.347929 -0.416018 -0.986341
 14
 0.000000
  C 1.190091 0.083996 0.259839
  C 2.812606 0.084635 0.261107
  H 3.375691 0.423823 1.105374
  C 3.280988 -0.329859 -0.771040
  C 4.388451 -0.422056 -1.000914
  C 4.901262 -0.825572 -2.006657
  H 4.554486 -1.202518 -2.946104
  O 5.974229 -0.789031 -1.915959
  H 0.752532 0.453682 1.180349
  H 0.819707 -0.928767 0.094607
  H 0.819462 0.701023 -0.559971
  H 2.574974 -0.632941 -1.525639
  H 5.058609 -0.104469 -0.209773
  H 6.186166 -0.376932 -0.888941
 14
 0.000000
  C 1.228424 0.072620 0.231496
  C 2.900302 0.072183 0.230087
  H 3.464980 0.411003 1.073437
  C 3.335718 -0.331594 -0.775373
  C 4.376549 -0.424429 -1.006829
  C 4.854788 -0.816977 -1.985239
  H 4.510887 -1.194290 -2.925595
  O 5.864846 -0.774283 -1.879210
  H 0.792604 0.442594 1.152715
  H 0.857109 -0.939900 0.066868
  H 0.856868 0.689890 -0.587711
  H 2.616959 -0.630490 -1.519545
  H 5.059928 -0.110769 -0.225483
  H 6.023847 -0.338104 -0.792185
 14
 0.000000
  C 1.259395 0.062046 0.205150
  C 2.988847 0.060829 0.201803
  H 3.554596 0.399401 1.044535
  C 3.393990 -0.333287 -0.779598
  C 4.369935 -0.426850 -1.012864
  C 4.814785 -0.809715 -1.967142
  H 4.472025 -1.187174 -2.907858
  O 5.763275 -0.762509 -1.849869
  H 0.824745 0.432213 1.126844
  H 0.887453 -0.950310 0.040929
  H 0.887218 0.679479 -0.613652
  H 2.662054 -0.627711 -1.512635
  H 5.067692 -0.117606 -0.242530
  H 5.863579 -0.300049 -0.697354
 14
 0.000000
  C 1.282021 0.052361 0.181021
  C 3.078489 0.050695 0.176558
  H 3.644775 0.389143 1.018979
  C 3.455910 -0.334932 -0.783704
  C 4.368975 -0.429273 -1.018904
  C 4.781452 -0.803847 -1.952517
  H 4.437873 -1.181205 -2.892976
  O 5.669816 -0.753690 -1.827891
  H 0.847959 0.422627 1.102953
  H 0.909763 -0.959912 0.017005
  H 0.909533 0.669877 -0.637577
  H 2.710363 -0.624577 -1.504840
  H 5.082309 -0.124991 -0.260946
  H 5.704645 -0.262738 -0.604379
 14
 0.000000
  C 1.294086 0.043854 0.159825
  C 3.168966 0.042139 0.155246
  H 3.735211 0.380596 0.997691
  C 3.521387 -0.336486 -0.787583
  C 4.374413 -0.431701 -1.024956
  C 4.755581 -0.799691 -1.942161
  H 4.408873 -1.176655 -2.881630
  O 5.585862 -0.748102 -1.813964
  H 0.859978 0.414114 1.081738
  H 0.921849 -0.968424 -0.004206
  H 0.921625 0.661365 -0.658789
  H 2.761825 -0.621033 -1.496023
  H 5.104560 -0.132994 -0.280901
  H 5.547828 -0.226210 -0.513358
 14
 0.000000
  C 1.293581 0.036815 0.142287
  C 3.259671 0.035518 0.138754
  H 3.825283 0.374122 0.981565
  C 3.589896 -0.337866 -0.791029
  C 4.386607 -0.434094 -1.030923
  C 4.737525 -0.797467 -1.936621
  H 4.385114 -1.173701 -2.874262
  O 5.512386 -0.745858 -1.808370
  H 0.858781 0.406963 1.063918
  H 0.921709 -0.975559 -0.021986
  H 0.921492 0.654229 -0.676570
  H 2.816000 -0.617000 -1.485988
  H 5.134731 -0.141616 -0.302401
  H 5.393730 -0.190571 -0.424553
 14
 0.000000
  C 1.278287 0.031537 0.129139
  C 3.349808 0.031230 0.128073
  H 3.914165 0.370124 0.971609
  C 3.660740 -0.338946 -0.793726
  C 4.405844 -0.436405 -1.036684
  C 4.727538 -0.797380 -1.936406
  H 4.366661 -1.172503 -2.871270
  O 5.450301 -0.747009 -1.811235
  H 0.842115 0.401464 1.050212
  H 0.907144 -0.981026 -0.035609
  H 0.906934 0.648762 -0.690194
  H 2.872328 -0.612381 -1.474491
  H 5.172956 -0.150827 -0.325367
  H 5.243303 -0.155867 -0.338079
 14
 0.000000
  C 1.244790 0.028634 0.121906
  C 3.438605 0.029874 0.124699
  H 4.001209 0.369172 0.969242
  C 3.733188 -0.339555 -0.795250
  C 4.432736 -0.438721 -1.042458
  C 4.725972 -0.799944 -1.942798
  H 4.353386 -1.173480 -2.873697
  O 5.400898 -0.751975 -1.823605
  H 0.806708 0.398247 1.042197
  H 0.874667 -0.984195 -0.043506
  H 0.874463 0.645593 -0.698090
  H 2.930088 -0.606987 -1.461062
  H 5.219830 -0.160787 -0.350202
  H 5.098957 -0.122098 -0.253935
 14
 0.000000
  C 1.225994 0.028660 0.121971
  C 3.467470 0.031118 0.127798
  H 4.028773 0.370715 0.973087
  C 3.757977 -0.338816 -0.793410
  C 4.444216 -0.438672 -1.042339
  C 4.728488 -0.800813 -1.944965
  H 4.351490 -1.173737 -2.874334
  O 5.388486 -0.753811 -1.828180
  H 0.786493 0.398040 1.041679
  H 0.856629 -0.984365 -0.043932
  H 0.856428 0.645423 -0.698517
  H 2.950253 -0.604308 -1.454391
  H 5.237977 -0.163378 -0.356665
  H 5.052092 -0.109520 -0.222597
 14
 0.000000
  C 1.119355 0.029367 0.123739
  C 3.627031 0.036008 0.139991
  H 4.184526 0.376475 0.987448
  C 3.891911 -0.338320 -0.792181
  C 4.506586 -0.442221 -1.051185
  C 4.736237 -0.810662 -1.969511
  H 4.328807 -1.179124 -2.887741
  O 5.315965 -0.770448 -1.869626
  H 0.675721 0.398063 1.041735
  H 0.752206 -0.984228 -0.043593
  H 0.752017 0.645560 -0.698177
  H 3.056150 -0.591460 -1.422396
  H 5.339767 -0.183611 -0.407110
  H 4.779007 -0.050501 -0.075545
