 20
 0.000000
  C 1.007392 -0.071894 0.047322
  C 2.503335 -0.082270 0.025661
  C 3.219516 -0.595335 -0.980286
  C 4.656915 -0.605818 -1.001250
  C 5.377726 -1.120688 -2.012817
  C 6.816046 -1.130976 -2.031771
  C 7.534498 -1.642074 -3.036421
  C 9.024416 -1.661991 -3.074208
  H 0.645928 0.395546 0.962222
  H 0.611703 -1.086727 0.010981
  H 0.610820 0.491876 -0.796804
  H 3.003563 0.354279 0.879948
  H 2.708837 -1.029336 -1.831175
  H 5.161201 -0.171114 -0.147282
  H 4.873771 -1.554581 -2.867161
  H 7.322534 -0.697327 -1.178334
  H 7.035833 -2.077488 -3.893296
  H 9.457907 -1.209645 -2.184073
  H 9.384097 -1.115659 -3.947491
  H 9.383360 -2.689760 -3.147216
 20
 0.789740
  C 1.007050 -0.145342 -0.040155
  C 2.494375 -0.037343 0.073811
  C 3.290088 -0.493205 -0.896504
  C 4.719533 -0.494787 -0.897464
  C 5.407114 -1.042613 -1.912635
  C 6.839226 -1.101821 -2.005051
  C 7.497708 -1.652009 -3.022373
  C 8.980092 -1.720927 -3.134007
  H 0.504922 0.201175 0.853712
  H 0.745104 -1.189875 -0.219755
  H 0.643405 0.431880 -0.885070
  H 2.906150 0.388082 0.972357
  H 2.827392 -0.928321 -1.772577
  H 5.227742 -0.057325 -0.053544
  H 4.829536 -1.474919 -2.722920
  H 7.393415 -0.663796 -1.182429
  H 6.944207 -2.089397 -3.843696
  H 9.459534 -1.261454 -2.272566
  H 9.315701 -1.210563 -4.037527
  H 9.306242 -2.759100 -3.206288
 20
 2.973108
  C 1.030829 -0.227432 -0.128441
  C 2.490101 -0.011452 0.112237
  C 3.347983 -0.396885 -0.832356
  C 4.771595 -0.382212 -0.819524
  C 5.424773 -0.970703 -1.837258
  C 6.846436 -1.069345 -1.983121
  C 7.450465 -1.668200 -3.008047
  C 8.925692 -1.778251 -3.175020
  H 0.429186 -0.043987 0.747764
  H 0.908287 -1.258105 -0.461361
  H 0.678571 0.413698 -0.928019
  H 2.815984 0.391741 1.056639
  H 2.920309 -0.821809 -1.731329
  H 5.288203 0.067089 0.012828
  H 4.790281 -1.406843 -2.593488
  H 7.442527 -0.619172 -1.195830
  H 6.851230 -2.116997 -3.792948
  H 9.450157 -1.304046 -2.347584
  H 9.237528 -1.305212 -4.107561
  H 9.223696 -2.826611 -3.226807
 20
 6.005846
  C 1.068704 -0.318260 -0.208015
  C 2.483882 0.001902 0.142177
  C 3.392921 -0.288875 -0.785397
  C 4.819655 -0.258970 -0.766379
  C 5.437370 -0.891137 -1.777554
  C 6.845536 -1.032013 -1.964389
  C 7.401957 -1.688408 -2.989185
  C 8.867686 -1.843556 -3.200383
  H 0.413407 -0.351173 0.645734
  H 1.097228 -1.287621 -0.713313
  H 0.677168 0.406935 -0.912407
  H 2.729326 0.367750 1.123611
  H 2.994708 -0.688103 -1.710621
  H 5.347827 0.201982 0.050177
  H 4.749649 -1.342423 -2.493082
  H 7.478681 -0.567407 -1.214476
  H 6.765596 -2.151733 -3.736584
  H 9.432359 -1.351943 -2.410173
  H 9.159087 -1.415074 -4.160500
  H 9.137216 -2.900471 -3.220653
 20
 10.302251
  C 1.126767 -0.423109 -0.295956
  C 2.481606 0.004597 0.162822
  C 3.435406 -0.169102 -0.741981
  C 4.864599 -0.129476 -0.718206
  C 5.442591 -0.807412 -1.724477
  C 6.843527 -0.996572 -1.951104
  C 7.345316 -1.706505 -2.965005
  C 8.793902 -1.911951 -3.216714
  H 0.453400 -0.671861 0.512961
  H 1.313962 -1.283717 -0.930464
  H 0.657615 0.354582 -0.908501
  H 2.647549 0.319599 1.182490
  H 3.067284 -0.529190 -1.700286
  H 5.410296 0.334227 0.085431
  H 4.702211 -1.270027 -2.398144
  H 7.516246 -0.521125 -1.239495
  H 6.673126 -2.178455 -3.670880
  H 9.397668 -1.407641 -2.466290
  H 9.064192 -1.529968 -4.200928
  H 9.032154 -2.975074 -3.203838
 20
 16.491829
  C 1.211463 -0.543935 -0.389537
  C 2.487727 -0.005823 0.180433
  C 3.474999 -0.018625 -0.706286
  C 4.902964 0.019531 -0.681897
  C 5.434243 -0.707269 -1.681849
  C 6.822062 -0.956326 -1.938859
  C 7.269527 -1.724407 -2.935384
  C 8.705906 -1.990767 -3.220370
  H 0.558316 -0.988279 0.352088
  H 1.559021 -1.291776 -1.116911
  H 0.653040 0.230506 -0.920297
  H 2.584010 0.208287 1.228012
  H 3.132555 -0.287432 -1.704382
  H 5.474176 0.468592 0.117022
  H 4.656909 -1.173848 -2.303555
  H 7.528235 -0.478132 -1.270632
  H 6.561254 -2.201088 -3.600643
  H 9.348678 -1.477086 -2.509973
  H 8.959353 -1.659276 -4.228323
  H 8.909212 -3.061224 -3.169038
 20
 24.185914
  C 1.339225 -0.680467 -0.493400
  C 2.518091 -0.034276 0.178437
  C 3.502177 0.141280 -0.688070
  C 4.932167 0.175452 -0.653920
  C 5.412689 -0.598827 -1.644402
  C 6.783605 -0.913547 -1.923291
  C 7.176237 -1.736103 -2.899148
  C 8.591620 -2.069967 -3.205690
  H 0.735956 -1.277115 0.178102
  H 1.827241 -1.314995 -1.254957
  H 0.696689 0.048362 -0.979692
  H 2.578098 0.054571 1.254241
  H 3.175206 -0.020435 -1.715185
  H 5.525034 0.598120 0.140083
  H 4.595323 -1.066684 -2.227823
  H 7.520772 -0.440852 -1.293410
  H 6.434286 -2.208901 -3.528523
  H 9.268716 -1.557302 -2.533025
  H 8.832786 -1.787937 -4.229961
  H 8.754111 -3.143461 -3.117295
 20
 31.811652
  C 1.508175 -0.831921 -0.599352
  C 2.571145 -0.069572 0.150249
  C 3.505984 0.347670 -0.692845
  C 4.942926 0.331742 -0.640050
  C 5.370838 -0.493514 -1.617676
  C 6.722207 -0.874172 -1.907269
  C 7.064454 -1.749013 -2.855896
  C 8.463270 -2.151284 -3.173128
  H 1.002212 -1.566157 0.020166
  H 2.115726 -1.345705 -1.373949
  H 0.762937 -0.185183 -1.055850
  H 2.650883 -0.131151 1.224735
  H 3.176422 0.312943 -1.727742
  H 5.553325 0.684870 0.172327
  H 4.524728 -0.965989 -2.170405
  H 7.490742 -0.404680 -1.307457
  H 6.292613 -2.216542 -3.454015
  H 9.173841 -1.638286 -2.530420
  H 8.697738 -1.919682 -4.212947
  H 8.585197 -3.227493 -3.044303
 20
 37.502701
  C 1.715049 -0.995528 -0.729913
  C 2.669218 -0.170949 0.093851
  C 3.491266 0.553255 -0.673328
  C 4.944882 0.491850 -0.636816
  C 5.310183 -0.404579 -1.579013
  C 6.642738 -0.839538 -1.885221
  C 6.935142 -1.773432 -2.792443
  C 8.310918 -2.234627 -3.118930
  H 1.352520 -1.854704 -0.186350
  H 2.390949 -1.340159 -1.540436
  H 0.862355 -0.440173 -1.125425
  H 2.816248 -0.384605 1.141094
  H 3.134789 0.678748 -1.684721
  H 5.587592 0.851596 0.151557
  H 4.452358 -0.883087 -2.099062
  H 7.436642 -0.361777 -1.332503
  H 6.139527 -2.247118 -3.342805
  H 9.052216 -1.708305 -2.521223
  H 8.526649 -2.067685 -4.174666
  H 8.404101 -3.306351 -2.932886
 20
 43.272532
  C 1.884922 -1.107932 -0.844096
  C 2.755049 -0.259379 0.033255
  C 3.470014 0.644489 -0.636168
  C 4.932451 0.575028 -0.632084
  C 5.253136 -0.374807 -1.524813
  C 6.576588 -0.823080 -1.862894
  C 6.834200 -1.805169 -2.727784
  C 8.198485 -2.285215 -3.082324
  H 1.568843 -2.015112 -0.345525
  H 2.625082 -1.361291 -1.647478
  H 1.014950 -0.604234 -1.258441
  H 2.997038 -0.598056 1.032645
  H 3.075195 0.899030 -1.617434
  H 5.612142 1.020804 0.079678
  H 4.373466 -0.887366 -2.004171
  H 7.391234 -0.314939 -1.368086
  H 6.014582 -2.310696 -3.222515
  H 8.962809 -1.726409 -2.543934
  H 8.371278 -2.176274 -4.153202
  H 8.301519 -3.344457 -2.841550
 20
 49.125864
  C 2.022736 -1.201142 -0.935289
  C 2.822314 -0.337880 -0.020854
  C 3.438614 0.697312 -0.603723
  C 4.906374 0.623468 -0.633993
  C 5.205748 -0.373524 -1.483680
  C 6.524525 -0.822889 -1.849443
  C 6.762393 -1.839475 -2.676202
  C 8.121064 -2.322583 -3.057774
  H 1.715617 -2.130519 -0.478620
  H 2.832468 -1.395080 -1.700519
  H 1.167977 -0.718195 -1.399846
  H 3.176786 -0.767129 0.908397
  H 2.995907 1.065109 -1.522116
  H 5.613967 1.159666 -0.012333
  H 4.316517 -0.922981 -1.925212
  H 7.352031 -0.283490 -1.406443
  H 5.925679 -2.378808 -3.122300
  H 8.895178 -1.734341 -2.574986
  H 8.253360 -2.260250 -4.136586
  H 8.245310 -3.365707 -2.775109
 20
 56.567839
  C 2.107039 -1.261931 -1.006830
  C 2.849904 -0.391923 -0.061185
  C 3.421707 0.701097 -0.582291
  C 4.888768 0.624060 -0.629703
  C 5.180647 -0.406947 -1.438443
  C 6.496071 -0.831159 -1.846135
  C 6.727816 -1.872717 -2.643190
  C 8.081272 -2.337787 -3.059475
  H 1.786863 -2.200409 -0.580239
  H 2.996297 -1.423780 -1.720113
  H 1.285291 -0.786032 -1.531037
  H 3.272449 -0.872609 0.816478
  H 2.956097 1.144297 -1.454880
  H 5.609167 1.240305 -0.097812
  H 4.282311 -1.004520 -1.845886
  H 7.326847 -0.254725 -1.457458
  H 5.890980 -2.448590 -3.033187
  H 8.858817 -1.712903 -2.630021
  H 8.171700 -2.315801 -4.149795
  H 8.240499 -3.366294 -2.740640
 20
 64.957495
  C 2.168997 -1.314835 -1.072724
  C 2.873180 -0.456101 -0.093449
  C 3.413095 0.683114 -0.550438
  C 4.877555 0.619707 -0.638288
  C 5.170732 -0.436567 -1.412413
  C 6.481918 -0.843082 -1.848584
  C 6.712227 -1.900789 -2.626266
  C 8.058300 -2.347899 -3.068468
  H 1.825971 -2.262017 -0.681408
  H 3.133956 -1.449085 -1.737425
  H 1.386882 -0.827806 -1.647098
  H 3.358638 -0.983585 0.722698
  H 2.912156 1.212922 -1.351317
  H 5.598560 1.297607 -0.189850
  H 4.260990 -1.073560 -1.794112
  H 7.309603 -0.242841 -1.501002
  H 5.876354 -2.504058 -2.977955
  H 8.836992 -1.695024 -2.676110
  H 8.116799 -2.352113 -4.159607
  H 8.246977 -3.365869 -2.728048
 20
 74.139527
  C 2.214826 -1.362441 -1.127449
  C 2.886833 -0.515267 -0.123865
  C 3.408441 0.655849 -0.529754
  C 4.870407 0.602514 -0.639018
  C 5.170933 -0.460825 -1.400262
  C 6.477688 -0.859448 -1.850723
  C 6.705850 -1.915532 -2.631565
  C 8.052787 -2.353056 -3.094824
  H 1.855120 -2.315613 -0.768730
  H 3.246082 -1.472528 -1.753711
  H 1.471460 -0.865128 -1.740902
  H 3.417715 -1.071131 0.646620
  H 2.884361 1.247741 -1.269860
  H 5.584780 1.316356 -0.232888
  H 4.246444 -1.119790 -1.776430
  H 7.309741 -0.251010 -1.513273
  H 5.873924 -2.521876 -2.971176
  H 8.830761 -1.695795 -2.714183
  H 8.094694 -2.354851 -4.183085
  H 8.255844 -3.370686 -2.759618
