 20
 0.000000
  H 1.509339 0.170412 0.475144
  C 2.590263 0.157522 0.443118
  C 3.314917 0.631579 1.622317
  C 2.429524 1.094634 2.773947
  C 3.264550 1.570235 3.958572
  C 3.175056 -0.308762 -0.716622
  C 4.553200 -0.399904 -0.944003
  C 5.084645 -0.874587 -2.126350
  H 4.475857 -1.209899 -2.959677
  O 6.349013 -0.975431 -2.379155
  H 3.982891 1.452786 1.331232
  H 3.982540 -0.162908 1.980641
  H 1.785146 0.274489 3.096058
  H 1.785741 1.910049 2.438888
  H 3.897538 0.770624 4.336197
  H 2.618516 1.896292 4.769613
  H 3.898221 2.408430 3.678232
  H 2.517160 -0.628879 -1.513130
  H 5.233409 -0.086480 -0.163601
  H 6.940345 -0.682409 -1.653464
 20
 12.992701
  H 1.459214 0.184061 0.508465
  C 2.539815 0.164033 0.459473
  C 3.281765 0.634233 1.629456
  C 2.415368 1.101662 2.790822
  C 3.263827 1.573359 3.966540
  C 3.096687 -0.301640 -0.698175
  C 4.608084 -0.406326 -0.959326
  C 5.095560 -0.877643 -2.133122
  H 4.474687 -1.207445 -2.951637
  O 6.473698 -0.997581 -2.435772
  H 3.952704 1.449998 1.329413
  H 3.951740 -0.162937 1.977794
  H 1.769365 0.285236 3.120348
  H 1.770722 1.920020 2.463379
  H 3.896914 0.771247 4.338202
  H 2.627538 1.902335 4.783945
  H 3.898379 2.408668 3.680277
  H 2.439236 -0.620141 -1.490809
  H 5.293345 -0.095580 -0.186083
  H 7.063019 -0.706947 -1.718468
 20
 39.081365
  H 1.416548 0.193472 0.532165
  C 2.501031 0.164204 0.463112
  C 3.260260 0.630327 1.637335
  C 2.420795 1.107277 2.809537
  C 3.259941 1.581381 3.983497
  C 3.026754 -0.305320 -0.709312
  C 4.686556 -0.412475 -0.969789
  C 5.070945 -0.877281 -2.131960
  H 4.471463 -1.206060 -2.955348
  O 6.552344 -1.015677 -2.489708
  H 3.947446 1.434202 1.329627
  H 3.946460 -0.162362 1.971208
  H 1.757674 0.303152 3.143865
  H 1.765894 1.923110 2.486835
  H 3.895105 0.784077 4.362021
  H 2.621242 1.915702 4.795887
  H 3.899500 2.413404 3.698502
  H 2.430473 -0.635723 -1.537533
  H 5.335857 -0.094610 -0.178513
  H 7.081135 -0.709656 -1.735735
 20
 69.542920
  H 1.374811 0.206395 0.557596
  C 2.458102 0.172897 0.469565
  C 3.236135 0.640427 1.625898
  C 2.414526 1.112948 2.823032
  C 3.261048 1.583650 3.995326
  C 2.945152 -0.294722 -0.684455
  C 4.737017 -0.416347 -0.957900
  C 5.054675 -0.881837 -2.134124
  H 4.488629 -1.212915 -2.972051
  O 6.653426 -1.041181 -2.541254
  H 3.921299 1.440065 1.299100
  H 3.934232 -0.154050 1.935692
  H 1.758102 0.307913 3.160539
  H 1.749853 1.923910 2.517274
  H 3.905110 0.790160 4.364831
  H 2.627292 1.906435 4.815533
  H 3.896104 2.420264 3.716893
  H 2.395470 -0.633620 -1.533966
  H 5.359307 -0.096398 -0.150586
  H 7.146481 -0.725873 -1.761275
 20
 100.235275
  H 1.326536 0.220532 0.594627
  C 2.405783 0.178606 0.490945
  C 3.203670 0.639771 1.634720
  C 2.412995 1.116331 2.829466
  C 3.267840 1.584261 3.995109
  C 2.862705 -0.287290 -0.663882
  C 4.780419 -0.410102 -0.958031
  C 5.041810 -0.877015 -2.128174
  H 4.509679 -1.216474 -2.976612
  O 6.763905 -1.058415 -2.583419
  H 3.894624 1.428095 1.296042
  H 3.901198 -0.159798 1.931339
  H 1.742452 0.315693 3.174350
  H 1.740225 1.932543 2.528094
  H 3.913944 0.788835 4.362992
  H 2.640403 1.912992 4.819474
  H 3.910830 2.416261 3.712574
  H 2.347031 -0.632751 -1.528476
  H 5.381157 -0.086683 -0.143036
  H 7.233858 -0.738178 -1.797220
 20
 127.191502
  H 1.286518 0.232754 0.627912
  C 2.367654 0.184791 0.506924
  C 3.182680 0.645643 1.645845
  C 2.406521 1.124509 2.841932
  C 3.264610 1.584885 3.998394
  C 2.784090 -0.280985 -0.647784
  C 4.817073 -0.408281 -0.955729
  C 5.019677 -0.875194 -2.120429
  H 4.528057 -1.223145 -2.985596
  O 6.874399 -1.077706 -2.632463
  H 3.871939 1.427131 1.298621
  H 3.874667 -0.157067 1.934191
  H 1.733027 0.328993 3.190713
  H 1.728521 1.938414 2.548940
  H 3.913995 0.786830 4.359873
  H 2.643159 1.914032 4.827896
  H 3.912798 2.414419 3.713535
  H 2.304192 -0.633693 -1.527738
  H 5.392752 -0.078808 -0.128869
  H 7.332954 -0.760518 -1.857656
 20
 145.389798
  H 1.274248 0.248947 0.661965
  C 2.366871 0.177703 0.518043
  C 3.187524 0.635472 1.669899
  C 2.389842 1.134843 2.856319
  C 3.252015 1.586195 4.000276
  C 2.690174 -0.284360 -0.632898
  C 4.857085 -0.382613 -0.985469
  C 4.987373 -0.860769 -2.123814
  H 4.536509 -1.235497 -3.002583
  O 6.956398 -1.103489 -2.669467
  H 3.875478 1.417672 1.325621
  H 3.845565 -0.183638 1.982403
  H 1.714813 0.355106 3.207511
  H 1.732313 1.951260 2.555373
  H 3.887730 0.778078 4.360953
  H 2.639640 1.931711 4.828002
  H 3.911745 2.400058 3.702917
  H 2.251844 -0.651863 -1.525504
  H 5.387910 -0.028297 -0.137191
  H 7.445546 -0.778985 -1.902736
 20
 157.081510
  H 1.244492 0.265111 0.689343
  C 2.330217 0.179784 0.532447
  C 3.158236 0.638128 1.681172
  C 2.364109 1.146700 2.873864
  C 3.255677 1.592949 4.013278
  C 2.597802 -0.293694 -0.616007
  C 4.902626 -0.403352 -0.988807
  C 4.986784 -0.861740 -2.125545
  H 4.550554 -1.227775 -3.021816
  O 7.066791 -1.102693 -2.725623
  H 3.838795 1.420563 1.330670
  H 3.806361 -0.186225 1.996328
  H 1.684424 0.368559 3.235341
  H 1.716116 1.975926 2.575041
  H 3.883367 0.777250 4.365711
  H 2.661176 1.948221 4.848444
  H 3.919744 2.397090 3.703055
  H 2.185400 -0.659511 -1.525170
  H 5.406620 -0.052249 -0.122801
  H 7.578163 -0.792232 -1.969785
 20
 165.574258
  H 1.193834 0.287900 0.723441
  C 2.283339 0.189871 0.553742
  C 3.123004 0.648594 1.695487
  C 2.340478 1.159873 2.896587
  C 3.248836 1.596076 4.023275
  C 2.515324 -0.296301 -0.590442
  C 4.948619 -0.428763 -0.993626
  C 4.998532 -0.869485 -2.132661
  H 4.566989 -1.219338 -3.030021
  O 7.192095 -1.111805 -2.801007
  H 3.799248 1.431962 1.337191
  H 3.770318 -0.177853 2.005966
  H 1.662295 0.387007 3.263672
  H 1.698529 1.994337 2.606636
  H 3.874180 0.773099 4.366023
  H 2.667170 1.954872 4.867341
  H 3.914869 2.396334 3.704744
  H 2.114138 -0.661749 -1.502862
  H 5.444062 -0.084363 -0.124404
  H 7.719301 -0.812172 -2.052239
 20
 170.915112
  H 1.146030 0.311671 0.758322
  C 2.235508 0.201049 0.576734
  C 3.084612 0.659055 1.709095
  C 2.315597 1.172829 2.918773
  C 3.243356 1.598892 4.033053
  C 2.431221 -0.297322 -0.563524
  C 4.991914 -0.451862 -0.996190
  C 5.009573 -0.875650 -2.135863
  H 4.580553 -1.212787 -3.039589
  O 7.317118 -1.120011 -2.872895
  H 3.755913 1.442072 1.342317
  H 3.730969 -0.169764 2.013528
  H 1.638398 0.404234 3.292689
  H 1.679693 2.013489 2.638303
  H 3.865139 0.769814 4.365030
  H 2.676933 1.960641 4.885321
  H 3.910332 2.394029 3.706325
  H 2.041702 -0.664557 -1.480932
  H 5.479484 -0.113113 -0.120741
  H 7.862159 -0.830951 -2.131464
 20
 174.174529
  H 1.098083 0.336412 0.790974
  C 2.187404 0.212137 0.599378
  C 3.045650 0.669145 1.724437
  C 2.289792 1.186946 2.942003
  C 3.235081 1.602399 4.045238
  C 2.347257 -0.297582 -0.536293
  C 5.035118 -0.474956 -0.998219
  C 5.020408 -0.882853 -2.138145
  H 4.595056 -1.207670 -3.045919
  O 7.440470 -1.127220 -2.947844
  H 3.714055 1.450789 1.349189
  H 3.690236 -0.163114 2.023279
  H 1.611893 0.423127 3.322450
  H 1.660824 2.034755 2.669699
  H 3.852420 0.766449 4.368420
  H 2.682337 1.968091 4.904936
  H 3.904821 2.392199 3.711239
  H 1.971349 -0.667778 -1.458558
  H 5.514748 -0.142290 -0.117739
  H 8.001602 -0.847643 -2.214950
 20
 176.092031
  H 1.049744 0.362598 0.823280
  C 2.138033 0.223420 0.622929
  C 3.005118 0.678050 1.740873
  C 2.263253 1.201856 2.965422
  C 3.225783 1.606128 4.058566
  C 2.261544 -0.296480 -0.508380
  C 5.077183 -0.497107 -0.998814
  C 5.030782 -0.890709 -2.138369
  H 4.610107 -1.205375 -3.051274
  O 7.562062 -1.131898 -3.022023
  H 3.672235 1.456367 1.356861
  H 3.645986 -0.158820 2.034211
  H 1.582925 0.443887 3.352764
  H 1.642536 2.057801 2.700212
  H 3.837071 0.763090 4.374276
  H 2.686766 1.976983 4.924588
  H 3.899815 2.389140 3.717661
  H 1.900900 -0.670911 -1.435367
  H 5.548385 -0.169996 -0.112818
  H 8.138091 -0.859981 -2.297837
 20
 177.077745
  H 0.999796 0.389512 0.855681
  C 2.086400 0.234940 0.647098
  C 2.963214 0.686135 1.758075
  C 2.236313 1.216940 2.989373
  C 3.215594 1.609852 4.072464
  C 2.172851 -0.293338 -0.480203
  C 5.116976 -0.517650 -0.997701
  C 5.040188 -0.898784 -2.136299
  H 4.626670 -1.205082 -3.054315
  O 7.682041 -1.134533 -3.093154
  H 3.630009 1.460158 1.364815
  H 3.599567 -0.156326 2.045628
  H 1.552935 0.465417 3.384055
  H 1.624310 2.081216 2.730836
  H 3.820432 0.759679 4.381482
  H 2.690227 1.986466 4.944438
  H 3.894628 2.385499 3.724630
  H 1.828760 -0.673266 -1.411618
  H 5.578008 -0.195692 -0.105856
  H 8.271182 -0.868565 -2.377619
 20
 177.439292
  H 0.949380 0.416306 0.889135
  C 2.033843 0.246990 0.673039
  C 2.920092 0.693983 1.777193
  C 2.207487 1.231581 3.014371
  C 3.201793 1.614042 4.088468
  C 2.083189 -0.287370 -0.450878
  C 5.156312 -0.535030 -0.995666
  C 5.048854 -0.906065 -2.132411
  H 4.643290 -1.206225 -3.055469
  O 7.799155 -1.138777 -3.164669
  H 3.586837 1.463396 1.374975
  H 3.551326 -0.154173 2.058936
  H 1.521121 0.486180 3.416053
  H 1.603770 2.103616 2.761690
  H 3.800514 0.757534 4.391833
  H 2.688889 1.996089 4.965503
  H 3.885704 2.382601 3.734387
  H 1.756527 -0.673755 -1.385946
  H 5.606619 -0.217463 -0.097480
  H 8.401022 -0.877548 -2.458213
