 23
 0.000000
  H 1.324489 0.045233 -0.019857
  C 2.401969 0.059339 -0.048289
  C 3.112286 -0.036994 1.270736
  H 2.437273 -0.108213 2.117692
  C 3.061464 0.139973 -1.208485
  C 2.437920 0.209603 -2.578479
  C 0.913112 0.225258 -2.633261
  C 0.425871 0.294096 -4.077106
  C 4.521586 0.139409 -1.230433
  C 5.304181 0.208307 -2.308034
  O 6.660850 0.202908 -2.272880
  H 3.741076 0.841955 1.421308
  H 3.764756 -0.915484 1.274141
  H 2.796296 -0.647394 -3.156547
  H 2.812128 1.109411 -3.075569
  H 0.529333 1.089847 -2.088318
  H 0.514506 -0.678142 -2.167720
  H 0.793121 1.195697 -4.562890
  H -0.661192 0.304927 -4.113383
  H 0.778051 -0.566478 -4.642034
  H 5.025989 0.076258 -0.275417
  H 4.958648 0.275717 -3.326797
  H 6.963239 0.142193 -1.357211
 23
 -0.916313
  H 1.373977 0.071171 -0.123680
  C 2.451341 0.057719 -0.102924
  C 3.054922 -0.054668 1.265913
  H 2.301974 -0.374112 1.983871
  C 3.133024 0.131326 -1.249980
  C 2.467501 0.188281 -2.604839
  C 0.942630 0.246956 -2.606231
  C 0.401874 0.307346 -4.031286
  C 4.587789 0.156618 -1.257270
  C 5.368997 0.145438 -2.336545
  O 6.727344 0.182593 -2.312047
  H 3.449703 0.906314 1.599418
  H 3.867051 -0.778077 1.277896
  H 2.780529 -0.694253 -3.172127
  H 2.848991 1.066439 -3.135588
  H 0.608268 1.132063 -2.057448
  H 0.538234 -0.638435 -2.108280
  H 0.777289 1.189557 -4.546245
  H -0.685148 0.350468 -4.026734
  H 0.707286 -0.572903 -4.594050
  H 5.071886 0.203736 -0.290105
  H 5.008533 0.102604 -3.352907
  H 7.037130 0.221014 -1.392752
 23
 -0.457021
  H 1.366546 0.216246 -0.098294
  C 2.442342 0.135301 -0.086210
  C 3.038475 -0.075957 1.271578
  H 2.342635 -0.644407 1.886417
  C 3.121880 0.164452 -1.237419
  C 2.462058 0.224123 -2.594393
  C 0.936351 0.269978 -2.597815
  C 0.394629 0.292893 -4.022688
  C 4.578411 0.178559 -1.255945
  C 5.354649 0.073407 -2.334889
  O 6.710262 0.127156 -2.321979
  H 3.231590 0.871037 1.777372
  H 3.965462 -0.641714 1.206550
  H 2.780926 -0.657474 -3.157896
  H 2.839782 1.102750 -3.125459
  H 0.593960 1.162862 -2.070763
  H 0.541539 -0.605565 -2.078578
  H 0.764762 1.164494 -4.558542
  H -0.692339 0.329930 -4.018521
  H 0.704715 -0.598366 -4.564299
  H 5.070273 0.319771 -0.301573
  H 4.991106 -0.066555 -3.340203
  H 7.022396 0.254766 -1.416632
 23
 1.164213
  H 1.383857 0.448855 -0.069997
  C 2.442486 0.240299 -0.075265
  C 3.033072 -0.097794 1.257101
  H 2.395143 -0.837726 1.742946
  C 3.117178 0.193875 -1.228958
  C 2.463515 0.264748 -2.589067
  C 0.936753 0.271639 -2.591544
  C 0.391477 0.257592 -4.015064
  C 4.575012 0.193125 -1.256045
  C 5.347435 0.007542 -2.326944
  O 6.702205 0.083968 -2.326468
  H 3.102936 0.764916 1.917842
  H 4.005920 -0.563040 1.118957
  H 2.802487 -0.603851 -3.159672
  H 2.821772 1.157034 -3.111099
  H 0.570239 1.162847 -2.078507
  H 0.567981 -0.604879 -2.054893
  H 0.741785 1.127442 -4.566908
  H -0.696026 0.271370 -4.008897
  H 0.719498 -0.636092 -4.541908
  H 5.073341 0.408274 -0.318678
  H 4.982123 -0.214049 -3.316731
  H 7.016641 0.286273 -1.435640
 23
 6.720512
  H 1.476528 0.849814 -0.028780
  C 2.451392 0.390078 -0.062070
  C 3.004999 -0.144948 1.220849
  H 2.350034 -0.954088 1.557198
  C 3.116664 0.221833 -1.214086
  C 2.470183 0.298666 -2.578540
  C 0.943121 0.275388 -2.570808
  C 0.386255 0.192952 -3.987269
  C 4.573102 0.202690 -1.241202
  C 5.347164 -0.009896 -2.307216
  O 6.700148 0.100131 -2.312930
  H 3.084894 0.581755 2.023334
  H 3.938710 -0.644466 0.967333
  H 2.822283 -0.565863 -3.146455
  H 2.811239 1.194971 -3.105407
  H 0.563568 1.181600 -2.095004
  H 0.595823 -0.580331 -1.988433
  H 0.708512 1.050561 -4.574201
  H -0.701141 0.178250 -3.971375
  H 0.733673 -0.710756 -4.483849
  H 5.071987 0.447593 -0.310723
  H 4.985064 -0.265813 -3.289705
  H 7.010504 0.343451 -1.431030
 23
 19.359059
  H 1.638873 1.205014 0.005153
  C 2.463598 0.514884 -0.059293
  C 2.961147 -0.201738 1.155173
  H 2.267749 -1.017499 1.393415
  C 3.120750 0.225171 -1.206714
  C 2.484549 0.274587 -2.579307
  C 0.956915 0.286755 -2.555959
  C 0.378304 0.128123 -3.956857
  C 4.574239 0.219291 -1.226662
  C 5.354137 0.023790 -2.292856
  O 6.706959 0.161217 -2.292692
  H 3.127088 0.396393 2.041621
  H 3.783332 -0.793852 0.731153
  H 2.820038 -0.611850 -3.120219
  H 2.836347 1.150771 -3.133897
  H 0.597899 1.219397 -2.120168
  H 0.604040 -0.531825 -1.923054
  H 0.696732 0.949085 -4.596627
  H -0.708842 0.119084 -3.924317
  H 0.714146 -0.804293 -4.406236
  H 5.063735 0.466374 -0.291065
  H 4.997444 -0.222113 -3.279459
  H 7.007620 0.412274 -1.408710
 23
 38.556254
  H 1.794555 1.432380 -0.003642
  C 2.489031 0.601972 -0.064792
  C 2.924965 -0.219454 1.107401
  H 2.229746 -1.053475 1.297209
  C 3.125404 0.179816 -1.181206
  C 2.480909 0.244171 -2.569261
  C 0.952791 0.221723 -2.536412
  C 0.369188 0.135029 -3.937377
  C 4.583057 0.259268 -1.207892
  C 5.372467 -0.008682 -2.247593
  O 6.708242 0.218666 -2.273026
  H 3.138197 0.292386 2.039090
  H 3.633030 -0.865874 0.518178
  H 2.832823 -0.625538 -3.133804
  H 2.814297 1.132992 -3.111380
  H 0.586148 1.128209 -2.055456
  H 0.617798 -0.625761 -1.947355
  H 0.696221 0.978643 -4.536497
  H -0.716647 0.144451 -3.901190
  H 0.688865 -0.779433 -4.430858
  H 5.053118 0.617980 -0.297142
  H 5.036229 -0.411286 -3.187533
  H 6.993124 0.563340 -1.414927
 23
 67.283424
  H 1.914713 1.611430 0.018355
  C 2.503893 0.712786 -0.046915
  C 2.805760 -0.222303 1.036420
  H 2.218246 -1.142461 1.092742
  C 3.146694 0.209574 -1.164112
  C 2.503418 0.213863 -2.541509
  C 0.976501 0.221920 -2.489743
  C 0.370927 0.080963 -3.881046
  C 4.603226 0.281947 -1.191410
  C 5.386116 0.068311 -2.253062
  O 6.738151 0.242260 -2.259228
  H 2.995309 0.172616 2.028143
  H 3.455692 -0.852063 0.183075
  H 2.832632 -0.682905 -3.071393
  H 2.851551 1.077207 -3.119045
  H 0.632130 1.156750 -2.045385
  H 0.629990 -0.594804 -1.852336
  H 0.693676 0.899126 -4.521539
  H -0.715370 0.093988 -3.829763
  H 0.681043 -0.855335 -4.340779
  H 5.074699 0.574980 -0.259408
  H 5.035902 -0.234602 -3.225218
  H 7.028897 0.526492 -1.384076
 23
 82.071196
  H 1.948216 1.655569 0.011990
  C 2.510056 0.734603 -0.023619
  C 2.700458 -0.176597 1.026646
  H 2.182022 -1.125529 1.019265
  C 3.169523 0.175701 -1.158954
  C 2.511370 0.192080 -2.528611
  C 0.984957 0.201709 -2.458951
  C 0.363469 0.075569 -3.844539
  C 4.647343 0.272525 -1.190391
  C 5.420725 0.104173 -2.259182
  O 6.779255 0.253828 -2.262429
  H 2.833859 0.180464 2.050556
  H 3.409974 -0.848502 -0.112996
  H 2.830671 -0.697391 -3.077878
  H 2.857602 1.063896 -3.092065
  H 0.643116 1.127943 -1.995592
  H 0.648013 -0.626481 -1.830987
  H 0.675172 0.902922 -4.478646
  H -0.722223 0.082944 -3.780167
  H 0.672264 -0.853540 -4.319350
  H 5.118038 0.531162 -0.247459
  H 5.064203 -0.162510 -3.240128
  H 7.076290 0.497541 -1.378514
 23
 66.977919
  H 2.099062 1.740338 0.009646
  C 2.538315 0.743982 -0.001671
  C 2.581899 -0.147114 1.033667
  H 2.012677 -1.061638 0.949368
  C 3.207733 0.099029 -1.162831
  C 2.520249 0.158355 -2.515605
  C 1.002127 0.184220 -2.418220
  C 0.356822 0.036540 -3.787399
  C 4.711756 0.238920 -1.200091
  C 5.470958 0.194446 -2.290851
  O 6.830258 0.300843 -2.295476
  H 2.559715 0.180301 2.083459
  H 3.354928 -0.846141 -0.410547
  H 2.809397 -0.720164 -3.098811
  H 2.876389 1.029325 -3.066935
  H 0.678212 1.124560 -1.975272
  H 0.669255 -0.623002 -1.765850
  H 0.647324 0.866930 -4.431701
  H -0.726564 0.056920 -3.701134
  H 0.656876 -0.893172 -4.261747
  H 5.182201 0.416750 -0.239859
  H 5.096278 0.046944 -3.293010
  H 7.142942 0.431577 -1.397200
 23
 46.315286
  H 2.151038 1.732324 -0.009158
  C 2.566679 0.726667 0.025441
  C 2.515372 -0.082311 1.087693
  H 2.171377 -1.099650 1.013439
  C 3.189595 0.047362 -1.165562
  C 2.522197 0.093099 -2.534923
  C 0.997554 0.173910 -2.431900
  C 0.338031 0.096588 -3.804669
  C 4.703484 0.197243 -1.197377
  C 5.466901 0.148216 -2.277654
  O 6.815934 0.404285 -2.297712
  H 2.539539 0.246482 2.125424
  H 3.293071 -0.909231 -0.580997
  H 2.783493 -0.814592 -3.086934
  H 2.898823 0.962352 -3.078196
  H 0.707030 1.107287 -1.943472
  H 0.638110 -0.649218 -1.808798
  H 0.676067 0.915080 -4.437409
  H -0.744854 0.149248 -3.715386
  H 0.593526 -0.840075 -4.297092
  H 5.164344 0.401961 -0.237034
  H 5.111165 -0.094899 -3.265485
  H 7.118421 0.620810 -1.399955
 23
 30.238403
  H 2.252146 1.695459 -0.125247
  C 2.622748 0.689109 -0.010016
  C 2.442523 -0.045062 1.086392
  H 2.116005 -1.069029 1.052625
  C 3.228725 -0.046413 -1.177499
  C 2.530722 0.051158 -2.526654
  C 1.011173 0.155352 -2.398766
  C 0.332386 0.110520 -3.762050
  C 4.719976 0.193613 -1.212134
  C 5.480652 0.201976 -2.296167
  O 6.822706 0.421502 -2.307966
  H 2.344423 0.385354 2.078843
  H 3.229200 -1.046179 -0.693252
  H 2.772761 -0.831933 -3.121190
  H 2.911895 0.923881 -3.062444
  H 0.746327 1.088433 -1.898381
  H 0.644426 -0.666948 -1.780533
  H 0.675194 0.932700 -4.385206
  H -0.747559 0.186586 -3.655743
  H 0.561302 -0.822790 -4.272512
  H 5.175041 0.360369 -0.242593
  H 5.115652 0.020890 -3.293914
  H 7.132135 0.577702 -1.404121
 23
 24.556742
  H 2.436849 1.730281 -0.120486
  C 2.676555 0.684314 -0.009826
  C 2.525022 0.023188 1.123495
  H 2.139995 -0.969803 1.202156
  C 3.194772 -0.099298 -1.188312
  C 2.513088 0.085986 -2.533490
  C 0.980551 0.080966 -2.426027
  C 0.338324 0.091090 -3.805490
  C 4.689220 0.117282 -1.200989
  C 5.440440 0.246846 -2.280481
  O 6.793974 0.438772 -2.268754
  H 2.511227 0.546522 2.080363
  H 3.080096 -1.141903 -0.736300
  H 2.793825 -0.752158 -3.186916
  H 2.857132 1.008245 -3.001238
  H 0.655101 0.973795 -1.878413
  H 0.647925 -0.784418 -1.849452
  H 0.650483 0.973248 -4.358833
  H -0.744874 0.115513 -3.725340
  H 0.631613 -0.791263 -4.376570
  H 5.124704 0.193693 -0.226266
  H 5.078658 0.214401 -3.282494
  H 7.105876 0.480949 -1.358863
 23
 7.018763
  H 2.641174 1.704225 -0.295620
  C 2.686833 0.646831 -0.068667
  C 2.320180 0.206702 1.119762
  H 2.342501 -0.837721 1.383489
  C 3.235631 -0.211590 -1.174168
  C 2.533895 0.080796 -2.502998
  C 1.014387 -0.029405 -2.384317
  C 0.333479 0.130500 -3.738014
  C 4.725328 0.016691 -1.217196
  C 5.456650 0.267134 -2.291165
  O 6.801349 0.464719 -2.293526
  H 1.976156 0.887357 1.880953
  H 3.068132 -1.262419 -0.908792
  H 2.879258 -0.634217 -3.252596
  H 2.802248 1.083536 -2.841405
  H 0.644440 0.735670 -1.699125
  H 0.756441 -1.002313 -1.959270
  H 0.562279 1.103728 -4.167129
  H -0.745948 0.045796 -3.636380
  H 0.674007 -0.636412 -4.430548
  H 5.211811 -0.032993 -0.248939
  H 5.061112 0.334359 -3.291896
  H 7.139216 0.405273 -1.390982
