 14
 0.000000
  H 1.406912 0.128589 0.367917
  C 2.489230 0.133588 0.382399
  C 3.142028 0.620664 1.595982
  H 2.415465 0.922400 2.345998
  C 3.138379 -0.321639 -0.749869
  C 4.527998 -0.379982 -0.895465
  C 5.122317 -0.844910 -2.054166
  H 4.512648 -1.180456 -2.888879
  O 6.390919 -0.929432 -2.266508
  H 3.800498 1.463361 1.371990
  H 3.799286 -0.143752 2.017325
  H 2.537310 -0.656404 -1.584561
  H 5.168080 -0.055503 -0.086139
  H 6.957928 -0.628766 -1.522491
 14
 17.734223
  H 1.378125 0.141983 0.412529
  C 2.519939 0.130630 0.378531
  C 3.226895 0.607589 1.559961
  H 2.543079 0.919077 2.340330
  C 3.105710 -0.333413 -0.779416
  C 4.536986 -0.420572 -0.996543
  C 5.067115 -0.870984 -2.124579
  H 4.608014 -1.229709 -3.026928
  O 6.309709 -0.830996 -2.019947
  H 3.880715 1.442481 1.304820
  H 3.886256 -0.167728 1.951997
  H 2.472420 -0.659737 -1.592348
  H 5.153949 -0.093753 -0.176593
  H 6.697835 -0.500028 -1.180956
 14
 65.606267
  H 1.326806 0.153334 0.443993
  C 2.547888 0.127352 0.372353
  C 3.278270 0.603225 1.547614
  H 2.608293 0.920678 2.342644
  C 3.068067 -0.339803 -0.792847
  C 4.589279 -0.448674 -1.064630
  C 5.051566 -0.894382 -2.185938
  H 4.707069 -1.264381 -3.121305
  O 6.243685 -0.773842 -1.878244
  H 3.927798 1.435699 1.280793
  H 3.934520 -0.176779 1.929925
  H 2.419868 -0.660718 -1.593726
  H 5.144006 -0.110077 -0.209693
  H 6.527324 -0.434980 -1.015391
 14
 121.069022
  H 1.338617 0.075220 0.531229
  C 2.545081 0.132225 0.371401
  C 3.292351 0.626928 1.544605
  H 2.627755 0.879703 2.367247
  C 2.928659 -0.285025 -0.792325
  C 4.716277 -0.459845 -1.114531
  C 5.030754 -0.942526 -2.239218
  H 4.741202 -1.309745 -3.194357
  O 6.257833 -0.730787 -1.827332
  H 3.864522 1.513542 1.282765
  H 3.981744 -0.139268 1.893528
  H 2.367109 -0.586397 -1.643851
  H 5.065611 -0.139051 -0.172207
  H 6.605454 -0.498135 -0.950882
 14
 150.716175
  H 1.244746 0.174912 0.628591
  C 2.395959 0.143701 0.417895
  C 3.226587 0.617155 1.563415
  H 2.609377 0.928161 2.399112
  C 2.727088 -0.300049 -0.744319
  C 4.954550 -0.459364 -1.142241
  C 5.090204 -0.948564 -2.290739
  H 4.747627 -1.310250 -3.233124
  O 6.391706 -0.711537 -1.881195
  H 3.839235 1.463369 1.253436
  H 3.896152 -0.174093 1.895183
  H 2.193331 -0.634179 -1.603497
  H 5.196570 -0.086759 -0.179243
  H 6.837976 -0.578086 -1.020956
 14
 157.523007
  H 1.105199 0.121711 0.824598
  C 2.174993 0.166244 0.507407
  C 3.098811 0.656002 1.587516
  H 2.552059 0.928631 2.481917
  C 2.486743 -0.230495 -0.681115
  C 5.258882 -0.499305 -1.175294
  C 5.227085 -0.989541 -2.339021
  H 4.825713 -1.280539 -3.284995
  O 6.610426 -0.742669 -1.994787
  H 3.644683 1.535360 1.232555
  H 3.835990 -0.103228 1.829581
  H 1.904639 -0.541385 -1.518347
  H 5.410730 -0.120481 -0.193647
  H 7.191797 -0.790471 -1.200785
 14
 146.009154
  H 1.058559 -0.026749 0.968308
  C 2.065268 0.165168 0.564453
  C 3.022601 0.700228 1.596299
  H 2.518356 0.876185 2.538038
  C 2.336293 -0.142761 -0.659920
  C 5.519121 -0.477875 -1.192567
  C 5.302589 -1.023390 -2.317729
  H 4.854400 -1.293181 -3.248132
  O 6.741682 -0.658945 -2.044370
  H 3.439940 1.655102 1.250999
  H 3.840219 0.008695 1.756403
  H 1.784466 -0.443291 -1.520656
  H 5.425790 -0.154367 -0.183482
  H 7.365671 -1.092173 -1.406833
 14
 136.098990
  H 1.009495 0.056513 0.981419
  C 2.025502 0.178673 0.589416
  C 3.019784 0.625111 1.628602
  H 2.512454 0.901793 2.547814
  C 2.270436 -0.062434 -0.658386
  C 5.488022 -0.346868 -1.239012
  C 5.382480 -1.083165 -2.276341
  H 5.056193 -1.605502 -3.145312
  O 6.735763 -0.540620 -2.009240
  H 3.578493 1.488355 1.275209
  H 3.712462 -0.183317 1.858896
  H 1.727245 -0.369873 -1.519000
  H 5.290212 0.151038 -0.317894
  H 7.372477 -1.183155 -1.592579
