 24
 0.000000
  C 0.829620 0.045576 0.328012
  C 2.314973 0.058064 0.106650
  C 3.232036 -0.010369 1.319507
  C 2.587989 -0.088217 2.699051
  H 3.357655 -0.131264 3.461988
  C 2.897597 0.125489 -1.088242
  C 2.344080 0.204327 -2.485423
  C 0.841135 0.219172 -2.748439
  C 0.567221 0.303767 -4.247659
  H 3.980672 0.126759 -1.110724
  H 0.570226 -0.013782 1.379912
  H 0.374718 -0.815985 -0.154716
  H 0.374720 0.955976 -0.054728
  H 3.879359 0.871981 1.303958
  H 3.879362 -0.885370 1.204797
  H 1.968267 -0.979004 2.790592
  H 1.968255 0.786618 2.890227
  H 2.764410 -0.643526 -3.040764
  H 2.764413 1.109276 -2.941858
  H 0.377662 1.079291 -2.266135
  H 0.377662 -0.689744 -2.365957
  H 0.994747 1.211359 -4.669093
  H -0.504601 0.314312 -4.434527
  H 0.994751 -0.550664 -4.768523
 24
 7.067702
  C 0.846534 0.046140 0.318036
  C 2.329437 0.059530 0.080664
  C 3.257816 -0.008085 1.279032
  C 2.557759 -0.094363 2.807983
  H 3.337443 -0.136780 3.559750
  C 2.902144 0.127079 -1.116412
  C 2.344687 0.205781 -2.511185
  C 0.840450 0.220164 -2.766027
  C 0.558665 0.304679 -4.263830
  H 3.986667 0.128622 -1.143735
  H 0.601623 -0.013402 1.373180
  H 0.386588 -0.815033 -0.160710
  H 0.386590 0.955704 -0.060790
  H 3.902278 0.872846 1.262599
  H 3.902282 -0.881576 1.163604
  H 1.942529 -0.984420 2.900741
  H 1.942519 0.779605 3.000286
  H 2.763786 -0.641849 -3.067989
  H 2.763787 1.110671 -2.969099
  H 0.379746 1.079966 -2.280501
  H 0.379747 -0.688800 -2.380308
  H 0.984170 1.212345 -4.687221
  H -0.514016 0.314939 -4.445653
  H 0.984172 -0.549603 -4.786644
 24
 22.213193
  C 0.864374 0.045919 0.321935
  C 2.342661 0.060759 0.058903
  C 3.283248 -0.005340 1.230394
  C 2.518229 -0.099816 2.904618
  H 3.312726 -0.141023 3.634962
  C 2.905612 0.128640 -1.144063
  C 2.348119 0.207265 -2.537474
  C 0.842365 0.221042 -2.781575
  C 0.550153 0.305439 -4.277304
  H 3.992440 0.130373 -1.174752
  H 0.647496 -0.013948 1.382869
  H 0.395702 -0.814346 -0.150492
  H 0.395704 0.953871 -0.050714
  H 3.919936 0.873090 1.231584
  H 3.919942 -0.878327 1.132759
  H 1.912645 -0.989820 2.981427
  H 1.912637 0.775890 3.081065
  H 2.767287 -0.639938 -3.095051
  H 2.767282 1.111807 -2.996201
  H 0.385854 1.080276 -2.290904
  H 0.385855 -0.687935 -2.390681
  H 0.973392 1.213126 -4.703002
  H -0.523476 0.315350 -4.452951
  H 0.973390 -0.548598 -4.802404
 24
 38.928964
  C 0.884787 0.046793 0.306461
  C 2.361127 0.062357 0.030595
  C 3.314083 -0.003176 1.192031
  C 2.476821 -0.105662 3.008202
  H 3.286305 -0.145939 3.722040
  C 2.916242 0.130377 -1.174852
  C 2.353175 0.208842 -2.565425
  C 0.844768 0.221609 -2.791636
  C 0.533766 0.305780 -4.283354
  H 4.002265 0.132346 -1.209747
  H 0.685215 -0.013217 1.369905
  H 0.411410 -0.812556 -0.163281
  H 0.411412 0.953532 -0.063623
  H 3.947043 0.879846 1.217882
  H 3.947050 -0.883501 1.118385
  H 1.876278 -1.002091 3.064515
  H 1.876265 0.778741 3.165006
  H 2.769465 -0.637896 -3.125612
  H 2.769468 1.113228 -3.026806
  H 0.394737 1.080197 -2.293642
  H 0.394732 -0.687556 -2.393387
  H 0.951784 1.213627 -4.713812
  H -0.541785 0.314988 -4.446520
  H 0.951781 -0.547882 -4.813204
 24
 55.584377
  C 0.910164 0.046883 0.304862
  C 2.381640 0.063637 0.007909
  C 3.341612 -0.000831 1.150483
  C 2.431745 -0.111315 3.108413
  H 3.253301 -0.150549 3.803769
  C 2.928356 0.132091 -1.205227
  C 2.356643 0.210431 -2.593585
  C 0.846001 0.222361 -2.804979
  C 0.519344 0.306339 -4.293280
  H 4.015055 0.134441 -1.246858
  H 0.733457 -0.013408 1.373294
  H 0.430022 -0.811916 -0.158425
  H 0.430023 0.952351 -0.058870
  H 3.966305 0.882351 1.200291
  H 3.966312 -0.884011 1.100622
  H 1.838944 -1.009338 3.143402
  H 1.838938 0.777061 3.244207
  H 2.769791 -0.635943 -3.156418
  H 2.769793 1.114750 -3.057635
  H 0.401482 1.080298 -2.301300
  H 0.401482 -0.686786 -2.401013
  H 0.932908 1.214349 -4.727726
  H -0.557687 0.314954 -4.445936
  H 0.932907 -0.547036 -4.827113
 24
 70.670418
  C 0.936989 0.047824 0.288190
  C 2.406103 0.065384 -0.023028
  C 3.373610 0.001423 1.110547
  C 2.383678 -0.116864 3.206722
  H 3.216611 -0.155323 3.888329
  C 2.942122 0.133721 -1.234107
  C 2.360415 0.211739 -2.616769
  C 0.847609 0.222628 -2.809699
  C 0.501866 0.306351 -4.293489
  H 4.027801 0.136452 -1.282506
  H 0.777577 -0.012591 1.358837
  H 0.451882 -0.810900 -0.170766
  H 0.451885 0.952729 -0.071246
  H 3.991982 0.888415 1.186786
  H 3.991984 -0.888508 1.086520
  H 1.795996 -1.019536 3.218813
  H 1.795989 0.778710 3.320286
  H 2.769148 -0.634377 -3.182968
  H 2.769148 1.116175 -3.084189
  H 0.409525 1.080191 -2.299310
  H 0.409520 -0.686909 -2.399020
  H 0.909620 1.214582 -4.732929
  H -0.576916 0.314218 -4.432841
  H 0.909617 -0.546683 -4.832313
 24
 83.606224
  C 0.964334 0.047426 0.295236
  C 2.428691 0.066385 -0.040775
  C 3.403699 0.003239 1.078374
  C 2.335900 -0.122904 3.313758
  H 3.178585 -0.160479 3.979734
  C 2.957877 0.135829 -1.271474
  C 2.362362 0.213684 -2.651281
  C 0.847330 0.223679 -2.828372
  C 0.485387 0.307185 -4.308265
  H 4.044065 0.139159 -1.330485
  H 0.829088 -0.013250 1.370501
  H 0.471909 -0.811118 -0.155036
  H 0.471910 0.951175 -0.055594
  H 4.013115 0.891100 1.178010
  H 4.013119 -0.890187 1.077498
  H 1.754996 -1.026952 3.304779
  H 1.754988 0.776408 3.406541
  H 2.766495 -0.632229 -3.221109
  H 2.766497 1.118329 -3.122330
  H 0.414848 1.080660 -2.312813
  H 0.414847 -0.685854 -2.412495
  H 0.888116 1.215613 -4.751932
  H -0.594775 0.314410 -4.436248
  H 0.888111 -0.545566 -4.851312
 24
 94.269827
  C 1.002159 0.049392 0.260407
  C 2.463066 0.068840 -0.084270
  C 3.438488 0.006091 1.027831
  C 2.274766 -0.127410 3.393612
  H 3.123176 -0.164554 4.051982
  C 2.972917 0.136769 -1.288113
  C 2.365940 0.214060 -2.657928
  C 0.849110 0.222819 -2.813121
  C 0.465006 0.306000 -4.287269
  H 4.056547 0.140451 -1.353368
  H 0.879245 -0.011353 1.336900
  H 0.506470 -0.809517 -0.187003
  H 0.506472 0.953181 -0.087536
  H 4.039655 0.896666 1.154115
  H 4.039666 -0.893037 1.053129
  H 1.698905 -1.034355 3.360509
  H 1.698896 0.777493 3.462748
  H 2.764255 -0.631637 -3.231754
  H 2.764258 1.118944 -3.132976
  H 0.424040 1.079583 -2.290210
  H 0.424036 -0.687330 -2.389911
  H 0.860521 1.214731 -4.736785
  H -0.616886 0.312325 -4.399300
  H 0.860517 -0.546393 -4.836159
 24
 100.950236
  C 1.028545 0.048383 0.278238
  C 2.483292 0.069331 -0.092999
  C 3.462811 0.007658 1.000029
  C 2.219694 -0.133647 3.504106
  H 3.115981 -0.166531 4.086955
  C 2.988178 0.138887 -1.325701
  C 2.366491 0.216044 -2.693096
  C 0.848617 0.223874 -2.831810
  C 0.447532 0.306800 -4.301383
  H 4.071488 0.143132 -1.400929
  H 0.935758 -0.012629 1.359480
  H 0.526230 -0.809469 -0.160484
  H 0.526231 0.950148 -0.061192
  H 4.031103 0.899449 1.202780
  H 4.031104 -0.901261 1.101170
  H 1.671250 -1.046016 3.402407
  H 1.671233 0.784372 3.505690
  H 2.760398 -0.628959 -3.270241
  H 2.760406 1.120612 -3.171521
  H 0.430336 1.079813 -2.303446
  H 0.430324 -0.686077 -2.403082
  H 0.837918 1.215778 -4.755082
  H -0.635396 0.312469 -4.401749
  H 0.837913 -0.545376 -4.854462
 24
 107.479769
  C 1.054537 0.048966 0.267927
  C 2.509449 0.070881 -0.120450
  C 3.495526 0.009324 0.970557
  C 2.170465 -0.139712 3.611617
  H 3.073535 -0.172076 4.185260
  C 3.002635 0.140654 -1.356992
  C 2.367631 0.217412 -2.717351
  C 0.847252 0.224314 -2.839602
  C 0.429889 0.306982 -4.304631
  H 4.085593 0.145468 -1.442318
  H 0.974558 -0.012121 1.350507
  H 0.547201 -0.810080 -0.165342
  H 0.547202 0.951302 -0.065951
  H 4.057298 0.904550 1.189023
  H 4.057308 -0.904788 1.086928
  H 1.625691 -1.054032 3.495720
  H 1.625677 0.781834 3.599312
  H 2.756316 -0.627886 -3.298450
  H 2.756323 1.122717 -3.199674
  H 0.434108 1.080442 -2.306276
  H 0.434100 -0.686378 -2.405965
  H 0.814682 1.216086 -4.762554
  H -0.654156 0.311976 -4.393042
  H 0.814675 -0.544840 -4.861917
 24
 112.545175
  C 1.086280 0.049418 0.259921
  C 2.536581 0.072293 -0.145471
  C 3.526131 0.011072 0.939592
  C 2.115926 -0.145601 3.715965
  H 3.024003 -0.177405 4.279695
  C 3.016941 0.142275 -1.385715
  C 2.367007 0.218687 -2.739932
  C 0.845750 0.224595 -2.844561
  C 0.411270 0.306967 -4.304378
  H 4.099328 0.147689 -1.481678
  H 1.020015 -0.011696 1.342977
  H 0.574898 -0.809381 -0.166903
  H 0.574899 0.950782 -0.067581
  H 4.078729 0.905845 1.172889
  H 4.078739 -0.904258 1.070750
  H 1.576400 -1.059590 3.585242
  H 1.576385 0.777285 3.688891
  H 2.749653 -0.626364 -3.325064
  H 2.749656 1.124193 -3.226287
  H 0.438590 1.080123 -2.306490
  H 0.438586 -0.686025 -2.406148
  H 0.790129 1.216352 -4.766764
  H -0.673713 0.311244 -4.380089
  H 0.790125 -0.544637 -4.866132
 24
 116.243239
  C 1.117905 0.049752 0.254027
  C 2.564652 0.073667 -0.169798
  C 3.558225 0.012794 0.909096
  C 2.057710 -0.151361 3.818055
  H 2.969994 -0.182787 4.375100
  C 3.031646 0.143921 -1.414891
  C 2.366539 0.219877 -2.761015
  C 0.843845 0.224737 -2.847064
  C 0.391296 0.306810 -4.301573
  H 4.112477 0.149981 -1.522280
  H 1.065495 -0.011469 1.338976
  H 0.601671 -0.809966 -0.166532
  H 0.601670 0.951324 -0.067148
  H 4.102867 0.909329 1.157159
  H 4.102877 -0.905948 1.054728
  H 1.522512 -1.065958 3.672656
  H 1.522503 0.773769 3.776467
  H 2.742910 -0.625058 -3.350384
  H 2.742912 1.125740 -3.251592
  H 0.442716 1.080220 -2.303766
  H 0.442707 -0.686434 -2.403447
  H 0.763809 1.216424 -4.768584
  H -0.694555 0.310332 -4.363925
  H 0.763802 -0.544500 -4.867944
 24
 118.862249
  C 1.149626 0.049980 0.249960
  C 2.591686 0.074923 -0.192064
  C 3.590037 0.014391 0.880777
  C 1.997414 -0.157188 3.921253
  H 2.912496 -0.188278 4.472343
  C 3.044790 0.145447 -1.441931
  C 2.364108 0.220989 -2.780733
  C 0.840601 0.224824 -2.848626
  C 0.370594 0.306574 -4.297429
  H 4.124604 0.152156 -1.560847
  H 1.110835 -0.011248 1.335041
  H 0.629169 -0.809813 -0.163831
  H 0.629170 0.950865 -0.064481
  H 4.125976 0.911018 1.142229
  H 4.125989 -0.905951 1.039702
  H 1.466914 -1.071284 3.762204
  H 1.466893 0.768999 3.866046
  H 2.734127 -0.623778 -3.374327
  H 2.734133 1.127168 -3.275532
  H 0.445598 1.079846 -2.300599
  H 0.445594 -0.686413 -2.400262
  H 0.736877 1.216439 -4.768866
  H -0.715910 0.309360 -4.346723
  H 0.736870 -0.544485 -4.868225
 24
 120.630763
  C 1.179992 0.050118 0.247576
  C 2.617518 0.076083 -0.212591
  C 3.620704 0.015910 0.853898
  C 1.934445 -0.163037 4.024943
  H 2.852212 -0.193876 4.571592
  C 3.056703 0.146887 -1.467448
  C 2.360789 0.221963 -2.798008
  C 0.836483 0.224764 -2.847571
  C 0.348876 0.306192 -4.290675
  H 4.134950 0.154251 -1.597968
  H 1.154283 -0.011167 1.333688
  H 0.655117 -0.810427 -0.159819
  H 0.655117 0.951032 -0.060426
  H 4.148735 0.913627 1.128026
  H 4.148749 -0.906942 1.025296
  H 1.407961 -1.077294 3.853121
  H 1.407953 0.764724 3.957063
  H 2.724379 -0.622589 -3.395751
  H 2.724387 1.128395 -3.296955
  H 0.447551 1.079655 -2.294659
  H 0.447545 -0.686894 -2.394334
  H 0.708820 1.216311 -4.766522
  H -0.738164 0.308235 -4.326828
  H 0.708812 -0.544621 -4.865877
