 14
 0.000000
  H 1.425056 0.137817 0.391468
  C 2.506098 0.136188 0.388738
  C 3.194045 0.616198 1.584308
  H 2.499842 0.927124 2.357247
  C 3.124647 -0.324213 -0.756989
  C 4.510376 -0.394494 -0.930879
  C 5.137374 -0.853966 -2.076457
  H 4.626810 -1.210420 -2.964008
  O 6.422038 -0.907213 -2.210943
  H 3.852509 1.452570 1.337769
  H 3.851575 -0.158924 1.985217
  H 2.492880 -0.650857 -1.571411
  H 5.144000 -0.067888 -0.115623
  H 6.939703 -0.595585 -1.438306
 14
 3.469542
  H 1.448524 0.199215 0.310430
  C 2.522100 0.159647 0.359952
  C 3.161820 0.631541 1.587417
  H 2.434401 0.964423 2.322557
  C 3.186567 -0.339329 -0.749938
  C 4.577757 -0.472582 -0.817519
  C 5.109404 -0.895472 -2.013974
  H 4.582328 -1.292928 -2.876266
  O 6.366639 -0.831565 -2.342873
  H 3.866781 1.441905 1.382384
  H 3.752841 -0.169467 2.035053
  H 2.535217 -0.650910 -1.550219
  H 5.190934 -0.136617 0.000187
  H 6.979116 -0.497274 -1.656684
 14
 18.540259
  H 1.464677 0.203559 0.254662
  C 2.548845 0.176518 0.356681
  C 3.114929 0.660083 1.609843
  H 2.312120 0.993543 2.277215
  C 3.290595 -0.339835 -0.719327
  C 4.684688 -0.486985 -0.726377
  C 5.050240 -0.878517 -1.989391
  H 4.589940 -1.341877 -2.865682
  O 6.285874 -0.843735 -2.487250
  H 3.809019 1.477948 1.457225
  H 3.631638 -0.147758 2.132066
  H 2.613607 -0.681101 -1.486592
  H 5.316584 -0.175079 0.065355
  H 6.984231 -0.500963 -1.874724
 14
 22.152294
  H 1.475537 0.278614 0.188668
  C 2.536582 0.171220 0.324835
  C 3.095816 0.656718 1.588583
  H 2.346628 1.096265 2.229165
  C 3.279751 -0.401473 -0.709278
  C 4.666818 -0.628126 -0.640076
  C 5.080877 -0.846268 -1.925053
  H 4.578645 -1.349365 -2.756800
  O 6.255585 -0.740133 -2.520114
  H 3.865080 1.408378 1.390151
  H 3.647034 -0.128888 2.102012
  H 2.580182 -0.733913 -1.459170
  H 5.286845 -0.312822 0.180148
  H 6.985158 -0.351735 -1.982182
 14
 26.790347
  H 1.522141 0.333714 0.127673
  C 2.585647 0.188354 0.283490
  C 3.168176 0.707664 1.528011
  H 2.416479 1.211457 2.134113
  C 3.288370 -0.490456 -0.704484
  C 4.657180 -0.798378 -0.598868
  C 5.050898 -0.854875 -1.912350
  H 4.626414 -1.492694 -2.694675
  O 6.177393 -0.542156 -2.497003
  H 3.954363 1.432548 1.336568
  H 3.603967 -0.092590 2.112895
  H 2.562482 -0.888255 -1.406246
  H 5.228194 -0.576496 0.282441
  H 6.828653 -0.019032 -1.980055
 14
 30.630352
  H 1.554716 0.274562 0.175250
  C 2.619865 0.132355 0.247706
  C 3.313232 0.804540 1.356101
  H 2.638417 1.447900 1.922773
  C 3.217216 -0.663152 -0.698842
  C 4.558098 -1.119879 -0.594415
  C 5.015616 -0.841640 -1.875053
  H 4.670781 -1.431830 -2.710145
  O 6.043236 -0.169296 -2.245335
  H 4.167005 1.380620 1.005250
  H 3.720680 0.070053 2.047756
  H 2.519793 -1.102261 -1.408801
  H 5.105769 -1.006407 0.331893
  H 6.518392 0.341480 -1.548020
 14
 46.528284
  H 1.635329 0.194364 0.105890
  C 2.713448 0.110262 0.147149
  C 3.400635 0.834146 1.220298
  H 2.711641 1.459727 1.773473
  C 3.316516 -0.719085 -0.798869
  C 4.623761 -1.277962 -0.431077
  C 4.897421 -0.794553 -1.710643
  H 4.638488 -1.465143 -2.531186
  O 5.759231 0.079299 -2.147160
  H 4.227729 1.436109 0.839551
  H 3.846496 0.126404 1.913662
  H 2.635154 -1.221987 -1.468161
  H 5.060072 -1.281342 0.545809
  H 6.195017 0.634005 -1.467556
 14
 57.355062
  H 1.753496 0.346727 -0.097686
  C 2.804327 0.136335 0.054275
  C 3.432928 0.773197 1.207241
  H 2.732614 1.412195 1.733643
  C 3.404307 -0.736236 -0.869773
  C 4.701833 -1.330428 -0.324115
  C 4.820692 -0.812886 -1.626368
  H 4.726244 -1.578567 -2.402510
  O 5.619177 0.128051 -2.145276
  H 4.299656 1.368712 0.907743
  H 3.820600 0.040668 1.916320
  H 2.672186 -1.193550 -1.520095
  H 5.034080 -1.323296 0.690251
  H 5.855670 0.850083 -1.537897
 14
 96.593045
  H 1.799263 0.363194 -0.159020
  C 2.860472 0.180525 -0.022770
  C 3.448484 0.763717 1.176138
  H 2.728392 1.373747 1.710223
  C 3.455374 -0.673646 -0.978955
  C 4.822438 -1.405846 -0.163373
  C 4.691928 -0.802759 -1.597335
  H 4.605675 -1.537087 -2.408244
  O 5.512897 0.168025 -2.121088
  H 4.328461 1.361553 0.930847
  H 3.815727 -0.003026 1.865900
  H 2.694188 -1.074893 -1.647652
  H 5.204139 -1.538100 0.814709
  H 5.793510 0.835442 -1.477399
