18

H -2.459329623157206 0.7055524374128532 -0.052428275012844056
C -2.045644 0.5938 -0.015974
C -1.642973 -0.478886 0.645209
C -0.234693 -0.950576 0.822888
C 0.80399 -0.082543 0.126828
C 2.220774 -0.614161 0.340295
C 3.267533 0.220168 -0.408873
H -1.335176 1.248908 -0.496375
H -2.393081 -1.110149 1.109524
H -0.014933 -1.003608 1.894815
H -0.166968 -1.971802 0.431171
H 0.574746 -0.067137 -0.941996
H 0.742056 0.938403 0.510196
H 2.436586 -0.59607 1.410496
H 2.265532 -1.656696 0.020029
H 3.980573 0.671067 0.27714
H 3.823149 -0.389823 -1.116821
H 2.791573 1.024148 -0.968581
