20
 0
 C -2.99820655 0.99261133 -1.43151327
 C -1.51778138 0.61473999 -1.43602958
 C -1.07741026 0.18997634 -0.03868101
 C -1.23560761 -0.49302621 -2.44946933
 O -2.13428308 -1.07316181 -3.06118206
 C 0.20506407 -0.86448147 -2.69637752
 H -3.18780301 1.82025744 -0.74006309
 H -3.62501344 0.14641370 -1.12810430
 H -3.32482480 1.30576794 -2.42913159
 H -0.94415702 1.49514444 -1.75021007
 H -1.58387602 -0.72964213 0.27411948
 H -1.30083585 0.97154354 0.69524076
 H 0.00000000 0.00000000 0.00000000
 H 0.88079569 -0.17293096 -2.18759191
 H 0.41021958 -0.81296050 -3.76881457
 H 0.38356381 -1.87693833 -2.32580288
 O 2.97448175 0.17182727 -0.05419364
 H 3.48878481 -0.67362355 -0.10707899
 H 2.00000000 0.00000000 0.00000000
 H 3.19406979 0.77690170 -0.80766988
