 22
 0.000000
  C 0.924250 0.044516 0.321525
  C 2.387540 0.060161 0.010915
  H 3.038030 0.014791 0.874325
  C 2.971305 0.130384 -1.193979
  C 2.347847 0.209158 -2.564798
  C 0.832632 0.218592 -2.744094
  C 0.482721 0.303583 -4.227415
  C 4.435332 0.131235 -1.209130
  C 5.237067 0.192567 -2.267566
  H 6.310545 0.186922 -2.170196
  H 0.756862 -0.012733 1.395745
  H 0.434871 -0.817430 -0.126451
  H 0.438865 0.950290 -0.036344
  H 2.740175 -0.637874 -3.138682
  H 2.739316 1.116910 -3.037426
  H 0.392581 1.076401 -2.236395
  H 0.393736 -0.692247 -2.337823
  H 0.886769 1.212851 -4.668038
  H -0.596828 0.310647 -4.361780
  H 0.887833 -0.548758 -4.769234
  H 4.903365 0.074662 -0.233092
  H 4.897035 0.251718 -3.288015
 22
 5.861785
  C 0.925624 0.011944 0.340788
  C 2.352938 0.047799 -0.011972
  H 3.059178 -0.015068 0.868508
  C 2.959299 0.125831 -1.204843
  C 2.346943 0.212065 -2.584638
  C 0.829189 0.207426 -2.751235
  C 0.462103 0.297876 -4.229450
  C 4.424321 0.139652 -1.195937
  C 5.235423 0.206283 -2.241924
  H 6.304530 0.202980 -2.113390
  H 0.751947 -0.008526 1.415254
  H 0.349557 -0.785583 -0.126216
  H 0.707456 0.979779 -0.088828
  H 2.747511 -0.626916 -3.163666
  H 2.733408 1.126130 -3.048740
  H 0.384126 1.056489 -2.231835
  H 0.408257 -0.710542 -2.342858
  H 0.853191 1.214374 -4.666701
  H -0.618310 0.293306 -4.355314
  H 0.873903 -0.545957 -4.779394
  H 4.869361 0.083837 -0.210277
  H 4.891048 0.262044 -3.259605
 22
 18.229314
  C 0.922561 0.021976 0.337706
  C 2.332898 0.022861 -0.008723
  H 3.042230 -0.075982 0.863397
  C 2.950066 0.111367 -1.196213
  C 2.340791 0.213253 -2.573398
  C 0.823229 0.173558 -2.745728
  C 0.459130 0.288372 -4.223983
  C 4.412438 0.144788 -1.188628
  C 5.223592 0.217925 -2.238682
  H 6.292881 0.225514 -2.107829
  H 0.722298 0.005445 1.399641
  H 0.283412 -0.657324 -0.195300
  H 0.981492 1.005816 -0.085799
  H 2.760753 -0.605606 -3.167736
  H 2.709186 1.148249 -3.017198
  H 0.350129 0.995443 -2.207966
  H 0.427988 -0.765126 -2.362317
  H 0.826814 1.226347 -4.637986
  H -0.619688 0.256442 -4.354749
  H 0.896699 -0.529469 -4.791664
  H 4.861220 0.096354 -0.199802
  H 4.872909 0.260398 -3.253270
 22
 32.093230
  C 0.905965 0.015601 0.344713
  C 2.317413 0.023768 -0.014548
  H 3.014922 -0.072796 0.858182
  C 2.949298 0.113031 -1.199660
  C 2.343922 0.218031 -2.577132
  C 0.825026 0.163532 -2.745356
  C 0.450271 0.283473 -4.220543
  C 4.409828 0.146680 -1.184238
  C 5.228017 0.221141 -2.231590
  H 6.291573 0.236988 -2.099252
  H 0.703881 -0.001771 1.393908
  H 0.221090 -0.596989 -0.222125
  H 1.169487 0.981168 -0.068177
  H 2.772115 -0.595853 -3.178866
  H 2.704564 1.159845 -3.017825
  H 0.344257 0.977817 -2.198048
  H 0.442944 -0.786726 -2.365520
  H 0.804421 1.228181 -4.630183
  H -0.628800 0.239609 -4.345957
  H 0.894826 -0.525685 -4.795721
  H 4.855851 0.102332 -0.195379
  H 4.887551 0.264186 -3.242293
 22
 44.126264
  C 0.897428 0.004436 0.365550
  C 2.301679 0.031647 -0.028879
  H 2.998734 -0.057875 0.839262
  C 2.946862 0.117411 -1.211983
  C 2.341802 0.219639 -2.592882
  C 0.823600 0.161033 -2.755707
  C 0.441989 0.281345 -4.228328
  C 4.409286 0.150870 -1.180283
  C 5.243650 0.223063 -2.215761
  H 6.303747 0.248801 -2.067357
  H 0.713989 -0.025337 1.419537
  H 0.166540 -0.552758 -0.208847
  H 1.302920 0.952480 -0.029384
  H 2.770907 -0.593436 -3.193496
  H 2.696746 1.160400 -3.031025
  H 0.344407 0.974733 -2.204743
  H 0.447470 -0.793279 -2.373110
  H 0.791260 1.226166 -4.637287
  H -0.638636 0.234500 -4.348354
  H 0.886687 -0.526638 -4.806859
  H 4.844583 0.112828 -0.190143
  H 4.916922 0.263113 -3.235242
 22
 52.382978
  C 0.880127 -0.006616 0.366675
  C 2.294613 0.038778 -0.040151
  H 2.980246 -0.050392 0.832119
  C 2.951775 0.120716 -1.226300
  C 2.350222 0.218777 -2.604782
  C 0.831317 0.156186 -2.753923
  C 0.431553 0.276745 -4.225049
  C 4.412128 0.158414 -1.178366
  C 5.251368 0.227913 -2.206476
  H 6.309275 0.256745 -2.049281
  H 0.701219 -0.059975 1.421514
  H 0.130490 -0.486623 -0.229862
  H 1.416394 0.932951 0.002325
  H 2.775693 -0.590213 -3.208396
  H 2.699480 1.159725 -3.047889
  H 0.356945 0.967623 -2.196645
  H 0.462520 -0.797662 -2.368454
  H 0.774463 1.224458 -4.638753
  H -0.649564 0.227045 -4.333726
  H 0.871614 -0.529420 -4.808872
  H 4.843206 0.124259 -0.173674
  H 4.929528 0.261727 -3.221613
 22
 58.315627
  C 0.864851 -0.025437 0.360509
  C 2.288444 0.046074 -0.037315
  H 2.965122 -0.033865 0.848847
  C 2.960736 0.124489 -1.230062
  C 2.361513 0.216835 -2.607247
  C 0.846910 0.158458 -2.745150
  C 0.439414 0.273032 -4.208862
  C 4.397271 0.161726 -1.178107
  C 5.242750 0.231817 -2.209207
  H 6.308666 0.272121 -2.047187
  H 0.678984 -0.096181 1.401870
  H 0.110206 -0.434867 -0.275012
  H 1.502805 0.919203 0.033065
  H 2.780507 -0.592683 -3.205499
  H 2.709455 1.147595 -3.055277
  H 0.380200 0.973910 -2.188262
  H 0.478521 -0.791248 -2.352925
  H 0.781934 1.214601 -4.627939
  H -0.642374 0.226671 -4.309907
  H 0.873107 -0.537536 -4.791486
  H 4.817482 0.131353 -0.188002
  H 4.915005 0.264227 -3.244211
 22
 63.387898
  C 0.855798 -0.048142 0.349344
  C 2.284723 0.060891 -0.039002
  H 2.951794 -0.019558 0.847198
  C 2.964659 0.134316 -1.234023
  C 2.353879 0.219684 -2.618324
  C 0.842503 0.160060 -2.742852
  C 0.423766 0.269792 -4.201648
  C 4.421117 0.176491 -1.173030
  C 5.275164 0.239196 -2.192152
  H 6.338152 0.259341 -2.017985
  H 0.663558 -0.131056 1.395531
  H 0.099264 -0.395803 -0.322779
  H 1.572768 0.914606 0.056932
  H 2.768757 -0.592770 -3.215661
  H 2.695452 1.147564 -3.072653
  H 0.382143 0.976980 -2.184801
  H 0.477991 -0.789089 -2.343889
  H 0.762598 1.208592 -4.625406
  H -0.660586 0.223232 -4.293456
  H 0.853394 -0.543379 -4.785383
  H 4.838468 0.143692 -0.178984
  H 4.958391 0.257445 -3.232426
 22
 67.227194
  C 0.872464 -0.082741 0.398647
  C 2.295860 0.078543 -0.009208
  H 2.985692 -0.004537 0.863554
  C 2.961826 0.139976 -1.226429
  C 2.356225 0.216238 -2.610065
  C 0.839544 0.162130 -2.760708
  C 0.442148 0.271317 -4.238987
  C 4.386542 0.185656 -1.171467
  C 5.240444 0.242758 -2.205005
  H 6.296857 0.253146 -2.040103
  H 0.689393 -0.165992 1.444019
  H 0.097550 -0.376367 -0.282405
  H 1.639328 0.922008 0.111287
  H 2.773818 -0.596830 -3.195946
  H 2.707364 1.140000 -3.067868
  H 0.371979 0.985466 -2.210835
  H 0.463942 -0.785841 -2.367099
  H 0.793910 1.213390 -4.662620
  H -0.641917 0.228826 -4.349852
  H 0.878402 -0.546086 -4.814604
  H 4.814629 0.155703 -0.165418
  H 4.920796 0.252344 -3.230266
 22
 69.853846
  C 0.865441 -0.121144 0.382206
  C 2.291865 0.098938 -0.004157
  H 2.983997 0.008745 0.873036
  C 2.963280 0.145374 -1.228128
  C 2.353476 0.213842 -2.608745
  C 0.839134 0.166922 -2.755033
  C 0.444172 0.269764 -4.217113
  C 4.397696 0.192648 -1.174276
  C 5.248805 0.243641 -2.204049
  H 6.321378 0.254207 -2.035710
  H 0.659092 -0.193868 1.420556
  H 0.095332 -0.372147 -0.324404
  H 1.681359 0.946413 0.110484
  H 2.767448 -0.609984 -3.191758
  H 2.712936 1.141411 -3.083079
  H 0.380414 0.988896 -2.214193
  H 0.462359 -0.767409 -2.360992
  H 0.798773 1.203062 -4.643626
  H -0.632395 0.232505 -4.324468
  H 0.871319 -0.546039 -4.783539
  H 4.831343 0.166875 -0.165891
  H 4.928141 0.244918 -3.229472
 22
 70.450555
  C 0.883364 -0.180754 0.382644
  C 2.293741 0.127844 0.014914
  H 2.992292 0.020732 0.888529
  C 2.968087 0.146434 -1.224572
  C 2.355450 0.205323 -2.604742
  C 0.839495 0.171995 -2.754148
  C 0.448623 0.276685 -4.227075
  C 4.391125 0.198746 -1.170348
  C 5.251505 0.242240 -2.202055
  H 6.306016 0.262306 -2.030864
  H 0.646591 -0.228145 1.430583
  H 0.117106 -0.366370 -0.332292
  H 1.734271 0.997093 0.125560
  H 2.765068 -0.632770 -3.182870
  H 2.720859 1.120128 -3.085421
  H 0.384042 1.006738 -2.211614
  H 0.448370 -0.769075 -2.355434
  H 0.813604 1.206306 -4.654785
  H -0.633866 0.249469 -4.339060
  H 0.872674 -0.549935 -4.795251
  H 4.815791 0.188406 -0.179009
  H 4.936966 0.236523 -3.227249
 22
 68.504219
  C 0.902755 -0.262435 0.369724
  C 2.281756 0.161035 0.026995
  H 2.977753 0.048645 0.895656
  C 2.972161 0.148933 -1.224413
  C 2.359302 0.196711 -2.598836
  C 0.838597 0.177337 -2.747447
  C 0.447867 0.284769 -4.218098
  C 4.393009 0.210376 -1.167443
  C 5.255168 0.238679 -2.198577
  H 6.316393 0.260026 -2.024817
  H 0.631638 -0.255410 1.405117
  H 0.136451 -0.398889 -0.358919
  H 1.787425 1.076423 0.110660
  H 2.761006 -0.648983 -3.166984
  H 2.734747 1.107680 -3.093811
  H 0.393590 1.014111 -2.206587
  H 0.439202 -0.756199 -2.350130
  H 0.822089 1.212997 -4.647907
  H -0.636789 0.267727 -4.328966
  H 0.864189 -0.547970 -4.786694
  H 4.819101 0.216344 -0.175074
  H 4.941181 0.213363 -3.226280
 22
 65.771281
  C 0.929633 -0.335717 0.373268
  C 2.268423 0.189185 0.034735
  H 2.969456 0.082000 0.899676
  C 2.976565 0.146657 -1.227028
  C 2.362166 0.184363 -2.602499
  C 0.835397 0.184408 -2.749582
  C 0.443517 0.296837 -4.218894
  C 4.389168 0.212172 -1.159489
  C 5.262498 0.231587 -2.187643
  H 6.326836 0.277358 -2.004730
  H 0.635100 -0.268347 1.402272
  H 0.158430 -0.456329 -0.357540
  H 1.846855 1.153350 0.073328
  H 2.753100 -0.672109 -3.161081
  H 2.747758 1.082180 -3.107957
  H 0.401703 1.028481 -2.205515
  H 0.424641 -0.739429 -2.352827
  H 0.832031 1.227834 -4.653455
  H -0.642869 0.294081 -4.327357
  H 0.847799 -0.541276 -4.787707
  H 4.808636 0.243027 -0.165055
  H 4.956067 0.205548 -3.216672
