 20
 0.000000
  C 0.967162 0.190942 0.525715
  C 2.412444 0.106923 0.319075
  H 3.063464 0.429720 1.122869
  C 2.974436 -0.362676 -0.849317
  C 4.361125 -0.426800 -1.009969
  C 5.110126 -0.864840 -2.104383
  C 4.667453 -1.392217 -3.420241
  C 3.191606 -1.526383 -3.753066
  H 3.105316 -1.929930 -4.760615
  O 6.421228 -0.833448 -2.028427
  H 0.711503 0.584315 1.503998
  H 0.508768 -0.792400 0.396758
  H 0.510009 0.812232 -0.248098
  H 2.313605 -0.679397 -1.638181
  H 4.939238 -0.084522 -0.157171
  H 5.153861 -2.368386 -3.530125
  H 5.152948 -0.761492 -4.173968
  H 2.690469 -0.563240 -3.742927
  H 2.691388 -2.216801 -3.080677
  H 6.778623 -0.495595 -1.183464
 20
 1.288578
  C 0.964936 0.217183 0.499210
  C 2.406245 0.023753 0.338677
  H 3.035868 0.107652 1.214018
  C 2.985009 -0.267535 -0.875084
  C 4.363873 -0.436114 -1.002137
  C 5.113208 -0.825814 -2.115613
  C 4.666318 -1.399813 -3.407647
  C 3.190324 -1.603878 -3.692938
  H 3.092574 -2.101706 -4.651731
  O 6.425209 -0.807408 -2.030950
  H 0.684490 0.408747 1.529040
  H 0.419773 -0.653024 0.126194
  H 0.625266 1.044541 -0.129302
  H 2.346746 -0.342140 -1.735822
  H 4.941116 -0.283247 -0.100766
  H 5.190656 -2.357989 -3.500767
  H 5.107565 -0.773257 -4.191284
  H 2.663622 -0.658524 -3.764921
  H 2.723882 -2.235040 -2.943587
  H 6.786156 -0.212218 -1.348847
 20
 5.933565
  C 0.948106 0.190903 0.486750
  C 2.383702 -0.037621 0.333452
  H 2.991154 -0.113116 1.225421
  C 2.985810 -0.180512 -0.894061
  C 4.360818 -0.396260 -1.012052
  C 5.116572 -0.811504 -2.105134
  C 4.673770 -1.449778 -3.366048
  C 3.190491 -1.605057 -3.651971
  H 3.070502 -2.154363 -4.582175
  O 6.437454 -0.834390 -1.962948
  H 0.641788 0.220234 1.526580
  H 0.378041 -0.575054 -0.043369
  H 0.667189 1.128473 -0.000270
  H 2.375490 -0.095796 -1.778124
  H 4.962948 -0.293618 -0.115844
  H 5.161230 -2.432491 -3.390931
  H 5.150978 -0.892229 -4.180604
  H 2.708274 -0.640738 -3.778262
  H 2.691497 -2.165682 -2.866477
  H 6.841334 -0.011652 -1.638133
 20
 11.665325
  C 0.924732 0.135882 0.464176
  C 2.359069 -0.096822 0.317326
  H 2.941976 -0.303746 1.204681
  C 2.988986 -0.102769 -0.900631
  C 4.364594 -0.338767 -1.011672
  C 5.122307 -0.804463 -2.075331
  C 4.677873 -1.491453 -3.306108
  C 3.191688 -1.577072 -3.603776
  H 3.045306 -2.162238 -4.507710
  O 6.451465 -0.836787 -1.876543
  H 0.589840 0.025719 1.489621
  H 0.354770 -0.533926 -0.183114
  H 0.675652 1.138768 0.106262
  H 2.408957 0.107649 -1.784965
  H 4.995458 -0.158513 -0.148450
  H 5.111481 -2.499235 -3.262573
  H 5.195049 -1.011016 -4.145238
  H 2.767251 -0.592925 -3.775432
  H 2.654855 -2.067474 -2.796043
  H 6.925492 -0.000791 -2.006801
 20
 14.437708
  C 0.888617 0.088062 0.434558
  C 2.325496 -0.144910 0.296440
  H 2.880908 -0.476378 1.163384
  C 2.986437 -0.010528 -0.894562
  C 4.364403 -0.263364 -1.009963
  C 5.122629 -0.764548 -2.053748
  C 4.682597 -1.490462 -3.261545
  C 3.188346 -1.564065 -3.526752
  H 3.010822 -2.156148 -4.420195
  O 6.441543 -0.773282 -1.787601
  H 0.526981 -0.144717 1.430191
  H 0.325545 -0.489420 -0.301292
  H 0.662685 1.131717 0.199142
  H 2.438888 0.331850 -1.760712
  H 5.041289 -0.020255 -0.195047
  H 5.100807 -2.500828 -3.172993
  H 5.182773 -1.051052 -4.132445
  H 2.770947 -0.576415 -3.694300
  H 2.666099 -2.034628 -2.697708
  H 6.991315 -0.193197 -2.334184
 20
 25.159217
  C 0.880057 0.108091 0.442760
  C 2.290507 -0.234497 0.248186
  H 2.794295 -0.805023 1.017662
  C 2.982526 0.102693 -0.880781
  C 4.330811 -0.244742 -1.069047
  C 5.101165 -0.754278 -2.095569
  C 4.725504 -1.556054 -3.270919
  C 3.225521 -1.664304 -3.494909
  H 3.030000 -2.297987 -4.356416
  O 6.408341 -0.626170 -1.774500
  H 0.476613 -0.321660 1.353648
  H 0.276391 -0.215815 -0.407810
  H 0.768195 1.194032 0.475570
  H 2.500588 0.711997 -1.632133
  H 5.170329 -0.038697 -0.388321
  H 5.170344 -2.548629 -3.153712
  H 5.195466 -1.121735 -4.160099
  H 2.785697 -0.691255 -3.684234
  H 2.736862 -2.115498 -2.634650
  H 6.946384 -0.049224 -2.333381
 20
 47.615001
  C 0.882522 0.169597 0.602796
  C 2.255949 -0.235294 0.291439
  H 2.775395 -0.871752 0.994251
  C 2.885399 0.132484 -0.866688
  C 4.186030 -0.249919 -1.182802
  C 5.005321 -0.754558 -2.136894
  C 4.793552 -1.587453 -3.335456
  C 3.314380 -1.763781 -3.660825
  H 3.196028 -2.389196 -4.540566
  O 6.294845 -0.571351 -1.659701
  H 0.524222 -0.280120 1.522923
  H 0.204826 -0.089730 -0.212513
  H 0.828395 1.257210 0.692990
  H 2.379050 0.812448 -1.543848
  H 5.262194 -0.081436 -0.573001
  H 5.264549 -2.560556 -3.168276
  H 5.304945 -1.120955 -4.183251
  H 2.850247 -0.802268 -3.860129
  H 2.790953 -2.227949 -2.829226
  H 6.866276 0.043650 -2.155328
 20
 61.428253
  C 0.882439 0.203648 0.684614
  C 2.228574 -0.248997 0.298434
  H 2.743580 -0.935273 0.954524
  C 2.829439 0.144342 -0.867320
  C 4.086231 -0.256681 -1.259317
  C 4.928010 -0.740269 -2.145819
  C 4.814021 -1.595875 -3.349915
  C 3.360317 -1.821988 -3.748879
  H 3.311842 -2.462105 -4.625488
  O 6.243300 -0.510918 -1.586408
  H 0.541940 -0.271234 1.598762
  H 0.163478 0.007664 -0.112246
  H 0.879173 1.286394 0.827053
  H 2.325942 0.880285 -1.486969
  H 5.469359 -0.109435 -0.654156
  H 5.304499 -2.552108 -3.148342
  H 5.352011 -1.121014 -4.175150
  H 2.874976 -0.879194 -3.986874
  H 2.810628 -2.302048 -2.943362
  H 6.814947 0.108947 -2.090190
 20
 54.304540
  C 0.873467 0.221173 0.715965
  C 2.192749 -0.269921 0.280443
  H 2.679137 -1.015705 0.887032
  C 2.795983 0.173300 -0.863476
  C 4.020303 -0.239969 -1.305782
  C 4.879897 -0.726467 -2.151687
  C 4.828272 -1.621097 -3.331680
  C 3.388429 -1.859522 -3.778770
  H 3.374063 -2.533264 -4.630178
  O 6.246564 -0.448347 -1.573758
  H 0.531057 -0.304912 1.601727
  H 0.129486 0.081564 -0.068086
  H 0.916556 1.287012 0.938920
  H 2.308534 0.966552 -1.423291
  H 5.709436 -0.129525 -0.751694
  H 5.333754 -2.558919 -3.091472
  H 5.366776 -1.142869 -4.155066
  H 2.911899 -0.923722 -4.058588
  H 2.809179 -2.325714 -2.985500
  H 6.789154 0.183607 -2.100917
 20
 48.720066
  C 0.869056 0.235547 0.735127
  C 2.192515 -0.250677 0.289439
  H 2.712397 -0.961570 0.915328
  C 2.767595 0.153255 -0.890308
  C 3.988190 -0.250222 -1.331612
  C 4.876246 -0.699857 -2.156383
  C 4.832946 -1.571856 -3.357774
  C 3.401614 -1.887882 -3.774805
  H 3.405381 -2.523717 -4.654803
  O 6.255400 -0.501480 -1.569891
  H 0.539048 -0.260022 1.641784
  H 0.121170 0.104962 -0.049679
  H 0.907571 1.312197 0.917460
  H 2.249746 0.895640 -1.490409
  H 5.825768 -0.166663 -0.731994
  H 5.362489 -2.501532 -3.132984
  H 5.370482 -1.083034 -4.174388
  H 2.855697 -0.977552 -4.020434
  H 2.874523 -2.399391 -2.975397
  H 6.818701 0.132846 -2.072349
 20
 43.299113
  C 0.849816 0.201435 0.710300
  C 2.196357 -0.242264 0.289316
  H 2.710533 -0.967993 0.904732
  C 2.778493 0.193005 -0.877896
  C 3.976339 -0.228874 -1.353338
  C 4.882538 -0.709164 -2.134081
  C 4.832925 -1.609953 -3.315260
  C 3.404075 -1.850225 -3.777143
  H 3.398211 -2.511416 -4.637258
  O 6.292878 -0.500300 -1.636864
  H 0.524388 -0.304898 1.613579
  H 0.119538 0.028245 -0.081581
  H 0.845109 1.278122 0.894950
  H 2.275417 0.973743 -1.440273
  H 6.048260 -0.201822 -0.723215
  H 5.302227 -2.559742 -3.052709
  H 5.409178 -1.169280 -4.128734
  H 2.930921 -0.914691 -4.062356
  H 2.814350 -2.305106 -2.987972
  H 6.795601 0.169058 -2.156464
 20
 40.404894
  C 0.842274 0.218243 0.717031
  C 2.142226 -0.298257 0.237245
  H 2.609094 -1.099557 0.789254
  C 2.754849 0.194124 -0.890907
  C 3.951773 -0.217733 -1.363444
  C 4.882580 -0.675532 -2.127930
  C 4.841036 -1.588906 -3.310975
  C 3.412344 -1.890911 -3.744217
  H 3.417342 -2.561062 -4.599171
  O 6.294626 -0.469893 -1.669988
  H 0.488036 -0.334951 1.581248
  H 0.088931 0.164530 -0.070622
  H 0.926670 1.272247 0.989682
  H 2.288196 1.028283 -1.404520
  H 6.179972 -0.199787 -0.730888
  H 5.357430 -2.516539 -3.053333
  H 5.379376 -1.122926 -4.139039
  H 2.894246 -0.978472 -4.027135
  H 2.856759 -2.365219 -2.939681
  H 6.779391 0.210199 -2.194880
 20
 39.656419
  C 0.821768 0.223500 0.709630
  C 2.131489 -0.283923 0.244440
  H 2.606928 -1.066267 0.816010
  C 2.742321 0.193963 -0.890603
  C 3.937265 -0.223898 -1.363116
  C 4.884360 -0.669901 -2.111979
  C 4.839308 -1.570381 -3.309851
  C 3.410390 -1.888370 -3.730663
  H 3.415393 -2.539927 -4.599971
  O 6.303758 -0.469522 -1.701212
  H 0.490058 -0.293630 1.604685
  H 0.063403 0.105301 -0.066279
  H 0.878912 1.292119 0.925449
  H 2.262703 1.005267 -1.428509
  H 6.351570 -0.346905 -0.726141
  H 5.372489 -2.494322 -3.076354
  H 5.356442 -1.078560 -4.136320
  H 2.872220 -0.979663 -3.986646
  H 2.873869 -2.389275 -2.929160
  H 6.772504 0.242277 -2.195678
 20
 38.275523
  C 0.842978 0.236158 0.739556
  C 2.072034 -0.337247 0.150088
  H 2.432600 -1.280434 0.530818
  C 2.755089 0.286407 -0.871040
  C 3.879560 -0.182763 -1.445754
  C 4.852522 -0.673853 -2.124713
  C 4.852833 -1.606873 -3.293383
  C 3.437512 -1.973026 -3.722142
  H 3.470234 -2.656596 -4.565822
  O 6.271056 -0.405662 -1.697558
  H 0.431426 -0.410809 1.508165
  H 0.085722 0.394617 -0.030448
  H 1.045457 1.215076 1.178801
  H 2.381108 1.235239 -1.239267
  H 6.319263 -0.167234 -0.743569
  H 5.400189 -2.509749 -3.013673
  H 5.375763 -1.140435 -4.130894
  H 2.883575 -1.086130 -4.018376
  H 2.899653 -2.455350 -2.910114
  H 6.698579 0.286547 -2.252942
