 14
 0.000000
  C 0.968186 0.138208 0.387715
  C 2.424893 0.111595 0.329339
  H 2.992981 0.453722 1.182108
  C 3.091760 -0.337281 -0.788711
  C 4.486725 -0.374320 -0.883373
  C 5.144821 -0.825664 -2.013196
  H 4.603772 -1.172833 -2.885923
  O 6.425519 -0.886388 -2.162560
  H 0.581998 0.521773 1.325305
  H 0.575636 -0.866760 0.217112
  H 0.575685 0.733903 -0.440630
  H 2.511349 -0.676422 -1.635818
  H 5.072892 -0.037822 -0.037240
  H 6.951249 -0.579660 -1.394848
 14
 0.535803
  C 0.974893 0.069011 0.414605
  C 2.418263 0.210796 0.272451
  H 2.984726 0.602263 1.106232
  C 3.095224 -0.184302 -0.860902
  C 4.487330 -0.291278 -0.906745
  C 5.146420 -0.793476 -2.015366
  H 4.600906 -1.013347 -2.927244
  O 6.409027 -1.040979 -2.101816
  H 0.605953 0.460430 1.357169
  H 0.720369 -0.993804 0.336047
  H 0.448306 0.534996 -0.421171
  H 2.528570 -0.477663 -1.734182
  H 5.056099 -0.035936 -0.022287
  H 6.932885 -0.844573 -1.296136
 14
 2.611642
  C 0.996911 0.007017 0.429591
  C 2.403259 0.332957 0.230127
  H 2.950572 0.793635 1.041700
  C 3.087797 -0.025269 -0.913079
  C 4.466568 -0.228711 -0.922477
  C 5.121875 -0.751729 -2.023355
  H 4.605719 -0.859088 -2.972642
  O 6.348346 -1.152394 -2.059609
  H 0.612843 0.364687 1.377438
  H 0.918181 -1.085990 0.388238
  H 0.374565 0.362722 -0.393133
  H 2.527279 -0.258771 -1.808471
  H 5.020066 -0.068911 -0.006331
  H 6.845274 -1.058691 -1.220058
 14
 5.956475
  C 1.040002 -0.058308 0.451614
  C 2.388340 0.429539 0.193398
  H 2.904629 0.974344 0.974224
  C 3.085100 0.090954 -0.951829
  C 4.442048 -0.213547 -0.924206
  C 5.107165 -0.730360 -2.020933
  H 4.636940 -0.737872 -2.999256
  O 6.291791 -1.245259 -2.018460
  H 0.644264 0.278184 1.402745
  H 1.127034 -1.149908 0.449437
  H 0.345685 0.177147 -0.356198
  H 2.536855 -0.070990 -1.871788
  H 4.962849 -0.152672 0.022925
  H 6.747619 -1.239226 -1.151045
 14
 10.292054
  C 1.088989 -0.119889 0.488341
  C 2.382218 0.466008 0.163949
  H 2.846001 1.138667 0.875403
  C 3.089932 0.119387 -0.979706
  C 4.426786 -0.249644 -0.932272
  C 5.131476 -0.692241 -2.034736
  H 4.737624 -0.554000 -3.036536
  O 6.277326 -1.292118 -2.013265
  H 0.695227 0.226504 1.436837
  H 1.276782 -1.197723 0.531603
  H 0.348247 0.019550 -0.300616
  H 2.560748 0.044388 -1.922939
  H 4.892584 -0.316359 0.042960
  H 6.667350 -1.406341 -1.122517
 14
 15.638994
  C 1.137366 -0.179270 0.519455
  C 2.368562 0.507689 0.148388
  H 2.766744 1.265499 0.813772
  C 3.099841 0.187079 -0.991584
  C 4.396371 -0.295489 -0.936878
  C 5.126014 -0.675988 -2.046547
  H 4.761983 -0.472081 -3.047829
  O 6.263684 -1.295632 -2.030485
  H 0.733065 0.170389 1.466742
  H 1.394968 -1.242451 0.591542
  H 0.366374 -0.110810 -0.255139
  H 2.602546 0.241105 -1.954520
  H 4.822965 -0.459843 0.045556
  H 6.613461 -1.487310 -1.138411
 14
 22.732104
  C 1.209693 -0.244128 0.568410
  C 2.342707 0.561213 0.133498
  H 2.630456 1.431563 0.709327
  C 3.111119 0.234495 -1.009445
  C 4.369049 -0.313185 -0.944202
  C 5.114839 -0.654785 -2.056667
  H 4.799999 -0.353840 -3.051074
  O 6.209197 -1.351204 -2.051133
  H 0.793134 0.094582 1.510137
  H 1.564340 -1.275456 0.655886
  H 0.417699 -0.276609 -0.183177
  H 2.667302 0.420173 -1.984326
  H 4.759436 -0.567958 0.032322
  H 6.530404 -1.604938 -1.162390
 14
 30.024802
  C 1.305387 -0.298457 0.616372
  C 2.312296 0.621619 0.109131
  H 2.485011 1.562977 0.616215
  C 3.135799 0.311410 -1.023564
  C 4.326852 -0.355216 -0.948386
  C 5.086132 -0.672790 -2.073422
  H 4.792074 -0.323628 -3.057190
  O 6.168965 -1.379443 -2.077892
  H 0.866337 0.043082 1.546741
  H 1.736495 -1.297097 0.733736
  H 0.509219 -0.437468 -0.123487
  H 2.761563 0.610668 -1.999339
  H 4.683428 -0.674561 0.022244
  H 6.464871 -1.688235 -1.196880
 14
 19.402287
  C 1.389554 -0.334092 0.668514
  C 2.287537 0.642495 0.054674
  H 2.299177 1.653764 0.439902
  C 3.150472 0.349800 -1.013866
  C 4.269406 -0.450300 -0.954975
  C 5.038448 -0.695437 -2.081305
  H 4.738438 -0.313499 -3.052654
  O 6.146175 -1.367348 -2.115868
  H 0.928080 0.038825 1.577819
  H 1.859300 -1.306576 0.831850
  H 0.601944 -0.562470 -0.056683
  H 2.908978 0.814760 -1.962890
  H 4.568577 -0.859097 -0.000681
  H 6.435854 -1.731121 -1.248550
 14
 10.521368
  C 1.512591 -0.348541 0.718367
  C 2.257303 0.680528 0.013688
  H 2.045355 1.714841 0.252163
  C 3.172137 0.428988 -1.004436
  C 4.241256 -0.461818 -0.959117
  C 5.019773 -0.688955 -2.076987
  H 4.794702 -0.198438 -3.016865
  O 6.069602 -1.439267 -2.134536
  H 1.009134 0.027736 1.602839
  H 2.104644 -1.239218 0.930493
  H 0.746245 -0.720612 0.026300
  H 3.035071 0.993949 -1.922327
  H 4.485231 -0.939767 -0.021766
  H 6.311585 -1.876947 -1.288290
 14
 5.135027
  C 1.617047 -0.368797 0.751541
  C 2.214939 0.681254 -0.062175
  H 1.855286 1.692065 0.083614
  C 3.184936 0.477909 -1.019148
  C 4.213142 -0.471574 -0.973924
  C 5.017931 -0.687895 -2.073743
  H 4.813708 -0.185440 -3.013147
  O 6.027266 -1.494233 -2.135390
  H 1.166554 0.014545 1.662530
  H 2.288587 -1.203143 0.939414
  H 0.804722 -0.808996 0.158761
  H 3.168209 1.139853 -1.878415
  H 4.412486 -0.983847 -0.043038
  H 6.238713 -1.960129 -1.300290
 14
 4.037931
  C 1.728471 -0.395575 0.727041
  C 2.176369 0.706067 -0.112040
  H 1.654538 1.651161 -0.047987
  C 3.202920 0.564016 -1.024204
  C 4.193720 -0.428424 -0.957671
  C 5.006272 -0.703595 -2.036741
  H 4.846420 -0.207935 -2.988371
  O 5.965878 -1.564514 -2.065393
  H 1.360089 -0.069258 1.694571
  H 2.497682 -1.163056 0.770755
  H 0.876727 -0.872713 0.227400
  H 3.250183 1.257602 -1.855237
  H 4.382274 -0.932005 -0.020126
  H 6.131898 -2.035023 -1.221961
