 17
 0.000000
  H 1.433147 -0.076807 0.037155
  C 2.505495 -0.083285 0.024535
  C 3.220129 -0.594349 -0.978576
  C 4.657629 -0.605025 -0.999390
  C 5.378851 -1.120210 -2.010590
  C 6.816691 -1.130078 -2.029870
  C 7.533731 -1.641528 -3.034617
  C 9.023056 -1.662293 -3.075702
  H 3.002377 0.352257 0.879513
  H 2.710304 -1.028048 -1.829925
  H 5.161559 -0.170109 -0.145651
  H 4.875135 -1.555199 -2.864458
  H 7.324289 -0.695446 -1.177956
  H 7.033555 -2.077331 -3.890183
  H 9.458249 -1.209871 -2.186758
  H 9.381995 -1.117028 -3.949881
  H 9.381154 -2.690118 -3.148849
 17
 0.201258
  H 1.426618 -0.071293 0.011129
  C 2.502522 -0.047163 0.010058
  C 3.221840 -0.603357 -0.963054
  C 4.659136 -0.593771 -1.002514
  C 5.384049 -1.154494 -1.985512
  C 6.819543 -1.145331 -2.029780
  C 7.539271 -1.688655 -3.014583
  C 9.027582 -1.663534 -3.082322
  H 2.972060 0.452909 0.841382
  H 2.724024 -1.099607 -1.786922
  H 5.162745 -0.099025 -0.181018
  H 4.877809 -1.648451 -2.806030
  H 7.324678 -0.660325 -1.203252
  H 7.034303 -2.169842 -3.842985
  H 9.460991 -1.484180 -2.101136
  H 9.357486 -0.865196 -3.749712
  H 9.411988 -2.602310 -3.476921
 17
 0.800408
  H 1.426042 -0.065061 0.008002
  C 2.501207 -0.019445 -0.007679
  C 3.220829 -0.613525 -0.957886
  C 4.657092 -0.577365 -1.015559
  C 5.382338 -1.176623 -1.975458
  C 6.816205 -1.140077 -2.038506
  C 7.539534 -1.720793 -2.998847
  C 9.029508 -1.657907 -3.083117
  H 2.969624 0.534659 0.789318
  H 2.724124 -1.163953 -1.747235
  H 5.159485 -0.028396 -0.228954
  H 4.877175 -1.725183 -2.761179
  H 7.318173 -0.594355 -1.248553
  H 7.035172 -2.256593 -3.792587
  H 9.483393 -1.776878 -2.100861
  H 9.345731 -0.690986 -3.478676
  H 9.411342 -2.432185 -3.743837
 17
 1.072247
  H 1.421272 -0.064650 -0.000556
  C 2.495030 0.002464 -0.029530
  C 3.218422 -0.625396 -0.954836
  C 4.652980 -0.562388 -1.029038
  C 5.382067 -1.196198 -1.963519
  C 6.813934 -1.131119 -2.044177
  C 7.543446 -1.740584 -2.982019
  C 9.032814 -1.650435 -3.079042
  H 2.958721 0.607071 0.732744
  H 2.726370 -1.226559 -1.709352
  H 5.150680 0.037592 -0.277523
  H 4.881481 -1.795969 -2.713983
  H 7.307505 -0.533101 -1.287243
  H 7.045539 -2.336322 -3.735845
  H 9.506555 -2.065985 -2.189844
  H 9.352780 -0.611340 -3.167355
  H 9.394194 -2.194584 -3.947629
 17
 0.768926
  H 1.413348 -0.049960 -0.022521
  C 2.486061 0.029368 -0.058795
  C 3.214016 -0.628358 -0.959425
  C 4.647381 -0.550483 -1.042262
  C 5.381240 -1.216086 -1.950371
  C 6.811686 -1.132038 -2.042446
  C 7.551532 -1.763585 -2.956772
  C 9.035982 -1.638245 -3.067475
  H 2.944720 0.671695 0.675118
  H 2.726900 -1.267241 -1.685589
  H 5.139968 0.088849 -0.320360
  H 4.885707 -1.855247 -2.671130
  H 7.294925 -0.494859 -1.310951
  H 7.069430 -2.414560 -3.674496
  H 9.535046 -2.310376 -2.368486
  H 9.360374 -0.620851 -2.848098
  H 9.363211 -1.895238 -4.072581
 17
 0.404599
  H 1.403724 -0.016273 -0.062995
  C 2.476624 0.062680 -0.095972
  C 3.209511 -0.619391 -0.974272
  C 4.643349 -0.543925 -1.051312
  C 5.382524 -1.238932 -1.932487
  C 6.813112 -1.149599 -2.025405
  C 7.561895 -1.803979 -2.915530
  C 9.034984 -1.623875 -3.053831
  H 2.931131 0.724864 0.622713
  H 2.726245 -1.276992 -1.685968
  H 5.131826 0.119059 -0.348033
  H 4.891142 -1.901445 -2.634537
  H 7.290159 -0.490274 -1.309580
  H 7.098496 -2.505242 -3.597490
  H 9.577948 -2.469685 -2.632603
  H 9.357641 -0.707575 -2.561227
  H 9.300326 -1.552743 -4.108585
 17
 2.087272
  H 1.405013 0.049458 -0.114953
  C 2.479817 0.111887 -0.137518
  C 3.211365 -0.589209 -1.002444
  C 4.648089 -0.548660 -1.055648
  C 5.385181 -1.274250 -1.914434
  C 6.816097 -1.204037 -1.996873
  C 7.575419 -1.896532 -2.851896
  C 9.018890 -1.594832 -3.052527
  H 2.936946 0.766174 0.585890
  H 2.723683 -1.227583 -1.728619
  H 5.141462 0.100742 -0.342994
  H 4.889075 -1.920547 -2.626576
  H 7.293260 -0.574309 -1.254378
  H 7.149349 -2.695431 -3.447132
  H 9.660529 -2.459931 -2.912520
  H 9.297219 -0.768196 -2.403023
  H 9.161730 -1.234867 -4.075855
 17
 10.703694
  H 1.415157 0.087924 -0.119184
  C 2.492724 0.104807 -0.120303
  C 3.210902 -0.526673 -1.049516
  C 4.650321 -0.571165 -1.060962
  C 5.376105 -1.195079 -2.011654
  C 6.806580 -1.201401 -2.048976
  C 7.570292 -1.950933 -2.849488
  C 9.015440 -1.588516 -3.016174
  H 2.965081 0.605321 0.715390
  H 2.705974 -1.092110 -1.827930
  H 5.162548 0.010980 -0.301039
  H 4.863486 -1.766875 -2.773124
  H 7.275034 -0.724318 -1.195097
  H 7.196896 -2.837208 -3.333663
  H 9.709589 -2.420128 -2.942896
  H 9.190735 -0.754826 -2.345516
  H 9.140801 -1.120579 -3.996642
 17
 29.994977
  H 1.466311 0.216839 -0.244188
  C 2.545206 0.159454 -0.175102
  C 3.273679 -0.448001 -1.112625
  C 4.695934 -0.622478 -1.028020
  C 5.419887 -1.334940 -1.911990
  C 6.847059 -1.387125 -1.919962
  C 7.597459 -2.104886 -2.790703
  C 8.916219 -1.487811 -3.098926
  H 2.982925 0.561111 0.716501
  H 2.783420 -0.763562 -2.024073
  H 5.173159 -0.150269 -0.170735
  H 4.897616 -1.799348 -2.741929
  H 7.306874 -1.058218 -0.996854
  H 7.278206 -3.048067 -3.206617
  H 9.786825 -2.132046 -3.071141
  H 8.812256 -0.630086 -2.416918
  H 8.905141 -0.895112 -4.017658
 17
 55.253772
  H 1.502453 0.306648 -0.247027
  C 2.580368 0.214456 -0.183786
  C 3.274677 -0.494751 -1.063530
  C 4.700451 -0.647223 -1.028585
  C 5.425003 -1.278787 -1.985065
  C 6.849317 -1.401648 -1.963782
  C 7.628485 -2.167765 -2.813622
  C 8.901937 -1.457442 -3.050528
  H 3.061041 0.722323 0.632524
  H 2.756690 -0.974228 -1.884147
  H 5.207886 -0.223931 -0.168584
  H 4.903864 -1.700947 -2.846392
  H 7.241849 -1.244542 -0.982056
  H 7.392091 -3.137483 -3.192435
  H 9.788840 -2.054818 -3.135609
  H 8.553669 -0.601037 -2.347661
  H 8.841149 -0.755935 -3.887568
 17
 81.277979
  H 1.522008 0.295642 -0.326462
  C 2.588049 0.190266 -0.222990
  C 3.326895 -0.450579 -1.127454
  C 4.749955 -0.620752 -1.027121
  C 5.494057 -1.271600 -1.940119
  C 6.933584 -1.394554 -1.884674
  C 7.678474 -2.246663 -2.755813
  C 8.791672 -1.506032 -3.165099
  H 3.030906 0.631379 0.655063
  H 2.854482 -0.884647 -2.000085
  H 5.229382 -0.189232 -0.156642
  H 5.013003 -1.679953 -2.820919
  H 7.337765 -1.240882 -0.888434
  H 7.451262 -3.272970 -2.999605
  H 9.748314 -1.995772 -3.355996
  H 8.108990 -0.547791 -2.237362
  H 8.653527 -0.670155 -3.837812
 17
 59.401516
  H 1.486743 0.234721 -0.378429
  C 2.566731 0.165797 -0.256491
  C 3.341352 -0.458536 -1.145052
  C 4.770056 -0.582161 -1.006799
  C 5.556467 -1.193899 -1.921570
  C 7.006247 -1.321078 -1.828948
  C 7.718352 -2.258458 -2.727559
  C 8.755169 -1.585382 -3.267800
  H 2.972698 0.606663 0.617933
  H 2.894803 -0.911899 -2.042498
  H 5.236461 -0.124295 -0.106352
  H 5.116390 -1.587915 -2.808132
  H 7.395133 -1.242974 -0.772100
  H 7.469866 -3.295448 -2.878813
  H 9.672600 -2.082966 -3.588419
  H 7.829309 -0.486679 -2.105935
  H 8.605920 -0.678559 -3.823426
 17
 27.319122
  H 1.473573 0.140297 -0.374993
  C 2.535954 0.114769 -0.258029
  C 3.340837 -0.482474 -1.144360
  C 4.769794 -0.550170 -1.005484
  C 5.565657 -1.145141 -1.898387
  C 7.047959 -1.196922 -1.796647
  C 7.787374 -2.190901 -2.657106
  C 8.774975 -1.687277 -3.389257
  H 2.935043 0.602850 0.613194
  H 2.910118 -0.959387 -2.019808
  H 5.198845 -0.061909 -0.134159
  H 5.136726 -1.551209 -2.812388
  H 7.401288 -1.223573 -0.754828
  H 7.518759 -3.236375 -2.636411
  H 9.581665 -2.270518 -3.816658
  H 7.589176 -0.265568 -2.086256
  H 8.683724 -0.719351 -3.853117
 17
 11.484549
  H 1.453650 -0.004304 -0.391873
  C 2.519229 -0.039728 -0.236271
  C 3.355753 -0.474207 -1.173627
  C 4.791718 -0.492680 -1.023275
  C 5.626768 -0.967377 -1.946551
  C 7.112869 -1.013765 -1.800496
  C 7.767651 -2.098095 -2.592983
  C 8.727916 -1.851673 -3.462921
  H 2.877844 0.321742 0.716191
  H 2.974158 -0.826626 -2.119102
  H 5.183609 -0.076898 -0.103766
  H 5.232867 -1.382915 -2.865474
  H 7.392962 -1.108710 -0.745526
  H 7.422157 -3.106321 -2.408871
  H 9.289123 -2.642479 -3.945923
  H 7.574075 -0.068686 -2.121754
  H 8.949122 -0.850139 -3.802476
 17
 9.036063
  H 1.470880 -0.250508 -0.307515
  C 2.539229 -0.245909 -0.176286
  C 3.374741 -0.503448 -1.177074
  C 4.813582 -0.506738 -1.041633
  C 5.652026 -0.745634 -2.048845
  C 7.142396 -0.747296 -1.934723
  C 7.726662 -2.011516 -2.488973
  C 8.686532 -2.056270 -3.393488
  H 2.899082 -0.020167 0.814527
  H 2.988939 -0.727147 -2.163643
  H 5.201828 -0.295117 -0.053063
  H 5.263214 -0.961252 -3.036583
  H 7.430327 -0.648480 -0.883332
  H 7.303512 -2.924565 -2.090323
  H 9.083778 -2.986925 -3.759921
  H 7.553045 0.107792 -2.480278
  H 9.121694 -1.159679 -3.803540
