 20
 0.000000
  C 0.992075 0.129753 0.373098
  C 2.464397 0.138715 0.395684
  C 3.229193 0.610727 1.570564
  C 2.428973 1.093310 2.772469
  H 3.108198 1.408941 3.558728
  C 3.114102 -0.321416 -0.749341
  C 4.498166 -0.388019 -0.915348
  C 5.132927 -0.843280 -2.050217
  H 4.645260 -1.203463 -2.947082
  O 6.427316 -0.890829 -2.170373
  H 0.548178 0.498222 1.290526
  H 0.629710 -0.882928 0.191656
  H 0.629784 0.735503 -0.458438
  H 3.890265 1.421832 1.244866
  H 3.890128 -0.200371 1.896441
  H 1.795829 0.303253 3.169751
  H 1.795917 1.938829 2.513154
  H 2.494912 -0.651872 -1.572164
  H 5.130201 -0.060735 -0.100043
  H 6.922541 -0.576307 -1.388658
 20
 0.479341
  C 1.011257 0.159357 0.334510
  C 2.479598 0.099526 0.420257
  C 3.215754 0.677572 1.563551
  C 2.397171 1.084046 2.779425
  H 3.065669 1.436552 3.559848
  C 3.159204 -0.472188 -0.652539
  C 4.546214 -0.525671 -0.808910
  C 5.118109 -0.766544 -2.039577
  H 4.500785 -0.881324 -2.924470
  O 6.390177 -0.804705 -2.300710
  H 0.546928 0.586755 1.217702
  H 0.605040 -0.838142 0.157219
  H 0.720413 0.749251 -0.537276
  H 3.753170 1.561504 1.200419
  H 3.989083 -0.028009 1.876517
  H 1.836443 0.240859 3.175268
  H 1.706795 1.891242 2.550972
  H 2.561369 -0.847276 -1.473201
  H 5.189594 -0.350181 0.041525
  H 6.972183 -0.718632 -1.520804
 20
 4.892768
  C 1.017692 0.180889 0.298323
  C 2.482614 0.069469 0.413120
  C 3.222469 0.714677 1.520747
  C 2.415860 1.095242 2.757136
  H 3.089108 1.488615 3.514412
  C 3.142789 -0.643682 -0.573385
  C 4.540458 -0.670287 -0.756152
  C 5.095602 -0.633857 -2.012080
  H 4.473569 -0.498909 -2.889843
  O 6.364377 -0.647490 -2.292264
  H 0.559229 0.665688 1.151013
  H 0.575036 -0.804737 0.153003
  H 0.766637 0.751548 -0.598078
  H 3.686017 1.628501 1.127944
  H 4.051002 0.066828 1.816928
  H 1.910983 0.227340 3.174054
  H 1.679773 1.865650 2.545458
  H 2.540761 -1.097565 -1.350192
  H 5.191502 -0.696202 0.108173
  H 6.951212 -0.778466 -1.520982
 20
 12.300506
  C 1.039529 0.194836 0.256578
  C 2.504443 0.044368 0.395121
  C 3.238541 0.722094 1.488973
  C 2.427121 1.114880 2.719851
  H 3.099567 1.531187 3.465242
  C 3.119225 -0.812462 -0.491299
  C 4.525611 -0.789724 -0.725052
  C 5.048323 -0.492323 -1.951836
  H 4.420069 -0.167093 -2.772335
  O 6.316461 -0.489159 -2.261117
  H 0.588298 0.721032 1.087977
  H 0.574493 -0.782834 0.136852
  H 0.818788 0.750970 -0.656265
  H 3.685617 1.639369 1.084312
  H 4.075215 0.090126 1.794307
  H 1.936022 0.247511 3.152633
  H 1.681649 1.874000 2.499509
  H 2.508176 -1.342114 -1.209979
  H 5.193941 -0.989284 0.104566
  H 6.911132 -0.774364 -1.539642
 20
 23.180973
  C 1.105322 0.228528 0.199649
  C 2.580758 0.069502 0.367326
  C 3.259252 0.710473 1.523703
  C 2.378587 1.120647 2.696186
  H 3.015676 1.492946 3.493570
  C 3.135627 -0.907086 -0.411688
  C 4.531708 -0.760693 -0.719793
  C 4.986150 -0.383283 -1.941697
  H 4.329122 0.022245 -2.701669
  O 6.229102 -0.468630 -2.336510
  H 0.656049 0.806076 0.997155
  H 0.643201 -0.754475 0.145346
  H 0.907186 0.734229 -0.746273
  H 3.810962 1.590978 1.184179
  H 4.005272 0.001404 1.895379
  H 1.822678 0.266053 3.076123
  H 1.684717 1.914424 2.440467
  H 2.532111 -1.595971 -0.979996
  H 5.240345 -0.974051 0.069236
  H 6.839928 -0.823363 -1.663933
 20
 41.086824
  C 1.191035 0.224313 0.171731
  C 2.712269 -0.003143 0.366203
  C 3.277969 0.696357 1.523716
  C 2.342745 1.163612 2.632933
  H 2.973286 1.588318 3.418988
  C 3.087910 -1.104507 -0.358252
  C 4.481298 -0.907840 -0.732895
  C 4.892114 -0.270644 -1.863239
  H 4.248170 0.290184 -2.520545
  O 6.151415 -0.246952 -2.252659
  H 0.760383 0.767282 0.998453
  H 0.717889 -0.758403 0.073196
  H 1.056703 0.786213 -0.752921
  H 3.862144 1.571114 1.188962
  H 4.020665 0.029959 1.970003
  H 1.786263 0.342316 3.063924
  H 1.690129 1.967576 2.317061
  H 2.457605 -1.769554 -0.894928
  H 5.214555 -1.397643 -0.103066
  H 6.765395 -0.687624 -1.641843
 20
 71.433696
  C 1.144473 0.208845 0.185689
  C 2.920348 -0.081126 0.354780
  C 3.366203 0.676254 1.537213
  C 2.380218 1.162509 2.595558
  H 2.942709 1.639333 3.397240
  C 3.001817 -1.145568 -0.427902
  C 4.431866 -0.861702 -0.700894
  C 4.866680 -0.190759 -1.795367
  H 4.220972 0.353250 -2.461299
  O 6.124430 -0.226909 -2.195377
  H 0.761981 0.780789 1.003127
  H 0.777869 -0.803275 0.147632
  H 1.139927 0.738634 -0.749002
  H 3.875986 1.565967 1.153685
  H 4.107539 0.032470 2.035543
  H 1.813525 0.332432 3.014018
  H 1.684497 1.877429 2.194027
  H 2.351620 -1.748033 -1.028637
  H 5.142144 -1.295822 -0.014217
  H 6.718290 -0.756179 -1.623984
 20
 95.505004
  C 0.815170 0.170535 0.245371
  C 3.065067 -0.100461 0.341896
  C 3.506256 0.681189 1.485674
  C 2.464668 1.164978 2.495198
  H 2.987827 1.660840 3.308772
  C 2.974753 -1.098009 -0.476756
  C 4.445435 -0.882922 -0.672966
  C 4.938760 -0.169389 -1.728318
  H 4.300647 0.423496 -2.372166
  O 6.193683 -0.151798 -2.096236
  H 0.430642 0.701324 1.090297
  H 0.628866 -0.882688 0.220576
  H 0.889152 0.706521 -0.679569
  H 4.046224 1.558360 1.115072
  H 4.220371 0.049023 2.027979
  H 1.899948 0.334363 2.907365
  H 1.787499 1.883570 2.047594
  H 2.290919 -1.658156 -1.069631
  H 5.115104 -1.471749 -0.058895
  H 6.792660 -0.665001 -1.520922
 20
 99.289978
  C 0.552333 0.157002 0.287765
  C 3.183927 -0.140549 0.341577
  C 3.629798 0.669010 1.453571
  C 2.541330 1.149745 2.414838
  H 3.014598 1.682528 3.235605
  C 2.979369 -1.078066 -0.504229
  C 4.469881 -0.876145 -0.631958
  C 4.994470 -0.142338 -1.667146
  H 4.353589 0.465568 -2.298397
  O 6.239372 -0.111261 -2.026458
  H 0.135856 0.668198 1.130306
  H 0.451219 -0.906606 0.257414
  H 0.691141 0.703193 -0.620614
  H 4.163085 1.540313 1.064956
  H 4.343853 0.063292 2.022689
  H 1.983537 0.313209 2.824284
  H 1.859827 1.831432 1.916643
  H 2.279568 -1.600819 -1.111619
  H 5.117936 -1.504385 -0.033471
  H 6.845235 -0.638600 -1.468360
 20
 98.412275
  C 0.390669 0.122941 0.318230
  C 3.302994 -0.123643 0.358990
  C 3.729435 0.687240 1.475162
  C 2.589156 1.159249 2.380909
  H 3.008469 1.715084 3.215016
  C 3.014086 -1.010121 -0.510875
  C 4.523314 -0.844168 -0.602718
  C 5.072052 -0.121701 -1.641382
  H 4.445237 0.514573 -2.260313
  O 6.304817 -0.132650 -2.012912
  H -0.003579 0.614117 1.181671
  H 0.338807 -0.943154 0.279169
  H 0.513486 0.685626 -0.581704
  H 4.269832 1.557867 1.094749
  H 4.427384 0.090223 2.071519
  H 2.030574 0.315339 2.774268
  H 1.913056 1.812164 1.838524
  H 2.299193 -1.484965 -1.135731
  H 5.149958 -1.521040 -0.034551
  H 6.905446 -0.688832 -1.474571
 20
 97.163455
  C 0.276776 0.089681 0.327465
  C 3.366961 -0.101795 0.357436
  C 3.776194 0.704764 1.483557
  C 2.602061 1.160525 2.354084
  H 2.983454 1.725557 3.199845
  C 3.025490 -0.969983 -0.509869
  C 4.546835 -0.833351 -0.588889
  C 5.109477 -0.105933 -1.619801
  H 4.496745 0.576837 -2.203773
  O 6.329756 -0.154374 -2.013352
  H -0.120968 0.572245 1.193929
  H 0.263543 -0.977497 0.290994
  H 0.392060 0.655430 -0.571185
  H 4.319949 1.578905 1.116990
  H 4.464054 0.110067 2.092681
  H 2.045066 0.307542 2.730145
  H 1.929396 1.797321 1.788011
  H 2.303162 -1.431233 -1.135267
  H 5.154238 -1.552824 -0.052447
  H 6.920698 -0.756086 -1.512719
 20
 96.218371
  C 0.209817 0.059212 0.329769
  C 3.423207 -0.065370 0.349446
  C 3.804061 0.726030 1.496947
  C 2.599685 1.154376 2.338863
  H 2.946531 1.719437 3.199199
  C 3.032777 -0.928567 -0.501592
  C 4.564933 -0.822286 -0.581227
  C 5.138682 -0.106613 -1.616830
  H 4.538817 0.603822 -2.181878
  O 6.347394 -0.192054 -2.030228
  H -0.185206 0.534399 1.201353
  H 0.227746 -1.007928 0.296136
  H 0.303497 0.626183 -0.570506
  H 4.349295 1.609850 1.156536
  H 4.483471 0.128870 2.112519
  H 2.047750 0.288316 2.692036
  H 1.929910 1.782034 1.759003
  H 2.301096 -1.374567 -1.126373
  H 5.155878 -1.564940 -0.057808
  H 6.928426 -0.820526 -1.549854
 20
 95.273294
  C 0.154460 0.027007 0.332161
  C 3.471066 -0.047386 0.341134
  C 3.813373 0.741931 1.503267
  C 2.577362 1.144866 2.309661
  H 2.886139 1.719929 3.177753
  C 3.022478 -0.888941 -0.502815
  C 4.566042 -0.826286 -0.586575
  C 5.153876 -0.111081 -1.617478
  H 4.568301 0.631195 -2.156833
  O 6.351826 -0.224936 -2.048788
  H -0.240525 0.490407 1.209987
  H 0.198596 -1.039230 0.294305
  H 0.230821 0.600322 -0.565702
  H 4.354561 1.635119 1.180773
  H 4.487039 0.153916 2.133395
  H 2.035560 0.267060 2.649400
  H 1.909187 1.754498 1.708964
  H 2.276707 -1.306701 -1.129558
  H 5.136692 -1.597750 -0.082399
  H 6.920207 -0.883568 -1.593484
 20
 95.200849
  C 0.173563 0.011835 0.357462
  C 3.496804 -0.073595 0.342103
  C 3.813393 0.729005 1.503180
  C 2.564790 1.154618 2.275280
  H 2.859898 1.753164 3.132276
  C 3.001873 -0.856724 -0.531561
  C 4.555550 -0.857192 -0.596933
  C 5.164101 -0.120739 -1.602513
  H 4.580305 0.634557 -2.126379
  O 6.359859 -0.230830 -2.037652
  H -0.213998 0.443349 1.254801
  H 0.215202 -1.052744 0.282841
  H 0.218812 0.613574 -0.524050
  H 4.368692 1.611886 1.174620
  H 4.472087 0.153096 2.159860
  H 2.017145 0.286817 2.630720
  H 1.907757 1.747813 1.646714
  H 2.246394 -1.195540 -1.192615
  H 5.102484 -1.653480 -0.106082
  H 6.926581 -0.901205 -1.597289
 20
 93.214742
  C -0.067421 -0.047716 0.309111
  C 3.644703 -0.028579 0.393128
  C 3.912616 0.768642 1.571824
  C 2.602964 1.162281 2.256806
  H 2.819559 1.749872 3.143532
  C 3.065354 -0.779665 -0.457237
  C 4.616854 -0.822116 -0.597815
  C 5.218989 -0.085938 -1.611088
  H 4.691725 0.765667 -2.037827
  O 6.368625 -0.286564 -2.127529
  H -0.472673 0.433911 1.173796
  H -0.000530 -1.113476 0.290852
  H 0.111076 0.522891 -0.574192
  H 4.475913 1.662032 1.290598
  H 4.534974 0.186668 2.257078
  H 2.043152 0.280188 2.552201
  H 1.983104 1.754402 1.589785
  H 2.261971 -1.196118 -1.008429
  H 5.137377 -1.683084 -0.194016
  H 6.882963 -1.045635 -1.775794
