 20
 0.000000
  C -0.674781 2.598798 0.700775
  C -1.773038 1.596836 0.354144
  C -2.582723 2.082721 -0.850088
  C -1.202729 0.225087 0.073300
  O -0.004674 0.017557 0.005041
  C -2.184198 -0.895108 -0.118732
  H -1.105173 3.567611 0.941701
  H 0.010462 2.728442 -0.133981
  H -0.102721 2.259431 1.561151
  H -2.436710 1.498479 1.220775
  H -1.962021 2.122954 -1.743342
  H -2.977921 3.077975 -0.662880
  H -3.423983 1.424977 -1.058702
  H -3.199344 -0.579458 0.104979
  H -1.922361 -1.716179 0.544749
  H -2.135559 -1.237562 -1.149677
  O 3.260317 0.167416 0.047614
  H 3.768296 -0.658504 -0.104283
  H 3.506045 0.587463 0.899090
  H 2.294092 0.003271 -0.003325
 20
 -1.461667
  C -0.652282 2.631221 0.713178
  C -1.719392 1.603498 0.366465
  C -2.528800 2.061860 -0.848997
  C -1.123172 0.227987 0.083038
  O 0.078701 0.045481 0.013281
  C -2.081419 -0.893426 -0.110325
  H -1.112725 3.585991 0.937565
  H 0.027052 2.764734 -0.123248
  H -0.094349 2.304587 1.585410
  H -2.397389 1.495897 1.217849
  H -1.892694 2.117836 -1.728021
  H -2.939395 3.048359 -0.660695
  H -3.351035 1.384868 -1.059355
  H -3.104837 -0.607769 0.112460
  H -1.794911 -1.726330 0.527900
  H -2.022589 -1.239960 -1.139868
  O 3.021382 0.159283 0.023748
  H 3.495166 -0.663340 -0.131122
  H 3.277845 0.551049 0.861317
  H 2.065182 0.015565 -0.014495
 20
 -3.134827
  C -0.626957 2.631660 0.726761
  C -1.679860 1.587534 0.370861
  C -2.494317 2.038477 -0.861478
  C -1.066516 0.240122 0.092365
  O 0.143207 0.077977 0.020352
  C -2.006892 -0.876765 -0.098033
  H -1.110003 3.585545 0.947315
  H 0.054581 2.773795 -0.106264
  H -0.073619 2.319188 1.600511
  H -2.370190 1.464942 1.218569
  H -1.846664 2.112024 -1.736633
  H -2.925591 3.025161 -0.668017
  H -3.302393 1.349996 -1.083982
  H -3.048539 -0.595471 0.135622
  H -1.708687 -1.728368 0.530659
  H -1.952234 -1.228592 -1.139505
  O 2.838487 0.168333 0.007096
  H 3.306670 -0.676860 -0.159875
  H 3.131954 0.545158 0.843750
  H 1.871968 0.041348 -0.019572
 20
 -3.413104
  C -0.625596 2.651775 0.733644
  C -1.660591 1.599051 0.372479
  C -2.460708 2.033870 -0.859775
  C -1.027607 0.254250 0.099297
  O 0.180042 0.112210 0.028027
  C -1.955408 -0.900505 -0.094499
  H -1.118698 3.597565 0.943896
  H 0.064704 2.801387 -0.090507
  H -0.071690 2.354341 1.617590
  H -2.354480 1.468681 1.208511
  H -1.807776 2.117031 -1.721905
  H -2.905380 3.005354 -0.675070
  H -3.255894 1.335034 -1.092041
  H -2.986569 -0.648007 0.138653
  H -1.635263 -1.738760 0.526622
  H -1.893210 -1.240153 -1.130613
  O 2.715147 0.157477 -0.007677
  H 3.146600 -0.708682 -0.196184
  H 3.050202 0.511086 0.828088
  H 1.708514 0.071767 -0.016225
 20
 -0.702323
  C -0.628159 2.664811 0.759525
  C -1.654156 1.600846 0.379229
  C -2.431259 2.022300 -0.877655
  C -1.009656 0.266791 0.126724
  O 0.211845 0.130323 0.096678
  C -1.931665 -0.916323 -0.088617
  H -1.129615 3.609425 0.953581
  H 0.081469 2.815223 -0.049392
  H -0.091750 2.375296 1.658088
  H -2.367093 1.470262 1.200117
  H -1.757399 2.107151 -1.727687
  H -2.889521 2.993561 -0.707713
  H -3.216279 1.313747 -1.123739
  H -2.966687 -0.675184 0.128103
  H -1.606105 -1.746432 0.536985
  H -1.843349 -1.247297 -1.123443
  O 2.651248 0.151037 -0.050823
  H 3.027940 -0.720200 -0.276977
  H 3.042275 0.500177 0.763549
  H 1.579632 0.088864 0.025111
 20
 3.219414
  C -0.659923 2.679493 0.788761
  C -1.654729 1.603449 0.386033
  C -2.404728 2.001361 -0.895854
  C -0.989405 0.294197 0.161644
  O 0.242231 0.192220 0.174438
  C -1.862520 -0.894181 -0.078572
  H -1.183256 3.621792 0.963174
  H 0.071604 2.836749 0.001267
  H -0.147628 2.403804 1.702134
  H -2.389716 1.465766 1.183959
  H -1.708177 2.097872 -1.729651
  H -2.890736 2.966562 -0.744256
  H -3.166030 1.274750 -1.157989
  H -2.916670 -0.683569 0.124069
  H -1.517932 -1.730164 0.544759
  H -1.745689 -1.207581 -1.125253
  O 2.581907 0.086739 -0.127700
  H 2.854741 -0.818649 -0.292081
  H 3.054311 0.435959 0.652635
  H 1.460940 0.142153 0.042928
 20
 5.875013
  C -0.640547 2.679500 0.790581
  C -1.650357 1.602663 0.384744
  C -2.396381 2.005366 -0.905029
  C -0.993195 0.272630 0.162142
  O 0.224450 0.138230 0.150721
  C -1.878826 -0.923118 -0.075198
  H -1.151715 3.618217 0.962896
  H 0.091851 2.832994 0.005759
  H -0.128204 2.400653 1.707790
  H -2.388423 1.474227 1.181621
  H -1.698058 2.097869 -1.733821
  H -2.874806 2.970255 -0.754919
  H -3.164011 1.281696 -1.171011
  H -2.920163 -0.714245 0.134485
  H -1.537650 -1.752766 0.531091
  H -1.772116 -1.230410 -1.113546
  O 2.577436 0.131163 -0.124171
  H 2.876054 -0.782179 -0.299503
  H 3.020239 0.468215 0.669029
  H 1.380027 0.150308 0.027992
 20
 8.789480
  C -0.633811 2.656526 0.791346
  C -1.652340 1.593503 0.382650
  C -2.379196 1.997330 -0.917155
  C -1.013989 0.258921 0.170934
  O 0.212693 0.107620 0.173533
  C -1.895022 -0.921811 -0.064290
  H -1.133703 3.602797 0.953019
  H 0.107778 2.796581 0.014754
  H -0.135914 2.378316 1.712638
  H -2.400640 1.480825 1.167656
  H -1.674300 2.078383 -1.734673
  H -2.846313 2.963762 -0.777096
  H -3.146936 1.285579 -1.185733
  H -2.939811 -0.709218 0.145509
  H -1.552904 -1.758688 0.539326
  H -1.788394 -1.229458 -1.107611
  O 2.591248 0.177170 -0.130875
  H 2.891517 -0.709576 -0.368465
  H 3.037120 0.450783 0.682094
  H 1.275035 0.184227 0.044960
 20
 11.418523
  C -0.636594 2.635714 0.797776
  C -1.663554 1.585113 0.383453
  C -2.382211 2.002640 -0.937309
  C -1.037250 0.246021 0.172694
  O 0.191324 0.079882 0.212781
  C -1.902663 -0.920100 -0.056462
  H -1.132266 3.597807 0.957258
  H 0.125694 2.768008 0.014909
  H -0.149316 2.354465 1.724800
  H -2.414145 1.480845 1.153954
  H -1.667250 2.077675 -1.752873
  H -2.844861 2.980048 -0.801843
  H -3.154445 1.302041 -1.214052
  H -2.952663 -0.709453 0.143154
  H -1.560736 -1.755991 0.545622
  H -1.794792 -1.230209 -1.083591
  O 2.631445 0.194556 -0.140436
  H 2.935845 -0.673783 -0.410691
  H 3.095624 0.440843 0.666913
  H 1.179242 0.194212 0.066004
 20
 12.865325
  C -0.632402 2.618119 0.798314
  C -1.667572 1.584339 0.370795
  C -2.347770 1.992377 -0.946221
  C -1.072371 0.231475 0.196538
  O 0.149648 0.014990 0.246499
  C -1.962847 -0.930209 -0.047645
  H -1.111051 3.583264 0.937830
  H 0.137055 2.733901 0.041848
  H -0.165929 2.333232 1.742759
  H -2.445121 1.501364 1.138582
  H -1.615899 2.045968 -1.750595
  H -2.791034 2.977899 -0.824005
  H -3.135731 1.293655 -1.227756
  H -3.002501 -0.700171 0.135138
  H -1.645502 -1.771230 0.559866
  H -1.833411 -1.246088 -1.092095
  O 2.684792 0.257836 -0.156209
  H 3.013756 -0.578602 -0.498161
  H 3.180103 0.465346 0.643308
  H 1.074748 0.220498 0.105890
 20
 15.536913
  C -0.623948 2.595594 0.802788
  C -1.679310 1.573521 0.364045
  C -2.337036 1.990590 -0.963899
  C -1.111601 0.215492 0.204041
  O 0.112627 -0.040735 0.277122
  C -2.019304 -0.938264 -0.046080
  H -1.084988 3.571793 0.935873
  H 0.161207 2.693113 0.056774
  H -0.176303 2.304862 1.748230
  H -2.463246 1.510710 1.120214
  H -1.596270 2.028658 -1.759898
  H -2.762425 2.986847 -0.847388
  H -3.136163 1.309715 -1.248222
  H -3.059718 -0.691777 0.122494
  H -1.717031 -1.779700 0.563701
  H -1.873736 -1.251857 -1.082529
  O 2.764901 0.313262 -0.175734
  H 3.116166 -0.507917 -0.531017
  H 3.274751 0.513258 0.615631
  H 0.975074 0.224761 0.129491
 20
 15.790046
  C -0.637050 2.541690 0.816524
  C -1.708505 1.559231 0.352014
  C -2.314316 2.012863 -0.999393
  C -1.173037 0.193277 0.191328
  O 0.040027 -0.110794 0.280557
  C -2.101192 -0.949702 -0.024718
  H -1.076518 3.529283 0.935327
  H 0.163556 2.627984 0.086114
  H -0.223006 2.243152 1.781328
  H -2.518600 1.523489 1.086882
  H -1.553090 2.025510 -1.774422
  H -2.698536 3.022306 -0.887458
  H -3.136507 1.370012 -1.307794
  H -3.132991 -0.674709 0.145831
  H -1.811823 -1.773652 0.620232
  H -1.965425 -1.297415 -1.053034
  O 2.942411 0.378873 -0.201387
  H 3.310021 -0.408994 -0.608289
  H 3.462806 0.564995 0.586568
  H 0.852814 0.262453 0.154218
 20
 15.247133
  C -0.625647 2.515823 0.801731
  C -1.714643 1.558893 0.326603
  C -2.346761 2.029088 -1.005359
  C -1.230251 0.177460 0.162924
  O -0.024552 -0.176052 0.301752
  C -2.196717 -0.944233 -0.034392
  H -1.042355 3.507937 0.934892
  H 0.180296 2.591173 0.076874
  H -0.216290 2.193698 1.758826
  H -2.525635 1.514907 1.063065
  H -1.604158 2.032434 -1.797879
  H -2.715275 3.042938 -0.880532
  H -3.180760 1.394241 -1.297763
  H -3.222191 -0.636743 0.123093
  H -1.929664 -1.770528 0.617542
  H -2.071420 -1.306470 -1.057647
  O 3.163768 0.427211 -0.202495
  H 3.558755 -0.369901 -0.564425
  H 3.674442 0.661991 0.578328
  H 0.749319 0.262329 0.177807
 20
 16.343419
  C -0.648066 2.492217 0.799987
  C -1.738789 1.555200 0.287437
  C -2.385178 2.071798 -1.018249
  C -1.286067 0.164481 0.128885
  O -0.093302 -0.212636 0.316875
  C -2.278969 -0.941741 -0.037523
  H -1.061262 3.486226 0.946662
  H 0.172482 2.578000 0.091740
  H -0.259366 2.147967 1.754378
  H -2.553225 1.505643 1.022876
  H -1.657579 2.081027 -1.824985
  H -2.730773 3.086343 -0.863036
  H -3.237435 1.460212 -1.309840
  H -3.299122 -0.602566 0.080433
  H -2.044553 -1.744024 0.659624
  H -2.143484 -1.355284 -1.039018
  O 3.426934 0.442199 -0.217465
  H 3.833547 -0.374449 -0.523188
  H 3.923993 0.732962 0.553268
  H 0.665203 0.247104 0.190016
