 19
 0.000000
  C 0.915403 0.046748 0.334173
  C 2.367188 0.066897 -0.026624
  H 3.028787 0.018827 0.831233
  C 2.967480 0.133423 -1.221892
  C 2.347569 0.210176 -2.595216
  C 0.830098 0.218013 -2.728050
  H 0.570586 0.277062 -3.784130
  C 4.431351 0.133152 -1.218727
  C 5.241048 0.191936 -2.270602
  H 6.310675 0.185082 -2.144584
  H 0.806223 -0.014285 1.414947
  H 0.409925 -0.811578 -0.104601
  H 0.407116 0.947279 -0.004061
  H 2.735339 -0.638861 -3.168233
  H 2.735771 1.117372 -3.070506
  H 0.391861 1.076674 -2.229433
  H 0.391285 -0.690545 -2.328174
  H 4.879012 0.078184 -0.233312
  H 4.891092 0.248602 -3.286482
 19
 6.015127
  C 0.923465 0.077382 0.350899
  C 2.347595 0.081066 -0.017123
  H 3.055055 0.045862 0.863075
  C 2.952291 0.138727 -1.211017
  C 2.332665 0.209731 -2.589255
  C 0.815064 0.232994 -2.731276
  H 0.563624 0.288851 -3.789391
  C 4.417571 0.122409 -1.207569
  C 5.228669 0.174472 -2.260380
  H 6.298157 0.162048 -2.134652
  H 0.763417 -0.018142 1.422835
  H 0.698415 -0.837964 -0.177510
  H 0.341256 0.919049 -0.021439
  H 2.714030 -0.646749 -3.154817
  H 2.729356 1.109411 -3.070186
  H 0.384192 1.100369 -2.241843
  H 0.357906 -0.667524 -2.331559
  H 4.864960 0.065407 -0.222756
  H 4.879730 0.234961 -3.276354
 19
 18.239580
  C 0.924948 0.060369 0.347510
  C 2.332693 0.114493 -0.001724
  H 3.045111 0.124277 0.870813
  C 2.941837 0.154798 -1.194405
  C 2.320466 0.204413 -2.573986
  C 0.804994 0.274222 -2.722450
  H 0.561818 0.306496 -3.783723
  C 4.412965 0.114636 -1.201854
  C 5.212693 0.155637 -2.251734
  H 6.279620 0.131575 -2.131257
  H 0.730468 -0.035834 1.395426
  H 0.989965 -0.869124 -0.175709
  H 0.272142 0.787086 -0.107354
  H 2.676720 -0.677505 -3.114917
  H 2.743461 1.078522 -3.079874
  H 0.403422 1.174497 -2.264375
  H 0.310393 -0.593989 -2.298710
  H 4.866496 0.052089 -0.224247
  H 4.859533 0.228272 -3.263780
 19
 32.177849
  C 0.914784 0.066609 0.355424
  C 2.321586 0.113498 -0.006298
  H 3.034026 0.127620 0.856277
  C 2.942141 0.154905 -1.202834
  C 2.318145 0.203756 -2.585149
  C 0.798755 0.287265 -2.718221
  H 0.543844 0.317576 -3.775548
  C 4.390444 0.109295 -1.196119
  C 5.211929 0.149304 -2.245448
  H 6.280501 0.115484 -2.113075
  H 0.720261 -0.031904 1.409116
  H 1.181259 -0.842583 -0.163912
  H 0.228198 0.732981 -0.144293
  H 2.667831 -0.690019 -3.124680
  H 2.746177 1.073864 -3.093549
  H 0.412598 1.195637 -2.259404
  H 0.299531 -0.576962 -2.282614
  H 4.841271 0.039103 -0.210067
  H 4.871325 0.224627 -3.261726
 19
 44.028977
  C 0.894782 0.079930 0.366069
  C 2.304679 0.108388 -0.021755
  H 3.003066 0.109721 0.849421
  C 2.942115 0.153087 -1.213556
  C 2.321483 0.205187 -2.599404
  C 0.807936 0.291938 -2.712218
  H 0.534830 0.324096 -3.765144
  C 4.393837 0.107768 -1.193590
  C 5.216303 0.147333 -2.238432
  H 6.281511 0.096262 -2.103826
  H 0.709529 -0.012690 1.425257
  H 1.310988 -0.813662 -0.132368
  H 0.182691 0.681948 -0.152272
  H 2.659821 -0.680774 -3.142502
  H 2.745888 1.072203 -3.114139
  H 0.435922 1.193521 -2.249921
  H 0.318345 -0.564978 -2.272534
  H 4.833044 0.030986 -0.213273
  H 4.874589 0.222826 -3.262755
 19
 52.371916
  C 0.886859 0.091413 0.377591
  C 2.300866 0.100275 -0.031835
  H 2.989617 0.088855 0.842540
  C 2.949033 0.148699 -1.227123
  C 2.323717 0.207813 -2.613953
  C 0.793244 0.301113 -2.714933
  H 0.506720 0.336482 -3.770651
  C 4.396105 0.099750 -1.193802
  C 5.231744 0.141562 -2.231394
  H 6.298266 0.092514 -2.083570
  H 0.712683 0.021773 1.436149
  H 1.425216 -0.795845 -0.091068
  H 0.144331 0.625450 -0.167699
  H 2.659913 -0.688262 -3.168438
  H 2.750721 1.078157 -3.133706
  H 0.426205 1.212919 -2.242813
  H 0.297442 -0.570174 -2.263728
  H 4.829199 0.019152 -0.198155
  H 4.902930 0.221466 -3.251254
 19
 58.571603
  C 0.871146 0.106277 0.387747
  C 2.291331 0.088952 -0.033993
  H 2.975969 0.070215 0.843643
  C 2.948276 0.142075 -1.237391
  C 2.328395 0.208516 -2.610189
  C 0.815069 0.303290 -2.704435
  H 0.529004 0.341322 -3.745135
  C 4.387174 0.090055 -1.200198
  C 5.227952 0.136300 -2.236813
  H 6.290072 0.096823 -2.084876
  H 0.699307 0.056532 1.441983
  H 1.509560 -0.789467 -0.053785
  H 0.100424 0.582780 -0.197138
  H 2.658402 -0.682128 -3.167398
  H 2.754171 1.077439 -3.126294
  H 0.454459 1.204150 -2.232885
  H 0.330631 -0.552748 -2.262712
  H 4.812055 0.008617 -0.217029
  H 4.899044 0.223186 -3.265413
 19
 63.178369
  C 0.869123 0.132315 0.401518
  C 2.292011 0.070699 -0.026715
  H 2.989145 0.055136 0.854635
  C 2.948753 0.137584 -1.236018
  C 2.327736 0.216276 -2.613019
  C 0.810232 0.308183 -2.717981
  H 0.529695 0.352687 -3.770551
  C 4.390262 0.083508 -1.199910
  C 5.230661 0.131991 -2.238263
  H 6.296698 0.092276 -2.087871
  H 0.687326 0.106341 1.458986
  H 1.583548 -0.798570 -0.005486
  H 0.091018 0.520273 -0.218299
  H 2.660631 -0.664404 -3.176748
  H 2.752703 1.086537 -3.117625
  H 0.441413 1.212433 -2.240013
  H 0.320039 -0.563928 -2.280323
  H 4.823981 -0.004649 -0.205250
  H 4.903183 0.218372 -3.255617
 19
 66.841388
  C 0.869586 0.165110 0.406010
  C 2.292002 0.048145 -0.016843
  H 2.990612 0.045569 0.861473
  C 2.951683 0.134225 -1.235776
  C 2.331729 0.222778 -2.607138
  C 0.814177 0.305304 -2.715207
  H 0.537403 0.357496 -3.767222
  C 4.386679 0.080918 -1.200192
  C 5.230986 0.131779 -2.239375
  H 6.293288 0.079498 -2.087900
  H 0.670292 0.145275 1.459609
  H 1.645433 -0.816756 0.021516
  H 0.091672 0.486913 -0.248017
  H 2.671160 -0.650887 -3.182432
  H 2.752170 1.102756 -3.101433
  H 0.436434 1.201856 -2.229965
  H 0.331652 -0.570959 -2.290591
  H 4.817918 -0.016113 -0.214005
  H 4.905732 0.217727 -3.257848
 19
 68.483794
  C 0.879737 0.220554 0.416816
  C 2.291940 0.019109 -0.003485
  H 2.997455 0.034846 0.871560
  C 2.953537 0.133106 -1.233058
  C 2.333069 0.228831 -2.604771
  C 0.815653 0.301705 -2.722851
  H 0.546083 0.356093 -3.778355
  C 4.383015 0.072218 -1.198499
  C 5.229432 0.129892 -2.238751
  H 6.295575 0.072483 -2.086182
  H 0.663826 0.186616 1.464611
  H 1.701691 -0.863577 0.039741
  H 0.090178 0.460002 -0.258611
  H 2.678780 -0.631112 -3.184495
  H 2.752684 1.120309 -3.092338
  H 0.429546 1.191813 -2.239136
  H 0.334278 -0.583221 -2.304165
  H 4.818680 -0.034693 -0.208535
  H 4.903680 0.228279 -3.259065
 19
 68.524355
  C 0.892293 0.286476 0.425389
  C 2.286753 -0.006651 0.006396
  H 2.998360 0.022922 0.879775
  C 2.954688 0.137965 -1.233054
  C 2.333687 0.237703 -2.601289
  C 0.819961 0.294915 -2.725012
  H 0.555237 0.344847 -3.779328
  C 4.380735 0.069089 -1.196358
  C 5.232468 0.131063 -2.236245
  H 6.297236 0.063567 -2.080324
  H 0.659341 0.206331 1.466481
  H 1.752975 -0.920316 0.030215
  H 0.091324 0.460297 -0.260576
  H 2.689088 -0.616112 -3.187856
  H 2.745025 1.133166 -3.079948
  H 0.424252 1.175638 -2.246735
  H 0.348135 -0.592978 -2.308693
  H 4.814500 -0.051957 -0.209998
  H 4.907999 0.230038 -3.261876
 19
 67.915009
  C 0.907997 0.343002 0.427663
  C 2.285642 -0.033006 0.021658
  H 2.981622 -0.006372 0.880783
  C 2.961087 0.127048 -1.231839
  C 2.336560 0.231292 -2.599647
  C 0.817997 0.284982 -2.724201
  H 0.554706 0.329865 -3.775660
  C 4.377884 0.050495 -1.192334
  C 5.235617 0.127453 -2.232828
  H 6.295700 0.078744 -2.074107
  H 0.661726 0.221540 1.462735
  H 1.810389 -0.966736 0.004044
  H 0.117897 0.492151 -0.274208
  H 2.694515 -0.621299 -3.191678
  H 2.745646 1.124979 -3.075766
  H 0.415115 1.173014 -2.247754
  H 0.348496 -0.601370 -2.306722
  H 4.814811 -0.068577 -0.203974
  H 4.913346 0.255949 -3.251993
 19
 65.448620
  C 0.928923 0.406178 0.428241
  C 2.269121 -0.060713 0.022365
  H 2.972323 -0.033162 0.879188
  C 2.966996 0.127847 -1.235466
  C 2.340370 0.236229 -2.599803
  C 0.818113 0.269854 -2.717768
  H 0.548950 0.305894 -3.766114
  C 4.377180 0.048032 -1.187975
  C 5.241291 0.130395 -2.225499
  H 6.299737 0.079254 -2.060478
  H 0.659033 0.239905 1.452950
  H 1.873001 -1.038469 -0.050604
  H 0.136640 0.541278 -0.275790
  H 2.706529 -0.604272 -3.197674
  H 2.735984 1.135755 -3.068321
  H 0.405020 1.154733 -2.241460
  H 0.364007 -0.619450 -2.291822
  H 4.809336 -0.089019 -0.199751
  H 4.923386 0.247943 -3.249757
