 16
 0.000000
  C 1.011391 0.146963 0.396013
  C 2.474716 0.135112 0.367599
  C 3.229945 0.597761 1.533546
  H 2.577378 0.913435 2.341965
  C 3.110567 -0.329082 -0.790164
  C 4.505164 -0.393424 -0.953860
  C 5.120666 -0.852464 -2.075841
  H 4.629656 -1.223544 -2.960236
  H 6.198818 -0.863692 -2.115750
  H 0.611407 0.508699 1.337855
  H 0.623943 -0.857502 0.208111
  H 0.622081 0.760321 -0.419376
  H 3.897279 1.418397 1.261686
  H 3.886868 -0.194356 1.899025
  H 2.490046 -0.661470 -1.611905
  H 5.131763 -0.057039 -0.139795
 16
 0.736603
  C 1.052365 0.129006 0.338878
  C 2.509321 0.106877 0.438093
  C 3.213270 0.602078 1.618400
  H 2.524185 0.941719 2.392162
  C 3.171549 -0.362358 -0.706626
  C 4.541576 -0.385217 -0.922541
  C 5.030191 -0.814521 -2.121017
  H 4.392026 -1.149286 -2.922600
  H 6.099763 -0.858767 -2.289254
  H 0.556659 0.588838 1.177091
  H 0.662821 -0.872360 0.191313
  H 0.825651 0.646221 -0.611384
  H 3.888456 1.422430 1.346783
  H 3.864430 -0.178649 2.029577
  H 2.559545 -0.710204 -1.524403
  H 5.218471 -0.057739 -0.150778
 16
 0.946854
  C 1.050843 0.184380 0.314475
  C 2.501363 0.032631 0.438132
  C 3.211191 0.588693 1.591314
  H 2.530670 0.980434 2.339938
  C 3.176737 -0.579513 -0.621859
  C 4.546520 -0.427937 -0.906967
  C 5.043956 -0.778167 -2.120800
  H 4.418251 -1.244294 -2.865049
  H 6.065400 -0.583739 -2.398886
  H 0.581699 0.548662 1.222394
  H 0.575753 -0.736270 -0.023587
  H 0.868343 0.907530 -0.488214
  H 3.881540 1.390391 1.271957
  H 3.861468 -0.161998 2.043286
  H 2.585632 -1.122333 -1.348680
  H 5.189587 0.053992 -0.184708
 16
 5.427185
  C 1.126459 0.205912 0.211723
  C 2.540471 -0.042733 0.504864
  C 3.194830 0.592363 1.648942
  H 2.487912 1.107568 2.290242
  C 3.245809 -0.772137 -0.457399
  C 4.559375 -0.475103 -0.877078
  C 4.901883 -0.678489 -2.171271
  H 4.228366 -1.178643 -2.849143
  H 5.830359 -0.325929 -2.584452
  H 0.591287 0.670984 1.033419
  H 0.612308 -0.689531 -0.133591
  H 1.132114 0.892837 -0.642047
  H 3.952127 1.303426 1.311530
  H 3.746289 -0.149210 2.230120
  H 2.681796 -1.452294 -1.084796
  H 5.227072 0.050786 -0.209948
 16
 11.864644
  C 1.226924 0.222661 0.092234
  C 2.583640 -0.096045 0.551922
  C 3.179088 0.591138 1.697816
  H 2.447054 1.165285 2.256066
  C 3.315140 -0.910801 -0.315922
  C 4.569334 -0.521468 -0.848995
  C 4.721369 -0.583791 -2.186315
  H 3.995359 -1.087310 -2.803559
  H 5.552985 -0.127800 -2.693559
  H 0.640608 0.771205 0.821081
  H 0.687229 -0.647409 -0.274088
  H 1.404682 0.864731 -0.782334
  H 3.979668 1.257778 1.370976
  H 3.667000 -0.127395 2.356610
  H 2.776954 -1.678646 -0.862155
  H 5.280711 -0.002161 -0.225502
 16
 19.477606
  C 1.342789 0.239014 -0.026999
  C 2.622928 -0.134964 0.592206
  C 3.162012 0.585781 1.740829
  H 2.428344 1.243988 2.194887
  C 3.374777 -1.010654 -0.201391
  C 4.567606 -0.554117 -0.838243
  C 4.519341 -0.477014 -2.178618
  H 3.749253 -0.976509 -2.742392
  H 5.268651 0.045258 -2.747279
  H 0.723969 0.872726 0.597827
  H 0.782845 -0.612227 -0.407393
  H 1.681850 0.801419 -0.909350
  H 4.040867 1.166626 1.451885
  H 3.532815 -0.122684 2.484429
  H 2.849744 -1.821193 -0.695431
  H 5.341596 -0.067964 -0.261643
 16
 27.659635
  C 1.452237 0.255433 -0.123110
  C 2.640664 -0.154299 0.606573
  C 3.155000 0.575455 1.764561
  H 2.426451 1.276180 2.154833
  C 3.401346 -1.080195 -0.127042
  C 4.548198 -0.566726 -0.835731
  C 4.334906 -0.386376 -2.138198
  H 3.563356 -0.908707 -2.669834
  H 5.021073 0.191300 -2.738205
  H 0.842259 0.981923 0.398717
  H 0.861779 -0.573549 -0.507361
  H 1.926315 0.707375 -1.020696
  H 4.077509 1.098789 1.517323
  H 3.451239 -0.129667 2.550978
  H 2.889255 -1.907278 -0.602125
  H 5.353033 -0.080492 -0.296172
 16
 36.430912
  C 1.549997 0.268435 -0.202686
  C 2.678813 -0.166939 0.627212
  C 3.147548 0.575191 1.785755
  H 2.455016 1.352722 2.089301
  C 3.445968 -1.135578 -0.062068
  C 4.528822 -0.599344 -0.851248
  C 4.159010 -0.297236 -2.104954
  H 3.384348 -0.829544 -2.633491
  H 4.797024 0.313743 -2.720505
  H 0.914931 1.026758 0.239512
  H 0.977090 -0.535341 -0.659056
  H 2.135164 0.663730 -1.054688
  H 4.135015 1.004151 1.587482
  H 3.311559 -0.111557 2.618821
  H 2.919560 -1.981141 -0.497062
  H 5.355271 -0.101336 -0.366504
 16
 53.613399
  C 1.667370 0.267148 -0.258614
  C 2.683237 -0.172407 0.643774
  C 3.126782 0.564768 1.820068
  H 2.470647 1.394960 2.056802
  C 3.491874 -1.168189 0.005829
  C 4.470887 -0.567446 -0.876557
  C 3.920501 -0.183413 -2.050191
  H 3.225768 -0.807390 -2.589744
  H 4.493581 0.476563 -2.685125
  H 1.067015 1.111700 0.055406
  H 1.107181 -0.478660 -0.815763
  H 2.444055 0.530239 -1.183348
  H 4.152369 0.915155 1.673924
  H 3.174618 -0.107593 2.677817
  H 2.987969 -2.057223 -0.364848
  H 5.362856 -0.104923 -0.474001
 16
 64.836983
  C 1.695795 0.260601 -0.244579
  C 2.644824 -0.173248 0.659124
  C 3.118424 0.567369 1.836025
  H 2.442808 1.374653 2.100493
  C 3.480069 -1.168065 0.007709
  C 4.430101 -0.550848 -0.868113
  C 3.821605 -0.126290 -2.038955
  H 3.179592 -0.799892 -2.594999
  H 4.384846 0.543483 -2.671921
  H 1.145601 1.154123 0.010365
  H 1.136865 -0.435011 -0.853629
  H 2.694285 0.440971 -1.385700
  H 4.120780 0.958232 1.652126
  H 3.210198 -0.109515 2.685329
  H 2.973430 -2.057186 -0.355178
  H 5.328242 -0.089523 -0.484656
 16
 53.434173
  C 1.616998 0.228575 -0.125849
  C 2.596963 -0.146830 0.689225
  C 3.134580 0.584736 1.851405
  H 2.456390 1.371595 2.160462
  C 3.403817 -1.106376 -0.035123
  C 4.375619 -0.511483 -0.862943
  C 3.831014 -0.102319 -2.119138
  H 3.286016 -0.860305 -2.681486
  H 4.467456 0.505359 -2.744202
  H 1.047376 1.106999 0.136914
  H 1.109760 -0.447548 -0.797489
  H 2.920785 0.460568 -1.684126
  H 4.113953 1.004086 1.636028
  H 3.269104 -0.102386 2.676273
  H 2.885110 -1.972213 -0.414972
  H 5.266631 -0.046740 -0.432421
 16
 39.271692
  C 1.441480 0.187881 0.047657
  C 2.553833 -0.146832 0.732956
  C 3.158824 0.617832 1.850290
  H 2.472155 1.377016 2.210947
  C 3.325473 -1.046631 -0.101305
  C 4.335370 -0.469835 -0.867071
  C 3.938552 -0.109868 -2.222195
  H 3.494282 -0.927496 -2.789027
  H 4.686416 0.426273 -2.791626
  H 0.849391 1.032347 0.358489
  H 0.982235 -0.456894 -0.681720
  H 3.065976 0.533935 -1.977832
  H 4.092635 1.089973 1.558208
  H 3.386962 -0.065122 2.666512
  H 2.767298 -1.866229 -0.548465
  H 5.221806 -0.042622 -0.415002
 16
 28.186798
  C 1.312397 0.226659 0.201289
  C 2.527592 -0.071072 0.727530
  C 3.151963 0.603146 1.889660
  H 2.417717 1.196372 2.424608
  C 3.255479 -0.908207 -0.196300
  C 4.301757 -0.375959 -0.931665
  C 4.081864 -0.207661 -2.366949
  H 3.666491 -1.093340 -2.841910
  H 4.932179 0.188271 -2.907488
  H 0.730510 1.048362 0.578511
  H 0.847152 -0.382379 -0.554895
  H 3.270378 0.533848 -2.351618
  H 3.974557 1.252055 1.596044
  H 3.557795 -0.151449 2.559039
  H 2.710707 -1.750819 -0.615193
  H 5.101078 0.173777 -0.450755
 16
 19.714877
  C 1.173220 0.162714 0.397295
  C 2.465600 -0.080948 0.734015
  C 3.179912 0.621734 1.828692
  H 2.489275 1.224974 2.409630
  C 3.136357 -0.828565 -0.286013
  C 4.242588 -0.329302 -0.935320
  C 4.218943 -0.228984 -2.389195
  H 3.885940 -1.146718 -2.868510
  H 5.141475 0.146905 -2.819349
  H 0.591560 0.925036 0.886812
  H 0.679726 -0.397754 -0.377896
  H 3.417959 0.509482 -2.572822
  H 3.968787 1.268100 1.454621
  H 3.646320 -0.114476 2.479909
  H 2.550490 -1.584268 -0.796486
  H 5.051465 0.133674 -0.385475
 16
 15.893521
  C 1.131918 0.206394 0.480518
  C 2.451111 -0.054316 0.739041
  C 3.186940 0.575643 1.869926
  H 2.507343 1.116913 2.515864
  C 3.096235 -0.758327 -0.341544
  C 4.216418 -0.239417 -0.961448
  C 4.286076 -0.300462 -2.431618
  H 4.160886 -1.318361 -2.809255
  H 5.171451 0.163611 -2.840086
  H 0.582841 0.946034 1.022013
  H 0.609428 -0.299914 -0.319324
  H 3.404942 0.230581 -2.800485
  H 3.953246 1.262079 1.527595
  H 3.685812 -0.194773 2.446701
  H 2.475809 -1.440001 -0.915068
  H 4.919162 0.385921 -0.422924
