 22
 0.000000
  H 1.435828 0.160763 0.451382
  C 2.516106 0.149573 0.422948
  C 3.271666 0.617021 1.585977
  C 2.424420 1.087840 2.758837
  H 3.056797 1.416681 3.577028
  C 3.089074 -0.318820 -0.743569
  C 4.471982 -0.417022 -0.988685
  C 5.103806 -0.871385 -2.120792
  C 4.606040 -1.384712 -3.400141
  C 3.119793 -1.501246 -3.691882
  H 2.976371 -1.902164 -4.691009
  H 6.187158 -0.864043 -2.102311
  H 3.935162 1.432862 1.272415
  H 3.935710 -0.188557 1.923783
  H 1.785416 0.284670 3.119253
  H 1.784873 1.916817 2.463705
  H 2.408511 -0.630232 -1.518799
  H 5.120523 -0.094060 -0.184210
  H 5.071962 -2.371473 -3.532595
  H 5.072632 -0.763745 -4.178005
  H 2.636728 -0.527668 -3.649795
  H 2.636065 -2.175276 -2.988572
 22
 -0.103807
  H 1.463371 0.193357 0.496347
  C 2.542041 0.206105 0.404177
  C 3.294046 0.615798 1.591698
  C 2.420392 1.007000 2.766515
  H 3.034440 1.295947 3.618577
  C 3.070616 -0.184870 -0.807377
  C 4.452630 -0.276900 -1.056871
  C 5.092321 -0.831568 -2.139638
  C 4.600500 -1.437237 -3.375615
  C 3.118443 -1.537518 -3.673778
  H 2.980640 -2.020609 -4.640770
  H 6.174591 -0.834510 -2.079806
  H 3.967523 1.448175 1.335719
  H 3.970113 -0.198176 1.894796
  H 1.785063 0.178886 3.071654
  H 1.780075 1.846644 2.510347
  H 2.376868 -0.464669 -1.580439
  H 5.102713 0.086703 -0.265647
  H 5.054613 -2.437286 -3.433233
  H 5.103414 -0.904960 -4.196984
  H 2.656710 -0.553956 -3.727377
  H 2.605104 -2.140757 -2.927921
 22
 1.074675
  H 1.458534 0.203333 0.500100
  C 2.536588 0.258312 0.374618
  C 3.312829 0.600227 1.570588
  C 2.446256 0.926075 2.787719
  H 3.071018 1.160609 3.641050
  C 3.036025 -0.038374 -0.871030
  C 4.416436 -0.140890 -1.123897
  C 5.084097 -0.766687 -2.147659
  C 4.611517 -1.479281 -3.334798
  C 3.132800 -1.582898 -3.646524
  H 3.001156 -2.155726 -4.562815
  H 6.161224 -0.771873 -2.062782
  H 3.973243 1.441579 1.353299
  H 3.975307 -0.235799 1.813126
  H 1.814631 0.082662 3.060035
  H 1.809128 1.785496 2.593920
  H 2.322630 -0.294631 -1.640895
  H 5.055335 0.286023 -0.356741
  H 5.042390 -2.486194 -3.293052
  H 5.128153 -1.027686 -4.192206
  H 2.693121 -0.600847 -3.808491
  H 2.598478 -2.102556 -2.856047
 22
 3.166095
  H 1.474709 0.274646 0.410320
  C 2.548170 0.370360 0.279956
  C 3.321857 0.543341 1.513433
  C 2.453212 0.758471 2.746321
  H 3.071947 0.892738 3.618800
  C 3.042210 0.221814 -0.995129
  C 4.423032 0.067994 -1.209812
  C 5.100598 -0.651965 -2.168997
  C 4.606559 -1.516737 -3.238522
  C 3.116036 -1.668527 -3.474678
  H 2.948998 -2.362865 -4.296579
  H 6.176306 -0.634104 -2.096967
  H 4.024596 1.375681 1.401734
  H 3.942237 -0.353500 1.677961
  H 1.806226 -0.091827 2.921471
  H 1.834920 1.647840 2.632113
  H 2.334828 0.102308 -1.797167
  H 5.076415 0.560368 -0.493447
  H 5.068042 -2.509632 -3.098770
  H 5.092341 -1.171131 -4.162598
  H 2.662721 -0.718026 -3.750965
  H 2.615569 -2.066653 -2.597182
 22
 7.206637
  H 1.515945 0.201199 0.381377
  C 2.588821 0.403269 0.232000
  C 3.347842 0.562643 1.483292
  C 2.442964 0.646636 2.713319
  H 3.045844 0.770064 3.616786
  C 3.055629 0.381399 -1.056101
  C 4.435986 0.155089 -1.261357
  C 5.110009 -0.597019 -2.183421
  C 4.597919 -1.542595 -3.188276
  C 3.109737 -1.694556 -3.377479
  H 2.917561 -2.466283 -4.121414
  H 6.190180 -0.568688 -2.132029
  H 3.998063 1.445950 1.426722
  H 4.001190 -0.304772 1.606472
  H 1.842106 -0.249370 2.830595
  H 1.784389 1.494370 2.643463
  H 2.351608 0.322018 -1.868926
  H 5.077047 0.686613 -0.559247
  H 5.057541 -2.521247 -2.992622
  H 5.063353 -1.264563 -4.147450
  H 2.665008 -0.771836 -3.737852
  H 2.625551 -2.003832 -2.452435
 22
 11.571445
  H 1.584848 0.089455 0.280941
  C 2.621224 0.410123 0.166676
  C 3.350669 0.539303 1.430981
  C 2.435249 0.497055 2.651783
  H 3.016979 0.621924 3.559743
  C 3.084659 0.569759 -1.107231
  C 4.449328 0.276696 -1.327504
  C 5.119651 -0.512250 -2.207442
  C 4.598437 -1.556271 -3.105703
  C 3.089656 -1.724021 -3.222652
  H 2.863841 -2.566581 -3.870729
  H 6.191740 -0.424494 -2.223509
  H 3.942578 1.465736 1.423545
  H 4.081203 -0.269166 1.519976
  H 1.915199 -0.457162 2.717205
  H 1.701394 1.293452 2.613090
  H 2.370124 0.569257 -1.916958
  H 5.098180 0.866017 -0.672891
  H 5.058908 -2.506468 -2.788256
  H 5.032760 -1.371163 -4.095258
  H 2.633216 -0.840578 -3.668192
  H 2.640528 -1.908750 -2.252041
 22
 17.953396
  H 1.763344 -0.231446 0.204650
  C 2.688549 0.331387 0.128950
  C 3.367564 0.593211 1.404485
  C 2.433390 0.407570 2.599028
  H 2.965369 0.584575 3.525588
  C 3.117060 0.654329 -1.131605
  C 4.505588 0.324694 -1.314407
  C 5.123907 -0.504134 -2.182061
  C 4.562629 -1.569609 -3.040145
  C 3.048976 -1.683071 -3.153624
  H 2.789072 -2.548740 -3.754049
  H 6.201991 -0.443194 -2.230254
  H 3.751738 1.614738 1.388554
  H 4.235612 -0.062228 1.537674
  H 2.039990 -0.600720 2.619153
  H 1.592384 1.097189 2.535665
  H 2.430280 0.646034 -1.969971
  H 5.133461 0.943345 -0.680972
  H 4.973014 -2.520579 -2.682933
  H 5.002016 -1.436033 -4.031428
  H 2.625080 -0.798951 -3.629051
  H 2.592146 -1.801452 -2.172574
 22
 29.006489
  H 1.974481 -0.406364 0.122025
  C 2.823625 0.284325 0.043646
  C 3.427765 0.568905 1.361914
  C 2.416623 0.342577 2.489131
  H 2.893656 0.528047 3.452285
  C 3.074547 0.770365 -1.209138
  C 4.473069 0.400038 -1.293108
  C 5.092980 -0.494833 -2.097033
  C 4.537278 -1.548359 -2.962269
  C 3.029389 -1.736630 -3.006662
  H 2.793389 -2.551113 -3.675905
  H 6.180257 -0.434076 -2.132322
  H 3.801122 1.598417 1.375072
  H 4.281215 -0.083373 1.546448
  H 2.044661 -0.680905 2.489795
  H 1.575353 1.021078 2.394440
  H 2.363164 0.867470 -2.009545
  H 5.114698 1.078323 -0.745020
  H 5.016827 -2.487380 -2.689428
  H 4.907909 -1.341312 -3.977440
  H 2.537423 -0.856982 -3.384862
  H 2.629346 -1.989075 -2.030048
 22
 38.695829
  H 2.209066 -0.482277 -0.042323
  C 2.965806 0.307286 -0.074662
  C 3.483063 0.624611 1.293352
  C 2.495540 0.166957 2.365582
  H 2.871460 0.443040 3.347121
  C 3.063475 0.937392 -1.300963
  C 4.419113 0.425211 -1.200562
  C 5.031499 -0.543209 -1.958613
  C 4.461148 -1.583426 -2.823628
  C 2.949717 -1.724243 -2.913130
  H 2.706863 -2.564113 -3.564017
  H 6.115414 -0.544022 -1.930328
  H 3.652066 1.700859 1.372209
  H 4.440850 0.133747 1.479648
  H 2.365517 -0.912903 2.346917
  H 1.528076 0.638459 2.231579
  H 2.359546 0.997615 -2.103600
  H 5.075171 1.112587 -0.673374
  H 4.904717 -2.540845 -2.519679
  H 4.871669 -1.407275 -3.828728
  H 2.494711 -0.838556 -3.339674
  H 2.510844 -1.926094 -1.941079
 22
 42.665143
  H 2.327964 -0.443840 -0.196105
  C 3.048197 0.378403 -0.162613
  C 3.505256 0.627019 1.251494
  C 2.531195 0.027768 2.264627
  H 2.864987 0.255428 3.266620
  C 3.085083 1.071438 -1.374280
  C 4.379478 0.420386 -1.151111
  C 5.000772 -0.605335 -1.855743
  C 4.418680 -1.650749 -2.692300
  C 2.906151 -1.734433 -2.820362
  H 2.644647 -2.588030 -3.441719
  H 6.080317 -0.621738 -1.808560
  H 3.599658 1.701563 1.410930
  H 4.492500 0.203113 1.421270
  H 2.477785 -1.053921 2.167822
  H 1.536498 0.438177 2.141260
  H 2.350586 1.184732 -2.140654
  H 5.054906 1.152414 -0.712804
  H 4.820855 -2.609710 -2.347605
  H 4.862875 -1.523493 -3.688769
  H 2.504247 -0.844531 -3.292319
  H 2.430530 -1.876631 -1.854466
