 14
 0.000000
  H 1.375272 0.140283 0.400410
  C 2.445261 0.138532 0.395784
  C 3.234973 0.607589 1.562934
  H 2.692888 0.951487 2.418959
  C 3.056527 -0.326240 -0.761266
  C 4.434557 -0.412807 -0.977341
  C 5.116634 -0.862171 -2.097644
  H 4.765001 -1.238392 -3.035574
  O 6.441363 -0.854110 -2.077903
  H 3.890881 1.419250 1.227711
  H 3.891049 -0.210235 1.882449
  H 2.395882 -0.642369 -1.548407
  H 5.050449 -0.080233 -0.149165
  H 6.799446 -0.516763 -1.236311
 14
 0.000000
  H 1.438313 0.114781 0.336889
  C 2.507993 0.124689 0.361291
  C 3.260598 0.602145 1.549371
  H 2.691775 0.939987 2.390330
  C 3.155451 -0.333221 -0.778689
  C 4.439741 -0.410708 -0.972125
  C 5.063918 -0.850037 -2.067409
  H 4.705371 -1.225357 -3.003079
  O 6.291217 -0.836102 -2.033019
  H 3.916479 1.420955 1.231949
  H 3.916639 -0.208531 1.886683
  H 2.549891 -0.656322 -1.583210
  H 5.065120 -0.080596 -0.150096
  H 6.587677 -0.487862 -1.164250
 14
 0.000000
  H 1.503444 0.089274 0.273356
  C 2.571849 0.111182 0.327638
  C 3.285558 0.596865 1.536217
  H 2.689699 0.928166 2.360904
  C 3.256011 -0.339248 -0.793739
  C 4.445319 -0.408292 -0.966122
  C 5.014652 -0.838679 -2.039107
  H 4.648450 -1.212978 -2.972219
  O 6.142881 -0.820099 -1.993128
  H 3.940823 1.423036 1.237122
  H 3.940977 -0.206452 1.891852
  H 2.705298 -0.669956 -1.617223
  H 5.080817 -0.080869 -0.150804
  H 6.372887 -0.459765 -1.094186
 14
 0.000000
  H 1.570432 0.063967 0.210323
  C 2.636508 0.098233 0.295372
  C 3.309420 0.591939 1.523946
  H 2.686242 0.916180 2.331066
  C 3.357876 -0.344057 -0.805752
  C 4.451678 -0.405353 -0.958814
  C 4.969554 -0.828529 -2.013817
  H 4.594815 -1.201660 -2.944003
  O 5.997571 -0.806566 -1.959395
  H 3.963428 1.425692 1.243727
  H 3.963574 -0.203798 1.898453
  H 2.862353 -0.683240 -1.650362
  H 5.098035 -0.080889 -0.150882
  H 6.154152 -0.432989 -1.027407
 14
 0.000000
  H 1.638868 0.039148 0.148504
  C 2.701460 0.086138 0.265234
  C 3.331569 0.587628 1.513208
  H 2.680816 0.904251 2.301374
  C 3.460513 -0.347299 -0.813865
  C 4.459378 -0.401607 -0.949494
  C 4.929524 -0.820171 -1.992993
  H 4.545224 -1.191958 -2.919810
  O 5.856919 -0.796080 -1.933252
  H 3.983617 1.429189 1.252431
  H 3.983756 -0.200302 1.907153
  H 3.021313 -0.696052 -1.682328
  H 5.117452 -0.080422 -0.149751
  H 5.930451 -0.408366 -0.965986
 14
 0.000000
  H 1.708056 0.015233 0.088937
  C 2.765903 0.075311 0.238256
  C 3.351131 0.584299 1.504915
  H 2.672605 0.892715 2.272657
  C 3.563052 -0.348517 -0.816934
  C 4.469217 -0.396670 -0.937207
  C 4.895708 -0.814404 -1.978625
  H 4.500730 -1.184644 -2.901565
  O 5.723168 -0.789367 -1.916510
  H 4.000452 1.433894 1.264143
  H 4.000583 -0.195599 1.918861
  H 3.182307 -0.708152 -1.712519
  H 5.139977 -0.079143 -0.146594
  H 5.700801 -0.387179 -0.913122
 14
 0.000000
  H 1.776798 -0.007142 0.033205
  C 2.828543 0.066351 0.215930
  C 3.366859 0.582481 1.500388
  H 2.660496 0.882088 2.246206
  C 3.664028 -0.347091 -0.813414
  C 4.482311 -0.390032 -0.920676
  C 4.869640 -0.812354 -1.973517
  H 4.462904 -1.180834 -2.892045
  O 5.599532 -0.787388 -1.911562
  H 4.012625 1.440314 1.280128
  H 4.012746 -0.189181 1.934843
  H 3.345000 -0.719155 -1.739979
  H 5.166809 -0.076592 -0.140271
  H 5.464563 -0.371355 -0.873621
 14
 0.000000
  H 1.841435 -0.026491 -0.014992
  C 2.885879 0.060288 0.200818
  C 3.376811 0.582939 1.501529
  H 2.643521 0.873420 2.224629
  C 3.758608 -0.342326 -0.801571
  C 4.499810 -0.381278 -0.898869
  C 4.853980 -0.815572 -1.981538
  H 4.435094 -1.182168 -2.895348
  O 5.493598 -0.791366 -1.921456
  H 4.018286 1.448931 1.301589
  H 4.018397 -0.180564 1.956301
  H 3.503857 -0.728473 -1.763233
  H 5.198701 -0.072271 -0.129530
  H 5.228093 -0.363744 -0.854586
 14
 0.000000
  H 1.891208 -0.039579 -0.047596
  C 2.928580 0.058287 0.195830
  C 3.379246 0.585953 1.509037
  H 2.623980 0.868505 2.212394
  C 3.831830 -0.334866 -0.783005
  C 4.520254 -0.371612 -0.874781
  C 4.852013 -0.824406 -2.003551
  H 4.423313 -1.189434 -2.913429
  O 5.423067 -0.800965 -1.945355
  H 4.016541 1.458756 1.326061
  H 4.016641 -0.170739 1.980773
  H 3.634193 -0.735627 -1.781080
  H 5.231760 -0.066621 -0.115466
  H 5.026722 -0.365866 -0.859818
 14
 0.000000
  H 1.926566 -0.046977 -0.066028
  C 2.957512 0.059913 0.199876
  C 3.374914 0.591365 1.522519
  H 2.602103 0.867251 2.209272
  C 3.885218 -0.325254 -0.759064
  C 4.543062 -0.361321 -0.849133
  C 4.861919 -0.838087 -2.037641
  H 4.426574 -1.202030 -2.944795
  O 5.383841 -0.814948 -1.980179
  H 4.008397 1.469713 1.353354
  H 4.008485 -0.159782 2.008067
  H 3.737668 -0.742204 -1.797470
  H 5.265178 -0.059807 -0.098493
  H 4.855678 -0.375730 -0.884358
 14
 0.000000
  H 1.947477 -0.049022 -0.071123
  C 2.973000 0.064886 0.212264
  C 3.364218 0.599100 1.541782
  H 2.577977 0.869667 2.215281
  C 3.919484 -0.313887 -0.730743
  C 4.567323 -0.350711 -0.822686
  C 4.883019 -0.855940 -2.082121
  H 4.445061 -1.219453 -2.988189
  O 5.373450 -0.832321 -2.023451
  H 3.994478 1.481761 1.383360
  H 3.994554 -0.147733 2.038077
  H 3.814751 -0.750248 -1.817497
  H 5.297791 -0.051999 -0.079039
  H 4.710064 -0.391258 -0.923018
 14
 0.000000
  H 1.953492 -0.045987 -0.063566
  C 2.974938 0.072901 0.232231
  C 3.347404 0.608978 1.566378
  H 2.551747 0.875699 2.230286
  C 3.934617 -0.301237 -0.699219
  C 4.591469 -0.340219 -0.796528
  C 4.915083 -0.877008 -2.134610
  H 4.479436 -1.240911 -3.041635
  O 5.390217 -0.851871 -2.072150
  H 3.975236 1.494698 1.415580
  H 3.975302 -0.134793 2.070303
  H 3.864634 -0.762027 -1.846810
  H 5.327660 -0.043459 -0.057758
  H 4.585457 -0.410217 -0.970232
 14
 0.000000
  H 1.944931 -0.038785 -0.045626
  C 2.963810 0.083125 0.257699
  C 3.324831 0.620294 1.594550
  H 2.523510 0.884654 2.252564
  C 3.931441 -0.288165 -0.666637
  C 4.612834 -0.330468 -0.772218
  C 4.956437 -0.899385 -2.190357
  H 4.528548 -1.264568 -3.100556
  O 5.429932 -0.871547 -2.121165
  H 3.951135 1.507870 1.448377
  H 3.951192 -0.121618 2.103108
  H 3.887312 -0.778969 -1.888969
  H 5.351712 -0.034632 -0.035763
  H 4.477648 -0.430225 -1.020059
 14
 0.000000
  H 1.923709 -0.029303 -0.022012
  C 2.941213 0.094192 0.285263
  C 3.296209 0.631924 1.623500
  H 2.491932 0.895040 2.278398
  C 3.912998 -0.275596 -0.635309
  C 4.628368 -0.321829 -0.750678
  C 5.003043 -0.920762 -2.243604
  H 4.588020 -1.288003 -3.158918
  O 5.483758 -0.889093 -2.164868
  H 3.921695 1.520472 1.479750
  H 3.921745 -0.109012 2.134490
  H 3.886923 -0.800535 -1.942637
  H 5.366839 -0.025849 -0.013874
  H 4.379877 -0.450019 -1.069352
