 25
 0.000000
  H 1.453346 0.169038 0.472987
  C 2.533647 0.151937 0.429363
  C 3.284298 0.621151 1.595943
  C 2.414882 1.086367 2.754999
  H 3.032676 1.419457 3.583098
  C 3.090916 -0.318531 -0.742205
  C 4.472672 -0.417703 -0.990153
  C 5.098752 -0.873724 -2.126355
  C 4.598867 -1.386396 -3.404092
  C 3.111602 -1.504373 -3.699927
  C 2.887864 -2.066905 -5.101832
  H 6.182089 -0.862876 -2.099161
  H 3.950767 1.437170 1.289485
  H 3.951717 -0.179267 1.939118
  H 1.775156 0.280254 3.107689
  H 1.774188 1.911758 2.452168
  H 2.406102 -0.628690 -1.513785
  H 5.126861 -0.096370 -0.190065
  H 5.066444 -2.372307 -3.540840
  H 5.067449 -0.769184 -4.184427
  H 2.636823 -0.523255 -3.643998
  H 2.635967 -2.174206 -2.981415
  H 3.327018 -1.420441 -5.858082
  H 1.824039 -2.149634 -5.309317
  H 3.326330 -3.057187 -5.201209
 25
 0.250573
  H 1.458996 0.222732 0.490803
  C 2.538711 0.236553 0.392996
  C 3.299093 0.594011 1.595062
  C 2.428536 0.968984 2.785955
  H 3.045338 1.216889 3.643686
  C 3.061903 -0.120331 -0.830066
  C 4.444316 -0.238624 -1.071134
  C 5.087211 -0.801498 -2.148448
  C 4.598993 -1.400208 -3.388751
  C 3.112634 -1.490780 -3.709529
  C 2.893495 -2.157247 -5.060762
  H 6.167829 -0.814106 -2.081351
  H 3.988030 1.415896 1.363911
  H 3.952449 -0.245100 1.872368
  H 1.773164 0.144547 3.066377
  H 1.804785 1.833786 2.555289
  H 2.365651 -0.369208 -1.610804
  H 5.087131 0.112777 -0.277572
  H 5.041155 -2.403160 -3.446235
  H 5.112346 -0.876627 -4.205105
  H 2.671446 -0.492698 -3.741206
  H 2.599129 -2.080035 -2.945254
  H 3.370342 -1.592640 -5.857558
  H 1.829987 -2.219115 -5.284025
  H 3.296555 -3.167876 -5.068699
 25
 2.745513
  H 1.447397 0.155678 0.514883
  C 2.522748 0.246292 0.376087
  C 3.319949 0.585062 1.556831
  C 2.474090 0.891060 2.782067
  H 3.117251 1.128565 3.632840
  C 3.001150 -0.024052 -0.892434
  C 4.377948 -0.132693 -1.116874
  C 5.066712 -0.750898 -2.134680
  C 4.609297 -1.398646 -3.360154
  C 3.126398 -1.462544 -3.701251
  C 2.904148 -2.200811 -5.029314
  H 6.141055 -0.767723 -2.022834
  H 3.968942 1.437691 1.331088
  H 3.992225 -0.244820 1.792893
  H 1.864972 0.034282 3.052701
  H 1.818887 1.743498 2.594184
  H 2.283752 -0.261628 -1.651685
  H 5.021652 0.254419 -0.339680
  H 5.018748 -2.418907 -3.344405
  H 5.157303 -0.929401 -4.183881
  H 2.721452 -0.446527 -3.791964
  H 2.580854 -2.004168 -2.908079
  H 3.419444 -1.695489 -5.855462
  H 1.847466 -2.234809 -5.269691
  H 3.270801 -3.220158 -4.976274
 25
 8.728795
  H 1.562197 0.045594 0.572035
  C 2.612546 0.240600 0.359756
  C 3.353737 0.548277 1.578751
  C 2.424574 0.809011 2.765923
  H 3.016355 1.032224 3.647572
  C 3.014538 0.122602 -0.962066
  C 4.402536 -0.021382 -1.181532
  C 5.090382 -0.676566 -2.177030
  C 4.631159 -1.370419 -3.386520
  C 3.135990 -1.444831 -3.687534
  C 2.878577 -2.261726 -4.953221
  H 6.174171 -0.688422 -2.067949
  H 3.978966 1.430899 1.433092
  H 4.011760 -0.283416 1.823970
  H 1.820161 -0.062830 2.997852
  H 1.766817 1.660119 2.566806
  H 2.269484 -0.043173 -1.721179
  H 5.071970 0.395844 -0.444213
  H 4.997902 -2.407822 -3.305652
  H 5.152398 -0.945089 -4.257701
  H 2.731595 -0.442623 -3.833696
  H 2.616871 -1.937709 -2.869371
  H 3.366431 -1.815392 -5.814091
  H 1.815451 -2.316844 -5.163404
  H 3.254350 -3.273102 -4.840735
 25
 12.597797
  H 1.629256 -0.057027 0.511620
  C 2.665027 0.240259 0.305043
  C 3.361638 0.503877 1.552015
  C 2.397127 0.727757 2.716219
  H 2.958271 0.906401 3.627698
  C 3.053606 0.306832 -1.009811
  C 4.429251 0.076782 -1.197248
  C 5.113188 -0.606918 -2.186889
  C 4.628491 -1.337289 -3.356187
  C 3.129244 -1.424541 -3.656187
  C 2.860853 -2.310811 -4.873412
  H 6.190770 -0.646088 -2.084244
  H 4.016078 1.389965 1.462178
  H 3.998435 -0.349370 1.820845
  H 1.752709 -0.143429 2.875546
  H 1.772711 1.589015 2.530436
  H 2.317236 0.197452 -1.777673
  H 5.107037 0.501386 -0.467578
  H 4.995245 -2.376553 -3.232711
  H 5.180745 -1.004819 -4.249940
  H 2.718251 -0.431966 -3.846697
  H 2.613612 -1.857703 -2.795999
  H 3.338480 -1.904631 -5.762035
  H 1.795835 -2.364466 -5.072126
  H 3.230251 -3.315396 -4.717734
 25
 15.402383
  H 1.739875 -0.336797 0.383602
  C 2.699819 0.161659 0.256338
  C 3.360549 0.472420 1.526881
  C 2.355369 0.635623 2.668221
  H 2.886994 0.859947 3.601689
  C 3.111150 0.446318 -1.015271
  C 4.477251 0.170576 -1.240750
  C 5.137238 -0.505105 -2.228960
  C 4.625817 -1.283077 -3.356818
  C 3.128174 -1.403840 -3.593756
  C 2.830537 -2.348216 -4.750979
  H 6.217013 -0.503991 -2.154350
  H 3.966790 1.384159 1.426926
  H 4.044330 -0.340334 1.798216
  H 1.773746 -0.270446 2.815340
  H 1.677360 1.452654 2.461937
  H 2.395909 0.315425 -1.807447
  H 5.121844 0.630716 -0.499603
  H 5.034104 -2.301814 -3.220085
  H 5.142545 -0.962780 -4.265078
  H 2.704025 -0.426324 -3.824761
  H 2.647528 -1.788209 -2.690244
  H 3.266541 -1.979567 -5.676694
  H 1.759672 -2.442517 -4.898602
  H 3.226649 -3.341572 -4.555860
 25
 25.728190
  H 1.984827 -0.576049 0.311930
  C 2.862010 0.063966 0.186408
  C 3.437659 0.433848 1.487606
  C 2.333015 0.539313 2.539652
  H 2.768252 0.810817 3.502268
  C 3.085273 0.553641 -1.076537
  C 4.473528 0.247200 -1.218161
  C 5.124763 -0.457479 -2.182749
  C 4.613418 -1.278728 -3.287771
  C 3.112464 -1.386144 -3.514698
  C 2.802643 -2.377522 -4.630016
  H 6.205959 -0.434571 -2.128989
  H 3.995722 1.369408 1.416434
  H 4.134382 -0.339463 1.820635
  H 1.815724 -0.404054 2.661753
  H 1.607365 1.301860 2.269462
  H 2.351117 0.548984 -1.860373
  H 5.107959 0.800955 -0.534579
  H 5.038206 -2.283403 -3.186976
  H 5.081189 -0.894108 -4.204119
  H 2.717196 -0.416882 -3.810928
  H 2.607088 -1.707031 -2.603299
  H 3.283940 -2.086918 -5.554857
  H 1.729918 -2.426686 -4.807031
  H 3.143606 -3.376228 -4.366917
 25
 37.153271
  H 2.233888 -0.719197 0.102607
  C 3.008128 0.059034 0.027970
  C 3.507218 0.436998 1.379499
  C 2.351491 0.391171 2.380698
  H 2.718322 0.677684 3.362821
  C 3.048563 0.730037 -1.177435
  C 4.438471 0.331188 -1.151905
  C 5.098371 -0.457285 -2.069415
  C 4.581422 -1.302724 -3.152316
  C 3.076663 -1.389246 -3.390275
  C 2.769712 -2.360743 -4.525718
  H 6.177102 -0.459405 -1.989374
  H 3.937726 1.436859 1.354612
  H 4.281742 -0.261282 1.712964
  H 1.930860 -0.606691 2.455541
  H 1.563373 1.084000 2.095606
  H 2.319648 0.846256 -1.949222
  H 5.067855 0.914975 -0.489136
  H 4.981007 -2.313993 -2.986843
  H 5.074378 -0.984777 -4.082416
  H 2.687839 -0.406993 -3.662467
  H 2.570651 -1.737992 -2.486665
  H 3.239205 -2.038864 -5.448447
  H 1.698167 -2.419297 -4.697789
  H 3.126634 -3.355984 -4.292411
 25
 39.043088
  H 2.500277 -0.727348 -0.135962
  C 3.173565 0.133541 -0.108093
  C 3.531998 0.470476 1.315933
  C 2.342409 0.198450 2.236389
  H 2.611199 0.451381 3.258832
  C 3.108308 0.956654 -1.251714
  C 4.452359 0.395980 -1.108997
  C 5.094472 -0.491397 -1.985946
  C 4.544245 -1.347897 -3.036044
  C 3.040651 -1.371878 -3.291410
  C 2.703534 -2.368836 -4.396429
  H 6.172890 -0.543083 -1.888849
  H 3.817720 1.521089 1.386590
  H 4.377303 -0.137156 1.641484
  H 2.054946 -0.850145 2.213286
  H 1.484399 0.803004 1.951898
  H 2.396514 1.114047 -2.026590
  H 5.122325 1.006588 -0.502817
  H 4.897283 -2.369541 -2.829646
  H 5.067554 -1.093807 -3.969769
  H 2.702342 -0.385368 -3.603582
  H 2.505269 -1.660987 -2.386695
  H 3.200562 -2.101968 -5.326507
  H 1.632088 -2.383451 -4.580908
  H 3.010682 -3.375201 -4.120818
 25
 41.193700
  H 2.611653 -0.783929 -0.133051
  C 3.293547 0.066814 -0.080289
  C 3.516850 0.491316 1.353942
  C 2.287377 0.168927 2.199180
  H 2.464528 0.470531 3.227063
  C 3.157362 0.920948 -1.228856
  C 4.485631 0.311225 -1.086989
  C 5.130907 -0.542107 -2.004267
  C 4.556388 -1.364783 -3.054558
  C 3.044117 -1.401601 -3.240002
  C 2.669770 -2.356946 -4.365703
  H 6.213377 -0.577416 -1.936766
  H 3.725124 1.560401 1.392267
  H 4.382512 -0.034742 1.757317
  H 2.073381 -0.895563 2.192934
  H 1.410505 0.704106 1.831940
  H 2.399563 1.164791 -1.931451
  H 5.194799 0.979428 -0.592341
  H 4.933453 -2.385282 -2.898142
  H 5.041599 -1.082143 -4.001152
  H 2.678524 -0.408996 -3.499131
  H 2.554110 -1.732950 -2.328461
  H 3.119067 -2.044791 -5.307176
  H 1.589921 -2.379713 -4.500729
  H 3.003759 -3.371395 -4.144842
 25
 64.631810
  H 2.576061 -0.790342 -0.096143
  C 3.331175 0.012224 -0.080791
  C 3.534987 0.490973 1.337046
  C 2.322143 0.192491 2.216440
  H 2.514275 0.531041 3.232619
  C 3.064758 0.907573 -1.387142
  C 4.392590 0.197193 -1.001291
  C 5.104188 -0.655087 -1.913201
  C 4.552712 -1.422822 -3.012285
  C 3.045943 -1.403162 -3.239172
  C 2.667621 -2.310133 -4.413085
  H 6.179812 -0.704878 -1.798797
  H 3.734552 1.565310 1.333579
  H 4.426154 -0.019695 1.741161
  H 2.116314 -0.878935 2.253810
  H 1.443220 0.701099 1.850167
  H 2.297396 1.225586 -2.046650
  H 5.087484 0.882992 -0.517753
  H 4.897406 -2.460663 -2.877807
  H 5.085743 -1.131272 -3.935016
  H 2.723895 -0.392233 -3.481691
  H 2.514910 -1.750708 -2.355711
  H 3.156032 -1.978392 -5.330562
  H 1.593750 -2.285831 -4.579478
  H 2.959141 -3.339200 -4.217942
