 17
 0.000000
  H 1.455172 0.106604 0.315980
  C 2.534620 0.112190 0.330681
  C 3.203140 0.598391 1.539278
  H 2.492373 0.903578 2.297417
  C 3.170176 -0.343499 -0.802546
  C 4.558164 -0.407615 -0.962357
  C 5.220548 -0.866141 -2.106714
  C 4.565622 -1.357445 -3.333082
  H 3.487058 -1.339323 -3.288925
  O 6.521196 -0.886564 -2.158669
  H 3.857487 1.440286 1.303059
  H 3.857359 -0.172538 1.952029
  H 2.543477 -0.670780 -1.617424
  H 5.178071 -0.077899 -0.140369
  H 4.910515 -2.372536 -3.535590
  H 4.911171 -0.763412 -4.180501
  H 6.979029 -0.565719 -1.359284
 17
 0.344887
  H 1.476198 0.416159 0.260775
  C 2.534134 0.222912 0.274469
  C 3.216018 0.464634 1.551563
  H 2.510675 0.715264 2.336603
  C 3.152748 -0.199015 -0.880427
  C 4.538601 -0.324155 -0.999250
  C 5.218128 -0.823111 -2.113814
  C 4.572248 -1.484440 -3.262766
  H 3.500359 -1.574672 -3.155322
  O 6.519704 -0.759450 -2.192270
  H 3.925269 1.289729 1.453348
  H 3.800240 -0.402917 1.858605
  H 2.529373 -0.406566 -1.738226
  H 5.136514 0.029828 -0.167777
  H 5.011737 -2.472680 -3.392875
  H 4.809432 -0.937030 -4.174324
  H 6.966746 -0.323128 -1.444868
 17
 5.838749
  H 1.509709 0.665892 0.295429
  C 2.546871 0.362734 0.209920
  C 3.247122 0.269547 1.510673
  H 2.549628 0.473104 2.323451
  C 3.145878 0.083778 -0.991738
  C 4.507342 -0.219671 -1.048608
  C 5.214340 -0.753610 -2.132810
  C 4.600646 -1.680272 -3.100631
  H 3.559470 -1.881295 -2.876472
  O 6.480610 -0.522484 -2.313412
  H 4.034745 1.019625 1.592365
  H 3.655488 -0.724131 1.689084
  H 2.571152 0.162463 -1.901816
  H 5.024217 -0.122910 -0.091921
  H 5.167894 -2.610849 -3.100000
  H 4.694841 -1.277518 -4.111170
  H 6.892202 0.099831 -1.683344
 17
 20.534429
  H 1.633423 0.972548 0.343515
  C 2.589964 0.495344 0.227671
  C 3.293108 0.059761 1.457466
  H 2.599322 0.225388 2.295634
  C 3.144025 0.367783 -1.023236
  C 4.440549 -0.123457 -1.133798
  C 5.186107 -0.686538 -2.191884
  C 4.679762 -1.844975 -2.945621
  H 3.680304 -2.126938 -2.632924
  O 6.385383 -0.303972 -2.483468
  H 4.115359 0.714256 1.730412
  H 3.451687 -1.015499 1.518006
  H 2.607132 0.707766 -1.896485
  H 4.819619 -0.312998 -0.113774
  H 5.369641 -2.675060 -2.810895
  H 4.677795 -1.617472 -4.015813
  H 6.695987 0.515237 -2.035817
 17
 40.947381
  H 1.618241 0.984223 0.525206
  C 2.574279 0.574785 0.204509
  C 3.411729 -0.032919 1.279010
  H 2.794505 0.033421 2.195258
  C 3.032868 0.564663 -1.079386
  C 4.291463 0.001333 -1.269642
  C 5.146200 -0.653319 -2.157825
  C 4.749308 -1.916208 -2.826850
  H 3.745069 -2.214938 -2.588667
  O 6.362996 -0.277787 -2.379359
  H 4.212667 0.592108 1.638431
  H 3.477196 -1.117192 1.233860
  H 2.454276 0.989955 -1.893247
  H 4.582596 -0.273628 -0.147494
  H 5.457470 -2.691581 -2.533957
  H 4.821485 -1.786739 -3.905610
  H 6.609908 0.582496 -1.984134
 17
 64.530054
  H 1.663299 1.058180 0.559767
  C 2.586647 0.646130 0.199342
  C 3.498972 -0.115542 1.135103
  H 2.944865 -0.160074 2.106925
  C 2.978949 0.676164 -1.113678
  C 4.154854 0.049694 -1.410980
  C 5.070501 -0.612034 -2.150941
  C 4.787651 -1.966069 -2.724319
  H 3.785196 -2.295944 -2.483666
  O 6.317419 -0.215244 -2.338424
  H 4.312027 0.485232 1.579352
  H 3.489978 -1.203985 1.019339
  H 2.421285 1.200889 -1.872889
  H 4.398078 -0.279227 0.023777
  H 5.518234 -2.681313 -2.352422
  H 4.901492 -1.911946 -3.803181
  H 6.485259 0.694451 -2.034416
 17
 67.485146
  H 1.723722 1.139332 0.525307
  C 2.606044 0.617559 0.203416
  C 3.480041 -0.131072 1.181959
  H 2.990143 -0.099660 2.181097
  C 2.980238 0.635964 -1.126562
  C 4.108653 0.034713 -1.570983
  C 5.034396 -0.580321 -2.254705
  C 4.864850 -1.981698 -2.777766
  H 3.872755 -2.364215 -2.561961
  O 6.300217 -0.101509 -2.464799
  H 4.302085 0.488045 1.629925
  H 3.309536 -1.242635 1.189520
  H 2.371061 1.174542 -1.843228
  H 4.323351 -0.445736 0.474602
  H 5.622625 -2.628443 -2.341598
  H 5.019330 -1.968992 -3.854913
  H 6.373142 0.833010 -2.224894
 17
 67.657169
  H 1.760558 1.165105 0.506348
  C 2.638638 0.626905 0.196567
  C 3.461040 -0.128432 1.212500
  H 2.882802 -0.189667 2.163806
  C 2.993231 0.637065 -1.137848
  C 4.079365 0.012190 -1.644672
  C 5.017533 -0.610318 -2.296416
  C 4.869432 -2.022180 -2.799803
  H 3.874904 -2.404889 -2.600287
  O 6.279562 -0.112514 -2.522018
  H 4.126512 0.537458 1.851352
  H 3.400049 -1.233345 1.080323
  H 2.369313 1.191255 -1.830057
  H 4.480822 -0.214017 0.725390
  H 5.618057 -2.656981 -2.329703
  H 5.051356 -2.030708 -3.872797
  H 6.332763 0.827247 -2.299274
 17
 70.852983
  H 1.767062 1.188775 0.479131
  C 2.646371 0.643848 0.185509
  C 3.413754 -0.153537 1.217598
  H 2.730054 -0.263369 2.079562
  C 3.021882 0.642088 -1.143857
  C 4.105908 0.005271 -1.639103
  C 5.022362 -0.632155 -2.307872
  C 4.848434 -2.053133 -2.775513
  H 3.855067 -2.423222 -2.539826
  O 6.279014 -0.150210 -2.579015
  H 4.079625 0.355064 2.031889
  H 3.584715 -1.193398 0.906146
  H 2.403129 1.191047 -1.845974
  H 4.466515 0.224253 0.922809
  H 5.602801 -2.682455 -2.310296
  H 5.002150 -2.087260 -3.852736
  H 6.346566 0.793062 -2.375272
 17
 74.819385
  H 1.822667 1.261340 0.499193
  C 2.674831 0.688531 0.185651
  C 3.414942 -0.185598 1.251841
  H 2.663735 -0.232673 2.049471
  C 3.023276 0.646253 -1.149794
  C 4.103422 0.007151 -1.647912
  C 5.022845 -0.637993 -2.304772
  C 4.859101 -2.077008 -2.717373
  H 3.874618 -2.449579 -2.455668
  O 6.267238 -0.150115 -2.606187
  H 4.245846 0.004416 2.026499
  H 3.582524 -1.178479 0.825835
  H 2.379609 1.170198 -1.848258
  H 4.200334 0.564050 0.884207
  H 5.627895 -2.679296 -2.237902
  H 4.999660 -2.148950 -3.793819
  H 6.328100 0.799389 -2.431370
 17
 70.825078
  H 1.924864 1.305742 0.542740
  C 2.753081 0.714677 0.205946
  C 3.446231 -0.243807 1.316512
  H 2.644089 -0.286852 2.062085
  C 3.056396 0.666018 -1.157778
  C 4.100307 0.006993 -1.689922
  C 5.035419 -0.650437 -2.309530
  C 4.858193 -2.089754 -2.705373
  H 3.864732 -2.446471 -2.454611
  O 6.284031 -0.179537 -2.592358
  H 4.277969 -0.049652 2.032719
  H 3.608142 -1.219269 0.861196
  H 2.389753 1.195959 -1.826311
  H 3.935094 0.712330 0.749863
  H 5.612158 -2.692351 -2.203422
  H 5.016127 -2.178217 -3.779108
  H 6.359093 0.771064 -2.429654
 17
 56.364635
  H 2.201140 1.515995 0.689764
  C 2.944737 0.839157 0.317291
  C 3.224987 -0.408509 1.266280
  H 2.425604 -0.384082 2.003890
  C 3.192280 0.770963 -1.099682
  C 4.096400 0.015991 -1.692626
  C 5.036994 -0.642835 -2.341103
  C 4.945092 -2.125996 -2.521838
  H 4.024356 -2.521337 -2.107868
  O 6.137699 -0.101876 -2.885996
  H 4.103547 -0.441962 1.903775
  H 3.159503 -1.321851 0.696554
  H 2.552092 1.382249 -1.729708
  H 3.994192 0.881847 0.704907
  H 5.799882 -2.599930 -2.051660
  H 4.987306 -2.342500 -3.586943
  H 6.137011 0.868962 -2.860968
 17
 35.719779
  H 2.374534 1.586905 0.809055
  C 3.055587 0.838299 0.440772
  C 3.092388 -0.475714 1.256091
  H 2.197098 -0.525437 1.879954
  C 3.268157 0.762109 -1.020283
  C 4.103406 0.022160 -1.672331
  C 5.019687 -0.652946 -2.397601
  C 4.965854 -2.135685 -2.455661
  H 4.120710 -2.529512 -1.905751
  O 6.064292 -0.105382 -2.980486
  H 3.921931 -0.536446 1.958087
  H 3.086202 -1.342885 0.609339
  H 2.586768 1.381251 -1.607298
  H 4.098134 1.090870 0.719760
  H 5.894436 -2.544402 -2.066045
  H 4.893870 -2.441620 -3.497626
  H 6.049136 0.865124 -3.025506
 17
 26.341415
  H 2.312196 1.522115 0.781667
  C 3.116666 0.856373 0.494786
  C 3.062405 -0.487381 1.243277
  H 2.141056 -0.560412 1.817553
  C 3.293650 0.724049 -0.988250
  C 4.154323 0.029673 -1.636399
  C 5.060536 -0.655947 -2.378045
  C 4.966762 -2.128905 -2.484874
  H 4.105627 -2.518692 -1.953293
  O 6.066688 -0.094317 -2.998588
  H 3.881274 -0.584349 1.949489
  H 3.088603 -1.330323 0.560217
  H 2.573473 1.307518 -1.565786
  H 4.078551 1.283530 0.802157
  H 5.881573 -2.582202 -2.103194
  H 4.906541 -2.403890 -3.539026
  H 6.102266 0.879850 -2.957222
 17
 24.850606
  H 2.047288 1.308924 0.648228
  C 3.030595 0.889420 0.465748
  C 3.259577 -0.367731 1.323978
  H 2.339980 -0.668121 1.818867
  C 3.225106 0.610942 -1.002707
  C 4.170875 -0.012216 -1.591462
  C 5.081314 -0.716321 -2.326609
  C 4.824276 -2.127499 -2.674138
  H 3.871576 -2.472828 -2.288737
  O 6.213810 -0.210737 -2.733096
  H 4.004555 -0.173186 2.089877
  H 3.598672 -1.210396 0.730030
  H 2.452522 1.066468 -1.625588
  H 3.796924 1.617618 0.734449
  H 5.636314 -2.745930 -2.288135
  H 4.852540 -2.247796 -3.757935
  H 6.386268 0.716079 -2.478302
