 17
 0.000000
  H 1.491238 0.163646 0.456475
  C 2.573212 0.157463 0.440419
  C 3.251985 0.640537 1.643580
  C 2.310071 1.084335 2.751266
  H 2.872695 1.430193 3.614178
  C 3.188432 -0.302769 -0.705068
  C 4.573846 -0.379264 -0.895897
  C 5.109783 -0.855299 -2.077388
  H 4.461578 -1.181480 -2.885144
  O 6.364785 -0.967198 -2.354576
  H 3.922695 1.467679 1.376808
  H 3.923130 -0.141384 2.022179
  H 1.670743 0.264536 3.070054
  H 1.670386 1.897160 2.415798
  H 2.558483 -0.630672 -1.520292
  H 5.238844 -0.061112 -0.105553
  H 6.979586 -0.681117 -1.645937
 17
 13.091740
  H 1.436482 0.176951 0.488735
  C 2.518252 0.163774 0.456299
  C 3.218989 0.641971 1.647784
  C 2.302000 1.092341 2.770755
  H 2.882193 1.433840 3.623277
  C 3.104730 -0.296632 -0.689107
  C 4.624691 -0.386744 -0.913347
  C 5.120924 -0.858780 -2.085304
  H 4.472472 -1.182137 -2.885863
  O 6.490912 -0.986002 -2.402582
  H 3.892503 1.463480 1.369131
  H 3.892357 -0.144484 2.014092
  H 1.661573 0.277439 3.100944
  H 1.661929 1.909956 2.446640
  H 2.472490 -0.622113 -1.498920
  H 5.294532 -0.071169 -0.129352
  H 7.094895 -0.699773 -1.695626
 17
 38.935572
  H 1.400171 0.190025 0.518027
  C 2.476540 0.170210 0.470709
  C 3.190039 0.639288 1.641107
  C 2.308761 1.099610 2.788927
  H 2.909973 1.434936 3.628146
  C 3.025469 -0.292818 -0.679896
  C 4.685343 -0.386465 -0.909514
  C 5.093153 -0.862956 -2.092041
  H 4.507561 -1.199800 -2.924643
  O 6.580988 -0.999479 -2.435739
  H 3.878633 1.443272 1.349776
  H 3.877939 -0.144190 1.985621
  H 1.658284 0.297139 3.130110
  H 1.659902 1.917048 2.481743
  H 2.457097 -0.632310 -1.525664
  H 5.309143 -0.062518 -0.104435
  H 7.096240 -0.690496 -1.683431
 17
 70.498094
  H 1.331306 0.199476 0.542295
  C 2.416026 0.174013 0.479699
  C 3.159966 0.643118 1.649186
  C 2.318813 1.102418 2.796704
  H 2.941589 1.433590 3.625395
  C 2.936071 -0.289098 -0.671539
  C 4.728826 -0.390390 -0.919713
  C 5.085437 -0.861746 -2.089154
  H 4.529059 -1.203206 -2.933912
  O 6.695001 -1.011141 -2.462659
  H 3.855575 1.444938 1.346470
  H 3.855533 -0.145585 1.983207
  H 1.665080 0.302003 3.151808
  H 1.665663 1.927348 2.501840
  H 2.391523 -0.632486 -1.526774
  H 5.339943 -0.063427 -0.107104
  H 7.169613 -0.699115 -1.702449
 17
 101.584544
  H 1.274764 0.209146 0.567789
  C 2.362807 0.176219 0.486450
  C 3.133199 0.641267 1.644508
  C 2.319270 1.112592 2.821189
  H 2.959788 1.437484 3.633027
  C 2.848678 -0.286623 -0.664287
  C 4.769306 -0.393924 -0.927475
  C 5.072377 -0.861237 -2.089397
  H 4.549736 -1.208185 -2.950422
  O 6.808077 -1.024302 -2.497912
  H 3.832595 1.431407 1.324448
  H 3.833130 -0.151027 1.958501
  H 1.664109 0.324470 3.191088
  H 1.664388 1.938527 2.545055
  H 2.331770 -0.634387 -1.531004
  H 5.365016 -0.062752 -0.102951
  H 7.260361 -0.706345 -1.717413
 17
 128.939390
  H 1.231922 0.219073 0.595383
  C 2.319088 0.179783 0.496055
  C 3.109577 0.643901 1.649657
  C 2.313544 1.120797 2.841468
  H 2.965988 1.442895 3.644501
  C 2.766442 -0.282797 -0.655046
  C 4.803558 -0.396182 -0.930407
  C 5.050991 -0.860717 -2.088368
  H 4.566353 -1.211989 -2.963183
  O 6.921168 -1.042297 -2.545145
  H 3.810092 1.430016 1.318194
  H 3.811797 -0.152335 1.952312
  H 1.655982 0.337775 3.220139
  H 1.655039 1.948182 2.575371
  H 2.280570 -0.634365 -1.533036
  H 5.378462 -0.061518 -0.094346
  H 7.367946 -0.724022 -1.758514
 17
 147.620329
  H 1.229359 0.239510 0.629389
  C 2.318870 0.189334 0.500401
  C 3.104372 0.651868 1.669412
  C 2.296516 1.124362 2.851593
  H 2.946389 1.444295 3.659727
  C 2.667670 -0.272753 -0.640239
  C 4.846844 -0.405156 -0.948000
  C 5.027435 -0.865276 -2.085925
  H 4.569479 -1.221498 -2.983477
  O 7.005329 -1.054691 -2.582470
  H 3.794419 1.448869 1.346690
  H 3.788550 -0.152826 1.984371
  H 1.641177 0.334062 3.223292
  H 1.644373 1.956569 2.577461
  H 2.216702 -0.647356 -1.532871
  H 5.375640 -0.056604 -0.094011
  H 7.488948 -0.739964 -1.809487
 17
 158.968183
  H 1.192206 0.246440 0.669690
  C 2.284549 0.189130 0.517921
  C 3.081976 0.661834 1.682912
  C 2.275915 1.136238 2.874889
  H 2.934192 1.460053 3.674250
  C 2.568979 -0.270714 -0.627959
  C 4.906030 -0.425668 -0.957439
  C 5.034160 -0.868142 -2.096787
  H 4.590246 -1.212224 -2.999040
  O 7.103521 -1.066215 -2.637303
  H 3.752570 1.459125 1.350957
  H 3.760020 -0.138295 1.992514
  H 1.633951 0.344475 3.256443
  H 1.625957 1.966545 2.605562
  H 2.151243 -0.636487 -1.536219
  H 5.405820 -0.089666 -0.084088
  H 7.607239 -0.765769 -1.872285
 17
 165.573386
  H 1.153238 0.263299 0.710824
  C 2.246392 0.200355 0.537563
  C 3.055204 0.663323 1.699694
  C 2.252543 1.144254 2.897519
  H 2.920091 1.459393 3.693236
  C 2.471020 -0.264246 -0.610036
  C 4.970461 -0.418063 -0.973821
  C 5.044009 -0.871165 -2.104686
  H 4.611652 -1.231190 -3.000156
  O 7.197943 -1.093798 -2.689850
  H 3.721836 1.459841 1.360104
  H 3.719359 -0.149548 2.004226
  H 1.610079 0.356543 3.283812
  H 1.615565 1.984934 2.633791
  H 2.086898 -0.632526 -1.531838
  H 5.446674 -0.065451 -0.097715
  H 7.720948 -0.791861 -1.938745
 17
 170.582474
  H 1.103836 0.283717 0.752970
  C 2.195823 0.219460 0.560510
  C 3.017386 0.670740 1.717154
  C 2.227981 1.152377 2.924551
  H 2.906221 1.459566 3.713560
  C 2.382133 -0.248303 -0.587808
  C 5.023115 -0.420756 -0.990607
  C 5.062642 -0.881925 -2.114581
  H 4.630750 -1.246656 -3.010080
  O 7.318468 -1.122593 -2.753216
  H 3.683770 1.466011 1.372773
  H 3.675111 -0.151348 2.011544
  H 1.586320 0.366576 3.315508
  H 1.595985 1.999775 2.670549
  H 2.009053 -0.630675 -1.508159
  H 5.493354 -0.055422 -0.116106
  H 7.855134 -0.818677 -2.012528
 17
 173.757982
  H 1.052891 0.304139 0.794558
  C 2.144233 0.237693 0.584753
  C 2.977655 0.678168 1.736711
  C 2.201495 1.161885 2.952886
  H 2.890377 1.461586 3.735436
  C 2.292821 -0.232646 -0.563658
  C 5.074827 -0.425547 -1.005742
  C 5.080580 -0.892971 -2.123220
  H 4.650743 -1.260442 -3.017161
  O 7.437627 -1.149079 -2.818372
  H 3.644565 1.470846 1.387473
  H 3.628315 -0.152715 2.021460
  H 1.559994 0.378991 3.348906
  H 1.575137 2.015644 2.707817
  H 1.931553 -0.628122 -1.484525
  H 5.538794 -0.049852 -0.133874
  H 7.987382 -0.843447 -2.087968
 17
 175.678803
  H 1.000539 0.324519 0.836785
  C 2.090630 0.255231 0.610582
  C 2.936097 0.685626 1.757203
  C 2.174205 1.172085 2.981824
  H 2.873985 1.464820 3.757320
  C 2.201651 -0.217119 -0.537703
  C 5.123780 -0.431804 -1.018910
  C 5.096931 -0.903669 -2.130074
  H 4.670760 -1.273091 -3.023635
  O 7.555616 -1.173038 -2.882564
  H 3.603671 1.474940 1.402368
  H 3.579778 -0.153575 2.032265
  H 1.532781 0.392478 3.383797
  H 1.553242 2.031936 2.745421
  H 1.853297 -0.623749 -1.458634
  H 5.581073 -0.047393 -0.148435
  H 8.117181 -0.866059 -2.161711
 17
 176.783906
  H 0.946425 0.345332 0.879851
  C 2.034913 0.272274 0.638427
  C 2.892501 0.693166 1.779267
  C 2.145418 1.183216 3.011698
  H 2.856036 1.469361 3.779832
  C 2.108830 -0.201573 -0.509393
  C 5.169829 -0.439891 -1.029430
  C 5.111274 -0.914409 -2.134846
  H 4.690311 -1.284951 -3.028987
  O 7.672220 -1.193874 -2.946362
  H 3.561195 1.478439 1.418286
  H 3.528925 -0.154161 2.045051
  H 1.503729 0.407441 3.420209
  H 1.529961 2.048991 2.783388
  H 1.773904 -0.617565 -1.430990
  H 5.619753 -0.048617 -0.159411
  H 8.244744 -0.885725 -2.234503
 17
 177.353155
  H 0.890157 0.366434 0.924287
  C 1.976803 0.288604 0.668931
  C 2.846423 0.700729 1.803442
  C 2.114234 1.195233 3.042870
  H 2.835411 1.475329 3.803506
  C 2.014178 -0.186271 -0.478109
  C 5.212694 -0.448089 -1.037064
  C 5.122794 -0.923916 -2.137064
  H 4.708293 -1.295397 -3.032510
  O 7.786520 -1.212616 -3.009413
  H 3.516519 1.481362 1.435793
  H 3.475323 -0.154495 2.060667
  H 1.472020 0.423778 3.458403
  H 1.504340 2.066680 2.821835
  H 1.693316 -0.609536 -1.401071
  H 5.654561 -0.051437 -0.166335
  H 8.369467 -0.903725 -2.306148
