 16
 0.000000
  C 0.999412 0.135772 0.371052
  C 2.453063 0.086819 0.275116
  H 3.047540 0.418052 1.116844
  C 3.092651 -0.361438 -0.854651
  C 4.492021 -0.404780 -0.970689
  C 5.172656 -0.849754 -2.086438
  C 4.599141 -1.355864 -3.321041
  H 3.517023 -1.376131 -3.342493
  H 6.255702 -0.823995 -2.053468
  H 0.649212 0.512104 1.325155
  H 0.575338 -0.854882 0.185737
  H 0.600337 0.748739 -0.442937
  H 2.484846 -0.689139 -1.686289
  H 5.072180 -0.063825 -0.123916
  H 4.994645 -2.355573 -3.515032
  H 4.979001 -0.767025 -4.159266
 16
 1.757659
  C 1.033776 0.138982 0.291139
  C 2.481166 0.034373 0.356618
  H 3.027522 0.408188 1.205471
  C 3.143294 -0.457996 -0.742875
  C 4.528227 -0.435544 -0.910018
  C 5.137835 -0.817905 -2.082128
  C 4.520093 -1.302705 -3.301680
  H 3.437957 -1.349506 -3.284669
  H 6.220540 -0.759783 -2.115109
  H 0.587203 0.681225 1.109306
  H 0.575163 -0.852016 0.214188
  H 0.824262 0.599857 -0.675502
  H 2.538792 -0.832256 -1.555000
  H 5.138627 -0.076099 -0.099669
  H 4.931324 -2.288203 -3.534746
  H 4.850690 -0.682590 -4.138387
 16
 5.933351
  C 1.085023 0.137085 0.170817
  C 2.506933 -0.005397 0.423334
  H 2.987997 0.421084 1.287713
  C 3.212619 -0.554340 -0.615946
  C 4.579849 -0.467138 -0.838630
  C 5.095665 -0.786393 -2.066288
  C 4.411779 -1.240493 -3.268418
  H 3.336744 -1.305112 -3.202790
  H 6.180675 -0.706452 -2.172204
  H 0.564561 0.810498 0.837544
  H 0.589443 -0.841618 0.190476
  H 1.044659 0.438591 -0.887618
  H 2.625576 -0.986754 -1.410234
  H 5.229364 -0.084017 -0.069800
  H 4.826068 -2.209687 -3.552632
  H 4.685912 -0.589001 -4.099666
 16
 11.570397
  C 1.161485 0.142411 0.029075
  C 2.532336 -0.059076 0.467166
  H 2.954136 0.439793 1.324042
  C 3.272599 -0.707001 -0.480693
  C 4.613773 -0.514050 -0.766868
  C 5.041582 -0.741328 -2.043843
  C 4.301376 -1.172507 -3.223835
  H 3.230345 -1.281901 -3.102883
  H 6.106771 -0.597953 -2.223564
  H 0.631862 0.937259 0.531980
  H 0.588794 -0.784239 0.119818
  H 1.278606 0.308927 -1.059764
  H 2.709499 -1.239486 -1.236043
  H 5.283118 -0.075014 -0.040516
  H 4.735403 -2.112984 -3.572279
  H 4.498910 -0.475242 -4.040062
 16
 17.477406
  C 1.281075 0.181781 -0.138827
  C 2.572613 -0.135173 0.456239
  H 2.988573 0.443062 1.271032
  C 3.302412 -0.968790 -0.340224
  C 4.603027 -0.613528 -0.691857
  C 4.955794 -0.653138 -2.007736
  C 4.195408 -1.101944 -3.170359
  H 3.158958 -1.357946 -2.986316
  H 5.971310 -0.325830 -2.242343
  H 0.852354 1.108088 0.214054
  H 0.566905 -0.627862 0.016678
  H 1.494588 0.207518 -1.221912
  H 2.767660 -1.620277 -1.015295
  H 5.239607 -0.102951 0.012415
  H 4.716061 -1.962856 -3.601082
  H 4.244901 -0.339239 -3.951061
 16
 24.073611
  C 1.409731 0.203033 -0.322130
  C 2.620230 -0.157611 0.399304
  H 3.046027 0.491398 1.149988
  C 3.331803 -1.135694 -0.228434
  C 4.608597 -0.703403 -0.616311
  C 4.867009 -0.593126 -1.945339
  C 4.064742 -1.037240 -3.088050
  H 3.101198 -1.469729 -2.839379
  H 5.812302 -0.115730 -2.215052
  H 1.030496 1.180281 -0.048927
  H 0.623798 -0.542093 -0.205779
  H 1.724286 0.169248 -1.384795
  H 2.819461 -1.875794 -0.822559
  H 5.242703 -0.191311 0.091865
  H 4.654578 -1.767679 -3.648192
  H 3.925287 -0.209096 -3.781445
 16
 31.166877
  C 1.530911 0.212627 -0.480405
  C 2.657041 -0.177304 0.355681
  H 3.085569 0.513090 1.068195
  C 3.351858 -1.242478 -0.141034
  C 4.605258 -0.739153 -0.562826
  C 4.774839 -0.533547 -1.893160
  C 3.939840 -0.979244 -3.015519
  H 3.039916 -1.513190 -2.736973
  H 5.667911 0.019399 -2.181192
  H 1.163503 1.204168 -0.249608
  H 0.712780 -0.506726 -0.457773
  H 1.970470 0.165586 -1.502614
  H 2.860380 -2.033639 -0.685212
  H 5.251606 -0.236398 0.143635
  H 4.554341 -1.626222 -3.654056
  H 3.686456 -0.129214 -3.649423
 16
 38.644355
  C 1.653819 0.224070 -0.610071
  C 2.685269 -0.199207 0.325309
  H 3.102866 0.507846 1.030317
  C 3.361574 -1.322693 -0.070643
  C 4.576603 -0.733901 -0.527473
  C 4.675014 -0.470821 -1.855160
  C 3.829165 -0.937359 -2.964402
  H 2.977186 -1.541606 -2.674619
  H 5.541713 0.113275 -2.160782
  H 1.263385 1.209241 -0.389584
  H 0.842491 -0.491706 -0.721164
  H 2.232233 0.212114 -1.567409
  H 2.892311 -2.146740 -0.582635
  H 5.232778 -0.233442 0.169522
  H 4.460774 -1.526358 -3.636694
  H 3.503382 -0.090706 -3.571249
 16
 48.022349
  C 1.781631 0.250416 -0.712847
  C 2.718047 -0.229012 0.293563
  H 3.104893 0.463777 1.031444
  C 3.362279 -1.405316 -0.017205
  C 4.512713 -0.697382 -0.506966
  C 4.556354 -0.390517 -1.832772
  C 3.741624 -0.914570 -2.940068
  H 2.925743 -1.566044 -2.645661
  H 5.395781 0.230774 -2.145641
  H 1.377859 1.229248 -0.488549
  H 0.983502 -0.449104 -0.946367
  H 2.481711 0.268015 -1.591768
  H 2.919900 -2.252501 -0.509373
  H 5.179784 -0.202248 0.182039
  H 4.413622 -1.475262 -3.598385
  H 3.371756 -0.101654 -3.568484
 16
 59.296077
  C 1.877194 0.291846 -0.778233
  C 2.755665 -0.249694 0.282697
  H 3.100528 0.411582 1.064955
  C 3.353844 -1.471060 0.008320
  C 4.438972 -0.654570 -0.490217
  C 4.435183 -0.311105 -1.829577
  C 3.705626 -0.918633 -2.951124
  H 2.931573 -1.622872 -2.668615
  H 5.240461 0.358954 -2.136990
  H 1.499534 1.280487 -0.552345
  H 1.059739 -0.366422 -1.062596
  H 2.659236 0.277056 -1.587040
  H 2.927504 -2.316362 -0.499055
  H 5.128023 -0.166818 0.180645
  H 4.444984 -1.439392 -3.569439
  H 3.298695 -0.152725 -3.616339
 16
 71.085999
  C 1.951869 0.326684 -0.817826
  C 2.795191 -0.262461 0.280309
  H 3.094446 0.368243 1.103665
  C 3.337952 -1.508458 0.000559
  C 4.374161 -0.615042 -0.469546
  C 4.334086 -0.244937 -1.834225
  C 3.699500 -0.931190 -2.972430
  H 2.965286 -1.681282 -2.700156
  H 5.111896 0.463720 -2.137851
  H 1.588089 1.320841 -0.587145
  H 1.125046 -0.301305 -1.139033
  H 2.802331 0.291343 -1.580414
  H 2.908323 -2.331552 -0.535524
  H 5.083366 -0.133367 0.181776
  H 4.494458 -1.412546 -3.551814
  H 3.262196 -0.207230 -3.666111
 16
 77.740278
  C 1.994194 0.384589 -0.822908
  C 2.846011 -0.261193 0.271162
  H 3.107171 0.322036 1.141256
  C 3.305527 -1.552962 -0.026048
  C 4.298817 -0.598643 -0.456454
  C 4.216935 -0.162781 -1.853835
  C 3.747864 -0.959703 -3.006132
  H 3.106477 -1.793317 -2.732089
  H 4.944932 0.610751 -2.133784
  H 1.686876 1.401039 -0.601168
  H 1.138043 -0.199505 -1.146055
  H 2.876429 0.316973 -1.593216
  H 2.843774 -2.340827 -0.589624
  H 5.066739 -0.169661 0.161842
  H 4.621054 -1.342767 -3.539320
  H 3.241875 -0.324003 -3.732114
 16
 76.196817
  C 2.038247 0.443827 -0.810710
  C 2.883889 -0.264477 0.256654
  H 3.076667 0.240777 1.192939
  C 3.277839 -1.607058 -0.049101
  C 4.233765 -0.603031 -0.470898
  C 4.082970 -0.080554 -1.884709
  C 3.818785 -0.973942 -3.031169
  H 3.315999 -1.894584 -2.745390
  H 4.747706 0.754597 -2.124889
  H 1.841887 1.491207 -0.611830
  H 1.144172 -0.077524 -1.134888
  H 2.893394 0.371458 -1.650503
  H 2.776926 -2.354248 -0.625223
  H 5.075697 -0.253504 0.102174
  H 4.770878 -1.219489 -3.504998
  H 3.246118 -0.462361 -3.801998
