 20
 0.000000
  H 1.510518 0.146739 0.414874
  C 2.592222 0.135879 0.389794
  C 3.280270 0.619750 1.594094
  C 2.333497 1.064272 2.698283
  H 2.893779 1.411496 3.563294
  C 3.195104 -0.327632 -0.762737
  C 4.579154 -0.406227 -0.957087
  C 5.212148 -0.869076 -2.113504
  C 4.527913 -1.354577 -3.325172
  H 3.449455 -1.325460 -3.251852
  O 6.512504 -0.899771 -2.192988
  H 3.943996 1.448755 1.325598
  H 3.943054 -0.165023 1.974442
  H 1.694332 0.243299 3.015607
  H 1.695552 1.877291 2.358850
  H 2.544512 -0.648289 -1.563193
  H 5.218129 -0.082379 -0.147566
  H 4.856168 -2.372497 -3.534545
  H 4.855817 -0.762526 -4.179361
  H 6.991902 -0.580864 -1.402134
 20
 4.650854
  H 1.510143 0.157005 0.439308
  C 2.590042 0.138160 0.395325
  C 3.297637 0.618227 1.591232
  C 2.364354 1.068540 2.708702
  H 2.935982 1.412126 3.565913
  C 3.164302 -0.332421 -0.774714
  C 4.523968 -0.427794 -1.010673
  C 5.221051 -0.874707 -2.128050
  C 4.565811 -1.366913 -3.355089
  H 3.484459 -1.342245 -3.291665
  O 6.536784 -0.883429 -2.154778
  H 3.963090 1.449334 1.318003
  H 3.961239 -0.172133 1.969599
  H 1.725404 0.251158 3.033795
  H 1.727790 1.885218 2.377193
  H 2.472095 -0.643394 -1.551641
  H 4.948556 -0.065294 -0.104604
  H 4.902324 -2.384084 -3.558826
  H 4.901369 -0.771546 -4.205008
  H 6.978468 -0.555318 -1.341697
 20
 14.604109
  H 1.519615 0.167315 0.462859
  C 2.594444 0.141097 0.400477
  C 3.316604 0.616507 1.587224
  C 2.390086 1.068480 2.710376
  H 2.966818 1.408780 3.562015
  C 3.135046 -0.332370 -0.777872
  C 4.488373 -0.440683 -1.045884
  C 5.225693 -0.877331 -2.136301
  C 4.603200 -1.374567 -3.371764
  H 3.520766 -1.355659 -3.323028
  O 6.526268 -0.870645 -2.125754
  H 3.978778 1.449207 1.314866
  H 3.976509 -0.175126 1.966580
  H 1.751534 0.253156 3.038857
  H 1.754590 1.887001 2.383879
  H 2.403387 -0.630125 -1.521594
  H 4.727413 -0.059321 -0.094737
  H 4.949550 -2.390490 -3.567463
  H 4.948761 -0.776869 -4.216574
  H 6.937387 -0.538248 -1.300143
 20
 27.958181
  H 1.517944 0.173677 0.476265
  C 2.597566 0.144904 0.409394
  C 3.324809 0.619957 1.597417
  C 2.400250 1.070498 2.715668
  H 2.978752 1.411491 3.571207
  C 3.126871 -0.329712 -0.772102
  C 4.480254 -0.449939 -1.068645
  C 5.233492 -0.880655 -2.145210
  C 4.621965 -1.382130 -3.388722
  H 3.541592 -1.365684 -3.344994
  O 6.535212 -0.865784 -2.117286
  H 3.986461 1.453801 1.328218
  H 3.982715 -0.171463 1.979730
  H 1.760912 0.254824 3.042716
  H 1.765698 1.889635 2.387879
  H 2.360242 -0.623400 -1.508317
  H 4.562857 -0.059804 -0.094460
  H 4.970957 -2.394297 -3.581330
  H 4.969588 -0.785727 -4.229494
  H 6.931045 -0.529168 -1.283568
 20
 42.911782
  H 1.512418 0.177800 0.486435
  C 2.598743 0.148566 0.418114
  C 3.327488 0.622925 1.604540
  C 2.399705 1.072242 2.720688
  H 2.978619 1.415231 3.581501
  C 3.124168 -0.326530 -0.765057
  C 4.492513 -0.455956 -1.084225
  C 5.243983 -0.882952 -2.151110
  C 4.629177 -1.385135 -3.395466
  H 3.549855 -1.366164 -3.345751
  O 6.551818 -0.866629 -2.119598
  H 3.987885 1.457830 1.337822
  H 3.984352 -0.167566 1.989149
  H 1.759517 0.254478 3.046202
  H 1.764046 1.891771 2.390761
  H 2.332611 -0.615204 -1.489176
  H 4.440124 -0.066563 -0.112140
  H 4.974891 -2.396231 -3.589046
  H 4.973767 -0.790616 -4.236481
  H 6.946193 -0.528357 -1.281385
 20
 55.681551
  H 1.522609 0.177990 0.485789
  C 2.597369 0.153074 0.426117
  C 3.320222 0.632031 1.624431
  C 2.384821 1.077575 2.737883
  H 2.955665 1.420057 3.597586
  C 3.133828 -0.318724 -0.751235
  C 4.512553 -0.456402 -1.087906
  C 5.251209 -0.889035 -2.166122
  C 4.632760 -1.390993 -3.407180
  H 3.550423 -1.370465 -3.355574
  O 6.555306 -0.877997 -2.146281
  H 3.978479 1.467741 1.361622
  H 3.977302 -0.155332 2.010324
  H 1.745078 0.255923 3.060779
  H 1.746922 1.896970 2.405750
  H 2.354602 -0.606388 -1.474742
  H 4.352769 -0.063598 -0.108769
  H 4.977743 -2.406775 -3.600725
  H 4.977684 -0.795101 -4.252253
  H 6.951967 -0.544640 -1.319341
 20
 67.249796
  H 1.514166 0.180552 0.474005
  C 2.604579 0.157705 0.426715
  C 3.314463 0.636366 1.637200
  C 2.358854 1.080458 2.752663
  H 2.918700 1.421119 3.618329
  C 3.157349 -0.308345 -0.741708
  C 4.550875 -0.451977 -1.076769
  C 5.260549 -0.892761 -2.175022
  C 4.619119 -1.396459 -3.404753
  H 3.538331 -1.372614 -3.335850
  O 6.561322 -0.887095 -2.181866
  H 3.978941 1.479257 1.381115
  H 3.974668 -0.156644 2.028546
  H 1.719076 0.260041 3.067046
  H 1.724145 1.897442 2.419534
  H 2.388478 -0.592793 -1.474175
  H 4.301033 -0.068898 -0.120972
  H 4.958069 -2.416007 -3.602321
  H 4.952575 -0.801411 -4.258098
  H 6.979598 -0.547772 -1.354733
 20
 76.119352
  H 1.535175 0.230112 0.454793
  C 2.612451 0.196410 0.428511
  C 3.299156 0.638571 1.655724
  C 2.337082 1.054479 2.748251
  H 2.884089 1.366848 3.636006
  C 3.189082 -0.250892 -0.738780
  C 4.593612 -0.442533 -1.067523
  C 5.263441 -0.888508 -2.175453
  C 4.593790 -1.436826 -3.373405
  H 3.521227 -1.432332 -3.275155
  O 6.571205 -0.863374 -2.229591
  H 3.968498 1.473662 1.442061
  H 3.936593 -0.165286 2.032056
  H 1.684407 0.230600 3.024935
  H 1.717768 1.886478 2.423254
  H 2.431998 -0.499040 -1.503064
  H 4.277585 -0.060742 -0.116680
  H 4.942201 -2.447398 -3.564036
  H 4.890174 -0.850448 -4.238558
  H 7.002435 -0.505165 -1.440854
 20
 81.461931
  H 1.537325 0.298408 0.405830
  C 2.617611 0.241311 0.412112
  C 3.287098 0.637458 1.690102
  C 2.294206 1.030776 2.774360
  H 2.821079 1.297419 3.692861
  C 3.223195 -0.174204 -0.734409
  C 4.630703 -0.441704 -1.082870
  C 5.270253 -0.885965 -2.188012
  C 4.569774 -1.505612 -3.343909
  H 3.496045 -1.535620 -3.205059
  O 6.577574 -0.834855 -2.322976
  H 3.984862 1.475488 1.532291
  H 3.899596 -0.207747 2.047951
  H 1.608131 0.200021 3.000287
  H 1.696523 1.899432 2.460653
  H 2.501303 -0.359270 -1.538596
  H 4.278626 -0.053251 -0.117862
  H 4.944609 -2.513271 -3.522553
  H 4.820129 -0.918855 -4.224961
  H 7.048900 -0.418551 -1.563191
 20
 82.576829
  H 1.530523 0.327019 0.416047
  C 2.613768 0.262148 0.427577
  C 3.272692 0.633048 1.706586
  C 2.264467 1.001206 2.797433
  H 2.776929 1.250903 3.715381
  C 3.230555 -0.132185 -0.716646
  C 4.629908 -0.450224 -1.104456
  C 5.268445 -0.876507 -2.198269
  C 4.560998 -1.539657 -3.336502
  H 3.494375 -1.602239 -3.174941
  O 6.580139 -0.797274 -2.365235
  H 3.965533 1.477760 1.558252
  H 3.883343 -0.220796 2.055100
  H 1.594162 0.176816 2.999992
  H 1.671878 1.858899 2.503659
  H 2.527503 -0.284135 -1.546185
  H 4.288896 -0.029457 -0.121653
  H 4.966068 -2.538246 -3.496961
  H 4.772559 -0.955828 -4.230853
  H 7.049835 -0.353100 -1.639282
 20
 85.515543
  H 1.544927 0.411129 0.391731
  C 2.618825 0.314397 0.427449
  C 3.255388 0.618532 1.738565
  C 2.233225 0.963423 2.811376
  H 2.730190 1.166393 3.753930
  C 3.256944 -0.050511 -0.715040
  C 4.651532 -0.421417 -1.127612
  C 5.267777 -0.868890 -2.214357
  C 4.541338 -1.604896 -3.300123
  H 3.488977 -1.687914 -3.101777
  O 6.575473 -0.780284 -2.426532
  H 3.964175 1.451400 1.637938
  H 3.834967 -0.255988 2.067693
  H 1.537831 0.138296 2.965282
  H 1.660540 1.851963 2.535538
  H 2.578680 -0.142976 -1.575976
  H 4.288171 0.016827 -0.145564
  H 4.973624 -2.597539 -3.416828
  H 4.708638 -1.064075 -4.225911
  H 7.059697 -0.291521 -1.740194
 20
 87.935898
  H 1.549446 0.531347 0.366494
  C 2.617034 0.387379 0.421174
  C 3.236085 0.588765 1.759056
  C 2.203557 0.912655 2.833122
  H 2.690056 1.042960 3.800008
  C 3.264354 0.059569 -0.729216
  C 4.658375 -0.369628 -1.163050
  C 5.264601 -0.859245 -2.235868
  C 4.539143 -1.698477 -3.247388
  H 3.480970 -1.811068 -3.008556
  O 6.564134 -0.746901 -2.484504
  H 3.976884 1.400033 1.721532
  H 3.780595 -0.328475 2.048332
  H 1.476905 0.111632 2.926027
  H 1.675244 1.829415 2.599621
  H 2.614936 0.040699 -1.608914
  H 4.274330 0.087850 -0.175107
  H 5.007430 -2.670957 -3.302494
  H 4.658598 -1.220865 -4.216283
  H 7.047117 -0.198797 -1.843706
 20
 89.968722
  H 1.563023 0.623099 0.343493
  C 2.628506 0.438715 0.421169
  C 3.221095 0.554423 1.780162
  C 2.172697 0.855462 2.844406
  H 2.635972 0.923357 3.821923
  C 3.291051 0.146842 -0.732059
  C 4.672119 -0.331221 -1.180368
  C 5.258576 -0.863390 -2.240075
  C 4.519409 -1.774447 -3.175990
  H 3.483852 -1.897654 -2.891844
  O 6.544015 -0.730374 -2.544466
  H 3.980316 1.341262 1.801521
  H 3.730879 -0.381233 2.032235
  H 1.419766 0.070877 2.880699
  H 1.674850 1.801900 2.642287
  H 2.673761 0.195219 -1.632674
  H 4.276553 0.176247 -0.200540
  H 5.015698 -2.745289 -3.194315
  H 4.588617 -1.349054 -4.175231
  H 7.026839 -0.118225 -1.964489
 20
 92.048753
  H 1.554955 0.685975 0.355850
  C 2.615057 0.474942 0.431694
  C 3.204724 0.529101 1.792807
  C 2.162109 0.810983 2.860959
  H 2.623418 0.834199 3.839891
  C 3.277983 0.206217 -0.733860
  C 4.645337 -0.311949 -1.207030
  C 5.241908 -0.865166 -2.244785
  C 4.520767 -1.837503 -3.137693
  H 3.477092 -1.972817 -2.840923
  O 6.529937 -0.728695 -2.549976
  H 3.980818 1.301863 1.844189
  H 3.699575 -0.428980 2.013304
  H 1.393382 0.038840 2.867020
  H 1.683812 1.773039 2.692370
  H 2.674487 0.295384 -1.637953
  H 4.248257 0.255340 -0.223734
  H 5.038466 -2.792737 -3.112244
  H 4.577335 -1.457580 -4.151698
  H 7.001492 -0.084942 -1.997278
