 12
 0.000000
  C 1.003592 0.124556 0.399129
  C 2.466215 0.127191 0.412063
  C 3.237701 0.599221 1.555597
  H 2.623540 0.940117 2.381779
  C 3.109237 -0.339301 -0.723047
  H 4.174306 -0.383217 -0.871782
  H 0.567724 0.506975 1.317111
  H 0.628422 -0.885882 0.211758
  H 0.635518 0.710694 -0.451201
  H 3.915760 1.400383 1.243168
  H 3.916348 -0.188600 1.899053
  H 2.494732 -0.676232 -1.545375
 12
 -0.572694
  C 0.994069 0.174330 0.393553
  C 2.453029 0.130842 0.386985
  C 3.228668 0.538298 1.554657
  H 2.612435 0.762713 2.418311
  C 3.112937 -0.313676 -0.747112
  H 4.189089 -0.269454 -0.828707
  H 0.590241 0.739206 1.225319
  H 0.615653 -0.855147 0.462263
  H 0.595368 0.532293 -0.557287
  H 3.825557 1.418590 1.298619
  H 3.989763 -0.208489 1.806010
  H 2.571115 -0.713161 -1.585935
 12
 -0.512115
  C 0.999919 0.191570 0.369933
  C 2.458928 0.123023 0.367014
  C 3.218523 0.472046 1.566430
  H 2.586617 0.634503 2.434000
  C 3.125225 -0.264194 -0.778950
  H 4.182174 -0.093881 -0.904944
  H 0.625713 0.951719 1.052893
  H 0.621745 -0.767168 0.747532
  H 0.583098 0.315670 -0.627188
  H 3.793665 1.384688 1.360161
  H 3.987908 -0.269394 1.786587
  H 2.607535 -0.750101 -1.593238
 12
 1.398992
  C 1.010372 0.177202 0.365368
  C 2.474462 0.082153 0.388531
  C 3.221451 0.428962 1.596824
  H 2.571902 0.602337 2.448568
  C 3.101547 -0.213417 -0.798225
  H 4.073971 0.181623 -1.054737
  H 0.676814 1.058765 0.910281
  H 0.576607 -0.689349 0.875013
  H 0.641151 0.202710 -0.655732
  H 3.820365 1.323446 1.399009
  H 3.959446 -0.338103 1.839667
  H 2.661959 -0.889521 -1.516848
 12
 7.094264
  C 1.030084 0.170593 0.352799
  C 2.495975 0.010979 0.438463
  C 3.234046 0.404733 1.636069
  H 2.582528 0.520724 2.497454
  C 3.057133 -0.210385 -0.798784
  H 3.879379 0.372871 -1.188690
  H 0.761115 1.124926 0.803351
  H 0.496244 -0.620226 0.884104
  H 0.736532 0.170100 -0.694240
  H 3.760351 1.344000 1.445318
  H 4.022046 -0.317420 1.861132
  H 2.736385 -1.033151 -1.422902
 12
 16.065995
  C 1.046562 0.140987 0.352286
  C 2.510810 -0.053013 0.504958
  C 3.251990 0.410522 1.662437
  H 2.603152 0.619576 2.504262
  C 2.974453 -0.188713 -0.789948
  H 3.694398 0.494922 -1.232003
  H 0.782230 1.104549 0.784279
  H 0.453536 -0.657454 0.805631
  H 0.833549 0.170706 -0.725069
  H 3.818903 1.307425 1.407304
  H 4.001260 -0.327213 1.950639
  H 2.795145 -1.095710 -1.354779
 12
 32.441606
  C 1.100543 0.130664 0.276124
  C 2.558405 -0.044970 0.615377
  C 3.333413 0.416011 1.745936
  H 2.712817 0.540365 2.628750
  C 2.796614 -0.177070 -0.754120
  H 3.323600 0.592000 -1.319154
  H 0.788528 1.147153 0.491053
  H 0.440946 -0.631281 0.699374
  H 1.037478 0.048168 -0.843408
  H 3.837541 1.360712 1.524578
  H 4.126863 -0.299548 1.964875
  H 2.757078 -1.143669 -1.238358
 12
 34.476820
  C 1.179787 0.122395 0.236587
  C 2.579216 -0.039784 0.697915
  C 3.391610 0.432059 1.806334
  H 2.775456 0.599139 2.688051
  C 2.601158 -0.166982 -0.732031
  H 3.003167 0.634042 -1.348058
  H 0.778146 1.130653 0.352509
  H 0.502755 -0.673853 0.545192
  H 1.247100 -0.004308 -0.936651
  H 3.918948 1.362717 1.561759
  H 4.165065 -0.299978 2.051986
  H 2.699563 -1.156644 -1.168118
 12
 34.453917
  C 1.144144 0.132406 0.282766
  C 2.530869 0.073669 0.710534
  C 3.412530 0.429757 1.806933
  H 2.841382 0.584045 2.718580
  C 2.549816 -0.132007 -0.740009
  H 2.972240 0.662631 -1.356355
  H 0.656818 1.106627 0.217708
  H 0.481505 -0.688052 0.553514
  H 1.347320 -0.075555 -0.976256
  H 3.983284 1.340861 1.591019
  H 4.152929 -0.354534 1.982499
  H 2.802232 -1.136872 -1.079144
 12
 38.303679
  C 1.062033 0.129913 0.411416
  C 2.434304 0.096741 0.738584
  C 3.399252 0.402800 1.775212
  H 2.904050 0.536496 2.732580
  C 2.522429 -0.075380 -0.744978
  H 3.058800 0.717709 -1.272111
  H 0.571499 1.057074 0.127189
  H 0.389911 -0.676004 0.702170
  H 1.455660 -0.094984 -1.132954
  H 3.959495 1.311031 1.529609
  H 4.144232 -0.390268 1.870393
  H 2.869350 -1.079770 -0.988329
 12
 28.798046
  C 0.979886 0.142265 0.553493
  C 2.369975 0.070440 0.677318
  C 3.348862 0.370083 1.693209
  H 2.895181 0.462130 2.678762
  C 2.624773 -0.058405 -0.790043
  H 3.262622 0.714116 -1.219462
  H 0.504967 1.054864 0.232403
  H 0.310357 -0.623391 0.933211
  H 1.619879 -0.044169 -1.258904
  H 3.851943 1.302718 1.425738
  H 4.141894 -0.383589 1.732049
  H 3.003669 -1.056616 -0.996697
 12
 17.978220
  C 0.944291 0.147735 0.666653
  C 2.323578 0.046600 0.617869
  C 3.310630 0.333092 1.639929
  H 2.861335 0.500142 2.614670
  C 2.665410 -0.021543 -0.827226
  H 3.309790 0.784971 -1.170564
  H 0.448783 1.006033 0.238373
  H 0.298444 -0.558916 1.171190
  H 1.718713 -0.049861 -1.371190
  H 3.874524 1.216513 1.323059
  H 4.058860 -0.464019 1.718481
  H 3.149102 -0.980470 -1.018153
 12
 10.026710
  C 0.929181 0.184544 0.726524
  C 2.296471 0.089671 0.559120
  C 3.285160 0.319165 1.600093
  H 2.848182 0.363601 2.590008
  C 2.698025 -0.024073 -0.855850
  H 3.429370 0.721922 -1.155456
  H 0.370451 0.954091 0.209473
  H 0.348172 -0.454346 1.378639
  H 1.805449 -0.005853 -1.477914
  H 3.777698 1.266416 1.380533
  H 4.082247 -0.426265 1.568604
  H 3.157111 -1.006265 -0.993817
 12
 4.336345
  C 0.921521 0.193224 0.759757
  C 2.271687 0.127820 0.519307
  C 3.257792 0.311793 1.585404
  H 2.809299 0.335527 2.573334
  C 2.715159 -0.003124 -0.876216
  H 3.501501 0.706031 -1.128579
  H 0.272844 0.801296 0.144121
  H 0.432321 -0.337848 1.564519
  H 1.869611 0.053248 -1.555078
  H 3.789012 1.249433 1.410456
  H 4.030718 -0.458710 1.534690
  H 3.156052 -0.996083 -1.001758
 12
 1.253908
  C 0.911618 0.223513 0.773271
  C 2.259460 0.190491 0.501831
  C 3.247517 0.287211 1.578314
  H 2.792840 0.296287 2.563608
  C 2.712245 0.021542 -0.882614
  H 3.480628 0.753595 -1.137207
  H 0.196406 0.581488 0.047073
  H 0.497906 -0.137487 1.702822
  H 1.893656 0.035652 -1.595325
  H 3.842331 1.196652 1.462084
  H 3.977576 -0.521508 1.494861
  H 3.215333 -0.944828 -0.978762
