 28
 0.000000
  H 1.491622 0.175751 0.491872
  C 2.570898 0.149454 0.424965
  C 3.326017 0.617745 1.588219
  C 2.462583 1.085884 2.753787
  C 3.318024 1.557392 3.924723
  C 3.105901 -0.323373 -0.752060
  C 4.485611 -0.424780 -1.005354
  C 5.108730 -0.880742 -2.142471
  C 4.596786 -1.391372 -3.416513
  C 3.108283 -1.506565 -3.705913
  C 2.877769 -2.068190 -5.107076
  H 6.192255 -0.875378 -2.128634
  H 3.993900 1.433474 1.282749
  H 3.995024 -0.181539 1.932214
  H 1.818694 0.270576 3.088937
  H 1.817555 1.905460 2.431530
  H 3.952948 0.754616 4.292289
  H 2.686854 1.887068 4.745796
  H 3.951677 2.391965 3.633811
  H 2.411277 -0.630085 -1.515140
  H 5.135984 -0.103110 -0.203307
  H 5.061061 -2.378619 -3.557415
  H 5.062115 -0.775573 -4.200292
  H 2.635408 -0.524626 -3.647566
  H 2.634466 -2.175821 -2.985594
  H 3.314888 -1.422283 -5.865027
  H 1.813034 -2.149165 -5.310477
  H 3.314127 -3.059161 -5.208770
 28
 -0.023374
  H 1.494959 0.010464 0.579113
  C 2.573779 0.020007 0.478612
  C 3.326314 0.592257 1.595081
  C 2.461601 1.102074 2.742530
  C 3.311298 1.685910 3.866011
  C 3.103029 -0.498129 -0.681455
  C 4.482848 -0.544626 -0.961923
  C 5.104180 -0.997644 -2.101509
  C 4.596276 -1.423271 -3.407012
  C 3.110037 -1.503988 -3.704785
  C 2.873714 -1.916947 -5.155478
  H 6.187575 -1.006965 -2.059512
  H 3.963215 1.409057 1.228508
  H 4.038369 -0.150533 1.977800
  H 1.856959 0.284617 3.139269
  H 1.776538 1.868237 2.375914
  H 3.985783 0.936772 4.274061
  H 2.678212 2.041527 4.674077
  H 3.903779 2.525628 3.510844
  H 2.410368 -0.900821 -1.400650
  H 5.143991 -0.177974 -0.187035
  H 5.065151 -2.391503 -3.630766
  H 5.071866 -0.762237 -4.146123
  H 2.639266 -0.533667 -3.538798
  H 2.638012 -2.242223 -3.054947
  H 3.306695 -1.196218 -5.843568
  H 1.809832 -1.977627 -5.362061
  H 3.310126 -2.890621 -5.361097
 28
 0.265144
  H 1.508632 -0.177776 0.645289
  C 2.587084 -0.127731 0.527278
  C 3.330462 0.559575 1.591663
  C 2.458283 1.112227 2.713751
  C 3.294487 1.819898 3.772590
  C 3.123297 -0.696905 -0.604553
  C 4.496954 -0.695724 -0.908919
  C 5.113338 -1.134561 -2.056001
  C 4.604845 -1.454197 -3.388884
  C 3.111279 -1.480555 -3.684574
  C 2.859279 -1.732954 -5.173466
  H 6.194608 -1.179021 -2.006997
  H 3.921267 1.377141 1.156189
  H 4.082917 -0.121131 2.015741
  H 1.903458 0.299712 3.181329
  H 1.730541 1.813255 2.304286
  H 4.009845 1.139145 4.221643
  H 2.658270 2.204690 4.562615
  H 3.838652 2.656993 3.343623
  H 2.443920 -1.195793 -1.274970
  H 5.157321 -0.276196 -0.160170
  H 5.056591 -2.411419 -3.689866
  H 5.092486 -0.737380 -4.073886
  H 2.656106 -0.529140 -3.409854
  H 2.630984 -2.279039 -3.111518
  H 3.295695 -0.946896 -5.783759
  H 1.792065 -1.759962 -5.377214
  H 3.284079 -2.684525 -5.486543
 28
 1.279579
  H 1.553496 -0.450649 0.757562
  C 2.617460 -0.332351 0.596832
  C 3.333547 0.512077 1.558121
  C 2.449720 1.105723 2.651169
  C 3.257654 1.973303 3.609574
  C 3.162351 -0.956065 -0.500040
  C 4.523834 -0.894074 -0.847714
  C 5.128903 -1.310147 -2.008912
  C 4.612988 -1.505545 -3.360439
  C 3.122554 -1.383413 -3.639576
  C 2.845568 -1.481998 -5.136768
  H 6.206023 -1.425244 -1.950224
  H 3.841606 1.325999 1.024397
  H 4.145367 -0.063859 2.020332
  H 1.970818 0.301582 3.214164
  H 1.659338 1.709033 2.200957
  H 4.036950 1.393007 4.096134
  H 2.613688 2.384616 4.383985
  H 3.723240 2.803571 3.085046
  H 2.509983 -1.568302 -1.098048
  H 5.183961 -0.385765 -0.152336
  H 4.980157 -2.476140 -3.721713
  H 5.159089 -0.788737 -3.992577
  H 2.747235 -0.425779 -3.271423
  H 2.581396 -2.182762 -3.135384
  H 3.346779 -0.684528 -5.681752
  H 1.779052 -1.399903 -5.330471
  H 3.186555 -2.435188 -5.534745
 28
 3.701516
  H 1.577642 -0.635294 0.861039
  C 2.622161 -0.457244 0.636327
  C 3.320049 0.507436 1.493207
  C 2.446619 1.107330 2.593141
  C 3.244343 2.060768 3.477543
  C 3.163779 -1.131221 -0.430354
  C 4.518657 -1.073294 -0.795375
  C 5.122080 -1.494920 -1.960004
  C 4.624170 -1.543301 -3.330391
  C 3.155079 -1.245677 -3.596588
  C 2.858988 -1.306726 -5.091973
  H 6.176380 -1.745676 -1.875100
  H 3.726921 1.319021 0.876961
  H 4.196587 0.027658 1.947980
  H 2.031335 0.307229 3.211990
  H 1.610424 1.648947 2.146533
  H 4.068877 1.542807 3.962602
  H 2.608811 2.480776 4.253911
  H 3.650786 2.884557 2.894319
  H 2.536363 -1.840136 -0.943207
  H 5.179607 -0.518789 -0.138706
  H 4.895631 -2.516071 -3.759262
  H 5.245477 -0.836360 -3.896466
  H 2.901994 -0.250906 -3.223831
  H 2.521904 -1.972405 -3.086051
  H 3.453183 -0.579472 -5.638781
  H 1.811990 -1.091400 -5.278320
  H 3.074709 -2.295877 -5.492302
 28
 6.209608
  H 1.609962 -0.779741 0.856787
  C 2.663341 -0.638138 0.658639
  C 3.346125 0.393082 1.453358
  C 2.437208 1.115913 2.442455
  C 3.200458 2.180480 3.220310
  C 3.224957 -1.387237 -0.341574
  C 4.578772 -1.331004 -0.711814
  C 5.173870 -1.623029 -1.921365
  C 4.624005 -1.548308 -3.273224
  C 3.159799 -1.166927 -3.455566
  C 2.822267 -1.030496 -4.936183
  H 6.226531 -1.887447 -1.887630
  H 3.804564 1.130666 0.786853
  H 4.182715 -0.059015 1.997660
  H 2.011415 0.396320 3.144768
  H 1.610707 1.587241 1.908467
  H 4.016042 1.736641 3.784683
  H 2.542764 2.681960 3.921069
  H 3.613224 2.931331 2.550527
  H 2.599746 -2.116697 -0.841911
  H 5.221518 -0.729768 -0.076303
  H 4.825224 -2.509904 -3.770332
  H 5.261209 -0.842575 -3.821292
  H 2.955862 -0.219986 -2.959127
  H 2.509141 -1.925646 -3.015445
  H 3.433315 -0.262303 -5.409894
  H 1.780345 -0.755002 -5.061665
  H 2.988582 -1.971132 -5.460454
 28
 12.341494
  H 1.592268 -0.879193 1.015214
  C 2.626581 -0.713752 0.751377
  C 3.324968 0.378645 1.450067
  C 2.453308 1.115087 2.463260
  C 3.220007 2.253613 3.128893
  C 3.166261 -1.509269 -0.225264
  C 4.479290 -1.428935 -0.693748
  C 5.089244 -1.735596 -1.894447
  C 4.624936 -1.605601 -3.276019
  C 3.205598 -1.088321 -3.482590
  C 2.915958 -0.886400 -4.966663
  H 6.119258 -2.058284 -1.820210
  H 3.702247 1.101059 0.716423
  H 4.210053 -0.021512 1.956101
  H 2.111958 0.418398 3.230930
  H 1.569608 1.520192 1.967421
  H 4.087577 1.876503 3.665055
  H 2.585185 2.772900 3.840591
  H 3.559310 2.977366 2.390834
  H 2.559234 -2.308783 -0.624215
  H 5.165466 -0.689404 -0.264284
  H 4.721406 -2.600638 -3.733472
  H 5.347951 -0.984458 -3.819557
  H 3.069238 -0.141003 -2.960886
  H 2.485655 -1.803142 -3.075545
  H 3.595427 -0.158368 -5.399343
  H 1.906224 -0.527287 -5.106536
  H 3.018711 -1.817263 -5.516662
 28
 20.561663
  H 1.641984 -1.090542 1.213453
  C 2.623939 -0.862081 0.824231
  C 3.294711 0.331015 1.368237
  C 2.459979 1.075673 2.406095
  C 3.182442 2.326818 2.905509
  C 3.139113 -1.687343 -0.142162
  C 4.412576 -1.590440 -0.676722
  C 5.084809 -1.825753 -1.861407
  C 4.649420 -1.576694 -3.238152
  C 3.302971 -0.879045 -3.395538
  C 2.953044 -0.711243 -4.870359
  H 6.036754 -2.349061 -1.768954
  H 3.542326 1.021721 0.558072
  H 4.244420 0.033941 1.822656
  H 2.252089 0.418398 3.253433
  H 1.501125 1.368173 1.965837
  H 4.137023 2.069375 3.357270
  H 2.584037 2.837892 3.654760
  H 3.363364 3.022901 2.089066
  H 2.549241 -2.536755 -0.463920
  H 5.134403 -0.828068 -0.324834
  H 4.617297 -2.555936 -3.732276
  H 5.435432 -1.011767 -3.747189
  H 3.335878 0.100360 -2.921579
  H 2.524148 -1.465238 -2.911848
  H 3.703845 -0.117511 -5.383757
  H 1.998050 -0.210372 -4.977968
  H 2.882572 -1.678899 -5.368166
 28
 31.473555
  H 1.652446 -1.218855 1.365529
  C 2.603169 -1.013306 0.904146
  C 3.274834 0.253242 1.261125
  C 2.482516 1.095310 2.261421
  C 3.210219 2.391373 2.594738
  C 3.101459 -1.931833 0.008939
  C 4.299989 -1.864152 -0.642125
  C 5.056201 -1.916868 -1.788555
  C 4.656880 -1.516551 -3.148720
  C 3.299117 -0.830576 -3.257417
  C 3.002929 -0.440694 -4.701187
  H 6.043490 -2.372094 -1.731920
  H 3.449261 0.852870 0.360664
  H 4.262860 0.035043 1.684003
  H 2.327060 0.523489 3.178936
  H 1.500355 1.329866 1.845504
  H 4.183248 2.186520 3.034891
  H 2.636155 2.978064 3.306846
  H 3.356295 2.994204 1.701793
  H 2.524613 -2.827764 -0.186443
  H 5.060096 -1.017505 -0.481586
  H 4.654766 -2.438758 -3.742581
  H 5.439520 -0.887262 -3.578823
  H 3.288635 0.067494 -2.637771
  H 2.515689 -1.495806 -2.896419
  H 3.753945 0.250982 -5.080821
  H 2.031765 0.043645 -4.772824
  H 2.989087 -1.318614 -5.346823
 28
 35.698720
  H 1.671929 -1.245624 1.520504
  C 2.576198 -1.014567 0.982648
  C 3.249385 0.268471 1.285357
  C 2.508847 1.101230 2.330348
  C 3.229857 2.415922 2.606089
  C 3.028923 -1.919888 0.041566
  C 4.145592 -1.845807 -0.704939
  C 5.010172 -1.877620 -1.756106
  C 4.677698 -1.485096 -3.156247
  C 3.321736 -0.805387 -3.324235
  C 3.070844 -0.454245 -4.786301
  H 5.981685 -2.359429 -1.643288
  H 3.351517 0.863023 0.369516
  H 4.267093 0.075407 1.645413
  H 2.427101 0.534595 3.260199
  H 1.496538 1.313152 1.980251
  H 4.235353 2.235145 2.979788
  H 2.692791 2.995235 3.353161
  H 3.300445 3.016415 1.701679
  H 2.474139 -2.841555 -0.095826
  H 4.997776 -0.944255 -0.769501
  H 4.701882 -2.413696 -3.734426
  H 5.471223 -0.850803 -3.557866
  H 3.285953 0.109502 -2.728858
  H 2.529018 -1.467470 -2.973193
  H 3.833223 0.225464 -5.160056
  H 2.104352 0.028841 -4.901359
  H 3.076098 -1.347116 -5.406673
 28
 34.855881
  H 1.712337 -1.277712 1.614895
  C 2.579882 -1.020857 1.031873
  C 3.227910 0.283569 1.287148
  C 2.514993 1.105784 2.360450
  C 3.209929 2.443299 2.587471
  C 3.019962 -1.919587 0.074525
  C 4.070731 -1.847424 -0.736249
  C 4.999635 -1.834007 -1.733196
  C 4.680479 -1.473341 -3.167951
  C 3.346990 -0.754792 -3.347820
  C 3.103460 -0.429681 -4.816479
  H 5.946124 -2.357298 -1.603105
  H 3.266962 0.868603 0.360611
  H 4.268198 0.125893 1.596430
  H 2.496063 0.547690 3.297681
  H 1.481491 1.284713 2.059310
  H 4.238739 2.295538 2.913259
  H 2.693972 3.014384 3.353545
  H 3.218300 3.035502 1.675064
  H 2.485480 -2.861736 -0.031414
  H 5.057270 -0.874265 -0.992843
  H 4.670053 -2.410954 -3.729725
  H 5.490685 -0.870143 -3.577713
  H 3.340584 0.174028 -2.775422
  H 2.534536 -1.383597 -2.981153
  H 3.886445 0.216241 -5.206792
  H 2.152119 0.081364 -4.941430
  H 3.079518 -1.337796 -5.416524
 28
 33.324059
  H 1.725369 -1.297814 1.626797
  C 2.588626 -1.041595 1.036024
  C 3.219439 0.276986 1.255661
  C 2.484170 1.126459 2.290859
  C 3.162517 2.479221 2.480724
  C 3.049581 -1.961456 0.107475
  C 4.061849 -1.906496 -0.736271
  C 5.011142 -1.823857 -1.719495
  C 4.682955 -1.440193 -3.157194
  C 3.372325 -0.668592 -3.298899
  C 3.108618 -0.312664 -4.758989
  H 5.894907 -2.467391 -1.648152
  H 3.268349 0.829601 0.309832
  H 4.257283 0.140683 1.582933
  H 2.457743 0.600318 3.247571
  H 1.451792 1.283165 1.970017
  H 4.186336 2.352939 2.826932
  H 2.629779 3.072327 3.218998
  H 3.181649 3.038982 1.548253
  H 2.537945 -2.922403 0.043825
  H 5.281907 -0.930261 -1.046152
  H 4.626246 -2.367521 -3.732764
  H 5.505714 -0.853576 -3.568567
  H 3.411518 0.251862 -2.712321
  H 2.544272 -1.272494 -2.920817
  H 3.906980 0.311070 -5.158796
  H 2.173522 0.236146 -4.853157
  H 3.039552 -1.211022 -5.370490
 28
 29.432436
  H 1.941643 -1.485451 1.751777
  C 2.732202 -1.144272 1.105150
  C 3.202814 0.251073 1.229602
  C 2.370998 1.074934 2.210351
  C 2.893195 2.503466 2.310368
  C 3.277965 -2.026140 0.186761
  C 4.230846 -1.954393 -0.703532
  C 5.113537 -1.908112 -1.764574
  C 4.523128 -1.611640 -3.159009
  C 3.620327 -0.378978 -3.160061
  C 3.088892 -0.093520 -4.560829
  H 5.755375 -2.799996 -1.789908
  H 3.196109 0.733896 0.244824
  H 4.250852 0.258002 1.555527
  H 2.400663 0.611885 3.198276
  H 1.330528 1.095626 1.882201
  H 3.921888 2.515844 2.661177
  H 2.292135 3.079567 3.008877
  H 2.853054 2.998521 1.343467
  H 2.884878 -3.051199 0.188812
  H 5.822267 -1.106390 -1.480415
  H 3.954069 -2.477881 -3.498770
  H 5.346702 -1.458240 -3.856455
  H 4.179167 0.491241 -2.810790
  H 2.777453 -0.535763 -2.484667
  H 3.905517 0.089966 -5.255015
  H 2.447109 0.784742 -4.555689
  H 2.508772 -0.934363 -4.933618
