 20
 0.000000
  C -0.676225 2.600402 0.699881
  C -1.773352 1.597259 0.354094
  C -2.584039 2.082698 -0.849505
  C -1.202075 0.225741 0.073108
  O -0.003876 0.018184 0.005099
  C -2.183086 -0.894809 -0.119099
  H -1.107469 3.568736 0.941264
  H 0.007809 2.730977 -0.135683
  H -0.102877 2.261748 1.559690
  H -2.436365 1.498287 1.221159
  H -1.964147 2.123415 -1.743308
  H -2.980093 3.077599 -0.662118
  H -3.424932 1.424274 -1.057658
  H -3.198358 -0.579326 0.104512
  H -1.921292 -1.715608 0.544729
  H -2.134265 -1.237160 -1.150050
  O 3.261931 0.165276 0.048084
  H 2.295259 0.002439 -0.002952
  H 3.762621 -0.678465 0.068151
  H 3.487738 0.733492 0.814550
 20
 -2.137183
  C -0.655621 2.643712 0.726828
  C -1.725219 1.603205 0.370285
  C -2.534162 2.055143 -0.863762
  C -1.123145 0.245498 0.093948
  O 0.074206 0.071578 0.020806
  C -2.090504 -0.895256 -0.101859
  H -1.127134 3.602206 0.944930
  H 0.031270 2.780433 -0.105076
  H -0.099501 2.330163 1.604698
  H -2.417335 1.486812 1.219254
  H -1.887273 2.119758 -1.738069
  H -2.958949 3.041857 -0.680105
  H -3.348335 1.372095 -1.086037
  H -3.114971 -0.617342 0.128259
  H -1.789194 -1.734534 0.527296
  H -2.030677 -1.235985 -1.137589
  O 3.046168 0.149912 0.010542
  H 2.069715 0.022638 -0.021006
  H 3.503361 -0.718036 0.003204
  H 3.298974 0.676347 0.795164
 20
 -3.554273
  C -0.650582 2.662722 0.723056
  C -1.691942 1.605343 0.368994
  C -2.523327 2.048005 -0.842398
  C -1.058724 0.266707 0.064415
  O 0.145676 0.146459 -0.109649
  C -1.984178 -0.884569 -0.127183
  H -1.142251 3.603374 0.954768
  H 0.022093 2.824991 -0.116522
  H -0.076546 2.354730 1.593065
  H -2.366333 1.455834 1.219575
  H -1.886359 2.150337 -1.721333
  H -2.977771 3.014586 -0.636249
  H -3.317288 1.340345 -1.067994
  H -3.009702 -0.647159 0.138805
  H -1.638259 -1.729971 0.467419
  H -1.945251 -1.197161 -1.170653
  O 2.881830 0.107943 0.054957
  H 1.890332 0.021010 0.009423
  H 3.292906 -0.780706 0.064728
  H 3.140814 0.618623 0.836718
 20
 -2.885734
  C -0.587943 2.649089 0.728867
  C -1.640856 1.596054 0.373396
  C -2.480224 2.041043 -0.832218
  C -1.014960 0.262881 0.045180
  O 0.164073 0.122164 -0.128157
  C -1.954569 -0.922368 -0.129381
  H -1.073739 3.591780 0.969018
  H 0.080442 2.814210 -0.113258
  H -0.008850 2.335488 1.595341
  H -2.312382 1.447191 1.227028
  H -1.849599 2.147533 -1.713957
  H -2.932027 3.006106 -0.620412
  H -3.276463 1.334803 -1.055669
  H -2.975887 -0.691278 0.161722
  H -1.586688 -1.768532 0.455901
  H -1.935754 -1.232558 -1.177831
  O 2.701620 0.137761 0.053518
  H 1.734970 0.069083 -0.089574
  H 3.095992 -0.741067 0.192020
  H 2.925388 0.747527 0.779238
 20
 -1.229950
  C -0.598469 2.643972 0.732755
  C -1.633720 1.584867 0.376617
  C -2.463578 2.030617 -0.838104
  C -1.000959 0.260176 0.056945
  O 0.206778 0.137157 -0.105184
  C -1.918513 -0.908891 -0.117118
  H -1.092986 3.579803 0.964881
  H 0.074322 2.812617 -0.100104
  H -0.026093 2.342616 1.600727
  H -2.311008 1.437313 1.222571
  H -1.823700 2.141692 -1.710912
  H -2.921161 2.994234 -0.623539
  H -3.251771 1.322984 -1.070524
  H -2.938235 -0.683406 0.167656
  H -1.554994 -1.746472 0.467169
  H -1.891150 -1.217321 -1.157143
  O 2.644550 0.136645 0.031944
  H 1.598640 0.098880 -0.057951
  H 3.007332 -0.769020 0.152432
  H 2.930773 0.722743 0.750535
 20
 2.529660
  C -0.602693 2.651794 0.749637
  C -1.630279 1.589152 0.379939
  C -2.446320 2.028570 -0.845963
  C -0.985824 0.265441 0.069593
  O 0.224807 0.148577 -0.067583
  C -1.889936 -0.914173 -0.109388
  H -1.105347 3.589131 0.974096
  H 0.081431 2.822130 -0.077821
  H -0.039596 2.351646 1.628401
  H -2.320416 1.436592 1.217027
  H -1.797005 2.145733 -1.710207
  H -2.915512 2.986926 -0.640600
  H -3.225379 1.313320 -1.089008
  H -2.916603 -0.692040 0.167920
  H -1.518755 -1.750844 0.482180
  H -1.853879 -1.229733 -1.152319
  O 2.594886 0.125577 -0.001355
  H 1.482707 0.086885 -0.044812
  H 2.932276 -0.776723 0.131904
  H 2.920003 0.715093 0.701411
 20
 6.998984
  C -0.609963 2.658883 0.745867
  C -1.631888 1.590043 0.379737
  C -2.455029 2.020807 -0.843141
  C -0.984154 0.277498 0.067824
  O 0.236675 0.146091 -0.067886
  C -1.871688 -0.908499 -0.105683
  H -1.116554 3.591956 0.970820
  H 0.070784 2.834015 -0.081386
  H -0.042611 2.362898 1.623449
  H -2.317244 1.434057 1.215000
  H -1.809328 2.144048 -1.709471
  H -2.931091 2.974413 -0.635437
  H -3.228741 1.298041 -1.082841
  H -2.891881 -0.696754 0.181139
  H -1.480458 -1.734858 0.481010
  H -1.837677 -1.214234 -1.149092
  O 2.611111 0.098746 0.010847
  H 1.389648 0.137858 -0.093879
  H 2.908934 -0.806435 0.144197
  H 2.924820 0.651850 0.724868
 20
 9.621181
  C -0.587966 2.640897 0.739198
  C -1.625570 1.586277 0.380896
  C -2.451239 2.024012 -0.842164
  C -0.998917 0.260738 0.066855
  O 0.217006 0.128148 -0.090556
  C -1.893974 -0.927076 -0.104887
  H -1.081358 3.582114 0.964403
  H 0.092817 2.807378 -0.091373
  H -0.021216 2.340882 1.614839
  H -2.313770 1.441714 1.222609
  H -1.809051 2.139066 -1.710787
  H -2.915272 2.983666 -0.633537
  H -3.233509 1.310716 -1.075552
  H -2.915623 -0.720256 0.189700
  H -1.500234 -1.763497 0.466702
  H -1.871680 -1.233142 -1.148733
  O 2.624113 0.137909 0.017775
  H 1.286062 0.164117 -0.083150
  H 2.935968 -0.765134 0.161681
  H 2.927807 0.691449 0.742120
 20
 11.055483
  C -0.567852 2.619928 0.732383
  C -1.624506 1.574842 0.380333
  C -2.457959 2.021733 -0.839953
  C -1.020681 0.246017 0.056492
  O 0.192568 0.087060 -0.133690
  C -1.920410 -0.931376 -0.106280
  H -1.048469 3.566931 0.962421
  H 0.108563 2.781537 -0.102248
  H 0.002236 2.315588 1.602570
  H -2.311390 1.440104 1.227505
  H -1.821935 2.131203 -1.713035
  H -2.910042 2.985944 -0.626025
  H -3.248337 1.317825 -1.067010
  H -2.937568 -0.719536 0.202915
  H -1.520468 -1.773367 0.454906
  H -1.913752 -1.236832 -1.152052
  O 2.656458 0.162427 0.039374
  H 1.191375 0.219126 -0.069982
  H 2.972691 -0.736324 0.202019
  H 2.971268 0.730158 0.753353
 20
 13.149727
  C -0.566176 2.591077 0.710127
  C -1.628281 1.570487 0.378718
  C -2.463058 2.030851 -0.821527
  C -1.048417 0.228961 0.043444
  O 0.156489 0.050449 -0.167175
  C -1.944576 -0.926980 -0.108156
  H -1.033177 3.543744 0.945786
  H 0.103142 2.744670 -0.139531
  H 0.017620 2.276633 1.581379
  H -2.301524 1.449094 1.226943
  H -1.833986 2.131916 -1.702294
  H -2.893527 3.001084 -0.597659
  H -3.274986 1.335159 -1.041112
  H -2.960269 -0.712379 0.214012
  H -1.540940 -1.775328 0.443350
  H -1.952728 -1.237377 -1.152857
  O 2.716273 0.188889 0.079674
  H 1.088746 0.237699 -0.090852
  H 3.053604 -0.704449 0.250377
  H 3.023438 0.771486 0.785210
 20
 13.582990
  C -0.522864 2.557040 0.693354
  C -1.627528 1.550491 0.377374
  C -2.490074 2.024003 -0.814784
  C -1.092068 0.215733 0.024460
  O 0.108195 -0.008346 -0.235161
  C -2.010572 -0.921634 -0.116366
  H -0.962346 3.519219 0.944697
  H 0.127856 2.703007 -0.161047
  H 0.066971 2.230811 1.540895
  H -2.286024 1.435581 1.243098
  H -1.883742 2.111940 -1.709783
  H -2.901336 3.002766 -0.582490
  H -3.310373 1.345884 -1.011946
  H -3.006176 -0.688206 0.239812
  H -1.600630 -1.778160 0.424039
  H -2.051251 -1.223100 -1.170982
  O 2.817617 0.246609 0.147615
  H 0.981800 0.278571 -0.136241
  H 3.183538 -0.625871 0.327598
  H 3.101902 0.828702 0.856006
 20
 13.364696
  C -0.495758 2.533470 0.665467
  C -1.623509 1.539993 0.363669
  C -2.513010 2.034435 -0.793990
  C -1.129083 0.192627 0.001729
  O 0.061680 -0.069108 -0.290350
  C -2.082514 -0.939210 -0.125485
  H -0.916777 3.500530 0.922251
  H 0.148162 2.673239 -0.199905
  H 0.103644 2.196856 1.508157
  H -2.260302 1.438667 1.247891
  H -1.933929 2.112404 -1.710735
  H -2.891985 3.016925 -0.543489
  H -3.355289 1.373333 -0.965342
  H -3.063874 -0.686358 0.265069
  H -1.678063 -1.804438 0.397728
  H -2.169323 -1.219717 -1.177127
  O 2.950350 0.310971 0.214867
  H 0.878717 0.317109 -0.188461
  H 3.336253 -0.552968 0.400611
  H 3.199144 0.876533 0.952887
 20
 11.774535
  C -0.470471 2.484789 0.627369
  C -1.638493 1.528595 0.365693
  C -2.549894 2.041665 -0.769651
  C -1.186336 0.173276 -0.007513
  O -0.009459 -0.124543 -0.328708
  C -2.165438 -0.926754 -0.133276
  H -0.852505 3.464535 0.897323
  H 0.150456 2.607898 -0.257255
  H 0.143043 2.129221 1.450433
  H -2.240068 1.438984 1.278664
  H -2.000217 2.093630 -1.704842
  H -2.889305 3.037986 -0.516884
  H -3.415843 1.407893 -0.905993
  H -3.134656 -0.657177 0.281915
  H -1.768912 -1.812941 0.361903
  H -2.274902 -1.181653 -1.189964
  O 3.125695 0.380123 0.309965
  H 0.755209 0.368772 -0.263450
  H 3.531796 -0.475555 0.494523
  H 3.351899 0.946025 1.052621
 20
 11.443247
  C -0.450050 2.455400 0.590158
  C -1.643743 1.522106 0.368977
  C -2.579851 2.053024 -0.738065
  C -1.234976 0.160622 -0.025976
  O -0.066923 -0.163815 -0.362658
  C -2.245368 -0.924018 -0.142233
  H -0.803935 3.441095 0.879969
  H 0.138532 2.576201 -0.317734
  H 0.186240 2.087656 1.384562
  H -2.230323 1.458250 1.291772
  H -2.060553 2.086905 -1.690297
  H -2.885518 3.067679 -0.476070
  H -3.472151 1.437995 -0.842710
  H -3.199398 -0.635957 0.279381
  H -1.860998 -1.819862 0.344522
  H -2.367854 -1.173237 -1.202386
  O 3.279839 0.435355 0.396228
  H 0.642337 0.399882 -0.317419
  H 3.702087 -0.412915 0.570036
  H 3.500815 1.001929 1.142635
