 20
 0.000000
  C 1.006600 -0.071485 0.047722
  C 2.502916 -0.082175 0.026739
  C 3.219639 -0.594706 -0.979448
  C 4.657053 -0.605681 -1.000992
  C 5.378067 -1.120873 -2.012398
  C 6.816197 -1.130857 -2.031995
  C 7.534976 -1.642519 -3.036480
  C 9.024821 -1.662080 -3.074875
  H 0.643202 0.394424 0.962374
  H 0.611548 -1.086305 0.007997
  H 0.611551 0.493053 -0.796510
  H 3.002959 0.353247 0.881547
  H 2.709058 -1.028238 -1.830533
  H 5.161466 -0.170837 -0.147324
  H 4.874094 -1.555783 -2.866200
  H 7.322582 -0.696369 -1.179022
  H 7.036287 -2.078741 -3.892841
  H 9.458072 -1.208897 -2.185206
  H 9.384158 -1.116478 -3.948682
  H 9.384155 -2.689681 -3.147321
 20
 13.704713
  C 0.965134 -0.060571 0.069146
  C 2.460484 -0.071999 0.046717
  C 3.179742 -0.583017 -0.956501
  C 4.614551 -0.595665 -0.981328
  C 5.339012 -1.110965 -1.992949
  C 6.769033 -1.120949 -2.012538
  C 7.525798 -1.670294 -3.090995
  C 9.185855 -1.684258 -3.118417
  H 0.597138 0.404029 0.981229
  H 0.571174 -1.075505 0.022894
  H 0.571178 0.498758 -0.779011
  H 2.962514 0.362813 0.900332
  H 2.671087 -1.016990 -1.808461
  H 5.119777 -0.160995 -0.127996
  H 4.833584 -1.545544 -2.846093
  H 7.287809 -0.690786 -1.168063
  H 7.035399 -2.105205 -3.944783
  H 9.586029 -1.227125 -2.220997
  H 9.531590 -1.136041 -3.989828
  H 9.531587 -2.711449 -3.187336
 20
 40.768989
  C 0.951784 -0.045876 0.098020
  C 2.445023 -0.064932 0.060584
  C 3.155850 -0.576483 -0.943687
  C 4.585612 -0.597148 -0.984282
  C 5.301546 -1.114038 -1.999020
  C 6.728996 -1.130147 -2.030647
  C 7.464371 -1.702232 -3.153743
  C 9.352739 -1.682281 -3.114557
  H 0.587564 0.416207 1.005146
  H 0.554932 -1.057965 0.042317
  H 0.554930 0.504115 -0.753377
  H 2.960519 0.365258 0.905114
  H 2.642568 -1.008031 -1.790865
  H 5.100746 -0.166623 -0.139092
  H 4.785262 -1.544171 -2.843423
  H 7.282828 -0.715893 -1.217393
  H 7.037553 -2.139630 -4.012421
  H 9.603904 -1.212779 -2.192878
  H 9.627707 -1.118959 -3.978819
  H 9.627756 -2.712757 -3.167073
 20
 70.676097
  C 0.944831 -0.028446 0.132159
  C 2.436803 -0.060431 0.069415
  C 3.132150 -0.583921 -0.958212
  C 4.563122 -0.616912 -1.022944
  C 5.234266 -1.126150 -2.022646
  C 6.655620 -1.152660 -2.074743
  C 7.341963 -1.703136 -3.155506
  C 9.555715 -1.671199 -3.092861
  H 0.599814 0.439376 1.050493
  H 0.538400 -1.038246 0.085024
  H 0.538432 0.527092 -0.712396
  H 2.968404 0.367540 0.909550
  H 2.597119 -1.012323 -1.799255
  H 5.098890 -0.190120 -0.185098
  H 4.702208 -1.552360 -2.859391
  H 7.218655 -0.735494 -1.255778
  H 6.960474 -2.156088 -4.044738
  H 9.745475 -1.191824 -2.151685
  H 9.771430 -1.098104 -3.974479
  H 9.771386 -2.721316 -3.147681
 20
 95.441344
  C 0.915847 -0.009336 0.169528
  C 2.382368 -0.051155 0.087586
  C 3.053197 -0.575151 -0.940843
  C 4.506905 -0.618461 -1.025693
  C 5.176199 -1.141459 -2.052401
  C 6.611476 -1.177899 -2.124184
  C 7.276669 -1.712670 -3.174311
  C 9.791016 -1.676639 -3.103742
  H 0.596109 0.462608 1.095781
  H 0.501176 -1.012333 0.139755
  H 0.501284 0.556081 -0.659325
  H 2.929185 0.372710 0.919505
  H 2.499352 -1.003362 -1.781645
  H 5.059279 -0.191332 -0.187249
  H 4.634830 -1.564295 -2.882680
  H 7.165516 -0.757724 -1.299345
  H 6.931302 -2.170820 -4.073862
  H 9.943811 -1.194110 -2.156214
  H 9.972368 -1.104460 -3.990093
  H 9.972386 -2.730259 -3.162224
 20
 111.929660
  C 0.892414 0.012873 0.213263
  C 2.382712 -0.040522 0.108515
  C 3.038230 -0.570254 -0.931305
  C 4.460483 -0.621022 -1.030974
  C 5.118384 -1.154322 -2.077858
  C 6.556873 -1.198517 -2.164795
  C 7.225910 -1.737302 -3.222656
  C 9.988548 -1.671225 -3.092996
  H 0.580510 0.483663 1.137352
  H 0.471506 -0.987470 0.176441
  H 0.471508 0.571181 -0.617649
  H 2.944091 0.377628 0.929317
  H 2.481575 -0.990608 -1.756544
  H 5.017721 -0.200834 -0.206131
  H 4.564346 -1.577521 -2.908672
  H 7.105992 -0.775158 -1.333756
  H 6.941869 -2.204717 -4.140303
  H 10.033349 -1.187870 -2.144020
  H 10.110308 -1.091208 -3.977787
  H 10.110284 -2.728179 -3.144148
 20
 122.938539
  C 0.873824 0.032856 0.252846
  C 2.358832 -0.031402 0.126399
  C 2.994046 -0.565713 -0.922803
  C 4.417905 -0.626574 -1.042664
  C 5.054615 -1.163062 -2.095789
  C 6.501122 -1.217899 -2.203272
  C 7.161815 -1.746170 -3.240012
  C 10.208755 -1.671001 -3.091986
  H 0.581198 0.505474 1.180841
  H 0.440489 -0.975300 0.222807
  H 0.440417 0.601289 -0.580099
  H 2.936489 0.382716 0.939486
  H 2.419952 -0.984157 -1.743941
  H 4.988629 -0.211282 -0.227367
  H 4.488283 -1.582769 -2.919324
  H 7.039757 -0.798348 -1.379713
  H 6.927375 -2.215233 -4.160634
  H 10.180731 -1.185199 -2.138497
  H 10.287698 -1.085437 -3.989682
  H 10.287426 -2.741216 -3.145906
 20
 129.457944
  C 0.842256 0.047649 0.281105
  C 2.328370 -0.023665 0.141489
  C 2.951854 -0.560548 -0.911933
  C 4.378331 -0.628229 -1.044102
  C 5.003201 -1.167053 -2.102060
  C 6.447721 -1.228247 -2.222536
  C 7.105411 -1.751237 -3.249968
  C 10.424439 -1.681279 -3.113040
  H 0.557823 0.524236 1.216136
  H 0.406306 -0.952373 0.254912
  H 0.406471 0.614060 -0.543438
  H 2.917246 0.389628 0.952461
  H 2.370468 -0.975151 -1.726369
  H 4.960844 -0.213149 -0.229420
  H 4.430928 -1.583899 -2.921153
  H 6.991614 -0.804492 -1.390413
  H 6.898362 -2.223719 -4.178003
  H 10.331348 -1.199142 -2.165923
  H 10.479208 -1.099586 -4.006728
  H 10.479224 -2.746149 -3.168459
 20
 132.959620
  C 0.803313 0.058530 0.303050
  C 2.287476 -0.014893 0.158809
  C 2.906654 -0.552139 -0.896171
  C 4.335112 -0.621794 -1.033315
  C 4.954584 -1.161329 -2.092370
  C 6.401757 -1.225474 -2.218122
  C 7.056180 -1.741843 -3.231480
  C 10.653376 -1.706319 -3.160937
  H 0.522532 0.535575 1.239675
  H 0.367895 -0.936394 0.278597
  H 0.368158 0.623477 -0.515564
  H 2.876103 0.395715 0.965106
  H 2.322602 -0.965034 -1.706465
  H 4.922585 -0.206157 -0.217243
  H 4.378418 -1.579139 -2.912151
  H 6.944918 -0.801392 -1.385734
  H 6.865713 -2.218276 -4.166546
  H 10.480993 -1.231974 -2.229897
  H 10.710270 -1.121480 -4.056520
  H 10.709983 -2.773357 -3.214100
 20
 134.712346
  C 0.757893 0.066384 0.320130
  C 2.245369 -0.005849 0.177108
  C 2.866332 -0.542546 -0.878043
  C 4.293865 -0.610178 -1.013434
  C 4.915310 -1.149436 -2.071580
  C 6.358841 -1.212332 -2.194717
  C 7.019387 -1.727155 -3.203633
  C 10.878593 -1.745131 -3.237727
  H 0.475532 0.542896 1.256773
  H 0.321935 -0.931980 0.294211
  H 0.321603 0.632964 -0.501860
  H 2.831757 0.404606 0.983652
  H 2.280094 -0.958764 -1.693356
  H 4.876294 -0.196230 -0.200637
  H 4.342887 -1.568752 -2.892185
  H 6.898029 -0.784715 -1.356361
  H 6.839844 -2.201534 -4.133414
  H 10.643519 -1.272178 -2.310864
  H 10.950491 -1.163454 -4.123194
  H 10.950673 -2.807444 -3.286665
 20
 135.252084
  C 0.706131 0.072611 0.329091
  C 2.193810 0.003226 0.194149
  C 2.821014 -0.532793 -0.857194
  C 4.250362 -0.598913 -0.984837
  C 4.878457 -1.136268 -2.040175
  C 6.325789 -1.195784 -2.156784
  C 6.992472 -1.705400 -3.158418
  C 11.112167 -1.794205 -3.331769
  H 0.418571 0.548558 1.262768
  H 0.271583 -0.928229 0.301895
  H 0.272155 0.639213 -0.496843
  H 2.775664 0.416076 1.004589
  H 2.240915 -0.948226 -1.674304
  H 4.826934 -0.183734 -0.169514
  H 4.312444 -1.554555 -2.863446
  H 6.858038 -0.766148 -1.312158
  H 6.825923 -2.180121 -4.091606
  H 10.830184 -1.328100 -2.414490
  H 11.202022 -1.207103 -4.221043
  H 11.201621 -2.849547 -3.379929
 20
 135.386695
  C 0.654098 0.075228 0.334578
  C 2.142495 0.011199 0.209521
  C 2.777815 -0.522368 -0.836871
  C 4.209890 -0.583604 -0.955483
  C 4.846943 -1.118844 -2.006570
  C 6.299808 -1.173525 -2.114283
  C 6.973053 -1.679153 -3.108096
  C 11.346145 -1.847245 -3.439310
  H 0.359546 0.549324 1.264481
  H 0.223616 -0.925975 0.305396
  H 0.223909 0.639861 -0.492699
  H 2.719807 0.427629 1.026353
  H 2.205027 -0.939511 -1.656819
  H 4.780377 -0.166038 -0.136043
  H 4.287277 -1.539419 -2.833804
  H 6.825226 -0.742025 -1.266585
  H 6.818096 -2.156458 -4.046048
  H 11.034691 -1.384528 -2.529563
  H 11.449313 -1.259926 -4.324834
  H 11.450028 -2.908204 -3.485656
 20
 135.776718
  C 0.617039 0.073719 0.333383
  C 2.099680 0.016750 0.220938
  C 2.748907 -0.515278 -0.823131
  C 4.170429 -0.568802 -0.928352
  C 4.819473 -1.102080 -1.975535
  C 6.270579 -1.150626 -2.071905
  C 6.947126 -1.646878 -3.046821
  C 11.577162 -1.906124 -3.559076
  H 0.306083 0.555881 1.279710
  H 0.193003 -0.929895 0.299658
  H 0.192113 0.636569 -0.499323
  H 2.656765 0.428725 1.028799
  H 2.188705 -0.933511 -1.644066
  H 4.731349 -0.148260 -0.103503
  H 4.282207 -1.516442 -2.789140
  H 6.781099 -0.716182 -1.219314
  H 6.809536 -2.124239 -3.984038
  H 11.245098 -1.445070 -2.652821
  H 11.688437 -1.322373 -4.437991
  H 11.691740 -2.971511 -3.604176
 20
 135.540176
  C 0.555842 0.072818 0.332930
  C 2.048575 0.023148 0.234731
  C 2.706648 -0.502559 -0.798905
  C 4.146642 -0.549247 -0.892357
  C 4.807708 -1.078146 -1.930487
  C 6.266773 -1.119800 -2.011601
  C 6.963820 -1.619391 -2.991009
  C 11.808720 -1.983372 -3.702201
  H 0.242040 0.539629 1.251412
  H 0.136380 -0.929283 0.295124
  H 0.134330 0.634313 -0.502258
  H 2.612005 0.446689 1.067407
  H 2.152114 -0.926018 -1.629292
  H 4.698728 -0.126532 -0.061745
  H 4.261502 -1.508232 -2.773162
  H 6.774363 -0.682892 -1.154407
  H 6.825221 -2.100000 -3.933589
  H 11.482733 -1.522320 -2.797257
  H 11.943280 -1.394897 -4.586973
  H 11.943986 -3.039421 -3.745077
