 29
 0.000000
  H 1.460605 0.161803 0.459086
  C 2.539040 0.145711 0.417192
  C 3.299357 0.615392 1.582758
  C 2.452201 1.088476 2.759691
  C 3.330910 1.554709 3.916296
  C 3.101936 -0.324505 -0.752819
  C 4.476186 -0.419633 -0.991097
  C 5.137964 -0.876349 -2.130874
  C 4.612192 -1.393111 -3.421140
  C 3.116731 -1.500450 -3.691097
  C 2.879448 -2.061182 -5.091212
  O 6.453127 -0.878812 -2.137145
  H 3.959353 1.434312 1.271849
  H 3.960623 -0.189654 1.925487
  H 1.810234 0.277205 3.107502
  H 1.809009 1.913657 2.448839
  H 3.966311 0.747464 4.273450
  H 2.714846 1.888696 4.747302
  H 3.965014 2.385149 3.614218
  H 2.419329 -0.635038 -1.524677
  H 5.118061 -0.094159 -0.180546
  H 5.063534 -2.383128 -3.556267
  H 5.064482 -0.770799 -4.202379
  H 2.647932 -0.517632 -3.632119
  H 2.647004 -2.170303 -2.970091
  H 3.315068 -1.415353 -5.849893
  H 1.813344 -2.139438 -5.288064
  H 3.314220 -3.052593 -5.194052
  H 6.862320 -0.549711 -1.313708
 29
 10.481120
  H 1.433784 0.196837 0.546485
  C 2.509736 0.178815 0.499762
  C 3.275582 0.642469 1.650239
  C 2.434641 1.117070 2.830876
  C 3.319784 1.581566 3.982973
  C 3.128782 -0.347107 -0.808874
  C 4.486790 -0.439927 -1.041482
  C 5.149194 -0.896407 -2.180770
  C 4.622538 -1.412925 -3.470488
  C 3.126672 -1.519456 -3.738502
  C 2.888155 -2.080057 -5.138410
  O 6.463212 -0.898653 -2.186622
  H 3.936837 1.459163 1.334492
  H 3.938150 -0.164296 1.987947
  H 1.792616 0.306871 3.181227
  H 1.791354 1.943197 2.522553
  H 3.955349 0.773059 4.337008
  H 2.708522 1.916771 4.816955
  H 3.953999 2.410763 3.677700
  H 2.441907 -0.654808 -1.573665
  H 5.128109 -0.114155 -0.230151
  H 5.073826 -2.402904 -3.606140
  H 5.074797 -0.791006 -4.252050
  H 2.658451 -0.536253 -3.679119
  H 2.657497 -2.189332 -3.016986
  H 3.323570 -1.434342 -5.897292
  H 1.821929 -2.158087 -5.334757
  H 3.322691 -3.071523 -5.241520
  H 6.873678 -0.569771 -1.363787
 29
 31.235017
  H 1.397155 0.229830 0.629389
  C 2.467288 0.211518 0.581923
  C 3.251049 0.660058 1.694426
  C 2.428074 1.139853 2.887579
  C 3.333533 1.598766 4.025165
  C 3.135824 -0.371165 -0.867947
  C 4.462776 -0.452298 -1.071718
  C 5.144302 -0.907415 -2.207971
  C 4.630613 -1.425670 -3.502227
  C 3.136547 -1.535900 -3.779571
  C 2.909750 -2.096982 -5.181121
  O 6.457087 -0.903532 -2.198995
  H 3.916532 1.470712 1.364738
  H 3.917936 -0.151895 2.018074
  H 1.786200 0.333097 3.246410
  H 1.784850 1.969240 2.587549
  H 3.969464 0.786297 4.369391
  H 2.737263 1.937774 4.868315
  H 3.967990 2.424015 3.709807
  H 2.437537 -0.672054 -1.615679
  H 5.093455 -0.122837 -0.251324
  H 5.086780 -2.413906 -3.634684
  H 5.087762 -0.802720 -4.280179
  H 2.665543 -0.553452 -3.723533
  H 2.664568 -2.207694 -3.061155
  H 3.349212 -1.449852 -5.936494
  H 1.845319 -2.178347 -5.385889
  H 3.348307 -3.087026 -5.280935
  H 6.860033 -0.573321 -1.372992
 29
 54.156908
  H 1.314280 0.263278 0.712661
  C 2.386495 0.244734 0.664703
  C 3.212391 0.687072 1.761890
  C 2.419240 1.175348 2.975977
  C 3.355813 1.625604 4.092008
  C 3.097294 -0.395677 -0.929110
  C 4.456787 -0.471463 -1.119632
  C 5.156033 -0.926238 -2.255117
  C 4.652301 -1.445487 -3.551687
  C 3.159629 -1.558126 -3.834935
  C 2.939807 -2.119684 -5.237554
  O 6.467700 -0.917221 -2.233595
  H 3.881397 1.489824 1.416418
  H 3.882698 -0.130181 2.068628
  H 1.778400 0.374332 3.348455
  H 1.777104 2.010075 2.689752
  H 3.991842 0.807066 4.421196
  H 2.782589 1.970208 4.948962
  H 3.990378 2.444799 3.761582
  H 2.375210 -0.690181 -1.661041
  H 5.081711 -0.140089 -0.294552
  H 5.111807 -2.432594 -3.681816
  H 5.112799 -0.821820 -4.327239
  H 2.687192 -0.576475 -3.781033
  H 2.686263 -2.230820 -3.118604
  H 3.381680 -1.471754 -5.990823
  H 1.876561 -2.203126 -5.447411
  H 3.380838 -3.108852 -5.335255
  H 6.863923 -0.585765 -1.404541
 29
 74.782532
  H 1.177154 0.268785 0.726891
  C 2.251768 0.261366 0.707332
  C 3.166760 0.684829 1.757852
  C 2.454233 1.193431 3.020395
  C 3.467253 1.620200 4.078174
  C 3.001080 -0.437175 -1.031626
  C 4.351965 -0.479629 -1.139883
  C 5.113748 -0.912943 -2.222879
  C 4.671995 -1.437640 -3.532725
  C 3.188991 -1.566109 -3.854504
  C 3.009310 -2.129479 -5.261857
  O 6.412872 -0.875553 -2.132129
  H 3.842048 1.467289 1.374242
  H 3.842521 -0.144628 2.023618
  H 1.817116 0.404169 3.421366
  H 1.816675 2.039799 2.762088
  H 4.100921 0.785900 4.369624
  H 2.953959 1.978451 4.967342
  H 4.100275 2.423738 3.709303
  H 2.228523 -0.713847 -1.719400
  H 4.928887 -0.138025 -0.289650
  H 5.148820 -2.418195 -3.648068
  H 5.149344 -0.808331 -4.293112
  H 2.708787 -0.588496 -3.809958
  H 2.708346 -2.242710 -3.147798
  H 3.463846 -1.476769 -6.003604
  H 1.952899 -2.224117 -5.499009
  H 3.463448 -3.113849 -5.348189
  H 6.761715 -0.537166 -1.285530
 29
 94.225551
  H 1.067574 0.287927 0.775623
  C 2.139349 0.288894 0.778079
  C 3.113271 0.691011 1.775186
  C 2.477764 1.215714 3.073894
  C 3.555996 1.619330 4.074744
  C 2.926706 -0.468539 -1.105626
  C 4.267052 -0.488421 -1.159075
  C 5.092522 -0.908784 -2.212401
  C 4.695198 -1.441632 -3.543236
  C 3.218607 -1.581542 -3.892196
  C 3.065039 -2.145535 -5.303233
  O 6.409450 -0.846970 -2.063789
  H 3.782546 1.461098 1.358138
  H 3.781693 -0.153372 2.009722
  H 1.846801 0.441680 3.510772
  H 1.847818 2.076679 2.850450
  H 4.184900 0.770671 4.332800
  H 3.098414 1.988989 4.989298
  H 4.185827 2.408470 3.671253
  H 2.110851 -0.724746 -1.742320
  H 4.803674 -0.138274 -0.287075
  H 5.185085 -2.417436 -3.648596
  H 5.184517 -0.807744 -4.292872
  H 2.731576 -0.607262 -3.855072
  H 2.731788 -2.261866 -3.193682
  H 3.527114 -1.489206 -6.037084
  H 2.013264 -2.247398 -5.557952
  H 3.527245 -3.126719 -5.382607
  H 6.722247 -0.501062 -1.199175
 29
 111.705617
  H 1.027727 0.324609 0.864901
  C 2.093811 0.324415 0.867568
  C 3.071704 0.709554 1.824061
  C 2.469623 1.244847 3.143768
  C 3.576038 1.636037 4.116278
  C 2.922599 -0.491493 -1.159436
  C 4.254292 -0.506527 -1.201327
  C 5.104118 -0.926805 -2.257623
  C 4.721357 -1.457228 -3.582883
  C 3.246654 -1.598152 -3.932429
  C 3.091772 -2.161207 -5.342783
  O 6.402858 -0.859969 -2.100863
  H 3.739749 1.473699 1.389966
  H 3.736516 -0.143899 2.044281
  H 1.839584 0.477165 3.596564
  H 1.843215 2.113807 2.934139
  H 4.201192 0.780013 4.359971
  H 3.144275 2.011357 5.041025
  H 4.204925 2.418113 3.696839
  H 2.091866 -0.737450 -1.771740
  H 4.781603 -0.153100 -0.319236
  H 5.213516 -2.432062 -3.685610
  H 5.211835 -0.821139 -4.329765
  H 2.759310 -0.623220 -3.892532
  H 2.760494 -2.278168 -3.231841
  H 3.553107 -1.504503 -6.076627
  H 2.039748 -2.262978 -5.596422
  H 3.554005 -3.142284 -5.422960
  H 6.705102 -0.512623 -1.235773
 29
 125.888052
  H 0.983121 0.360167 0.953183
  C 2.051283 0.359285 0.954676
  C 3.042896 0.739349 1.898847
  C 2.464856 1.275983 3.221013
  C 3.587044 1.660058 4.176260
  C 2.925068 -0.513581 -1.214676
  C 4.256153 -0.526142 -1.250443
  C 5.113762 -0.943166 -2.298991
  C 4.738067 -1.476452 -3.631042
  C 3.265042 -1.619925 -3.986723
  C 3.115393 -2.183446 -5.397831
  O 6.409893 -0.872017 -2.131997
  H 3.706858 1.497122 1.458909
  H 3.703218 -0.113717 2.110782
  H 1.837643 0.512693 3.681015
  H 1.841716 2.146961 3.019207
  H 4.210147 0.800506 4.411103
  H 3.170511 2.037926 5.106633
  H 4.214275 2.438060 3.747868
  H 2.083408 -0.755193 -1.816283
  H 4.777739 -0.172041 -0.366183
  H 5.232279 -2.450479 -3.731734
  H 5.230526 -0.839667 -4.376024
  H 2.776536 -0.646080 -3.948158
  H 2.777765 -2.299933 -3.287719
  H 3.578291 -1.526226 -6.130127
  H 2.064450 -2.286648 -5.654985
  H 3.579173 -3.163841 -5.476320
  H 6.702330 -0.525583 -1.269676
 29
 137.536611
  H 0.945497 0.393198 1.035513
  C 2.012582 0.391245 1.035162
  C 3.013237 0.766632 1.967578
  C 2.453820 1.309280 3.303081
  C 3.592309 1.687310 4.243478
  C 2.932465 -0.538865 -1.275922
  C 4.260005 -0.548693 -1.305274
  C 5.128762 -0.964188 -2.351304
  C 4.758250 -1.495915 -3.679915
  C 3.285569 -1.638824 -4.033807
  C 3.133224 -2.201901 -5.444435
  O 6.424231 -0.890504 -2.178931
  H 3.677199 1.522379 1.518332
  H 3.673124 -0.091650 2.172090
  H 1.827585 0.548504 3.772056
  H 1.832118 2.184863 3.108802
  H 4.213702 0.824014 4.470360
  H 3.190118 2.067873 5.179488
  H 4.218308 2.461891 3.806413
  H 2.083463 -0.775974 -1.866433
  H 4.776474 -0.193054 -0.416634
  H 5.252615 -2.469521 -3.780009
  H 5.250612 -0.858648 -4.424033
  H 2.797571 -0.664308 -3.993647
  H 2.799017 -2.318551 -3.333355
  H 3.595336 -1.544724 -6.177322
  H 2.081814 -2.304449 -5.699792
  H 3.596385 -3.182548 -5.523742
  H 6.714241 -0.541777 -1.310967
 29
 145.393689
  H 0.914880 0.435291 1.141388
  C 1.989952 0.426273 1.124702
  C 2.975682 0.805439 2.065532
  C 2.434958 1.353338 3.411505
  C 3.583768 1.727901 4.342822
  C 2.959004 -0.560760 -1.326991
  C 4.284552 -0.574495 -1.366758
  C 5.151020 -0.990980 -2.417444
  C 4.775554 -1.523095 -3.748278
  C 3.301167 -1.666462 -4.102868
  C 3.148872 -2.229293 -5.514428
  O 6.442716 -0.918083 -2.248107
  H 3.637533 1.553935 1.610066
  H 3.632966 -0.052030 2.261611
  H 1.810833 0.596480 3.886828
  H 1.815849 2.230644 3.223426
  H 4.203623 0.862438 4.564543
  H 3.192492 2.110825 5.282933
  H 4.208739 2.499632 3.899808
  H 2.110015 -0.798723 -1.920139
  H 4.805654 -0.220483 -0.481077
  H 5.269842 -2.497259 -3.849258
  H 5.267522 -0.885291 -4.493016
  H 2.812970 -0.692531 -4.061833
  H 2.814787 -2.345905 -3.402655
  H 3.610748 -1.571760 -6.247180
  H 2.097468 -2.331899 -5.769717
  H 3.612125 -3.209910 -5.594225
  H 6.734898 -0.569624 -1.380174
 29
 148.399583
  H 0.907899 0.481601 1.257976
  C 1.985959 0.461034 1.213646
  C 2.936907 0.850482 2.178588
  C 2.403735 1.400327 3.526985
  C 3.552170 1.775626 4.459481
  C 3.008164 -0.582716 -1.377157
  C 4.333492 -0.605200 -1.439507
  C 5.184826 -1.025416 -2.502110
  C 4.791262 -1.553934 -3.825696
  C 3.314155 -1.692723 -4.168576
  C 3.150751 -2.254194 -5.578924
  O 6.475381 -0.958761 -2.349754
  H 3.599972 1.594676 1.719043
  H 3.595004 -0.006820 2.369770
  H 1.778997 0.643781 4.004412
  H 1.784476 2.278956 3.339599
  H 4.171944 0.909889 4.681782
  H 3.162620 2.159446 5.400071
  H 4.177512 2.547167 4.015973
  H 2.168260 -0.825036 -1.981742
  H 4.868821 -0.254182 -0.560077
  H 5.281032 -2.529206 -3.931507
  H 5.278430 -0.917736 -4.574114
  H 2.828730 -0.717504 -4.122980
  H 2.830874 -2.370930 -3.464839
  H 3.609011 -1.597544 -6.314670
  H 2.097350 -2.353750 -5.826542
  H 3.610655 -3.236020 -5.662643
  H 6.782723 -0.610716 -1.481934
 29
 148.922234
  H 0.904299 0.530256 1.379609
  C 1.984059 0.498365 1.308113
  C 2.908364 0.899089 2.300068
  C 2.372420 1.447065 3.641961
  C 3.513282 1.824507 4.579654
  C 3.055879 -0.602599 -1.422987
  C 4.379158 -0.633482 -1.507121
  C 5.217876 -1.058335 -2.583613
  C 4.806185 -1.584612 -3.902808
  C 3.325657 -1.719332 -4.235107
  C 3.151376 -2.279929 -5.644871
  O 6.503846 -0.997437 -2.446969
  H 3.574960 1.641042 1.840433
  H 3.569473 0.043094 2.490424
  H 1.746419 0.689987 4.116747
  H 1.752463 2.324493 3.451494
  H 4.133366 0.959938 4.805351
  H 3.119110 2.208060 5.518150
  H 4.139542 2.596848 4.138948
  H 2.222956 -0.848872 -2.037826
  H 4.927689 -0.285327 -0.634090
  H 5.292327 -2.561816 -4.013518
  H 5.289432 -0.949711 -4.655685
  H 2.842685 -0.742946 -4.185522
  H 2.845162 -2.396378 -3.528195
  H 3.605979 -1.624213 -6.383634
  H 2.095981 -2.376589 -5.885112
  H 3.607871 -3.262965 -5.732289
  H 6.823769 -0.652318 -1.585636
 29
 149.287295
  H 0.902133 0.577413 1.495021
  C 1.982861 0.535363 1.400071
  C 2.884375 0.943144 2.410251
  C 2.339917 1.489303 3.745767
  C 3.473224 1.869641 4.692212
  C 3.099838 -0.622987 -1.472985
  C 4.422272 -0.660058 -1.573036
  C 5.249656 -1.087669 -2.657852
  C 4.820579 -1.610838 -3.969158
  C 3.337059 -1.739785 -4.285886
  C 3.146581 -2.299514 -5.693409
  O 6.534611 -1.031321 -2.533839
  H 3.554616 1.683174 1.951991
  H 3.547916 0.088563 2.601047
  H 1.711217 0.730736 4.216581
  H 1.718608 2.365853 3.550688
  H 4.093707 1.006247 4.922496
  H 3.071912 2.252709 5.628033
  H 4.101238 2.643261 4.255624
  H 2.269984 -0.870905 -2.092553
  H 4.981005 -0.314085 -0.705184
  H 5.301834 -2.589489 -4.085167
  H 5.298566 -0.978326 -4.726940
  H 2.858073 -0.761683 -4.231194
  H 2.861034 -2.414881 -3.574050
  H 3.595835 -1.645510 -6.436824
  H 2.088461 -2.392078 -5.922660
  H 3.598163 -3.284299 -5.785509
  H 6.867595 -0.687329 -1.674970
 29
 149.672467
  H 0.892865 0.624745 1.612441
  C 1.973864 0.574357 1.497640
  C 2.862147 0.988389 2.522905
  C 2.310298 1.533157 3.853688
  C 3.436757 1.915780 4.806164
  C 3.131051 -0.642569 -1.518764
  C 4.451221 -0.683662 -1.629627
  C 5.273573 -1.113029 -2.721153
  C 4.833529 -1.634763 -4.029844
  C 3.347663 -1.760665 -4.337853
  C 3.147376 -2.319669 -5.744676
  O 6.555869 -1.058824 -2.603819
  H 3.535565 1.726940 2.065440
  H 3.528245 0.135115 2.713782
  H 1.680084 0.773885 4.321071
  H 1.688092 2.408109 3.655156
  H 4.057518 1.053671 5.039842
  H 3.029692 2.298253 5.739546
  H 4.065654 2.690259 4.372760
  H 2.300417 -0.890169 -2.137870
  H 5.016459 -0.339195 -0.764827
  H 5.312486 -2.614633 -4.149688
  H 5.308739 -1.003279 -4.790957
  H 2.870766 -0.781571 -4.279962
  H 2.874361 -2.435077 -3.623354
  H 3.593137 -1.666345 -6.490736
  H 2.087594 -2.409916 -5.967319
  H 3.596105 -3.305457 -5.839920
  H 6.895443 -0.717029 -1.749567
