 29
 0.000000
  C 0.974097 0.138720 0.397418
  C 2.449906 0.139414 0.398348
  C 3.233732 0.608903 1.566032
  C 2.455060 1.097786 2.782855
  H 3.128649 1.412624 3.565873
  C 3.071514 -0.323800 -0.754724
  C 4.447838 -0.411275 -0.973186
  C 5.119328 -0.863975 -2.101859
  C 4.619782 -1.386020 -3.403602
  C 3.128813 -1.503213 -3.696857
  C 2.906017 -2.065230 -5.098271
  O 6.441769 -0.861390 -2.095570
  H 0.537838 0.508644 1.318023
  H 0.604381 -0.873585 0.229469
  H 0.603931 0.753062 -0.424299
  H 3.890139 1.420262 1.232203
  H 3.890529 -0.207515 1.886442
  H 1.819068 0.303047 3.171378
  H 1.818736 1.940127 2.513453
  H 2.418345 -0.642975 -1.549109
  H 5.075774 -0.082667 -0.154925
  H 5.075385 -2.374749 -3.530130
  H 5.075874 -0.759080 -4.178282
  H 2.653749 -0.522803 -3.643814
  H 2.653242 -2.174984 -2.981137
  H 3.345136 -1.417902 -5.853883
  H 1.841336 -2.146804 -5.302490
  H 3.344652 -3.055522 -5.197065
  H 6.821189 -0.527328 -1.261249
 29
 7.917983
  C 0.952810 0.175262 0.483992
  C 2.417691 0.152001 0.429954
  C 3.250807 0.605285 1.560379
  C 2.517015 1.104997 2.802585
  H 3.245480 1.407037 3.556735
  C 2.994039 -0.331038 -0.772081
  C 4.322652 -0.444329 -1.053685
  C 5.092274 -0.873798 -2.127368
  C 4.650626 -1.402024 -3.444264
  C 3.165429 -1.528704 -3.757499
  C 2.974615 -2.092262 -5.163292
  O 6.422757 -0.833498 -2.032494
  H 0.565490 0.552315 1.421476
  H 0.559473 -0.831743 0.315567
  H 0.561219 0.786735 -0.334437
  H 3.910222 1.409853 1.205222
  H 3.908687 -0.222513 1.860956
  H 1.893012 0.327605 3.233844
  H 1.894878 1.965959 2.575879
  H 2.273366 -0.631168 -1.521879
  H 4.712684 -0.074937 -0.131003
  H 5.129862 -2.381955 -3.557837
  H 5.128675 -0.771299 -4.203600
  H 2.686176 -0.550927 -3.708663
  H 2.687342 -2.202611 -3.046614
  H 3.425294 -1.440761 -5.908253
  H 1.916284 -2.185127 -5.393307
  H 3.426475 -3.077383 -5.252348
  H 6.763762 -0.489110 -1.176757
 29
 24.202261
  C 0.966916 0.181060 0.499848
  C 2.427578 0.148047 0.418401
  C 3.267452 0.599178 1.540157
  C 2.526600 1.094992 2.778447
  H 3.246826 1.397507 3.528094
  C 2.978077 -0.341493 -0.799799
  C 4.293891 -0.468389 -1.114008
  C 5.120485 -0.882090 -2.145773
  C 4.700867 -1.408287 -3.458224
  C 3.204316 -1.520105 -3.738064
  C 2.967896 -2.081316 -5.137981
  O 6.443242 -0.825943 -2.007168
  H 0.598034 0.562186 1.447751
  H 0.562572 -0.824101 0.335901
  H 0.562345 0.792602 -0.314474
  H 3.923901 1.409945 1.190490
  H 3.927574 -0.222931 1.854358
  H 1.909258 0.312824 3.209111
  H 1.904475 1.954992 2.552479
  H 2.190601 -0.629561 -1.519030
  H 4.456472 -0.078645 -0.142156
  H 5.175832 -2.389776 -3.575127
  H 5.177350 -0.779817 -4.219861
  H 2.739058 -0.533987 -3.671240
  H 2.739101 -2.186748 -3.008333
  H 3.406704 -1.434876 -5.895175
  H 1.902667 -2.161792 -5.339128
  H 3.406497 -3.071713 -5.238988
  H 6.739649 -0.485690 -1.158572
 29
 43.813656
  C 0.945501 0.191397 0.522711
  C 2.413619 0.156565 0.439452
  C 3.277790 0.604895 1.557658
  C 2.568745 1.106997 2.810694
  H 3.310454 1.400767 3.544536
  C 2.969100 -0.347790 -0.816330
  C 4.273915 -0.482142 -1.149414
  C 5.103248 -0.880712 -2.144970
  C 4.709137 -1.412579 -3.470283
  C 3.221033 -1.533373 -3.769613
  C 3.004676 -2.095938 -5.171010
  O 6.405813 -0.813125 -1.981406
  H 0.579895 0.570955 1.466549
  H 0.539780 -0.810108 0.360619
  H 0.541216 0.802876 -0.287483
  H 3.933826 1.410037 1.200628
  H 3.934329 -0.223172 1.856987
  H 1.951577 0.332346 3.256711
  H 1.951904 1.975680 2.598672
  H 2.152348 -0.619948 -1.497301
  H 4.275607 -0.092324 -0.176076
  H 5.187477 -2.392332 -3.579077
  H 5.187152 -0.779727 -4.226175
  H 2.749869 -0.552537 -3.706183
  H 2.750409 -2.198544 -3.045590
  H 3.449429 -1.447362 -5.922948
  H 1.942502 -2.182588 -5.385909
  H 3.450107 -3.084059 -5.266175
  H 6.681067 -0.468271 -1.123021
 29
 63.220587
  C 0.956994 0.195056 0.529007
  C 2.419114 0.163852 0.454253
  C 3.273155 0.613187 1.579790
  C 2.542984 1.110249 2.824374
  H 3.276030 1.408152 3.572880
  C 2.988795 -0.341753 -0.808747
  C 4.297568 -0.486154 -1.165721
  C 5.135825 -0.888955 -2.170572
  C 4.731148 -1.423072 -3.496987
  C 3.236473 -1.533460 -3.770141
  C 2.990025 -2.095887 -5.165648
  O 6.442300 -0.824134 -2.012257
  H 0.589077 0.573376 1.473115
  H 0.553561 -0.806263 0.364900
  H 0.554872 0.806900 -0.281108
  H 3.933991 1.421961 1.230049
  H 3.933916 -0.213906 1.883881
  H 1.921243 0.329373 3.261267
  H 1.922562 1.978323 2.603712
  H 2.150973 -0.611427 -1.484664
  H 4.158268 -0.095419 -0.190488
  H 5.202185 -2.406067 -3.610388
  H 5.201866 -0.793059 -4.260029
  H 2.773802 -0.549707 -3.698509
  H 2.774365 -2.192848 -3.036129
  H 3.425583 -1.452079 -5.926426
  H 1.923579 -2.174970 -5.360922
  H 3.426218 -3.087046 -5.267343
  H 6.723181 -0.478421 -1.149107
 29
 80.251603
  C 0.945723 0.197096 0.520464
  C 2.415028 0.168003 0.457574
  C 3.270621 0.614086 1.588629
  C 2.549348 1.107931 2.832517
  H 3.288609 1.403274 3.584729
  C 2.993659 -0.329570 -0.793231
  C 4.310493 -0.486512 -1.174957
  C 5.142786 -0.891821 -2.185180
  C 4.739895 -1.423358 -3.497836
  C 3.244737 -1.533791 -3.763941
  C 2.990232 -2.098032 -5.158850
  O 6.453541 -0.829673 -2.038128
  H 0.567092 0.574488 1.468489
  H 0.546049 -0.800240 0.349954
  H 0.550419 0.807800 -0.288421
  H 3.929599 1.415657 1.240723
  H 3.926393 -0.210658 1.885738
  H 1.926238 0.327613 3.268617
  H 1.930880 1.978267 2.616148
  H 2.153816 -0.592227 -1.459868
  H 4.056988 -0.098029 -0.204226
  H 5.210096 -2.401973 -3.609624
  H 5.208161 -0.795915 -4.258625
  H 2.780982 -0.548102 -3.691646
  H 2.786878 -2.193020 -3.023863
  H 3.422001 -1.454204 -5.922269
  H 1.922782 -2.177321 -5.348460
  H 3.426305 -3.089834 -5.262523
  H 6.742900 -0.481740 -1.174433
 29
 93.846384
  C 0.954135 0.250018 0.486128
  C 2.425865 0.197844 0.452547
  C 3.268373 0.591546 1.615978
  C 2.529164 1.053784 2.866348
  H 3.255004 1.308051 3.640880
  C 3.019848 -0.260463 -0.789686
  C 4.348218 -0.451536 -1.178292
  C 5.159605 -0.860559 -2.193068
  C 4.744174 -1.428206 -3.503411
  C 3.232705 -1.564789 -3.754757
  C 2.971127 -2.149580 -5.135969
  O 6.475039 -0.776899 -2.076740
  H 0.568994 0.597925 1.432880
  H 0.537863 -0.738758 0.271894
  H 0.580413 0.900334 -0.308241
  H 3.952424 1.397320 1.312476
  H 3.909127 -0.260447 1.893188
  H 1.887126 0.273470 3.259518
  H 1.932589 1.937848 2.671627
  H 2.188373 -0.477014 -1.483970
  H 3.998670 -0.065896 -0.212744
  H 5.225930 -2.409325 -3.614037
  H 5.190095 -0.796358 -4.280563
  H 2.760795 -0.585397 -3.689206
  H 2.793199 -2.219966 -3.002647
  H 3.385972 -1.511047 -5.911380
  H 1.903901 -2.245512 -5.313314
  H 3.418911 -3.135181 -5.229963
  H 6.775521 -0.400320 -1.225577
 29
 100.269882
  C 0.953157 0.320128 0.453704
  C 2.433501 0.234590 0.442541
  C 3.256445 0.558776 1.644788
  C 2.493559 0.970482 2.883036
  H 3.195328 1.170197 3.681762
  C 3.043977 -0.167224 -0.780454
  C 4.391673 -0.415895 -1.222454
  C 5.180593 -0.822061 -2.213733
  C 4.732193 -1.440123 -3.510892
  C 3.241230 -1.594468 -3.720393
  C 2.956759 -2.210060 -5.086034
  O 6.521906 -0.725623 -2.158803
  H 0.566748 0.632863 1.417741
  H 0.516790 -0.643851 0.197150
  H 0.602907 1.024186 -0.298640
  H 3.962732 1.367345 1.402906
  H 3.868410 -0.323598 1.890668
  H 1.824137 0.182243 3.219389
  H 1.919383 1.879351 2.713573
  H 2.242635 -0.328295 -1.509604
  H 3.972217 -0.012200 -0.223286
  H 5.224539 -2.414081 -3.612322
  H 5.151284 -0.807184 -4.300480
  H 2.761525 -0.622225 -3.669033
  H 2.823066 -2.239017 -2.953749
  H 3.349407 -1.582661 -5.883441
  H 1.884516 -2.319609 -5.238351
  H 3.412924 -3.194249 -5.169878
  H 6.848625 -0.321969 -1.346836
 29
 103.368295
  C 0.976200 0.401786 0.384066
  C 2.454855 0.290551 0.438863
  C 3.233951 0.523301 1.698842
  C 2.416898 0.860489 2.940031
  H 3.089141 0.998800 3.781494
  C 3.116784 -0.039016 -0.770604
  C 4.449733 -0.361677 -1.290900
  C 5.225102 -0.769945 -2.275271
  C 4.737292 -1.442588 -3.539129
  C 3.232437 -1.613926 -3.686790
  C 2.903584 -2.297756 -5.008408
  O 6.565085 -0.674882 -2.273614
  H 0.554511 0.653665 1.346343
  H 0.534518 -0.536940 0.049932
  H 0.674197 1.167023 -0.327872
  H 3.949069 1.339671 1.542147
  H 3.821631 -0.378045 1.914724
  H 1.730899 0.060848 3.194506
  H 1.859023 1.783002 2.811086
  H 2.367983 -0.156573 -1.563785
  H 4.016282 0.066659 -0.232232
  H 5.232727 -2.414188 -3.598898
  H 5.124156 -0.838537 -4.362747
  H 2.749146 -0.639584 -3.669964
  H 2.847741 -2.222023 -2.870664
  H 3.264558 -1.709646 -5.849814
  H 1.829175 -2.418982 -5.116349
  H 3.362403 -3.281405 -5.058698
  H 6.921675 -0.243526 -1.480852
 29
 107.272738
  C 1.005617 0.521448 0.333400
  C 2.476771 0.355569 0.442521
  C 3.207880 0.463764 1.750441
  C 2.344993 0.720717 2.981282
  H 2.983579 0.770874 3.857072
  C 3.183998 0.098278 -0.769550
  C 4.483396 -0.291394 -1.355722
  C 5.242590 -0.713220 -2.342951
  C 4.733031 -1.451536 -3.562096
  C 3.231431 -1.645785 -3.650581
  C 2.867305 -2.410435 -4.926435
  O 6.580494 -0.598767 -2.379975
  H 0.549014 0.709929 1.296930
  H 0.550660 -0.371763 -0.095030
  H 0.759517 1.352288 -0.326738
  H 3.950560 1.277272 1.693163
  H 3.767060 -0.471214 1.918846
  H 1.626664 -0.082323 3.141202
  H 1.812078 1.669859 2.907150
  H 2.471584 0.045961 -1.599310
  H 4.054237 0.172400 -0.232637
  H 5.242631 -2.418504 -3.584510
  H 5.088949 -0.883644 -4.424211
  H 2.734753 -0.673321 -3.675216
  H 2.878629 -2.210531 -2.785261
  H 3.196019 -1.866782 -5.812521
  H 1.789046 -2.548842 -4.994023
  H 3.336692 -3.393226 -4.936602
  H 6.953359 -0.130455 -1.611710
 29
 111.952413
  C 1.028736 0.603986 0.305802
  C 2.486840 0.393820 0.443521
  C 3.191160 0.410967 1.774144
  C 2.303579 0.616595 2.996225
  H 2.918996 0.602440 3.889993
  C 3.215037 0.183488 -0.779044
  C 4.482441 -0.248463 -1.400669
  C 5.239827 -0.680881 -2.382959
  C 4.726461 -1.462850 -3.563932
  C 3.224337 -1.671040 -3.621442
  C 2.849929 -2.481241 -4.848735
  O 6.581437 -0.553252 -2.436382
  H 0.557545 0.749372 1.256029
  H 0.563170 -0.249281 -0.184078
  H 0.821228 1.472538 -0.309987
  H 3.949437 1.206839 1.782925
  H 3.727189 -0.542322 1.900978
  H 1.571560 -0.170161 3.090441
  H 1.795617 1.573428 2.963973
  H 2.514740 0.171442 -1.621205
  H 4.040476 0.247289 -0.217749
  H 5.241055 -2.421658 -3.560594
  H 5.063920 -0.925344 -4.445796
  H 2.723209 -0.710510 -3.676860
  H 2.891596 -2.197926 -2.734490
  H 3.161335 -1.971412 -5.758656
  H 1.776713 -2.628810 -4.893777
  H 3.324530 -3.455719 -4.826267
  H 6.955905 -0.058426 -1.688580
 29
 116.060549
  C 1.044186 0.680321 0.308485
  C 2.492428 0.439967 0.459437
  C 3.175294 0.370795 1.787824
  C 2.268105 0.509268 3.008820
  H 2.868559 0.434783 3.909337
  C 3.245964 0.283071 -0.794381
  C 4.491906 -0.192601 -1.437906
  C 5.248984 -0.643796 -2.404557
  C 4.728401 -1.483349 -3.562079
  C 3.213695 -1.690900 -3.606584
  C 2.826002 -2.568459 -4.803366
  O 6.591146 -0.520341 -2.460281
  H 0.550434 0.781484 1.275170
  H 0.573980 -0.139637 -0.240516
  H 0.859360 1.588571 -0.262373
  H 3.935426 1.154330 1.858063
  H 3.700661 -0.586282 1.863834
  H 1.525274 -0.278784 3.042916
  H 1.766124 1.474542 3.027541
  H 2.559935 0.286300 -1.642253
  H 4.026471 0.348443 -0.194563
  H 5.241915 -2.446495 -3.520018
  H 5.066251 -0.981760 -4.470182
  H 2.712632 -0.725192 -3.706954
  H 2.879593 -2.174556 -2.686762
  H 3.137703 -2.103531 -5.744799
  H 1.745195 -2.714525 -4.837721
  H 3.298573 -3.548806 -4.734847
  H 6.962312 -0.007738 -1.728354
 29
 118.424348
  C 1.061622 0.780276 0.280549
  C 2.498193 0.488315 0.445176
  C 3.160335 0.290279 1.772999
  C 2.235382 0.337314 2.984019
  H 2.818855 0.171401 3.884509
  C 3.274420 0.420030 -0.829559
  C 4.485721 -0.109116 -1.484248
  C 5.239276 -0.588090 -2.439033
  C 4.711649 -1.498287 -3.531340
  C 3.203531 -1.701160 -3.548139
  C 2.805343 -2.655292 -4.669742
  O 6.586677 -0.487396 -2.504238
  H 0.553332 0.813597 1.229215
  H 0.587505 0.026268 -0.344885
  H 0.910879 1.736804 -0.214722
  H 3.935011 1.052159 1.928331
  H 3.671072 -0.682786 1.772154
  H 1.477769 -0.436420 2.934825
  H 1.752232 1.305599 3.079722
  H 2.619393 0.442331 -1.696084
  H 3.996262 0.486208 -0.178084
  H 5.222393 -2.456766 -3.430612
  H 5.043192 -1.056523 -4.471126
  H 2.704845 -0.744861 -3.713060
  H 2.875374 -2.116139 -2.594609
  H 3.109517 -2.262208 -5.638722
  H 1.728246 -2.797696 -4.684695
  H 3.273866 -3.627024 -4.535356
  H 6.964399 0.060437 -1.799646
 29
 119.711269
  C 1.083840 0.851207 0.258990
  C 2.507930 0.515991 0.437071
  C 3.141978 0.206191 1.748951
  C 2.188541 0.165980 2.941285
  H 2.748494 -0.078776 3.836688
  C 3.321042 0.549783 -0.860288
  C 4.507178 -0.036760 -1.513407
  C 5.251016 -0.552469 -2.453099
  C 4.699616 -1.522868 -3.487280
  C 3.187863 -1.716481 -3.464973
  C 2.758237 -2.730144 -4.525313
  O 6.597083 -0.463266 -2.542866
  H 0.547254 0.821037 1.200966
  H 0.613604 0.156907 -0.442482
  H 0.961828 1.847692 -0.164574
  H 3.919501 0.943116 1.984371
  H 3.644812 -0.765187 1.678805
  H 1.420837 -0.594913 2.812136
  H 1.712513 1.132502 3.104553
  H 2.738047 0.578655 -1.770825
  H 3.983153 0.642581 -0.157210
  H 5.209538 -2.478871 -3.342584
  H 5.015956 -1.133708 -4.456872
  H 2.691279 -0.766858 -3.674631
  H 2.877369 -2.073496 -2.482222
  H 3.045339 -2.393680 -5.521059
  H 1.680700 -2.863031 -4.510359
  H 3.220676 -3.695943 -4.348002
  H 6.983875 0.124304 -1.876205
