 16
 0.000000
  C 1.023062 0.132207 0.382493
  C 2.489264 0.133181 0.383353
  C 3.229729 0.604130 1.554553
  H 2.575175 0.927032 2.359032
  C 3.131898 -0.330790 -0.772193
  C 4.524034 -0.400820 -0.948580
  C 5.115933 -0.855550 -2.082026
  H 4.570553 -1.203161 -2.947737
  H 6.190337 -0.890229 -2.169388
  H 0.606518 0.508340 1.312503
  H 0.643352 -0.876924 0.205139
  H 0.645145 0.740571 -0.442761
  H 3.891000 1.428752 1.277909
  H 3.891923 -0.181947 1.925135
  H 2.506411 -0.660855 -1.592897
  H 5.154240 -0.072947 -0.132653
 16
 18.188150
  C 1.168929 0.181765 0.296520
  C 2.734814 0.218585 0.396027
  C 3.165553 0.630892 1.709069
  H 2.322561 0.755022 2.383286
  C 3.284647 -0.357846 -0.731802
  C 4.651463 -0.408162 -1.050296
  C 5.079978 -0.914957 -2.240373
  H 4.372728 -1.276662 -2.956104
  H 6.127500 -0.954305 -2.491303
  H 0.720601 0.568785 1.198087
  H 0.969378 -0.874471 0.162644
  H 0.943464 0.771318 -0.578967
  H 3.635406 1.615238 1.666784
  H 3.849221 -0.086138 2.153641
  H 2.612204 -0.765123 -1.478996
  H 5.358291 -0.039158 -0.315752
 16
 68.403543
  C 0.841345 0.178282 0.313271
  C 3.025418 0.216790 0.411126
  C 3.221598 0.656809 1.753976
  H 2.280758 0.758346 2.292150
  C 3.398555 -0.358551 -0.697588
  C 4.787724 -0.436556 -1.133553
  C 5.135277 -0.926793 -2.312337
  H 4.418449 -1.276509 -3.035081
  H 6.171599 -0.992396 -2.595407
  H 0.491092 0.590940 1.239399
  H 0.785288 -0.886538 0.192499
  H 0.774486 0.803076 -0.557094
  H 3.671421 1.654096 1.765540
  H 3.824011 -0.062879 2.313186
  H 2.681463 -0.761638 -1.399053
  H 5.525308 -0.084285 -0.428573
 16
 84.814249
  C 0.429250 0.185564 0.351020
  C 3.269721 0.223925 0.437785
  C 3.341249 0.667074 1.766858
  H 2.345134 0.737196 2.208259
  C 3.575923 -0.331773 -0.676874
  C 4.954230 -0.463299 -1.173546
  C 5.234120 -0.955103 -2.369848
  H 4.476924 -1.280451 -3.062702
  H 6.254949 -1.041299 -2.699164
  H 0.086501 0.598520 1.278915
  H 0.422651 -0.879110 0.234283
  H 0.434064 0.817371 -0.513830
  H 3.759963 1.675901 1.822468
  H 3.901079 -0.041565 2.382631
  H 2.816357 -0.692298 -1.359473
  H 5.727499 -0.143696 -0.493356
 16
 87.981725
  C 0.115615 0.204263 0.415788
  C 3.441248 0.210669 0.448134
  C 3.406753 0.665262 1.761569
  H 2.366697 0.718549 2.101683
  C 3.714462 -0.322312 -0.678634
  C 5.078803 -0.486795 -1.208246
  C 5.317616 -0.972649 -2.416054
  H 4.537033 -1.274568 -3.093228
  H 6.328679 -1.077029 -2.769468
  H -0.211150 0.614202 1.348604
  H 0.155567 -0.857803 0.298860
  H 0.186241 0.845087 -0.437093
  H 3.793727 1.684617 1.845240
  H 3.908315 -0.033241 2.436662
  H 2.931212 -0.653600 -1.351382
  H 5.871109 -0.191506 -0.539718
 16
 87.857204
  C -0.236961 0.234091 0.500094
  C 3.568104 0.186881 0.438474
  C 3.479821 0.648989 1.740833
  H 2.414335 0.694412 2.017333
  C 3.830508 -0.322379 -0.700601
  C 5.190660 -0.505806 -1.232581
  C 5.421336 -0.984643 -2.445033
  H 4.635821 -1.270648 -3.123285
  H 6.430615 -1.099627 -2.800216
  H -0.549160 0.639789 1.438972
  H -0.176438 -0.826178 0.378243
  H -0.128078 0.882069 -0.342928
  H 3.851830 1.671946 1.839543
  H 3.941915 -0.044153 2.448246
  H 3.038767 -0.629402 -1.375953
  H 5.985651 -0.225868 -0.560628
 16
 87.930075
  C -0.630163 0.259877 0.556399
  C 3.657165 0.161785 0.431524
  C 3.570207 0.624044 1.735447
  H 2.505413 0.677430 2.008175
  C 3.909422 -0.325928 -0.719493
  C 5.270168 -0.518027 -1.245846
  C 5.504252 -0.988419 -2.460813
  H 4.720030 -1.261761 -3.145780
  H 6.514563 -1.109557 -2.810932
  H -0.942347 0.658643 1.497912
  H -0.560307 -0.798836 0.426933
  H -0.495852 0.914892 -0.277486
  H 3.950685 1.643283 1.837209
  H 4.021738 -0.074280 2.444463
  H 3.114928 -0.613036 -1.399924
  H 6.062260 -0.248858 -0.565973
 16
 87.944420
  C -0.986505 0.287193 0.636890
  C 3.781168 0.143095 0.417164
  C 3.723192 0.615529 1.719585
  H 2.664689 0.681839 2.011170
  C 4.011213 -0.325914 -0.746366
  C 5.367099 -0.530627 -1.279594
  C 5.591697 -1.001709 -2.496045
  H 4.801262 -1.266710 -3.177202
  H 6.598900 -1.132490 -2.851452
  H -1.297990 0.686101 1.578432
  H -0.910804 -0.771226 0.508436
  H -0.842303 0.941983 -0.195502
  H 4.117618 1.630581 1.807875
  H 4.178316 -0.083531 2.425610
  H 3.207288 -0.596726 -1.421949
  H 6.164370 -0.267317 -0.603407
 16
 87.845024
  C -1.327316 0.342438 0.698523
  C 3.906634 0.123901 0.412098
  C 3.875149 0.621308 1.705920
  H 2.822508 0.709417 2.012065
  C 4.114307 -0.330839 -0.761344
  C 5.461529 -0.565604 -1.302935
  C 5.667507 -1.050736 -2.517163
  H 4.866083 -1.306477 -3.189029
  H 6.668684 -1.203771 -2.880487
  H -1.643160 0.752896 1.633525
  H -1.251888 -0.717443 0.582950
  H -1.169058 0.987295 -0.139001
  H 4.288892 1.630355 1.769827
  H 4.327928 -0.072807 2.418445
  H 3.298147 -0.582474 -1.429647
  H 6.269590 -0.309858 -0.636701
 16
 87.706641
  C -1.646290 0.362824 0.812802
  C 4.034563 0.110249 0.400648
  C 4.023961 0.628716 1.686620
  H 2.975804 0.724973 2.006986
  C 4.220311 -0.328119 -0.784792
  C 5.551394 -0.576005 -1.353656
  C 5.724201 -1.074181 -2.567891
  H 4.904456 -1.330125 -3.217372
  H 6.714792 -1.239789 -2.954156
  H -1.959670 0.783365 1.744086
  H -1.564125 -0.697936 0.710659
  H -1.490809 0.997799 -0.032684
  H 4.445426 1.635734 1.728615
  H 4.482817 -0.057100 2.403986
  H 3.388223 -0.569302 -1.437971
  H 6.378341 -0.320122 -0.710906
 16
 87.755718
  C -1.973570 0.395575 0.952806
  C 4.160556 0.089748 0.373250
  C 4.142990 0.635067 1.647582
  H 3.093641 0.721041 1.966489
  C 4.329254 -0.320172 -0.822585
  C 5.651165 -0.585820 -1.403757
  C 5.802235 -1.110086 -2.612286
  H 4.970647 -1.378771 -3.241564
  H 6.785329 -1.288424 -3.010790
  H -2.279273 0.831693 1.879297
  H -1.889202 -0.666648 0.869388
  H -1.828914 1.015079 0.094114
  H 4.554160 1.647031 1.667718
  H 4.609797 -0.029750 2.378548
  H 3.485689 -0.550771 -1.466399
  H 6.488827 -0.318899 -0.779959
 16
 88.011079
  C -2.337668 0.465815 1.116228
  C 4.254689 0.056956 0.314290
  C 4.215387 0.601874 1.588833
  H 3.161482 0.662775 1.898920
  C 4.433361 -0.326705 -0.889579
  C 5.772104 -0.580398 -1.447876
  C 5.945927 -1.131124 -2.640935
  H 5.126627 -1.431704 -3.271056
  H 6.937473 -1.306169 -3.021540
  H -2.621393 0.917537 2.042441
  H -2.256406 -0.597601 1.048634
  H -2.212112 1.071258 0.244628
  H 4.609535 1.619706 1.612719
  H 4.688168 -0.054227 2.324909
  H 3.604997 -0.556876 -1.548946
  H 6.597428 -0.285345 -0.820635
 16
 89.113973
  C -2.729067 0.567918 1.376440
  C 4.263147 0.009454 0.161894
  C 4.263204 0.549020 1.440688
  H 3.220607 0.577227 1.791311
  C 4.475802 -0.358178 -1.041913
  C 5.877560 -0.559030 -1.470324
  C 6.186395 -1.158762 -2.614624
  H 5.442174 -1.544242 -3.289596
  H 7.217588 -1.292032 -2.896021
  H -2.960141 1.047034 2.303794
  H -2.662112 -0.497709 1.336138
  H -2.668092 1.147430 0.480581
  H 4.634967 1.575205 1.455474
  H 4.782250 -0.098666 2.153102
  H 3.712056 -0.619479 -1.757868
  H 6.619690 -0.176173 -0.788976
 16
 90.957361
  C -3.036839 0.655858 1.649735
  C 4.224171 0.004610 -0.038978
  C 4.288289 0.591242 1.215400
  H 3.272930 0.577624 1.636874
  C 4.472744 -0.448771 -1.203330
  C 5.930995 -0.555555 -1.481010
  C 6.400684 -1.249657 -2.491901
  H 5.764014 -1.795555 -3.166075
  H 7.461446 -1.303960 -2.657545
  H -3.206257 1.218949 2.542783
  H -2.966069 -0.409214 1.707735
  H -3.081227 1.145712 0.701175
  H 4.607674 1.634044 1.170091
  H 4.891113 -0.003324 1.906658
  H 3.787823 -0.827388 -1.942759
  H 6.550661 -0.003570 -0.794921
 16
 93.245063
  C -3.267693 0.715451 1.773724
  C 4.224474 0.002066 -0.117967
  C 4.273423 0.514087 1.153394
  H 3.264466 0.475497 1.574876
  C 4.504903 -0.420603 -1.275819
  C 5.967748 -0.511293 -1.489270
  C 6.469615 -1.220137 -2.429594
  H 5.865101 -1.809283 -3.095212
  H 7.528799 -1.265611 -2.564954
  H -3.407600 1.258796 2.685000
  H -3.201621 -0.353434 1.807780
  H -3.330302 1.227611 0.841711
  H 4.582158 1.563201 1.167650
  H 4.881604 -0.120374 1.800143
  H 3.857154 -0.799422 -2.055220
  H 6.560583 0.081017 -0.808540
