14

H -1.4818028837195136 0.3916568074956096 2.062619112183575
C -2.048855 0.510742 1.16308
C -2.627518 1.923286 1.079223
C -1.208123 0.214811 -0.059687
O -0.010043 0.005414 0.00549
H -1.7097799049266833 0.18951394437870245 -1.0044623218179833
H -2.867201 -0.217972 1.174665
H -1.835446 2.665167 0.99567
H -3.214156 2.148345 1.966411
H -3.278993 2.037078 0.214689
O 3.359291 0.174136 0.039409
H 3.577813 0.852148 0.713228
H 2.393171 0.004581 0.003832
H 3.860932 -0.655132 0.189434
