 22
 0.000000
  C 1.010536 0.163837 0.444523
  C 2.471656 0.148840 0.381175
  H 3.061104 0.451367 1.233920
  C 3.071459 -0.274635 -0.779335
  C 4.448837 -0.387495 -1.012392
  C 5.092067 -0.864470 -2.131962
  C 4.605206 -1.396506 -3.406346
  C 3.121805 -1.511907 -3.721061
  C 2.913261 -2.099399 -5.115054
  H 6.174189 -0.859308 -2.088674
  H 0.626024 0.492035 1.404500
  H 0.620007 -0.835031 0.218453
  H 0.611133 0.811476 -0.339405
  H 2.396139 -0.568809 -1.569200
  H 5.089160 -0.056887 -0.201804
  H 5.070492 -2.386683 -3.521165
  H 5.089447 -0.797299 -4.191574
  H 2.652578 -0.527244 -3.690445
  H 2.633368 -2.165690 -2.996677
  H 3.366100 -1.470065 -5.877630
  H 1.851859 -2.179967 -5.335076
  H 3.347061 -3.093867 -5.190413
 22
 -1.082205
  C 1.003341 0.222134 0.568651
  C 2.440712 0.143169 0.349579
  H 3.103651 0.399964 1.165291
  C 2.980707 -0.276085 -0.843398
  C 4.368689 -0.403494 -1.025279
  C 5.053471 -0.869979 -2.127849
  C 4.607773 -1.388386 -3.417184
  C 3.132921 -1.499751 -3.777091
  C 2.961741 -2.094422 -5.174233
  H 6.132783 -0.865782 -2.033448
  H 0.746608 0.746724 1.486824
  H 0.602133 -0.794877 0.632255
  H 0.496368 0.663295 -0.287024
  H 2.304787 -0.527808 -1.643177
  H 4.977975 -0.096702 -0.184114
  H 5.083622 -2.372617 -3.536763
  H 5.122637 -0.794543 -4.183456
  H 2.668743 -0.513071 -3.763399
  H 2.619163 -2.146490 -3.059140
  H 3.441481 -1.469526 -5.929152
  H 1.904690 -2.171828 -5.426205
  H 3.393830 -3.093536 -5.231566
 22
 0.092117
  C 1.004381 0.273905 0.566635
  C 2.432921 0.202467 0.316776
  H 3.102955 0.490803 1.117346
  C 2.966105 -0.301771 -0.847403
  C 4.351183 -0.480770 -1.006260
  C 5.041281 -0.920989 -2.112501
  C 4.604913 -1.393777 -3.425066
  C 3.134071 -1.509968 -3.785584
  C 2.969248 -2.048944 -5.205607
  H 6.122053 -0.909895 -2.013138
  H 0.715047 0.999293 1.316007
  H 0.861238 -0.730356 1.020611
  H 0.392058 0.285012 -0.329998
  H 2.294493 -0.561325 -1.646186
  H 4.954530 -0.229154 -0.141749
  H 5.087786 -2.366765 -3.575918
  H 5.111151 -0.760651 -4.168904
  H 2.656592 -0.530039 -3.731623
  H 2.632334 -2.191816 -3.094708
  H 3.438151 -1.389525 -5.931956
  H 1.911982 -2.132996 -5.460080
  H 3.413916 -3.034656 -5.303193
 22
 10.884565
  C 1.012361 0.270995 0.584144
  C 2.425279 0.210213 0.313013
  H 3.123684 0.538848 1.088814
  C 2.939470 -0.198702 -0.897046
  C 4.308224 -0.410221 -1.033621
  C 5.010292 -0.910601 -2.099187
  C 4.615888 -1.417398 -3.400819
  C 3.137420 -1.424706 -3.833053
  C 2.947954 -2.079784 -5.200951
  H 6.075303 -0.950655 -1.960869
  H 0.668959 0.755432 1.487671
  H 1.212515 -0.846247 0.831786
  H 0.333997 0.246434 -0.258601
  H 2.268115 -0.428977 -1.696525
  H 4.909793 -0.142524 -0.168715
  H 5.030076 -2.457905 -3.476899
  H 5.194408 -0.863315 -4.132652
  H 2.783076 -0.404405 -3.890884
  H 2.553885 -1.980630 -3.085418
  H 3.515359 -1.559220 -5.958413
  H 1.904444 -2.081107 -5.479539
  H 3.288485 -3.120395 -5.202209
 22
 25.096210
  C 0.987399 0.437910 0.569397
  C 2.358103 0.134726 0.348090
  H 3.080944 0.453472 1.096068
  C 2.904216 -0.342042 -0.860127
  C 4.282106 -0.486469 -1.007150
  C 4.998441 -0.901005 -2.103264
  C 4.594518 -1.391812 -3.434895
  C 3.123418 -1.479437 -3.820414
  C 2.974955 -2.072098 -5.216048
  H 6.073377 -0.948437 -1.962223
  H 0.663903 0.964194 1.446833
  H 1.523654 -0.703560 0.909952
  H 0.268488 0.282992 -0.223675
  H 2.234672 -0.533781 -1.684014
  H 4.877020 -0.237455 -0.133275
  H 5.050484 -2.384062 -3.553646
  H 5.117992 -0.768046 -4.172889
  H 2.678962 -0.484990 -3.819737
  H 2.591957 -2.118192 -3.116657
  H 3.503184 -1.473371 -5.951392
  H 1.930274 -2.111201 -5.503375
  H 3.371363 -3.080898 -5.252575
 22
 30.743791
  C 0.972211 0.492455 0.522265
  C 2.341674 0.108958 0.388577
  H 3.049570 0.515198 1.108711
  C 2.913941 -0.346551 -0.855021
  C 4.286468 -0.493480 -1.001540
  C 4.995970 -0.936773 -2.091616
  C 4.585510 -1.419944 -3.421827
  C 3.112028 -1.503091 -3.801732
  C 2.958784 -2.052875 -5.216720
  H 6.072378 -0.944039 -1.970672
  H 0.621200 0.998232 1.403829
  H 1.891835 -0.848263 0.833232
  H 0.263869 0.280093 -0.260431
  H 2.238230 -0.591181 -1.655717
  H 4.887092 -0.209079 -0.144253
  H 5.039719 -2.411863 -3.547889
  H 5.106422 -0.793262 -4.158526
  H 2.662158 -0.510579 -3.767039
  H 2.587829 -2.167992 -3.115048
  H 3.458942 -1.412181 -5.938855
  H 1.908897 -2.112915 -5.490759
  H 3.385119 -3.050324 -5.294850
 22
 31.018072
  C 0.961985 0.508457 0.501909
  C 2.322855 0.091454 0.424005
  H 3.008965 0.521924 1.151715
  C 2.918153 -0.355727 -0.838594
  C 4.288192 -0.500116 -0.985780
  C 4.988222 -0.937203 -2.084048
  C 4.569431 -1.412547 -3.410327
  C 3.095023 -1.501642 -3.784885
  C 2.939941 -2.040970 -5.206166
  H 6.066048 -0.934301 -1.974106
  H 0.601577 1.065933 1.346941
  H 2.193114 -0.999251 0.688363
  H 0.263622 0.265234 -0.284511
  H 2.243501 -0.573244 -1.648676
  H 4.890653 -0.217660 -0.132878
  H 5.029278 -2.399594 -3.544538
  H 5.084482 -0.782698 -4.145298
  H 2.637685 -0.510337 -3.741474
  H 2.575507 -2.176597 -3.102124
  H 3.438712 -1.392347 -5.926412
  H 1.888339 -2.100364 -5.478660
  H 3.367080 -3.038453 -5.293403
 22
 33.618814
  C 0.961566 0.509655 0.515315
  C 2.304095 0.153232 0.415500
  H 2.984925 0.544180 1.165134
  C 2.900095 -0.365042 -0.825207
  C 4.285526 -0.504514 -0.973773
  C 4.983376 -0.941100 -2.064784
  C 4.566247 -1.417478 -3.396392
  C 3.090943 -1.502562 -3.773210
  C 2.937006 -2.034002 -5.195428
  H 6.060214 -0.941517 -1.953925
  H 0.599350 1.076951 1.352725
  H 2.377071 -1.028152 0.388473
  H 0.251344 0.241490 -0.246497
  H 2.231954 -0.563446 -1.647212
  H 4.883983 -0.215998 -0.117224
  H 5.024038 -2.406388 -3.530349
  H 5.083417 -0.784310 -4.131453
  H 2.635681 -0.512538 -3.727018
  H 2.569627 -2.180286 -3.096451
  H 3.439905 -1.386296 -5.909602
  H 1.887344 -2.086445 -5.471021
  H 3.358714 -3.031310 -5.285994
 22
 30.830895
  C 0.978400 0.547137 0.515078
  C 2.292871 0.209393 0.406538
  H 2.988720 0.592912 1.143830
  C 2.875491 -0.436936 -0.788418
  C 4.281779 -0.548391 -0.954868
  C 4.978750 -0.948908 -2.054301
  C 4.561069 -1.410070 -3.390331
  C 3.086352 -1.512527 -3.760085
  C 2.931688 -2.021850 -5.191205
  H 6.056859 -0.930947 -1.951212
  H 0.626415 1.136239 1.342627
  H 2.506044 -1.095104 0.201396
  H 0.247273 0.245566 -0.215918
  H 2.206498 -0.630732 -1.612883
  H 4.876676 -0.260419 -0.096534
  H 5.033838 -2.389256 -3.544191
  H 5.064210 -0.758750 -4.117027
  H 2.615504 -0.530472 -3.693715
  H 2.579230 -2.210595 -3.092622
  H 3.418001 -1.352744 -5.897936
  H 1.880412 -2.088316 -5.460440
  H 3.370562 -3.011092 -5.302617
 22
 22.495028
  C 1.006263 0.607973 0.462018
  C 2.300765 0.279524 0.388792
  H 3.007836 0.669896 1.106750
  C 2.849466 -0.542632 -0.728621
  C 4.276114 -0.606947 -0.921675
  C 4.973664 -0.950693 -2.041335
  C 4.552712 -1.385692 -3.381477
  C 3.080720 -1.528441 -3.740057
  C 2.925375 -2.003157 -5.182868
  H 6.052161 -0.897821 -1.950518
  H 0.637435 1.252877 1.240033
  H 2.579959 -1.303537 0.075059
  H 0.283033 0.254239 -0.253433
  H 2.184417 -0.704819 -1.565705
  H 4.867876 -0.325909 -0.058889
  H 5.058535 -2.343226 -3.570457
  H 5.030787 -0.702096 -4.096885
  H 2.577423 -0.564895 -3.641970
  H 2.602918 -2.258350 -3.085382
  H 3.378923 -1.299184 -5.877132
  H 1.873551 -2.097827 -5.440777
  H 3.394798 -2.973732 -5.327739
 22
 15.612576
  C 1.029379 0.608949 0.504497
  C 2.323894 0.303845 0.395528
  H 3.040712 0.652909 1.124501
  C 2.828604 -0.539509 -0.721889
  C 4.269223 -0.606978 -0.909604
  C 4.968352 -0.937895 -2.031441
  C 4.542314 -1.363912 -3.369836
  C 3.074226 -1.539295 -3.717651
  C 2.910224 -2.021387 -5.156314
  H 6.046971 -0.883768 -1.941263
  H 0.655707 1.227607 1.301351
  H 2.527643 -1.473309 -0.193904
  H 0.300515 0.262310 -0.209672
  H 2.212773 -0.509959 -1.616229
  H 4.855657 -0.349618 -0.036103
  H 5.069506 -2.308009 -3.574880
  H 5.007030 -0.671318 -4.086713
  H 2.551249 -0.585072 -3.618873
  H 2.611922 -2.268986 -3.051451
  H 3.338773 -1.311196 -5.859874
  H 1.857245 -2.139088 -5.398994
  H 3.396710 -2.982696 -5.305179
 22
 13.174457
  C 1.032872 0.561596 0.567694
  C 2.331437 0.296494 0.403254
  H 3.055347 0.615114 1.139296
  C 2.817425 -0.485125 -0.760035
  C 4.268102 -0.592245 -0.906451
  C 4.975915 -0.933432 -2.018290
  C 4.546413 -1.366143 -3.353272
  C 3.078103 -1.540814 -3.692392
  C 2.897964 -2.054554 -5.116974
  H 6.054262 -0.893806 -1.920497
  H 0.662285 1.119784 1.408994
  H 2.424020 -1.495119 -0.535803
  H 0.294967 0.239684 -0.149113
  H 2.297786 -0.217188 -1.683805
  H 4.841881 -0.357202 -0.018791
  H 5.069074 -2.315250 -3.550282
  H 5.017849 -0.689797 -4.081511
  H 2.559732 -0.581066 -3.611652
  H 2.609125 -2.244029 -3.002239
  H 3.330497 -1.368038 -5.841172
  H 1.841865 -2.164664 -5.349126
  H 3.370529 -3.025595 -5.246316
 22
 13.138225
  C 1.020607 0.427150 0.636827
  C 2.335981 0.303631 0.403795
  H 3.056652 0.618325 1.144820
  C 2.830938 -0.355687 -0.825002
  C 4.278861 -0.540792 -0.923824
  C 4.994605 -0.924516 -2.027362
  C 4.556664 -1.391230 -3.351328
  C 3.083572 -1.501297 -3.695996
  C 2.880785 -2.097016 -5.084586
  H 6.073532 -0.913285 -1.921776
  H 0.632386 0.844951 1.548996
  H 2.323421 -1.337629 -0.827252
  H 0.285285 0.124272 -0.092071
  H 2.416868 0.117480 -1.724384
  H 4.843591 -0.325169 -0.025069
  H 5.028068 -2.375593 -3.499840
  H 5.071431 -0.775562 -4.103548
  H 2.620838 -0.510400 -3.677809
  H 2.566559 -2.127336 -2.966000
  H 3.360977 -1.489628 -5.848329
  H 1.821528 -2.155613 -5.320474
  H 3.291979 -3.102852 -5.144552
 22
 12.207209
  C 1.019322 0.433878 0.629622
  C 2.326301 0.265995 0.406800
  H 3.048124 0.583312 1.145102
  C 2.831383 -0.370620 -0.830414
  C 4.283305 -0.517975 -0.934981
  C 4.993364 -0.935409 -2.018071
  C 4.554532 -1.402072 -3.338312
  C 3.081986 -1.513807 -3.681026
  C 2.877899 -2.086762 -5.078756
  H 6.070957 -0.938472 -1.907934
  H 0.648552 0.887774 1.531721
  H 2.349786 -1.360919 -0.903289
  H 0.275521 0.121642 -0.085797
  H 2.421571 0.137349 -1.715939
  H 4.850412 -0.253086 -0.052026
  H 5.034430 -2.379525 -3.499162
  H 5.061416 -0.775499 -4.087271
  H 2.610348 -0.527706 -3.641931
  H 2.570997 -2.156000 -2.959797
  H 3.352626 -1.464016 -5.833641
  H 1.817849 -2.146735 -5.312547
  H 3.294445 -3.089145 -5.157114
