 16
 0.000000
  C 0.981255 0.052269 0.194259
  C 2.484154 0.053753 0.151625
  C 3.213012 -0.017819 1.458985
  H 2.518193 -0.060283 2.293071
  C 3.120734 0.120121 -1.027938
  H 2.530079 0.169395 -1.934308
  C 4.548904 0.132571 -1.220571
  C 5.123952 0.199968 -2.418727
  H 6.191795 0.208524 -2.540654
  H 0.612051 -0.021584 1.213662
  H 0.582244 -0.787480 -0.373389
  H 0.581038 0.966377 -0.246169
  H 3.852141 0.852981 1.590994
  H 3.847560 -0.901077 1.497241
  H 5.167942 0.084327 -0.335026
  H 4.541468 0.249250 -3.322486
 16
 3.966032
  C 0.982262 0.016911 0.201418
  C 2.461585 0.049667 0.152070
  C 3.202941 -0.015424 1.460697
  H 2.512191 -0.038235 2.297548
  C 3.099424 0.114985 -1.026546
  H 2.508814 0.154114 -1.934632
  C 4.529610 0.144376 -1.218768
  C 5.105171 0.209696 -2.416675
  H 6.174382 0.226815 -2.536871
  H 0.579778 -0.018857 1.203273
  H 0.554303 -0.787424 -0.386961
  H 0.797280 0.952228 -0.260812
  H 3.855608 0.847198 1.581190
  H 3.823673 -0.908516 1.507432
  H 5.147648 0.107821 -0.332467
  H 4.521521 0.246800 -3.321828
 16
 11.317082
  C 0.964864 -0.013775 0.206817
  C 2.449680 0.031025 0.155329
  C 3.200752 -0.015616 1.457168
  H 2.513117 0.000674 2.301058
  C 3.086572 0.093864 -1.022801
  H 2.494567 0.104589 -1.935475
  C 4.516229 0.161424 -1.215974
  C 5.089140 0.221641 -2.412547
  H 6.159293 0.266651 -2.532791
  H 0.540604 -0.026968 1.199416
  H 0.506905 -0.761398 -0.436328
  H 0.990987 0.955973 -0.237871
  H 3.879621 0.833738 1.552249
  H 3.795540 -0.927874 1.521080
  H 5.137360 0.156381 -0.327811
  H 4.505128 0.225840 -3.318005
 16
 21.694388
  C 0.950167 -0.034927 0.221425
  C 2.442867 0.030785 0.152407
  C 3.188757 -0.007088 1.441235
  H 2.499442 0.022881 2.286890
  C 3.080999 0.092640 -1.028221
  H 2.489372 0.095244 -1.942636
  C 4.511109 0.168470 -1.218049
  C 5.087816 0.226755 -2.412432
  H 6.154138 0.277293 -2.528388
  H 0.519724 -0.041797 1.214933
  H 0.471904 -0.746817 -0.445685
  H 1.132348 0.928964 -0.201121
  H 3.873701 0.833358 1.527735
  H 3.771990 -0.922315 1.509651
  H 5.131077 0.171100 -0.326021
  H 4.509679 0.222746 -3.316267
 16
 31.555281
  C 0.935219 -0.056596 0.221142
  C 2.430635 0.031272 0.144812
  C 3.187600 0.001199 1.449205
  H 2.506298 0.048508 2.291402
  C 3.071824 0.089161 -1.036288
  H 2.485759 0.076357 -1.946925
  C 4.499385 0.177470 -1.220833
  C 5.084370 0.229913 -2.416491
  H 6.152656 0.286983 -2.526818
  H 0.496671 -0.079000 1.205359
  H 0.444439 -0.713310 -0.476649
  H 1.248799 0.921534 -0.164283
  H 3.884521 0.831762 1.526728
  H 3.758398 -0.921441 1.526641
  H 5.111515 0.193267 -0.331169
  H 4.508838 0.212430 -3.327564
 16
 39.866286
  C 0.930289 -0.076250 0.229854
  C 2.425329 0.033367 0.140689
  C 3.175739 0.013174 1.440543
  H 2.487855 0.068512 2.286768
  C 3.076382 0.086685 -1.043146
  H 2.490809 0.062123 -1.957284
  C 4.491468 0.182181 -1.223554
  C 5.079864 0.229643 -2.419076
  H 6.149971 0.290413 -2.526243
  H 0.500772 -0.117812 1.212125
  H 0.427428 -0.673550 -0.511988
  H 1.339932 0.906767 -0.099448
  H 3.880273 0.845331 1.514690
  H 3.739961 -0.916661 1.521097
  H 5.105570 0.207176 -0.330499
  H 4.506791 0.202340 -3.331820
 16
 45.457462
  C 0.922030 -0.095655 0.233787
  C 2.421818 0.032722 0.133740
  C 3.167815 0.027484 1.440151
  H 2.476996 0.098061 2.285718
  C 3.074422 0.075386 -1.053310
  H 2.488720 0.030204 -1.963763
  C 4.490954 0.187090 -1.233129
  C 5.084005 0.227175 -2.426690
  H 6.152427 0.299752 -2.529495
  H 0.502252 -0.199958 1.213825
  H 0.400387 -0.590823 -0.564565
  H 1.413730 0.906916 -0.006672
  H 3.876493 0.853627 1.505268
  H 3.724770 -0.904795 1.533704
  H 5.103481 0.230812 -0.339468
  H 4.516177 0.181264 -3.339721
 16
 49.574583
  C 0.916002 -0.112979 0.236946
  C 2.417010 0.032290 0.128412
  C 3.161613 0.040965 1.440574
  H 2.474158 0.124978 2.278253
  C 3.071529 0.061319 -1.061026
  H 2.484237 -0.002611 -1.968883
  C 4.494022 0.189904 -1.241010
  C 5.091623 0.223682 -2.431498
  H 6.162278 0.313472 -2.530295
  H 0.498041 -0.281311 1.210791
  H 0.374085 -0.497668 -0.607712
  H 1.473353 0.900854 0.083555
  H 3.870114 0.861488 1.495733
  H 3.713654 -0.889191 1.548486
  H 5.102213 0.253213 -0.350000
  H 4.525602 0.161570 -3.350143
 16
 53.718844
  C 0.929276 -0.121850 0.238399
  C 2.405930 0.038864 0.127313
  C 3.154363 0.050891 1.439741
  H 2.483506 0.141039 2.259141
  C 3.066035 0.059957 -1.063986
  H 2.462677 -0.012570 -1.996810
  C 4.486512 0.190783 -1.236813
  C 5.093071 0.221556 -2.424969
  H 6.144732 0.318505 -2.514551
  H 0.519326 -0.309300 1.204295
  H 0.376825 -0.457815 -0.629186
  H 1.523246 0.888289 0.122004
  H 3.864551 0.872026 1.488334
  H 3.711500 -0.891543 1.557209
  H 5.085977 0.261993 -0.349646
  H 4.538858 0.157041 -3.340275
 16
 56.566552
  C 0.920112 -0.134245 0.236500
  C 2.406111 0.044365 0.120888
  C 3.155369 0.055069 1.435428
  H 2.462639 0.149009 2.281939
  C 3.072352 0.060086 -1.072314
  H 2.480149 -0.012879 -1.989670
  C 4.484923 0.191400 -1.242391
  C 5.094272 0.220955 -2.430816
  H 6.168581 0.323810 -2.520221
  H 0.501642 -0.330025 1.213608
  H 0.373235 -0.432416 -0.625305
  H 1.555852 0.883140 0.136116
  H 3.862843 0.871989 1.481955
  H 3.707127 -0.876905 1.551493
  H 5.087752 0.267312 -0.348716
  H 4.537291 0.156756 -3.352738
 16
 59.267601
  C 0.920447 -0.146928 0.236478
  C 2.407955 0.055368 0.127624
  C 3.157232 0.061107 1.440946
  H 2.468536 0.149897 2.282936
  C 3.075026 0.071641 -1.071199
  H 2.482646 -0.003061 -1.989005
  C 4.480657 0.210829 -1.241689
  C 5.091695 0.230416 -2.432026
  H 6.165457 0.309735 -2.521605
  H 0.499859 -0.346056 1.196684
  H 0.368424 -0.417137 -0.643346
  H 1.585152 0.878429 0.153160
  H 3.861205 0.875833 1.489923
  H 3.711342 -0.872265 1.551383
  H 5.081042 0.279195 -0.352518
  H 4.541370 0.134850 -3.345458
 16
 61.652521
  C 0.910888 -0.159250 0.234488
  C 2.406652 0.061554 0.129320
  C 3.158522 0.063195 1.440559
  H 2.471402 0.152471 2.282367
  C 3.077154 0.069255 -1.071966
  H 2.490394 -0.005274 -1.978739
  C 4.487164 0.207284 -1.242858
  C 5.098425 0.227744 -2.431622
  H 6.165491 0.318781 -2.519891
  H 0.479981 -0.353824 1.198060
  H 0.360212 -0.405747 -0.647838
  H 1.608161 0.877284 0.156426
  H 3.873250 0.887028 1.489178
  H 3.708577 -0.868535 1.548530
  H 5.091833 0.282517 -0.346807
  H 4.542254 0.138134 -3.354841
 16
 64.021510
  C 0.917988 -0.173144 0.235161
  C 2.404107 0.070998 0.134993
  C 3.156026 0.069108 1.442432
  H 2.468156 0.154800 2.282805
  C 3.076343 0.078647 -1.071503
  H 2.490951 0.002505 -1.970751
  C 4.484506 0.219308 -1.244007
  C 5.098481 0.233233 -2.434185
  H 6.177057 0.303955 -2.522606
  H 0.481873 -0.359022 1.194263
  H 0.365907 -0.397264 -0.656497
  H 1.632886 0.875947 0.163643
  H 3.866132 0.893655 1.491820
  H 3.713809 -0.873053 1.548032
  H 5.081865 0.289975 -0.361975
  H 4.549981 0.134681 -3.343579
 16
 65.983282
  C 0.916576 -0.189586 0.232666
  C 2.406628 0.076826 0.136035
  C 3.165098 0.072448 1.448704
  H 2.478014 0.160820 2.291866
  C 3.082472 0.073407 -1.073473
  H 2.493402 -0.004957 -1.975740
  C 4.486404 0.206447 -1.242539
  C 5.102740 0.224915 -2.432051
  H 6.166098 0.311296 -2.517234
  H 0.476395 -0.356663 1.183949
  H 0.361266 -0.394208 -0.666044
  H 1.658365 0.884303 0.160151
  H 3.870676 0.887330 1.494781
  H 3.710984 -0.854136 1.551981
  H 5.090850 0.290215 -0.346115
  H 4.546340 0.155816 -3.357774
