 15
 0.000000
  C 0.899043 0.055037 0.227430
  C 2.397915 0.058580 0.117941
  C 3.255542 -0.009346 1.366031
  C 2.534514 -0.094622 2.706023
  H 3.270512 -0.137836 3.505871
  C 2.989834 0.123191 -1.066095
  H 2.440986 0.176840 -1.990956
  H 4.063263 0.125557 -1.162106
  H 0.563091 0.018269 1.257791
  H 0.475732 -0.807407 -0.284718
  H 0.484215 0.954862 -0.224907
  H 3.900893 0.874120 1.379707
  H 3.913425 -0.878841 1.275191
  H 1.917128 -0.988580 2.766582
  H 1.905544 0.777342 2.873503
 15
 5.301666
  C 0.897765 0.116675 0.248646
  C 2.361668 0.063743 0.139306
  C 3.248089 -0.003787 1.368525
  C 2.535084 -0.109502 2.706193
  H 3.271306 -0.153941 3.504504
  C 2.955860 0.102301 -1.059822
  H 2.380500 0.165308 -1.981327
  H 4.038288 0.057311 -1.164847
  H 0.503294 0.048559 1.257345
  H 0.734089 -0.780301 -0.300576
  H 0.458855 0.970689 -0.266551
  H 3.880174 0.886054 1.380881
  H 3.915958 -0.860070 1.261020
  H 1.929320 -1.010488 2.758368
  H 1.901858 0.755587 2.884254
 15
 17.628370
  C 0.890600 0.169044 0.262891
  C 2.335790 0.071464 0.135679
  C 3.238005 0.002020 1.362809
  C 2.533983 -0.127027 2.705776
  H 3.278641 -0.173951 3.503376
  C 2.935944 0.080131 -1.068737
  H 2.374627 0.156123 -1.977680
  H 4.001599 0.001150 -1.166850
  H 0.473307 0.091300 1.263150
  H 0.938647 -0.757013 -0.279524
  H 0.433946 0.971752 -0.296039
  H 3.851509 0.900333 1.379168
  H 3.915739 -0.837785 1.243971
  H 1.933700 -1.039745 2.750121
  H 1.889713 0.735148 2.897956
 15
 31.393806
  C 0.876131 0.211417 0.280133
  C 2.320704 0.074515 0.132544
  C 3.225277 0.001680 1.351466
  C 2.528771 -0.150359 2.699748
  H 3.275169 -0.202029 3.487959
  C 2.929298 0.074381 -1.074646
  H 2.375521 0.169341 -1.987163
  H 3.994414 -0.032699 -1.166882
  H 0.466377 0.191079 1.270509
  H 1.096795 -0.748084 -0.167185
  H 0.391453 0.924353 -0.366721
  H 3.827783 0.917063 1.371828
  H 3.921795 -0.834541 1.221176
  H 1.938198 -1.062107 2.735989
  H 1.884137 0.698687 2.907065
 15
 42.825281
  C 0.871228 0.249509 0.297147
  C 2.316264 0.083577 0.124941
  C 3.215327 0.001767 1.344593
  C 2.521545 -0.173784 2.687252
  H 3.270249 -0.239379 3.472370
  C 2.929484 0.074633 -1.088107
  H 2.378543 0.179005 -2.003442
  H 3.992221 -0.053408 -1.178966
  H 0.477435 0.307952 1.288820
  H 1.231992 -0.742914 -0.036999
  H 0.349562 0.846476 -0.432561
  H 3.808341 0.923556 1.374027
  H 3.919181 -0.824311 1.205408
  H 1.930943 -1.085665 2.708598
  H 1.877903 0.671627 2.912967
 15
 51.000709
  C 0.869433 0.284411 0.303990
  C 2.316408 0.091936 0.117428
  C 3.213651 0.004033 1.340826
  C 2.516413 -0.195641 2.681041
  H 3.264414 -0.281478 3.465716
  C 2.929498 0.073849 -1.102298
  H 2.376542 0.186273 -2.019191
  H 3.987938 -0.068623 -1.194282
  H 0.482582 0.425227 1.294654
  H 1.344428 -0.727969 0.077116
  H 0.316213 0.749671 -0.488574
  H 3.798068 0.929591 1.382239
  H 3.924503 -0.814081 1.192334
  H 1.918522 -1.105991 2.683841
  H 1.878375 0.647224 2.925037
 15
 57.505562
  C 0.868068 0.316956 0.308511
  C 2.314717 0.092891 0.116154
  C 3.214132 0.008392 1.339080
  C 2.516139 -0.214437 2.674975
  H 3.263380 -0.315248 3.459712
  C 2.929830 0.069014 -1.109462
  H 2.375302 0.186413 -2.022759
  H 3.987117 -0.091819 -1.201383
  H 0.484232 0.511753 1.286691
  H 1.427591 -0.710764 0.151853
  H 0.293448 0.681041 -0.522813
  H 3.783509 0.937292 1.390702
  H 3.937072 -0.799355 1.182161
  H 1.916997 -1.124071 2.661216
  H 1.877876 0.623192 2.933646
 15
 63.031126
  C 0.867804 0.352281 0.306563
  C 2.313357 0.088955 0.118635
  C 3.217912 0.014580 1.340210
  C 2.520685 -0.232410 2.672808
  H 3.266132 -0.342897 3.455248
  C 2.932250 0.059562 -1.114210
  H 2.375782 0.180544 -2.024647
  H 3.985282 -0.123587 -1.204416
  H 0.473615 0.568647 1.275868
  H 1.485677 -0.693841 0.193004
  H 0.282057 0.637175 -0.545463
  H 3.773185 0.953246 1.399607
  H 3.951518 -0.780001 1.175368
  H 1.925139 -1.144198 2.644722
  H 1.876664 0.599926 2.945448
 15
 67.746130
  C 0.869762 0.390968 0.303675
  C 2.309726 0.080264 0.123550
  C 3.219078 0.020034 1.341661
  C 2.526882 -0.248230 2.672126
  H 3.273916 -0.358822 3.454420
  C 2.936463 0.047261 -1.117464
  H 2.379115 0.165460 -2.026118
  H 3.986210 -0.151778 -1.203136
  H 0.463387 0.602243 1.268481
  H 1.527830 -0.694239 0.207096
  H 0.277790 0.626091 -0.558103
  H 3.756848 0.969336 1.405730
  H 3.965807 -0.759946 1.170540
  H 1.941201 -1.163384 2.634654
  H 1.873664 0.573209 2.952702
 15
 71.824334
  C 0.875489 0.419213 0.302405
  C 2.310294 0.071845 0.124116
  C 3.225703 0.022556 1.344946
  C 2.528805 -0.259450 2.671530
  H 3.274640 -0.368280 3.459328
  C 2.937324 0.035890 -1.122629
  H 2.375574 0.147293 -2.029871
  H 3.984559 -0.167746 -1.209122
  H 0.461817 0.618221 1.268831
  H 1.571373 -0.702033 0.206810
  H 0.278567 0.626979 -0.561944
  H 3.750711 0.977189 1.413061
  H 3.980781 -0.745482 1.172753
  H 1.950211 -1.181835 2.625780
  H 1.865916 0.557699 2.954044
 15
 74.766612
  C 0.881262 0.450319 0.302090
  C 2.307492 0.061217 0.128891
  C 3.224844 0.024283 1.345914
  C 2.533048 -0.269681 2.671155
  H 3.279933 -0.373873 3.456801
  C 2.942079 0.024380 -1.126314
  H 2.380889 0.135755 -2.031661
  H 3.987995 -0.186408 -1.209635
  H 0.459786 0.630192 1.267769
  H 1.607316 -0.724880 0.205243
  H 0.280723 0.634908 -0.564406
  H 3.736998 0.985736 1.414788
  H 3.989087 -0.734479 1.170468
  H 1.964259 -1.196107 2.622080
  H 1.862354 0.538314 2.957051
 15
 76.342064
  C 0.893329 0.496751 0.297964
  C 2.299485 0.048057 0.132852
  C 3.222252 0.026847 1.346827
  C 2.540715 -0.281482 2.673086
  H 3.291945 -0.376116 3.456004
  C 2.946536 0.012305 -1.128208
  H 2.388168 0.123995 -2.034395
  H 3.989061 -0.212693 -1.203319
  H 0.455611 0.636260 1.263547
  H 1.638644 -0.763505 0.194599
  H 0.285205 0.653463 -0.568532
  H 3.718082 0.996975 1.414925
  H 3.996848 -0.719468 1.166710
  H 1.985991 -1.217421 2.622789
  H 1.857669 0.514892 2.963394
 15
 77.054973
  C 0.910761 0.544997 0.297642
  C 2.292382 0.035957 0.135826
  C 3.220394 0.032019 1.348458
  C 2.545010 -0.295409 2.673354
  H 3.297778 -0.380920 3.456316
  C 2.948232 -0.002630 -1.131287
  H 2.388629 0.105203 -2.037934
  H 3.987094 -0.246161 -1.202168
  H 0.461232 0.640465 1.264100
  H 1.680855 -0.813127 0.180011
  H 0.295254 0.681239 -0.568226
  H 3.696680 1.011264 1.417711
  H 4.008364 -0.699048 1.164349
  H 2.007085 -1.240801 2.617292
  H 1.847286 0.486033 2.967994
 15
 77.111116
  C 0.928220 0.589131 0.297192
  C 2.283958 0.019160 0.139628
  C 3.217790 0.030345 1.349008
  C 2.551819 -0.311217 2.674510
  H 3.307500 -0.384663 3.455642
  C 2.949794 -0.021462 -1.134182
  H 2.394330 0.090551 -2.041612
  H 3.985189 -0.276819 -1.201237
  H 0.463119 0.644183 1.260630
  H 1.721665 -0.865120 0.163395
  H 0.306493 0.712282 -0.566703
  H 3.675786 1.018151 1.417431
  H 4.016861 -0.687031 1.161211
  H 2.030896 -1.265819 2.617043
  H 1.840029 0.456996 2.971658
