 19
 0.000000
  C 0.965380 0.193955 0.533604
  C 2.406071 0.110524 0.326526
  H 3.061329 0.432497 1.128102
  C 2.971878 -0.358256 -0.840688
  C 4.366879 -0.422980 -1.002892
  C 5.072972 -0.863070 -2.100406
  C 4.656597 -1.384258 -3.399644
  C 3.193621 -1.532837 -3.769671
  H 3.122679 -1.937420 -4.778742
  H 6.153547 -0.822992 -2.001187
  H 0.707028 0.586775 1.511304
  H 0.506712 -0.789219 0.398657
  H 0.507080 0.810764 -0.244086
  H 2.324323 -0.679014 -1.639254
  H 4.956986 -0.084306 -0.159171
  H 5.162698 -2.354265 -3.515207
  H 5.162593 -0.762840 -4.153523
  H 2.683129 -0.573176 -3.763184
  H 2.683272 -2.222379 -3.101877
 19
 0.243156
  C 0.969934 0.171720 0.517170
  C 2.407179 0.191737 0.272612
  H 3.035908 0.754450 0.950873
  C 2.991754 -0.437989 -0.800267
  C 4.385240 -0.461617 -0.979727
  C 5.084213 -0.938607 -2.064551
  C 4.651274 -1.372649 -3.391896
  C 3.183548 -1.487982 -3.756793
  H 3.101381 -1.795935 -4.796653
  H 6.161751 -0.980855 -1.954068
  H 0.711889 0.552784 1.499597
  H 0.560695 -0.828674 0.368634
  H 0.463911 0.789969 -0.232070
  H 2.363526 -0.966139 -1.499163
  H 4.977021 -0.073150 -0.159285
  H 5.163312 -2.322439 -3.601608
  H 5.141913 -0.683577 -4.098261
  H 2.669896 -0.535565 -3.652802
  H 2.684662 -2.242871 -3.154456
 19
 2.754982
  C 0.976001 0.154244 0.460310
  C 2.399169 0.290467 0.172084
  H 2.953465 1.056442 0.701486
  C 3.045802 -0.454951 -0.781345
  C 4.444454 -0.545178 -0.910897
  C 5.106283 -1.015356 -2.015945
  C 4.621292 -1.302347 -3.372589
  C 3.148306 -1.480547 -3.696079
  H 3.061297 -1.752337 -4.747076
  H 6.176666 -1.173829 -1.966100
  H 0.726566 0.535168 1.446447
  H 0.635883 -0.872925 0.335921
  H 0.403844 0.750802 -0.259850
  H 2.462297 -1.073989 -1.450322
  H 5.041890 -0.258388 -0.054178
  H 5.183666 -2.168921 -3.740741
  H 5.009688 -0.474068 -3.987599
  H 2.583323 -0.562701 -3.560180
  H 2.711889 -2.296734 -3.126487
 19
 9.305888
  C 0.997417 0.110675 0.444773
  C 2.385706 0.381531 0.083353
  H 2.828647 1.297140 0.463174
  C 3.103736 -0.385592 -0.790010
  C 4.492834 -0.610950 -0.853534
  C 5.127797 -1.041617 -1.983256
  C 4.598623 -1.233290 -3.353502
  C 3.121979 -1.482638 -3.637728
  H 3.045100 -1.752127 -4.694433
  H 6.178692 -1.300785 -1.984175
  H 0.758907 0.533275 1.415573
  H 0.773265 -0.957101 0.419676
  H 0.328210 0.593194 -0.274107
  H 2.552236 -0.976860 -1.523437
  H 5.069334 -0.501342 0.058556
  H 5.179181 -2.048311 -3.800509
  H 4.909871 -0.335010 -3.911568
  H 2.506817 -0.590620 -3.536592
  H 2.744737 -2.349005 -3.106144
 19
 27.830334
  C 1.062156 -0.030637 0.387704
  C 2.342131 0.447515 -0.155870
  H 2.542741 1.502762 -0.042437
  C 3.251448 -0.348557 -0.757223
  C 4.630994 -0.630721 -0.805395
  C 5.170297 -1.185005 -1.922280
  C 4.532149 -1.215212 -3.282068
  C 3.016676 -1.267440 -3.465399
  H 2.893015 -1.450125 -4.557686
  H 6.187222 -1.515203 -2.062509
  H 0.722811 0.630574 1.179156
  H 1.147527 -1.042773 0.765086
  H 0.288654 -0.020726 -0.390122
  H 2.776887 -1.099689 -1.495465
  H 5.198786 -0.589760 0.116985
  H 4.982900 -2.050385 -3.822174
  H 4.883076 -0.299197 -3.774378
  H 2.505958 -0.306826 -3.400579
  H 2.570819 -2.194737 -3.120224
 19
 52.514120
  C 1.059974 -0.059203 0.133201
  C 2.427079 0.501472 -0.149171
  H 2.508499 1.581337 -0.038779
  C 3.438612 -0.184061 -0.599756
  C 4.694957 -0.684971 -0.765858
  C 5.232731 -1.116283 -1.950867
  C 4.507356 -1.132429 -3.254758
  C 2.971492 -1.303772 -3.132743
  H 2.621774 -1.554962 -4.158446
  H 6.243729 -1.486121 -1.976766
  H 0.580654 0.521628 0.915651
  H 1.120652 -1.095265 0.454054
  H 0.423897 -0.000799 -0.752783
  H 2.837271 -1.092893 -1.937591
  H 5.297304 -0.771868 0.128875
  H 4.935604 -1.940522 -3.851655
  H 4.730871 -0.206368 -3.795468
  H 2.405615 -0.350117 -3.147588
  H 2.662464 -2.317108 -2.788398
 19
 54.544641
  C 1.090562 -0.091054 0.243850
  C 2.406115 0.530715 -0.155245
  H 2.411911 1.618889 -0.160614
  C 3.465854 -0.120969 -0.513157
  C 4.669595 -0.685742 -0.744172
  C 5.188955 -1.147480 -1.937400
  C 4.517712 -1.076240 -3.271389
  C 2.983388 -1.289611 -3.217687
  H 2.619702 -1.419741 -4.261436
  H 6.191416 -1.542567 -1.928620
  H 0.573988 0.560474 0.944308
  H 1.243323 -1.057842 0.716238
  H 0.442934 -0.221029 -0.620301
  H 2.748251 -1.348662 -2.103655
  H 5.294735 -0.808170 0.137139
  H 4.987496 -1.817418 -3.915715
  H 4.737259 -0.100507 -3.720745
  H 2.423624 -0.331218 -3.136214
  H 2.700143 -2.373564 -3.091259
 19
 56.193265
  C 1.112566 -0.077106 0.275510
  C 2.405372 0.548257 -0.179352
  H 2.382153 1.629361 -0.264136
  C 3.483275 -0.096124 -0.488150
  C 4.661201 -0.702826 -0.722801
  C 5.149284 -1.192193 -1.925164
  C 4.504355 -0.985244 -3.258347
  C 2.986970 -1.299003 -3.272217
  H 2.625839 -1.241295 -4.317938
  H 6.129277 -1.637621 -1.925162
  H 0.541157 0.639914 0.857774
  H 1.301259 -0.954386 0.890317
  H 0.500522 -0.373647 -0.577943
  H 2.808495 -1.779169 -2.256216
  H 5.296918 -0.830353 0.148547
  H 5.024961 -1.594531 -3.996366
  H 4.651482 0.058762 -3.550716
  H 2.385049 -0.455945 -2.886396
  H 2.744602 -2.413828 -3.357473
 19
 62.708591
  C 1.113825 -0.113450 0.336672
  C 2.359226 0.519565 -0.228100
  H 2.283425 1.584210 -0.421735
  C 3.456536 -0.102723 -0.511423
  C 4.647813 -0.691415 -0.706826
  C 5.143956 -1.218694 -1.886386
  C 4.526350 -0.987685 -3.231214
  C 2.930873 -1.248250 -3.362923
  H 2.794374 -1.136432 -4.440530
  H 6.114185 -1.679699 -1.876624
  H 0.499145 0.640041 0.809566
  H 1.368878 -0.876608 1.075903
  H 0.522962 -0.581113 -0.450860
  H 3.205893 -1.939098 -2.482727
  H 5.287064 -0.755268 0.165152
  H 5.043741 -1.585284 -3.976691
  H 4.632839 0.072395 -3.493773
  H 2.368979 -0.450006 -2.869706
  H 2.389033 -2.257006 -3.322709
 19
 60.976741
  C 1.146409 -0.112361 0.225791
  C 2.440262 0.530992 -0.204013
  H 2.406089 1.612459 -0.303994
  C 3.535588 -0.093303 -0.475718
  C 4.719322 -0.705543 -0.652515
  C 5.212187 -1.195344 -1.856520
  C 4.531165 -0.974467 -3.146254
  C 2.661961 -1.381344 -3.375438
  H 2.652131 -1.123315 -4.425759
  H 6.180815 -1.663510 -1.867762
  H 0.519728 0.614988 0.733534
  H 1.335385 -0.944508 0.895586
  H 0.596687 -0.486633 -0.637665
  H 3.599533 -1.619090 -2.698460
  H 5.339901 -0.820193 0.224627
  H 5.019183 -1.521184 -3.947823
  H 4.446382 0.081886 -3.382180
  H 2.074799 -0.672878 -2.801417
  H 2.261619 -2.392660 -3.264022
 19
 65.577233
  C 1.112773 -0.110951 0.242885
  C 2.378421 0.555801 -0.232059
  H 2.304610 1.628022 -0.384221
  C 3.490810 -0.045547 -0.485600
  C 4.662637 -0.677284 -0.670864
  C 5.119688 -1.236611 -1.861774
  C 4.438042 -1.025527 -3.238221
  C 2.823840 -1.336002 -3.400857
  H 2.657477 -1.155376 -4.459868
  H 6.088253 -1.703244 -1.869131
  H 0.458301 0.619365 0.708337
  H 1.336591 -0.894442 0.962399
  H 0.579349 -0.557837 -0.594703
  H 3.757501 -1.679946 -2.437291
  H 5.312571 -0.754884 0.193134
  H 4.962311 -1.617064 -3.985352
  H 4.506737 0.036438 -3.483551
  H 2.227108 -0.622744 -2.837413
  H 2.468484 -2.356642 -3.227525
 19
 39.150315
  C 1.111731 -0.114913 0.482367
  C 2.226572 0.526482 -0.277121
  H 2.005099 1.509558 -0.675174
  C 3.372136 -0.006332 -0.535291
  C 4.519826 -0.649143 -0.714659
  C 4.923690 -1.383614 -1.897644
  C 4.420436 -1.044190 -3.351759
  C 2.919759 -1.187177 -3.642553
  H 2.781419 -0.968483 -4.704915
  H 5.869886 -1.890162 -1.881836
  H 0.416061 0.641079 0.837863
  H 1.493831 -0.678227 1.327942
  H 0.571877 -0.801279 -0.177412
  H 3.923308 -1.945121 -2.038936
  H 5.208088 -0.648706 0.115574
  H 4.983260 -1.654619 -4.047531
  H 4.655695 0.015408 -3.537369
  H 2.334548 -0.465797 -3.084433
  H 2.534447 -2.190917 -3.488008
 19
 17.831674
  C 1.164952 -0.056851 0.714327
  C 2.024085 0.399234 -0.402690
  H 1.637605 1.216268 -1.004703
  C 3.196268 -0.112524 -0.705399
  C 4.346253 -0.710709 -0.840046
  C 4.796888 -1.558984 -1.977229
  C 4.521550 -1.009055 -3.379736
  C 3.045377 -1.012862 -3.738804
  H 2.912205 -0.654969 -4.757017
  H 5.796123 -1.962569 -1.870033
  H 0.446445 0.710827 0.998652
  H 1.751495 -0.362059 1.580393
  H 0.607128 -0.934377 0.368276
  H 4.035390 -2.358284 -1.906761
  H 5.061198 -0.608517 -0.024075
  H 5.095541 -1.586154 -4.106239
  H 4.886334 0.022829 -3.438094
  H 2.489063 -0.349410 -3.075948
  H 2.618990 -2.012029 -3.680372
 19
 14.536050
  C 1.189193 -0.061387 0.699281
  C 1.999385 0.383513 -0.452846
  H 1.595686 1.184870 -1.060644
  C 3.163032 -0.154099 -0.777990
  C 4.321101 -0.729723 -0.891849
  C 4.803782 -1.622783 -1.990812
  C 4.535710 -1.076498 -3.387153
  C 3.054298 -0.909938 -3.659128
  H 2.883786 -0.479886 -4.642127
  H 5.853844 -1.877999 -1.860425
  H 0.432825 0.672679 0.957196
  H 1.806593 -0.297542 1.564308
  H 0.683920 -0.991247 0.420181
  H 4.199227 -2.531369 -1.864663
  H 5.048503 -0.551473 -0.103394
  H 4.982112 -1.750381 -4.121883
  H 5.039001 -0.113185 -3.503227
  H 2.623507 -0.235428 -2.912117
  H 2.528552 -1.859419 -3.596388
 19
 14.616784
  C 1.081143 -0.207172 0.283988
  C 2.246413 0.502379 -0.281769
  H 2.148851 1.574200 -0.436004
  C 3.391181 -0.054448 -0.629649
  C 4.561058 -0.543689 -0.898209
  C 4.861081 -1.598819 -1.919821
  C 4.411742 -1.120413 -3.313709
  C 2.911870 -0.982954 -3.459727
  H 2.661030 -0.652984 -4.465905
  H 5.924386 -1.818087 -1.920578
  H 0.281849 0.479619 0.537098
  H 1.395740 -0.758370 1.173516
  H 0.705300 -0.962571 -0.409031
  H 4.288821 -2.488503 -1.662045
  H 5.410306 -0.195212 -0.318683
  H 4.756336 -1.894002 -4.005195
  H 4.916361 -0.188001 -3.573086
  H 2.516926 -0.234433 -2.771174
  H 2.413573 -1.931124 -3.270423
