 14
 0.000000
  H 1.406912 0.128589 0.367917
  C 2.489230 0.133588 0.382399
  C 3.142028 0.620664 1.595982
  H 2.415465 0.922400 2.345998
  C 3.138379 -0.321639 -0.749869
  C 4.527998 -0.379982 -0.895465
  C 5.122317 -0.844910 -2.054166
  H 4.512648 -1.180456 -2.888879
  O 6.390919 -0.929432 -2.266508
  H 3.800498 1.463361 1.371990
  H 3.799286 -0.143752 2.017325
  H 2.537310 -0.656404 -1.584561
  H 5.168080 -0.055503 -0.086139
  H 6.957928 -0.628766 -1.522491
 14
 5.488648
  H 1.418118 0.172221 0.399812
  C 2.497557 0.148703 0.380098
  C 3.188428 0.620066 1.584725
  H 2.473823 0.956031 2.326183
  C 3.096802 -0.331705 -0.754917
  C 4.495164 -0.473717 -0.933340
  C 5.102186 -0.887518 -2.080857
  H 4.628005 -1.273359 -2.974757
  O 6.385123 -0.775270 -2.206410
  H 3.873835 1.444484 1.359893
  H 3.801231 -0.169067 2.026469
  H 2.466301 -0.613261 -1.598832
  H 5.036876 -0.180025 -0.044243
  H 6.923301 -0.502743 -1.432966
 14
 15.754002
  H 1.419376 0.214270 0.427607
  C 2.501773 0.168839 0.376770
  C 3.241101 0.613884 1.565030
  H 2.510520 0.929247 2.308753
  C 3.051864 -0.325358 -0.775444
  C 4.466248 -0.508967 -0.943652
  C 5.088044 -0.932632 -2.089269
  H 4.726071 -1.360634 -3.004946
  O 6.359975 -0.637516 -2.165714
  H 3.939838 1.404329 1.346866
  H 3.808042 -0.198828 2.029159
  H 2.432240 -0.569835 -1.621859
  H 4.909186 -0.241436 -0.000506
  H 6.922776 -0.418197 -1.396103
 14
 18.008880
  H 1.422624 0.277425 0.403261
  C 2.506975 0.190563 0.367801
  C 3.210396 0.574085 1.591569
  H 2.511581 0.950926 2.326615
  C 3.047786 -0.299797 -0.792625
  C 4.449699 -0.551346 -0.924144
  C 5.098358 -0.992573 -2.040202
  H 4.793013 -1.485129 -2.945937
  O 6.308749 -0.496239 -2.229224
  H 3.937179 1.374820 1.417503
  H 3.761582 -0.256525 2.041761
  H 2.423401 -0.477995 -1.658173
  H 4.956071 -0.372344 0.013065
  H 6.949407 -0.299877 -1.517523
 14
 20.645716
  H 1.428728 0.334507 0.316714
  C 2.506348 0.206383 0.359392
  C 3.167998 0.548379 1.624103
  H 2.466015 0.963514 2.343310
  C 3.125657 -0.276463 -0.781336
  C 4.484460 -0.580131 -0.842676
  C 5.164083 -0.980073 -1.972219
  H 4.691437 -1.571687 -2.762470
  O 6.208921 -0.334074 -2.381788
  H 3.969438 1.278732 1.459786
  H 3.619778 -0.331146 2.051716
  H 2.548406 -0.432724 -1.680893
  H 5.032226 -0.487522 0.086542
  H 6.970134 -0.204995 -1.773751
 14
 37.450982
  H 1.454101 0.450497 0.289223
  C 2.505165 0.191175 0.379550
  C 3.176190 0.486365 1.643802
  H 2.515134 0.979897 2.338778
  C 3.110042 -0.272273 -0.766288
  C 4.469736 -0.593692 -0.850919
  C 5.181492 -1.040532 -1.966658
  H 4.861991 -1.769145 -2.719242
  O 6.046296 -0.098356 -2.347122
  H 4.060229 1.098102 1.486106
  H 3.537768 -0.439949 2.111766
  H 2.522033 -0.313612 -1.671666
  H 5.028137 -0.539336 0.056518
  H 6.934329 -0.021466 -1.946856
 14
 62.041628
  H 1.546458 0.530619 0.293575
  C 2.593154 0.291073 0.339170
  C 3.244379 0.425217 1.644744
  H 2.569184 0.870439 2.370218
  C 3.159798 -0.202427 -0.807148
  C 4.500825 -0.603070 -0.886906
  C 5.154511 -1.202032 -1.964048
  H 4.976254 -1.913991 -2.739484
  O 5.734845 0.043325 -2.223645
  H 4.141359 1.040716 1.583782
  H 3.535910 -0.544803 2.022437
  H 2.566197 -0.272695 -1.708782
  H 5.044351 -0.561872 0.045249
  H 6.666187 0.194861 -1.943325
 14
 65.854939
  H 1.599895 0.553846 0.257138
  C 2.645089 0.279980 0.289985
  C 3.320543 0.422645 1.611154
  H 2.650253 0.881582 2.331547
  C 3.193243 -0.182485 -0.835578
  C 4.587017 -0.625931 -0.908472
  C 5.154730 -1.324654 -2.025170
  H 5.048429 -2.006471 -2.832979
  O 5.449084 0.052242 -2.012870
  H 4.206786 1.046934 1.535131
  H 3.612185 -0.550201 2.006991
  H 2.618137 -0.243302 -1.746030
  H 5.108232 -0.625225 0.043906
  H 6.342967 0.308915 -1.669246
