 15
 0.000000
  C 0.934992 0.136067 0.405566
  C 2.402897 0.137483 0.400913
  C 3.205839 0.597290 1.545652
  C 2.476137 1.097601 2.768816
  H 3.187834 1.402547 3.529476
  C 3.060182 -0.310656 -0.723102
  H 4.134484 -0.336651 -0.794049
  H 0.505028 0.496443 1.332762
  H 0.563497 -0.872139 0.208422
  H 0.553317 0.744250 -0.418213
  H 3.891669 1.378548 1.184099
  H 3.882545 -0.221670 1.833455
  H 1.834076 0.324841 3.191365
  H 1.842567 1.951758 2.530348
  H 2.497233 -0.652750 -1.576690
 15
 4.670244
  C 0.922239 0.079407 0.450876
  C 2.359870 0.135596 0.400112
  C 3.191055 0.607335 1.538527
  C 2.477795 1.113643 2.773475
  H 3.201679 1.413708 3.526969
  C 3.032254 -0.297556 -0.737105
  H 4.111443 -0.304742 -0.785352
  H 0.457437 0.451313 1.344987
  H 0.500640 -0.885120 0.186786
  H 0.792384 0.721601 -0.407458
  H 3.896380 1.372152 1.176104
  H 3.863876 -0.223611 1.810938
  H 1.833205 0.350038 3.205338
  H 1.855654 1.977451 2.542790
  H 2.492804 -0.638863 -1.610696
 15
 11.850632
  C 0.917947 0.016129 0.492606
  C 2.340905 0.121437 0.414058
  C 3.187156 0.626682 1.526303
  C 2.475960 1.133502 2.764318
  H 3.207755 1.437199 3.512724
  C 3.012854 -0.296805 -0.738070
  H 4.091129 -0.313670 -0.782008
  H 0.435788 0.375906 1.383052
  H 0.450979 -0.887510 0.093371
  H 0.999203 0.746777 -0.324515
  H 3.893074 1.380040 1.164165
  H 3.827562 -0.223929 1.791034
  H 1.836084 0.368354 3.203297
  H 1.862265 2.004597 2.534050
  H 2.482494 -0.613703 -1.625293
 15
 18.478294
  C 0.918203 -0.021841 0.525646
  C 2.339404 0.114215 0.402100
  C 3.185822 0.638930 1.515626
  C 2.462268 1.143807 2.747919
  H 3.193484 1.466266 3.492919
  C 3.011199 -0.312907 -0.759302
  H 4.079971 -0.356573 -0.795782
  H 0.441282 0.297297 1.438643
  H 0.413307 -0.839209 0.021894
  H 1.163317 0.808323 -0.202756
  H 3.877782 1.402883 1.149433
  H 3.824887 -0.213063 1.790167
  H 1.840265 0.365103 3.198433
  H 1.833268 2.006517 2.512964
  H 2.479854 -0.615146 -1.642480
 15
 23.143053
  C 0.925296 -0.051122 0.544345
  C 2.337713 0.112385 0.396458
  C 3.186917 0.642895 1.505656
  C 2.452001 1.153350 2.733556
  H 3.175366 1.497289 3.469342
  C 3.003306 -0.328233 -0.766731
  H 4.075836 -0.385241 -0.801432
  H 0.450813 0.206774 1.478135
  H 0.392532 -0.765195 -0.065462
  H 1.297726 0.863191 -0.067793
  H 3.859592 1.414095 1.129764
  H 3.828357 -0.195615 1.790859
  H 1.854258 0.372702 3.196387
  H 1.808831 1.996288 2.490989
  H 2.465263 -0.631139 -1.647874
 15
 26.719364
  C 0.928227 -0.073904 0.556697
  C 2.334706 0.116914 0.388470
  C 3.191035 0.645119 1.500710
  C 2.446564 1.160789 2.726264
  H 3.163549 1.521921 3.455152
  C 2.998814 -0.335556 -0.775603
  H 4.072401 -0.391549 -0.810775
  H 0.454899 0.148906 1.497405
  H 0.376063 -0.706825 -0.121628
  H 1.401252 0.894321 0.021114
  H 3.849323 1.421132 1.116794
  H 3.843492 -0.187380 1.797316
  H 1.864374 0.375065 3.201459
  H 1.788540 1.992534 2.475864
  H 2.456086 -0.652921 -1.648921
 15
 30.143130
  C 0.925330 -0.094549 0.562286
  C 2.329289 0.131971 0.385919
  C 3.192108 0.650465 1.500095
  C 2.448429 1.164423 2.722668
  H 3.168335 1.536206 3.452885
  C 2.999038 -0.337542 -0.782321
  H 4.071891 -0.384958 -0.817791
  H 0.443533 0.120430 1.501891
  H 0.366897 -0.673185 -0.153140
  H 1.473386 0.909950 0.062228
  H 3.847555 1.433288 1.112079
  H 3.846419 -0.178919 1.798715
  H 1.876410 0.376377 3.201968
  H 1.785612 1.984738 2.472429
  H 2.456356 -0.678194 -1.641991
 15
 33.565835
  C 0.927874 -0.113341 0.557873
  C 2.328366 0.140103 0.376985
  C 3.197794 0.654809 1.501345
  C 2.454814 1.176269 2.735546
  H 3.171949 1.546686 3.454787
  C 2.995417 -0.332873 -0.784098
  H 4.060319 -0.377470 -0.818462
  H 0.441056 0.103917 1.495164
  H 0.369881 -0.672746 -0.177477
  H 1.540416 0.909703 0.070346
  H 3.849516 1.431076 1.114338
  H 3.848677 -0.172383 1.800348
  H 1.882327 0.383256 3.225541
  H 1.785024 2.003966 2.485947
  H 2.445101 -0.686122 -1.660809
 15
 36.060737
  C 0.926456 -0.131768 0.574621
  C 2.323336 0.158003 0.380779
  C 3.202201 0.659140 1.503393
  C 2.454908 1.174510 2.724186
  H 3.173184 1.550244 3.453831
  C 2.999061 -0.333280 -0.792469
  H 4.070782 -0.369886 -0.828034
  H 0.434202 0.097461 1.503671
  H 0.365045 -0.664503 -0.174038
  H 1.586905 0.935238 0.073071
  H 3.861055 1.442500 1.117281
  H 3.848218 -0.171159 1.803233
  H 1.885054 0.382125 3.207351
  H 1.789841 1.991017 2.472400
  H 2.449931 -0.690074 -1.642209
 15
 38.447916
  C 0.929935 -0.151819 0.580081
  C 2.321373 0.170785 0.377239
  C 3.206772 0.661459 1.505111
  C 2.459947 1.180620 2.728003
  H 3.176612 1.553949 3.454715
  C 2.999178 -0.328751 -0.797074
  H 4.071359 -0.354325 -0.835265
  H 0.433504 0.087249 1.504365
  H 0.368560 -0.669899 -0.178570
  H 1.638509 0.957771 0.064473
  H 3.868064 1.439856 1.122310
  H 3.845489 -0.173098 1.804468
  H 1.890347 0.390732 3.211544
  H 1.792941 2.000998 2.475342
  H 2.446693 -0.697902 -1.640979
 15
 40.657281
  C 0.932596 -0.166907 0.584818
  C 2.321588 0.180446 0.373906
  C 3.210277 0.664878 1.507639
  C 2.463695 1.187349 2.729414
  H 3.181293 1.557809 3.456716
  C 3.000058 -0.321937 -0.804380
  H 4.072168 -0.348136 -0.844800
  H 0.437046 0.077235 1.508099
  H 0.373125 -0.680134 -0.177167
  H 1.685219 0.974713 0.059787
  H 3.876291 1.440300 1.127325
  H 3.844270 -0.173831 1.808879
  H 1.889835 0.399322 3.213114
  H 1.800095 2.012284 2.475506
  H 2.446762 -0.694964 -1.645682
 15
 42.545918
  C 0.937248 -0.185529 0.590290
  C 2.324013 0.190701 0.372201
  C 3.216005 0.666917 1.510277
  C 2.468719 1.194435 2.729812
  H 3.186319 1.563421 3.458162
  C 3.000108 -0.317286 -0.807845
  H 4.072349 -0.335392 -0.852667
  H 0.438121 0.062633 1.510153
  H 0.377959 -0.691228 -0.176016
  H 1.734488 0.998494 0.048825
  H 3.887022 1.439047 1.132302
  H 3.842878 -0.176303 1.813719
  H 1.890756 0.409827 3.214075
  H 1.809208 2.021068 2.473253
  H 2.442321 -0.690604 -1.645439
 15
 43.445195
  C 0.944692 -0.206059 0.598103
  C 2.320602 0.204988 0.370387
  C 3.220045 0.668729 1.512441
  C 2.475183 1.201625 2.731025
  H 3.194356 1.568494 3.458386
  C 3.001271 -0.312850 -0.811444
  H 4.073356 -0.315963 -0.859165
  H 0.439206 0.046439 1.513839
  H 0.384173 -0.703976 -0.172185
  H 1.785872 1.034214 0.027019
  H 3.896966 1.435654 1.136597
  H 3.837631 -0.181206 1.816225
  H 1.894122 0.420990 3.216569
  H 1.819312 2.030115 2.473368
  H 2.441680 -0.694211 -1.644505
 15
 44.197015
  C 0.954472 -0.226491 0.608188
  C 2.320091 0.218983 0.366033
  C 3.224339 0.669016 1.514804
  C 2.480460 1.211274 2.729482
  H 3.200910 1.572601 3.458204
  C 3.000235 -0.299225 -0.818992
  H 4.072422 -0.290412 -0.872053
  H 0.448764 0.022266 1.524466
  H 0.392639 -0.723150 -0.162185
  H 1.846835 1.071494 0.003401
  H 3.911843 1.428365 1.142893
  H 3.827864 -0.189192 1.821701
  H 1.890555 0.438211 3.215011
  H 1.833490 2.044734 2.468121
  H 2.438582 -0.698117 -1.642552
