 9
 0.000000
  C 1.012361 0.126097 0.405675
  C 2.453737 0.114260 0.385678
  H 3.017522 0.468295 1.238746
  C 3.104232 -0.345950 -0.737381
  H 4.170743 -0.377005 -0.881839
  H 0.585281 0.509543 1.327435
  H 0.610706 -0.874673 0.179386
  H 0.625530 0.689704 -0.462314
  H 2.499552 -0.696956 -1.564043
 9
 -1.117088
  C 0.996821 0.169011 0.396079
  C 2.436630 0.045177 0.365310
  H 2.995649 0.261612 1.270993
  C 3.111615 -0.314864 -0.766315
  H 4.176864 -0.181905 -0.883200
  H 0.613097 0.644405 1.293609
  H 0.582939 -0.855621 0.337691
  H 0.584576 0.606366 -0.521080
  H 2.586729 -0.759631 -1.602723
 9
 -1.845559
  C 0.975159 0.163982 0.374852
  C 2.417068 -0.020445 0.333413
  H 2.946384 0.083431 1.281373
  C 3.131145 -0.274604 -0.786147
  H 4.175056 -0.011052 -0.891040
  H 0.642640 0.778943 1.209204
  H 0.554995 -0.836836 0.576527
  H 0.567532 0.503732 -0.575406
  H 2.688274 -0.768938 -1.644023
 9
 0.629370
  C 0.983968 0.116057 0.362751
  C 2.415774 -0.141445 0.366871
  H 2.933456 -0.027349 1.318442
  C 3.115102 -0.236533 -0.783308
  H 4.075357 0.244446 -0.938275
  H 0.733352 0.911986 1.064910
  H 0.451540 -0.771242 0.731954
  H 0.645526 0.356548 -0.642428
  H 2.765058 -0.828622 -1.624044
 9
 6.281495
  C 1.011587 0.089830 0.358865
  C 2.453912 -0.194170 0.442022
  H 2.979581 0.117778 1.340172
  C 3.065006 -0.245923 -0.763171
  H 3.955625 0.324140 -1.012967
  H 0.749002 0.874969 1.064469
  H 0.413396 -0.798484 0.589997
  H 0.771684 0.404786 -0.659950
  H 2.747876 -0.940224 -1.534824
 9
 17.968425
  C 1.077081 0.071940 0.317057
  C 2.512861 -0.237066 0.556846
  H 3.044134 -0.007932 1.466836
  C 2.955689 -0.210825 -0.725969
  H 3.700516 0.501568 -1.083604
  H 0.819258 0.964507 0.884289
  H 0.407576 -0.759059 0.552505
  H 0.964027 0.313056 -0.753743
  H 2.701715 -0.989418 -1.433059
 9
 29.661881
  C 1.193081 0.061492 0.257232
  C 2.579544 -0.339279 0.719395
  H 3.092049 -0.064702 1.613953
  C 2.784978 -0.193555 -0.640994
  H 3.354206 0.635449 -1.064402
  H 0.940110 1.008619 0.734582
  H 0.475241 -0.739960 0.454130
  H 1.097284 0.276389 -0.836617
  H 2.617155 -1.022073 -1.321950
 9
 28.521688
  C 1.231694 0.063724 0.273909
  C 2.578716 -0.357165 0.735373
  H 3.136024 -0.102400 1.606985
  C 2.695217 -0.162980 -0.666590
  H 3.230649 0.693814 -1.073862
  H 0.941645 1.046422 0.650376
  H 0.469870 -0.706041 0.405712
  H 1.293723 0.215386 -0.875913
  H 2.649327 -1.025620 -1.326048
 9
 27.062230
  C 1.228791 0.074272 0.338563
  C 2.561079 -0.346958 0.750811
  H 3.196995 -0.159700 1.581551
  C 2.615934 -0.147449 -0.687105
  H 3.164256 0.714426 -1.067916
  H 0.905350 1.074876 0.624133
  H 0.443613 -0.679963 0.388815
  H 1.406243 0.175187 -0.893895
  H 2.704605 -1.039549 -1.305014
