19

C 0.9557 0.140299 0.407383
C 2.430528 0.139736 0.399117
C 3.225972 0.608302 1.561834
H 2.6891949679465563 0.953064473081563 2.4208504463004075
C 3.042649 -0.328508 -0.766081
C 4.423507 -0.412514 -0.972827
C 5.112135 -0.86221 -2.093395
C 4.618955 -1.384073 -3.397487
H 3.5732521610547936 -1.4671694980576688 -3.608438521996143
H 6.181998997212538 -0.8568304050791898 -2.077205885543124
H 0.530811 0.511058 1.33228
H 0.585462 -0.871198 0.234071
H 0.5786 0.748562 -0.416378
H 3.883134 1.417986 1.224026
H 3.885234 -0.208346 1.878116
H 2.372771 -0.642662 -1.548919
H 5.050971 -0.084008 -0.152885
H 5.081282 -2.37046 -3.521374
H 5.083589 -0.757265 -4.167745
