 17
 0.000000
  C 1.007849 -0.071122 0.048436
  C 2.503790 -0.082479 0.026143
  C 3.220123 -0.594500 -0.979043
  C 4.656567 -0.606247 -1.002102
  C 5.378016 -1.121376 -2.013385
  C 6.815253 -1.131957 -2.034154
  C 7.531026 -1.641564 -3.034605
  H 8.603893 -1.654055 -3.059123
  H 0.643901 0.394392 0.962312
  H 0.612957 -1.085544 0.007195
  H 0.612959 0.491958 -0.796370
  H 3.004767 0.352515 0.880110
  H 2.709807 -1.027873 -1.829816
  H 5.161204 -0.171581 -0.148783
  H 4.874083 -1.556106 -2.866833
  H 7.321133 -0.697449 -1.181143
  H 7.035395 -2.077418 -3.890246
 17
 14.969791
  C 0.962932 -0.055417 0.079268
  C 2.458168 -0.073648 0.043482
  C 3.166496 -0.587255 -0.964816
  C 4.605283 -0.605251 -1.000144
  C 5.310420 -1.120229 -2.011129
  C 6.918577 -1.128151 -2.026685
  C 7.663512 -1.677414 -3.104987
  H 8.737431 -1.685702 -3.121256
  H 0.604371 0.410597 0.994122
  H 0.564385 -1.068518 0.035414
  H 0.564384 0.504775 -0.766010
  H 2.969642 0.358966 0.892775
  H 2.650487 -1.019372 -1.813129
  H 5.117067 -0.172246 -0.150084
  H 4.823016 -1.556954 -2.868491
  H 7.418402 -0.694651 -1.175651
  H 7.158551 -2.109802 -3.953823
 17
 44.305252
  C 0.930819 -0.031180 0.126825
  C 2.423562 -0.069218 0.052169
  C 3.103016 -0.589815 -0.969844
  C 4.543774 -0.623876 -1.036706
  C 5.205944 -1.141039 -2.051978
  C 7.072892 -1.126393 -2.023238
  C 7.772323 -1.688578 -3.126887
  H 8.838613 -1.690196 -3.130083
  H 0.596895 0.437870 1.047614
  H 0.518549 -1.040654 0.083307
  H 0.518601 0.527108 -0.715247
  H 2.964638 0.356977 0.888868
  H 2.571060 -1.017018 -1.808536
  H 5.070888 -0.195992 -0.196704
  H 4.812807 -1.594066 -2.941352
  H 7.510689 -0.683673 -1.154112
  H 7.242315 -2.110664 -3.955507
 17
 76.163189
  C 0.887048 -0.007302 0.173766
  C 2.376508 -0.063319 0.063808
  C 3.025000 -0.592983 -0.976037
  C 4.457861 -0.642657 -1.073586
  C 5.083465 -1.161091 -2.091362
  C 7.261117 -1.142234 -2.054403
  C 7.913422 -1.690080 -3.129865
  H 9.016917 -1.703221 -3.155608
  H 0.582988 0.468702 1.108161
  H 0.462948 -1.006058 0.147673
  H 0.462987 0.558915 -0.649459
  H 2.940286 0.355317 0.885696
  H 2.473110 -1.013038 -1.800684
  H 4.997291 -0.222534 -0.248822
  H 4.729382 -1.617855 -2.988045
  H 7.668567 -0.684097 -1.155019
  H 7.368068 -2.113538 -3.961081
 17
 101.660560
  C 0.831721 0.020457 0.228285
  C 2.307026 -0.052093 0.085777
  C 2.921736 -0.587162 -0.964628
  C 4.387986 -0.654868 -1.097568
  C 4.995017 -1.181336 -2.131104
  C 7.456571 -1.160588 -2.090258
  C 8.083910 -1.702299 -3.153785
  H 9.164710 -1.726578 -3.201525
  H 0.554506 0.499051 1.167768
  H 0.396651 -0.974106 0.207983
  H 0.396572 0.588804 -0.588220
  H 2.892162 0.358751 0.892249
  H 2.336613 -1.006432 -1.787738
  H 4.955906 -0.232490 -0.268376
  H 4.667904 -1.640280 -3.032128
  H 7.824850 -0.702214 -1.190422
  H 7.551288 -2.115238 -3.964584
 17
 119.468219
  C 0.799667 0.045807 0.277898
  C 2.264970 -0.042607 0.104163
  C 2.849867 -0.586718 -0.963946
  C 4.288253 -0.668415 -1.124302
  C 4.876637 -1.196206 -2.160406
  C 7.632873 -1.174187 -2.116830
  C 8.233048 -1.704732 -3.158452
  H 9.318472 -1.741918 -3.231555
  H 0.556149 0.515303 1.199418
  H 0.350140 -0.951188 0.266783
  H 0.350441 0.622507 -0.534496
  H 2.874997 0.364190 0.902606
  H 2.249864 -0.998719 -1.772799
  H 4.871430 -0.246220 -0.295453
  H 4.576407 -1.665598 -3.081961
  H 7.960795 -0.705126 -1.196021
  H 7.694327 -2.122420 -3.978664
 17
 130.618015
  C 0.732348 0.070044 0.325576
  C 2.212822 -0.033655 0.121990
  C 2.772755 -0.581226 -0.953024
  C 4.219111 -0.677241 -1.141548
  C 4.796946 -1.205369 -2.178353
  C 7.813759 -1.187125 -2.142503
  C 8.404911 -1.719764 -3.188126
  H 9.490012 -1.770187 -3.286973
  H 0.503580 0.549418 1.266724
  H 0.272228 -0.922892 0.320359
  H 0.272294 0.649655 -0.480531
  H 2.842032 0.366799 0.908201
  H 2.158310 -0.985438 -1.746556
  H 4.810682 -0.262460 -0.327264
  H 4.517763 -1.672379 -3.095180
  H 8.106778 -0.721458 -1.228343
  H 7.854796 -2.137762 -4.008535
 17
 137.434529
  C 0.675484 0.090484 0.365686
  C 2.148322 -0.022007 0.144923
  C 2.692332 -0.572940 -0.936723
  C 4.138130 -0.678234 -1.143408
  C 4.712313 -1.207318 -2.182108
  C 7.999919 -1.208350 -2.184256
  C 8.580181 -1.738323 -3.224580
  H 9.662794 -1.798011 -3.341590
  H 0.459411 0.574570 1.316150
  H 0.210895 -0.896735 0.365381
  H 0.210894 0.670782 -0.433056
  H 2.786969 0.373097 0.920692
  H 2.069468 -0.971885 -1.719974
  H 4.739222 -0.265379 -0.332856
  H 4.441599 -1.673506 -3.097329
  H 8.265528 -0.741691 -1.268123
  H 8.021814 -2.157399 -4.047143
 17
 141.453221
  C 0.593655 0.113511 0.411036
  C 2.087383 -0.009462 0.169728
  C 2.616654 -0.561462 -0.914055
  C 4.066757 -0.675235 -1.137394
  C 4.634190 -1.203514 -2.174573
  C 8.200565 -1.238389 -2.243332
  C 8.765242 -1.762096 -3.271388
  H 9.836979 -1.829968 -3.404331
  H 0.390740 0.592865 1.352270
  H 0.126918 -0.856923 0.415866
  H 0.126554 0.688493 -0.371669
  H 2.738585 0.382262 0.938895
  H 1.979588 -0.959248 -1.695050
  H 4.672015 -0.269292 -0.340396
  H 4.367747 -1.670671 -3.091721
  H 8.443301 -0.766433 -1.316730
  H 8.207521 -2.176643 -4.084931
 17
 142.916413
  C 0.541685 0.127713 0.438865
  C 2.017395 0.006246 0.200416
  C 2.545600 -0.547825 -0.887379
  C 3.984110 -0.660904 -1.109293
  C 4.552761 -1.191588 -2.151172
  C 8.370427 -1.265156 -2.295867
  C 8.943649 -1.790215 -3.326577
  H 10.026752 -1.860033 -3.463294
  H 0.338502 0.613820 1.393227
  H 0.073076 -0.852957 0.444099
  H 0.072892 0.708772 -0.351572
  H 2.664887 0.396871 0.967352
  H 1.907524 -0.946531 -1.670189
  H 4.592752 -0.251170 -0.304834
  H 4.272922 -1.661045 -3.072852
  H 8.610157 -0.795397 -1.373562
  H 8.377951 -2.209766 -4.150003
 17
 111.111000
  C 0.495934 0.138994 0.461010
  C 1.971652 0.017547 0.222600
  C 2.499893 -0.536519 -0.865180
  C 3.938410 -0.649578 -1.087057
  C 4.507096 -1.180257 -2.128921
  C 8.454822 -1.256275 -2.278443
  C 9.085880 -1.834270 -3.413065
  H 10.168987 -1.904073 -3.549754
  H 0.292719 0.625099 1.415366
  H 0.027339 -0.841683 0.466234
  H 0.027152 0.720044 -0.329440
  H 2.619118 0.408183 0.989551
  H 1.861842 -0.935236 -1.648006
  H 4.547025 -0.239833 -0.282583
  H 4.227287 -1.649720 -3.050607
  H 8.694521 -0.786510 -1.356133
  H 8.520209 -2.253832 -4.236505
 17
 143.537055
  C 0.472674 0.156052 0.494305
  C 1.941090 0.024628 0.236356
  C 2.450127 -0.533422 -0.859000
  C 3.888370 -0.657330 -1.102252
  C 4.439329 -1.191721 -2.151200
  C 8.596982 -1.297975 -2.360212
  C 9.170489 -1.821280 -3.387381
  H 10.254142 -1.890178 -3.522486
  H 0.287045 0.642022 1.448136
  H -0.003762 -0.823835 0.506408
  H -0.003771 0.741854 -0.291308
  H 2.604925 0.412464 0.997603
  H 1.800879 -0.926085 -1.629713
  H 4.509413 -0.253109 -0.308845
  H 4.137947 -1.655407 -3.061334
  H 8.843206 -0.828441 -1.438619
  H 8.606073 -2.239931 -4.209537
