 12
 0.000000
  C 0.909804 0.051504 0.222949
  C 2.397798 0.061421 0.047147
  H 2.982527 0.010247 0.954135
  C 3.019510 0.127230 -1.119123
  C 2.372323 0.203059 -2.462991
  H 1.287768 0.200473 -2.417183
  H 4.102094 0.128995 -1.150362
  H 0.645055 -0.007886 1.275414
  H 0.465739 -0.805642 -0.281206
  H 0.465741 0.959926 -0.181579
  H 2.698424 -0.641195 -3.073961
  H 2.698434 1.110703 -2.975123
 12
 6.469092
  C 0.844228 0.058199 0.247042
  C 2.455321 0.060105 0.035677
  H 3.018833 -0.017457 0.951270
  C 3.047970 0.079032 -1.140892
  C 2.358177 0.231250 -2.456851
  H 1.278355 0.258735 -2.380135
  H 4.128813 0.108565 -1.193334
  H 0.625162 -0.034270 1.301379
  H 0.406605 -0.785525 -0.293045
  H 0.429564 0.982044 -0.136683
  H 2.658388 -0.618495 -3.096379
  H 2.788288 1.076139 -2.991108
 12
 19.040113
  C 0.758097 0.056797 0.256608
  C 2.527631 0.061306 0.027980
  H 3.073992 -0.011794 0.953777
  C 3.094660 0.087245 -1.157516
  C 2.385783 0.220473 -2.461921
  H 1.307338 0.263087 -2.345188
  H 4.177324 0.107669 -1.222717
  H 0.572570 -0.036442 1.318083
  H 0.354741 -0.796215 -0.291931
  H 0.373277 0.992048 -0.133495
  H 2.646604 -0.633852 -3.096556
  H 2.761208 1.089968 -2.990992
 12
 35.711006
  C 0.670408 0.055143 0.268398
  C 2.598160 0.061943 0.020825
  H 3.119787 -0.008845 0.957931
  C 3.134588 0.095001 -1.171288
  C 2.403329 0.215250 -2.463609
  H 1.331459 0.259948 -2.315543
  H 4.214740 0.109948 -1.255545
  H 0.525911 -0.040434 1.335878
  H 0.306228 -0.800744 -0.286123
  H 0.320227 1.000148 -0.126658
  H 2.643771 -0.641724 -3.096976
  H 2.746798 1.097245 -2.997823
 12
 53.360862
  C 0.580483 0.053967 0.297176
  C 2.663935 0.064371 0.011724
  H 3.184704 -0.004479 0.946228
  C 3.179814 0.099253 -1.188791
  C 2.426474 0.214397 -2.472831
  H 1.353448 0.257273 -2.304116
  H 4.263321 0.114549 -1.290807
  H 0.459909 -0.040955 1.361811
  H 0.224741 -0.804751 -0.256511
  H 0.238986 0.996768 -0.095279
  H 2.657221 -0.644370 -3.109132
  H 2.755483 1.099317 -3.013676
 12
 70.125899
  C 0.490712 0.051806 0.321516
  C 2.729961 0.066730 -0.000191
  H 3.247500 -0.000137 0.935153
  C 3.222385 0.102840 -1.207189
  C 2.446453 0.213375 -2.476198
  H 1.378707 0.253678 -2.284214
  H 4.303374 0.119579 -1.329353
  H 0.395626 -0.043028 1.389425
  H 0.149216 -0.809717 -0.232645
  H 0.160657 0.997825 -0.072881
  H 2.666146 -0.646294 -3.115456
  H 2.759515 1.100327 -3.023168
 12
 84.722923
  C 0.400346 0.049785 0.345778
  C 2.795575 0.069305 -0.010329
  H 3.308454 0.004353 0.926886
  C 3.264637 0.106130 -1.223905
  C 2.463753 0.212353 -2.479276
  H 1.398903 0.250212 -2.262663
  H 4.345710 0.124336 -1.367691
  H 0.330954 -0.044367 1.413836
  H 0.075000 -0.815577 -0.210481
  H 0.084550 0.998018 -0.051277
  H 2.671483 -0.647236 -3.120849
  H 2.760487 1.100790 -3.032541
 12
 96.874002
  C 0.308809 0.047390 0.370295
  C 2.859815 0.072112 -0.021130
  H 3.368451 0.008928 0.917428
  C 3.305639 0.109621 -1.241228
  C 2.479995 0.211441 -2.480685
  H 1.420806 0.246542 -2.239345
  H 4.384337 0.129251 -1.407881
  H 0.264635 -0.046257 1.439242
  H -0.000015 -0.820823 -0.188021
  H 0.007228 0.997920 -0.029764
  H 2.675830 -0.648907 -3.125065
  H 2.760430 1.101359 -3.040206
 12
 106.668129
  C 0.216238 0.044767 0.395844
  C 2.922829 0.075088 -0.031745
  H 3.428318 0.013550 0.907909
  C 3.345875 0.113168 -1.257989
  C 2.494816 0.210520 -2.481984
  H 1.440699 0.242863 -2.216249
  H 4.422448 0.133981 -1.448219
  H 0.196252 -0.048243 1.464311
  H -0.076700 -0.826095 -0.164724
  H -0.071600 0.997209 -0.007185
  H 2.678726 -0.650075 -3.128492
  H 2.759092 1.101493 -3.047647
 12
 114.334516
  C 0.122181 0.041827 0.422671
  C 2.983987 0.078249 -0.042984
  H 3.487633 0.018268 0.896863
  C 3.384642 0.116888 -1.275157
  C 2.508771 0.209650 -2.482610
  H 1.460935 0.239215 -2.193312
  H 4.457682 0.138630 -1.489327
  H 0.125388 -0.050607 1.490735
  H -0.155893 -0.831086 -0.139955
  H -0.152933 0.995844 0.016882
  H 2.681037 -0.651582 -3.131167
  H 2.757177 1.101535 -3.054183
 12
 120.175870
  C 0.026501 0.038536 0.451380
  C 3.043087 0.081503 -0.054524
  H 3.546412 0.023024 0.884935
  C 3.421832 0.120646 -1.292278
  C 2.521533 0.208781 -2.483373
  H 1.479851 0.235666 -2.171621
  H 4.490970 0.143052 -1.530286
  H 0.051779 -0.053259 1.518324
  H -0.238020 -0.836104 -0.113118
  H -0.237126 0.993873 0.043062
  H 2.682517 -0.652936 -3.133487
  H 2.754507 1.101265 -3.060543
 12
 124.512924
  C -0.071342 0.034853 0.482728
  C 3.099364 0.084822 -0.066807
  H 3.604030 0.027846 0.871310
  C 3.456821 0.124381 -1.309837
  C 2.533389 0.207936 -2.484439
  H 1.498228 0.232299 -2.151812
  H 4.521250 0.147246 -1.570936
  H -0.025195 -0.056269 1.548495
  H -0.324196 -0.841180 -0.083221
  H -0.325258 0.991139 0.072286
  H 2.683707 -0.654437 -3.135848
  H 2.751671 1.100853 -3.066814
 12
 127.663375
  C -0.171697 0.030726 0.516987
  C 3.152428 0.088108 -0.079526
  H 3.659786 0.032639 0.856675
  C 3.489038 0.127989 -1.327487
  C 2.543436 0.207043 -2.485846
  H 1.514696 0.229068 -2.133687
  H 4.548396 0.151107 -1.610970
  H -0.105533 -0.059647 1.581161
  H -0.414309 -0.846474 -0.050107
  H -0.417236 0.987765 0.104669
  H 2.683599 -0.655962 -3.138206
  H 2.747661 1.100185 -3.073043
 12
 129.878111
  C -0.275390 0.026100 0.554985
  C 3.201253 0.091266 -0.092684
  H 3.712528 0.037336 0.840892
  C 3.517443 0.131360 -1.345276
  C 2.550909 0.206046 -2.487531
  H 1.528685 0.225949 -2.117240
  H 4.571288 0.154541 -1.650248
  H -0.189833 -0.063457 1.617441
  H -0.509256 -0.852099 -0.012910
  H -0.513905 0.983658 0.141080
  H 2.681452 -0.657683 -3.140609
  H 2.741802 1.099305 -3.079195
