 20
 0.000000
  C -1.223374 0.436171 2.440171
  C -2.039950 0.559042 1.156544
  C -2.616466 1.968615 1.022954
  C -1.207748 0.215218 -0.059594
  O -0.009621 0.005819 0.005393
  C -1.920975 0.130924 -1.378803
  H -1.843347 0.638262 3.310217
  H -0.393941 1.139189 2.444676
  H -0.812952 -0.566902 2.543891
  H -2.859583 -0.166988 1.200872
  H -1.823515 2.705112 0.906376
  H -3.196978 2.228318 1.904694
  H -3.273248 2.051029 0.158868
  H -2.997715 0.207629 -1.252258
  H -1.697285 -0.826060 -1.844229
  H -1.578916 0.938562 -2.020953
  O 3.359634 0.173878 0.042758
  H 2.393677 0.004661 0.003369
  H 3.867230 -0.665016 0.061237
  H 3.590234 0.748977 0.802613
 20
 -1.335910
  C -1.176215 0.442129 2.444720
  C -1.969320 0.548132 1.162421
  C -2.561816 1.949704 1.015364
  C -1.126624 0.218223 -0.054196
  O 0.076008 0.031333 0.006765
  C -1.854041 0.128604 -1.369180
  H -1.816793 0.637589 3.297086
  H -0.369924 1.168890 2.449315
  H -0.755233 -0.553782 2.552939
  H -2.785311 -0.180540 1.190526
  H -1.769701 2.686357 0.919606
  H -3.149640 2.188907 1.895331
  H -3.207094 2.023631 0.146183
  H -2.926470 0.191135 -1.252260
  H -1.601455 -0.806998 -1.852686
  H -1.517061 0.930279 -2.015077
  O 3.122806 0.188964 0.041959
  H 2.159855 0.040651 0.006405
  H 3.592876 -0.652456 0.064970
  H 3.351349 0.744722 0.796067
 20
 -3.131012
  C -1.107397 0.427353 2.454201
  C -1.920506 0.533513 1.150497
  C -2.530515 1.954741 0.999407
  C -1.082911 0.211529 -0.072439
  O 0.118181 0.020743 -0.014327
  C -1.804864 0.121418 -1.365611
  H -1.754384 0.616080 3.318054
  H -0.304706 1.168208 2.461393
  H -0.673803 -0.574657 2.561389
  H -2.743185 -0.201890 1.174813
  H -1.739970 2.697986 0.906913
  H -3.121498 2.191142 1.884092
  H -3.182783 2.026737 0.122026
  H -2.889517 0.171054 -1.245134
  H -1.531813 -0.812420 -1.863854
  H -1.472168 0.936682 -2.016204
  O 2.937371 0.228106 0.063886
  H 1.953215 0.119580 0.015626
  H 3.373129 -0.646331 0.055989
  H 3.178231 0.730138 0.850250
 20
 -3.916918
  C -1.060170 0.420392 2.429345
  C -1.872532 0.530941 1.142651
  C -2.463051 1.933898 0.996092
  C -1.051870 0.210971 -0.062804
  O 0.151313 0.035043 0.010741
  C -1.776175 0.113002 -1.376025
  H -1.694082 0.600340 3.288484
  H -0.261102 1.155067 2.438568
  H -0.630018 -0.568446 2.528802
  H -2.689077 -0.188281 1.171325
  H -1.668853 2.667407 0.904710
  H -3.047347 2.169120 1.878596
  H -3.112131 2.013226 0.127267
  H -2.854286 0.147569 -1.262657
  H -1.491418 -0.806168 -1.873061
  H -1.455265 0.925724 -2.017403
  O 2.732000 0.259410 0.096694
  H 1.753401 0.141778 0.059713
  H 3.169315 -0.643841 0.098837
  H 2.996862 0.796335 0.860619
 20
 -2.582376
  C -1.018151 0.431366 2.425031
  C -1.840974 0.531270 1.141867
  C -2.447764 1.936454 0.990531
  C -1.021752 0.214095 -0.076081
  O 0.189301 0.049538 -0.002910
  C -1.746855 0.096782 -1.374817
  H -1.653676 0.604085 3.290981
  H -0.229476 1.179505 2.433213
  H -0.573561 -0.556786 2.523825
  H -2.659143 -0.199480 1.175666
  H -1.660986 2.679430 0.894120
  H -3.032883 2.171466 1.874671
  H -3.099184 2.004470 0.124002
  H -2.822459 0.110086 -1.255830
  H -1.444251 -0.819966 -1.874591
  H -1.445435 0.916491 -2.023930
  O 2.632128 0.264947 0.132420
  H 1.612185 0.194569 -0.009627
  H 3.033492 -0.632039 0.088362
  H 2.880848 0.726583 0.955745
 20
 0.716128
  C -1.025117 0.426139 2.440311
  C -1.835783 0.529788 1.148651
  C -2.427423 1.935974 0.992179
  C -1.007288 0.209050 -0.063028
  O 0.212337 0.043151 0.000062
  C -1.715358 0.090266 -1.369106
  H -1.671262 0.600097 3.291702
  H -0.241424 1.169140 2.452988
  H -0.589094 -0.560403 2.537101
  H -2.659047 -0.194410 1.179210
  H -1.632949 2.676457 0.902933
  H -3.021264 2.178306 1.871582
  H -3.067050 2.007077 0.123107
  H -2.795472 0.099675 -1.260410
  H -1.399330 -0.831533 -1.870569
  H -1.406552 0.919577 -2.016298
  O 2.579367 0.275291 0.096241
  H 1.505806 0.176135 -0.019721
  H 3.001001 -0.605630 0.071130
  H 2.809258 0.741985 0.914768
 20
 4.608172
  C -1.014091 0.416817 2.450309
  C -1.831216 0.525017 1.144261
  C -2.415176 1.935176 0.984758
  C -1.005989 0.204891 -0.067676
  O 0.212172 0.044102 0.005321
  C -1.706969 0.088775 -1.373092
  H -1.663536 0.587250 3.303700
  H -0.228276 1.164364 2.467753
  H -0.576285 -0.572166 2.545561
  H -2.658814 -0.188935 1.174037
  H -1.615909 2.672065 0.901146
  H -3.012329 2.177377 1.863049
  H -3.050704 2.009171 0.111658
  H -2.784689 0.089209 -1.270479
  H -1.381502 -0.821247 -1.881257
  H -1.403264 0.922051 -2.010918
  O 2.560464 0.277408 0.080264
  H 1.393489 0.170298 -0.012428
  H 2.967703 -0.602389 0.116387
  H 2.782123 0.771604 0.880447
 20
 8.385596
  C -1.016555 0.412483 2.434752
  C -1.827726 0.523272 1.149850
  C -2.403782 1.935867 0.987195
  C -1.009700 0.202286 -0.065579
  O 0.204859 0.037011 0.012736
  C -1.699145 0.088247 -1.364624
  H -1.657089 0.583613 3.288379
  H -0.228319 1.155147 2.453201
  H -0.580991 -0.576418 2.530488
  H -2.669055 -0.189674 1.182972
  H -1.611546 2.656520 0.904536
  H -2.986884 2.177088 1.853661
  H -3.052881 2.015523 0.099428
  H -2.798076 0.087770 -1.267068
  H -1.369971 -0.813970 -1.871497
  H -1.390765 0.921467 -1.999444
  O 2.565873 0.284782 0.079554
  H 1.289736 0.163311 -0.008435
  H 2.982277 -0.589580 0.131402
  H 2.773960 0.783231 0.876184
 20
 11.098774
  C -1.042134 0.404972 2.445108
  C -1.845251 0.522267 1.151400
  C -2.400285 1.935108 0.984218
  C -1.027764 0.196601 -0.061486
  O 0.196870 0.009164 0.020182
  C -1.715153 0.083204 -1.368710
  H -1.691132 0.581916 3.294940
  H -0.246614 1.141353 2.467647
  H -0.618249 -0.585403 2.539531
  H -2.686051 -0.171972 1.182146
  H -1.582723 2.663994 0.902816
  H -3.000743 2.190156 1.866612
  H -3.029430 2.015072 0.110588
  H -2.789884 0.089316 -1.276446
  H -1.387820 -0.824334 -1.879229
  H -1.399946 0.912500 -2.005560
  O 2.618790 0.292320 0.064064
  H 1.213736 0.141514 -0.018076
  H 3.060694 -0.560647 0.123732
  H 2.825325 0.808838 0.855406
 20
 13.580995
  C -1.061121 0.383756 2.448883
  C -1.862720 0.519851 1.149563
  C -2.388564 1.954185 0.977545
  C -1.054242 0.180404 -0.054275
  O 0.166504 -0.037519 0.043240
  C -1.729623 0.078281 -1.363481
  H -1.713021 0.572600 3.303403
  H -0.246976 1.107630 2.475102
  H -0.649186 -0.629085 2.543269
  H -2.715561 -0.151892 1.181492
  H -1.570982 2.651893 0.899777
  H -2.974077 2.218503 1.841655
  H -3.011627 2.050603 0.107118
  H -2.812466 0.097811 -1.281418
  H -1.404669 -0.836741 -1.876990
  H -1.397732 0.905798 -2.000128
  O 2.662679 0.313285 0.059538
  H 1.123892 0.110314 -0.021158
  H 3.152142 -0.510825 0.138312
  H 2.874170 0.867914 0.818219
 20
 17.403825
  C -1.100679 0.361230 2.464151
  C -1.887868 0.516557 1.152740
  C -2.380771 1.973685 0.970909
  C -1.080135 0.163201 -0.043705
  O 0.134326 -0.092927 0.068040
  C -1.743990 0.073880 -1.352488
  H -1.754525 0.562543 3.300131
  H -0.278357 1.062182 2.498395
  H -0.718623 -0.648814 2.556498
  H -2.765480 -0.140165 1.180410
  H -1.540374 2.659106 0.899568
  H -2.971400 2.256439 1.836673
  H -3.004652 2.084361 0.080590
  H -2.824891 0.111109 -1.279424
  H -1.430820 -0.834386 -1.860961
  H -1.396590 0.889509 -1.984502
  O 2.757404 0.334592 0.032773
  H 1.040629 0.069772 -0.038043
  H 3.304930 -0.453688 0.119770
  H 2.970942 0.920696 0.766186
 20
 21.649610
  C -1.153758 0.345307 2.488256
  C -1.926985 0.519293 1.152734
  C -2.373801 1.981727 0.961043
  C -1.117749 0.153666 -0.035213
  O 0.095589 -0.140488 0.092929
  C -1.772094 0.076928 -1.345558
  H -1.820568 0.565418 3.312257
  H -0.314222 1.031536 2.531572
  H -0.800924 -0.672855 2.581806
  H -2.814983 -0.111895 1.172392
  H -1.514188 2.644301 0.897607
  H -2.966781 2.284175 1.820080
  H -2.978463 2.104795 0.071451
  H -2.854867 0.135697 -1.277697
  H -1.468203 -0.845237 -1.857792
  H -1.404582 0.889449 -1.981451
  O 2.897776 0.358230 -0.005417
  H 0.964460 0.025448 -0.061283
  H 3.492053 -0.397832 0.103886
  H 3.099288 0.978044 0.707753
 20
 24.507345
  C -1.223893 0.332106 2.506730
  C -1.971767 0.520568 1.158358
  C -2.375715 1.994340 0.956823
  C -1.159734 0.141482 -0.018848
  O 0.045543 -0.176268 0.129612
  C -1.801273 0.081360 -1.338912
  H -1.906393 0.576035 3.314065
  H -0.380942 1.002103 2.561052
  H -0.900136 -0.696738 2.607892
  H -2.873888 -0.091541 1.169238
  H -1.497146 2.634534 0.902755
  H -2.969942 2.315696 1.807951
  H -2.965950 2.132963 0.060051
  H -2.882712 0.167625 -1.283363
  H -1.513695 -0.836719 -1.845981
  H -1.408534 0.882314 -1.969807
  O 3.098991 0.376570 -0.064178
  H 0.888842 -0.032541 -0.084170
  H 3.711663 -0.346227 0.094833
  H 3.285574 1.039490 0.613122
