 13
 0.000000
  H 3.588777 -0.602310 -0.994376
  C 4.663839 -0.608501 -1.006529
  C 5.375543 -1.117821 -2.006406
  C 6.819191 -1.129976 -2.030266
  C 7.534882 -1.640098 -3.031726
  C 9.023675 -1.662152 -3.075017
  H 5.161500 -0.174094 -0.153717
  H 4.871228 -1.552637 -2.860022
  H 7.325677 -0.695830 -1.177966
  H 7.034064 -2.075655 -3.886785
  H 9.456994 -1.209410 -2.186213
  H 9.381882 -1.118499 -3.949709
  H 9.381880 -2.689325 -3.149561
 13
 10.386662
  H 3.507060 -0.582659 -0.955796
  C 4.582487 -0.595630 -0.981261
  C 5.267169 -1.108099 -1.987319
  C 6.838023 -1.130584 -2.031461
  C 7.521778 -1.642152 -3.035759
  C 9.142264 -1.675944 -3.102093
  H 5.092331 -0.163997 -0.133897
  H 4.758194 -1.540119 -2.835447
  H 7.349658 -0.699271 -1.184722
  H 7.014119 -2.074523 -3.884565
  H 9.577593 -1.225346 -2.217497
  H 9.483776 -1.134777 -3.979343
  H 9.483776 -2.703726 -3.180151
 13
 32.916127
  H 3.448241 -0.561051 -0.913407
  C 4.524457 -0.582516 -0.955556
  C 5.169471 -1.102349 -1.976057
  C 6.864593 -1.129954 -2.030128
  C 7.499269 -1.647639 -3.046450
  C 9.255067 -1.687260 -3.124348
  H 5.045681 -0.155175 -0.116608
  H 4.679490 -1.537698 -2.830704
  H 7.355767 -0.695769 -1.177796
  H 7.009833 -2.082381 -3.899973
  H 9.658050 -1.231629 -2.229848
  H 9.558586 -1.139949 -4.009271
  H 9.558646 -2.724890 -3.201979
 13
 59.828868
  H 3.388092 -0.535886 -0.863965
  C 4.463500 -0.568145 -0.927304
  C 5.073543 -1.097040 -1.965623
  C 6.887716 -1.130748 -2.031794
  C 7.476446 -1.653469 -3.057978
  C 9.372633 -1.698972 -3.147375
  H 5.000331 -0.146242 -0.099033
  H 4.603480 -1.535804 -2.826956
  H 7.354821 -0.693192 -1.172818
  H 7.011216 -2.091656 -3.918225
  H 9.740597 -1.238408 -2.243128
  H 9.635254 -1.145541 -4.038271
  H 9.635276 -2.745114 -3.223508
 13
 87.614324
  H 3.320949 -0.509956 -0.813109
  C 4.403594 -0.554974 -0.901468
  C 4.981629 -1.093295 -1.958261
  C 6.906820 -1.135053 -2.040157
  C 7.449598 -1.658958 -3.068680
  C 9.493896 -1.710856 -3.170595
  H 4.965918 -0.133914 -0.074857
  H 4.532383 -1.532279 -2.820038
  H 7.347265 -0.694051 -1.174438
  H 7.014376 -2.100431 -3.935400
  H 9.822765 -1.249411 -2.264625
  H 9.713707 -1.155522 -4.056584
  H 9.713646 -2.753841 -3.242308
 13
 112.442798
  H 3.321550 -0.478398 -0.751052
  C 4.387925 -0.543417 -0.878715
  C 4.917756 -1.083431 -1.938823
  C 6.851920 -1.139886 -2.049798
  C 7.351220 -1.672841 -3.096095
  C 9.646212 -1.717173 -3.183069
  H 4.972641 -0.136814 -0.080619
  H 4.472551 -1.526136 -2.807869
  H 7.248415 -0.690432 -1.167514
  H 6.998913 -2.128964 -3.991607
  H 9.903603 -1.243168 -2.252469
  H 9.813265 -1.144559 -4.079193
  H 9.813262 -2.778909 -3.246840
 13
 121.635541
  H 3.378302 -0.451228 -0.695352
  C 4.446276 -0.532741 -0.836494
  C 4.967617 -1.081311 -1.915658
  C 6.500215 -1.168630 -2.113160
  C 7.022173 -1.704458 -3.166267
  C 9.970034 -1.709000 -3.160521
  H 5.058695 -0.103211 -0.058624
  H 4.388877 -1.499353 -2.731479
  H 7.016609 -0.740765 -1.269321
  H 6.786970 -2.163817 -4.091352
  H 10.083960 -1.235652 -2.214828
  H 10.068106 -1.124941 -4.048161
  H 10.063628 -2.769973 -3.224301
 13
 128.852914
  H 3.346856 -0.424805 -0.653772
  C 4.413402 -0.521495 -0.809629
  C 4.917474 -1.074287 -1.899901
  C 6.402783 -1.177569 -2.126180
  C 6.918613 -1.714069 -3.177601
  C 10.168580 -1.716031 -3.177621
  H 5.041123 -0.089819 -0.049079
  H 4.320968 -1.474224 -2.684357
  H 6.945662 -0.767114 -1.302325
  H 6.690481 -2.173366 -4.111380
  H 10.249400 -1.235870 -2.211668
  H 10.226130 -1.125183 -4.068863
  H 10.224941 -2.783099 -3.244523
 13
 132.423879
  H 3.293819 -0.419433 -0.618322
  C 4.358127 -0.485590 -0.790794
  C 4.854660 -1.041724 -1.884892
  C 6.315038 -1.177279 -2.135322
  C 6.844788 -1.727628 -3.185855
  C 10.373195 -1.725066 -3.198136
  H 4.993756 -0.106215 -0.007713
  H 4.203364 -1.446153 -2.647862
  H 6.936341 -0.775996 -1.337440
  H 6.578719 -2.183253 -4.101078
  H 10.437765 -1.244730 -2.247687
  H 10.411169 -1.142333 -4.092555
  H 10.414660 -2.790636 -3.260060
 13
 134.603826
  H 3.270520 -0.384487 -0.594898
  C 4.327038 -0.483937 -0.764902
  C 4.806568 -1.047634 -1.864887
  C 6.230245 -1.184865 -2.127606
  C 6.755756 -1.728442 -3.184301
  C 10.578013 -1.735261 -3.222731
  H 4.977242 -0.090249 0.004311
  H 4.136428 -1.434791 -2.626631
  H 6.863362 -0.792155 -1.348126
  H 6.457723 -2.184972 -4.106773
  H 10.630642 -1.255587 -2.263517
  H 10.582704 -1.149147 -4.109592
  H 10.587846 -2.796209 -3.286602
 13
 135.060358
  H 3.233064 -0.373620 -0.567361
  C 4.283856 -0.474528 -0.747514
  C 4.751730 -1.040282 -1.850990
  C 6.179527 -1.184376 -2.126396
  C 6.693487 -1.728334 -3.186486
  C 10.768766 -1.746613 -3.247152
  H 4.944238 -0.080619 0.019438
  H 4.083095 -1.422187 -2.606767
  H 6.822082 -0.789113 -1.342598
  H 6.382254 -2.176292 -4.085259
  H 10.809151 -1.271820 -2.299723
  H 10.739191 -1.154440 -4.143470
  H 10.744598 -2.819443 -3.309674
 13
 135.458594
  H 3.218854 -0.363138 -0.525974
  C 4.263248 -0.456345 -0.730436
  C 4.711856 -1.023685 -1.840647
  C 6.120311 -1.179433 -2.135919
  C 6.615463 -1.733444 -3.199510
  C 10.964660 -1.759912 -3.272045
  H 4.942994 -0.091622 0.043553
  H 4.017262 -1.412412 -2.586195
  H 6.779493 -0.784007 -1.367827
  H 6.280774 -2.184471 -4.087565
  H 10.998801 -1.267428 -2.304017
  H 10.896228 -1.180367 -4.161182
  H 10.901853 -2.820875 -3.325983
 13
 135.542303
  H 3.188382 -0.374532 -0.463043
  C 4.235931 -0.440291 -0.704046
  C 4.662587 -1.007041 -1.824334
  C 6.080459 -1.175291 -2.141575
  C 6.558820 -1.734959 -3.212174
  C 11.153205 -1.770495 -3.283090
  H 4.922427 -0.071307 0.040916
  H 3.965380 -1.391006 -2.550891
  H 6.751938 -0.792083 -1.385607
  H 6.195559 -2.192963 -4.105621
  H 11.197963 -1.288052 -2.342158
  H 11.064583 -1.186055 -4.179959
  H 11.068167 -2.838810 -3.331413
