 32
 0.000000
  C 0.911347 0.048625 0.273990
  C 2.402957 0.059206 0.086382
  C 3.241379 -0.012386 1.355298
  C 2.526855 -0.088336 2.701166
  C 3.521567 -0.153362 3.853658
  C 2.996704 0.127484 -1.123633
  C 2.354844 0.204944 -2.496385
  C 0.844682 0.217532 -2.719359
  C 0.516194 0.301471 -4.206996
  C 4.454112 0.132318 -1.209212
  C 5.195294 0.194913 -2.318640
  O 6.554769 0.195872 -2.335531
  H 0.603491 -0.010012 1.313105
  H 0.468464 -0.819708 -0.206259
  H 0.468464 0.965472 -0.105527
  H 3.886818 0.873400 1.386024
  H 3.886816 -0.896010 1.286184
  H 1.893352 -0.977422 2.741969
  H 1.893351 0.790510 2.841729
  H 4.156742 -1.033086 3.771767
  H 2.991059 -0.206872 4.801843
  H 4.156741 0.729990 3.871247
  H 2.741690 -0.643625 -3.071078
  H 2.741688 1.112781 -2.971966
  H 0.391935 1.078639 -2.229878
  H 0.391937 -0.693181 -2.329859
  H 0.922095 1.210557 -4.646285
  H -0.562094 0.309536 -4.349902
  H 0.922094 -0.552423 -4.745764
  H 4.998154 0.079701 -0.276690
  H 4.819033 0.251799 -3.326693
  H 6.883235 0.144713 -1.428856
 32
 3.480134
  C 0.897295 0.048303 0.279740
  C 2.391490 0.058642 0.096446
  C 3.233876 -0.012812 1.362847
  C 2.518107 -0.088786 2.709144
  C 3.525413 -0.153355 3.853476
  C 2.990259 0.127131 -1.117310
  C 2.348743 0.204767 -2.493240
  C 0.838233 0.217443 -2.717831
  C 0.535124 0.301733 -4.211692
  C 4.449810 0.132607 -1.214297
  C 5.186382 0.195491 -2.328868
  O 6.546485 0.196618 -2.348772
  H 0.610415 -0.010531 1.322355
  H 0.452263 -0.812516 -0.212026
  H 0.452266 0.958981 -0.112064
  H 3.910323 0.788001 1.387290
  H 3.910326 -0.811294 1.297047
  H 1.886791 -0.979149 2.752168
  H 1.886781 0.791083 2.852064
  H 4.160133 -1.032456 3.760684
  H 3.008717 -0.207291 4.809205
  H 4.160131 0.730601 3.860173
  H 2.741760 -0.643484 -3.064150
  H 2.741756 1.111861 -2.965103
  H 0.382471 1.077471 -2.229777
  H 0.382472 -0.692028 -2.329624
  H 0.953381 1.209839 -4.641197
  H -0.539995 0.311102 -4.377703
  H 0.953377 -0.552287 -4.740626
  H 5.006496 0.080379 -0.288645
  H 4.804304 0.252229 -3.334385
  H 6.882763 0.145597 -1.444487
 32
 6.843879
  C 0.886421 0.048256 0.280548
  C 2.381188 0.058909 0.091621
  C 3.196960 -0.012114 1.350171
  C 2.503190 -0.088503 2.703852
  C 3.534552 -0.152353 3.835224
  C 2.979123 0.126572 -1.107507
  C 2.342150 0.204028 -2.480239
  C 0.826398 0.217263 -2.714829
  C 0.538640 0.302039 -4.217198
  C 4.450143 0.132220 -1.207533
  C 5.184394 0.194565 -2.312464
  O 6.550083 0.195399 -2.326992
  H 0.618140 -0.011204 1.334243
  H 0.436151 -0.809776 -0.220798
  H 0.436153 0.957265 -0.121091
  H 3.968058 0.737435 1.373882
  H 3.968040 -0.759565 1.289403
  H 1.872807 -0.983877 2.755753
  H 1.872768 0.795420 2.856171
  H 4.169713 -1.032175 3.728363
  H 3.036391 -0.206979 4.803238
  H 4.169807 0.734003 3.828023
  H 2.744073 -0.647765 -3.050137
  H 2.744094 1.114582 -2.950729
  H 0.366978 1.078858 -2.228655
  H 0.366989 -0.693533 -2.328681
  H 0.966601 1.210559 -4.640638
  H -0.536018 0.312371 -4.400289
  H 0.966604 -0.553082 -4.740163
  H 5.016341 0.080310 -0.287401
  H 4.804922 0.251405 -3.319844
  H 6.887570 0.144225 -1.419882
 32
 12.992118
  C 0.888436 0.048813 0.270744
  C 2.389609 0.058985 0.090292
  C 3.181896 -0.012643 1.359546
  C 2.490270 -0.088901 2.710937
  C 3.518402 -0.152797 3.843034
  C 2.990708 0.126803 -1.111563
  C 2.349932 0.203928 -2.478402
  C 0.835404 0.216756 -2.705888
  C 0.542581 0.301341 -4.204868
  C 4.458322 0.132953 -1.220466
  C 5.190090 0.195845 -2.335124
  O 6.543970 0.197076 -2.356717
  H 0.614394 -0.010219 1.316916
  H 0.441053 -0.808595 -0.233193
  H 0.441061 0.957493 -0.133541
  H 4.004177 0.688666 1.389556
  H 4.004158 -0.712881 1.310464
  H 1.859774 -0.984050 2.762554
  H 1.859740 0.794829 2.862953
  H 4.152947 -1.032081 3.737716
  H 3.018764 -0.207334 4.809426
  H 4.153062 0.732863 3.837312
  H 2.748744 -0.648068 -3.048880
  H 2.748763 1.114751 -2.949440
  H 0.377933 1.077425 -2.218260
  H 0.377960 -0.693281 -2.318198
  H 0.968381 1.209083 -4.629513
  H -0.531710 0.311412 -4.383441
  H 0.968396 -0.552868 -4.728944
  H 5.033449 0.081326 -0.305333
  H 4.807180 0.252536 -3.339945
  H 6.879370 0.146827 -1.465981
 32
 19.694370
  C 0.886079 0.048193 0.281963
  C 2.378323 0.058084 0.106519
  C 3.188606 -0.013452 1.374225
  C 2.498843 -0.089347 2.719214
  C 3.523653 -0.152961 3.846372
  C 2.978825 0.126485 -1.105738
  C 2.342179 0.204324 -2.485300
  C 0.836454 0.217894 -2.725918
  C 0.561711 0.302418 -4.223869
  C 4.430628 0.132683 -1.215511
  C 5.156589 0.195808 -2.334430
  O 6.523541 0.197530 -2.364808
  H 0.607390 -0.010405 1.320502
  H 0.443800 -0.803942 -0.221706
  H 0.443815 0.951580 -0.122645
  H 4.060172 0.656798 1.396168
  H 4.060161 -0.681922 1.320626
  H 1.872933 -0.979416 2.771273
  H 1.872950 0.789212 2.871075
  H 4.156887 -1.030816 3.740393
  H 3.025832 -0.207367 4.810654
  H 4.156865 0.731188 3.839822
  H 2.742606 -0.643358 -3.050836
  H 2.742592 1.110226 -2.951878
  H 0.375508 1.076949 -2.244111
  H 0.375511 -0.689927 -2.343803
  H 0.992532 1.208760 -4.642952
  H -0.508477 0.313139 -4.413961
  H 0.992539 -0.551020 -4.742247
  H 5.006699 0.081211 -0.303074
  H 4.765512 0.252381 -3.337315
  H 6.876919 0.145953 -1.450427
