 26
 0.000000
  H 1.461984 0.167373 0.470469
  C 2.540544 0.148357 0.422216
  C 3.303481 0.617079 1.586818
  C 2.455147 1.089944 2.763136
  C 3.332226 1.555995 3.921072
  C 3.096837 -0.323309 -0.751516
  C 4.471237 -0.420468 -0.994159
  C 5.130004 -0.878115 -2.136209
  C 4.600362 -1.394399 -3.425137
  C 3.104841 -1.496188 -3.680683
  H 2.942907 -1.895003 -4.676295
  O 6.445480 -0.881911 -2.145739
  H 3.964206 1.435443 1.276250
  H 3.964830 -0.187959 1.929239
  H 1.812724 0.278386 3.109565
  H 1.812186 1.915009 2.451293
  H 3.967236 0.748623 4.278794
  H 2.715181 1.889785 4.751528
  H 3.966639 2.386564 3.619942
  H 2.410020 -0.632235 -1.520186
  H 5.116715 -0.096073 -0.185877
  H 5.051355 -2.384199 -3.560584
  H 5.052100 -0.772419 -4.206555
  H 2.630555 -0.519248 -3.631415
  H 2.629869 -2.168533 -2.970666
  H 6.858262 -0.553379 -1.323820
 26
 10.184783
  H 1.430569 0.199807 0.550811
  C 2.505962 0.179046 0.498485
  C 3.278869 0.639260 1.642193
  C 2.438929 1.114531 2.824261
  C 3.325044 1.578008 3.976023
  C 3.115378 -0.348779 -0.815045
  C 4.474668 -0.440350 -1.043732
  C 5.141821 -0.897192 -2.183869
  C 4.617034 -1.414235 -3.474548
  C 3.122105 -1.516970 -3.732209
  H 2.965460 -1.916628 -4.729850
  O 6.456184 -0.898296 -2.186977
  H 3.942485 1.454169 1.324685
  H 3.942930 -0.168247 1.977198
  H 1.796267 0.304523 3.173863
  H 1.795929 1.940815 2.515728
  H 3.960130 0.768791 4.329319
  H 2.714808 1.913553 4.810656
  H 3.959723 2.406745 3.670454
  H 2.420953 -0.653365 -1.573096
  H 5.115924 -0.114430 -0.231543
  H 5.070500 -2.403074 -3.608603
  H 5.071166 -0.792015 -4.254335
  H 2.645674 -0.541162 -3.686823
  H 2.645088 -2.191222 -3.025740
  H 6.867100 -0.569411 -1.364405
 26
 31.144632
  H 1.378527 0.228223 0.621180
  C 2.452168 0.208285 0.571230
  C 3.248220 0.660123 1.694376
  C 2.426161 1.140781 2.889500
  C 3.331839 1.598768 4.027824
  C 3.113798 -0.375805 -0.882382
  C 4.468589 -0.458642 -1.089329
  C 5.153328 -0.914122 -2.226220
  C 4.640455 -1.432954 -3.521192
  C 3.147247 -1.538952 -3.786677
  H 2.999700 -1.938969 -4.785136
  O 6.467547 -0.909645 -2.215775
  H 3.915669 1.469384 1.365676
  H 3.915881 -0.151214 2.017462
  H 1.783680 0.334285 3.247360
  H 1.783562 1.970402 2.589267
  H 3.967120 0.785619 4.371688
  H 2.735941 1.937995 4.871365
  H 3.966896 2.423645 3.712756
  H 2.405280 -0.675053 -1.627298
  H 5.100840 -0.129977 -0.270414
  H 5.098365 -2.420222 -3.651869
  H 5.098928 -0.809525 -4.297519
  H 2.667251 -0.564525 -3.746630
  H 2.666819 -2.215926 -3.085007
  H 6.870915 -0.579356 -1.389850
 26
 53.288279
  H 1.294938 0.245149 0.665619
  C 2.363168 0.232624 0.633464
  C 3.214021 0.663189 1.702431
  C 2.440476 1.155671 2.926531
  C 3.387674 1.602325 4.035371
  C 3.068053 -0.409233 -0.963530
  C 4.410757 -0.467317 -1.109809
  C 5.145857 -0.912630 -2.222293
  C 4.675849 -1.436828 -3.531959
  C 3.189055 -1.553441 -3.824020
  H 3.062435 -1.954825 -4.826885
  O 6.459218 -0.889017 -2.163667
  H 3.880429 1.461133 1.343920
  H 3.881060 -0.160217 1.996407
  H 1.794472 0.361105 3.303145
  H 1.794035 1.989299 2.647781
  H 4.023019 0.781171 4.359134
  H 2.822686 1.948992 4.897000
  H 4.022516 2.419164 3.699691
  H 2.325794 -0.693195 -1.669718
  H 5.010695 -0.130928 -0.271996
  H 5.145192 -2.420693 -3.647735
  H 5.145609 -0.805011 -4.294670
  H 2.701543 -0.583272 -3.792245
  H 2.701204 -2.233609 -3.131694
  H 6.831534 -0.554340 -1.324632
 26
 75.259420
  H 1.223206 0.267816 0.722728
  C 2.293263 0.259464 0.700923
  C 3.177302 0.680216 1.745164
  C 2.437188 1.181380 2.990268
  C 3.417018 1.617502 4.072685
  C 3.047864 -0.439075 -1.036881
  C 4.385051 -0.484223 -1.151351
  C 5.151272 -0.924311 -2.251364
  C 4.708460 -1.450584 -3.566775
  C 3.226708 -1.574775 -3.877367
  H 3.115653 -1.976248 -4.881001
  O 6.457170 -0.889733 -2.165637
  H 3.844495 1.470272 1.370009
  H 3.845096 -0.149003 2.021869
  H 1.792333 0.392342 3.382532
  H 1.791999 2.021879 2.726374
  H 4.051727 0.789455 4.379819
  H 2.878059 1.969992 4.948287
  H 4.051327 2.427549 3.720053
  H 2.282907 -0.715814 -1.724929
  H 4.966591 -0.142730 -0.300926
  H 5.185746 -2.430873 -3.675810
  H 5.185903 -0.816247 -4.321971
  H 2.733625 -0.606653 -3.852546
  H 2.733576 -2.258662 -3.191749
  H 6.810104 -0.552719 -1.320199
 26
 95.079904
  H 1.158062 0.292519 0.783775
  C 2.224902 0.287797 0.771569
  C 3.136714 0.696373 1.785868
  C 2.431912 1.205621 3.049999
  C 3.445898 1.630582 4.105314
  C 3.027908 -0.467722 -1.107420
  C 4.362564 -0.500765 -1.192081
  C 5.159403 -0.935020 -2.278268
  C 4.738926 -1.464077 -3.600912
  C 3.260755 -1.594418 -3.925890
  H 3.160968 -1.996492 -4.931444
  O 6.468781 -0.889204 -2.165406
  H 3.803865 1.478315 1.394347
  H 3.803962 -0.138651 2.045491
  H 1.789872 0.422939 3.457374
  H 1.790170 2.052370 2.801032
  H 4.079166 0.795288 4.395399
  H 2.934082 1.989053 4.994905
  H 4.079464 2.433499 3.735340
  H 2.245439 -0.735347 -1.772884
  H 4.924788 -0.155023 -0.331131
  H 5.223079 -2.442083 -3.704913
  H 5.222688 -0.827424 -4.350770
  H 2.763913 -0.628589 -3.906255
  H 2.764352 -2.280732 -3.245716
  H 6.804483 -0.549024 -1.312224
 26
 112.210366
  H 1.092306 0.315963 0.841155
  C 2.160715 0.314510 0.837909
  C 3.098903 0.714272 1.830944
  C 2.427044 1.231778 3.114314
  C 3.472536 1.645421 4.142646
  C 3.014066 -0.497723 -1.181489
  C 4.344290 -0.519880 -1.239341
  C 5.167593 -0.947028 -2.308560
  C 4.771226 -1.477329 -3.634299
  C 3.297782 -1.613675 -3.973083
  H 3.209059 -2.015871 -4.979155
  O 6.465592 -0.890837 -2.171067
  H 3.766403 1.489456 1.425045
  H 3.765747 -0.126321 2.075928
  H 1.788038 0.454217 3.536339
  H 1.789218 2.085539 2.879007
  H 4.103663 0.803219 4.416604
  H 2.986998 2.009273 5.044583
  H 4.104913 2.441393 3.756327
  H 2.213471 -0.758610 -1.830363
  H 4.888451 -0.169889 -0.367728
  H 5.261942 -2.452366 -3.733126
  H 5.260947 -0.838783 -4.378398
  H 2.797199 -0.649501 -3.958390
  H 2.798221 -2.302618 -3.297651
  H 6.781293 -0.548828 -1.314054
 26
 126.445837
  H 1.034613 0.344532 0.911308
  C 2.100621 0.344740 0.913165
  C 3.058498 0.734516 1.882060
  C 2.419261 1.258949 3.181140
  C 3.493487 1.661625 4.183338
  C 3.001077 -0.524570 -1.247813
  C 4.328198 -0.538166 -1.284488
  C 5.180022 -0.961143 -2.344126
  C 4.801107 -1.494347 -3.677076
  C 3.330264 -1.635632 -4.027067
  H 3.249512 -2.038212 -5.034263
  O 6.486488 -0.895325 -2.183931
  H 3.724746 1.503027 1.462895
  H 3.723304 -0.110959 2.113362
  H 1.783602 0.486668 3.616446
  H 1.785739 2.118649 2.958494
  H 4.122181 0.812860 4.442425
  H 3.032600 2.030411 5.096355
  H 4.124425 2.451193 3.781721
  H 2.187178 -0.777851 -1.878049
  H 4.856296 -0.184686 -0.403698
  H 5.296964 -2.467597 -3.771967
  H 5.295390 -0.853990 -4.417095
  H 2.827005 -0.672966 -4.015939
  H 2.828557 -2.326321 -3.355232
  H 6.788805 -0.549857 -1.319258
 26
 137.883844
  H 0.982642 0.370775 0.975208
  C 2.051584 0.371477 0.979647
  C 3.022975 0.757036 1.938792
  C 2.409622 1.288178 3.252700
  C 3.505976 1.682229 4.234844
  C 3.004494 -0.554626 -1.320759
  C 4.329983 -0.562347 -1.343132
  C 5.194663 -0.978150 -2.386611
  C 4.831148 -1.510238 -3.717423
  C 3.363155 -1.654102 -4.072542
  H 3.285961 -2.056316 -5.079574
  O 6.481564 -0.906175 -2.212829
  H 3.688688 1.520890 1.509798
  H 3.686215 -0.092493 2.160495
  H 1.776460 0.519899 3.698680
  H 1.779708 2.153033 3.039823
  H 4.132227 0.828454 4.482725
  H 3.064440 2.054803 5.155928
  H 4.135656 2.466694 3.821630
  H 2.178844 -0.803698 -1.941074
  H 4.846730 -0.206785 -0.456154
  H 5.330237 -2.481789 -3.809601
  H 5.327918 -0.868403 -4.454116
  H 2.858695 -0.692013 -4.062288
  H 2.860955 -2.345702 -3.401976
  H 6.768361 -0.560630 -1.348935
 26
 145.377023
  H 0.943812 0.412538 1.078082
  C 2.019016 0.405645 1.065051
  C 2.970487 0.793179 2.029457
  C 2.383343 1.331002 3.358144
  C 3.496936 1.719043 4.326350
  C 3.022839 -0.577488 -1.375312
  C 4.350077 -0.589752 -1.409191
  C 5.224321 -1.009525 -2.464701
  C 4.858554 -1.542434 -3.798495
  C 3.389691 -1.687914 -4.156685
  H 3.313355 -2.089984 -5.164287
  O 6.517321 -0.937053 -2.291452
  H 3.633806 1.548728 1.592549
  H 3.630415 -0.056372 2.240408
  H 1.752489 0.566634 3.814076
  H 1.756696 2.200458 3.154416
  H 4.121297 0.861210 4.565664
  H 3.071690 2.094989 5.254506
  H 4.125668 2.499575 3.904018
  H 2.197907 -0.826642 -1.996805
  H 4.869984 -0.234424 -0.521304
  H 5.358236 -2.513761 -3.891010
  H 5.355347 -0.900162 -4.534964
  H 2.884586 -0.726217 -4.146094
  H 2.887389 -2.379740 -3.486479
  H 6.808775 -0.588034 -1.419661
 26
 148.028794
  H 0.926579 0.450298 1.170740
  C 2.007668 0.434102 1.135730
  C 2.929423 0.833875 2.130838
  C 2.350638 1.373574 3.463245
  C 3.464970 1.760945 4.430819
  C 3.074976 -0.604128 -1.440178
  C 4.406145 -0.624976 -1.495389
  C 5.258108 -1.043896 -2.550271
  C 4.877343 -1.571774 -3.872095
  C 3.405340 -1.711551 -4.215244
  H 3.316529 -2.112706 -5.221179
  O 6.528766 -0.977565 -2.393644
  H 3.595414 1.586839 1.692207
  H 3.591277 -0.015464 2.339122
  H 1.720084 0.609979 3.921358
  H 1.725026 2.244422 3.261279
  H 4.088780 0.902568 4.669509
  H 3.042504 2.137504 5.359840
  H 4.093909 2.540889 4.007750
  H 2.257303 -0.858589 -2.075845
  H 4.937816 -0.272907 -0.614326
  H 5.372268 -2.544685 -3.969608
  H 5.368967 -0.931199 -4.613062
  H 2.904196 -0.747819 -4.198064
  H 2.907400 -2.400836 -3.539117
  H 6.826724 -0.631840 -1.530529
 26
 148.692287
  H 0.913000 0.499113 1.290632
  C 1.995280 0.471759 1.229226
  C 2.889333 0.879703 2.245194
  C 2.315107 1.418374 3.573851
  C 3.427884 1.805156 4.541383
  C 3.112268 -0.623432 -1.487175
  C 4.438455 -0.652507 -1.563015
  C 5.290961 -1.078741 -2.637540
  C 4.891668 -1.608544 -3.964096
  C 3.416029 -1.745696 -4.299628
  H 3.320050 -2.146839 -5.305559
  O 6.590852 -1.014876 -2.488662
  H 3.558495 1.629768 1.804691
  H 3.553429 0.030461 2.450556
  H 1.683895 0.654763 4.032159
  H 1.689844 2.290003 3.371562
  H 4.051277 0.946297 4.780340
  H 3.005979 2.182112 5.470474
  H 4.057434 2.584882 4.118296
  H 2.300501 -0.879564 -2.127695
  H 4.980038 -0.302064 -0.685373
  H 5.383467 -2.583125 -4.066018
  H 5.379730 -0.969511 -4.709409
  H 2.916767 -0.780948 -4.279127
  H 2.920407 -2.433694 -3.620355
  H 6.905089 -0.667123 -1.620889
 26
 148.352759
  H 0.952675 0.561619 1.441813
  C 2.034552 0.506257 1.314307
  C 2.869425 0.932263 2.376809
  C 2.268353 1.463917 3.684607
  C 3.357376 1.858029 4.674640
  C 3.171065 -0.650808 -1.552721
  C 4.495221 -0.691644 -1.658555
  C 5.332534 -1.120298 -2.742863
  C 4.904695 -1.644594 -4.055531
  C 3.423490 -1.772132 -4.363219
  H 3.305883 -2.172672 -5.367450
  O 6.602853 -1.061996 -2.611203
  H 3.550313 1.677229 1.939309
  H 3.542337 0.086698 2.581973
  H 1.631500 0.696037 4.129350
  H 1.640515 2.331193 3.468466
  H 3.981221 1.003005 4.926105
  H 2.914814 2.232524 5.594926
  H 3.990503 2.641526 4.263752
  H 2.352998 -0.902897 -2.184639
  H 5.054252 -0.344961 -0.788703
  H 5.390367 -2.621649 -4.167900
  H 5.384988 -1.009966 -4.810273
  H 2.930554 -0.804298 -4.333207
  H 2.935846 -2.456696 -3.674649
  H 6.935491 -0.717118 -1.750593
 26
 139.354033
  H 1.117703 0.444725 1.077081
  C 2.195490 0.386458 0.946721
  C 3.016647 0.804987 2.036627
  C 2.365124 1.321403 3.323492
  C 3.416347 1.710784 4.355824
  C 3.071403 -0.530607 -1.331249
  C 4.386991 -0.580567 -1.389217
  C 5.241498 -1.009763 -2.444486
  C 4.827534 -1.534840 -3.761555
  C 3.345845 -1.670960 -4.056570
  H 3.220116 -2.070555 -5.059312
  O 6.534172 -0.917936 -2.302852
  H 3.716498 1.553684 1.628108
  H 3.695654 -0.036930 2.253988
  H 1.715482 0.547585 3.738617
  H 1.741460 2.188038 3.093251
  H 4.034123 0.855933 4.622180
  H 2.938592 2.075364 5.261987
  H 4.060927 2.499843 3.974920
  H 2.202022 -0.768879 -1.893129
  H 4.923441 -0.224803 -0.512669
  H 5.320709 -2.506968 -3.878552
  H 5.300240 -0.895371 -4.516708
  H 2.849306 -0.705493 -4.018576
  H 2.869724 -2.357659 -3.362704
  H 6.846772 -0.558905 -1.450665
