14

C 0.966881 0.140951 0.402175
C 2.445261 0.138532 0.395784
H 3.0141921844097457 0.47645412169206264 1.2366323496310487
C 3.056527 -0.32624 -0.761266
C 4.434557 -0.412807 -0.977341
C 5.116634 -0.862171 -2.097644
H 4.765001295121085 -1.2383924358355083 -3.0355735666932597
O 6.441363 -0.85411 -2.077903
H 0.534203 0.5116 1.324625
H 0.594015 -0.871193 0.237377
H 0.59375 0.757524 -0.417125
H 2.395882 -0.642369 -1.548407
H 5.050449 -0.080233 -0.149165
H 6.799446 -0.516763 -1.236311
