 14
 0.000000
  C 0.966881 0.140951 0.402175
  C 2.445261 0.138532 0.395784
  H 3.014192 0.476454 1.236632
  C 3.056527 -0.326240 -0.761266
  C 4.434557 -0.412807 -0.977341
  C 5.116634 -0.862171 -2.097644
  H 4.765001 -1.238392 -3.035574
  O 6.441363 -0.854110 -2.077903
  H 0.534203 0.511600 1.324625
  H 0.594015 -0.871193 0.237377
  H 0.593750 0.757524 -0.417125
  H 2.395882 -0.642369 -1.548407
  H 5.050449 -0.080233 -0.149165
  H 6.799446 -0.516763 -1.236311
 14
 0.000000
  C 1.028360 0.125662 0.364084
  C 2.506572 0.134535 0.385810
  H 3.056812 0.476728 1.237305
  C 3.143266 -0.325466 -0.759376
  C 4.425684 -0.407137 -0.963227
  C 5.039521 -0.848485 -2.063535
  H 4.672175 -1.222623 -2.996263
  O 6.267096 -0.838553 -2.039108
  H 0.575398 0.492925 1.278114
  H 0.666437 -0.889288 0.192292
  H 0.666179 0.739431 -0.462207
  H 2.530152 -0.646580 -1.558951
  H 5.058783 -0.079075 -0.146300
  H 6.571725 -0.491293 -1.172780
 14
 0.000000
  C 1.091328 0.110177 0.325502
  C 2.568724 0.130615 0.376028
  H 3.099574 0.477035 1.238061
  C 3.231193 -0.324297 -0.756503
  C 4.416992 -0.401252 -0.948578
  C 4.965585 -0.835364 -2.030834
  H 4.581486 -1.207166 -2.957730
  O 6.094518 -0.824303 -2.003571
  H 0.617780 0.473810 1.230509
  H 0.740773 -0.907560 0.146762
  H 0.740524 0.721159 -0.507734
  H 2.664722 -0.651284 -1.570723
  H 5.068081 -0.078111 -0.143920
  H 6.341780 -0.465561 -1.108592
 14
 0.000000
  C 1.155444 0.094580 0.286644
  C 2.631316 0.126938 0.366851
  H 3.141922 0.477558 1.239354
  C 3.320064 -0.322516 -0.752105
  C 4.408960 -0.394912 -0.932795
  C 4.895651 -0.823199 -2.000518
  H 4.493728 -1.192385 -2.920880
  O 5.924883 -0.811699 -1.972138
  H 0.660883 0.454303 1.181925
  H 0.816778 -0.925938 0.100972
  H 0.816537 0.702782 -0.553521
  H 2.799915 -0.656534 -1.583856
  H 5.078814 -0.077136 -0.141512
  H 6.108773 -0.439856 -1.044469
 14
 0.000000
  C 1.220179 0.078995 0.247813
  C 2.693729 0.123741 0.358871
  H 3.183011 0.478557 1.241835
  C 3.409484 -0.319809 -0.745399
  C 4.402294 -0.387787 -0.915055
  C 4.830753 -0.812522 -1.973910
  H 4.409976 -1.178789 -2.886984
  O 5.759888 -0.801174 -1.945889
  H 0.703994 0.434468 1.132525
  H 0.894054 -0.944316 0.055181
  H 0.893821 0.684406 -0.599309
  H 2.936156 -0.662299 -1.598271
  H 5.091629 -0.075843 -0.138313
  H 5.871699 -0.414737 -0.981803
 14
 0.000000
  C 1.284707 0.063604 0.209469
  C 2.755005 0.121368 0.352945
  H 3.221568 0.480408 1.246439
  C 3.498800 -0.315723 -0.735256
  C 4.398012 -0.379431 -0.894246
  C 4.772237 -0.804067 -1.952840
  H 4.331767 -1.167116 -2.857879
  O 5.601904 -0.793308 -1.926265
  H 0.746040 0.414409 1.082568
  H 0.971965 -0.962532 0.009795
  H 0.971742 0.666191 -0.644692
  H 3.073910 -0.668417 -1.613563
  H 5.107396 -0.073784 -0.133206
  H 5.629459 -0.391171 -0.923009
 14
 0.000000
  C 1.347713 0.048711 0.172366
  C 2.813627 0.120330 0.350347
  H 3.255657 0.483655 1.254523
  C 3.586881 -0.309599 -0.720031
  C 4.397572 -0.369251 -0.868887
  C 4.721967 -0.798876 -1.939906
  H 4.261454 -1.158468 -2.836310
  O 5.454425 -0.788914 -1.915294
  H 0.785390 0.394318 1.032530
  H 1.049445 -0.980307 -0.034494
  H 1.049234 0.648417 -0.688979
  H 3.213469 -0.674560 -1.628914
  H 5.127259 -0.070305 -0.124560
  H 5.381102 -0.370753 -0.872061
 14
 0.000000
  C 1.405750 0.035158 0.138600
  C 2.866024 0.121333 0.352836
  H 3.281883 0.488922 1.267644
  C 3.669800 -0.300748 -0.698009
  C 4.403039 -0.356839 -0.837965
  C 4.683891 -0.798516 -1.939012
  H 4.204517 -1.154682 -2.826857
  O 5.326304 -0.789215 -1.916027
  H 0.818878 0.375046 0.984530
  H 1.122949 -0.996750 -0.075465
  H 1.122750 0.631974 -0.729949
  H 3.351033 -0.680229 -1.643077
  H 5.152195 -0.064649 -0.110484
  H 5.132862 -0.356271 -0.835912
 14
 0.000000
  C 1.450010 0.025065 0.113453
  C 2.904247 0.124429 0.360545
  H 3.296036 0.495672 1.284460
  C 3.735295 -0.290252 -0.671875
  C 4.415619 -0.344004 -0.805984
  C 4.665711 -0.804029 -1.952752
  H 4.172723 -1.157615 -2.834152
  O 5.239682 -0.794818 -1.929974
  H 0.841165 0.359540 0.945908
  H 1.181455 -1.009339 -0.106830
  H 1.181270 0.619385 -0.761314
  H 3.466534 -0.685218 -1.655527
  H 5.180003 -0.057336 -0.092273
  H 4.922029 -0.350863 -0.822393
 14
 0.000000
  C 1.481320 0.018222 0.096406
  C 2.929362 0.129456 0.373066
  H 3.299198 0.503813 1.304744
  C 3.784637 -0.278328 -0.642175
  C 4.434369 -0.331000 -0.773575
  C 4.665402 -0.814748 -1.979467
  H 4.164594 -1.166811 -2.857059
  O 5.190342 -0.804904 -1.955098
  H 0.852925 0.347636 0.916257
  H 1.225777 -1.018326 -0.129220
  H 1.225606 0.610398 -0.783705
  H 3.561339 -0.690569 -1.668865
  H 5.209827 -0.048488 -0.070228
  H 4.743679 -0.353325 -0.828503
 14
 0.000000
  C 1.499890 0.014564 0.087293
  C 2.941855 0.136276 0.390059
  H 3.292078 0.513244 1.328241
  C 3.818265 -0.265230 -0.609542
  C 4.458045 -0.318131 -0.741502
  C 4.682299 -0.830096 -2.017718
  H 4.180044 -1.181878 -2.894596
  O 5.175881 -0.818764 -1.989630
  H 0.854415 0.339360 0.895639
  H 1.255986 -1.023795 -0.142844
  H 1.255829 0.604927 -0.797333
  H 3.635468 -0.698001 -1.687372
  H 5.240465 -0.038293 -0.044826
  H 4.593243 -0.362164 -0.850512
 14
 0.000000
  C 1.505444 0.014043 0.085997
  C 2.941827 0.144607 0.410816
  H 3.275309 0.523679 1.354237
  C 3.835903 -0.251457 -0.575221
  C 4.484799 -0.305902 -0.711020
  C 4.716315 -0.849256 -2.065466
  H 4.219559 -1.202123 -2.945037
  O 5.194788 -0.835413 -2.031115
  H 0.845674 0.334827 0.884344
  H 1.271485 -1.025785 -0.147800
  H 1.271340 0.602935 -0.802294
  H 3.687629 -0.709660 -1.716395
  H 5.270005 -0.027147 -0.017050
  H 4.466937 -0.375629 -0.884054
 14
 0.000000
  C 1.498285 0.016121 0.091174
  C 2.929972 0.153663 0.433380
  H 3.250143 0.534329 1.380763
  C 3.837855 -0.238019 -0.541731
  C 4.511473 -0.295077 -0.684039
  C 4.765366 -0.870486 -2.118369
  H 4.281008 -1.225739 -3.003874
  O 5.242436 -0.853000 -2.074940
  H 0.827330 0.333670 0.881452
  H 1.272241 -1.024827 -0.145410
  H 1.272106 0.603891 -0.799909
  H 3.716979 -0.727022 -1.759612
  H 5.295381 -0.015812 0.011192
  H 4.360953 -0.391731 -0.924162
 14
 0.000000
  C 1.479730 0.019424 0.099400
  C 2.907623 0.162339 0.454993
  H 3.217477 0.544192 1.405324
  C 3.826062 -0.225916 -0.511567
  C 4.533949 -0.286079 -0.661609
  C 4.823768 -0.891496 -2.170718
  H 4.357615 -1.250115 -3.064598
  O 5.308308 -0.869276 -2.115494
  H 0.800217 0.334439 0.883354
  H 1.259822 -1.022363 -0.139268
  H 1.259697 0.606352 -0.793775
  H 3.726165 -0.749616 -1.815851
  H 5.313031 -0.004941 0.038277
  H 4.267811 -0.409237 -0.967767
