 23
 0.000000
  H 1.538383 0.150184 0.425726
  C 2.618740 0.138337 0.397270
  C 3.337813 0.615618 1.584211
  C 2.436156 1.075509 2.725881
  C 3.256765 1.555095 3.919268
  C 3.209602 -0.326383 -0.758371
  C 4.587982 -0.411096 -0.969063
  C 5.197123 -0.877872 -2.135347
  C 4.494434 -1.359676 -3.338747
  H 3.415305 -1.334829 -3.276776
  O 6.499405 -0.918769 -2.239485
  H 4.001441 1.441030 1.297981
  H 4.000661 -0.178538 1.949629
  H 1.792259 0.253550 3.044191
  H 1.793356 1.889652 2.385949
  H 3.889073 0.757647 4.303036
  H 2.601160 1.879150 4.723631
  H 3.890169 2.395396 3.644098
  H 2.550884 -0.644908 -1.552287
  H 5.238168 -0.089703 -0.166345
  H 4.826277 -2.377680 -3.549220
  H 4.826326 -0.768206 -4.193622
  H 6.987220 -0.603245 -1.454365
 23
 9.028608
  H 1.537294 0.163361 0.458644
  C 2.617543 0.151637 0.431159
  C 3.330573 0.631380 1.624184
  C 2.416596 1.088391 2.757419
  C 3.223619 1.570901 3.958181
  C 3.211069 -0.313068 -0.724014
  C 4.578804 -0.394562 -0.926434
  C 5.245067 -0.916437 -2.231503
  C 4.515567 -1.388381 -3.410808
  H 3.438129 -1.350917 -3.316848
  O 6.532126 -0.955470 -2.331843
  H 3.993804 1.458676 1.343629
  H 3.992565 -0.160419 1.995379
  H 1.772443 0.263971 3.068904
  H 1.774106 1.899852 2.410442
  H 3.855024 0.775499 4.347812
  H 2.559372 1.892860 4.756327
  H 3.856705 2.413303 3.688542
  H 2.554540 -0.632538 -1.520715
  H 5.237750 -0.077822 -0.134693
  H 4.830839 -2.410024 -3.629141
  H 4.830615 -0.799176 -4.273581
  H 7.024029 -0.639899 -1.547359
 23
 27.173957
  H 1.568322 0.168690 0.473383
  C 2.648295 0.157757 0.450349
  C 3.342439 0.639676 1.648311
  C 2.396430 1.089761 2.758888
  C 3.167691 1.580305 3.978787
  C 3.250087 -0.300871 -0.688048
  C 4.618101 -0.372414 -0.865045
  C 5.308699 -0.953170 -2.323252
  C 4.487016 -1.395851 -3.432287
  H 3.428897 -1.319296 -3.238564
  O 6.569585 -0.985331 -2.409528
  H 4.002646 1.471738 1.380781
  H 3.999804 -0.147165 2.033832
  H 1.753005 0.255553 3.043704
  H 1.756742 1.890576 2.383979
  H 3.796268 0.790350 4.383414
  H 2.481731 1.897114 4.759891
  H 3.800046 2.427328 3.722813
  H 2.603699 -0.621091 -1.487901
  H 5.324950 -0.072470 -0.112900
  H 4.743845 -2.428352 -3.674424
  H 4.742461 -0.811900 -4.317893
  H 7.071271 -0.674854 -1.638095
 23
 47.567619
  H 1.582227 0.175590 0.491101
  C 2.659582 0.167979 0.476361
  C 3.343682 0.655688 1.688774
  C 2.373200 1.098585 2.780584
  C 3.115298 1.595104 4.015070
  C 3.286845 -0.291906 -0.665216
  C 4.638042 -0.352850 -0.815142
  C 5.357097 -0.993077 -2.423096
  C 4.472008 -1.413364 -3.476914
  H 3.424142 -1.308890 -3.213670
  O 6.612234 -1.022793 -2.502720
  H 3.998795 1.495478 1.429473
  H 3.995625 -0.131093 2.085733
  H 1.729890 0.260708 3.058338
  H 1.734005 1.897321 2.397732
  H 3.741256 0.808920 4.432361
  H 2.410809 1.906869 4.782851
  H 3.745453 2.447911 3.770676
  H 2.649362 -0.616785 -1.476557
  H 5.388435 -0.070941 -0.107056
  H 4.689486 -2.453783 -3.736666
  H 4.689067 -0.835614 -4.380531
  H 7.134989 -0.713163 -1.733794
 23
 67.702826
  H 1.565586 0.187506 0.520596
  C 2.646308 0.182373 0.511522
  C 3.325399 0.672196 1.729259
  C 2.348590 1.113639 2.818224
  C 3.084405 1.611916 4.057357
  C 3.283380 -0.275693 -0.625759
  C 4.629614 -0.332617 -0.765684
  C 5.396260 -1.029930 -2.515287
  C 4.490727 -1.443410 -3.551770
  H 3.452998 -1.330427 -3.268412
  O 6.649997 -1.060247 -2.595356
  H 3.980084 1.512699 1.473556
  H 3.977095 -0.112595 2.129089
  H 1.705881 0.275205 3.093635
  H 1.709771 1.911066 2.433627
  H 3.710022 0.827311 4.476653
  H 2.376473 1.922145 4.821938
  H 3.713953 2.465173 3.815738
  H 2.653079 -0.601500 -1.438886
  H 5.394695 -0.056855 -0.073380
  H 4.693942 -2.484095 -3.815408
  H 4.694160 -0.868926 -4.458617
  H 7.178230 -0.752851 -1.831806
 23
 86.231445
  H 1.561372 0.200865 0.551504
  C 2.639241 0.198987 0.550389
  C 3.308532 0.689816 1.771959
  C 2.322291 1.127108 2.851903
  C 3.045586 1.626974 4.096843
  C 3.290880 -0.257994 -0.584657
  C 4.634985 -0.310295 -0.713006
  C 5.436178 -1.067301 -2.608682
  C 4.502038 -1.470968 -3.618277
  H 3.470795 -1.345230 -3.303458
  O 6.682392 -1.100052 -2.694486
  H 3.962834 1.532755 1.521892
  H 3.959690 -0.093256 2.176930
  H 1.679973 0.286369 3.122163
  H 1.683921 1.923054 2.462740
  H 3.670724 0.843761 4.520507
  H 2.330248 1.934562 4.855879
  H 3.674790 2.482464 3.860253
  H 2.666103 -0.586513 -1.404362
  H 5.421566 -0.042990 -0.042755
  H 4.686141 -2.515788 -3.887328
  H 4.686375 -0.898575 -4.532814
  H 7.222995 -0.794128 -1.935594
 23
 102.005528
  H 1.557513 0.211670 0.574976
  C 2.636474 0.213847 0.585404
  C 3.294761 0.706661 1.813920
  C 2.296122 1.140541 2.884507
  C 3.005250 1.642574 4.137560
  C 3.301512 -0.239178 -0.539501
  C 4.635183 -0.286300 -0.654457
  C 5.468567 -1.102446 -2.697044
  C 4.508996 -1.498341 -3.683742
  H 3.489111 -1.363039 -3.343313
  O 6.715852 -1.138594 -2.793474
  H 3.948994 1.551853 1.570555
  H 3.944628 -0.074491 2.225143
  H 1.653843 0.297720 3.148268
  H 1.659064 1.934640 2.489448
  H 3.628728 0.861378 4.566773
  H 2.281470 1.947521 4.889405
  H 3.634128 2.499749 3.907421
  H 2.686198 -0.569220 -1.363916
  H 5.439865 -0.027583 -0.006029
  H 4.676243 -2.544370 -3.956538
  H 4.675131 -0.928517 -4.602566
  H 7.267289 -0.835047 -2.042965
 23
 114.900032
  H 1.550253 0.227078 0.610507
  C 2.628028 0.232990 0.632362
  C 3.274541 0.727612 1.867104
  C 2.264153 1.158277 2.927351
  C 2.958833 1.662151 4.187257
  C 3.313274 -0.221606 -0.495550
  C 4.651081 -0.265782 -0.602137
  C 5.505869 -1.141443 -2.795393
  C 4.523128 -1.529722 -3.759935
  H 3.510701 -1.385418 -3.394231
  O 6.742961 -1.183877 -2.910687
  H 3.928674 1.574767 1.630306
  H 3.922668 -0.051602 2.284719
  H 1.621792 0.313583 3.184680
  H 1.628782 1.950551 2.526098
  H 3.580528 0.882603 4.622382
  H 2.226549 1.964868 4.931801
  H 3.587758 2.521129 3.963255
  H 2.703791 -0.553955 -1.327148
  H 5.475588 -0.016435 0.023311
  H 4.675065 -2.578053 -4.036473
  H 4.672104 -0.960889 -4.683370
  H 7.309018 -0.882444 -2.167978
 23
 124.865221
  H 1.548988 0.239690 0.638616
  C 2.626594 0.250387 0.673782
  C 3.258192 0.744672 1.909667
  C 2.237538 1.172400 2.961742
  C 2.921105 1.677575 4.227694
  C 3.319258 -0.197237 -0.436598
  C 4.636058 -0.238052 -0.534181
  C 5.525484 -1.172299 -2.872921
  C 4.531529 -1.561100 -3.835118
  H 3.523439 -1.414874 -3.462878
  O 6.778127 -1.222064 -3.009162
  H 3.912192 1.592927 1.678361
  H 3.904968 -0.032662 2.331862
  H 1.595193 0.326024 3.213514
  H 1.603463 1.963234 2.555630
  H 3.541291 0.899585 4.667472
  H 2.182151 1.978135 4.966231
  H 3.549849 2.537939 4.009228
  H 2.719113 -0.530702 -1.271700
  H 5.468946 0.007214 0.081340
  H 4.678449 -2.609489 -4.111630
  H 4.673994 -0.993000 -4.759266
  H 7.351903 -0.921983 -2.272643
 23
 131.388127
  H 1.554205 0.252535 0.662698
  C 2.631800 0.276213 0.731761
  C 3.228708 0.775952 1.985506
  C 2.186281 1.196435 3.021304
  C 2.847638 1.703255 4.298026
  C 3.365783 -0.170216 -0.376988
  C 4.691727 -0.208733 -0.469381
  C 5.554110 -1.211716 -2.971488
  C 4.541516 -1.601233 -3.927374
  H 3.539705 -1.449086 -3.538562
  O 6.791620 -1.295890 -3.196435
  H 3.885275 1.627726 1.767563
  H 3.876654 0.003327 2.418334
  H 1.544796 0.346307 3.262167
  H 1.554382 1.984509 2.606707
  H 3.465344 0.928479 4.746792
  H 2.095245 1.998721 5.025251
  H 3.475366 2.567221 4.091245
  H 2.780205 -0.508477 -1.224723
  H 5.546872 0.025469 0.118871
  H 4.678442 -2.650468 -4.201146
  H 4.671363 -1.033460 -4.852232
  H 7.398321 -1.003085 -2.482453
 23
 135.985236
  H 1.538217 0.272186 0.711936
  C 2.615247 0.298971 0.788053
  C 3.200149 0.796835 2.037063
  C 2.154330 1.215176 3.069012
  C 2.812126 1.722531 4.347337
  C 3.358036 -0.146377 -0.318850
  C 4.682474 -0.183230 -0.408158
  C 5.579170 -1.245277 -3.054962
  C 4.564237 -1.636223 -4.013189
  H 3.562155 -1.483637 -3.623667
  O 6.816915 -1.339499 -3.304395
  H 3.856056 1.647594 1.821443
  H 3.847975 0.026688 2.470460
  H 1.513649 0.364422 3.308017
  H 1.522673 2.002217 2.653193
  H 3.429771 0.948637 4.797663
  H 2.057781 2.016721 5.072497
  H 3.439218 2.587410 4.142543
  H 2.776546 -0.486621 -1.171068
  H 5.539653 0.049763 0.176904
  H 4.701022 -2.686280 -4.285665
  H 4.693780 -1.067781 -4.938146
  H 7.433486 -1.049479 -2.596920
 23
 139.166881
  H 1.516956 0.289591 0.756638
  C 2.594443 0.319521 0.840730
  C 3.170672 0.819291 2.093805
  C 2.120934 1.237167 3.124160
  C 2.776324 1.745294 4.403828
  C 3.343454 -0.124301 -0.262229
  C 4.668665 -0.160125 -0.349543
  C 5.605592 -1.279176 -3.139813
  C 4.591539 -1.673721 -4.106258
  H 3.588474 -1.523124 -3.720809
  O 6.842911 -1.382412 -3.412286
  H 3.828421 1.670951 1.880157
  H 3.820354 0.049959 2.529453
  H 1.480391 0.385949 3.362261
  H 1.489387 2.023828 2.707164
  H 3.393681 0.972164 4.855725
  H 2.020297 2.039057 5.127580
  H 3.403107 2.610661 4.200417
  H 2.766793 -0.465381 -1.116594
  H 5.525663 0.073596 0.237468
  H 4.731230 -2.723282 -4.377104
  H 4.723359 -1.104462 -5.029784
  H 7.465909 -1.094970 -2.711034
 23
 141.283156
  H 1.495958 0.310657 0.808732
  C 2.572986 0.342881 0.898606
  C 3.139564 0.841973 2.150323
  C 2.087851 1.258396 3.177641
  C 2.740928 1.766511 4.458081
  C 3.327325 -0.100135 -0.202745
  C 4.653279 -0.135251 -0.289147
  C 5.631181 -1.312215 -3.222247
  C 4.619185 -1.710213 -4.195278
  H 3.614344 -1.561251 -3.813165
  O 6.867502 -1.423332 -3.514687
  H 3.797944 1.692720 1.938910
  H 3.789892 0.074660 2.586668
  H 1.447682 0.406908 3.414524
  H 1.456697 2.044586 2.759934
  H 3.357964 0.993826 4.911117
  H 1.983550 2.059559 5.180452
  H 3.367406 2.632395 4.256189
  H 2.753645 -0.442317 -1.059829
  H 5.508663 0.099436 0.300052
  H 4.761967 -2.759713 -4.464212
  H 4.753333 -1.140283 -5.117938
  H 7.496899 -1.137336 -2.817488
 23
 142.664026
  H 1.474423 0.330688 0.858708
  C 2.551607 0.364929 0.955105
  C 3.109275 0.865129 2.209639
  C 2.053075 1.281175 3.233874
  C 2.702101 1.789974 4.516532
  C 3.310660 -0.077149 -0.142984
  C 4.637398 -0.111668 -0.227999
  C 5.657058 -1.344874 -3.304328
  C 4.646372 -1.746212 -4.283417
  H 3.640682 -1.599336 -3.903888
  O 6.892129 -1.461346 -3.612806
  H 3.769744 1.716050 2.000900
  H 3.760779 0.098952 2.648479
  H 1.412602 0.429346 3.469103
  H 1.422697 2.067114 2.814223
  H 3.318051 1.017864 4.971967
  H 1.942147 2.082694 5.236433
  H 3.328624 2.656311 4.316809
  H 2.740594 -0.419814 -1.001949
  H 5.492238 0.123920 0.363720
  H 4.792230 -2.795342 -4.551123
  H 4.781914 -1.175414 -5.204981
  H 7.524459 -1.176100 -2.919519
