 20
 0.000000
  C 1.047608 -0.112499 -0.038670
  C 2.543886 -0.135528 -0.038171
  C 3.259782 -1.265200 -0.045002
  C 4.697766 -1.288415 -0.045343
  C 5.417996 -2.423839 -0.052188
  C 6.856672 -2.444721 -0.052538
  C 7.574775 -3.572375 -0.059338
  C 9.064887 -3.614542 -0.059820
  H 0.687515 0.915755 -0.032496
  H 0.650404 -0.611899 0.844967
  H 0.650434 -0.599896 -0.929840
  H 3.044257 0.824951 -0.033261
  H 2.748632 -2.220323 -0.050559
  H 5.202341 -0.330136 -0.039743
  H 4.913927 -3.382311 -0.057795
  H 7.363474 -1.487371 -0.046948
  H 7.076036 -4.533707 -0.064955
  H 9.498989 -2.616024 -0.053964
  H 9.423967 -4.139996 -0.946255
  H 9.424242 -4.150466 0.820210
 20
 4.430087
  C 1.043667 -0.071558 -0.034720
  C 2.515824 -0.173717 0.008679
  C 3.244837 -1.293183 0.009515
  C 4.684959 -1.312750 -0.025997
  C 5.421601 -2.438626 -0.021664
  C 6.857968 -2.457606 -0.055731
  C 7.590381 -3.572714 -0.051343
  C 9.079027 -3.609045 -0.086367
  H 0.710370 0.955903 0.023778
  H 0.532101 -0.663655 0.712569
  H 0.857854 -0.433762 -1.032685
  H 2.925034 0.803712 -0.029913
  H 2.744041 -2.254409 0.041365
  H 5.179827 -0.349331 -0.056577
  H 4.924816 -3.401112 0.009627
  H 7.351752 -1.493457 -0.086565
  H 7.097992 -4.537041 -0.020486
  H 9.494919 -2.604233 -0.116155
  H 9.423776 -4.158895 -0.963194
  H 9.465944 -4.124231 0.793930
 20
 12.211577
  C 1.064630 -0.063473 -0.040757
  C 2.525703 -0.230183 0.033264
  C 3.259711 -1.340137 0.053035
  C 4.681444 -1.349238 -0.019055
  C 5.417612 -2.451866 0.007444
  C 6.834067 -2.458969 -0.062785
  C 7.571729 -3.557589 -0.036595
  C 9.056889 -3.582286 -0.109000
  H 0.762897 0.950107 0.135961
  H 0.453856 -0.752876 0.530758
  H 1.071704 -0.195317 -1.104556
  H 2.866431 0.768937 -0.032491
  H 2.768242 -2.297786 0.133464
  H 5.160124 -0.392280 -0.097227
  H 4.934764 -3.409901 0.087547
  H 7.312825 -1.499629 -0.141691
  H 7.092852 -4.518495 0.042272
  H 9.459534 -2.581168 -0.185966
  H 9.383800 -4.158594 -0.971439
  H 9.470635 -4.059649 0.776270
 20
 20.061872
  C 1.037583 -0.043808 -0.050195
  C 2.489342 -0.257310 0.044052
  C 3.229281 -1.361381 0.090056
  C 4.666350 -1.363114 -0.015596
  C 5.422329 -2.472483 0.031805
  C 6.845829 -2.470014 -0.070542
  C 7.602137 -3.571796 -0.023912
  C 9.086736 -3.584383 -0.128256
  H 0.743529 0.954486 0.268727
  H 0.363675 -0.795069 0.329347
  H 1.210643 0.042922 -1.122175
  H 2.772427 0.763413 -0.065750
  H 2.738797 -2.323887 0.216025
  H 5.141213 -0.392803 -0.136199
  H 4.949660 -3.434771 0.154391
  H 7.316097 -1.505633 -0.192724
  H 7.131124 -4.544834 0.098712
  H 9.481571 -2.573956 -0.249362
  H 9.402024 -4.190794 -0.982160
  H 9.526180 -4.028916 0.768355
 20
 24.462027
  C 1.030212 -0.032276 -0.052489
  C 2.481008 -0.274100 0.014945
  C 3.230985 -1.373026 0.098983
  C 4.653084 -1.373773 -0.034409
  C 5.416762 -2.480595 0.042116
  C 6.849130 -2.477907 -0.079474
  C 7.611270 -3.572136 -0.003981
  C 9.098935 -3.582081 -0.133174
  H 0.731126 0.866819 0.481271
  H 0.337541 -0.844920 0.117014
  H 1.272570 0.295970 -1.072870
  H 2.730643 0.764661 -0.156669
  H 2.748868 -2.330673 0.266583
  H 5.118296 -0.412071 -0.198213
  H 4.949958 -3.436686 0.207518
  H 7.311100 -1.521898 -0.243347
  H 7.147334 -4.541200 0.161978
  H 9.488108 -2.570135 -0.303175
  H 9.405171 -4.225119 -0.970454
  H 9.557439 -3.989596 0.777509
 20
 27.885504
  C 1.031651 -0.018585 -0.004461
  C 2.482723 -0.279006 -0.015738
  C 3.226153 -1.380985 0.022957
  C 4.654947 -1.392144 -0.150749
  C 5.422618 -2.482985 0.005793
  C 6.854886 -2.483143 -0.120672
  C 7.621136 -3.566199 0.032502
  C 9.100624 -3.580046 -0.090328
  H 0.743114 0.653040 0.802691
  H 0.340765 -0.852372 -0.089167
  H 1.262368 0.604853 -0.882350
  H 2.708942 0.762672 -0.240940
  H 2.740992 -2.337790 0.207215
  H 5.114052 -0.444938 -0.400105
  H 4.958681 -3.429049 0.241645
  H 7.314912 -1.533244 -0.348491
  H 7.164042 -4.513405 0.264974
  H 9.479321 -2.596211 -0.339441
  H 9.408345 -4.281456 -0.861615
  H 9.554763 -3.905459 0.842281
 20
 39.146694
  C 1.031541 -0.012168 0.009161
  C 2.480435 -0.287167 -0.033271
  C 3.226997 -1.388370 0.005428
  C 4.651335 -1.396866 -0.169222
  C 5.422808 -2.484727 0.003214
  C 6.854359 -2.485952 -0.140899
  C 7.623792 -3.565912 0.023802
  C 9.107685 -3.571675 -0.074153
  H 0.773709 0.610536 0.865630
  H 0.317770 -0.814017 -0.107952
  H 1.308246 0.685619 -0.810351
  H 2.637782 0.754694 -0.305009
  H 2.743646 -2.345452 0.198853
  H 5.104910 -0.456481 -0.444446
  H 4.960052 -3.433923 0.243836
  H 7.313502 -1.534723 -0.368273
  H 7.167778 -4.515998 0.258657
  H 9.487519 -2.581819 -0.320818
  H 9.438884 -4.279209 -0.841966
  H 9.544289 -3.890633 0.871802
 20
 50.640957
  C 1.028997 -0.022116 0.000691
  C 2.492363 -0.267284 -0.031798
  C 3.235469 -1.366753 0.008166
  C 4.660666 -1.381341 -0.164432
  C 5.427575 -2.471943 0.008248
  C 6.862775 -2.477884 -0.118981
  C 7.625804 -3.560630 0.043695
  C 9.108313 -3.582002 -0.088551
  H 0.734188 0.524549 0.895693
  H 0.335529 -0.836958 -0.186390
  H 1.339450 0.744024 -0.767308
  H 2.565550 0.779348 -0.366294
  H 2.751266 -2.323048 0.211381
  H 5.121793 -0.435650 -0.412918
  H 4.962838 -3.410753 0.263563
  H 7.324913 -1.534105 -0.355935
  H 7.165713 -4.506503 0.285947
  H 9.490361 -2.600936 -0.341055
  H 9.413283 -4.288884 -0.861673
  H 9.562329 -3.905340 0.841398
 20
 62.491526
  C 1.020263 -0.035066 -0.035425
  C 2.504828 -0.238899 -0.018329
  C 3.249006 -1.338449 0.050929
  C 4.673110 -1.357912 -0.122261
  C 5.434961 -2.455047 0.039586
  C 6.866948 -2.465612 -0.085845
  C 7.623376 -3.557159 0.053858
  C 9.102226 -3.593870 -0.124420
  H 0.666271 0.447528 0.869574
  H 0.368899 -0.867053 -0.295969
  H 1.379910 0.764114 -0.754598
  H 2.510726 0.795708 -0.430074
  H 2.768236 -2.288238 0.282611
  H 5.141848 -0.405598 -0.348917
  H 4.964737 -3.394289 0.305531
  H 7.331887 -1.524743 -0.327018
  H 7.157490 -4.504848 0.293978
  H 9.490398 -2.610128 -0.361421
  H 9.370653 -4.280064 -0.925272
  H 9.585837 -3.953415 0.787907
 20
 74.660119
  C 1.008745 -0.038934 -0.058815
  C 2.509996 -0.221946 -0.000128
  C 3.256029 -1.319717 0.091985
  C 4.683338 -1.342338 -0.080323
  C 5.440840 -2.444320 0.063575
  C 6.869914 -2.464338 -0.092257
  C 7.622285 -3.560563 0.035411
  C 9.095424 -3.600065 -0.139816
  H 0.603185 0.388794 0.847661
  H 0.395258 -0.877056 -0.385584
  H 1.425863 0.785416 -0.732338
  H 2.471721 0.802386 -0.463436
  H 2.776766 -2.264557 0.335308
  H 5.152937 -0.394712 -0.324548
  H 4.969230 -3.382516 0.319129
  H 7.340631 -1.517744 -0.333543
  H 7.155172 -4.505601 0.276241
  H 9.487489 -2.612720 -0.372390
  H 9.361709 -4.282459 -0.944586
  H 9.578276 -3.967325 0.773448
 20
 86.954382
  C 1.000025 -0.032583 -0.067642
  C 2.504793 -0.226589 -0.015782
  C 3.251732 -1.323695 0.072908
  C 4.684900 -1.338552 -0.063486
  C 5.442769 -2.440019 0.080071
  C 6.872385 -2.461521 -0.084632
  C 7.623739 -3.559494 0.034045
  C 9.100179 -3.599619 -0.148810
  H 0.591963 0.374793 0.855052
  H 0.389382 -0.856010 -0.413688
  H 1.464630 0.802340 -0.710653
  H 2.435946 0.801096 -0.484374
  H 2.773274 -2.270003 0.303918
  H 5.151849 -0.397950 -0.296567
  H 4.972283 -3.376720 0.328302
  H 7.340400 -1.520194 -0.334383
  H 7.152889 -4.511631 0.270213
  H 9.494867 -2.607513 -0.379122
  H 9.365162 -4.274810 -0.953200
  H 9.579903 -3.970003 0.757179
 20
 97.873685
  C 0.998213 -0.025812 -0.077407
  C 2.507368 -0.229560 -0.002835
  C 3.248560 -1.330694 0.078779
  C 4.676616 -1.347068 -0.079917
  C 5.436914 -2.448674 0.055477
  C 6.866203 -2.462128 -0.090819
  C 7.622591 -3.556086 0.032548
  C 9.104146 -3.589007 -0.147088
  H 0.575808 0.367824 0.850384
  H 0.391613 -0.842902 -0.446326
  H 1.513229 0.828674 -0.691598
  H 2.421238 0.818405 -0.467365
  H 2.773763 -2.284686 0.299448
  H 5.145417 -0.404240 -0.305441
  H 4.964389 -3.394586 0.301576
  H 7.328842 -1.524708 -0.327974
  H 7.153179 -4.509264 0.269867
  H 9.491846 -2.603913 -0.382310
  H 9.366997 -4.268533 -0.945536
  H 9.594946 -3.949062 0.754829
 20
 106.916192
  C 0.990801 -0.033618 -0.088304
  C 2.508974 -0.224926 -0.004154
  C 3.251492 -1.325075 0.068331
  C 4.683361 -1.339294 -0.067699
  C 5.440400 -2.443805 0.060247
  C 6.871646 -2.457100 -0.074147
  C 7.623566 -3.554621 0.035295
  C 9.100104 -3.592660 -0.160043
  H 0.564727 0.358296 0.833667
  H 0.392606 -0.858366 -0.459296
  H 1.531591 0.843206 -0.693905
  H 2.392702 0.835901 -0.474122
  H 2.773498 -2.282940 0.272197
  H 5.154975 -0.393666 -0.266583
  H 4.967016 -3.388604 0.297443
  H 7.338731 -1.514361 -0.310892
  H 7.152428 -4.509298 0.261802
  H 9.491916 -2.601277 -0.386874
  H 9.358939 -4.262486 -0.970398
  H 9.589063 -3.968489 0.739514
 20
 117.358671
  C 0.986161 -0.050358 -0.102107
  C 2.505133 -0.221972 0.001009
  C 3.252157 -1.321090 0.085297
  C 4.686399 -1.333469 -0.041604
  C 5.441113 -2.441522 0.065368
  C 6.872548 -2.455090 -0.067297
  C 7.621724 -3.556179 0.021164
  C 9.096944 -3.593684 -0.172769
  H 0.552337 0.355142 0.803581
  H 0.402268 -0.892361 -0.460391
  H 1.551062 0.867429 -0.730013
  H 2.371506 0.869553 -0.507154
  H 2.774545 -2.277131 0.284361
  H 5.162605 -0.378619 -0.220164
  H 4.967925 -3.384716 0.283561
  H 7.344759 -1.503008 -0.285581
  H 7.149586 -4.513560 0.228458
  H 9.491413 -2.599832 -0.374043
  H 9.362112 -4.247212 -1.004633
  H 9.575392 -3.993208 0.720327
