 23
 0.000000
  H 1.554968 0.152944 0.433634
  C 2.636547 0.138536 0.398187
  C 3.350367 0.616007 1.585210
  C 2.436256 1.072281 2.718670
  C 3.243065 1.555675 3.920496
  C 3.220670 -0.326334 -0.758346
  C 4.596303 -0.411996 -0.971707
  C 5.200534 -0.880341 -2.142017
  C 4.485022 -1.359173 -3.339019
  H 3.406860 -1.323887 -3.251793
  O 6.505244 -0.919383 -2.240120
  H 4.015043 1.442614 1.303437
  H 4.014876 -0.175552 1.954470
  H 1.792798 0.247858 3.031252
  H 1.793226 1.883770 2.373005
  H 3.874924 0.761069 4.310376
  H 2.578586 1.877000 4.718575
  H 3.875333 2.398638 3.651409
  H 2.560794 -0.644592 -1.551461
  H 5.261607 -0.094564 -0.178786
  H 4.807404 -2.377900 -3.557229
  H 4.807978 -0.772496 -4.199793
  H 6.977077 -0.600648 -1.444129
 23
 1.377645
  H 1.560694 0.308773 0.380422
  C 2.639755 0.240185 0.353805
  C 3.352079 0.626224 1.577071
  C 2.440192 1.095342 2.707010
  C 3.243609 1.481764 3.944338
  C 3.219069 -0.202744 -0.814212
  C 4.596075 -0.348777 -1.003339
  C 5.209555 -0.861479 -2.148975
  C 4.503381 -1.494139 -3.277328
  H 3.436105 -1.575948 -3.124921
  O 6.514453 -0.892562 -2.247356
  H 4.079774 1.414561 1.348958
  H 3.954650 -0.220339 1.930275
  H 1.738399 0.300991 2.968694
  H 1.856495 1.956425 2.375436
  H 3.816882 0.635347 4.315860
  H 2.580336 1.812036 4.739694
  H 3.931918 2.294229 3.722988
  H 2.557137 -0.437501 -1.633909
  H 5.251057 -0.091741 -0.181523
  H 4.926948 -2.482170 -3.455638
  H 4.706266 -0.922235 -4.183413
  H 6.994339 -0.247805 -1.693797
 23
 6.239609
  H 1.531805 0.225146 0.433200
  C 2.611574 0.175550 0.400174
  C 3.325448 0.605015 1.605925
  C 2.418198 1.102457 2.726416
  C 3.226252 1.533318 3.945463
  C 3.190463 -0.273810 -0.763806
  C 4.567711 -0.421103 -0.950764
  C 5.190456 -0.891845 -2.105201
  C 4.502038 -1.415641 -3.296361
  H 3.424195 -1.426205 -3.202756
  O 6.507598 -1.011059 -2.128403
  H 4.051714 1.386337 1.352037
  H 3.934479 -0.228850 1.979247
  H 1.723257 0.312513 3.017327
  H 1.826363 1.948513 2.371989
  H 3.808955 0.703643 4.339238
  H 2.565363 1.882579 4.734607
  H 3.906356 2.344100 3.694579
  H 2.528854 -0.525901 -1.578825
  H 5.226726 -0.224882 -0.116420
  H 4.864721 -2.422154 -3.510752
  H 4.794898 -0.815584 -4.159540
  H 7.027528 -0.227264 -1.876907
 23
 10.997753
  H 1.565386 0.128486 0.443411
  C 2.646145 0.105532 0.401558
  C 3.359795 0.600816 1.579994
  C 2.454751 1.132173 2.686032
  C 3.265347 1.627398 3.878739
  C 3.227439 -0.373880 -0.751425
  C 4.607722 -0.500365 -0.943864
  C 5.238460 -0.918904 -2.111262
  C 4.567386 -1.264026 -3.372270
  H 3.489298 -1.188217 -3.318662
  O 6.559311 -1.099750 -2.072885
  H 4.074727 1.379014 1.286689
  H 3.985956 -0.206988 1.982630
  H 1.774240 0.345250 3.016724
  H 1.846614 1.952873 2.300771
  H 3.863351 0.824303 4.303401
  H 2.605115 2.000647 4.657334
  H 3.931412 2.436372 3.587899
  H 2.566722 -0.679414 -1.549013
  H 5.276157 -0.289839 -0.120601
  H 4.854866 -2.275726 -3.665878
  H 4.940760 -0.618511 -4.168582
  H 7.135483 -0.325324 -2.154360
 23
 10.151507
  H 1.558663 0.070005 0.470214
  C 2.640481 0.063970 0.427781
  C 3.346507 0.585417 1.601765
  C 2.433058 1.126206 2.696700
  C 3.234638 1.642903 3.886008
  C 3.228027 -0.432378 -0.717995
  C 4.609371 -0.530309 -0.915943
  C 5.243753 -0.954995 -2.085545
  C 4.581184 -1.205929 -3.374979
  H 3.506139 -1.076458 -3.333505
  O 6.551522 -1.155526 -2.006145
  H 4.055302 1.365415 1.296046
  H 3.981834 -0.207407 2.020604
  H 1.756860 0.339521 3.035373
  H 1.821108 1.936748 2.297601
  H 3.834065 0.849418 4.325332
  H 2.568394 2.024253 4.655484
  H 3.898336 2.450718 3.586902
  H 2.568513 -0.781709 -1.499186
  H 5.275050 -0.222362 -0.125171
  H 4.821895 -2.222073 -3.699868
  H 4.989707 -0.549590 -4.147053
  H 7.169484 -0.547724 -2.447605
 23
 4.833639
  H 1.582734 -0.035572 0.498278
  C 2.662623 -0.010416 0.443133
  C 3.366537 0.580689 1.584751
  C 2.447997 1.149714 2.661257
  C 3.246935 1.738049 3.818945
  C 3.255549 -0.523724 -0.688064
  C 4.636325 -0.599183 -0.887988
  C 5.280777 -0.932982 -2.079724
  C 4.631224 -1.027678 -3.399000
  H 3.561425 -0.870488 -3.345806
  O 6.573666 -1.156191 -1.978290
  H 4.054469 1.361376 1.239495
  H 4.018850 -0.181066 2.032368
  H 1.792316 0.363793 3.040860
  H 1.815184 1.927917 2.230359
  H 3.867265 0.978197 4.288826
  H 2.578533 2.140212 4.575959
  H 3.890674 2.545037 3.476658
  H 2.604745 -0.910903 -1.458640
  H 5.314588 -0.355569 -0.079861
  H 4.839417 -2.010513 -3.825926
  H 5.055857 -0.301079 -4.092387
  H 7.133700 -0.791316 -2.687200
 23
 6.885733
  H 1.495389 -0.292022 0.649807
  C 2.574001 -0.272460 0.576334
  C 3.299260 0.447193 1.629911
  C 2.398658 1.156941 2.635364
  C 3.214449 1.869301 3.708428
  C 3.157348 -0.883707 -0.501202
  C 4.542290 -0.968391 -0.717003
  C 5.190089 -1.013349 -1.948142
  C 4.563802 -0.671094 -3.236673
  H 3.507330 -0.459000 -3.121201
  O 6.456446 -1.360734 -1.887960
  H 3.998571 1.166913 1.191643
  H 3.938916 -0.273700 2.157191
  H 1.733516 0.433654 3.111034
  H 1.774631 1.887404 2.116722
  H 3.826895 1.162566 4.263733
  H 2.557438 2.370786 4.414531
  H 3.867559 2.618411 3.266910
  H 2.509758 -1.345454 -1.235156
  H 5.247365 -1.095254 0.095113
  H 4.698622 -1.503237 -3.929751
  H 5.045668 0.193543 -3.692909
  H 7.057839 -0.921209 -2.517999
 23
 16.474109
  H 1.432260 -0.471529 0.768458
  C 2.505143 -0.443038 0.638715
  C 3.275407 0.370009 1.591785
  C 2.419483 1.170390 2.566613
  C 3.280331 1.975658 3.533612
  C 3.049757 -1.121150 -0.409397
  C 4.433640 -1.183214 -0.690484
  C 5.106159 -1.020669 -1.891722
  C 4.584558 -0.379470 -3.108766
  H 3.537008 -0.122074 -2.993008
  O 6.345508 -1.481625 -1.841037
  H 3.951196 1.047573 1.060591
  H 3.937350 -0.305169 2.150895
  H 1.776224 0.495306 3.134595
  H 1.772203 1.852538 2.011745
  H 3.917468 1.321027 4.123752
  H 2.654124 2.541186 4.218997
  H 3.912440 2.679803 2.997528
  H 2.391721 -1.676879 -1.067076
  H 5.191670 -1.558777 -0.009285
  H 4.703597 -1.070387 -3.945198
  H 5.144624 0.519968 -3.363755
  H 7.044130 -0.904181 -2.197293
 23
 32.474367
  H 1.448751 -0.505718 0.809893
  C 2.512785 -0.476997 0.622179
  C 3.332868 0.356149 1.515448
  C 2.527406 1.190185 2.504360
  C 3.434854 2.025536 3.400684
  C 3.001120 -1.185959 -0.429553
  C 4.360878 -1.198988 -0.819565
  C 5.101447 -0.986471 -1.964624
  C 4.766858 -0.263105 -3.199079
  H 3.734418 0.072413 -3.178340
  O 6.308856 -1.552464 -1.811304
  H 3.978876 1.015034 0.925991
  H 4.019562 -0.300420 2.065360
  H 1.914219 0.534818 3.126295
  H 1.852356 1.854100 1.960243
  H 4.100436 1.389596 3.979684
  H 2.843165 2.614011 4.097311
  H 4.039358 2.711130 2.811431
  H 2.331851 -1.844892 -0.971774
  H 5.193697 -1.710805 -0.294556
  H 4.912413 -0.935486 -4.045687
  H 5.416528 0.598082 -3.352647
  H 7.082508 -0.972119 -1.915834
 23
 55.756613
  H 1.318041 -0.513693 0.966521
  C 2.363874 -0.473016 0.696234
  C 3.243338 0.361102 1.522027
  C 2.509496 1.191421 2.569821
  C 3.479276 2.037599 3.387794
  C 2.777854 -1.179056 -0.403634
  C 4.088573 -1.177805 -0.891073
  C 4.922595 -0.987641 -1.918131
  C 4.854058 -0.231456 -3.180949
  H 3.865561 0.198440 -3.310398
  O 6.088909 -1.686514 -1.595158
  H 3.829736 1.020393 0.871346
  H 3.978102 -0.278501 2.026283
  H 1.955529 0.532462 3.241235
  H 1.786705 1.846454 2.079319
  H 4.195241 1.409540 3.912682
  H 2.940900 2.623455 4.128353
  H 4.027352 2.726066 2.748970
  H 2.073605 -1.846324 -0.889519
  H 5.075250 -1.804638 -0.412304
  H 5.061333 -0.908434 -4.009573
  H 5.592753 0.568413 -3.206081
  H 6.903938 -1.157462 -1.542116
 23
 64.407202
  H 1.287376 -0.499449 1.004771
  C 2.321138 -0.451134 0.696446
  C 3.232512 0.382349 1.503909
  C 2.524128 1.194178 2.585633
  C 3.512992 2.040154 3.380094
  C 2.700073 -1.141689 -0.422818
  C 3.972192 -1.137896 -0.957178
  C 4.850112 -0.978878 -1.919289
  C 4.908523 -0.240881 -3.194060
  H 3.950291 0.225265 -3.399314
  O 6.004413 -1.737423 -1.496258
  H 3.787698 1.054800 0.840209
  H 3.986625 -0.254748 1.979334
  H 1.999372 0.521497 3.266958
  H 1.779389 1.847673 2.126678
  H 4.251858 1.412149 3.872638
  H 2.994785 2.612776 4.145310
  H 4.032538 2.740556 2.730184
  H 1.983743 -1.810768 -0.888115
  H 5.174416 -1.879661 -0.500181
  H 5.147967 -0.933140 -4.000424
  H 5.677108 0.530029 -3.167540
  H 6.831336 -1.222839 -1.391588
 23
 56.333894
  H 1.297162 -0.524333 1.037539
  C 2.319945 -0.455926 0.700708
  C 3.241894 0.394947 1.486822
  C 2.545650 1.189697 2.588277
  C 3.536742 2.053452 3.360585
  C 2.682311 -1.137182 -0.435574
  C 3.922603 -1.116386 -1.001129
  C 4.823078 -0.963322 -1.920801
  C 4.942492 -0.222133 -3.189065
  H 3.998382 0.256170 -3.427569
  O 6.003167 -1.755387 -1.465369
  H 3.765686 1.081190 0.811970
  H 4.019424 -0.228639 1.942051
  H 2.051459 0.504320 3.280231
  H 1.776561 1.829275 2.149834
  H 4.300090 1.438736 3.832419
  H 3.026392 2.613642 4.140430
  H 4.025610 2.765680 2.699609
  H 1.962979 -1.814134 -0.883613
  H 5.380149 -1.945446 -0.605962
  H 5.202762 -0.914190 -3.988668
  H 5.717884 0.539863 -3.129899
  H 6.826409 -1.229783 -1.344198
 23
 45.604937
  H 1.296765 -0.650856 1.151842
  C 2.288989 -0.521528 0.749495
  C 3.203285 0.403592 1.459666
  C 2.521564 1.169163 2.591620
  C 3.494870 2.109668 3.293386
  C 2.623036 -1.194614 -0.405715
  C 3.813339 -1.128346 -1.037056
  C 4.756081 -0.958206 -1.883494
  C 4.978599 -0.101508 -3.061746
  H 4.077739 0.464749 -3.275360
  O 5.945450 -1.878246 -1.557382
  H 3.633763 1.113206 0.744746
  H 4.045367 -0.158915 1.877590
  H 2.115916 0.463059 3.319529
  H 1.686197 1.747874 2.191210
  H 4.323843 1.554269 3.726463
  H 2.994043 2.647485 4.094903
  H 3.895552 2.841163 2.595175
  H 1.899002 -1.882864 -0.826503
  H 5.520679 -2.238565 -0.746314
  H 5.216842 -0.723171 -3.923151
  H 5.796953 0.596389 -2.895910
  H 6.796636 -1.407727 -1.404816
 23
 41.055995
  H 1.261571 -0.612536 1.112908
  C 2.267279 -0.513539 0.736496
  C 3.187864 0.394649 1.462534
  C 2.498379 1.184106 2.572970
  C 3.479352 2.096531 3.300656
  C 2.618440 -1.210670 -0.399231
  C 3.831048 -1.180717 -0.992979
  C 4.796086 -1.007423 -1.829899
  C 4.934880 -0.115496 -3.011032
  H 4.001174 0.406428 -3.191261
  O 6.034456 -1.812466 -1.619871
  H 3.650147 1.089743 0.753554
  H 4.005154 -0.187805 1.902145
  H 2.050211 0.492646 3.290086
  H 1.692956 1.786801 2.147380
  H 4.278255 1.516928 3.757952
  H 2.972725 2.651467 4.086680
  H 3.922184 2.813042 2.612436
  H 1.891298 -1.888897 -0.830613
  H 5.886386 -2.297822 -0.777898
  H 5.176815 -0.711948 -3.888714
  H 5.718851 0.623186 -2.857368
  H 6.840507 -1.246007 -1.579191
 23
 41.533993
  H 1.208420 -0.472607 0.991970
  C 2.239233 -0.441181 0.676275
  C 3.171422 0.405494 1.461076
  C 2.479293 1.174799 2.583810
  C 3.468086 2.032484 3.365484
  C 2.608875 -1.157864 -0.439096
  C 3.857451 -1.213743 -0.959051
  C 4.821417 -1.052920 -1.800902
  C 4.910245 -0.182476 -3.008268
  H 3.956976 0.305242 -3.181863
  O 6.090911 -1.780083 -1.587019
  H 3.671213 1.113478 0.791135
  H 3.958088 -0.220892 1.894639
  H 1.995156 0.471492 3.265099
  H 1.701223 1.815396 2.162574
  H 4.239217 1.414496 3.820118
  H 2.958598 2.574547 4.158607
  H 3.946896 2.759354 2.713133
  H 1.864976 -1.792160 -0.908312
  H 6.140746 -2.068921 -0.648839
  H 5.149896 -0.790746 -3.878543
  H 5.669870 0.586744 -2.885727
  H 6.866489 -1.227913 -1.842053
