 28
 0.000000
  C 0.961963 0.151099 0.422095
  C 2.435682 0.142191 0.400800
  C 3.232973 0.607334 1.556576
  C 2.471785 1.094564 2.783668
  H 3.165100 1.405128 3.555229
  C 3.038460 -0.326025 -0.763020
  C 4.420402 -0.413843 -0.981902
  C 5.086603 -0.861923 -2.097274
  C 4.614274 -1.382216 -3.392795
  C 3.130715 -1.510096 -3.712552
  C 2.935171 -2.074595 -5.118140
  H 6.167317 -0.849321 -2.065869
  H 0.546282 0.532120 1.347572
  H 0.572281 -0.856474 0.265937
  H 0.584209 0.761491 -0.399543
  H 3.888148 1.416821 1.215003
  H 3.894483 -0.210165 1.865102
  H 1.842288 0.303366 3.186354
  H 1.836425 1.941707 2.532535
  H 2.372331 -0.642136 -1.548370
  H 5.047025 -0.084290 -0.162427
  H 5.082645 -2.367980 -3.514271
  H 5.083329 -0.754804 -4.162379
  H 2.648770 -0.532364 -3.667276
  H 2.648136 -2.184524 -3.003658
  H 3.383060 -1.424842 -5.866534
  H 1.875085 -2.164155 -5.342143
  H 3.382485 -3.061799 -5.209036
 28
 4.200774
  C 0.945113 0.215259 0.408249
  C 2.391085 0.155203 0.401039
  C 3.222475 0.613399 1.562307
  C 2.476583 1.086638 2.807777
  H 3.196604 1.396492 3.561395
  C 3.009705 -0.329176 -0.769630
  C 4.409964 -0.424176 -0.978072
  C 5.063100 -0.875669 -2.089671
  C 4.603910 -1.390317 -3.385048
  C 3.123081 -1.511490 -3.718889
  C 2.939873 -2.071796 -5.127834
  H 6.144556 -0.857190 -2.020579
  H 0.489584 0.565465 1.313987
  H 0.827851 -0.854070 0.260181
  H 0.517924 0.715400 -0.444740
  H 3.861159 1.432397 1.205553
  H 3.911452 -0.190320 1.850412
  H 1.872695 0.290265 3.235615
  H 1.836806 1.938535 2.592879
  H 2.345648 -0.645963 -1.562639
  H 5.048610 -0.101613 -0.173362
  H 5.078940 -2.373867 -3.511795
  H 5.092287 -0.772393 -4.152412
  H 2.647387 -0.531205 -3.673447
  H 2.634096 -2.185019 -3.014413
  H 3.399697 -1.421957 -5.869048
  H 1.883201 -2.158773 -5.367527
  H 3.386510 -3.059707 -5.216126
 28
 13.253151
  C 0.950018 0.273845 0.411356
  C 2.388505 0.163286 0.392069
  C 3.207376 0.602296 1.544595
  C 2.453340 1.056657 2.773249
  H 3.157485 1.368984 3.530344
  C 3.025283 -0.333405 -0.786283
  C 4.407418 -0.428524 -0.980015
  C 5.075985 -0.887498 -2.096659
  C 4.611002 -1.396632 -3.382929
  C 3.133068 -1.501461 -3.695255
  C 2.927126 -2.056937 -5.099340
  H 6.149292 -0.879726 -2.040071
  H 0.477290 0.628836 1.328350
  H 1.045755 -0.815759 0.329475
  H 0.482840 0.667643 -0.451046
  H 3.825770 1.427983 1.182931
  H 3.904321 -0.190882 1.834378
  H 1.858315 0.247646 3.188053
  H 1.808389 1.901820 2.553721
  H 2.379852 -0.652721 -1.589515
  H 5.031076 -0.101516 -0.166513
  H 5.072054 -2.384642 -3.513001
  H 5.093588 -0.782002 -4.154068
  H 2.668888 -0.516198 -3.642472
  H 2.646783 -2.170901 -2.985096
  H 3.384629 -1.410584 -5.845359
  H 1.866536 -2.132105 -5.324291
  H 3.362976 -3.049652 -5.194007
 28
 21.147992
  C 0.931962 0.317283 0.420226
  C 2.363456 0.156312 0.398574
  C 3.204992 0.594896 1.550709
  C 2.472205 1.062105 2.803582
  H 3.200973 1.370478 3.549388
  C 2.989595 -0.337606 -0.775975
  C 4.380903 -0.435628 -0.971747
  C 5.048358 -0.888357 -2.075804
  C 4.603509 -1.399810 -3.382595
  C 3.124678 -1.515109 -3.731117
  C 2.953959 -2.066137 -5.143193
  H 6.131050 -0.876468 -2.001072
  H 0.468963 0.676614 1.307970
  H 1.195241 -0.775679 0.424863
  H 0.415332 0.612207 -0.478664
  H 3.811266 1.423908 1.167321
  H 3.905917 -0.198410 1.828960
  H 1.879358 0.263051 3.235648
  H 1.833168 1.913621 2.599363
  H 2.334462 -0.645649 -1.574523
  H 5.010992 -0.109687 -0.158232
  H 5.072430 -2.384270 -3.504782
  H 5.096932 -0.778531 -4.140600
  H 2.652218 -0.533799 -3.685497
  H 2.627869 -2.192119 -3.036104
  H 3.423823 -1.413280 -5.874925
  H 1.899821 -2.148927 -5.393893
  H 3.399731 -3.054132 -5.231887
 28
 26.629883
  C 0.945789 0.345548 0.414238
  C 2.363745 0.153823 0.399955
  C 3.206948 0.591194 1.555336
  C 2.463130 1.053741 2.794583
  H 3.182112 1.353666 3.547531
  C 2.994112 -0.340132 -0.782307
  C 4.371154 -0.437061 -0.968815
  C 5.045976 -0.891201 -2.072421
  C 4.604787 -1.403542 -3.387226
  C 3.124914 -1.513908 -3.734614
  C 2.951132 -2.062571 -5.149064
  H 6.123998 -0.880019 -1.988661
  H 0.463477 0.735251 1.302977
  H 1.332774 -0.734957 0.521726
  H 0.407838 0.517685 -0.508467
  H 3.807230 1.420964 1.177548
  H 3.905282 -0.198727 1.836359
  H 1.859280 0.256208 3.217469
  H 1.831818 1.911776 2.585552
  H 2.339484 -0.639817 -1.582118
  H 4.999923 -0.114732 -0.150543
  H 5.071555 -2.392187 -3.509725
  H 5.100449 -0.780330 -4.146176
  H 2.655774 -0.529789 -3.686578
  H 2.627127 -2.191523 -3.039171
  H 3.422876 -1.409727 -5.880165
  H 1.896258 -2.142058 -5.399893
  H 3.394551 -3.051714 -5.239924
 28
 29.280694
  C 0.947746 0.377296 0.410371
  C 2.358334 0.154669 0.410340
  C 3.208853 0.588569 1.567111
  C 2.454936 1.053563 2.804372
  H 3.171436 1.333273 3.571749
  C 2.988399 -0.341708 -0.786742
  C 4.367430 -0.441762 -0.977487
  C 5.043087 -0.893650 -2.078632
  C 4.606780 -1.405343 -3.396534
  C 3.127057 -1.517052 -3.749947
  C 2.958667 -2.064896 -5.166945
  H 6.121227 -0.881402 -1.992268
  H 0.458578 0.823744 1.268406
  H 1.436458 -0.688802 0.654026
  H 0.392321 0.390021 -0.513743
  H 3.820015 1.415953 1.197959
  H 3.894668 -0.213541 1.849092
  H 1.829302 0.264452 3.212478
  H 1.843886 1.927356 2.595394
  H 2.330489 -0.633122 -1.577311
  H 4.996174 -0.122449 -0.161390
  H 5.073915 -2.394255 -3.518643
  H 5.103004 -0.779790 -4.153784
  H 2.656758 -0.532499 -3.702623
  H 2.627634 -2.196524 -3.056336
  H 3.432826 -1.410488 -5.895899
  H 1.904501 -2.145526 -5.422124
  H 3.404094 -3.053649 -5.257311
 28
 32.560592
  C 0.940145 0.391164 0.387751
  C 2.349215 0.144136 0.405585
  C 3.207796 0.582264 1.564295
  C 2.457602 1.053414 2.801492
  H 3.176645 1.319477 3.571448
  C 2.987961 -0.354124 -0.792533
  C 4.365765 -0.449454 -0.976098
  C 5.048199 -0.896476 -2.080471
  C 4.611864 -1.403462 -3.397498
  C 3.134292 -1.512584 -3.741498
  C 2.956800 -2.055065 -5.157354
  H 6.125339 -0.881750 -1.993929
  H 0.455168 0.872869 1.212872
  H 1.512971 -0.658318 0.720725
  H 0.375792 0.299207 -0.524567
  H 3.827740 1.404897 1.200580
  H 3.882177 -0.229301 1.845358
  H 1.816484 0.270299 3.207015
  H 1.860696 1.940171 2.592874
  H 2.331133 -0.651183 -1.588679
  H 4.994353 -0.127185 -0.151695
  H 5.075997 -2.388782 -3.524434
  H 5.101977 -0.776789 -4.152028
  H 2.666561 -0.529980 -3.687098
  H 2.639842 -2.191746 -3.047370
  H 3.426744 -1.399136 -5.886848
  H 1.901135 -2.134088 -5.406326
  H 3.400765 -3.043602 -5.253804
 28
 35.495742
  C 0.943089 0.413282 0.392355
  C 2.344957 0.135107 0.412987
  C 3.214142 0.581135 1.571594
  C 2.461905 1.055189 2.811559
  H 3.178594 1.318703 3.582615
  C 2.976868 -0.361569 -0.786487
  C 4.347617 -0.453986 -0.973545
  C 5.034718 -0.896591 -2.078519
  C 4.611323 -1.402061 -3.396210
  C 3.130249 -1.521776 -3.759174
  C 2.974543 -2.061007 -5.173191
  H 6.123237 -0.876640 -1.986447
  H 0.456398 0.905297 1.229059
  H 1.578343 -0.646705 0.751600
  H 0.369748 0.288031 -0.517558
  H 3.835001 1.398587 1.209937
  H 3.879429 -0.224384 1.848011
  H 1.825254 0.286015 3.211418
  H 1.874696 1.934175 2.605562
  H 2.313419 -0.659790 -1.579606
  H 4.963149 -0.138846 -0.166490
  H 5.084174 -2.384971 -3.519905
  H 5.105900 -0.769210 -4.145267
  H 2.652500 -0.538962 -3.709954
  H 2.630930 -2.208786 -3.071692
  H 3.448295 -1.400140 -5.894605
  H 1.925318 -2.147116 -5.434149
  H 3.426769 -3.044782 -5.265187
 28
 38.122319
  C 0.939607 0.423459 0.389392
  C 2.340615 0.118315 0.432778
  C 3.217297 0.588392 1.575971
  C 2.462805 1.072651 2.808038
  H 3.178975 1.345465 3.578542
  C 2.980060 -0.382987 -0.785313
  C 4.353418 -0.475394 -0.970114
  C 5.039642 -0.910215 -2.078366
  C 4.612749 -1.405951 -3.402365
  C 3.139942 -1.517600 -3.759980
  C 2.977733 -2.047226 -5.180801
  H 6.113336 -0.891902 -1.988230
  H 0.446876 0.909059 1.209233
  H 1.628548 -0.662075 0.791060
  H 0.362723 0.243563 -0.504453
  H 3.835465 1.407567 1.199382
  H 3.893420 -0.222308 1.865459
  H 1.816289 0.294601 3.220157
  H 1.866707 1.959946 2.589231
  H 2.313100 -0.680752 -1.574301
  H 4.980990 -0.158792 -0.144326
  H 5.082031 -2.388908 -3.534745
  H 5.106568 -0.769573 -4.147261
  H 2.668546 -0.538384 -3.701864
  H 2.642403 -2.204912 -3.077924
  H 3.451113 -1.383550 -5.898335
  H 1.926458 -2.127947 -5.439636
  H 3.426089 -3.031309 -5.281635
 28
 40.334018
  C 0.943505 0.430246 0.348088
  C 2.340955 0.099825 0.417941
  C 3.223896 0.586927 1.574847
  C 2.468997 1.067843 2.802685
  H 3.177380 1.340757 3.568313
  C 2.983712 -0.390937 -0.782742
  C 4.355606 -0.478115 -0.961699
  C 5.045033 -0.911179 -2.075969
  C 4.612418 -1.401549 -3.392195
  C 3.149707 -1.507453 -3.729755
  C 2.970552 -2.038448 -5.162788
  H 6.109493 -0.892639 -1.991152
  H 0.445276 0.909899 1.159790
  H 1.686983 -0.685738 0.774439
  H 0.375732 0.228909 -0.554133
  H 3.833238 1.403068 1.201801
  H 3.896367 -0.209659 1.865144
  H 1.827234 0.290401 3.212314
  H 1.875323 1.948935 2.584055
  H 2.326328 -0.691368 -1.574320
  H 4.978861 -0.160765 -0.134815
  H 5.074351 -2.378620 -3.530609
  H 5.094954 -0.769667 -4.134673
  H 2.680079 -0.517175 -3.661425
  H 2.656360 -2.200516 -3.035159
  H 3.442742 -1.367563 -5.891954
  H 1.903971 -2.117115 -5.413621
  H 3.420178 -3.034004 -5.272058
 28
 41.618511
  C 0.949633 0.452644 0.359248
  C 2.342051 0.091809 0.443125
  C 3.220045 0.589330 1.573745
  C 2.454909 1.074295 2.806208
  H 3.171512 1.358036 3.585726
  C 2.991484 -0.400321 -0.780624
  C 4.365055 -0.488694 -0.960610
  C 5.051764 -0.916654 -2.072292
  C 4.617878 -1.406612 -3.401907
  C 3.143630 -1.515113 -3.749460
  C 2.972614 -2.036053 -5.172055
  H 6.144422 -0.896233 -1.983145
  H 0.446246 0.932203 1.179280
  H 1.733699 -0.709392 0.809165
  H 0.385992 0.233083 -0.525215
  H 3.826204 1.412582 1.187901
  H 3.901843 -0.205686 1.867044
  H 1.811314 0.292143 3.218134
  H 1.852155 1.956759 2.581372
  H 2.327202 -0.697366 -1.573224
  H 4.988853 -0.175655 -0.134667
  H 5.087691 -2.394217 -3.543133
  H 5.107923 -0.763414 -4.149238
  H 2.672274 -0.529288 -3.680783
  H 2.649218 -2.210178 -3.062643
  H 3.439114 -1.371834 -5.885753
  H 1.924218 -2.114759 -5.424074
  H 3.417372 -3.014907 -5.281674
 28
 41.725048
  C 0.943862 0.476017 0.372204
  C 2.326745 0.073470 0.468977
  C 3.222689 0.605979 1.584460
  C 2.471885 1.092548 2.820291
  H 3.188107 1.382751 3.581390
  C 2.979758 -0.410848 -0.778617
  C 4.346881 -0.505457 -0.956672
  C 5.036960 -0.929680 -2.069189
  C 4.617257 -1.409847 -3.400041
  C 3.146355 -1.523301 -3.771066
  C 2.998311 -2.035253 -5.202361
  H 6.116550 -0.907551 -1.974515
  H 0.438966 0.946139 1.202059
  H 1.780787 -0.767620 0.848738
  H 0.368117 0.244579 -0.508904
  H 3.807421 1.432673 1.180561
  H 3.923373 -0.180048 1.881463
  H 1.844400 0.316830 3.240447
  H 1.866392 1.960114 2.600459
  H 2.306972 -0.698537 -1.567340
  H 4.972214 -0.204076 -0.124060
  H 5.092727 -2.391491 -3.541112
  H 5.115411 -0.762048 -4.136301
  H 2.669133 -0.544593 -3.703753
  H 2.646019 -2.223165 -3.101715
  H 3.476034 -1.357237 -5.909675
  H 1.945368 -2.117551 -5.471882
  H 3.453618 -3.019735 -5.313198
 28
 42.105721
  C 0.962413 0.476873 0.326752
  C 2.341435 0.046652 0.461073
  C 3.221263 0.609988 1.576512
  C 2.450886 1.091234 2.802593
  H 3.153954 1.394041 3.568490
  C 3.017013 -0.427591 -0.785737
  C 4.385536 -0.520478 -0.947597
  C 5.077491 -0.941703 -2.067107
  C 4.636390 -1.410992 -3.395584
  C 3.146329 -1.507830 -3.735731
  C 2.957857 -2.009275 -5.164041
  H 6.155948 -0.924608 -1.979686
  H 0.443045 0.937976 1.147829
  H 1.852302 -0.821206 0.839969
  H 0.400804 0.238796 -0.560280
  H 3.793411 1.447340 1.166576
  H 3.932358 -0.158041 1.886719
  H 1.826546 0.303916 3.220766
  H 1.833060 1.952320 2.572057
  H 2.356994 -0.712580 -1.581080
  H 5.003718 -0.223462 -0.112874
  H 5.101539 -2.393114 -3.550891
  H 5.128121 -0.764464 -4.136428
  H 2.681688 -0.528342 -3.650485
  H 2.657025 -2.201479 -3.062451
  H 3.424477 -1.332901 -5.878107
  H 1.898579 -2.078854 -5.407689
  H 3.399449 -2.997155 -5.291303
 28
 43.062702
  C 0.962653 0.498308 0.341966
  C 2.334461 0.042780 0.479502
  C 3.229391 0.617436 1.587297
  C 2.470090 1.092610 2.816368
  H 3.183868 1.399507 3.584150
  C 2.996185 -0.423118 -0.769687
  C 4.360222 -0.520491 -0.940376
  C 5.050288 -0.940448 -2.059062
  C 4.624582 -1.409910 -3.392128
  C 3.147091 -1.519273 -3.762316
  C 2.991406 -2.023363 -5.205387
  H 6.121449 -0.920175 -1.966789
  H 0.443843 0.965656 1.170252
  H 1.893181 -0.827426 0.860109
  H 0.397047 0.259007 -0.542823
  H 3.789164 1.455997 1.172629
  H 3.946773 -0.144571 1.891521
  H 1.853084 0.303068 3.235965
  H 1.845335 1.952711 2.591170
  H 2.327190 -0.704543 -1.564739
  H 4.982008 -0.229137 -0.106326
  H 5.096789 -2.381327 -3.539308
  H 5.120215 -0.764950 -4.118134
  H 2.670098 -0.542010 -3.685138
  H 2.648441 -2.219380 -3.099234
  H 3.465574 -1.342986 -5.908545
  H 1.941732 -2.101845 -5.470485
  H 3.442545 -3.004667 -5.325825
