 28
 0.000000
  C 0.919109 0.057820 0.262492
  C 2.412571 0.072180 0.085285
  C 3.242249 -0.000733 1.360775
  C 2.512482 -0.095412 2.700018
  C 3.511404 -0.162850 3.850541
  C 3.008446 0.136486 -1.125268
  C 2.351958 0.200201 -2.492183
  C 0.841107 0.222729 -2.705430
  H 0.630026 0.270934 -3.768852
  C 4.467716 0.139690 -1.217495
  C 5.204084 0.193783 -2.321810
  H 6.281011 0.191652 -2.308392
  H 0.622856 0.000604 1.303604
  H 0.479600 -0.807243 -0.226892
  H 0.473573 0.967561 -0.131232
  H 3.880435 0.885495 1.414899
  H 3.896666 -0.875649 1.291886
  H 1.887712 -0.990968 2.730489
  H 1.872921 0.777758 2.847180
  H 4.154171 -1.035670 3.754862
  H 2.986605 -0.230031 4.801323
  H 4.139287 0.725692 3.871111
  H 2.734315 -0.658801 -3.055223
  H 2.748750 1.097737 -2.979930
  H 0.388906 1.092267 -2.237430
  H 0.372756 -0.675616 -2.314636
  H 5.009402 0.093174 -0.284903
  H 4.817633 0.244019 -3.326462
 28
 -0.539819
  C 0.909234 -0.275622 0.242739
  C 2.394352 -0.114818 0.077858
  C 3.232558 -0.162151 1.346207
  C 2.509492 -0.023799 2.686225
  C 3.520017 0.025911 3.828256
  C 2.993932 0.054561 -1.118857
  C 2.348985 0.224066 -2.482849
  C 0.847258 0.417820 -2.663694
  H 0.654447 0.582110 -3.723619
  C 4.455766 0.042293 -1.211989
  C 5.203646 0.214656 -2.299303
  H 6.277483 0.149581 -2.238184
  H 0.644554 -0.493725 1.270193
  H 0.548675 -1.099700 -0.368174
  H 0.376951 0.626358 -0.047470
  H 3.957642 0.653825 1.298255
  H 3.794563 -1.102253 1.367823
  H 1.842176 -0.870275 2.859220
  H 1.917196 0.893657 2.695590
  H 4.115508 -0.884531 3.851990
  H 3.010288 0.126242 4.783957
  H 4.193947 0.871949 3.709843
  H 2.654454 -0.635383 -3.089752
  H 2.825457 1.106084 -2.921908
  H 0.491250 1.291999 -2.126287
  H 0.274154 -0.450878 -2.359318
  H 4.987274 -0.171431 -0.297583
  H 4.814372 0.422195 -3.280145
 28
 -0.553148
  C 0.940998 -0.546585 0.215054
  C 2.410826 -0.275966 0.062491
  C 3.234830 -0.306264 1.339070
  C 2.509461 0.119768 2.618640
  C 3.486813 0.183944 3.787611
  C 3.006270 0.008301 -1.114052
  C 2.346634 0.284490 -2.453016
  C 0.849319 0.549770 -2.567650
  H 0.629845 0.823934 -3.599181
  C 4.466485 -0.031286 -1.224603
  C 5.213955 0.280121 -2.280448
  H 6.283263 0.151256 -2.249512
  H 0.716361 -0.910541 1.211162
  H 0.625598 -1.312664 -0.489622
  H 0.342201 0.344831 0.047297
  H 4.052970 0.400124 1.202418
  H 3.653681 -1.305916 1.493325
  H 1.715343 -0.582063 2.875861
  H 2.059890 1.103678 2.470333
  H 3.937547 -0.790874 3.962727
  H 2.974775 0.492462 4.696372
  H 4.283343 0.896860 3.584736
  H 2.605473 -0.537909 -3.128851
  H 2.843244 1.179518 -2.838248
  H 0.548190 1.379696 -1.934227
  H 0.251032 -0.321721 -2.327695
  H 4.992315 -0.420475 -0.365119
  H 4.828099 0.667362 -3.206786
 28
 -1.175521
  C 0.980558 -0.778739 0.193703
  C 2.429190 -0.411600 0.046177
  C 3.228885 -0.443000 1.330447
  C 2.527523 0.265608 2.496006
  C 3.443965 0.342670 3.711524
  C 3.019827 -0.040923 -1.107068
  C 2.341516 0.335260 -2.410643
  C 0.854714 0.673051 -2.435366
  H 0.604667 1.057278 -3.423760
  C 4.478522 -0.095040 -1.237190
  C 5.229152 0.358351 -2.237770
  H 6.292048 0.182782 -2.245583
  H 0.825128 -1.294264 1.137474
  H 0.680501 -1.455054 -0.603138
  H 0.325258 0.089223 0.176745
  H 4.147868 0.109393 1.146453
  H 3.462353 -1.470528 1.623080
  H 1.613971 -0.257152 2.780939
  H 2.252054 1.275155 2.183837
  H 3.721673 -0.655562 4.044018
  H 2.945689 0.851338 4.533827
  H 4.354493 0.888179 3.472617
  H 2.541818 -0.449433 -3.148022
  H 2.861235 1.233187 -2.754385
  H 0.621682 1.446594 -1.708330
  H 0.226038 -0.190747 -2.252728
  H 4.993323 -0.642131 -0.459576
  H 4.849564 0.912272 -3.078159
 28
 0.467124
  C 1.036762 -1.086387 0.130598
  C 2.446775 -0.583591 0.032651
  C 3.211905 -0.592947 1.333776
  C 2.534834 0.357970 2.334002
  C 3.382284 0.529599 3.588477
  C 3.042022 -0.075924 -1.068031
  C 2.345522 0.451135 -2.307116
  C 0.874458 0.839008 -2.211167
  H 0.586865 1.357691 -3.124755
  C 4.486313 -0.220782 -1.245179
  C 5.242941 0.288714 -2.214372
  H 6.285011 0.026954 -2.290276
  H 0.950645 -1.728054 1.005335
  H 0.783654 -1.674030 -0.748662
  H 0.303196 -0.288259 0.234990
  H 4.179468 -0.148153 1.111407
  H 3.292366 -1.586717 1.775013
  H 1.553444 -0.027328 2.616993
  H 2.385989 1.328113 1.855263
  H 3.533624 -0.428881 4.080835
  H 2.894079 1.202203 4.290329
  H 4.357360 0.942577 3.338878
  H 2.479788 -0.257058 -3.131537
  H 2.890105 1.360081 -2.575585
  H 0.709536 1.513033 -1.373962
  H 0.225493 -0.022749 -2.105352
  H 4.973330 -0.882010 -0.541007
  H 4.878456 0.958308 -2.973344
 28
 9.372710
  C 1.088357 -1.346210 -0.000484
  C 2.410191 -0.644719 0.027116
  C 3.152695 -0.624165 1.339570
  C 2.501477 0.429450 2.256989
  C 3.378451 0.717010 3.469155
  C 3.053415 -0.046492 -1.007946
  C 2.372711 0.613742 -2.192297
  C 0.920553 1.034551 -2.000757
  H 0.602175 1.635387 -2.851104
  C 4.455976 -0.340598 -1.232047
  C 5.232108 0.135306 -2.206320
  H 6.214598 -0.276712 -2.375881
  H 1.037639 -2.024569 0.848916
  H 0.990424 -1.920545 -0.919352
  H 0.232266 -0.674329 0.072080
  H 4.086951 -0.143554 1.042481
  H 3.206853 -1.580083 1.854058
  H 1.525646 0.075161 2.598554
  H 2.338459 1.347377 1.689368
  H 3.547897 -0.192746 4.041856
  H 2.902395 1.448184 4.119592
  H 4.344702 1.109791 3.159021
  H 2.449014 -0.025005 -3.080018
  H 2.953410 1.518931 -2.394565
  H 0.811011 1.632825 -1.098757
  H 0.260023 0.180737 -1.934837
  H 4.874801 -1.103867 -0.587372
  H 4.929441 0.917500 -2.885445
 28
 27.971089
  C 1.076612 -1.591090 -0.141152
  C 2.333150 -0.800800 0.011657
  C 3.033144 -0.670145 1.339849
  C 2.487548 0.507185 2.183052
  C 3.458708 0.864177 3.299688
  C 3.025785 -0.094280 -0.937987
  C 2.413004 0.731797 -2.052128
  C 0.984968 1.200229 -1.804758
  H 0.685234 1.897353 -2.585056
  C 4.402522 -0.484800 -1.196772
  C 5.217737 0.005186 -2.135201
  H 6.192893 -0.425019 -2.289823
  H 0.992712 -2.279247 0.697327
  H 1.097616 -2.154489 -1.071844
  H 0.173217 -0.975511 -0.142870
  H 3.876665 -0.103554 0.888076
  H 3.095531 -1.569641 1.942070
  H 1.525513 0.229018 2.628065
  H 2.310155 1.373273 1.543578
  H 3.624313 0.007383 3.949973
  H 3.062182 1.679981 3.901280
  H 4.419379 1.171974 2.890441
  H 2.453350 0.189501 -3.003877
  H 3.048580 1.613138 -2.157835
  H 0.907905 1.706709 -0.844504
  H 0.287357 0.369229 -1.815398
  H 4.771972 -1.294555 -0.579730
  H 4.947667 0.805703 -2.801819
 28
 53.878198
  C 1.078998 -1.703541 -0.261646
  C 2.248392 -0.828605 0.022453
  C 2.885000 -0.653866 1.346285
  C 2.482952 0.566119 2.207679
  C 3.576287 0.918719 3.204742
  C 3.009292 -0.050083 -0.842868
  C 2.447040 0.806839 -1.964817
  C 1.014085 1.277604 -1.748094
  H 0.739969 1.998321 -2.516205
  C 4.350075 -0.556516 -1.130118
  C 5.184613 -0.122259 -2.072317
  H 6.119585 -0.625462 -2.247720
  H 0.962850 -2.415847 0.553031
  H 1.214633 -2.242414 -1.197553
  H 0.146442 -1.138212 -0.332968
  H 3.674157 0.052739 0.742832
  H 2.971606 -1.539045 1.972580
  H 1.566282 0.323026 2.761111
  H 2.260570 1.427637 1.575296
  H 3.795086 0.068819 3.847179
  H 3.263920 1.750929 3.831558
  H 4.492210 1.199928 2.688155
  H 2.512641 0.272711 -2.919149
  H 3.091389 1.685901 -2.042706
  H 0.908889 1.755670 -0.776016
  H 0.313857 0.449958 -1.802413
  H 4.652011 -1.406890 -0.531489
  H 4.977724 0.719589 -2.708144
 28
 68.860658
  C 1.094475 -1.779359 -0.287512
  C 2.232412 -0.883605 0.056363
  C 2.759770 -0.666068 1.349670
  C 2.463477 0.602726 2.147623
  C 3.583703 0.951267 3.121208
  C 3.037828 -0.056980 -0.803962
  C 2.462620 0.835086 -1.891594
  C 1.046942 1.330132 -1.624873
  H 0.763964 2.065090 -2.375818
  C 4.378233 -0.597386 -1.124485
  C 5.198409 -0.176495 -2.081504
  H 6.136742 -0.672992 -2.256062
  H 0.931463 -2.483829 0.526884
  H 1.278497 -2.331950 -1.208256
  H 0.173906 -1.208667 -0.415570
  H 3.642610 0.163921 0.510126
  H 2.792371 -1.522049 2.036417
  H 1.542874 0.427299 2.717734
  H 2.280779 1.449210 1.481245
  H 3.764698 0.124366 3.804448
  H 3.320481 1.828894 3.707621
  H 4.507858 1.159156 2.584769
  H 2.495109 0.312294 -2.852175
  H 3.117916 1.706108 -1.976431
  H 0.980311 1.798409 -0.644998
  H 0.329049 0.517174 -1.667543
  H 4.681436 -1.440510 -0.515539
  H 4.979011 0.653718 -2.727827
 28
 53.699216
  C 1.159145 -1.864215 -0.321495
  C 2.223445 -0.912121 0.099183
  C 2.612634 -0.663484 1.377171
  C 2.439519 0.654443 2.099824
  C 3.577307 0.969100 3.068148
  C 3.073565 -0.050253 -0.784909
  C 2.463162 0.862429 -1.832426
  C 1.066970 1.361999 -1.497117
  H 0.775750 2.141969 -2.196644
  C 4.432078 -0.599756 -1.122046
  C 5.215734 -0.218421 -2.120554
  H 6.153582 -0.717571 -2.306587
  H 0.994100 -2.604305 0.459519
  H 1.402437 -2.375228 -1.251732
  H 0.226177 -1.323758 -0.463211
  H 3.583012 0.282574 0.260870
  H 2.521015 -1.470963 2.112444
  H 1.508059 0.573899 2.668654
  H 2.327146 1.480221 1.394227
  H 3.687405 0.168506 3.795430
  H 3.380285 1.894600 3.604008
  H 4.518656 1.075229 2.532774
  H 2.458097 0.354976 -2.797973
  H 3.117536 1.731188 -1.933596
  H 1.036311 1.776650 -0.493142
  H 0.334394 0.563251 -1.562197
  H 4.763043 -1.401831 -0.472172
  H 4.958895 0.569397 -2.805256
 28
 35.707649
  C 1.289888 -1.877679 -0.358232
  C 2.255520 -0.856746 0.140591
  C 2.576016 -0.645717 1.431538
  C 2.418935 0.661696 2.168970
  C 3.553923 0.959652 3.150879
  C 3.084908 0.062910 -0.730219
  C 2.467627 0.917823 -1.819436
  C 1.059785 1.403615 -1.509718
  H 0.714455 2.067397 -2.297360
  C 4.379260 -0.610655 -1.140190
  C 5.136158 -0.300155 -2.177645
  H 5.996378 -0.894041 -2.432905
  H 1.050529 -2.586770 0.433764
  H 1.665237 -2.427562 -1.224969
  H 0.370810 -1.374962 -0.649478
  H 3.599454 0.491303 0.193727
  H 2.540883 -1.461956 2.162668
  H 1.481066 0.580385 2.723348
  H 2.322281 1.498267 1.470784
  H 3.662421 0.141463 3.860933
  H 3.353476 1.871573 3.709104
  H 4.497361 1.072792 2.622567
  H 2.457622 0.342657 -2.745436
  H 3.105271 1.790629 -1.978149
  H 1.041568 1.950455 -0.570733
  H 0.360899 0.575901 -1.432610
  H 4.641312 -1.468902 -0.533687
  H 4.944043 0.543738 -2.813178
 28
 18.652080
  C 1.452130 -1.881252 -0.414379
  C 2.341647 -0.829755 0.155559
  C 2.532639 -0.617986 1.461933
  C 2.403256 0.692302 2.188283
  C 3.487358 0.926665 3.240306
  C 3.132909 0.113074 -0.732860
  C 2.449121 0.912390 -1.832007
  C 1.067489 1.431682 -1.454456
  H 0.680912 2.065540 -2.250342
  C 4.370762 -0.622494 -1.192128
  C 5.050185 -0.405264 -2.301287
  H 5.927088 -0.983574 -2.539385
  H 1.183543 -2.612041 0.347108
  H 1.902447 -2.399171 -1.261774
  H 0.537524 -1.401126 -0.757036
  H 3.612927 0.694710 0.081845
  H 2.393709 -1.437218 2.170544
  H 1.428302 0.654749 2.682629
  H 2.392923 1.533345 1.492315
  H 3.501881 0.112045 3.960409
  H 3.307796 1.856088 3.775882
  H 4.467198 0.987962 2.770620
  H 2.387021 0.301454 -2.734849
  H 3.078250 1.775614 -2.062279
  H 1.112826 2.019293 -0.540597
  H 0.362321 0.619717 -1.304585
  H 4.710095 -1.381869 -0.498375
  H 4.763850 0.334421 -3.028558
 28
 5.430586
  C 1.619732 -1.918064 -0.470867
  C 2.352928 -0.773294 0.158860
  C 2.384626 -0.545106 1.486759
  C 2.399959 0.788405 2.186777
  C 3.460523 0.880034 3.284899
  C 3.150915 0.156767 -0.731354
  C 2.416080 0.912712 -1.834959
  C 1.059793 1.453148 -1.395437
  H 0.639681 2.085084 -2.175549
  C 4.362706 -0.607234 -1.209352
  C 4.990311 -0.452711 -2.361319
  H 5.870980 -1.025926 -2.599175
  H 1.379993 -2.680609 0.267945
  H 2.188954 -2.373171 -1.281702
  H 0.685164 -1.544306 -0.885602
  H 3.619910 0.829035 0.015626
  H 2.110901 -1.324973 2.196704
  H 1.409954 0.897914 2.639183
  H 2.534797 1.613626 1.486630
  H 3.327173 0.079993 4.010058
  H 3.393276 1.832159 3.806976
  H 4.457588 0.790746 2.857994
  H 2.293195 0.256857 -2.699306
  H 3.035017 1.757758 -2.145241
  H 1.159804 2.048538 -0.490825
  H 0.355736 0.650501 -1.195872
  H 4.727991 -1.335890 -0.495458
  H 4.673846 0.253410 -3.109455
 28
 -2.275873
  C 1.759113 -1.887305 -0.466509
  C 2.355442 -0.668110 0.171287
  C 2.258937 -0.436055 1.474001
  C 2.439934 0.862977 2.205784
  C 3.456173 0.746828 3.341787
  C 3.147567 0.247402 -0.738678
  C 2.360219 0.877678 -1.888234
  C 1.014656 1.437188 -1.439446
  H 0.527157 1.949794 -2.266339
  C 4.362583 -0.528103 -1.187253
  C 4.957597 -0.455718 -2.363142
  H 5.839535 -1.034977 -2.581011
  H 1.453924 -2.611053 0.286024
  H 2.459923 -2.360907 -1.153302
  H 0.877627 -1.600362 -1.038150
  H 3.559259 1.027542 -0.082474
  H 1.889784 -1.203457 2.147270
  H 1.464105 1.124482 2.627059
  H 2.733941 1.673333 1.538585
  H 3.165331 -0.040325 4.034220
  H 3.525932 1.682021 3.893173
  H 4.440285 0.506341 2.944621
  H 2.214365 0.138463 -2.677986
  H 2.949973 1.698382 -2.303037
  H 1.150625 2.149362 -0.628392
  H 0.353093 0.649899 -1.089174
  H 4.765837 -1.183566 -0.424501
  H 4.605534 0.179128 -3.157782
 28
 -5.056602
  C 1.966370 -1.964901 -0.452525
  C 2.402751 -0.666074 0.161420
  C 2.167792 -0.395131 1.437610
  C 2.375065 0.897248 2.174638
  C 3.330991 0.712624 3.353382
  C 3.185644 0.267980 -0.745960
  C 2.342145 0.889836 -1.857795
  C 1.089847 1.575090 -1.324138
  H 0.544122 2.049967 -2.136456
  C 4.383735 -0.498526 -1.241850
  C 4.830868 -0.565042 -2.482337
  H 5.706498 -1.141377 -2.731848
  H 1.640363 -2.667528 0.310341
  H 2.768919 -2.414451 -1.034450
  H 1.129091 -1.785027 -1.127407
  H 3.578811 1.045601 -0.080136
  H 1.737846 -1.143826 2.094086
  H 1.399164 1.217332 2.552725
  H 2.745960 1.691089 1.526781
  H 2.962161 -0.058774 4.026215
  H 3.436687 1.638281 3.914488
  H 4.314377 0.412674 2.995539
  H 2.056272 0.110969 -2.567148
  H 2.950006 1.624735 -2.390024
  H 1.351895 2.340519 -0.597148
  H 0.431132 0.857854 -0.840350
  H 4.910311 -1.025499 -0.454437
  H 4.349627 -0.064761 -3.304815
