 25
 0.000000
  C 1.015631 0.117748 0.344173
  C 2.487164 0.131329 0.377521
  C 3.241661 0.604384 1.554811
  C 2.442230 1.088465 2.760103
  C 3.377470 1.537825 3.878609
  C 3.133791 -0.328268 -0.766874
  C 4.521107 -0.402186 -0.951759
  C 5.160385 -0.855243 -2.080756
  C 4.563855 -1.352970 -3.321218
  H 3.482416 -1.371561 -3.368105
  H 6.241710 -0.859140 -2.090617
  H 0.559421 0.484015 1.256086
  H 0.659058 -0.896935 0.160586
  H 0.658794 0.723413 -0.490226
  H 3.903047 1.417119 1.232523
  H 3.903268 -0.205270 1.884269
  H 1.804650 0.287514 3.138515
  H 1.804528 1.928535 2.479366
  H 4.013458 0.719409 4.208453
  H 2.802960 1.881742 4.735038
  H 4.013285 2.357104 3.550615
  H 2.499260 -0.654682 -1.579259
  H 5.142528 -0.072194 -0.129958
  H 4.950852 -2.358788 -3.504046
  H 4.951226 -0.752783 -4.148598
 25
 16.147953
  C 0.963124 0.137327 0.392983
  C 2.509914 0.095318 0.287916
  C 3.282198 0.564949 1.456456
  C 2.501361 1.051185 2.666904
  C 3.463945 1.491699 3.763921
  C 2.958483 -0.376516 -0.886314
  C 4.306524 -0.366130 -0.861994
  C 5.110022 -0.795517 -1.932249
  C 4.650772 -1.310859 -3.216428
  H 3.568148 -1.356248 -3.329636
  H 6.185679 -0.745403 -1.808042
  H 0.588783 0.513915 1.330295
  H 0.573890 -0.863884 0.232169
  H 0.573607 0.748893 -0.415725
  H 3.935226 1.385135 1.150758
  H 3.935357 -0.238650 1.803120
  H 1.868523 0.254537 3.058384
  H 1.868632 1.897352 2.398496
  H 4.099657 0.667819 4.080682
  H 2.911167 1.840412 4.632171
  H 4.099840 2.305707 3.422855
  H 2.336287 -0.699061 -1.688376
  H 4.860634 -0.024363 -0.011343
  H 5.083459 -2.308352 -3.375777
  H 5.083530 -0.700281 -4.021021
 25
 55.140590
  C 0.939357 0.143883 0.410190
  C 2.543693 0.068773 0.222188
  C 3.292799 0.548393 1.416285
  C 2.528798 1.045373 2.651017
  C 3.529074 1.474057 3.720116
  C 2.821004 -0.412697 -0.975764
  C 4.127153 -0.350225 -0.823101
  C 5.084129 -0.770385 -1.871282
  C 4.730250 -1.294526 -3.175936
  H 3.659583 -1.365304 -3.350857
  H 6.133955 -0.682409 -1.654424
  H 0.596028 0.523457 1.355181
  H 0.551678 -0.864592 0.259431
  H 0.551172 0.767581 -0.396268
  H 3.939291 1.382439 1.124677
  H 3.938376 -0.256338 1.782841
  H 1.903672 0.257704 3.064298
  H 1.905523 1.901047 2.403129
  H 4.162392 0.643035 4.020497
  H 3.004596 1.829472 4.602776
  H 4.164567 2.280189 3.362642
  H 2.172613 -0.732488 -1.770493
  H 4.668204 -0.005543 0.034227
  H 5.193929 -2.273370 -3.310403
  H 5.193304 -0.680299 -3.950311
 25
 104.555631
  C 0.909227 0.157024 0.442533
  C 2.618272 0.046864 0.172860
  C 3.327807 0.539135 1.398799
  C 2.545142 1.036263 2.625070
  C 3.540099 1.467692 3.701165
  C 2.753237 -0.443573 -1.039550
  C 4.037126 -0.338073 -0.790628
  C 5.076197 -0.758122 -1.843729
  C 4.760168 -1.282425 -3.152473
  H 3.695532 -1.360879 -3.348449
  H 6.124218 -0.652461 -1.580831
  H 0.594929 0.540690 1.397262
  H 0.530566 -0.845065 0.302980
  H 0.530826 0.784628 -0.351258
  H 3.973883 1.375105 1.120649
  H 3.968950 -0.260112 1.777810
  H 1.918641 0.247589 3.035937
  H 1.923647 1.892556 2.371598
  H 4.172523 0.636508 4.007976
  H 3.008348 1.823869 4.579771
  H 4.177947 2.275304 3.347182
  H 2.090605 -0.756849 -1.813939
  H 4.624821 -0.009082 0.030591
  H 5.237820 -2.261109 -3.281316
  H 5.237552 -0.662892 -3.921035
 25
 121.799482
  C 0.541806 0.192026 0.464474
  C 3.148444 0.005483 0.245653
  C 3.601184 0.566722 1.505800
  C 2.585010 1.013518 2.562439
  C 3.345172 1.517058 3.791739
  C 2.936187 -0.465792 -0.908541
  C 4.438592 -0.393583 -0.851878
  C 5.125698 -0.800728 -1.947220
  C 4.599865 -1.283457 -3.243825
  H 3.518857 -1.272425 -3.314573
  H 6.202448 -0.772237 -1.886995
  H 0.267293 0.572816 1.426291
  H 0.390059 -0.857319 0.302138
  H 0.428338 0.854618 -0.366846
  H 4.225276 1.439423 1.281937
  H 4.228942 -0.190755 1.991348
  H 1.951522 0.181969 2.870837
  H 1.968497 1.829967 2.185701
  H 3.963965 0.732504 4.219089
  H 2.644441 1.840192 4.555847
  H 3.982920 2.360370 3.542462
  H 2.243162 -0.781791 -1.643638
  H 5.135213 -0.117106 -0.075790
  H 4.955077 -2.298268 -3.421479
  H 5.001261 -0.659097 -4.044130
 25
 122.402710
  C 0.382955 0.210617 0.520366
  C 3.349580 -0.059113 0.273775
  C 3.747976 0.551955 1.524676
  C 2.633463 0.986632 2.483410
  C 3.261519 1.547792 3.758498
  C 2.982531 -0.443828 -0.862514
  C 4.525896 -0.443845 -0.817331
  C 5.155759 -0.842362 -1.948372
  C 4.567071 -1.254807 -3.247038
  H 3.487782 -1.176174 -3.293099
  H 6.236004 -0.869296 -1.919951
  H 0.119501 0.589556 1.484157
  H 0.226309 -0.834080 0.347231
  H 0.317058 0.883757 -0.308837
  H 4.355725 1.434460 1.303775
  H 4.370945 -0.167486 2.068611
  H 2.005690 0.140284 2.755717
  H 2.021466 1.763520 2.028716
  H 3.868541 0.797458 4.260182
  H 2.483875 1.863401 4.448954
  H 3.887678 2.410161 3.542056
  H 2.240408 -0.700458 -1.575065
  H 5.262687 -0.225958 -0.051743
  H 4.857455 -2.281297 -3.465462
  H 4.984291 -0.628895 -4.035301
 25
 114.359861
  C -0.061172 0.289767 0.527824
  C 3.807173 0.047829 0.390597
  C 4.106702 0.616491 1.657527
  C 2.772358 0.935738 2.389184
  C 3.057607 1.509359 3.763361
  C 3.244734 -0.410483 -0.628314
  C 4.809387 -0.429166 -0.889574
  C 5.213542 -0.865256 -2.087545
  C 4.414712 -1.278672 -3.265110
  H 3.342331 -1.165201 -3.143820
  H 6.280812 -0.934411 -2.239597
  H -0.392711 0.698855 1.455145
  H -0.059310 -0.768227 0.398026
  H 0.015929 0.929314 -0.323467
  H 4.687143 1.528806 1.533494
  H 4.698632 -0.072049 2.256203
  H 2.182350 0.031678 2.485885
  H 2.197148 1.647316 1.808012
  H 3.612647 0.802884 4.372852
  H 2.125136 1.734240 4.273117
  H 3.631806 2.428351 3.689168
  H 2.482377 -0.728257 -1.295866
  H 5.633302 -0.217660 -0.208787
  H 4.630870 -2.321027 -3.494545
  H 4.730793 -0.695577 -4.125826
 25
 101.421783
  C -0.237686 0.277122 0.498397
  C 3.927958 0.128671 0.600161
  C 4.175707 0.692986 1.854714
  C 2.749747 0.971948 2.444350
  C 2.901830 1.548316 3.843917
  C 3.679701 -0.392939 -0.531673
  C 5.062339 -0.531998 -1.098764
  C 5.279251 -0.971125 -2.336245
  C 4.288436 -1.309408 -3.383824
  H 3.259742 -1.122341 -3.092076
  H 6.312492 -1.121233 -2.621995
  H -0.596488 0.693219 1.414289
  H -0.175872 -0.783868 0.388838
  H -0.091417 0.913303 -0.346929
  H 4.717520 1.638837 1.782171
  H 4.712663 0.013524 2.520980
  H 2.177943 0.045489 2.482759
  H 2.219051 1.675859 1.804414
  H 3.414049 0.852761 4.503452
  H 1.915298 1.744034 4.257057
  H 3.455488 2.483277 3.826852
  H 2.844208 -0.680284 -1.137043
  H 5.906950 -0.338143 -0.458449
  H 4.391853 -2.359369 -3.657027
  H 4.504239 -0.725794 -4.278291
