 15
 0.000000
  C 0.908466 0.063168 0.217432
  C 2.408745 0.067538 0.124180
  C 3.264819 0.000490 1.371712
  C 2.532017 -0.098137 2.705114
  H 3.258558 -0.144504 3.512393
  C 2.996466 0.122926 -1.060699
  H 2.471183 0.173086 -1.997247
  H 4.070810 0.124815 -1.147642
  H 0.552564 0.012963 1.240481
  H 0.502998 -0.793083 -0.319010
  H 0.502887 0.967992 -0.232378
  H 3.907648 0.887252 1.407659
  H 3.926044 -0.866151 1.280924
  H 1.917307 -0.994507 2.752023
  H 1.898029 0.770132 2.871151
 15
 -0.218790
  C 0.904403 -0.051667 0.207279
  C 2.402782 0.038191 0.127985
  C 3.257571 -0.113130 1.369296
  C 2.541556 0.007823 2.709580
  H 3.267387 -0.075720 3.516099
  C 2.998084 0.244988 -1.036341
  H 2.468315 0.362899 -1.966099
  H 4.071948 0.307301 -1.113579
  H 0.551801 -0.244521 1.213830
  H 0.544157 -0.850951 -0.439086
  H 0.456398 0.879403 -0.137298
  H 4.035701 0.654753 1.325191
  H 3.759689 -1.084502 1.326238
  H 1.806033 -0.781971 2.843505
  H 2.044497 0.971458 2.798047
 15
 -0.694410
  C 0.902884 -0.169749 0.189979
  C 2.393690 0.009072 0.133237
  C 3.239318 -0.224420 1.366275
  C 2.569517 0.118479 2.693644
  H 3.277201 -0.026865 3.507310
  C 2.991829 0.371050 -0.990520
  H 2.471579 0.571208 -1.912296
  H 4.063149 0.478239 -1.049851
  H 0.568424 -0.511786 1.162808
  H 0.586135 -0.897582 -0.555839
  H 0.401651 0.770830 -0.033590
  H 4.124294 0.407317 1.253399
  H 3.563862 -1.268713 1.386143
  H 1.708353 -0.515709 2.887402
  H 2.246837 1.157193 2.701671
 15
 -1.281386
  C 0.902380 -0.280704 0.163757
  C 2.380798 -0.019223 0.141903
  C 3.208116 -0.335322 1.362790
  C 2.618059 0.222349 2.657210
  H 3.287047 0.010581 3.488676
  C 2.982308 0.498502 -0.916339
  H 2.463898 0.802582 -1.811335
  H 4.052677 0.616786 -0.961776
  H 0.597221 -0.770810 1.083013
  H 0.625409 -0.918945 -0.673954
  H 0.345289 0.650121 0.067924
  H 4.167124 0.154902 1.186550
  H 3.347378 -1.414189 1.458480
  H 1.652141 -0.221440 2.884272
  H 2.492812 1.299970 2.580903
 15
 1.546919
  C 0.893609 -0.379808 0.122925
  C 2.355031 -0.042182 0.163280
  C 3.162722 -0.464370 1.362890
  C 2.694238 0.308571 2.600210
  H 3.312130 0.049298 3.457384
  C 2.964955 0.646632 -0.787512
  H 2.446361 1.135204 -1.598336
  H 4.036532 0.641117 -0.899466
  H 0.617063 -1.003787 0.968555
  H 0.666700 -0.917452 -0.795743
  H 0.276204 0.518013 0.140661
  H 4.165133 -0.105459 1.128634
  H 3.110113 -1.534369 1.554611
  H 1.660304 0.075470 2.845179
  H 2.772724 1.378790 2.425709
 15
 13.163827
  C 0.855190 -0.377026 0.069253
  C 2.314206 -0.055962 0.178203
  C 3.119506 -0.535741 1.363692
  C 2.752154 0.308287 2.597302
  H 3.461117 0.111316 3.397894
  C 2.994654 0.687333 -0.687366
  H 2.539944 1.335404 -1.426087
  H 4.024534 0.477156 -0.924491
  H 0.557733 -1.065901 0.855789
  H 0.657974 -0.836338 -0.897280
  H 0.233260 0.516225 0.141840
  H 4.074985 -0.091284 1.073010
  H 3.029873 -1.589264 1.599502
  H 1.753483 0.072150 2.962658
  H 2.783443 1.366930 2.354271
 15
 34.389102
  C 0.824394 -0.482527 0.012896
  C 2.262231 -0.123587 0.189997
  C 3.079838 -0.531312 1.390399
  C 2.852190 0.403607 2.599326
  H 3.608254 0.200292 3.352593
  C 2.978185 0.679848 -0.604886
  H 2.536655 1.423265 -1.264381
  H 3.924558 0.341190 -0.989360
  H 0.511084 -1.180128 0.785375
  H 0.676910 -0.939799 -0.963127
  H 0.181164 0.397485 0.063215
  H 3.950889 0.029537 0.981678
  H 3.000187 -1.564377 1.703834
  H 1.872049 0.245587 3.053659
  H 2.916708 1.447294 2.302771
 15
 62.196727
  C 0.775468 -0.413185 -0.112835
  C 2.204865 -0.127420 0.204514
  C 2.954473 -0.586459 1.391918
  C 2.930706 0.315345 2.643289
  H 3.756211 0.052174 3.298331
  C 3.053537 0.702293 -0.472454
  H 2.698429 1.558270 -1.053225
  H 3.927404 0.274703 -0.935939
  H 0.373055 -1.147330 0.581346
  H 0.669974 -0.789083 -1.129363
  H 0.180944 0.499445 -0.038685
  H 3.848445 0.115252 0.898766
  H 2.820591 -1.623369 1.693070
  H 2.001340 0.173521 3.201644
  H 3.006540 1.369404 2.386768
 15
 77.341973
  C 0.768601 -0.446877 -0.138621
  C 2.180427 -0.167820 0.238475
  C 2.875407 -0.589176 1.405988
  C 2.964821 0.315337 2.632082
  H 3.815083 0.039232 3.252775
  C 3.093188 0.704350 -0.404276
  H 2.733743 1.586733 -0.941149
  H 3.913863 0.253610 -0.948914
  H 0.328747 -1.178397 0.535228
  H 0.686149 -0.811922 -1.163526
  H 0.191279 0.476811 -0.073390
  H 3.838979 0.291593 0.744876
  H 2.723519 -1.623329 1.741671
  H 2.060827 0.191705 3.234214
  H 3.052545 1.367968 2.368306
 15
 60.066258
  C 0.780658 -0.485051 -0.141278
  C 2.172109 -0.212452 0.291941
  C 2.797200 -0.611977 1.442393
  C 2.970599 0.300313 2.632925
  H 3.799791 -0.016227 3.267292
  C 3.135381 0.713084 -0.345649
  H 2.757519 1.605017 -0.832724
  H 3.874845 0.223461 -0.990124
  H 0.319386 -1.233008 0.500001
  H 0.717215 -0.822698 -1.178547
  H 0.216540 0.444265 -0.060754
  H 3.861520 0.489857 0.560308
  H 2.615001 -1.628006 1.824075
  H 2.056783 0.246547 3.225670
  H 3.136310 1.338108 2.347299
 15
 32.702338
  C 0.817193 -0.514947 -0.211521
  C 2.170393 -0.223018 0.328601
  C 2.674978 -0.616221 1.507865
  C 3.026196 0.290861 2.654813
  H 3.901345 -0.055647 3.209592
  C 3.132739 0.734514 -0.322664
  H 2.726855 1.626606 -0.779170
  H 3.755279 0.204552 -1.056052
  H 0.294541 -1.231860 0.417155
  H 0.830248 -0.887110 -1.238845
  H 0.266381 0.425351 -0.209615
  H 3.883585 0.702619 0.488129
  H 2.396187 -1.591630 1.922262
  H 2.176010 0.271983 3.335676
  H 3.199827 1.319853 2.347170
 15
 14.010638
  C 0.864636 -0.560310 -0.277596
  C 2.166818 -0.211106 0.359834
  C 2.556883 -0.590679 1.580731
  C 3.090260 0.274642 2.685967
  H 3.879009 -0.219103 3.255533
  C 3.093031 0.765411 -0.317084
  H 2.635978 1.635592 -0.768899
  H 3.647724 0.216323 -1.087985
  H 0.331406 -1.306065 0.307161
  H 0.970994 -0.923668 -1.301511
  H 0.270783 0.352283 -0.309448
  H 3.868217 0.905937 0.437754
  H 2.178699 -1.518401 2.013107
  H 2.255957 0.455294 3.363661
  H 3.464472 1.235938 2.343540
 15
 1.892684
  C 0.914017 -0.601893 -0.332779
  C 2.126850 -0.140334 0.410860
  C 2.424403 -0.528083 1.646187
  C 3.145612 0.253393 2.705352
  H 3.880702 -0.359322 3.228523
  C 3.051213 0.801208 -0.308726
  H 2.563253 1.643569 -0.786683
  H 3.558376 0.219443 -1.085384
  H 0.366001 -1.348073 0.236971
  H 1.158209 -1.014668 -1.312445
  H 0.269010 0.262386 -0.488693
  H 3.847665 1.077019 0.380151
  H 1.945058 -1.390819 2.101513
  H 2.399007 0.567718 3.434788
  H 3.644985 1.141220 2.329012
 15
 -4.520253
  C 0.966681 -0.653677 -0.355821
  C 2.106985 -0.100366 0.446252
  C 2.298565 -0.436340 1.714721
  C 3.195206 0.218586 2.720099
  H 3.809766 -0.523611 3.229820
  C 3.006596 0.838666 -0.303235
  H 2.461075 1.665804 -0.751248
  H 3.483033 0.278416 -1.110815
  H 0.406145 -1.390669 0.213255
  H 1.317036 -1.114255 -1.279654
  H 0.295024 0.160504 -0.627814
  H 3.803807 1.205704 0.337085
  H 1.722183 -1.237524 2.163649
  H 2.572603 0.702351 3.473599
  H 3.849655 0.969173 2.288753
 15
 -6.150548
  C 1.020351 -0.714113 -0.368133
  C 2.100318 -0.081873 0.461362
  C 2.238380 -0.375244 1.747243
  C 3.220820 0.193632 2.721469
  H 3.656427 -0.604892 3.320563
  C 2.964133 0.886766 -0.294360
  H 2.396369 1.774922 -0.569596
  H 3.315694 0.418214 -1.213919
  H 0.460456 -1.447946 0.204986
  H 1.446481 -1.205310 -1.242829
  H 0.329565 0.050889 -0.723935
  H 3.829583 1.189841 0.286475
  H 1.581682 -1.116988 2.188143
  H 2.708353 0.875373 3.402680
  H 4.025747 0.739489 2.238496
