 15
 0.000000
  C 0.970701 0.133727 0.383871
  C 2.440594 0.143547 0.407767
  C 3.216041 0.608827 1.565606
  C 2.456741 1.095164 2.777092
  H 3.149242 1.406766 3.552908
  C 3.091286 -0.309261 -0.719696
  H 4.160211 -0.357243 -0.839647
  H 0.516716 0.500585 1.297141
  H 0.609906 -0.879421 0.193528
  H 0.609670 0.733576 -0.454378
  H 3.894895 1.403478 1.220450
  H 3.895326 -0.203466 1.865851
  H 1.818044 0.310574 3.182061
  H 1.817792 1.941779 2.527164
  H 2.496935 -0.645068 -1.555291
 15
 -0.403093
  C 0.948095 0.144495 0.389207
  C 2.414688 0.138077 0.400190
  C 3.204576 0.601422 1.549290
  C 2.464923 1.087154 2.772148
  H 3.172545 1.396002 3.540390
  C 3.095214 -0.312907 -0.707893
  H 4.171567 -0.296279 -0.749968
  H 0.506616 0.518801 1.305280
  H 0.576825 -0.864835 0.187464
  H 0.585057 0.731777 -0.459481
  H 3.887785 1.387175 1.190218
  H 3.905034 -0.200253 1.828958
  H 1.830548 0.303269 3.191894
  H 1.821907 1.938237 2.538103
  H 2.570917 -0.689893 -1.574650
 15
 -0.255380
  C 0.946510 0.136991 0.395166
  C 2.412787 0.135201 0.400771
  C 3.207170 0.607677 1.546341
  C 2.465966 1.092631 2.767706
  H 3.172973 1.401356 3.532900
  C 3.096142 -0.317044 -0.706309
  H 4.175062 -0.313692 -0.723619
  H 0.509035 0.476879 1.324987
  H 0.576550 -0.860231 0.144580
  H 0.583872 0.758526 -0.428726
  H 3.883672 1.397907 1.185536
  H 3.896501 -0.200837 1.834170
  H 1.835925 0.308894 3.187311
  H 1.828967 1.945007 2.535385
  H 2.587783 -0.681632 -1.581652
 15
 0.000809
  C 0.948169 0.120937 0.408541
  C 2.416975 0.134974 0.399772
  C 3.208654 0.614639 1.542165
  C 2.465990 1.101838 2.764471
  H 3.170487 1.407860 3.530772
  C 3.096758 -0.300122 -0.716804
  H 4.175733 -0.314417 -0.705373
  H 0.513698 0.465346 1.338932
  H 0.578301 -0.878609 0.168929
  H 0.580523 0.742928 -0.419192
  H 3.923120 1.376441 1.196152
  H 3.868692 -0.219469 1.837376
  H 1.823313 0.325341 3.175542
  H 1.834181 1.960466 2.532128
  H 2.596081 -0.637662 -1.606839
 15
 0.692365
  C 0.950233 0.131890 0.409220
  C 2.415869 0.121451 0.404587
  C 3.207976 0.588696 1.551500
  C 2.465563 1.090846 2.768245
  H 3.172387 1.420447 3.526956
  C 3.096056 -0.300254 -0.724243
  H 4.183298 -0.270743 -0.697947
  H 0.531100 0.495528 1.336806
  H 0.570866 -0.862755 0.192265
  H 0.586429 0.736106 -0.435959
  H 3.897673 1.367656 1.200375
  H 3.889177 -0.227528 1.851631
  H 1.839977 0.324711 3.194903
  H 1.820397 1.944406 2.514529
  H 2.586916 -0.642226 -1.602152
 15
 1.823007
  C 0.950371 0.147709 0.410007
  C 2.419074 0.129582 0.399950
  C 3.215072 0.601603 1.548401
  C 2.466343 1.091030 2.771808
  H 3.177939 1.411311 3.531544
  C 3.089883 -0.307966 -0.732941
  H 4.178100 -0.221762 -0.674256
  H 0.541080 0.537428 1.331686
  H 0.573416 -0.866062 0.241464
  H 0.585318 0.716114 -0.454695
  H 3.899194 1.380847 1.204332
  H 3.864444 -0.240513 1.856620
  H 1.842177 0.303991 3.202248
  H 1.829056 1.937409 2.534452
  H 2.594231 -0.675128 -1.611778
 15
 2.046849
  C 0.949586 0.149547 0.427973
  C 2.421316 0.126124 0.414070
  C 3.223457 0.605621 1.543617
  C 2.465286 1.087629 2.770838
  H 3.167289 1.411169 3.544853
  C 3.094954 -0.318017 -0.722649
  H 4.175382 -0.278923 -0.659844
  H 0.527151 0.525344 1.348354
  H 0.568873 -0.849157 0.203478
  H 0.593465 0.744163 -0.418624
  H 3.900192 1.400483 1.204106
  H 3.905083 -0.197646 1.851209
  H 1.851862 0.298279 3.186267
  H 1.810792 1.932038 2.531061
  H 2.581875 -0.661706 -1.592739
 15
 2.592711
  C 0.956609 0.150231 0.432266
  C 2.427118 0.131035 0.410213
  C 3.217302 0.615629 1.551781
  C 2.455478 1.084681 2.776303
  H 3.159872 1.413359 3.539061
  C 3.081617 -0.340082 -0.714853
  H 4.169416 -0.295384 -0.654380
  H 0.568636 0.524427 1.367278
  H 0.576109 -0.841075 0.193031
  H 0.612587 0.774983 -0.399102
  H 3.862711 1.432347 1.206902
  H 3.906804 -0.186557 1.856519
  H 1.848971 0.287551 3.196586
  H 1.814250 1.935318 2.549718
  H 2.593579 -0.679603 -1.599825
 15
 2.176860
  C 0.943182 0.151779 0.417985
  C 2.413948 0.107762 0.434602
  C 3.217306 0.605808 1.572311
  C 2.474311 1.084490 2.791442
  H 3.178739 1.423741 3.542152
  C 3.109416 -0.356261 -0.692176
  H 4.178882 -0.268894 -0.658276
  H 0.537062 0.522538 1.349320
  H 0.528959 -0.826436 0.151929
  H 0.626799 0.805303 -0.383719
  H 3.808918 1.451568 1.188557
  H 3.944962 -0.158759 1.854245
  H 1.862815 0.284931 3.231574
  H 1.828139 1.922807 2.561900
  H 2.607146 -0.709657 -1.566039
 15
 5.502460
  C 0.932936 0.157282 0.448804
  C 2.396829 0.100142 0.418111
  C 3.220475 0.581687 1.542453
  C 2.471052 1.071653 2.766974
  H 3.193887 1.427750 3.503069
  C 3.112903 -0.363517 -0.693180
  H 4.173861 -0.202824 -0.542768
  H 0.531875 0.551035 1.371573
  H 0.514829 -0.812047 0.173151
  H 0.617393 0.812849 -0.364744
  H 3.796727 1.449457 1.201391
  H 3.926745 -0.187311 1.863533
  H 1.888603 0.278852 3.245095
  H 1.832950 1.923574 2.547872
  H 2.655382 -0.710299 -1.592166
 15
 10.375129
  C 0.937732 0.204775 0.439977
  C 2.417727 0.106729 0.397781
  C 3.206215 0.616877 1.528233
  C 2.468268 1.076991 2.776684
  H 3.198773 1.434947 3.502360
  C 3.085274 -0.385322 -0.716643
  H 4.106254 -0.150935 -0.446885
  H 0.567836 0.486645 1.413426
  H 0.540992 -0.756954 0.167981
  H 0.570230 0.913814 -0.332955
  H 3.840361 1.447765 1.170361
  H 3.885908 -0.166468 1.867994
  H 1.940990 0.247801 3.245443
  H 1.767637 1.886495 2.582320
  H 2.737825 -0.844601 -1.606120
 15
 28.486724
  C 0.932944 0.243753 0.439097
  C 2.420414 0.086114 0.364638
  C 3.174717 0.631566 1.507667
  C 2.454052 1.071705 2.770007
  H 3.205880 1.445844 3.463924
  C 3.084373 -0.437446 -0.747646
  H 3.999719 -0.133272 -0.266948
  H 0.632271 0.464040 1.450727
  H 0.538957 -0.730096 0.164484
  H 0.561450 1.000563 -0.251648
  H 3.818099 1.451313 1.126262
  H 3.863246 -0.130443 1.862356
  H 2.015591 0.210106 3.276383
  H 1.711761 1.856727 2.618002
  H 2.865678 -0.876438 -1.679533
 15
 35.838715
  C 0.968521 0.196502 0.474026
  C 2.448054 0.094613 0.373761
  C 3.203516 0.602587 1.526177
  C 2.458031 1.076029 2.765826
  H 3.197528 1.405149 3.497483
  C 3.055011 -0.391448 -0.761777
  H 3.952179 -0.113547 -0.259590
  H 0.633992 0.534901 1.450018
  H 0.554383 -0.793254 0.260400
  H 0.592211 0.893154 -0.278566
  H 3.804349 1.461060 1.183597
  H 3.884199 -0.191823 1.868836
  H 1.899856 0.270774 3.245323
  H 1.807944 1.927353 2.569820
  H 2.840925 -0.771544 -1.719091
