 18
 0.000000
  H 1.441722 0.055753 0.220815
  C 2.513194 0.062149 0.088200
  C 3.348329 -0.004407 1.338273
  C 2.528405 -0.088867 2.622250
  C 3.423065 -0.158412 3.854634
  C 3.051933 0.125297 -1.119607
  C 2.337063 0.201866 -2.428617
  H 1.256034 0.198252 -2.332986
  H 4.130967 0.129634 -1.216799
  H 3.999261 0.877110 1.385869
  H 4.005863 -0.877838 1.282004
  H 1.892525 -0.976916 2.592066
  H 1.880186 0.787381 2.700739
  H 4.065638 -1.035647 3.813246
  H 2.821911 -0.218216 4.759572
  H 4.053368 0.726097 3.921579
  H 2.635248 -0.639825 -3.056621
  H 2.637706 1.109500 -2.955425
 18
 -0.374931
  H 1.486962 -0.253504 0.195944
  C 2.548400 -0.080634 0.079243
  C 3.381874 -0.138809 1.328401
  C 2.540988 -0.055456 2.599919
  C 3.405124 -0.111838 3.853448
  C 3.061388 0.171433 -1.111562
  C 2.328185 0.255606 -2.408342
  H 1.259946 0.103132 -2.272249
  H 4.129552 0.340623 -1.196641
  H 4.103923 0.684553 1.310826
  H 3.956339 -1.070946 1.338485
  H 1.827391 -0.882597 2.615489
  H 1.971524 0.876919 2.594015
  H 3.967265 -1.042834 3.888084
  H 2.788645 -0.050378 4.747393
  H 4.112200 0.714967 3.867315
  H 2.704646 -0.497361 -3.101123
  H 2.489645 1.231461 -2.866117
 18
 -0.548667
  H 1.527867 -0.539727 0.156180
  C 2.558716 -0.222964 0.071320
  C 3.387280 -0.267720 1.322630
  C 2.547624 -0.027665 2.576475
  C 3.399532 -0.050234 3.839419
  C 3.038222 0.216455 -1.077726
  C 2.317820 0.330373 -2.379576
  H 1.262437 0.090602 -2.268955
  H 4.081922 0.508087 -1.132860
  H 4.156714 0.507029 1.241203
  H 3.888662 -1.236944 1.403860
  H 1.775553 -0.797519 2.647027
  H 2.046871 0.939527 2.491642
  H 3.891614 -1.014394 3.950369
  H 2.785163 0.124306 4.719835
  H 4.165609 0.721115 3.796946
  H 2.754685 -0.348234 -3.112543
  H 2.410890 1.342677 -2.771028
 18
 -0.094508
  H 1.612520 -0.825771 0.071112
  C 2.601150 -0.387839 0.048964
  C 3.402315 -0.438997 1.314114
  C 2.563165 -0.007186 2.519681
  C 3.389252 0.016726 3.799660
  C 3.038361 0.244438 -1.023626
  C 2.291327 0.441172 -2.301555
  H 1.243236 0.173646 -2.188799
  H 4.069723 0.575149 -1.062560
  H 4.217193 0.275444 1.177421
  H 3.800251 -1.440303 1.490360
  H 1.723906 -0.696092 2.643712
  H 2.151665 0.986651 2.329779
  H 3.789542 -0.972056 4.013717
  H 2.778979 0.329729 4.643968
  H 4.222860 0.708822 3.703126
  H 2.723025 -0.170774 -3.094239
  H 2.358580 1.482268 -2.614388
 18
 4.718066
  H 1.691339 -1.087383 -0.047045
  C 2.632462 -0.559609 0.024076
  C 3.399053 -0.635965 1.308232
  C 2.576584 -0.004091 2.441416
  C 3.391272 0.107631 3.724122
  C 3.053507 0.235489 -0.947493
  C 2.267864 0.581131 -2.172589
  H 1.217033 0.331487 -2.046564
  H 4.103167 0.491801 -1.016864
  H 4.236365 0.036508 1.121501
  H 3.683256 -1.648432 1.586609
  H 1.686691 -0.610156 2.632125
  H 2.240514 0.987087 2.129045
  H 3.706359 -0.876995 4.062951
  H 2.801298 0.569322 4.513058
  H 4.280237 0.712706 3.560645
  H 2.649843 0.050219 -3.045664
  H 2.354383 1.648447 -2.372869
 18
 16.975820
  H 1.686987 -1.247125 -0.162362
  C 2.584580 -0.666164 0.012069
  C 3.328449 -0.783534 1.313840
  C 2.556906 -0.028279 2.414371
  C 3.428367 0.194739 3.635005
  C 3.078513 0.188935 -0.887192
  C 2.302781 0.715342 -2.059149
  H 1.232400 0.643174 -1.882671
  H 4.149296 0.218837 -1.050178
  H 4.139598 -0.088329 1.089438
  H 3.554950 -1.788525 1.640939
  H 1.673894 -0.598467 2.709294
  H 2.212703 0.928941 2.020233
  H 3.748700 -0.756049 4.052423
  H 2.879818 0.737287 4.399583
  H 4.312090 0.767600 3.374187
  H 2.541780 0.176691 -2.976409
  H 2.561809 1.762885 -2.217304
 18
 37.173445
  H 1.693561 -1.471012 -0.300337
  C 2.523505 -0.838285 -0.025755
  C 3.209223 -0.887017 1.309078
  C 2.521916 -0.024559 2.399050
  C 3.489833 0.276231 3.537389
  C 3.073586 0.087227 -0.824645
  C 2.370650 0.805578 -1.944563
  H 1.296777 0.818508 -1.783186
  H 4.140043 0.066431 -0.993056
  H 3.914599 -0.087296 0.978108
  H 3.450076 -1.870625 1.699617
  H 1.651648 -0.561463 2.806384
  H 2.150956 0.905219 1.962449
  H 3.873148 -0.647983 3.970907
  H 2.987979 0.843801 4.321118
  H 4.334350 0.863053 3.179317
  H 2.564497 0.341557 -2.913712
  H 2.731419 1.829293 -1.991476
 18
 65.231060
  H 1.775570 -1.683863 -0.415863
  C 2.510538 -0.986053 -0.042830
  C 3.114017 -0.960991 1.305083
  C 2.493303 -0.032495 2.373097
  C 3.508544 0.329043 3.446729
  C 3.083637 0.045574 -0.727933
  C 2.414876 0.855871 -1.813717
  H 1.340158 0.907176 -1.654213
  H 4.140490 -0.042895 -0.944730
  H 3.737438 -0.014401 0.858422
  H 3.392909 -1.912130 1.751390
  H 1.658995 -0.562840 2.852364
  H 2.081920 0.868342 1.915016
  H 3.919488 -0.570924 3.898952
  H 3.039130 0.921298 4.229066
  H 4.331211 0.902676 3.023568
  H 2.597225 0.429105 -2.803029
  H 2.816810 1.866830 -1.813313
 18
 81.249127
  H 1.836728 -1.762933 -0.443004
  C 2.554108 -1.070729 -0.029513
  C 3.049660 -1.015531 1.293632
  C 2.486948 -0.026197 2.312901
  C 3.507697 0.358304 3.377638
  C 3.151306 0.034415 -0.677878
  C 2.422463 0.887114 -1.695265
  H 1.355444 0.910118 -1.486600
  H 4.196461 -0.079225 -0.954261
  H 3.723377 0.134031 0.653800
  H 3.286496 -1.958178 1.802281
  H 1.633507 -0.510012 2.804010
  H 2.113197 0.873302 1.818243
  H 3.872927 -0.528096 3.891689
  H 3.059097 1.021177 4.114363
  H 4.358997 0.867473 2.928981
  H 2.571828 0.499424 -2.704050
  H 2.800680 1.908044 -1.673879
 18
 64.784418
  H 1.934244 -1.850548 -0.457938
  C 2.603306 -1.149582 0.006992
  C 2.987917 -1.099426 1.309390
  C 2.469161 -0.054349 2.269402
  C 3.491771 0.387128 3.314659
  C 3.225437 0.027182 -0.625801
  C 2.440621 0.919499 -1.563285
  H 1.397330 0.974608 -1.260739
  H 4.253455 -0.122826 -0.983502
  H 3.726381 0.266978 0.439267
  H 3.176384 -2.019417 1.877612
  H 1.618963 -0.510652 2.783227
  H 2.101499 0.821625 1.730502
  H 3.859204 -0.472653 3.872130
  H 3.044307 1.085202 4.017970
  H 4.340835 0.874586 2.839915
  H 2.490056 0.532365 -2.579261
  H 2.849102 1.929082 -1.570384
 18
 40.265238
  H 2.112043 -1.877668 -0.496294
  C 2.692768 -1.129745 0.016009
  C 2.931823 -1.090014 1.337905
  C 2.483858 -0.010218 2.287316
  C 3.507167 0.332197 3.371015
  C 3.247097 0.100032 -0.642429
  C 2.401146 0.893639 -1.615988
  H 1.357245 0.889613 -1.309855
  H 4.255288 -0.080264 -1.046600
  H 3.648285 0.531410 0.314949
  H 3.049950 -2.025322 1.896998
  H 1.580781 -0.402117 2.762479
  H 2.211120 0.899753 1.748326
  H 3.775383 -0.559280 3.934356
  H 3.102279 1.066833 4.063891
  H 4.413022 0.740119 2.927061
  H 2.472369 0.462705 -2.612156
  H 2.737216 1.927525 -1.669282
 18
 22.418341
  H 2.298429 -1.852573 -0.529049
  C 2.747629 -1.053048 0.038291
  C 2.892736 -1.067259 1.362642
  C 2.510446 0.032095 2.317282
  C 3.527902 0.266828 3.433680
  C 3.240839 0.190009 -0.642548
  C 2.361812 0.852745 -1.689109
  H 1.313948 0.789832 -1.403147
  H 4.236322 -0.023523 -1.059914
  H 3.553967 0.801033 0.220095
  H 2.937227 -2.008935 1.912151
  H 1.564416 -0.293339 2.759051
  H 2.326933 0.972534 1.795088
  H 3.703586 -0.652839 3.987929
  H 3.168664 1.023813 4.127633
  H 4.476536 0.602978 3.020214
  H 2.483882 0.362759 -2.652384
  H 2.622609 1.902232 -1.805276
 18
 9.725008
  H 2.510877 -1.795677 -0.553063
  C 2.823849 -0.962223 0.059315
  C 2.791884 -1.018792 1.383859
  C 2.532606 0.111198 2.341560
  C 3.556216 0.184488 3.474460
  C 3.250504 0.288910 -0.647575
  C 2.317641 0.783104 -1.745574
  H 1.279547 0.684623 -1.434660
  H 4.252680 0.111836 -1.060818
  H 3.447779 1.036130 0.130747
  H 2.754815 -1.963089 1.920173
  H 1.544924 -0.086499 2.769170
  H 2.484056 1.074229 1.833830
  H 3.588252 -0.756185 4.020416
  H 3.300997 0.978794 4.172573
  H 4.549057 0.381193 3.075379
  H 2.458136 0.204828 -2.656001
  H 2.509318 1.829387 -1.971843
 18
 2.827007
  H 2.811594 -1.784016 -0.540219
  C 2.923789 -0.900511 0.074918
  C 2.733558 -0.977695 1.381521
  C 2.541485 0.162987 2.339869
  C 3.534959 0.110163 3.500360
  C 3.291346 0.349775 -0.665838
  C 2.265176 0.733127 -1.730245
  H 1.259179 0.687086 -1.318214
  H 4.260807 0.175220 -1.145882
  H 3.451193 1.167385 0.042416
  H 2.622649 -1.926746 1.893373
  H 1.526025 0.076298 2.739064
  H 2.616587 1.128651 1.841591
  H 3.447377 -0.833105 4.035565
  H 3.350504 0.921898 4.200671
  H 4.553719 0.198982 3.129134
  H 2.319721 0.052564 -2.576922
  H 2.443474 1.744191 -2.089213
 18
 0.483727
  H 3.099983 -1.775751 -0.490302
  C 3.037597 -0.859385 0.083068
  C 2.696603 -0.928661 1.359850
  C 2.533727 0.202975 2.328927
  C 3.498758 0.056536 3.507083
  C 3.337008 0.383326 -0.696882
  C 2.217483 0.700637 -1.687463
  H 1.261659 0.750276 -1.170883
  H 4.269637 0.231526 -1.247390
  H 3.485003 1.224229 -0.020600
  H 2.546841 -1.898236 1.820657
  H 1.506229 0.186448 2.707968
  H 2.691620 1.168593 1.847295
  H 3.333480 -0.887007 4.022008
  H 3.358338 0.866999 4.219150
  H 4.527212 0.078633 3.156338
  H 2.154389 -0.070999 -2.451832
  H 2.397573 1.656119 -2.175044
