 26
 0.000000
  C 0.974842 0.173081 0.481669
  C 2.474153 0.128639 0.370699
  C 3.265881 0.603891 1.553906
  H 2.607975 0.925426 2.354660
  C 3.032051 -0.324598 -0.758091
  C 4.443879 -0.427065 -1.013639
  C 5.085106 -0.865456 -2.106230
  C 4.623875 -1.397126 -3.431147
  C 3.139653 -1.519852 -3.737660
  C 2.937108 -2.083034 -5.141406
  O 6.463727 -0.876870 -2.134940
  H 0.660882 0.560249 1.445846
  H 0.551036 -0.821238 0.358806
  H 0.550908 0.806203 -0.294746
  H 3.907109 1.439597 1.280302
  H 3.907221 -0.188805 1.934280
  H 2.363882 -0.640365 -1.544287
  H 5.078498 -0.099405 -0.197283
  H 5.089253 -2.382454 -3.540217
  H 5.089616 -0.760683 -4.191120
  H 2.664507 -0.538934 -3.679385
  H 2.664181 -2.188349 -3.017600
  H 3.390180 -1.431090 -5.885105
  H 1.876692 -2.172987 -5.366100
  H 3.389854 -3.068346 -5.228186
  H 6.824136 -0.543177 -1.303265
 26
 0.160257
  C 0.972861 0.062764 0.574876
  C 2.461390 0.133377 0.365363
  C 3.284519 0.732856 1.470935
  H 2.652216 1.067230 2.288867
  C 2.993373 -0.356187 -0.763979
  C 4.404405 -0.422576 -1.034557
  C 5.068774 -0.925873 -2.085646
  C 4.631570 -1.482794 -3.411487
  C 3.152675 -1.481617 -3.773095
  C 2.953347 -1.997063 -5.195012
  O 6.445119 -0.959359 -2.048061
  H 0.687782 0.455907 1.546800
  H 0.625611 -0.967918 0.507589
  H 0.448003 0.634523 -0.190798
  H 3.853128 1.590164 1.110470
  H 3.992280 0.004493 1.867719
  H 2.319716 -0.760638 -1.500067
  H 5.029409 -0.033910 -0.236081
  H 5.014504 -2.507373 -3.469253
  H 5.180838 -0.910693 -4.167338
  H 2.755543 -0.467875 -3.700683
  H 2.601583 -2.124890 -3.085751
  H 3.477749 -1.365623 -5.908995
  H 1.897067 -2.002217 -5.453980
  H 3.334506 -3.011493 -5.291372
  H 6.742624 -0.670154 -1.177077
 26
 2.332963
  C 1.004622 -0.071657 0.695061
  C 2.463401 0.110411 0.371695
  C 3.287477 0.901901 1.348057
  H 2.673826 1.264580 2.168313
  C 2.970115 -0.448090 -0.736764
  C 4.369049 -0.441415 -1.055646
  C 5.047010 -1.016965 -2.062294
  C 4.629889 -1.587786 -3.384243
  C 3.181100 -1.404582 -3.817500
  C 2.992001 -1.857745 -5.261253
  O 6.420382 -1.080911 -1.940102
  H 0.742326 0.400519 1.637599
  H 0.756849 -1.130712 0.762241
  H 0.379808 0.359855 -0.087309
  H 3.746655 1.763658 0.863806
  H 4.085220 0.289242 1.769689
  H 2.305445 -1.002300 -1.378646
  H 4.979873 0.111125 -0.348016
  H 4.883609 -2.653282 -3.397359
  H 5.285579 -1.108637 -4.119402
  H 2.902409 -0.353277 -3.726541
  H 2.523394 -1.991752 -3.176283
  H 3.607251 -1.263997 -5.933815
  H 1.952642 -1.748327 -5.562093
  H 3.272802 -2.902800 -5.373741
  H 6.601828 -0.822416 -1.027214
 26
 6.228163
  C 1.050708 -0.251101 0.813089
  C 2.457009 0.058864 0.375780
  C 3.220012 1.067719 1.184468
  H 2.606626 1.460588 1.991046
  C 2.977018 -0.576048 -0.681966
  C 4.353377 -0.467010 -1.062709
  C 5.029250 -1.085932 -2.045068
  C 4.591001 -1.673144 -3.349292
  C 3.247167 -1.187366 -3.882908
  C 3.014788 -1.691260 -5.302698
  O 6.400654 -1.165427 -1.883433
  H 0.775400 0.311299 1.701085
  H 0.943535 -1.313664 1.034278
  H 0.339541 -0.008881 0.023810
  H 3.538702 1.907052 0.565446
  H 4.110344 0.618313 1.625713
  H 2.368952 -1.300949 -1.201326
  H 4.922494 0.259809 -0.493953
  H 4.586262 -2.768266 -3.282065
  H 5.379843 -1.410459 -4.059007
  H 3.228104 -0.096492 -3.872581
  H 2.437267 -1.538523 -3.244128
  H 3.787656 -1.321282 -5.973099
  H 2.049804 -1.353658 -5.673882
  H 3.031183 -2.778860 -5.329587
  H 6.520090 -0.900840 -0.959728
 26
 16.827686
  C 1.095280 -0.322179 0.862081
  C 2.489918 0.003437 0.393441
  C 3.199791 1.145944 1.060858
  H 2.566166 1.608305 1.813133
  C 3.024875 -0.719557 -0.612517
  C 4.380200 -0.573096 -1.020751
  C 5.042503 -1.183599 -2.028310
  C 4.597684 -1.738426 -3.336760
  C 3.277172 -1.171346 -3.849328
  C 3.013543 -1.617159 -5.282438
  O 6.399969 -1.280511 -1.778952
  H 0.802615 0.295281 1.707494
  H 1.023134 -1.367827 1.161333
  H 0.374701 -0.160625 0.060286
  H 3.477500 1.913878 0.338835
  H 4.111761 0.801602 1.550440
  H 2.454912 -1.532607 -1.040396
  H 4.870992 0.310367 -0.630515
  H 4.531922 -2.832420 -3.280101
  H 5.401502 -1.513792 -4.042511
  H 3.314876 -0.081165 -3.806827
  H 2.456931 -1.497952 -3.211346
  H 3.803540 -1.269308 -5.944511
  H 2.067379 -1.216210 -5.638359
  H 2.970711 -2.702688 -5.343082
  H 6.338772 -0.976371 -0.854574
 26
 35.817706
  C 1.136046 -0.359220 0.874852
  C 2.517842 -0.010822 0.388816
  C 3.192608 1.193921 0.978764
  H 2.542059 1.687736 1.696086
  C 3.079490 -0.773422 -0.553754
  C 4.414115 -0.598392 -0.990248
  C 5.062623 -1.228323 -2.030531
  C 4.600492 -1.760411 -3.338077
  C 3.298188 -1.143407 -3.839895
  C 3.002857 -1.579264 -5.269821
  O 6.385208 -1.342885 -1.700123
  H 0.824697 0.290364 1.689171
  H 1.098243 -1.389940 1.225852
  H 0.409460 -0.263019 0.067419
  H 3.449813 1.919798 0.206778
  H 4.110868 0.910858 1.494495
  H 2.546173 -1.640992 -0.921021
  H 4.826595 0.378629 -0.763870
  H 4.496431 -2.851120 -3.271972
  H 5.409295 -1.571202 -4.049651
  H 3.380041 -0.055365 -3.799666
  H 2.473117 -1.436571 -3.191985
  H 3.800392 -1.262948 -5.938993
  H 2.070748 -1.139342 -5.616819
  H 2.914739 -2.661836 -5.330874
  H 6.101472 -0.984925 -0.753488
 26
 54.200651
  C 1.145341 -0.361059 0.849480
  C 2.528375 -0.006231 0.374578
  C 3.171428 1.227381 0.943299
  H 2.501503 1.734770 1.631946
  C 3.148642 -0.779885 -0.526276
  C 4.511348 -0.604957 -0.981340
  C 5.139450 -1.277683 -2.055457
  C 4.619530 -1.788473 -3.350212
  C 3.318319 -1.137418 -3.814451
  C 2.963334 -1.574329 -5.230810
  O 6.390788 -1.426814 -1.757892
  H 0.806725 0.318364 1.626797
  H 1.119836 -1.375991 1.245113
  H 0.431897 -0.312899 0.025797
  H 3.438582 1.930016 0.152797
  H 4.084633 0.973150 1.483248
  H 2.641439 -1.668157 -0.879291
  H 4.906374 0.397621 -0.833090
  H 4.488286 -2.873444 -3.268848
  H 5.409549 -1.627907 -4.091116
  H 3.433588 -0.051761 -3.787660
  H 2.507054 -1.401660 -3.137590
  H 3.746839 -1.287082 -5.928649
  H 2.032216 -1.112707 -5.549721
  H 2.843106 -2.654873 -5.279463
  H 5.917322 -0.925565 -0.588810
 26
 35.055043
  C 1.146131 -0.433344 0.827538
  C 2.499888 -0.026048 0.328832
  C 3.074390 1.263888 0.857983
  H 2.364374 1.774174 1.502682
  C 3.214326 -0.792149 -0.508961
  C 4.620367 -0.576612 -0.973431
  C 5.220152 -1.353933 -2.064146
  C 4.588046 -1.830231 -3.323303
  C 3.351989 -1.046039 -3.768146
  C 2.884932 -1.492716 -5.144481
  O 6.394612 -1.590301 -1.815097
  H 0.769102 0.271004 1.559231
  H 1.183140 -1.419003 1.282657
  H 0.430284 -0.479178 0.005515
  H 3.340966 1.937461 0.036679
  H 3.979108 1.077108 1.431659
  H 2.763791 -1.710290 -0.855905
  H 5.012417 0.436327 -0.836936
  H 4.355241 -2.895919 -3.229381
  H 5.363223 -1.761902 -4.093258
  H 3.572042 0.018666 -3.757568
  H 2.548918 -1.224465 -3.044887
  H 3.660296 -1.311389 -5.889369
  H 1.986753 -0.953004 -5.438588
  H 2.656895 -2.559113 -5.143355
  H 5.685438 -0.840928 -0.421053
 26
 11.363761
  C 1.200316 -0.508858 0.684384
  C 2.592261 -0.099897 0.297924
  C 3.095004 1.226951 0.792013
  H 2.343265 1.743570 1.380880
  C 3.360603 -0.876196 -0.482486
  C 4.767913 -0.613604 -0.922341
  C 5.349387 -1.345505 -2.084672
  C 4.629210 -1.809377 -3.316286
  C 3.399498 -0.992374 -3.701507
  C 2.844019 -1.441511 -5.050175
  O 6.532789 -1.570031 -1.903996
  H 0.767432 0.191551 1.392832
  H 1.198725 -1.500180 1.134584
  H 0.554051 -0.546608 -0.193261
  H 3.374047 1.867076 -0.044202
  H 3.983582 1.092494 1.410052
  H 2.960190 -1.832575 -0.801837
  H 5.002792 0.451635 -0.965352
  H 4.346974 -2.856231 -3.172465
  H 5.349638 -1.789987 -4.139634
  H 3.656187 0.068945 -3.760995
  H 2.611645 -1.098042 -2.958150
  H 3.597613 -1.345349 -5.827490
  H 1.983693 -0.837594 -5.328407
  H 2.532195 -2.483725 -5.007430
  H 5.657329 -0.910347 -0.278645
 26
 2.669473
  C 1.207308 -0.518236 0.580638
  C 2.608359 -0.080056 0.253602
  C 3.084171 1.232726 0.805434
  H 2.297004 1.741019 1.354552
  C 3.398163 -0.848885 -0.499639
  C 4.807417 -0.582908 -0.928207
  C 5.381258 -1.374370 -2.079958
  C 4.609339 -1.807156 -3.298448
  C 3.351448 -1.002518 -3.624311
  C 2.791009 -1.398592 -4.985192
  O 6.547849 -1.660816 -1.929789
  H 0.723614 0.181249 1.257884
  H 1.209487 -1.503284 1.046501
  H 0.604738 -0.584437 -0.325692
  H 3.419120 1.890216 0.004539
  H 3.927021 1.076729 1.478716
  H 3.010621 -1.808547 -0.819847
  H 5.046990 0.480980 -1.020778
  H 4.371622 -2.867849 -3.174713
  H 5.303591 -1.747361 -4.142701
  H 3.597755 0.061804 -3.623840
  H 2.593097 -1.163973 -2.862260
  H 3.502133 -1.172866 -5.775864
  H 1.869784 -0.859502 -5.189595
  H 2.578356 -2.464787 -5.013385
  H 5.591466 -0.883605 -0.208075
 26
 -3.106865
  C 1.262867 -0.675233 0.574389
  C 2.632224 -0.174478 0.204278
  C 3.034425 1.195402 0.670874
  H 2.223671 1.686993 1.200957
  C 3.462453 -0.945557 -0.494609
  C 4.847912 -0.581880 -0.919413
  C 5.452649 -1.336501 -2.079237
  C 4.632088 -1.735793 -3.280147
  C 3.386241 -0.898811 -3.563418
  C 2.757736 -1.295892 -4.894391
  O 6.621832 -1.634269 -1.986140
  H 0.748886 0.026462 1.225197
  H 1.327276 -1.634722 1.084866
  H 0.654142 -0.816980 -0.318552
  H 3.321077 1.823757 -0.172593
  H 3.892694 1.130788 1.338842
  H 3.148885 -1.949041 -0.752098
  H 4.966861 0.492619 -1.085878
  H 4.367547 -2.789838 -3.154487
  H 5.300206 -1.685500 -4.145534
  H 3.663357 0.157229 -3.591527
  H 2.652500 -1.026275 -2.768350
  H 3.461381 -1.151254 -5.711389
  H 1.873597 -0.694758 -5.092642
  H 2.463282 -2.343205 -4.879983
  H 5.573056 -0.809140 -0.127796
 26
 -3.202565
  C 1.262558 -0.623436 0.665044
  C 2.638414 -0.158684 0.270772
  C 3.112462 1.166126 0.791819
  H 2.338429 1.665757 1.368380
  C 3.399534 -0.904231 -0.521976
  C 4.780557 -0.521997 -0.949911
  C 5.436275 -1.305610 -2.062591
  C 4.669526 -1.707273 -3.302743
  C 3.345800 -1.010835 -3.605088
  C 2.855857 -1.380255 -5.002251
  O 6.612495 -1.571536 -1.968554
  H 0.797081 0.067223 1.361130
  H 1.306912 -1.604344 1.134314
  H 0.621681 -0.706493 -0.213136
  H 3.406948 1.822415 -0.027009
  H 3.984884 1.030491 1.430334
  H 3.038438 -1.870164 -0.847451
  H 4.823864 0.531158 -1.249660
  H 4.538141 -2.791865 -3.265051
  H 5.353011 -1.518099 -4.137051
  H 3.482812 0.071455 -3.545951
  H 2.579450 -1.288771 -2.882957
  H 3.575675 -1.074374 -5.757581
  H 1.908919 -0.890221 -5.214914
  H 2.711331 -2.455722 -5.084324
  H 5.467606 -0.629431 -0.098599
 26
 -6.549437
  C 1.372618 -0.900926 0.725765
  C 2.652381 -0.294924 0.216381
  C 2.869863 1.173806 0.438580
  H 2.010440 1.631540 0.921153
  C 3.547058 -1.047005 -0.416771
  C 4.862038 -0.546065 -0.940686
  C 5.453672 -1.436204 -2.010160
  C 4.566221 -1.768298 -3.190867
  C 3.596601 -0.672104 -3.627364
  C 2.814085 -1.098514 -4.864872
  O 6.574402 -1.875870 -1.923530
  H 0.818323 -0.195971 1.337907
  H 1.577148 -1.787451 1.321874
  H 0.736321 -1.202464 -0.105965
  H 3.044111 1.688453 -0.506945
  H 3.745309 1.336968 1.066682
  H 3.361249 -2.105814 -0.535281
  H 4.742604 0.454719 -1.363711
  H 3.998500 -2.661722 -2.912957
  H 5.214491 -2.051112 -4.023693
  H 4.156613 0.239360 -3.853128
  H 2.896608 -0.451695 -2.818672
  H 3.487787 -1.299852 -5.694979
  H 2.122817 -0.315156 -5.167213
  H 2.241397 -2.001440 -4.662434
  H 5.586004 -0.470976 -0.124116
