 22
 0.000000
  C 0.976498 0.210665 0.565817
  C 2.416771 0.123372 0.351773
  H 3.087087 0.437716 1.140746
  C 2.954657 -0.349675 -0.823278
  C 4.351452 -0.424270 -1.008810
  C 5.049297 -0.868270 -2.112583
  C 4.620616 -1.388786 -3.407792
  C 3.150970 -1.532161 -3.767290
  C 2.995172 -2.098077 -5.176392
  H 6.128843 -0.830198 -2.017144
  H 0.722188 0.606059 1.543911
  H 0.518446 -0.774191 0.440734
  H 0.515134 0.829455 -0.208145
  H 2.281614 -0.664118 -1.604930
  H 4.952478 -0.087379 -0.171459
  H 5.117625 -2.363113 -3.527479
  H 5.118756 -0.769140 -4.168340
  H 2.659319 -0.558568 -3.730445
  H 2.657955 -2.208900 -3.067357
  H 3.455220 -1.444853 -5.914395
  H 1.942881 -2.198772 -5.429517
  H 3.453742 -3.081029 -5.257198
 22
 4.363880
  C 0.987702 0.260290 0.556841
  C 2.392977 0.141501 0.349315
  H 3.081833 0.451182 1.121385
  C 2.938750 -0.354467 -0.819737
  C 4.332136 -0.439171 -0.995743
  C 5.036197 -0.884017 -2.097944
  C 4.613264 -1.394558 -3.395861
  C 3.144085 -1.527501 -3.764454
  C 2.994586 -2.081019 -5.178236
  H 6.113376 -0.855305 -1.996048
  H 0.690705 0.664194 1.521780
  H 0.811236 -0.799170 0.466765
  H 0.434728 0.735474 -0.263816
  H 2.268777 -0.670268 -1.602247
  H 4.932355 -0.104580 -0.152895
  H 5.106300 -2.369129 -3.522041
  H 5.120008 -0.777005 -4.151424
  H 2.657778 -0.551099 -3.722342
  H 2.644721 -2.208083 -3.072460
  H 3.463211 -1.423849 -5.907376
  H 1.943483 -2.174669 -5.439141
  H 3.449681 -3.065324 -5.263348
 22
 11.651866
  C 0.976119 0.308761 0.560009
  C 2.373992 0.153646 0.355086
  H 3.074091 0.464953 1.117515
  C 2.924256 -0.361606 -0.820026
  C 4.317084 -0.455373 -0.990248
  C 5.023855 -0.900711 -2.085469
  C 4.609118 -1.404235 -3.395510
  C 3.144523 -1.524888 -3.773432
  C 3.003523 -2.065080 -5.193181
  H 6.102352 -0.880825 -1.975530
  H 0.661179 0.766139 1.477720
  H 1.048091 -0.784899 0.589572
  H 0.361313 0.589209 -0.283419
  H 2.256983 -0.678633 -1.604931
  H 4.913402 -0.127014 -0.149863
  H 5.093387 -2.383494 -3.520818
  H 5.121597 -0.781158 -4.143125
  H 2.665487 -0.547279 -3.727368
  H 2.638425 -2.208918 -3.092979
  H 3.482116 -1.404392 -5.911396
  H 1.955063 -2.150816 -5.463859
  H 3.454536 -3.049989 -5.282663
 22
 17.494920
  C 0.962986 0.344583 0.557694
  C 2.356029 0.149240 0.348399
  H 3.052468 0.461556 1.118859
  C 2.918299 -0.373701 -0.831304
  C 4.304841 -0.470763 -0.989406
  C 5.019859 -0.914904 -2.077900
  C 4.614423 -1.411589 -3.395986
  C 3.149212 -1.521433 -3.778862
  C 3.009561 -2.052217 -5.206948
  H 6.095272 -0.900962 -1.960555
  H 0.641587 0.866894 1.441661
  H 1.235313 -0.744173 0.723985
  H 0.296646 0.455712 -0.290289
  H 2.259016 -0.688922 -1.620908
  H 4.895332 -0.145041 -0.144356
  H 5.090897 -2.393894 -3.521112
  H 5.130350 -0.784377 -4.136794
  H 2.675343 -0.539063 -3.726896
  H 2.637129 -2.209563 -3.103040
  H 3.495836 -1.387462 -5.919897
  H 1.959287 -2.130818 -5.482924
  H 3.457385 -3.040712 -5.301809
 22
 21.605051
  C 0.954477 0.370386 0.549206
  C 2.342744 0.141390 0.345875
  H 3.036450 0.462211 1.120333
  C 2.912477 -0.385661 -0.838057
  C 4.298272 -0.484348 -0.988045
  C 5.020107 -0.925043 -2.070227
  C 4.623355 -1.416912 -3.396659
  C 3.149758 -1.519718 -3.787699
  C 3.012589 -2.041946 -5.215373
  H 6.090620 -0.914553 -1.944993
  H 0.622028 0.931130 1.404674
  H 1.382955 -0.688012 0.820787
  H 0.260355 0.342678 -0.288520
  H 2.257996 -0.694257 -1.622168
  H 4.886754 -0.160765 -0.135632
  H 5.093580 -2.398673 -3.520397
  H 5.141336 -0.788052 -4.128766
  H 2.679878 -0.535241 -3.732862
  H 2.633067 -2.209460 -3.117169
  H 3.503870 -1.376398 -5.922236
  H 1.964603 -2.115216 -5.495259
  H 3.456966 -3.030250 -5.312867
 22
 25.350366
  C 0.951514 0.389537 0.530644
  C 2.336886 0.125653 0.345533
  H 3.024153 0.454165 1.115789
  C 2.911343 -0.396596 -0.833612
  C 4.293133 -0.492120 -0.978849
  C 5.020513 -0.928490 -2.062870
  C 4.624767 -1.416111 -3.391683
  C 3.160739 -1.515986 -3.771432
  C 3.013370 -2.037189 -5.216913
  H 6.084393 -0.916409 -1.938634
  H 0.607868 0.956232 1.389277
  H 1.490411 -0.663541 0.830656
  H 0.248418 0.309337 -0.301449
  H 2.255339 -0.708265 -1.630727
  H 4.875536 -0.171299 -0.129581
  H 5.099749 -2.411846 -3.522249
  H 5.146327 -0.772330 -4.135377
  H 2.691474 -0.530284 -3.706852
  H 2.646639 -2.210016 -3.097027
  H 3.501012 -1.368605 -5.925174
  H 1.959532 -2.109669 -5.493141
  H 3.457445 -3.026137 -5.323103
 22
 28.378104
  C 0.945394 0.407984 0.511320
  C 2.329508 0.115204 0.352845
  H 3.022190 0.460875 1.114822
  C 2.905631 -0.408645 -0.833133
  C 4.287704 -0.502428 -0.982683
  C 5.013237 -0.933805 -2.064155
  C 4.621195 -1.417274 -3.392152
  C 3.157011 -1.519412 -3.778064
  C 3.018697 -2.029083 -5.207209
  H 6.113756 -0.919061 -1.935371
  H 0.596436 0.965886 1.357785
  H 1.568976 -0.649768 0.838873
  H 0.259945 0.280805 -0.298203
  H 2.255620 -0.715488 -1.614016
  H 4.885528 -0.175061 -0.115964
  H 5.090576 -2.398210 -3.521334
  H 5.134434 -0.778353 -4.121229
  H 2.687405 -0.538158 -3.712825
  H 2.645421 -2.213602 -3.112386
  H 3.506050 -1.358633 -5.907508
  H 1.974213 -2.102399 -5.485442
  H 3.464388 -3.012794 -5.313914
 22
 30.711287
  C 0.945748 0.429761 0.494107
  C 2.330499 0.108755 0.375782
  H 3.020071 0.476516 1.129200
  C 2.920894 -0.418069 -0.824290
  C 4.300351 -0.505809 -0.966275
  C 5.032849 -0.932693 -2.049539
  C 4.639965 -1.416573 -3.389694
  C 3.156249 -1.520316 -3.776609
  C 3.012120 -2.025700 -5.209639
  H 6.093560 -0.914709 -1.922755
  H 0.576907 0.985269 1.343397
  H 1.637454 -0.652745 0.857129
  H 0.262288 0.256523 -0.323462
  H 2.259185 -0.732297 -1.621630
  H 4.873969 -0.188098 -0.124837
  H 5.113192 -2.398607 -3.522853
  H 5.154154 -0.772293 -4.119815
  H 2.684383 -0.540027 -3.707351
  H 2.645788 -2.218402 -3.112737
  H 3.497055 -1.350990 -5.910007
  H 1.966103 -2.098972 -5.484125
  H 3.458899 -3.009575 -5.321296
 22
 32.486252
  C 0.941882 0.452086 0.477531
  C 2.328448 0.097105 0.387260
  H 3.021860 0.481509 1.132753
  C 2.919017 -0.422164 -0.823065
  C 4.294599 -0.508424 -0.969127
  C 5.023595 -0.933947 -2.054276
  C 4.629984 -1.415621 -3.390972
  C 3.164550 -1.519221 -3.772745
  C 3.023161 -2.021635 -5.201602
  H 6.097554 -0.914422 -1.928496
  H 0.571068 0.992534 1.324241
  H 1.703021 -0.678307 0.862478
  H 0.271563 0.254738 -0.328573
  H 2.255014 -0.733384 -1.613097
  H 4.882246 -0.187175 -0.112936
  H 5.104787 -2.400826 -3.526736
  H 5.139441 -0.772969 -4.118326
  H 2.693304 -0.543108 -3.703058
  H 2.656278 -2.217336 -3.111546
  H 3.509841 -1.342298 -5.902553
  H 1.967997 -2.096559 -5.478216
  H 3.474106 -3.008891 -5.313264
 22
 33.681125
  C 0.953239 0.485329 0.487636
  C 2.332174 0.090152 0.421810
  H 3.030921 0.494229 1.154034
  C 2.913381 -0.419667 -0.804488
  C 4.286859 -0.507268 -0.963951
  C 5.009432 -0.930666 -2.047988
  C 4.625944 -1.413639 -3.388099
  C 3.158875 -1.528133 -3.794334
  C 3.044032 -2.033547 -5.231937
  H 6.083443 -0.906702 -1.919513
  H 0.576365 1.022764 1.347283
  H 1.775059 -0.708680 0.895392
  H 0.269092 0.260849 -0.326994
  H 2.240974 -0.727215 -1.583970
  H 4.881807 -0.188604 -0.110463
  H 5.109407 -2.398856 -3.519404
  H 5.138456 -0.768526 -4.108518
  H 2.672989 -0.539600 -3.731636
  H 2.639471 -2.240998 -3.132324
  H 3.533491 -1.355213 -5.920857
  H 2.003332 -2.115950 -5.523686
  H 3.500880 -3.010326 -5.336454
 22
 34.035707
  C 0.949838 0.496471 0.438481
  C 2.330079 0.068172 0.415716
  H 3.015381 0.497182 1.147270
  C 2.931212 -0.429372 -0.812440
  C 4.301698 -0.511599 -0.958378
  C 5.029605 -0.933617 -2.046835
  C 4.637185 -1.411030 -3.381069
  C 3.161242 -1.520694 -3.769112
  C 3.025098 -2.020453 -5.199043
  H 6.106313 -0.907862 -1.922011
  H 0.558141 1.022131 1.288456
  H 1.837844 -0.761043 0.880948
  H 0.287908 0.260464 -0.367485
  H 2.266318 -0.739249 -1.601987
  H 4.889265 -0.192672 -0.104518
  H 5.116237 -2.392574 -3.518213
  H 5.148952 -0.761081 -4.110770
  H 2.686995 -0.547772 -3.698770
  H 2.655622 -2.221832 -3.111913
  H 3.509595 -1.338292 -5.897563
  H 1.976799 -2.099051 -5.477046
  H 3.479232 -3.003970 -5.312267
 22
 32.567570
  C 0.954511 0.523391 0.430815
  C 2.319629 0.054819 0.432881
  H 3.004612 0.532357 1.135578
  C 2.932393 -0.434656 -0.812477
  C 4.300149 -0.517364 -0.951188
  C 5.029532 -0.936218 -2.040444
  C 4.637537 -1.410855 -3.379772
  C 3.168922 -1.521686 -3.769611
  C 3.034902 -2.023066 -5.210130
  H 6.099206 -0.908532 -1.915010
  H 0.560099 1.049188 1.282255
  H 1.931798 -0.826707 0.919217
  H 0.280961 0.271300 -0.369389
  H 2.264553 -0.745320 -1.601579
  H 4.888619 -0.201324 -0.091078
  H 5.114190 -2.382095 -3.516838
  H 5.152655 -0.758538 -4.109638
  H 2.691778 -0.545782 -3.698327
  H 2.662339 -2.224478 -3.113174
  H 3.518241 -1.341770 -5.905803
  H 1.986416 -2.102793 -5.490931
  H 3.489310 -3.004227 -5.324618
 22
 32.872027
  C 0.956891 0.523242 0.387405
  C 2.322186 0.032296 0.424875
  H 2.990928 0.532418 1.128492
  C 2.944637 -0.443119 -0.811011
  C 4.315767 -0.520818 -0.945321
  C 5.044463 -0.935655 -2.037329
  C 4.641354 -1.406831 -3.377758
  C 3.175652 -1.513250 -3.749516
  C 3.027945 -2.009443 -5.183167
  H 6.119430 -0.907765 -1.914600
  H 0.546624 1.053018 1.233416
  H 2.004911 -0.861930 0.901685
  H 0.297491 0.272266 -0.421497
  H 2.288345 -0.754003 -1.598541
  H 4.892207 -0.215776 -0.097306
  H 5.118492 -2.383779 -3.522536
  H 5.146973 -0.760412 -4.105230
  H 2.697494 -0.528667 -3.670237
  H 2.667331 -2.225495 -3.079430
  H 3.509214 -1.322319 -5.887315
  H 1.971641 -2.086837 -5.454165
  H 3.482112 -2.997499 -5.304040
 22
 31.688800
  C 0.958802 0.543048 0.417129
  C 2.312685 0.029716 0.454212
  H 2.990473 0.572017 1.118455
  C 2.932424 -0.445679 -0.804670
  C 4.299102 -0.530774 -0.941812
  C 5.028435 -0.943630 -2.036237
  C 4.639050 -1.408111 -3.373635
  C 3.174803 -1.522924 -3.771057
  C 3.052321 -2.017185 -5.212700
  H 6.105847 -0.911862 -1.909737
  H 0.562486 1.081530 1.259017
  H 2.109035 -0.891032 0.954568
  H 0.292934 0.299977 -0.388419
  H 2.262839 -0.754944 -1.589407
  H 4.885373 -0.221909 -0.086579
  H 5.123984 -2.380143 -3.516380
  H 5.153253 -0.755594 -4.094325
  H 2.689968 -0.544815 -3.697346
  H 2.664651 -2.234156 -3.117937
  H 3.537248 -1.327612 -5.905281
  H 2.014055 -2.099306 -5.496739
  H 3.511684 -2.998756 -5.329750
