18

H -3.122554954542836 0.8253818099143899 -0.07209393722067702
C -2.049888 0.586999 -0.021505
C -1.647952 -0.481936 0.645565
C -0.236758 -0.953561 0.811495
C 0.801911 -0.085743 0.112536
C 2.217826 -0.615385 0.339132
C 3.267865 0.222759 -0.39894
H -1.336469 1.227984 -0.516831
H -2.38643 -1.105869 1.133692
H -0.006414 -0.996681 1.883408
H -0.170354 -1.975875 0.426967
H 0.591052 -0.067341 -0.960165
H 0.737519 0.936809 0.493964
H 2.424081 -0.596599 1.412093
H 2.267608 -1.65871 0.018012
H 3.973076 0.67492 0.293483
H 3.831233 -0.384636 -1.102644
H 2.795403 1.025897 -0.962036
