 26
 0.000000
  H 1.476083 0.185139 0.511317
  C 2.552953 0.150522 0.424947
  C 3.320822 0.630650 1.620323
  C 2.392567 1.080533 2.740617
  H 2.966284 1.425134 3.598619
  C 3.067817 -0.308017 -0.716960
  C 4.476164 -0.421901 -1.000820
  C 5.097125 -0.865458 -2.106187
  C 4.606447 -1.394627 -3.424850
  C 3.114774 -1.505409 -3.701761
  C 2.880223 -2.066852 -5.101113
  O 6.473732 -0.886887 -2.159736
  H 3.971792 1.462062 1.332255
  H 3.971892 -0.168985 1.987321
  H 1.756034 0.258771 3.060601
  H 1.755948 1.895314 2.403347
  H 2.382360 -0.617476 -1.487456
  H 5.125717 -0.097882 -0.193516
  H 5.062271 -2.383497 -3.542995
  H 5.062625 -0.762008 -4.193736
  H 2.648929 -0.520980 -3.633944
  H 2.648568 -2.169766 -2.972399
  H 3.323528 -1.418409 -5.853590
  H 1.814986 -2.148251 -5.304580
  H 3.323169 -3.055793 -5.196605
  H 6.853857 -0.556569 -1.336477
 26
 0.486419
  H 1.447441 0.329919 0.516379
  C 2.510923 0.152890 0.419078
  C 3.326736 0.581723 1.605783
  C 2.451749 1.111800 2.737123
  H 3.062398 1.399953 3.590911
  C 2.988546 -0.364744 -0.715168
  C 4.395920 -0.534955 -0.969990
  C 5.055286 -0.876359 -2.085144
  C 4.608225 -1.356150 -3.437746
  C 3.121488 -1.549110 -3.704620
  C 2.900284 -2.089890 -5.113302
  O 6.427548 -0.831449 -2.081200
  H 4.034355 1.362179 1.305303
  H 3.912947 -0.263687 1.974462
  H 1.745599 0.348841 3.062504
  H 1.888988 1.984844 2.407872
  H 2.293505 -0.633242 -1.487018
  H 5.024937 -0.286984 -0.120712
  H 5.125180 -2.307102 -3.603066
  H 5.017124 -0.657059 -4.172899
  H 2.600306 -0.594578 -3.606425
  H 2.704650 -2.254149 -2.981497
  H 3.300750 -1.402101 -5.854781
  H 1.838952 -2.222793 -5.307771
  H 3.393937 -3.051196 -5.236996
  H 6.726536 -0.416856 -1.261046
 26
 3.209079
  H 1.450571 0.429591 0.554661
  C 2.490786 0.170586 0.413658
  C 3.363738 0.574845 1.569364
  C 2.548487 1.159693 2.717298
  H 3.197287 1.431070 3.547553
  C 2.903979 -0.410170 -0.714217
  C 4.305538 -0.636287 -0.954030
  C 5.009133 -0.878538 -2.070050
  C 4.622657 -1.311958 -3.451447
  C 3.150143 -1.585603 -3.725238
  C 2.952883 -2.083939 -5.152848
  O 6.378831 -0.743798 -1.985150
  H 4.095955 1.317956 1.235674
  H 3.922196 -0.291203 1.938292
  H 1.819882 0.435107 3.074744
  H 2.016933 2.051951 2.392979
  H 2.187842 -0.643371 -1.483613
  H 4.908588 -0.532006 -0.056514
  H 5.201485 -2.220809 -3.648404
  H 4.989720 -0.557805 -4.155431
  H 2.573820 -0.670249 -3.585437
  H 2.781934 -2.338780 -3.026407
  H 3.312234 -1.347321 -5.868279
  H 1.899377 -2.267464 -5.350399
  H 3.497963 -3.011537 -5.314099
  H 6.538883 -0.297747 -1.142811
 26
 7.202062
  H 1.482393 0.631492 0.519469
  C 2.502537 0.299023 0.379365
  C 3.369307 0.525563 1.588156
  C 2.571664 1.096129 2.756140
  H 3.205114 1.207770 3.633135
  C 2.892742 -0.251345 -0.776367
  C 4.272789 -0.579640 -0.985925
  C 4.990329 -0.820114 -2.095002
  C 4.624859 -1.280016 -3.473807
  C 3.159542 -1.604771 -3.729751
  C 2.967976 -2.171747 -5.133294
  O 6.361010 -0.686588 -1.969886
  H 4.178203 1.218872 1.335522
  H 3.830188 -0.414517 1.905984
  H 1.745761 0.435335 3.012003
  H 2.165498 2.073179 2.501794
  H 2.187445 -0.366353 -1.581022
  H 4.833012 -0.680079 -0.062864
  H 5.226138 -2.183484 -3.632253
  H 4.975634 -0.548049 -4.206022
  H 2.561894 -0.698487 -3.635064
  H 2.808067 -2.325902 -2.992494
  H 3.307061 -1.461036 -5.882138
  H 1.919417 -2.389044 -5.316822
  H 3.534104 -3.093584 -5.255779
  H 6.475852 -0.190931 -1.144471
 26
 14.914690
  H 1.507410 0.632275 0.467855
  C 2.539013 0.305888 0.384319
  C 3.402216 0.566690 1.579841
  C 2.602695 1.145661 2.744688
  H 3.256235 1.365437 3.586621
  C 2.902389 -0.287767 -0.753845
  C 4.258436 -0.704522 -0.960654
  C 4.980187 -0.893893 -2.078482
  C 4.626257 -1.253247 -3.479818
  C 3.174169 -1.632076 -3.729372
  C 2.975137 -2.112521 -5.166680
  O 6.331466 -0.731621 -1.889868
  H 4.195130 1.268417 1.301356
  H 3.893248 -0.360793 1.907339
  H 1.845186 0.438744 3.074198
  H 2.106487 2.067065 2.447920
  H 2.185921 -0.373443 -1.565871
  H 4.778461 -0.959972 -0.042436
  H 5.255225 -2.132898 -3.683397
  H 4.955851 -0.472853 -4.173795
  H 2.535758 -0.755595 -3.581096
  H 2.851978 -2.405091 -3.031277
  H 3.287272 -1.345137 -5.873480
  H 1.927849 -2.346883 -5.349036
  H 3.561651 -3.009011 -5.357822
  H 6.270340 -0.277379 -1.032124
 26
 31.210651
  H 1.574853 0.869303 0.483127
  C 2.525950 0.396648 0.357797
  C 3.387224 0.443104 1.580268
  C 2.662294 1.038967 2.780933
  H 3.286013 0.982656 3.674932
  C 2.881544 -0.053821 -0.847839
  C 4.212498 -0.501515 -1.021745
  C 4.965560 -0.805063 -2.119119
  C 4.653103 -1.310564 -3.478794
  C 3.191058 -1.656802 -3.740350
  C 3.011160 -2.234619 -5.132403
  O 6.305697 -0.489076 -1.866264
  H 4.290869 1.026056 1.383690
  H 3.745499 -0.560439 1.832398
  H 1.741145 0.494696 2.984958
  H 2.408971 2.082160 2.596602
  H 2.202586 0.012581 -1.684868
  H 4.630148 -0.919795 -0.119867
  H 5.282086 -2.186423 -3.643943
  H 4.961195 -0.573319 -4.227359
  H 2.592363 -0.753448 -3.632731
  H 2.855136 -2.367168 -2.978588
  H 3.338721 -1.519560 -5.887278
  H 1.966026 -2.465157 -5.323393
  H 3.591691 -3.141784 -5.247718
  H 6.054139 -0.082045 -1.003370
 26
 55.683133
  H 1.607460 0.878874 0.424555
  C 2.600538 0.463458 0.342687
  C 3.410272 0.483612 1.607302
  C 2.600677 0.979004 2.799749
  H 3.206430 0.973705 3.703503
  C 3.052409 0.020579 -0.832446
  C 4.401356 -0.469124 -1.026303
  C 5.091222 -0.777463 -2.219481
  C 4.664159 -1.289785 -3.550764
  C 3.194592 -1.659526 -3.712643
  C 2.937203 -2.260026 -5.090112
  O 6.346215 -0.527326 -2.034251
  H 4.283795 1.130362 1.467881
  H 3.789603 -0.520692 1.826056
  H 1.734961 0.340928 2.963597
  H 2.251835 1.994663 2.627622
  H 2.417068 0.093952 -1.701780
  H 4.786618 -1.022901 -0.168622
  H 5.286840 -2.173531 -3.735922
  H 4.952420 -0.556308 -4.310693
  H 2.574714 -0.770527 -3.594685
  H 2.910387 -2.376941 -2.940520
  H 3.207985 -1.553292 -5.871537
  H 1.885617 -2.511441 -5.205195
  H 3.522944 -3.166194 -5.230636
  H 5.806936 -0.009857 -0.871086
 26
 26.940458
  H 1.708056 0.924885 0.273732
  C 2.681649 0.475994 0.285743
  C 3.377193 0.474748 1.615080
  C 2.475427 0.913146 2.760006
  H 3.024889 0.935467 3.697745
  C 3.263867 0.059228 -0.833781
  C 4.652300 -0.483458 -0.997187
  C 5.309021 -0.797416 -2.316202
  C 4.717623 -1.268991 -3.612793
  C 3.226692 -1.596782 -3.642454
  C 2.848170 -2.251965 -4.973062
  O 6.509325 -0.634958 -2.211245
  H 4.230792 1.142804 1.535126
  H 3.818944 -0.513085 1.814732
  H 1.629511 0.238453 2.872445
  H 2.085780 1.907559 2.560161
  H 2.706689 0.169543 -1.763714
  H 4.943882 -1.180449 -0.193416
  H 5.249955 -2.212184 -3.799850
  H 4.991267 -0.612015 -4.440792
  H 2.640828 -0.678391 -3.574179
  H 2.947968 -2.259062 -2.817959
  H 3.066008 -1.597666 -5.814222
  H 1.785747 -2.498606 -4.987640
  H 3.406277 -3.176107 -5.104741
  H 5.623172 0.083147 -0.715614
 26
 9.943917
  H 1.768099 0.989507 0.203590
  C 2.750780 0.555186 0.229604
  C 3.387378 0.470922 1.578201
  C 2.439120 0.911412 2.686817
  H 2.884877 0.737758 3.664162
  C 3.343812 0.155491 -0.897285
  C 4.700589 -0.458647 -0.989780
  C 5.353875 -0.832226 -2.291011
  C 4.708079 -1.339757 -3.559767
  C 3.227427 -1.719623 -3.563778
  C 2.809409 -2.225467 -4.944380
  O 6.559170 -0.610271 -2.298456
  H 4.281625 1.102879 1.601049
  H 3.688010 -0.557879 1.770477
  H 1.506494 0.357947 2.626957
  H 2.218077 1.975977 2.605176
  H 2.806738 0.272805 -1.816013
  H 4.925664 -1.166967 -0.188393
  H 5.307689 -2.198592 -3.873471
  H 4.886891 -0.542011 -4.295849
  H 2.610939 -0.865604 -3.289411
  H 3.057674 -2.508377 -2.825416
  H 2.994903 -1.461810 -5.698680
  H 1.748721 -2.470631 -4.956490
  H 3.371583 -3.117474 -5.218475
  H 5.511674 0.247139 -0.673785
 26
 2.631101
  H 1.837745 1.053838 0.096789
  C 2.802721 0.578659 0.185200
  C 3.382891 0.512866 1.566076
  C 2.425915 1.057240 2.619471
  H 2.869739 0.990939 3.610834
  C 3.387056 0.095383 -0.901820
  C 4.693003 -0.624641 -0.906466
  C 5.398088 -1.051145 -2.171449
  C 4.747577 -1.450441 -3.475128
  C 3.234023 -1.552231 -3.618999
  C 2.872649 -2.104643 -4.993256
  O 6.610360 -1.055579 -2.119914
  H 4.318079 1.086245 1.588633
  H 3.632367 -0.524455 1.809956
  H 1.500574 0.487489 2.622751
  H 2.188833 2.101034 2.418412
  H 2.909355 0.255988 -1.855150
  H 4.679332 -1.481789 -0.224209
  H 5.184005 -2.429239 -3.702672
  H 5.142051 -0.760201 -4.228006
  H 2.764378 -0.577598 -3.503283
  H 2.837237 -2.216626 -2.849517
  H 3.250993 -1.452927 -5.777400
  H 1.793448 -2.179475 -5.100358
  H 3.299785 -3.093605 -5.136785
  H 5.479001 0.042307 -0.465207
 26
 2.185049
  H 1.777732 1.091153 0.205370
  C 2.727176 0.571131 0.212243
  C 3.406622 0.499757 1.547183
  C 2.537799 1.051231 2.671175
  H 3.095300 1.081818 3.605597
  C 3.213000 0.055090 -0.907301
  C 4.536489 -0.632400 -0.912866
  C 5.341742 -0.953284 -2.150039
  C 4.755591 -1.375488 -3.482670
  C 3.253599 -1.536860 -3.672291
  C 2.958282 -2.173168 -5.027277
  O 6.548576 -0.905246 -2.042593
  H 4.340892 1.070988 1.495835
  H 3.682665 -0.533943 1.773225
  H 1.660644 0.423434 2.816649
  H 2.205081 2.060860 2.438765
  H 2.672066 0.171851 -1.829620
  H 4.536836 -1.530835 -0.284298
  H 5.234433 -2.337915 -3.697135
  H 5.154479 -0.678793 -4.226578
  H 2.754424 -0.569350 -3.635765
  H 2.846732 -2.170979 -2.881051
  H 3.351573 -1.555540 -5.834337
  H 1.887516 -2.279963 -5.170807
  H 3.413606 -3.159302 -5.099708
  H 5.199871 0.045477 -0.367264
 26
 -5.817829
  H 2.424978 1.736331 -0.136665
  C 3.141773 0.932381 -0.045920
  C 3.193664 0.247182 1.285713
  C 2.102256 0.732982 2.231419
  H 2.189426 0.244053 3.199082
  C 3.905907 0.611986 -1.078613
  C 4.949788 -0.467401 -1.014538
  C 5.604884 -0.742998 -2.346943
  C 4.709610 -1.185722 -3.485777
  C 3.358659 -1.788890 -3.112569
  C 2.636415 -2.307607 -4.351312
  O 6.793688 -0.603575 -2.507305
  H 4.174992 0.421046 1.739361
  H 3.099780 -0.834322 1.143842
  H 1.118000 0.512547 1.823525
  H 2.179468 1.807422 2.383045
  H 3.832261 1.164406 -2.003838
  H 4.502821 -1.395552 -0.646654
  H 5.279868 -1.901538 -4.084514
  H 4.560580 -0.307176 -4.121951
  H 2.734069 -1.042386 -2.619294
  H 3.506933 -2.616187 -2.414807
  H 2.470565 -1.501786 -5.063050
  H 1.671214 -2.728998 -4.080793
  H 3.222689 -3.081474 -4.841963
  H 5.728438 -0.174999 -0.305037
