 26
 0.000000
  C 0.976022 0.150730 0.427066
  C 2.450241 0.137048 0.392442
  C 3.232226 0.603618 1.552566
  H 2.641558 0.941511 2.393437
  C 3.053990 -0.329847 -0.769423
  C 4.430295 -0.414112 -0.980032
  C 5.114677 -0.864493 -2.103189
  C 4.622369 -1.387234 -3.406722
  C 3.132978 -1.506750 -3.705516
  C 2.922596 -2.069489 -5.108845
  O 6.435463 -0.857372 -2.085901
  H 0.575802 0.527158 1.363387
  H 0.589299 -0.856633 0.266951
  H 0.588931 0.766736 -0.385768
  H 3.885464 1.421253 1.239606
  H 3.885850 -0.202829 1.892553
  H 2.390870 -0.645630 -1.555122
  H 5.046416 -0.081754 -0.152781
  H 5.082662 -2.374189 -3.531188
  H 5.083090 -0.760059 -4.178665
  H 2.656071 -0.527324 -3.655114
  H 2.655740 -2.179799 -2.992433
  H 3.366121 -1.420832 -5.860631
  H 1.860186 -2.154992 -5.322607
  H 3.365845 -3.057990 -5.204084
  H 6.816008 -0.523634 -1.251782
 26
 4.901415
  C 0.984662 0.141016 0.402027
  C 2.448718 0.142551 0.405940
  C 3.183221 0.615348 1.582896
  H 2.507666 0.932244 2.372096
  C 3.105315 -0.307681 -0.715013
  C 4.459317 -0.407074 -0.962797
  C 5.126510 -0.869107 -2.115193
  C 4.600573 -1.387987 -3.408953
  C 3.103750 -1.501350 -3.692102
  C 2.889318 -2.064469 -5.095588
  O 6.454869 -0.874342 -2.128955
  H 0.571610 0.515059 1.332792
  H 0.609764 -0.868144 0.221601
  H 0.609726 0.744746 -0.426456
  H 3.834335 1.449299 1.317670
  H 3.834527 -0.170222 1.968100
  H 2.662753 -0.664972 -1.604781
  H 5.130417 -0.085404 -0.161461
  H 5.058214 -2.376536 -3.540955
  H 5.058769 -0.765159 -4.187537
  H 2.627467 -0.521046 -3.643391
  H 2.627265 -2.176116 -2.979428
  H 3.333236 -1.416271 -5.847377
  H 1.827188 -2.150292 -5.309695
  H 3.333245 -3.052606 -5.190802
  H 6.879682 -0.546625 -1.310144
 26
 14.947721
  C 0.988475 0.127101 0.363590
  C 2.453489 0.148635 0.420624
  C 3.145511 0.626857 1.617794
  H 2.445525 0.936579 2.392254
  C 3.163918 -0.290531 -0.675286
  C 4.509482 -0.401238 -0.951159
  C 5.117591 -0.866553 -2.111709
  C 4.563483 -1.382265 -3.394653
  C 3.072692 -1.496792 -3.681144
  C 2.871281 -2.061981 -5.085534
  O 6.440566 -0.886347 -2.163453
  H 0.534059 0.494341 1.279384
  H 0.636281 -0.885179 0.165570
  H 0.637682 0.723258 -0.478651
  H 3.794720 1.465810 1.369799
  H 3.794241 -0.152395 2.016318
  H 2.909099 -0.667341 -1.616231
  H 5.229292 -0.098619 -0.195557
  H 5.017310 -2.368954 -3.529836
  H 5.018377 -0.764781 -4.175361
  H 2.590727 -0.517446 -3.640996
  H 2.589731 -2.174899 -2.973974
  H 3.319449 -1.413461 -5.834823
  H 1.811146 -2.150566 -5.306887
  H 3.318692 -3.049055 -5.176378
  H 6.891728 -0.560301 -1.353419
 26
 28.386010
  C 0.987022 0.096054 0.291620
  C 2.451430 0.140536 0.400808
  C 3.104799 0.634164 1.631444
  H 2.382814 0.931417 2.376003
  C 3.204861 -0.285914 -0.663039
  C 4.549182 -0.399449 -0.947176
  C 5.149065 -0.869845 -2.118429
  C 4.567411 -1.380539 -3.388787
  C 3.058383 -1.478552 -3.637986
  C 2.813678 -2.041988 -5.038914
  O 6.474367 -0.899190 -2.190924
  H 0.498362 0.455727 1.187679
  H 0.657198 -0.922663 0.082056
  H 0.656427 0.686366 -0.564433
  H 3.751930 1.480948 1.403612
  H 3.754073 -0.134240 2.050441
  H 3.119218 -0.673943 -1.630022
  H 5.307020 -0.094844 -0.189636
  H 5.012458 -2.377163 -3.534061
  H 5.015156 -0.764035 -4.183804
  H 2.587979 -0.496973 -3.584424
  H 2.585468 -2.148093 -2.920125
  H 3.249242 -1.398949 -5.799258
  H 1.747188 -2.118457 -5.232788
  H 3.247013 -3.033711 -5.141411
  H 6.940873 -0.577844 -1.389036
 26
 43.208564
  C 0.978110 0.080202 0.255321
  C 2.442781 0.135356 0.387931
  C 3.075130 0.634115 1.628540
  H 2.337413 0.927908 2.365034
  C 3.215178 -0.283224 -0.656131
  C 4.578258 -0.402579 -0.955534
  C 5.171780 -0.873870 -2.127666
  C 4.570182 -1.381689 -3.390827
  C 3.062192 -1.465178 -3.606318
  C 2.785585 -2.026226 -5.001331
  O 6.491070 -0.907483 -2.208628
  H 0.473210 0.437103 1.144386
  H 0.659077 -0.941736 0.040934
  H 0.656723 0.667939 -0.606830
  H 3.722918 1.485920 1.407849
  H 3.726488 -0.131507 2.056656
  H 3.271425 -0.671735 -1.623326
  H 5.352386 -0.110084 -0.229561
  H 5.003745 -2.377887 -3.542321
  H 5.007338 -0.770582 -4.190071
  H 2.600762 -0.477829 -3.541430
  H 2.597101 -2.130354 -2.876246
  H 3.212101 -1.386377 -5.770843
  H 1.714477 -2.093453 -5.173946
  H 3.208780 -3.022416 -5.112238
  H 6.959207 -0.589853 -1.413834
 26
 56.228549
  C 0.966168 0.100288 0.310605
  C 2.431937 0.149790 0.424597
  C 3.076671 0.646686 1.654705
  H 2.353674 0.945081 2.402829
  C 3.190702 -0.276142 -0.636456
  C 4.556772 -0.406779 -0.965160
  C 5.155785 -0.877064 -2.132658
  C 4.572505 -1.390333 -3.410033
  C 3.060710 -1.483036 -3.652417
  C 2.806914 -2.045611 -5.053739
  O 6.466030 -0.905001 -2.198425
  H 0.469955 0.460046 1.205129
  H 0.642179 -0.920318 0.100707
  H 0.637840 0.687415 -0.548531
  H 3.723535 1.493340 1.423362
  H 3.729296 -0.120246 2.072490
  H 3.339340 -0.665942 -1.604600
  H 5.337935 -0.113502 -0.240628
  H 5.014095 -2.388948 -3.555199
  H 5.019187 -0.773783 -4.206122
  H 2.592800 -0.498511 -3.593647
  H 2.587410 -2.150224 -2.929667
  H 3.241165 -1.404107 -5.816059
  H 1.739353 -2.118160 -5.242543
  H 3.236084 -3.038603 -5.159000
  H 6.923247 -0.584873 -1.396884
 26
 67.241074
  C 0.951149 0.091925 0.295239
  C 2.416374 0.134980 0.387984
  C 3.082833 0.634877 1.617916
  H 2.364467 0.938730 2.379490
  C 3.151852 -0.294629 -0.680669
  C 4.535567 -0.418281 -0.989204
  C 5.168506 -0.883233 -2.144553
  C 4.587206 -1.392486 -3.414026
  C 3.084154 -1.470173 -3.621549
  C 2.796808 -2.024317 -5.004718
  O 6.491753 -0.904957 -2.194658
  H 0.470985 0.453836 1.192552
  H 0.622711 -0.915440 0.091715
  H 0.616913 0.670907 -0.551476
  H 3.723665 1.471011 1.381259
  H 3.731776 -0.125631 2.025540
  H 3.403309 -0.675875 -1.626672
  H 5.303259 -0.115378 -0.238418
  H 5.015677 -2.382016 -3.564749
  H 5.021708 -0.786017 -4.207308
  H 2.628630 -0.482376 -3.550282
  H 2.622058 -2.131378 -2.888291
  H 3.219149 -1.388109 -5.773507
  H 1.729233 -2.085973 -5.168483
  H 3.212917 -3.018188 -5.119097
  H 6.935735 -0.584478 -1.392805
 26
 76.064891
  C 0.925386 0.069573 0.390691
  C 2.405661 0.143497 0.405614
  C 3.110330 0.698272 1.587839
  H 2.415354 1.004705 2.364468
  C 3.098561 -0.301115 -0.679346
  C 4.493774 -0.456133 -0.992773
  C 5.156204 -0.908908 -2.132355
  C 4.607355 -1.406410 -3.426450
  C 3.098872 -1.470687 -3.665773
  C 2.826273 -2.013383 -5.073185
  O 6.470402 -0.934461 -2.146499
  H 0.486114 0.454003 1.306168
  H 0.594725 -0.958769 0.235022
  H 0.538320 0.627902 -0.461650
  H 3.724580 1.551686 1.306365
  H 3.792441 -0.048573 1.989055
  H 3.410420 -0.689369 -1.617829
  H 5.237459 -0.165381 -0.215505
  H 5.032111 -2.401722 -3.579992
  H 5.061750 -0.790365 -4.206412
  H 2.645824 -0.473076 -3.592874
  H 2.616791 -2.141498 -2.941055
  H 3.268979 -1.368000 -5.833133
  H 1.753325 -2.065386 -5.257062
  H 3.239188 -3.016208 -5.192807
  H 6.898817 -0.618511 -1.321831
 26
 80.104673
  C 0.913815 -0.013775 0.431589
  C 2.397956 0.132572 0.378746
  C 3.091926 0.800558 1.512701
  H 2.389948 1.099390 2.275358
  C 3.081507 -0.316441 -0.669615
  C 4.499120 -0.524914 -1.009228
  C 5.188353 -0.954748 -2.121184
  C 4.642167 -1.424958 -3.438916
  C 3.128015 -1.438960 -3.654261
  C 2.807160 -1.941644 -5.060713
  O 6.515168 -1.004369 -2.114911
  H 0.503713 0.405653 1.340667
  H 0.612231 -1.060667 0.358716
  H 0.478283 0.494892 -0.429753
  H 3.650025 1.682198 1.191076
  H 3.812484 0.095292 1.932928
  H 3.440865 -0.738046 -1.627938
  H 5.188687 -0.253323 -0.196418
  H 5.045390 -2.433782 -3.615911
  H 5.110680 -0.795127 -4.210748
  H 2.709881 -0.438460 -3.554327
  H 2.644191 -2.105949 -2.940163
  H 3.250709 -1.298291 -5.810682
  H 1.736188 -1.956483 -5.221009
  H 3.183686 -2.946616 -5.208387
  H 6.930269 -0.721169 -1.289237
 26
 82.592516
  C 0.902618 -0.082970 0.487367
  C 2.388155 0.125049 0.376369
  C 3.091222 0.907941 1.461963
  H 2.378981 1.221521 2.236521
  C 3.063556 -0.341602 -0.652305
  C 4.482107 -0.596754 -1.024504
  C 5.199136 -1.008570 -2.129364
  C 4.666328 -1.440499 -3.456934
  C 3.154036 -1.412058 -3.667597
  C 2.812696 -1.879732 -5.081109
  O 6.518822 -1.074324 -2.097010
  H 0.510735 0.371294 1.386975
  H 0.659081 -1.139188 0.493242
  H 0.408574 0.357851 -0.372404
  H 3.584546 1.794978 1.056316
  H 3.858350 0.272366 1.912802
  H 3.445546 -0.788831 -1.603235
  H 5.131786 -0.358614 -0.164737
  H 5.046837 -2.445488 -3.646179
  H 5.148638 -0.807194 -4.204750
  H 2.767691 -0.401826 -3.544443
  H 2.654764 -2.080102 -2.966814
  H 3.272328 -1.233530 -5.823441
  H 1.738222 -1.862559 -5.236889
  H 3.162440 -2.893658 -5.248167
  H 6.927844 -0.798504 -1.243030
 26
 84.827571
  C 0.916462 -0.134444 0.539215
  C 2.380702 0.125675 0.383332
  C 3.060435 1.005321 1.397852
  H 2.354643 1.328791 2.152309
  C 3.054659 -0.374123 -0.625126
  C 4.487585 -0.662481 -1.017293
  C 5.212072 -1.054110 -2.114523
  C 4.678284 -1.448141 -3.459599
  C 3.165216 -1.384034 -3.668943
  C 2.811676 -1.812325 -5.099362
  O 6.540008 -1.134501 -2.069245
  H 0.527727 0.358881 1.417900
  H 0.723572 -1.200298 0.618538
  H 0.382438 0.230391 -0.333446
  H 3.497297 1.881150 0.925429
  H 3.862063 0.445058 1.874989
  H 3.469512 -0.859109 -1.562593
  H 5.108635 -0.462072 -0.135753
  H 5.040334 -2.459620 -3.669979
  H 5.175149 -0.804614 -4.194295
  H 2.795851 -0.363248 -3.521091
  H 2.652443 -2.061386 -2.976399
  H 3.283920 -1.156232 -5.828634
  H 1.735501 -1.770513 -5.254020
  H 3.142333 -2.831888 -5.293144
  H 6.937173 -0.878192 -1.226687
 26
 86.501791
  C 0.919203 -0.175267 0.594242
  C 2.374379 0.130869 0.391213
  C 3.039651 1.096723 1.336553
  H 2.333705 1.441362 2.089398
  C 3.045159 -0.406616 -0.597744
  C 4.488490 -0.722749 -1.005439
  C 5.217365 -1.095311 -2.109290
  C 4.685957 -1.449416 -3.464663
  C 3.174059 -1.361074 -3.678104
  C 2.819937 -1.749885 -5.119204
  O 6.539775 -1.183409 -2.057752
  H 0.532218 0.351780 1.445609
  H 0.771792 -1.237628 0.741514
  H 0.352704 0.114274 -0.282896
  H 3.432242 1.961911 0.797280
  H 3.876871 0.598487 1.833694
  H 3.485590 -0.932602 -1.520123
  H 5.093362 -0.558613 -0.106779
  H 5.035949 -2.461104 -3.698018
  H 5.193666 -0.793591 -4.182706
  H 2.820982 -0.342209 -3.503950
  H 2.649857 -2.045898 -3.006678
  H 3.302675 -1.084211 -5.829649
  H 1.746688 -1.689806 -5.276618
  H 3.136351 -2.766350 -5.336499
  H 6.936338 -0.940139 -1.205694
 26
 87.994896
  C 0.934621 -0.209509 0.621724
  C 2.375029 0.125383 0.387270
  C 3.013760 1.176498 1.258228
  H 2.297070 1.549852 1.997763
  C 3.053774 -0.448583 -0.572784
  C 4.496850 -0.778428 -0.984941
  C 5.229002 -1.125184 -2.100256
  C 4.694447 -1.440895 -3.461402
  C 3.176193 -1.330268 -3.669710
  C 2.812077 -1.679039 -5.118552
  O 6.549715 -1.227042 -2.045253
  H 0.535588 0.360080 1.444747
  H 0.822214 -1.265687 0.838375
  H 0.350985 0.007574 -0.268084
  H 3.372060 2.016500 0.656952
  H 3.871941 0.743647 1.777525
  H 3.517868 -1.029011 -1.465807
  H 5.089002 -0.632264 -0.079880
  H 5.034183 -2.450330 -3.719558
  H 5.208498 -0.774125 -4.165017
  H 2.836374 -0.313644 -3.467646
  H 2.645928 -2.023467 -3.015451
  H 3.298859 -1.003601 -5.812921
  H 1.741466 -1.602670 -5.270189
  H 3.114831 -2.690817 -5.361661
  H 6.945428 -1.013190 -1.184009
 26
 88.994955
  C 0.932970 -0.220602 0.618396
  C 2.372373 0.130943 0.379042
  C 2.983057 1.240272 1.203105
  H 2.258775 1.631774 1.908857
  C 3.072071 -0.474755 -0.542727
  C 4.521186 -0.816614 -0.977305
  C 5.247726 -1.144854 -2.105602
  C 4.695868 -1.431691 -3.467381
  C 3.186854 -1.302139 -3.648815
  C 2.802221 -1.614045 -5.089817
  O 6.564698 -1.254442 -2.061505
  H 0.514075 0.384013 1.410562
  H 0.838189 -1.267704 0.888661
  H 0.354826 -0.060073 -0.283874
  H 3.328314 2.053442 0.565069
  H 3.843075 0.854113 1.750993
  H 3.562594 -1.124559 -1.423305
  H 5.109912 -0.680131 -0.067191
  H 5.022945 -2.440369 -3.750778
  H 5.205302 -0.756453 -4.164857
  H 2.861300 -0.286016 -3.417824
  H 2.656552 -2.005529 -2.999790
  H 3.289822 -0.924203 -5.780037
  H 1.724222 -1.522466 -5.224485
  H 3.093390 -2.630663 -5.359624
  H 6.967848 -1.062564 -1.195941
