 17
 0.000000
  C 0.973891 0.131063 0.377809
  C 2.431024 0.084913 0.264865
  H 3.022684 0.421665 1.103164
  C 3.071592 -0.367436 -0.860631
  C 4.463375 -0.406622 -0.959786
  C 5.189664 -0.850430 -2.067768
  C 4.597592 -1.353874 -3.323009
  H 3.518624 -1.354210 -3.323639
  O 6.494380 -0.846191 -2.059630
  H 0.645632 0.516555 1.336638
  H 0.551102 -0.864526 0.224698
  H 0.552220 0.744596 -0.421694
  H 2.467755 -0.700728 -1.689845
  H 5.025789 -0.061565 -0.101261
  H 4.968837 -2.362946 -3.509871
  H 4.968767 -0.753476 -4.155320
  H 6.908056 -0.517848 -1.240355
 17
 12.117458
  C 0.868999 0.143216 0.407408
  C 2.464927 0.087356 0.271729
  H 3.058315 0.422964 1.107710
  C 3.083838 -0.367693 -0.860445
  C 4.478255 -0.413028 -0.974789
  C 5.183704 -0.857995 -2.086366
  C 4.606065 -1.358330 -3.333780
  H 3.525278 -1.359911 -3.336658
  O 6.608346 -0.853356 -2.078814
  H 0.560855 0.529940 1.369319
  H 0.452289 -0.851240 0.258267
  H 0.453941 0.759045 -0.388433
  H 2.466683 -0.698161 -1.683243
  H 5.051917 -0.070322 -0.121617
  H 4.980481 -2.366791 -3.520114
  H 4.979910 -0.757620 -4.165198
  H 7.007975 -0.523701 -1.257316
 17
 37.817925
  C 0.762069 0.157435 0.441654
  C 2.507281 0.098301 0.299637
  H 3.075880 0.440397 1.149976
  C 3.097886 -0.368586 -0.859676
  C 4.496609 -0.422191 -0.994656
  C 5.148746 -0.867987 -2.110248
  C 4.622622 -1.367242 -3.357469
  H 3.537249 -1.376113 -3.376498
  O 6.684255 -0.856659 -2.088837
  H 0.487863 0.547181 1.408671
  H 0.393338 -0.847520 0.282018
  H 0.395449 0.772341 -0.370061
  H 2.463176 -0.696507 -1.675435
  H 5.087001 -0.084327 -0.153730
  H 5.007100 -2.370731 -3.539307
  H 5.006497 -0.766608 -4.181836
  H 7.024282 -0.519561 -1.248804
 17
 67.853326
  C 0.649605 0.163691 0.458010
  C 2.547343 0.104977 0.315569
  H 3.084498 0.449973 1.174086
  C 3.104311 -0.359041 -0.838125
  C 4.515479 -0.422232 -0.996305
  C 5.123866 -0.876617 -2.131968
  C 4.626930 -1.373368 -3.372132
  H 3.545587 -1.385304 -3.400018
  O 6.767788 -0.867339 -2.113970
  H 0.421690 0.555438 1.431454
  H 0.330753 -0.853534 0.304493
  H 0.332253 0.792067 -0.357205
  H 2.461412 -0.681059 -1.639992
  H 5.124250 -0.088444 -0.166513
  H 5.024884 -2.381581 -3.555868
  H 5.024574 -0.770895 -4.201267
  H 7.067663 -0.526185 -1.263318
 17
 98.802228
  C 0.525169 0.174429 0.482897
  C 2.589899 0.112937 0.337585
  H 3.105347 0.462712 1.208981
  C 3.120875 -0.351841 -0.818146
  C 4.532303 -0.423867 -0.998735
  C 5.103769 -0.885322 -2.153424
  C 4.640333 -1.383945 -3.397857
  H 3.554416 -1.404226 -3.443784
  O 6.841262 -0.874360 -2.134982
  H 0.344909 0.568687 1.462873
  H 0.254415 -0.853866 0.333895
  H 0.257063 0.814399 -0.336585
  H 2.464850 -0.671978 -1.616661
  H 5.156811 -0.093840 -0.177880
  H 5.050586 -2.381084 -3.578872
  H 5.048465 -0.786538 -4.217420
  H 7.107616 -0.531118 -1.279015
 17
 104.236579
  C 0.237052 -0.016799 0.309326
  C 2.915737 0.296112 0.418180
  H 2.984211 0.683469 1.402638
  C 3.400940 -0.121016 -0.698387
  C 4.802800 -0.361298 -0.955397
  C 5.274848 -0.894611 -2.106119
  C 4.493606 -1.334551 -3.288357
  H 3.427683 -1.172490 -3.182782
  O 6.622761 -1.061037 -2.284415
  H 0.077892 0.343218 1.307070
  H 0.314411 -1.068568 0.136280
  H 0.163478 0.662588 -0.513091
  H 2.746174 -0.373437 -1.528812
  H 5.482731 -0.123581 -0.153930
  H 4.681208 -2.397319 -3.461430
  H 4.859471 -0.807007 -4.168510
  H 7.146391 -0.750271 -1.529543
 17
 109.480082
  C 0.096461 -0.048923 0.241206
  C 3.044665 0.331880 0.496551
  H 2.924538 0.720790 1.461828
  C 3.519549 -0.098070 -0.605098
  C 4.908599 -0.356243 -0.946071
  C 5.306238 -0.891110 -2.112315
  C 4.444164 -1.323125 -3.251004
  H 3.383697 -1.144415 -3.088091
  O 6.613039 -1.087975 -2.365803
  H -0.088223 0.324273 1.229318
  H 0.236945 -1.102324 0.087925
  H 0.074389 0.624611 -0.594334
  H 2.843282 -0.356439 -1.426139
  H 5.632496 -0.105045 -0.179839
  H 4.600778 -2.383910 -3.421290
  H 4.765518 -0.803679 -4.149981
  H 7.193041 -0.797212 -1.646267
 17
 111.501535
  C -0.053259 -0.079619 0.203697
  C 3.153386 0.360790 0.547667
  H 2.785580 0.785975 1.549150
  C 3.664202 -0.097205 -0.526122
  C 5.014638 -0.340213 -0.946427
  C 5.339332 -0.883097 -2.139888
  C 4.408720 -1.325010 -3.211872
  H 3.364931 -1.148154 -2.980117
  O 6.625214 -1.087229 -2.473450
  H -0.276761 0.328499 1.185021
  H 0.141303 -1.138216 0.093756
  H -0.054786 0.570601 -0.661566
  H 2.954834 -0.379822 -1.323857
  H 5.779962 -0.071160 -0.240417
  H 4.556724 -2.398804 -3.388229
  H 4.665385 -0.802722 -4.147283
  H 7.247005 -0.793962 -1.786049
 17
 112.726698
  C -0.307485 -0.076844 0.300721
  C 3.184950 0.359050 0.506621
  H 2.769667 0.808582 1.379328
  C 3.758227 -0.103046 -0.528565
  C 5.099923 -0.364876 -0.954382
  C 5.414667 -0.897868 -2.156315
  C 4.449678 -1.295438 -3.220994
  H 3.425891 -1.088472 -2.968317
  O 6.693082 -1.132045 -2.514285
  H -0.506534 0.373557 1.236500
  H -0.089856 -1.123371 0.250623
  H -0.347854 0.514631 -0.591777
  H 3.038280 -0.374553 -1.316030
  H 5.881451 -0.107417 -0.237019
  H 4.558976 -2.354844 -3.419428
  H 4.703544 -0.772194 -4.140279
  H 7.334835 -0.872189 -1.836339
 17
 113.217221
  C -0.528706 -0.046348 0.373521
  C 3.247328 0.360450 0.494095
  H 2.736785 0.774282 1.323981
  C 3.832406 -0.100232 -0.530384
  C 5.165131 -0.383582 -0.968951
  C 5.467138 -0.913012 -2.176753
  C 4.494179 -1.298854 -3.235569
  H 3.458702 -1.088481 -2.968328
  O 6.734755 -1.140410 -2.545706
  H -0.731709 0.407826 1.320146
  H -0.304266 -1.088597 0.322911
  H -0.598775 0.538295 -0.521946
  H 3.085605 -0.373913 -1.303438
  H 5.944833 -0.123025 -0.273629
  H 4.601619 -2.362943 -3.444117
  H 4.742156 -0.767500 -4.156532
  H 7.384188 -0.889599 -1.869243
 17
 113.291310
  C -0.794485 0.003486 0.522306
  C 3.264871 0.355092 0.425649
  H 2.702026 0.727927 1.242588
  C 3.866050 -0.103659 -0.590664
  C 5.207013 -0.386488 -1.007945
  C 5.534451 -0.921344 -2.204108
  C 4.573431 -1.303113 -3.280689
  H 3.532286 -1.079290 -3.036627
  O 6.791988 -1.170585 -2.535564
  H -0.953256 0.449236 1.467475
  H -0.551582 -1.046044 0.456440
  H -0.905004 0.590522 -0.360036
  H 3.117632 -0.365881 -1.372546
  H 5.970048 -0.157959 -0.283283
  H 4.673749 -2.370172 -3.480063
  H 4.851287 -0.786066 -4.203590
  H 7.432728 -0.913576 -1.851629
 17
 113.264767
  C -1.031271 0.047111 0.644259
  C 3.279814 0.344094 0.383531
  H 2.695275 0.701508 1.186835
  C 3.895483 -0.120867 -0.626800
  C 5.237533 -0.404975 -1.027380
  C 5.565484 -0.937679 -2.224861
  C 4.622227 -1.312142 -3.311618
  H 3.590490 -1.088716 -3.075619
  O 6.832716 -1.177433 -2.554116
  H -1.170193 0.501102 1.605879
  H -0.790190 -0.990528 0.574587
  H -1.167185 0.633047 -0.244839
  H 3.161956 -0.383358 -1.416549
  H 5.998085 -0.170096 -0.302451
  H 4.721836 -2.373850 -3.514194
  H 4.905553 -0.789255 -4.222346
  H 7.458697 -0.929286 -1.858205
 17
 113.101491
  C -1.033224 0.052288 0.645192
  C 3.279617 0.328729 0.388000
  H 2.696245 0.713518 1.182245
  C 3.891698 -0.134459 -0.620271
  C 5.233792 -0.411472 -1.024091
  C 5.570519 -0.934522 -2.226684
  C 4.623553 -1.310199 -3.313655
  H 3.586934 -1.091764 -3.075943
  O 6.838747 -1.169708 -2.558253
  H -1.174511 0.518648 1.597781
  H -0.796682 -0.991401 0.590575
  H -1.164133 0.622559 -0.249264
  H 3.159037 -0.390548 -1.413288
  H 5.994505 -0.171690 -0.297745
  H 4.726555 -2.373948 -3.521475
  H 4.901635 -0.781024 -4.223164
  H 7.472024 -0.926330 -1.863848
