17

C 0.957269 -0.01671 -0.005832
C 2.453346 -0.000341 0.011034
C 3.169593 0.811687 0.795786
C 4.607269 0.829112 0.812083
C 5.328063 1.645152 1.601272
C 6.76633 1.660979 1.615966
C 7.484715 2.471215 2.399532
H 8.554274733144437 2.49349619330439 2.4206394787914487
H 0.595089 -0.756263 -0.718625
H 0.562065 0.955064 -0.301687
H 0.561017 -0.274829 0.97602
H 2.953415 -0.690793 -0.655184
H 2.659058 1.497727 1.460215
H 5.111727 0.140599 0.145759
H 4.824075 2.333787 2.267703
H 7.272843 0.973088 0.950245
H 6.986024 3.16189 3.067943
