 17
 0.000000
  H 1.423316 0.186608 0.516157
  C 2.487953 0.131746 0.379446
  H 3.124589 0.455981 1.185439
  C 3.004732 -0.338666 -0.791192
  C 4.389585 -0.416097 -0.984565
  C 5.111097 -0.863204 -2.099824
  C 4.626987 -1.383813 -3.398570
  C 3.143124 -1.503659 -3.697998
  H 3.025107 -1.905384 -4.700109
  O 6.417141 -0.842673 -2.048655
  H 2.327795 -0.650591 -1.567441
  H 4.989501 -0.079084 -0.145460
  H 5.099851 -2.366079 -3.523185
  H 5.100174 -0.759992 -4.167292
  H 2.650717 -0.535639 -3.670116
  H 2.650487 -2.184313 -3.009167
  H 6.806720 -0.509872 -1.215498
 17
 8.474858
  H 1.381882 0.202492 0.555653
  C 2.447867 0.150309 0.425738
  H 3.074991 0.477134 1.238258
  C 2.978470 -0.318897 -0.741899
  C 4.356882 -0.389919 -0.919263
  C 5.159031 -0.888167 -2.162093
  C 4.655622 -1.402886 -3.446117
  C 3.163583 -1.509613 -3.712793
  H 3.019080 -1.910291 -4.712267
  O 6.448988 -0.862741 -2.098732
  H 2.310552 -0.633932 -1.525955
  H 4.959835 -0.055395 -0.086361
  H 5.119735 -2.388362 -3.578682
  H 5.120047 -0.782249 -4.222844
  H 2.680911 -0.537297 -3.674049
  H 2.680710 -2.185817 -3.013165
  H 6.833322 -0.528627 -1.262202
 17
 25.499228
  H 1.342290 0.211286 0.577484
  C 2.411795 0.159837 0.450035
  H 3.024681 0.491060 1.274888
  C 2.962998 -0.306846 -0.712390
  C 4.327885 -0.365971 -0.860214
  C 5.207442 -0.916149 -2.232372
  C 4.673219 -1.419763 -3.488208
  C 3.176395 -1.509403 -3.712125
  H 2.998625 -1.908806 -4.707845
  O 6.470997 -0.866130 -2.107719
  H 2.306392 -0.624513 -1.503936
  H 4.989912 -0.050486 -0.074710
  H 5.126407 -2.408356 -3.633379
  H 5.126669 -0.805960 -4.276423
  H 2.709099 -0.529912 -3.662501
  H 2.708880 -2.182941 -2.999409
  H 6.834668 -0.528992 -1.262361
 17
 45.976574
  H 1.302556 0.228302 0.619935
  C 2.367146 0.180709 0.502048
  H 2.967918 0.513010 1.328873
  C 2.930807 -0.284117 -0.655194
  C 4.293369 -0.337909 -0.790070
  C 5.251969 -0.939587 -2.290669
  C 4.700898 -1.439553 -3.537494
  C 3.194324 -1.517834 -3.733277
  H 2.992753 -1.915184 -4.723990
  O 6.510789 -0.885905 -2.156912
  H 2.281412 -0.604573 -1.453287
  H 4.967612 -0.025476 -0.012617
  H 5.147022 -2.433979 -3.689935
  H 5.147377 -0.826526 -4.335039
  H 2.736596 -0.535654 -3.673521
  H 2.736284 -2.186324 -3.011428
  H 6.872657 -0.548547 -1.311035
 17
 65.910956
  H 1.252946 0.244361 0.659505
  C 2.322915 0.200864 0.552176
  H 2.914888 0.536920 1.387833
  C 2.901704 -0.262666 -0.601205
  C 4.258328 -0.310485 -0.721263
  C 5.294248 -0.963999 -2.351261
  C 4.724936 -1.459465 -3.587089
  C 3.217414 -1.525071 -3.751380
  H 2.990288 -1.920621 -4.737901
  O 6.545466 -0.905390 -2.205519
  H 2.262180 -0.585052 -1.404015
  H 4.947141 -0.003736 0.041976
  H 5.160648 -2.456001 -3.746894
  H 5.160969 -0.849910 -4.391253
  H 2.770504 -0.538290 -3.680349
  H 2.770174 -2.189244 -3.018327
  H 6.904847 -0.567160 -1.357949
 17
 83.646679
  H 1.209693 0.259277 0.696415
  C 2.277575 0.221011 0.602272
  H 2.856025 0.559137 1.442713
  C 2.872572 -0.240596 -0.545855
  C 4.224025 -0.282037 -0.650072
  C 5.336563 -0.987592 -2.409818
  C 4.750197 -1.478889 -3.635439
  C 3.236651 -1.532069 -3.768893
  H 2.983729 -1.925242 -4.749693
  O 6.580885 -0.924802 -2.253905
  H 2.241319 -0.566163 -1.356351
  H 4.929996 0.018689 0.098236
  H 5.176697 -2.479859 -3.802277
  H 5.177109 -0.870908 -4.447697
  H 2.800713 -0.541481 -3.686763
  H 2.800361 -2.191396 -3.025274
  H 6.938555 -0.585936 -1.405268
 17
 98.706817
  H 1.157915 0.273983 0.732700
  C 2.229677 0.241600 0.653477
  H 2.796004 0.583310 1.502838
  C 2.842985 -0.217990 -0.489383
  C 4.189165 -0.253080 -0.577661
  C 5.376547 -1.010967 -2.468142
  C 4.773924 -1.498624 -3.684777
  C 3.258791 -1.538898 -3.785881
  H 2.979631 -1.929584 -4.760526
  O 6.617306 -0.945824 -2.306403
  H 2.222464 -0.545969 -1.305992
  H 4.911963 0.041002 0.154251
  H 5.189807 -2.502363 -3.858252
  H 5.190229 -0.893194 -4.503706
  H 2.834554 -0.544228 -3.692379
  H 2.834299 -2.193435 -3.031181
  H 6.974889 -0.606897 -1.457539
 17
 110.997339
  H 1.109013 0.288529 0.768843
  C 2.180076 0.262906 0.706589
  H 2.731281 0.607050 1.562474
  C 2.812638 -0.193843 -0.429540
  C 4.154739 -0.222615 -0.501952
  C 5.415377 -1.033350 -2.523930
  C 4.798002 -1.518343 -3.733983
  C 3.279278 -1.546281 -3.804128
  H 2.974897 -1.934302 -4.772187
  O 6.654965 -0.967756 -2.361128
  H 2.202072 -0.525031 -1.254519
  H 4.894473 0.064769 0.213948
  H 5.203981 -2.525581 -3.913502
  H 5.204388 -0.914531 -4.559672
  H 2.866330 -0.547855 -3.699889
  H 2.866231 -2.196200 -3.039092
  H 7.013843 -0.628957 -1.512610
 17
 120.611574
  H 1.053693 0.304341 0.808050
  C 2.127982 0.285416 0.762823
  H 2.666063 0.632917 1.627281
  C 2.780118 -0.168384 -0.366176
  C 4.119836 -0.191654 -0.425116
  C 5.451986 -1.055648 -2.579479
  C 4.821747 -1.538663 -3.784644
  C 3.302155 -1.554305 -3.824059
  H 2.973211 -1.939472 -4.785069
  O 6.693938 -0.991710 -2.420909
  H 2.180641 -0.502421 -1.198481
  H 4.873492 0.090107 0.277372
  H 5.217288 -2.548479 -3.969464
  H 5.217699 -0.936639 -4.615944
  H 2.900828 -0.552357 -3.709402
  H 2.900769 -2.199651 -3.049054
  H 7.054816 -0.653195 -1.573048
 17
 127.671596
  H 0.999795 0.322663 0.853406
  C 2.074322 0.309659 0.823446
  H 2.600097 0.659607 1.693739
  C 2.743806 -0.141016 -0.297681
  C 4.084571 -0.160177 -0.347052
  C 5.487698 -1.077524 -2.634051
  C 4.846710 -1.559387 -3.836333
  C 3.325326 -1.563593 -3.847215
  H 2.973444 -1.945987 -4.801298
  O 6.733771 -1.017188 -2.484520
  H 2.153869 -0.478407 -1.138226
  H 4.847311 0.118023 0.347070
  H 5.232559 -2.571963 -4.025533
  H 5.232981 -0.958430 -4.672753
  H 2.934945 -0.558348 -3.722964
  H 2.934903 -2.204672 -3.063030
  H 7.097268 -0.678910 -1.636913
 17
 132.717085
  H 0.943837 0.342844 0.904742
  C 2.020089 0.335190 0.887616
  H 2.536280 0.688096 1.763791
  C 2.704781 -0.112629 -0.226216
  C 4.047193 -0.128260 -0.268907
  C 5.522204 -1.099092 -2.687902
  C 4.871538 -1.580093 -3.888003
  C 3.349846 -1.573792 -3.873105
  H 2.977344 -1.953432 -4.820278
  O 6.772921 -1.044022 -2.551048
  H 2.124685 -0.453138 -1.073053
  H 4.814307 0.148462 0.420925
  H 5.248022 -2.594970 -4.080721
  H 5.248624 -0.980089 -4.728643
  H 2.969834 -0.565804 -3.740356
  H 2.969594 -2.210859 -3.080840
  H 7.140774 -0.706851 -1.704795
 17
 136.242850
  H 0.890613 0.365941 0.961794
  C 1.966734 0.362237 0.955223
  H 2.474581 0.717407 1.835061
  C 2.663664 -0.083271 -0.151553
  C 4.008338 -0.096358 -0.189718
  C 5.555614 -1.120294 -2.740606
  C 4.896274 -1.600511 -3.939034
  C 3.374016 -1.585403 -3.902304
  H 2.983956 -1.962538 -4.843479
  O 6.810027 -1.070722 -2.617503
  H 2.091787 -0.426735 -1.004580
  H 4.777676 0.179920 0.498726
  H 5.264665 -2.617517 -4.134597
  H 5.265303 -1.000878 -4.783137
  H 3.002820 -0.575004 -3.762264
  H 3.002515 -2.219257 -3.103254
  H 7.182435 -0.734184 -1.772179
 17
 138.716210
  H 0.838089 0.393257 1.025150
  C 1.914992 0.391370 1.027066
  H 2.416866 0.748585 1.910333
  C 2.621429 -0.053029 -0.073788
  C 3.967807 -0.065049 -0.109345
  C 5.586802 -1.141303 -2.792752
  C 4.920382 -1.620708 -3.989806
  C 3.398325 -1.599077 -3.935928
  H 2.994636 -1.973959 -4.872094
  O 6.843988 -1.096037 -2.681590
  H 2.056682 -0.398157 -0.931480
  H 4.738475 0.210404 0.578864
  H 5.282350 -2.639192 -4.187577
  H 5.282628 -1.020944 -4.836273
  H 3.034042 -0.587140 -3.789944
  H 3.034059 -2.230577 -3.131831
  H 7.218329 -0.759330 -1.837039
 17
 140.394666
  H 0.787070 0.422616 1.092377
  C 1.863829 0.421374 1.101030
  H 2.360970 0.780453 1.986224
  C 2.577415 -0.022554 0.005530
  C 3.925701 -0.033480 -0.028448
  C 5.617355 -1.161729 -2.843922
  C 4.943652 -1.640126 -4.039098
  C 3.421671 -1.612859 -3.969997
  H 3.005952 -1.985726 -4.901715
  O 6.877081 -1.121226 -2.745691
  H 2.018554 -0.369318 -0.856206
  H 4.695631 0.241468 0.660913
  H 5.299811 -2.659994 -4.238871
  H 5.299667 -1.040071 -4.887700
  H 3.063324 -0.599477 -3.818745
  H 3.063816 -2.242511 -3.161442
  H 7.255909 -0.785042 -1.902803
