 29
 0.000000
  C 0.971117 0.140459 0.401916
  C 2.449616 0.138873 0.397136
  C 3.235187 0.608116 1.564143
  C 2.458850 1.097975 2.783315
  C 3.410466 1.542738 3.889512
  C 3.059756 -0.326450 -0.761064
  C 4.437323 -0.411908 -0.974495
  C 5.117690 -0.862534 -2.098154
  C 4.625328 -1.385184 -3.401597
  C 3.135772 -1.502923 -3.696099
  H 2.981587 -1.900426 -4.687478
  O 6.440202 -0.856731 -2.083846
  H 0.525682 0.509479 1.320237
  H 0.602687 -0.872331 0.233260
  H 0.602215 0.754619 -0.420681
  H 3.891169 1.420124 1.230489
  H 3.891523 -0.208670 1.885164
  H 1.821317 0.301186 3.170973
  H 1.821023 1.941236 2.511840
  H 4.046415 0.720976 4.211776
  H 2.847004 1.889414 4.752426
  H 4.046099 2.359163 3.553359
  H 2.399666 -0.643550 -1.550047
  H 5.055160 -0.080054 -0.148095
  H 5.082577 -2.373237 -3.526550
  H 5.082994 -0.757508 -4.174599
  H 2.659504 -0.525082 -3.645203
  H 2.659090 -2.174487 -2.983788
  H 6.813132 -0.521748 -1.246997
 29
 4.099884
  C 0.952810 0.127312 0.368951
  C 2.399107 0.132149 0.380531
  C 3.199719 0.598980 1.541537
  C 2.455402 1.096507 2.779185
  C 3.445521 1.529179 3.855991
  C 3.034443 -0.329487 -0.768020
  C 4.401083 -0.404414 -0.955585
  C 5.101827 -0.848567 -2.063682
  C 4.628712 -1.373700 -3.373451
  C 3.144960 -1.496406 -3.679381
  H 3.027931 -1.898643 -4.682874
  O 6.421319 -0.833920 -2.027989
  H 0.737950 0.511260 1.323992
  H 0.537632 -0.874534 0.226577
  H 0.537318 0.751633 -0.427242
  H 3.857299 1.405138 1.197872
  H 3.857351 -0.220728 1.851434
  H 1.821735 0.306311 3.187448
  H 1.821865 1.949536 2.526934
  H 4.080219 0.699069 4.157875
  H 2.915236 1.883096 4.736486
  H 4.080471 2.337144 3.499506
  H 2.387020 -0.649167 -1.563055
  H 5.017199 -0.072493 -0.129655
  H 5.099602 -2.356120 -3.490413
  H 5.099588 -0.744237 -4.136713
  H 2.654721 -0.527489 -3.648924
  H 2.654890 -2.176121 -2.988133
  H 6.799566 -0.500403 -1.193921
 29
 12.775122
  C 0.899102 0.127717 0.365938
  C 2.349145 0.131857 0.378164
  C 3.156518 0.600519 1.545901
  C 2.443712 1.103694 2.797149
  C 3.468771 1.523636 3.845817
  C 3.010693 -0.327296 -0.763905
  C 4.382883 -0.398373 -0.942772
  C 5.105512 -0.847218 -2.063147
  C 4.645069 -1.377459 -3.382883
  C 3.166978 -1.510805 -3.709624
  H 3.077446 -1.917632 -4.722985
  O 6.445224 -0.827268 -2.017288
  H 0.914199 0.522554 1.348958
  H 0.453270 -0.876613 0.264732
  H 0.454358 0.783463 -0.401991
  H 3.817913 1.400903 1.195864
  H 3.816780 -0.220490 1.847111
  H 1.815099 0.320220 3.228590
  H 1.816836 1.969182 2.566436
  H 4.101252 0.685397 4.129812
  H 2.967416 1.883543 4.740559
  H 4.103253 2.324132 3.471683
  H 2.372895 -0.648776 -1.563428
  H 5.000220 -0.065262 -0.115690
  H 5.126657 -2.355629 -3.493361
  H 5.124354 -0.746134 -4.139483
  H 2.667168 -0.548716 -3.699122
  H 2.669738 -2.200040 -3.036348
  H 6.826471 -0.492324 -1.179467
 29
 25.878376
  C 0.862556 0.118199 0.339556
  C 2.336408 0.125150 0.359931
  C 3.146609 0.595773 1.533988
  C 2.442616 1.100507 2.790175
  C 3.478454 1.516678 3.830829
  C 3.030410 -0.334103 -0.782587
  C 4.387739 -0.399385 -0.947184
  C 5.102789 -0.839649 -2.045541
  C 4.643601 -1.369391 -3.361818
  C 3.164819 -1.501884 -3.684291
  H 3.072320 -1.908937 -4.696070
  O 6.435505 -0.817201 -1.994636
  H 1.064179 0.505893 1.306073
  H 0.410190 -0.865960 0.269802
  H 0.411800 0.781973 -0.391395
  H 3.807473 1.394653 1.182898
  H 3.806088 -0.225251 1.832898
  H 1.814645 0.319477 3.228578
  H 1.816585 1.969343 2.566759
  H 4.110509 0.675880 4.109485
  H 2.985111 1.878063 4.730010
  H 4.112676 2.315480 3.451673
  H 2.404825 -0.659587 -1.592267
  H 4.999273 -0.066375 -0.120963
  H 5.125570 -2.347777 -3.472042
  H 5.122582 -0.738141 -4.119187
  H 2.665791 -0.539872 -3.673929
  H 2.668982 -2.190614 -3.009948
  H 6.813244 -0.481123 -1.156129
 29
 39.818151
  C 0.831292 0.125170 0.354342
  C 2.317991 0.132443 0.377534
  C 3.141218 0.597825 1.539818
  C 2.444757 1.102709 2.795835
  C 3.484341 1.516209 3.831598
  C 3.011494 -0.327153 -0.765482
  C 4.377137 -0.394916 -0.936862
  C 5.103090 -0.840603 -2.049178
  C 4.659701 -1.373557 -3.371992
  C 3.188245 -1.516834 -3.718316
  H 3.115189 -1.924494 -4.730655
  O 6.412864 -0.815419 -1.993340
  H 1.172695 0.495693 1.279690
  H 0.377945 -0.851497 0.308654
  H 0.380263 0.801158 -0.353628
  H 3.800530 1.393411 1.184261
  H 3.798424 -0.224440 1.833229
  H 1.815726 0.322997 3.235515
  H 1.818541 1.972141 2.574170
  H 4.115797 0.673775 4.107999
  H 2.994741 1.878492 4.732584
  H 4.118912 2.314104 3.450066
  H 2.387344 -0.649155 -1.566576
  H 4.991602 -0.060191 -0.107426
  H 5.148974 -2.349110 -3.476400
  H 5.144781 -0.739960 -4.123777
  H 2.682231 -0.558409 -3.716638
  H 2.686539 -2.209217 -3.051949
  H 6.776266 -0.484537 -1.168516
 29
 53.069834
  C 0.821682 0.115384 0.328133
  C 2.323276 0.130063 0.372484
  C 3.149067 0.594809 1.533435
  C 2.444617 1.099486 2.787434
  C 3.476505 1.515336 3.830306
  C 3.015968 -0.327673 -0.764875
  C 4.395189 -0.395132 -0.937267
  C 5.112895 -0.840118 -2.049052
  C 4.652080 -1.368880 -3.360636
  C 3.175102 -1.503075 -3.682198
  H 3.081673 -1.912358 -4.697885
  O 6.426705 -0.818605 -2.003988
  H 1.263511 0.474520 1.227601
  H 0.378316 -0.863952 0.290215
  H 0.380719 0.800496 -0.374166
  H 3.808420 1.390999 1.179466
  H 3.805479 -0.227409 1.828741
  H 1.813801 0.319690 3.220991
  H 1.817559 1.965276 2.560908
  H 4.108848 0.673709 4.111742
  H 2.980888 1.875617 4.725341
  H 4.112886 2.315367 3.453138
  H 2.386313 -0.653306 -1.574505
  H 5.011917 -0.061079 -0.110485
  H 5.134365 -2.345639 -3.472804
  H 5.129248 -0.739377 -4.119061
  H 2.675302 -0.542256 -3.671426
  H 2.680520 -2.191103 -3.007227
  H 6.807841 -0.481948 -1.165539
 29
 64.421673
  C 0.815351 0.114356 0.308931
  C 2.336331 0.119408 0.372626
  C 3.165980 0.587261 1.534973
  C 2.445783 1.105871 2.788574
  C 3.468672 1.522966 3.845492
  C 3.014518 -0.345357 -0.760979
  C 4.401225 -0.400047 -0.938920
  C 5.113624 -0.835296 -2.050387
  C 4.649332 -1.365057 -3.364282
  C 3.168682 -1.505077 -3.678769
  H 3.070196 -1.912511 -4.694244
  O 6.432475 -0.810106 -2.009355
  H 1.338135 0.448729 1.184742
  H 0.381315 -0.867874 0.263178
  H 0.377591 0.826845 -0.364097
  H 3.833891 1.381546 1.180136
  H 3.815859 -0.242145 1.837652
  H 1.805254 0.329741 3.217676
  H 1.824538 1.973826 2.550291
  H 4.093043 0.680700 4.137796
  H 2.963638 1.890406 4.735643
  H 4.112420 2.317630 3.473091
  H 2.387443 -0.675466 -1.568070
  H 5.016891 -0.060334 -0.113041
  H 5.135195 -2.340211 -3.479535
  H 5.119696 -0.730270 -4.123203
  H 2.664823 -0.546135 -3.662080
  H 2.680755 -2.195875 -3.001484
  H 6.810565 -0.475978 -1.177647
 29
 71.438359
  C 0.823633 0.124160 0.295482
  C 2.367757 0.104634 0.390804
  C 3.202363 0.583049 1.560226
  C 2.457144 1.119055 2.777823
  C 3.443650 1.530138 3.853368
  C 3.012701 -0.382190 -0.734020
  C 4.405411 -0.412845 -0.938999
  C 5.101686 -0.828834 -2.054840
  C 4.639126 -1.359943 -3.377500
  C 3.163656 -1.517707 -3.693879
  H 3.074071 -1.912195 -4.698442
  O 6.423702 -0.794628 -2.025114
  H 1.410578 0.423707 1.163267
  H 0.412829 -0.865078 0.197732
  H 0.363110 0.883785 -0.304464
  H 3.885207 1.363278 1.221575
  H 3.826206 -0.253863 1.875272
  H 1.799447 0.357197 3.189099
  H 1.857460 1.985377 2.516656
  H 4.048428 0.684481 4.169063
  H 2.918914 1.907838 4.720102
  H 4.105410 2.313486 3.494664
  H 2.380078 -0.727871 -1.527002
  H 5.023974 -0.058685 -0.129540
  H 5.135159 -2.326390 -3.500559
  H 5.101002 -0.712189 -4.131642
  H 2.646382 -0.563430 -3.669638
  H 2.683287 -2.224879 -3.023164
  H 6.805092 -0.453664 -1.185206
 29
 75.695658
  C 0.827410 0.118587 0.250732
  C 2.394220 0.090353 0.392607
  C 3.228007 0.577603 1.566049
  C 2.457017 1.126215 2.781120
  C 3.433937 1.546706 3.884124
  C 3.020565 -0.401651 -0.733518
  C 4.412107 -0.422033 -0.941374
  C 5.103468 -0.828511 -2.064941
  C 4.634798 -1.354819 -3.378982
  C 3.153452 -1.520618 -3.677166
  H 3.051631 -1.916509 -4.693798
  O 6.430689 -0.788600 -2.051672
  H 1.460004 0.377220 1.131261
  H 0.432732 -0.866254 0.085973
  H 0.350536 0.929534 -0.262561
  H 3.916460 1.359654 1.227007
  H 3.846565 -0.265249 1.892022
  H 1.786890 0.363026 3.188784
  H 1.858989 1.996647 2.500158
  H 4.034970 0.699079 4.217266
  H 2.891836 1.932505 4.745074
  H 4.106751 2.330250 3.531861
  H 2.382890 -0.754604 -1.534554
  H 5.029805 -0.067501 -0.126472
  H 5.137122 -2.318090 -3.509373
  H 5.081456 -0.700249 -4.134070
  H 2.629208 -0.568691 -3.642894
  H 2.687954 -2.234181 -3.001383
  H 6.811117 -0.455594 -1.225053
 29
 78.700786
  C 0.825407 0.124592 0.227932
  C 2.406010 0.083528 0.408273
  C 3.244283 0.575071 1.577315
  C 2.467662 1.125488 2.776004
  C 3.432306 1.549657 3.879976
  C 3.017578 -0.411758 -0.722182
  C 4.411421 -0.428139 -0.939341
  C 5.095253 -0.824255 -2.060988
  C 4.630845 -1.350485 -3.377845
  C 3.148767 -1.533049 -3.679654
  H 3.054092 -1.924973 -4.696518
  O 6.424975 -0.773799 -2.054300
  H 1.494526 0.331775 1.118440
  H 0.435467 -0.848875 0.006372
  H 0.352751 0.983156 -0.204348
  H 3.932909 1.358512 1.234891
  H 3.859572 -0.269217 1.911060
  H 1.792540 0.361759 3.181366
  H 1.870403 1.996138 2.482098
  H 4.026814 0.709100 4.218781
  H 2.881682 1.941209 4.737967
  H 4.104026 2.325590 3.530845
  H 2.386406 -0.761970 -1.508057
  H 5.032361 -0.073684 -0.123543
  H 5.145452 -2.309821 -3.510151
  H 5.071387 -0.684506 -4.131283
  H 2.614516 -0.590242 -3.642940
  H 2.691795 -2.253668 -3.009880
  H 6.808246 -0.438910 -1.220043
 29
 80.969375
  C 0.824811 0.124733 0.197709
  C 2.415747 0.073397 0.415528
  C 3.256523 0.574014 1.583763
  C 2.470954 1.127365 2.779805
  C 3.426848 1.560173 3.885124
  C 3.023668 -0.417823 -0.716318
  C 4.418096 -0.433919 -0.933944
  C 5.098478 -0.824078 -2.058885
  C 4.627875 -1.348383 -3.379920
  C 3.145975 -1.536306 -3.672819
  H 3.047040 -1.924485 -4.689123
  O 6.430405 -0.767334 -2.058443
  H 1.524253 0.278474 1.106023
  H 0.438204 -0.835540 -0.078609
  H 0.358113 1.021661 -0.151336
  H 3.939352 1.359042 1.237034
  H 3.872418 -0.268018 1.921657
  H 1.799844 0.366667 3.182821
  H 1.875002 1.988587 2.479958
  H 4.024865 0.721451 4.231390
  H 2.873347 1.951362 4.734348
  H 4.098893 2.339206 3.534460
  H 2.385114 -0.772415 -1.514957
  H 5.038213 -0.087985 -0.121222
  H 5.144649 -2.302528 -3.518620
  H 5.060252 -0.677898 -4.132890
  H 2.607044 -0.594004 -3.629576
  H 2.695233 -2.263414 -3.000772
  H 6.811799 -0.438884 -1.231229
 29
 82.783898
  C 0.820391 0.128337 0.182262
  C 2.417820 0.057587 0.422370
  C 3.263084 0.571252 1.591518
  C 2.476738 1.128108 2.776585
  C 3.431762 1.572461 3.883479
  C 3.025499 -0.432349 -0.711677
  C 4.416515 -0.444319 -0.929544
  C 5.098257 -0.826087 -2.059121
  C 4.630630 -1.344086 -3.383544
  C 3.147545 -1.538209 -3.679069
  H 3.050932 -1.920948 -4.700328
  O 6.425094 -0.763470 -2.059577
  H 1.549588 0.224176 1.098908
  H 0.428848 -0.812808 -0.139923
  H 0.357841 1.053834 -0.085425
  H 3.943264 1.358009 1.238267
  H 3.879241 -0.267741 1.935379
  H 1.803128 0.365148 3.184790
  H 1.876312 1.989778 2.466176
  H 4.031107 0.738177 4.236575
  H 2.872342 1.970636 4.733777
  H 4.102286 2.350159 3.528442
  H 2.392211 -0.783920 -1.505415
  H 5.038796 -0.104685 -0.112822
  H 5.153035 -2.296104 -3.528002
  H 5.060181 -0.666375 -4.132489
  H 2.602635 -0.597340 -3.630216
  H 2.699503 -2.273479 -3.011406
  H 6.808678 -0.435839 -1.221840
 29
 84.001197
  C 0.835579 0.145867 0.153593
  C 2.433748 0.046436 0.423503
  C 3.271825 0.564494 1.595842
  C 2.475171 1.125226 2.767785
  C 3.414424 1.572708 3.876078
  C 3.044640 -0.444349 -0.708349
  C 4.437914 -0.451229 -0.925795
  C 5.113862 -0.827844 -2.060248
  C 4.626430 -1.342073 -3.382076
  C 3.134059 -1.535688 -3.645173
  H 3.013115 -1.914221 -4.663879
  O 6.443937 -0.753390 -2.076721
  H 1.583954 0.175095 1.086589
  H 0.434396 -0.773611 -0.219249
  H 0.376823 1.090357 -0.035459
  H 3.953915 1.350092 1.244695
  H 3.883376 -0.274662 1.947658
  H 1.799610 0.367888 3.171586
  H 1.880849 1.981378 2.448197
  H 4.008746 0.741616 4.238010
  H 2.848475 1.973734 4.715597
  H 4.087165 2.346811 3.523864
  H 2.410656 -0.807592 -1.502634
  H 5.059593 -0.094500 -0.118522
  H 5.146913 -2.293630 -3.540522
  H 5.041903 -0.659621 -4.138167
  H 2.590117 -0.593740 -3.579823
  H 2.700075 -2.274447 -2.967725
  H 6.830258 -0.422063 -1.251642
 29
 84.821672
  C 0.829040 0.169316 0.142645
  C 2.432166 0.040891 0.428633
  C 3.276974 0.563318 1.602458
  C 2.479580 1.129771 2.780705
  C 3.421558 1.580883 3.888146
  C 3.036195 -0.452137 -0.708180
  C 4.424327 -0.456223 -0.929634
  C 5.104626 -0.830700 -2.063929
  C 4.632412 -1.345791 -3.386396
  C 3.147061 -1.551922 -3.668578
  H 3.044524 -1.928682 -4.683687
  O 6.431519 -0.745574 -2.078003
  H 1.601025 0.129881 1.087551
  H 0.417401 -0.725680 -0.270557
  H 0.370002 1.126428 0.029863
  H 3.954393 1.342931 1.249543
  H 3.884998 -0.270887 1.950734
  H 1.804229 0.374704 3.188560
  H 1.884320 1.986111 2.459755
  H 4.018197 0.747833 4.253108
  H 2.856942 1.984184 4.726842
  H 4.095857 2.356458 3.531899
  H 2.397608 -0.829458 -1.493128
  H 5.044741 -0.079134 -0.128261
  H 5.163544 -2.295161 -3.539830
  H 5.049501 -0.659858 -4.134446
  H 2.592652 -0.613372 -3.610351
  H 2.711331 -2.295693 -2.998330
  H 6.815544 -0.405359 -1.249442
