 17
 0.000000
  C 1.007904 -0.071527 0.047641
  C 2.503922 -0.082484 0.026131
  C 3.220076 -0.594726 -0.979485
  C 4.656990 -0.605920 -1.001459
  C 5.378113 -1.121139 -2.012919
  C 6.815798 -1.131208 -2.032683
  C 7.531285 -1.642254 -3.035959
  H 8.603375 -1.654894 -3.060772
  H 0.644506 0.394259 0.962050
  H 0.612885 -1.086142 0.007503
  H 0.612886 0.492559 -0.796671
  H 3.004350 0.352751 0.880571
  H 2.709550 -1.028137 -1.830335
  H 5.161457 -0.171141 -0.147919
  H 4.874292 -1.555978 -2.866581
  H 7.321486 -0.695411 -1.177140
  H 7.035437 -2.079540 -3.894414
 17
 8.579324
  C 1.007032 -0.065066 0.044663
  C 2.499163 -0.069461 0.021513
  C 3.227972 -0.596413 -0.969100
  C 4.659057 -0.603955 -0.992430
  C 5.390528 -1.137513 -1.990732
  C 6.813667 -1.166794 -2.013401
  C 7.529115 -1.642581 -3.051616
  H 8.593522 -1.711252 -3.005141
  H 0.616723 0.393439 0.944455
  H 0.636004 -1.089780 -0.009522
  H 0.611159 0.438543 -0.836645
  H 3.004662 0.383272 0.864089
  H 2.726765 -1.052042 -1.813026
  H 5.167646 -0.145516 -0.152345
  H 4.883362 -1.589307 -2.833155
  H 7.479602 -0.767484 -1.282552
  H 6.848634 -1.858941 -3.837333
 17
 31.616224
  C 0.999016 -0.071827 0.024120
  C 2.491206 -0.066444 0.020479
  C 3.237582 -0.593892 -0.957127
  C 4.669990 -0.601073 -0.967834
  C 5.410925 -1.136985 -1.956392
  C 6.828071 -1.173822 -1.990384
  C 7.517104 -1.653930 -3.080555
  H 8.573908 -1.698052 -3.039776
  H 0.594719 0.393613 0.915789
  H 0.634289 -1.100202 -0.030952
  H 0.612438 0.423794 -0.866239
  H 2.986182 0.389243 0.869102
  H 2.741955 -1.048194 -1.805984
  H 5.179420 -0.140983 -0.131131
  H 4.899091 -1.601362 -2.794366
  H 7.639666 -0.861225 -1.406874
  H 6.684788 -1.737439 -3.710102
 17
 38.702010
  C 1.010634 -0.063453 0.045424
  C 2.504594 -0.080070 0.031673
  C 3.235719 -0.632609 -0.938429
  C 4.677599 -0.602312 -0.961601
  C 5.373224 -1.167116 -1.975601
  C 6.783236 -1.209368 -2.023754
  C 7.509348 -1.706002 -3.083746
  H 8.573056 -1.748738 -2.985154
  H 0.598321 0.386472 0.923698
  H 0.645775 -1.071378 -0.080813
  H 0.650676 0.442678 -0.845332
  H 3.040732 0.379079 0.856782
  H 2.779716 -1.095077 -1.802544
  H 5.191928 -0.122834 -0.156618
  H 4.827575 -1.668519 -2.761800
  H 7.523179 -0.806116 -1.362606
  H 6.778404 -1.512088 -3.785242
 17
 44.694058
  C 0.991434 -0.074637 0.025317
  C 2.485558 -0.099934 0.066057
  C 3.242110 -0.712664 -0.854089
  C 4.655543 -0.624202 -0.948843
  C 5.379463 -1.114732 -1.967921
  C 6.790032 -1.258531 -2.024659
  C 7.465716 -1.747860 -3.169543
  H 8.525554 -1.833222 -3.052662
  H 0.579440 0.506311 0.841200
  H 0.584054 -1.087250 0.006388
  H 0.662334 0.379505 -0.926063
  H 2.971797 0.456513 0.858365
  H 2.716345 -1.178658 -1.678563
  H 5.210452 -0.162685 -0.125224
  H 4.861312 -1.626958 -2.779835
  H 7.548859 -1.014589 -1.341306
  H 7.037576 -1.082702 -3.832332
 17
 54.809446
  C 1.022085 -0.038718 0.056586
  C 2.515375 -0.124078 0.033351
  C 3.215323 -0.709906 -0.945470
  C 4.638229 -0.689596 -1.015638
  C 5.354802 -1.194095 -2.048611
  C 6.770988 -1.169738 -2.124596
  C 7.464361 -1.815439 -3.124606
  H 8.538636 -1.847395 -2.912952
  H 0.663972 0.450697 0.953646
  H 0.595606 -1.048067 0.059096
  H 0.639060 0.474331 -0.835521
  H 3.042682 0.324221 0.866587
  H 2.687571 -1.140367 -1.806214
  H 5.165572 -0.188773 -0.200607
  H 4.858521 -1.680438 -2.873362
  H 7.283954 -0.837617 -1.233871
  H 7.256128 -1.028225 -3.743749
 17
 79.310145
  C 1.030607 -0.101631 0.085344
  C 2.517543 -0.062177 -0.015335
  C 3.214721 -0.579619 -1.030036
  C 4.648981 -0.606495 -1.093903
  C 5.355137 -1.170054 -2.094669
  C 6.801353 -1.197332 -2.144026
  C 7.453404 -1.997883 -3.107304
  H 8.543017 -2.036097 -2.916866
  H 0.685878 0.312429 1.033138
  H 0.667888 -1.126171 -0.007680
  H 0.584043 0.470122 -0.725164
  H 3.055955 0.371634 0.810407
  H 2.698591 -1.038169 -1.861318
  H 5.174518 -0.190455 -0.239685
  H 4.834391 -1.619619 -2.924882
  H 7.260040 -0.820885 -1.237066
  H 7.201166 -0.832691 -3.394651
 17
 79.321892
  C 1.043215 -0.064737 0.080287
  C 2.536072 -0.079874 -0.007886
  C 3.215990 -0.628235 -1.016955
  C 4.652012 -0.634687 -1.104579
  C 5.336133 -1.186311 -2.111461
  C 6.807262 -1.232904 -2.171751
  C 7.468582 -1.988428 -3.191967
  H 8.551431 -2.038674 -2.980929
  H 0.706966 0.406354 1.001404
  H 0.650868 -1.076879 0.040118
  H 0.616921 0.477212 -0.766389
  H 3.075119 0.376096 0.810408
  H 2.680985 -1.110071 -1.825236
  H 5.185858 -0.158304 -0.289703
  H 4.826398 -1.687172 -2.924510
  H 7.301765 -0.941939 -1.232106
  H 7.125483 -0.493543 -3.011617
 17
 79.532268
  C 1.052288 -0.056338 0.088154
  C 2.543469 -0.052899 -0.013605
  C 3.221465 -0.633311 -1.003729
  C 4.659694 -0.625219 -1.103601
  C 5.343799 -1.207733 -2.102867
  C 6.814743 -1.210279 -2.196770
  C 7.423297 -1.979595 -3.246610
  H 8.512877 -2.023650 -3.052305
  H 0.718137 0.440583 1.000247
  H 0.671618 -1.071998 0.089112
  H 0.608462 0.459156 -0.767319
  H 3.083617 0.461923 0.769921
  H 2.686765 -1.149387 -1.792947
  H 5.192750 -0.118040 -0.301833
  H 4.828371 -1.723917 -2.897973
  H 7.302710 -1.107572 -1.217962
  H 7.149979 -0.288322 -2.733470
