 26
 0.000000
  C 1.001973 0.147796 0.418977
  C 2.477150 0.138620 0.395585
  C 3.244615 0.607663 1.562430
  H 2.627928 0.939434 2.388551
  C 3.082686 -0.328050 -0.765932
  C 4.457425 -0.414825 -0.982476
  C 5.125831 -0.869278 -2.115496
  C 4.613007 -1.389668 -3.412589
  C 3.121149 -1.504695 -3.700224
  C 2.903875 -2.067404 -5.102783
  O 6.445874 -0.870420 -2.118809
  H 0.598581 0.523566 1.354396
  H 0.617940 -0.859920 0.255763
  H 0.617547 0.762377 -0.395980
  H 3.898331 1.429551 1.263838
  H 3.898762 -0.191960 1.915444
  H 2.417477 -0.643469 -1.550780
  H 5.089405 -0.086802 -0.165568
  H 5.068922 -2.378180 -3.541386
  H 5.069429 -0.764664 -4.188933
  H 2.647010 -0.524124 -3.648447
  H 2.646548 -2.177293 -2.985126
  H 3.345782 -1.419719 -5.856285
  H 1.840664 -2.151398 -5.312869
  H 3.345392 -3.056501 -5.199547
  H 6.846845 -0.539524 -1.293129
 26
 0.082359
  C 1.011795 -0.082199 0.537589
  C 2.475457 0.031988 0.397093
  C 3.231392 0.878343 1.340313
  H 2.582037 1.323299 2.087568
  C 3.082864 -0.629446 -0.662666
  C 4.456293 -0.632559 -0.902302
  C 5.139599 -1.089318 -2.025679
  C 4.623149 -1.498254 -3.360661
  C 3.130585 -1.518581 -3.663442
  C 2.906817 -1.844217 -5.138233
  O 6.458236 -1.138272 -2.003860
  H 0.641324 0.416970 1.427066
  H 0.709719 -1.129807 0.556666
  H 0.519412 0.350864 -0.335166
  H 3.749392 1.676629 0.808321
  H 3.999105 0.294676 1.849294
  H 2.435185 -1.180261 -1.322699
  H 5.083083 -0.234723 -0.112850
  H 5.046653 -2.486900 -3.571168
  H 5.116001 -0.831548 -4.078995
  H 2.688269 -0.545127 -3.450882
  H 2.631935 -2.283365 -3.067991
  H 3.372939 -1.098060 -5.777405
  H 1.843852 -1.864350 -5.364005
  H 3.323175 -2.816892 -5.389561
  H 6.865520 -0.868467 -1.158305
 26
 1.983810
  C 1.034162 -0.253367 0.521174
  C 2.481359 -0.047765 0.323545
  C 3.147322 1.097873 0.975048
  H 2.462044 1.654757 1.605798
  C 3.159611 -0.885502 -0.542610
  C 4.534265 -0.814368 -0.802512
  C 5.200339 -1.213652 -1.952359
  C 4.634700 -1.486838 -3.301572
  C 3.134498 -1.400706 -3.549009
  C 2.844103 -1.551481 -5.040023
  O 6.512978 -1.329533 -1.956165
  H 0.633844 0.375061 1.310142
  H 0.816876 -1.299328 0.736367
  H 0.499902 -0.020984 -0.402421
  H 3.562658 1.776497 0.230171
  H 3.985255 0.755542 1.583063
  H 2.581405 -1.643689 -1.046285
  H 5.156303 -0.412560 -0.010025
  H 4.999652 -2.472875 -3.610157
  H 5.144511 -0.786357 -3.974716
  H 2.751426 -0.437545 -3.209974
  H 2.613823 -2.197837 -3.020814
  H 3.328184 -0.764552 -5.613745
  H 1.774676 -1.493966 -5.225035
  H 3.199191 -2.510544 -5.409643
  H 6.945272 -1.125208 -1.106102
 26
 6.280773
  C 1.053616 -0.378032 0.450327
  C 2.485065 -0.112448 0.205696
  C 3.048023 1.209521 0.555227
  H 2.312350 1.846406 1.035409
  C 3.247166 -1.058969 -0.433341
  C 4.627943 -0.944195 -0.711734
  C 5.266079 -1.257863 -1.896710
  C 4.641919 -1.405507 -3.239711
  C 3.138504 -1.222866 -3.399913
  C 2.759374 -1.275952 -4.877521
  O 6.571206 -1.440595 -1.943291
  H 0.618385 0.342282 1.135930
  H 0.899957 -1.388713 0.825199
  H 0.503690 -0.313366 -0.491031
  H 3.422293 1.720330 -0.331324
  H 3.901983 1.087035 1.222223
  H 2.752177 -1.965283 -0.755459
  H 5.257589 -0.607784 0.106392
  H 4.935214 -2.388002 -3.626324
  H 5.163133 -0.691202 -3.888444
  H 2.830376 -0.260213 -2.989847
  H 2.600469 -2.012928 -2.880858
  H 3.255214 -0.485749 -5.436603
  H 1.686486 -1.151726 -4.998091
  H 3.039793 -2.230770 -5.315613
  H 7.035461 -1.300452 -1.097491
 26
 11.927696
  C 1.061152 -0.457732 0.397272
  C 2.483913 -0.186110 0.104296
  C 2.999375 1.197896 0.228130
  H 2.227844 1.887124 0.555018
  C 3.286084 -1.188085 -0.358486
  C 4.686080 -1.094963 -0.634694
  C 5.312517 -1.269980 -1.846186
  C 4.657288 -1.310796 -3.183401
  C 3.151250 -1.106245 -3.276157
  C 2.703411 -1.134616 -4.735154
  O 6.619311 -1.441687 -1.931063
  H 0.630644 0.309575 1.033957
  H 0.927151 -1.437155 0.851608
  H 0.492126 -0.461767 -0.535025
  H 3.408847 1.553039 -0.716235
  H 3.822002 1.218252 0.944136
  H 2.842953 -2.168511 -0.500196
  H 5.320432 -0.929960 0.232116
  H 4.921673 -2.273390 -3.635556
  H 5.167216 -0.563341 -3.801733
  H 2.874359 -0.144526 -2.842757
  H 2.627749 -1.893441 -2.738204
  H 3.181112 -0.340409 -5.304269
  H 1.627471 -0.998903 -4.804600
  H 2.954572 -2.085009 -5.199628
  H 7.097539 -1.367938 -1.085218
 26
 17.734380
  C 1.040883 -0.502982 0.326414
  C 2.463135 -0.252621 0.002650
  C 2.969538 1.143177 0.001601
  H 2.178403 1.856264 0.210200
  C 3.289667 -1.284395 -0.313278
  C 4.708115 -1.198442 -0.592143
  C 5.343502 -1.210089 -1.802796
  C 4.691063 -1.196745 -3.142927
  C 3.179536 -1.033717 -3.196632
  C 2.679233 -1.084321 -4.637444
  O 6.662817 -1.320798 -1.884762
  H 0.622592 0.301533 0.923907
  H 0.902168 -1.451265 0.838633
  H 0.464439 -0.553150 -0.599791
  H 3.433428 1.385214 -0.954586
  H 3.748224 1.259479 0.756000
  H 2.904385 -2.297912 -0.244281
  H 5.330777 -1.243344 0.298516
  H 4.980639 -2.127577 -3.645388
  H 5.168592 -0.400692 -3.725714
  H 2.886152 -0.081627 -2.757104
  H 2.700033 -1.837930 -2.634227
  H 3.111329 -0.276640 -5.223077
  H 1.598071 -0.982385 -4.668585
  H 2.943990 -2.027338 -5.109103
  H 7.127120 -1.277198 -1.030712
 26
 16.778911
  C 1.022643 -0.588541 0.253324
  C 2.437783 -0.270865 -0.046733
  C 2.856647 1.151635 -0.121682
  H 2.020907 1.823974 0.042363
  C 3.341611 -1.267261 -0.233602
  C 4.749338 -1.166760 -0.532973
  C 5.370644 -1.184819 -1.755148
  C 4.713118 -1.176207 -3.092459
  C 3.205938 -0.993533 -3.159733
  C 2.724447 -1.013954 -4.607688
  O 6.676462 -1.395172 -1.845918
  H 0.523551 0.238274 0.750301
  H 0.926988 -1.486831 0.858392
  H 0.493280 -0.778587 -0.683109
  H 3.312343 1.365342 -1.088850
  H 3.621952 1.363956 0.624867
  H 3.019908 -2.288472 -0.042831
  H 5.388179 -1.250153 0.343419
  H 4.989879 -2.116083 -3.583635
  H 5.205285 -0.397251 -3.684684
  H 2.913412 -0.048510 -2.707810
  H 2.714134 -1.803454 -2.615763
  H 3.168346 -0.198218 -5.173266
  H 1.644210 -0.904691 -4.650527
  H 2.988982 -1.949656 -5.094465
  H 7.157591 -1.337988 -1.002195
 26
 14.181124
  C 1.031767 -0.635178 0.253771
  C 2.436188 -0.304950 -0.065905
  C 2.829561 1.118534 -0.182404
  H 1.979841 1.780335 -0.052136
  C 3.361908 -1.292205 -0.197524
  C 4.756250 -1.200896 -0.528430
  C 5.365363 -1.134448 -1.754969
  C 4.704332 -1.090427 -3.089657
  C 3.192366 -0.950805 -3.164018
  C 2.727019 -0.951094 -4.617534
  O 6.667946 -1.333609 -1.866061
  H 0.520798 0.197799 0.727366
  H 0.952578 -1.517028 0.884426
  H 0.502446 -0.861881 -0.674586
  H 3.301890 1.311362 -1.145662
  H 3.578230 1.367826 0.569687
  H 3.071344 -2.294705 0.107068
  H 5.408215 -1.405294 0.318076
  H 5.006663 -2.006958 -3.609721
  H 5.178547 -0.280150 -3.654399
  H 2.864207 -0.027508 -2.695052
  H 2.722127 -1.788460 -2.643338
  H 3.150730 -0.108841 -5.159112
  H 1.644206 -0.874556 -4.669470
  H 3.025426 -1.866044 -5.123767
  H 7.158549 -1.294801 -1.028058
 26
 12.066235
  C 1.048172 -0.628021 0.249486
  C 2.444415 -0.298589 -0.089846
  C 2.819201 1.122193 -0.274544
  H 1.956697 1.776416 -0.203235
  C 3.386757 -1.283620 -0.143852
  C 4.761809 -1.224519 -0.516833
  C 5.354006 -1.094689 -1.753092
  C 4.687656 -1.023609 -3.084184
  C 3.172181 -0.945108 -3.171063
  C 2.728000 -0.940104 -4.630163
  O 6.651718 -1.302087 -1.884733
  H 0.529154 0.219099 0.686578
  H 0.978377 -1.484102 0.914654
  H 0.519800 -0.897267 -0.667678
  H 3.324699 1.278686 -1.226147
  H 3.538404 1.417686 0.489720
  H 3.113443 -2.247809 0.276920
  H 5.429935 -1.527999 0.288167
  H 5.021972 -1.916446 -3.625268
  H 5.137143 -0.185307 -3.626301
  H 2.795528 -0.046096 -2.694726
  H 2.733388 -1.810778 -2.670927
  H 3.122355 -0.071958 -5.151573
  H 1.644331 -0.909078 -4.696264
  H 3.071685 -1.832358 -5.147220
  H 7.154951 -1.279174 -1.053591
 26
 12.086045
  C 1.063159 -0.681087 0.261954
  C 2.446334 -0.298712 -0.090121
  C 2.751433 1.131150 -0.324911
  H 1.859951 1.746565 -0.264470
  C 3.439828 -1.241829 -0.063014
  C 4.792350 -1.222621 -0.491080
  C 5.354151 -1.116164 -1.747178
  C 4.681268 -1.017169 -3.074000
  C 3.169627 -0.884368 -3.176926
  C 2.743435 -0.884546 -4.642378
  O 6.633568 -1.425212 -1.908285
  H 0.494034 0.162539 0.641277
  H 1.031051 -1.497608 0.978587
  H 0.558563 -1.034314 -0.640633
  H 3.244507 1.288866 -1.282938
  H 3.464338 1.480403 0.423274
  H 3.205278 -2.166096 0.460634
  H 5.478163 -1.560068 0.282640
  H 4.976148 -1.929500 -3.607252
  H 5.171525 -0.208353 -3.626435
  H 2.817676 0.035612 -2.721128
  H 2.694192 -1.725625 -2.668833
  H 3.172976 -0.036728 -5.170656
  H 1.661717 -0.818380 -4.722338
  H 3.063194 -1.794780 -5.144388
  H 7.157311 -1.436614 -1.087117
