9

H -2.4682655563372338 0.7008454934821529 -0.05550508294447162
C -2.05651 0.58778 -0.023084
C -1.649742 -0.476595 0.647607
C -0.236516 -0.947677 0.808165
H 0.07402887349184517 -0.689379826342113 0.6009641971196088
H -1.347252 1.229346 -0.522911
H -2.387598 -1.101214 1.137999
H -0.003094 -0.999498 1.877677
H -0.172885 -1.969173 0.41845
