 31
 0.000000
  C 0.962126 0.142565 0.405862
  C 2.435608 0.139348 0.397517
  C 3.226914 0.605483 1.557622
  C 2.461204 1.097466 2.782404
  C 3.423977 1.538598 3.880503
  C 3.048624 -0.326194 -0.761608
  C 4.431622 -0.411807 -0.975286
  C 5.097855 -0.859004 -2.090122
  C 4.614910 -1.378465 -3.384958
  C 3.129191 -1.503458 -3.696835
  C 2.925041 -2.067021 -5.101662
  H 6.178099 -0.851818 -2.072572
  H 0.532610 0.513465 1.329070
  H 0.589219 -0.868722 0.237385
  H 0.588953 0.756066 -0.415426
  H 3.884743 1.414128 1.219195
  H 3.884865 -0.212446 1.872658
  H 1.824425 0.302653 3.175289
  H 1.824383 1.943178 2.516302
  H 4.059715 0.714626 4.196954
  H 2.869742 1.887202 4.748448
  H 4.059660 2.352542 3.538985
  H 2.391322 -0.644440 -1.554122
  H 5.054506 -0.081686 -0.153017
  H 5.078121 -2.365971 -3.508329
  H 5.078312 -0.750173 -4.156648
  H 2.648906 -0.525022 -3.649261
  H 2.648757 -2.177650 -2.986261
  H 3.369829 -1.417748 -5.852332
  H 1.863368 -2.154190 -5.319191
  H 3.369731 -3.055150 -5.195445
 31
 -0.233668
  C 0.950536 0.440171 0.305875
  C 2.419746 0.339446 0.315912
  C 3.214180 0.607636 1.532811
  C 2.461038 0.973318 2.807564
  C 3.438255 1.208965 3.955488
  C 3.031609 -0.043057 -0.875753
  C 4.414868 -0.145746 -1.080107
  C 5.068995 -0.599466 -2.200028
  C 4.604474 -1.276550 -3.414550
  C 3.130763 -1.583379 -3.642215
  C 2.948439 -2.415486 -4.909774
  H 6.145401 -0.475855 -2.189087
  H 0.533656 0.757475 1.252258
  H 0.516746 -0.523043 0.032383
  H 0.633460 1.129954 -0.477552
  H 3.922902 1.413991 1.308011
  H 3.838180 -0.269873 1.739062
  H 1.779861 0.168594 3.087911
  H 1.877259 1.882322 2.655092
  H 4.025391 0.315478 4.157898
  H 2.899834 1.469071 4.863903
  H 4.120960 2.024151 3.725511
  H 2.377410 -0.234279 -1.709617
  H 5.054767 0.192955 -0.275824
  H 5.171649 -2.217224 -3.468485
  H 4.993303 -0.705126 -4.268839
  H 2.567291 -0.655928 -3.758262
  H 2.729977 -2.143687 -2.795047
  H 3.325799 -1.886258 -5.781246
  H 1.894629 -2.627767 -5.076276
  H 3.473866 -3.364949 -4.833070
 31
 0.756207
  C 0.985169 0.805859 0.171312
  C 2.432717 0.543088 0.207485
  C 3.202929 0.561446 1.467856
  C 2.443406 0.843181 2.761148
  C 3.397395 0.837516 3.952358
  C 3.051470 0.233873 -1.000202
  C 4.428748 0.092082 -1.199532
  C 5.062176 -0.348213 -2.335368
  C 4.594423 -1.207496 -3.427397
  C 3.146640 -1.680171 -3.476520
  C 2.956199 -2.705809 -4.591335
  H 6.111746 -0.093758 -2.421980
  H 0.562396 1.020126 1.144864
  H 0.462868 -0.048741 -0.263056
  H 0.781131 1.641141 -0.501819
  H 4.002051 1.304846 1.369213
  H 3.720871 -0.398414 1.570174
  H 1.677733 0.082151 2.922759
  H 1.955440 1.819125 2.709292
  H 3.888282 -0.127006 4.054013
  H 2.854975 1.035941 4.872752
  H 4.162171 1.602407 3.842940
  H 2.420643 0.190746 -1.874167
  H 5.079470 0.432576 -0.403643
  H 5.250800 -2.090655 -3.397947
  H 4.860738 -0.728306 -4.378309
  H 2.480222 -0.838064 -3.670243
  H 2.869365 -2.135097 -2.522826
  H 3.212546 -2.281102 -5.558700
  H 1.921138 -3.033824 -4.632602
  H 3.579110 -3.581911 -4.427715
 31
 4.069256
  C 1.063985 1.195189 0.065309
  C 2.455937 0.718571 0.116411
  C 3.173040 0.509419 1.392401
  C 2.406093 0.766330 2.685979
  C 3.306269 0.531225 3.895148
  C 3.082068 0.434386 -1.090910
  C 4.443454 0.193383 -1.276257
  C 5.031284 -0.196077 -2.459180
  C 4.572855 -1.189301 -3.433491
  C 3.194324 -1.817164 -3.263983
  C 2.972384 -2.907854 -4.307265
  H 6.018522 0.197585 -2.672562
  H 0.617720 1.318832 1.043870
  H 0.452588 0.510817 -0.522774
  H 1.028103 2.148788 -0.464049
  H 4.067415 1.144708 1.390260
  H 3.553419 -0.518033 1.409711
  H 1.547173 0.096283 2.753723
  H 2.044625 1.795340 2.713710
  H 3.666808 -0.494723 3.919037
  H 2.759228 0.716206 4.816436
  H 4.165740 1.197454 3.876320
  H 2.498733 0.536894 -1.992734
  H 5.118700 0.471694 -0.474626
  H 5.328853 -1.988138 -3.386848
  H 4.682201 -0.785331 -4.446319
  H 2.416419 -1.065043 -3.382855
  H 3.101950 -2.250300 -2.267025
  H 3.034444 -2.500998 -5.313982
  H 1.989225 -3.355138 -4.185574
  H 3.714392 -3.697739 -4.212050
 31
 9.451970
  C 1.177560 1.449178 -0.041094
  C 2.522969 0.852696 0.039179
  C 3.164778 0.516986 1.332492
  C 2.369437 0.785006 2.607484
  C 3.148668 0.313790 3.831082
  C 3.175445 0.575508 -1.150874
  C 4.508965 0.185002 -1.299185
  C 5.039834 -0.169060 -2.526060
  C 4.536782 -1.206037 -3.430516
  C 3.222615 -1.897688 -3.083445
  C 2.942201 -3.036443 -4.062979
  H 5.942041 0.314693 -2.877270
  H 0.695380 1.547251 0.924978
  H 0.541866 0.863151 -0.707103
  H 1.250563 2.438033 -0.497498
  H 4.111054 1.069666 1.396726
  H 3.446581 -0.539840 1.312884
  H 1.417885 0.251187 2.580909
  H 2.167183 1.849378 2.707581
  H 3.297310 -0.763788 3.806525
  H 2.610065 0.556966 4.739339
  H 4.125026 0.793935 3.880252
  H 2.692145 0.827144 -2.087341
  H 5.209364 0.377957 -0.494681
  H 5.331932 -1.969204 -3.419268
  H 4.529261 -0.847318 -4.466315
  H 2.398457 -1.186458 -3.131793
  H 3.266023 -2.295652 -2.068612
  H 2.841363 -2.659940 -5.078136
  H 2.016165 -3.542042 -3.801101
  H 3.745439 -3.774337 -4.048770
 31
 16.442037
  C 1.332890 1.718440 -0.108860
  C 2.562240 0.912620 0.000186
  C 3.089735 0.435371 1.299992
  C 2.307631 0.800419 2.554470
  C 3.025896 0.282299 3.798073
  C 3.254435 0.624100 -1.164123
  C 4.540197 0.088473 -1.279132
  C 4.982700 -0.169265 -2.575391
  C 4.502181 -1.240625 -3.448472
  C 3.249599 -1.988125 -2.994365
  C 2.944783 -3.147791 -3.933365
  H 5.858670 0.353483 -2.942014
  H 0.807401 1.820245 0.833843
  H 0.664777 1.282597 -0.846134
  H 1.586019 2.718254 -0.471197
  H 4.111140 0.831437 1.413277
  H 3.203277 -0.651658 1.258387
  H 1.305374 0.367515 2.516871
  H 2.214493 1.883871 2.637220
  H 3.104665 -0.804612 3.780830
  H 2.481116 0.562539 4.692689
  H 4.026523 0.699291 3.870458
  H 2.849377 0.918853 -2.126502
  H 5.261569 0.154672 -0.478127
  H 5.342105 -1.950529 -3.496725
  H 4.375314 -0.874075 -4.469432
  H 2.397622 -1.309422 -2.991428
  H 3.387398 -2.363822 -1.979760
  H 2.735713 -2.791136 -4.938290
  H 2.069664 -3.699005 -3.584495
  H 3.779377 -3.839642 -3.981382
 31
 29.048506
  C 1.425890 1.659762 -0.171701
  C 2.589478 0.778669 0.050380
  C 3.050904 0.383342 1.401344
  C 2.321776 0.992920 2.594421
  C 2.971645 0.556772 3.900648
  C 3.348690 0.411338 -1.050960
  C 4.585479 -0.235727 -1.131640
  C 4.878501 -0.237536 -2.511625
  C 4.429490 -1.226859 -3.489698
  C 3.168448 -2.004129 -3.136900
  C 2.971029 -3.180108 -4.088302
  H 5.694270 0.393853 -2.864697
  H 0.786279 1.729029 0.699147
  H 0.835625 1.311580 -1.021260
  H 1.770500 2.664904 -0.419064
  H 4.112202 0.638992 1.481330
  H 3.002375 -0.706925 1.478355
  H 1.275047 0.682470 2.599597
  H 2.358133 2.081279 2.537858
  H 2.959604 -0.526545 3.996826
  H 2.433786 0.977398 4.752681
  H 3.999507 0.896160 3.954278
  H 3.066375 0.732971 -2.057914
  H 5.318004 -0.351356 -0.351369
  H 5.277496 -1.924512 -3.547590
  H 4.347525 -0.790539 -4.492808
  H 2.301856 -1.345948 -3.202098
  H 3.233336 -2.376652 -2.112897
  H 2.906202 -2.836359 -5.122014
  H 2.048945 -3.704507 -3.854292
  H 3.795493 -3.887558 -4.013523
 31
 42.685098
  C 1.557905 1.715314 -0.327298
  C 2.733321 0.881193 -0.045770
  C 3.142502 0.465002 1.329668
  C 2.201721 0.855880 2.461352
  C 2.787556 0.433276 3.805934
  C 3.528779 0.479912 -1.088547
  C 4.770988 -0.214981 -1.118352
  C 4.869848 -0.168477 -2.508177
  C 4.369320 -1.190267 -3.413453
  C 3.240936 -2.076628 -2.867998
  C 2.840885 -3.144590 -3.879212
  H 5.570832 0.530717 -2.970636
  H 0.961504 1.889647 0.560757
  H 0.935617 1.252167 -1.085934
  H 1.868783 2.677253 -0.714817
  H 4.125291 0.889057 1.546626
  H 3.281191 -0.614388 1.331660
  H 1.234426 0.371218 2.330776
  H 2.046959 1.945768 2.468220
  H 2.950371 -0.634311 3.829309
  H 2.110172 0.685902 4.607704
  H 3.734491 0.928569 3.997575
  H 3.283434 0.770838 -2.117956
  H 5.515739 -0.423002 -0.389123
  H 5.264875 -1.809752 -3.592583
  H 4.088564 -0.772160 -4.387987
  H 2.374689 -1.454938 -2.640186
  H 3.561009 -2.563364 -1.941908
  H 2.487919 -2.692188 -4.804967
  H 2.041152 -3.768217 -3.478367
  H 3.678233 -3.788224 -4.113900
 31
 46.901408
  C 1.657716 1.559928 -0.429869
  C 2.835355 0.762131 -0.018427
  C 3.160274 0.413180 1.398519
  C 2.147132 0.864753 2.452922
  C 2.646569 0.518230 3.849774
  C 3.739358 0.320662 -0.943683
  C 4.929224 -0.316197 -1.095499
  C 4.676552 0.010093 -2.504477
  C 4.185306 -1.027935 -3.465444
  C 3.283700 -2.094050 -2.840848
  C 2.902703 -3.154357 -3.865199
  H 5.211796 0.847077 -2.953448
  H 0.970222 1.727903 0.396941
  H 1.111338 1.070444 -1.235919
  H 1.976575 2.535894 -0.806789
  H 4.136977 0.853393 1.643259
  H 3.294934 -0.673796 1.476264
  H 1.188340 0.369664 2.285583
  H 1.995347 1.939980 2.395230
  H 2.806272 -0.552626 3.948218
  H 1.916876 0.817388 4.597265
  H 3.581882 1.026200 4.065128
  H 3.518455 0.607730 -2.065717
  H 5.791612 -0.548666 -0.509963
  H 5.094796 -1.510285 -3.851023
  H 3.689688 -0.570710 -4.321145
  H 2.371094 -1.631113 -2.457499
  H 3.798239 -2.571871 -2.008567
  H 2.370183 -2.713856 -4.703989
  H 2.258594 -3.904695 -3.412735
  H 3.789153 -3.655542 -4.250884
 31
 43.932172
  C 1.808848 1.653168 -0.456085
  C 2.969983 0.846080 -0.009646
  C 3.198188 0.409510 1.410754
  C 2.104309 0.797927 2.397242
  C 2.477289 0.333048 3.800161
  C 3.942884 0.447003 -0.862276
  C 5.083221 -0.115798 -1.245043
  C 4.519577 0.190227 -2.605906
  C 4.096268 -0.989980 -3.467038
  C 3.306043 -2.050775 -2.701121
  C 2.913758 -3.207479 -3.617368
  H 5.033654 0.988873 -3.140858
  H 1.059436 1.741209 0.319280
  H 1.343518 1.215043 -1.340439
  H 2.131225 2.660275 -0.727389
  H 4.149117 0.832133 1.756923
  H 3.327436 -0.678322 1.431476
  H 1.157827 0.334763 2.114696
  H 1.974270 1.875774 2.409840
  H 2.617611 -0.746095 3.827163
  H 1.687186 0.587670 4.504069
  H 3.400755 0.809551 4.137274
  H 3.546253 0.709388 -2.222414
  H 6.039660 -0.384026 -0.872582
  H 5.011842 -1.444225 -3.860724
  H 3.512134 -0.636526 -4.315320
  H 2.399786 -1.610458 -2.281467
  H 3.908767 -2.434726 -1.877420
  H 2.298478 -2.858192 -4.440115
  H 2.349639 -3.954593 -3.067593
  H 3.795133 -3.688429 -4.033075
 31
 34.118160
  C 1.923514 1.876715 -0.321248
  C 3.027158 0.972265 0.077749
  C 3.155488 0.383562 1.458609
  C 2.076218 0.793532 2.456178
  C 2.358409 0.157081 3.811618
  C 3.970221 0.581032 -0.779483
  C 4.976560 0.117222 -1.460907
  C 4.372457 0.245308 -2.846970
  C 4.113611 -1.079288 -3.560240
  C 3.286163 -2.047284 -2.723611
  C 3.037598 -3.348289 -3.474939
  H 4.927690 0.967753 -3.439071
  H 1.130592 1.891424 0.415989
  H 1.511815 1.575509 -1.283350
  H 2.297566 2.896476 -0.440977
  H 4.133685 0.670848 1.859999
  H 3.174036 -0.710096 1.376464
  H 1.096699 0.462970 2.110993
  H 2.058665 1.876991 2.574660
  H 2.362187 -0.926538 3.740039
  H 1.593776 0.444846 4.525974
  H 3.320162 0.478039 4.199630
  H 3.404357 0.748191 -2.619556
  H 5.990362 -0.116362 -1.225482
  H 5.071706 -1.541854 -3.795707
  H 3.600273 -0.878019 -4.498534
  H 2.325432 -1.593317 -2.472386
  H 3.812677 -2.268548 -1.792984
  H 2.483174 -3.165454 -4.391703
  H 2.463226 -4.038630 -2.864000
  H 3.977393 -3.828741 -3.736543
 31
 22.708535
  C 2.144216 2.233970 -0.128925
  C 3.042020 1.086057 0.122511
  C 3.061822 0.328446 1.414362
  C 2.059600 0.772170 2.474338
  C 2.243775 -0.058976 3.741512
  C 3.882220 0.659484 -0.822278
  C 4.790656 0.300445 -1.674508
  C 4.163142 0.258855 -3.050834
  C 4.042288 -1.153425 -3.624282
  C 3.353777 -2.125817 -2.669096
  C 3.219457 -3.509681 -3.294728
  H 4.680408 0.943136 -3.721433
  H 1.445009 2.388832 0.683693
  H 1.591728 2.092145 -1.056955
  H 2.738418 3.140986 -0.259887
  H 4.070765 0.398082 1.834845
  H 2.911151 -0.732723 1.188286
  H 1.040002 0.638238 2.109666
  H 2.207160 1.823923 2.723938
  H 2.106382 -1.118223 3.536164
  H 1.514696 0.238333 4.491269
  H 3.236424 0.082868 4.162812
  H 3.167637 0.687219 -2.884358
  H 5.854870 0.224151 -1.534800
  H 5.041656 -1.530128 -3.854978
  H 3.479588 -1.095052 -4.557014
  H 2.359078 -1.752491 -2.416424
  H 3.932558 -2.206048 -1.746820
  H 2.635760 -3.462015 -4.211579
  H 2.723587 -4.193623 -2.609934
  H 4.196872 -3.922753 -3.535475
 31
 15.984628
  C 2.202272 2.370640 -0.015267
  C 3.039502 1.156933 0.102088
  C 3.011358 0.261267 1.291828
  C 2.060730 0.638084 2.417903
  C 2.173671 -0.362770 3.563052
  C 3.859038 0.829765 -0.908928
  C 4.678389 0.584257 -1.872057
  C 4.169621 0.292862 -3.261469
  C 4.155691 -1.214331 -3.536622
  C 3.288149 -2.003606 -2.562124
  C 3.239474 -3.478715 -2.942993
  H 4.805058 0.794748 -3.987505
  H 1.548831 2.501488 0.837390
  H 1.605708 2.341750 -0.926896
  H 2.851485 3.242532 -0.114560
  H 4.027096 0.185073 1.697406
  H 2.778401 -0.749068 0.934224
  H 1.032254 0.643047 2.053847
  H 2.297095 1.631439 2.801908
  H 1.927108 -1.367361 3.229210
  H 1.487664 -0.096112 4.362173
  H 3.179494 -0.375306 3.975216
  H 3.162326 0.699088 -3.317045
  H 5.752543 0.634650 -1.747327
  H 5.173867 -1.605430 -3.519292
  H 3.763810 -1.346151 -4.547377
  H 2.273778 -1.601143 -2.567019
  H 3.688967 -1.913854 -1.552081
  H 2.823909 -3.607227 -3.939682
  H 2.620352 -4.034599 -2.244127
  H 4.236815 -3.911740 -2.933374
 31
 15.861048
  C 1.927874 2.115210 -0.103688
  C 2.966155 1.072714 0.038398
  C 3.110672 0.228515 1.257164
  C 2.116419 0.468632 2.385047
  C 2.409680 -0.464880 3.556339
  C 3.808484 0.852695 -0.983990
  C 4.722145 0.722224 -1.882345
  C 4.476845 0.287659 -3.306168
  C 4.302543 -1.234029 -3.392552
  C 3.095056 -1.757006 -2.623283
  C 2.935657 -3.264718 -2.797261
  H 5.310597 0.602202 -3.928635
  H 1.305707 2.200448 0.778400
  H 1.296872 1.911490 -0.969834
  H 2.408293 3.073876 -0.309639
  H 4.127716 0.353368 1.648913
  H 3.062591 -0.821267 0.942768
  H 1.099316 0.285333 2.033241
  H 2.180458 1.499240 2.738860
  H 2.334581 -1.507029 3.253922
  H 1.695421 -0.295096 4.358183
  H 3.407686 -0.293791 3.953977
  H 3.561752 0.777338 -3.636099
  H 5.745474 1.005921 -1.655211
  H 5.209292 -1.735496 -3.048550
  H 4.173130 -1.472390 -4.451227
  H 2.191094 -1.257241 -2.977919
  H 3.209637 -1.539173 -1.560938
  H 2.792880 -3.518605 -3.845453
  H 2.073562 -3.625191 -2.241071
  H 3.818276 -3.790230 -2.438291
 31
 15.576232
  C 1.628637 1.742724 -0.167368
  C 2.862947 0.949632 0.006396
  C 3.199569 0.232490 1.269256
  C 2.193649 0.336386 2.408175
  C 2.687243 -0.448066 3.620438
  C 3.710312 0.825007 -1.027974
  C 4.709082 0.788263 -1.840032
  C 4.688877 0.280939 -3.256825
  C 4.395576 -1.222339 -3.293004
  C 3.012144 -1.571987 -2.764960
  C 2.733714 -3.069444 -2.846638
  H 5.636362 0.497454 -3.740464
  H 1.032956 1.783984 0.735639
  H 1.024629 1.332131 -0.977599
  H 1.891265 2.754499 -0.481604
  H 4.172922 0.592494 1.622528
  H 3.365632 -0.822567 1.022118
  H 1.229610 -0.067522 2.094619
  H 2.054788 1.377870 2.702585
  H 2.816826 -1.500354 3.378427
  H 1.967514 -0.375609 4.431881
  H 3.637192 -0.058350 3.978786
  H 3.877239 0.810968 -3.753176
  H 5.636066 1.269487 -1.538274
  H 5.162940 -1.768368 -2.741582
  H 4.457296 -1.532868 -4.338757
  H 2.255557 -1.032004 -3.338058
  H 2.928568 -1.259419 -1.720192
  H 2.781321 -3.412370 -3.877610
  H 1.743610 -3.297002 -2.460033
  H 3.464177 -3.630936 -2.268599
