 29
 0.000000
  H 1.460605 0.161803 0.459086
  C 2.539040 0.145711 0.417192
  C 3.299357 0.615392 1.582758
  C 2.452201 1.088476 2.759691
  C 3.330910 1.554709 3.916296
  C 3.101936 -0.324505 -0.752819
  C 4.476186 -0.419633 -0.991097
  C 5.137964 -0.876349 -2.130874
  C 4.612192 -1.393111 -3.421140
  C 3.116731 -1.500450 -3.691097
  C 2.879448 -2.061182 -5.091212
  O 6.453127 -0.878812 -2.137145
  H 3.959353 1.434312 1.271849
  H 3.960623 -0.189654 1.925487
  H 1.810234 0.277205 3.107502
  H 1.809009 1.913657 2.448839
  H 3.966311 0.747464 4.273450
  H 2.714846 1.888696 4.747302
  H 3.965014 2.385149 3.614218
  H 2.419329 -0.635038 -1.524677
  H 5.118061 -0.094159 -0.180546
  H 5.063534 -2.383128 -3.556267
  H 5.064482 -0.770799 -4.202379
  H 2.647932 -0.517632 -3.632119
  H 2.647004 -2.170303 -2.970091
  H 3.315068 -1.415353 -5.849893
  H 1.813344 -2.139438 -5.288064
  H 3.314220 -3.052593 -5.194052
  H 6.862320 -0.549711 -1.313708
 29
 12.403341
  H 1.412506 0.178630 0.502413
  C 2.490988 0.151843 0.433535
  C 3.272352 0.616620 1.586006
  C 2.441310 1.093416 2.771980
  C 3.332726 1.556639 3.920086
  C 3.013781 -0.319124 -0.738100
  C 4.511361 -0.429982 -1.016042
  C 5.136384 -0.883571 -2.148299
  C 4.616919 -1.395586 -3.427104
  C 3.122458 -1.499884 -3.689912
  C 2.878748 -2.059982 -5.089206
  O 6.582632 -0.889458 -2.163472
  H 3.933995 1.430576 1.266060
  H 3.935584 -0.190789 1.918928
  H 1.799024 0.284613 3.125404
  H 1.797473 1.920397 2.466701
  H 3.968530 0.747220 4.271234
  H 2.726361 1.893110 4.757162
  H 3.966887 2.384610 3.611809
  H 2.324319 -0.626174 -1.500946
  H 5.157821 -0.107413 -0.212664
  H 5.069701 -2.385744 -3.564523
  H 5.070750 -0.774660 -4.209905
  H 2.656321 -0.515965 -3.628188
  H 2.655228 -2.168788 -2.966414
  H 3.312493 -1.414976 -5.849501
  H 1.811901 -2.136520 -5.282150
  H 3.311459 -3.051930 -5.194092
  H 6.982142 -0.561556 -1.343201
 29
 37.935180
  H 1.390143 0.200138 0.557092
  C 2.465754 0.159139 0.451514
  C 3.259756 0.615307 1.581831
  C 2.442046 1.093609 2.773178
  C 3.335438 1.556024 3.918685
  C 2.930392 -0.309751 -0.715247
  C 4.534670 -0.428752 -1.014504
  C 5.100116 -0.886087 -2.155636
  C 4.626652 -1.399215 -3.436418
  C 3.129931 -1.503104 -3.698974
  C 2.872753 -2.062375 -5.094911
  O 6.697624 -0.892639 -2.170584
  H 3.924841 1.423801 1.255098
  H 3.927235 -0.192302 1.905494
  H 1.797719 0.287788 3.131081
  H 1.795237 1.921005 2.473773
  H 3.972272 0.746494 4.268855
  H 2.731806 1.892632 4.757380
  H 3.969627 2.384123 3.609689
  H 2.259853 -0.621854 -1.489679
  H 5.159515 -0.102711 -0.203055
  H 5.089622 -2.383305 -3.572794
  H 5.091150 -0.782749 -4.214548
  H 2.657165 -0.522014 -3.637821
  H 2.655578 -2.169635 -2.977444
  H 3.302844 -1.419782 -5.859462
  H 1.804200 -2.135416 -5.279636
  H 3.301443 -3.055788 -5.203799
  H 7.041770 -0.560276 -1.336065
 29
 66.781292
  H 1.334767 0.217206 0.599872
  C 2.410061 0.165623 0.467777
  C 3.241291 0.624058 1.604169
  C 2.452305 1.107224 2.807348
  C 3.362999 1.564022 3.938827
  C 2.831620 -0.303202 -0.699133
  C 4.522585 -0.432423 -1.024786
  C 5.027463 -0.888555 -2.161917
  C 4.611978 -1.402995 -3.445421
  C 3.128332 -1.517881 -3.735939
  C 2.899852 -2.078863 -5.135831
  O 6.794758 -0.894180 -2.174508
  H 3.910800 1.425413 1.265847
  H 3.913408 -0.186638 1.914408
  H 1.806395 0.304913 3.173694
  H 1.804161 1.938137 2.516378
  H 4.000329 0.752338 4.280475
  H 2.773097 1.904179 4.785991
  H 3.997975 2.387735 3.622073
  H 2.182170 -0.618449 -1.480999
  H 5.132234 -0.102595 -0.205206
  H 5.093778 -2.386027 -3.571349
  H 5.095497 -0.780288 -4.215512
  H 2.654315 -0.535710 -3.677670
  H 2.652462 -2.186805 -3.015736
  H 3.338080 -1.434460 -5.893560
  H 1.835121 -2.158726 -5.338004
  H 3.336287 -3.068988 -5.238251
  H 7.090559 -0.554618 -1.322997
 29
 94.607667
  H 1.309361 0.227304 0.625729
  C 2.386185 0.171407 0.484182
  C 3.223572 0.624885 1.606760
  C 2.444892 1.112961 2.820434
  C 3.360572 1.569251 3.948734
  C 2.794384 -0.304249 -0.698087
  C 4.527781 -0.439603 -1.036004
  C 4.977848 -0.890559 -2.164403
  C 4.604827 -1.402204 -3.444453
  C 3.111867 -1.522434 -3.745612
  C 2.888730 -2.080796 -5.143715
  O 6.961047 -0.899637 -2.188926
  H 3.893792 1.423927 1.258480
  H 3.896339 -0.190439 1.908854
  H 1.796728 0.314053 3.190971
  H 1.794508 1.944019 2.533937
  H 3.999527 0.757290 4.288890
  H 2.774761 1.910756 4.798017
  H 3.996905 2.391775 3.629827
  H 2.162248 -0.624945 -1.495195
  H 5.127096 -0.110153 -0.214363
  H 5.092225 -2.376534 -3.566028
  H 5.092406 -0.780321 -4.204110
  H 2.636783 -0.542631 -3.683509
  H 2.636649 -2.189868 -3.025644
  H 3.327627 -1.434614 -5.900336
  H 1.824216 -2.161854 -5.346821
  H 3.327608 -3.070455 -5.247014
  H 7.242745 -0.559284 -1.332499
 29
 105.426005
  H 1.351289 0.208360 0.710149
  C 2.422927 0.190549 0.534510
  C 3.257694 0.674122 1.643250
  C 2.486472 1.120450 2.876130
  C 3.395120 1.607240 3.994863
  C 2.818324 -0.291597 -0.661223
  C 4.314171 -0.436802 -1.002949
  C 4.694376 -0.881817 -2.154483
  C 4.497391 -1.388068 -3.450254
  C 3.020480 -1.571323 -3.875589
  C 2.950975 -2.121918 -5.288001
  O 7.166536 -0.919189 -2.075304
  H 3.907896 1.493741 1.296098
  H 3.990104 -0.099175 1.926969
  H 1.870228 0.295676 3.243303
  H 1.783196 1.913033 2.608016
  H 4.076883 0.823388 4.315525
  H 2.807525 1.912092 4.855964
  H 3.988375 2.460663 3.675753
  H 2.156580 -0.627705 -1.429186
  H 4.953015 -0.109007 -0.202112
  H 5.040779 -2.341314 -3.541680
  H 5.030080 -0.748607 -4.171097
  H 2.510473 -0.609068 -3.830901
  H 2.529284 -2.258557 -3.186832
  H 3.426755 -1.448732 -5.996369
  H 1.912760 -2.248667 -5.581740
  H 3.446563 -3.086701 -5.358700
  H 7.372897 -0.634769 -1.195328
 29
 108.992044
  H 1.309773 0.281193 0.736774
  C 2.378531 0.232003 0.548293
  C 3.245744 0.670859 1.648122
  C 2.503811 1.137251 2.890619
  C 3.453145 1.575029 4.000272
  C 2.747165 -0.255571 -0.654058
  C 4.171785 -0.428777 -1.007500
  C 4.529985 -0.886817 -2.144142
  C 4.458991 -1.398728 -3.435960
  C 2.996242 -1.596947 -3.923669
  C 3.004388 -2.162185 -5.328963
  O 7.324988 -0.835008 -2.042294
  H 3.919713 1.469315 1.300113
  H 3.943442 -0.140092 1.920686
  H 1.862007 0.332940 3.264959
  H 1.835937 1.966667 2.639551
  H 4.104594 0.758233 4.303717
  H 2.893114 1.898326 4.873417
  H 4.079181 2.404729 3.677922
  H 2.057389 -0.583345 -1.402051
  H 4.832242 -0.119395 -0.213689
  H 5.010365 -2.350906 -3.471727
  H 5.012149 -0.740965 -4.117074
  H 2.480745 -0.634564 -3.916029
  H 2.476632 -2.277570 -3.251692
  H 3.506578 -1.494470 -6.022760
  H 1.980823 -2.296361 -5.664803
  H 3.505044 -3.126506 -5.364376
  H 7.555603 -0.519389 -1.172148
 29
 108.588712
  H 1.242672 0.344313 0.808662
  C 2.302875 0.251602 0.594277
  C 3.222406 0.663389 1.672405
  C 2.530616 1.163231 2.931722
  C 3.527053 1.572994 4.013254
  C 2.630017 -0.244036 -0.612667
  C 4.024227 -0.444983 -1.015415
  C 4.381827 -0.900139 -2.153287
  C 4.439020 -1.407237 -3.445249
  C 2.995904 -1.627923 -3.993475
  C 3.079228 -2.196835 -5.401688
  O 7.445918 -0.773641 -1.998003
  H 3.904973 1.436528 1.304297
  H 3.887432 -0.166963 1.930871
  H 1.871610 0.384491 3.330810
  H 1.890055 2.017819 2.693375
  H 4.155627 0.733580 4.305090
  H 3.002924 1.922631 4.900129
  H 4.174052 2.378365 3.667228
  H 1.890060 -0.542505 -1.336055
  H 4.725827 -0.161120 -0.244449
  H 4.994073 -2.349959 -3.444557
  H 4.995997 -0.722295 -4.089559
  H 2.467309 -0.679635 -4.007975
  H 2.461297 -2.321470 -3.343464
  H 3.597434 -1.518643 -6.075535
  H 2.069399 -2.347702 -5.780568
  H 3.596489 -3.150534 -5.414862
  H 7.709825 -0.454466 -1.136723
 29
 107.698264
  H 1.171608 0.400197 0.901661
  C 2.222220 0.270620 0.650198
  C 3.193675 0.656908 1.688213
  C 2.564320 1.180999 2.960689
  C 3.611507 1.565037 4.000900
  C 2.502306 -0.231086 -0.566742
  C 3.856398 -0.461620 -1.024348
  C 4.220675 -0.912671 -2.162419
  C 4.414497 -1.411783 -3.441200
  C 2.999315 -1.655865 -4.059213
  C 3.170018 -2.220273 -5.453884
  O 7.556268 -0.719402 -1.944952
  H 3.878577 1.410531 1.292851
  H 3.837472 -0.195153 1.930898
  H 1.895426 0.421229 3.387558
  H 1.942704 2.055414 2.736876
  H 4.224088 0.707630 4.275322
  H 3.131517 1.935786 4.903230
  H 4.270332 2.348847 3.624890
  H 1.722304 -0.495568 -1.260626
  H 4.608723 -0.202982 -0.284581
  H 4.972144 -2.352459 -3.414767
  H 4.975090 -0.711933 -4.057098
  H 2.453552 -0.714830 -4.102792
  H 2.446653 -2.360025 -3.439743
  H 3.706409 -1.534346 -6.097004
  H 2.189044 -2.387904 -5.879979
  H 3.702201 -3.162696 -5.438969
  H 7.866394 -0.393001 -1.095401
 29
 106.784938
  H 1.134978 0.134092 1.067578
  C 2.168704 0.108786 0.746973
  C 3.170609 0.623522 1.703042
  C 2.578171 1.112552 3.018241
  C 3.651596 1.632071 3.968403
  C 2.416887 -0.376033 -0.480055
  C 3.754400 -0.454964 -1.046331
  C 4.145364 -0.867954 -2.194434
  C 4.415767 -1.342387 -3.465829
  C 3.005294 -1.787232 -4.025488
  C 3.207483 -2.345245 -5.428370
  O 7.703406 -0.143588 -2.182583
  H 3.734264 1.445772 1.243912
  H 3.915175 -0.155227 1.916454
  H 2.033118 0.297109 3.502449
  H 1.853913 1.909745 2.824411
  H 4.371768 0.851467 4.210252
  H 3.203151 1.974290 4.898346
  H 4.190538 2.470911 3.530596
  H 1.616035 -0.726872 -1.111874
  H 4.543535 -0.102681 -0.375487
  H 5.085458 -2.212207 -3.453994
  H 4.840145 -0.574214 -4.125093
  H 2.335532 -0.925252 -4.057828
  H 2.578436 -2.551021 -3.371163
  H 3.623948 -1.596149 -6.102142
  H 2.236378 -2.649679 -5.815010
  H 3.867964 -3.211660 -5.422839
  H 8.090391 0.251883 -1.396999
 29
 107.265377
  H 1.139808 0.165230 1.036686
  C 2.171777 0.126402 0.723199
  C 3.161938 0.611577 1.677097
  C 2.560521 1.105146 2.988922
  C 3.631627 1.597399 3.955182
  C 2.418123 -0.350892 -0.487085
  C 3.739374 -0.449826 -1.030634
  C 4.133085 -0.871330 -2.180279
  C 4.411759 -1.355228 -3.439553
  C 2.982522 -1.759751 -4.011161
  C 3.176329 -2.331611 -5.403629
  O 7.988942 -0.199928 -2.172237
  H 3.742247 1.430313 1.231626
  H 3.884196 -0.189458 1.884780
  H 1.993807 0.300713 3.463253
  H 1.856862 1.915054 2.787745
  H 4.331693 0.801689 4.201813
  H 3.178588 1.943504 4.880152
  H 4.194321 2.425366 3.527953
  H 1.622783 -0.692132 -1.137080
  H 4.529866 -0.106748 -0.341168
  H 5.048224 -2.247865 -3.414169
  H 4.850578 -0.601527 -4.103833
  H 2.349463 -0.874447 -4.050134
  H 2.525606 -2.506249 -3.362220
  H 3.623362 -1.603671 -6.075608
  H 2.201125 -2.607351 -5.799850
  H 3.801417 -3.220380 -5.386097
  H 8.425841 0.184705 -1.408999
 29
 107.200914
  H 1.093323 0.215553 1.045289
  C 2.126212 0.150984 0.732866
  C 3.140349 0.618667 1.701965
  C 2.553151 1.122769 3.010412
  C 3.633793 1.596739 3.972748
  C 2.368218 -0.341076 -0.497159
  C 3.700909 -0.480518 -1.052181
  C 4.104738 -0.910421 -2.185973
  C 4.403061 -1.383392 -3.444657
  C 2.980531 -1.757499 -4.031572
  C 3.182687 -2.311194 -5.431615
  O 8.215672 -0.300566 -2.161966
  H 3.737826 1.417451 1.249348
  H 3.848198 -0.187719 1.921772
  H 1.973209 0.326874 3.484934
  H 1.862395 1.947417 2.812418
  H 4.321637 0.789265 4.218362
  H 3.188276 1.951167 4.899429
  H 4.208584 2.414930 3.542478
  H 1.559198 -0.659030 -1.134165
  H 4.501213 -0.160027 -0.384719
  H 5.015286 -2.286277 -3.428717
  H 4.865651 -0.632089 -4.086284
  H 2.359584 -0.863675 -4.067573
  H 2.511743 -2.505415 -3.394978
  H 3.644760 -1.577832 -6.087747
  H 2.207522 -2.569213 -5.841665
  H 3.796633 -3.208667 -5.422641
  H 8.699441 0.069864 -1.411665
 29
 106.732730
  H 1.086923 0.171728 1.116459
  C 2.114702 0.122355 0.785597
  C 3.128450 0.623907 1.722012
  C 2.547187 1.137428 3.026226
  C 3.630046 1.648450 3.965350
  C 2.347932 -0.388348 -0.441886
  C 3.667026 -0.520734 -1.025176
  C 4.074716 -0.962970 -2.152645
  C 4.419226 -1.399177 -3.425981
  C 3.006359 -1.751063 -4.050298
  C 3.240000 -2.256401 -5.457468
  O 8.079745 -0.401317 -2.245414
  H 3.701313 1.429166 1.251053
  H 3.849756 -0.168998 1.944276
  H 1.989372 0.337595 3.520843
  H 1.839052 1.945620 2.821029
  H 4.335240 0.859393 4.215814
  H 3.190935 2.009193 4.888512
  H 4.181716 2.467347 3.515338
  H 1.526823 -0.729500 -1.054527
  H 4.491592 -0.176972 -0.394834
  H 5.037464 -2.301259 -3.422713
  H 4.894050 -0.621163 -4.037865
  H 2.384676 -0.859150 -4.072701
  H 2.523069 -2.518788 -3.449518
  H 3.715168 -1.506256 -6.073641
  H 2.282133 -2.497748 -5.894243
  H 3.850569 -3.148877 -5.463498
  H 8.668560 -0.056388 -1.583356
