 7
 0.000000
  H 3.397749 -0.344449 -0.806963
  C 4.452396 -0.411652 -0.974602
  C 5.123831 -0.863395 -2.100714
  H 4.763810 -1.238544 -3.035887
  O 6.448567 -0.861790 -2.097024
  H 5.073532 -0.080521 -0.149771
  H 6.820588 -0.526463 -1.260938
 7
 0.000000
  H 3.525305 -0.345903 -0.810560
  C 4.519401 -0.436282 -1.036007
  C 5.105340 -0.866137 -2.107566
  H 4.749396 -1.241828 -3.044081
  O 6.341359 -0.844419 -2.053732
  H 5.186668 -0.117833 -0.242801
  H 6.653005 -0.474412 -1.131152
 7
 0.000000
  H 3.648551 -0.347457 -0.814415
  C 4.587578 -0.458619 -1.091690
  C 5.094306 -0.867978 -2.112166
  H 4.739519 -1.243822 -3.049058
  O 6.242955 -0.830570 -2.019224
  H 5.299237 -0.153784 -0.332430
  H 6.480511 -0.424121 -1.005758
 7
 0.000000
  H 3.765688 -0.348490 -0.816967
  C 4.657465 -0.478072 -1.140183
  C 5.092107 -0.869134 -2.115060
  H 4.735188 -1.244701 -3.051253
  O 6.153854 -0.820441 -1.993991
  H 5.410600 -0.187377 -0.416188
  H 6.301072 -0.376929 -0.888083
 7
 0.000000
  H 3.874436 -0.348070 -0.815889
  C 4.729407 -0.493786 -1.179353
  C 5.100133 -0.870036 -2.117319
  H 4.737523 -1.244849 -3.051626
  O 6.074193 -0.814468 -1.979118
  H 5.519837 -0.217153 -0.490439
  H 6.113222 -0.334502 -0.782277
 7
 0.000000
  H 3.971714 -0.344969 -0.808125
  C 4.803458 -0.504467 -1.205980
  C 5.119668 -0.871459 -2.120881
  H 4.747520 -1.244979 -3.051950
  O 6.003875 -0.813500 -1.976722
  H 5.625614 -0.240959 -0.549816
  H 5.916723 -0.298726 -0.693044
 7
 0.000000
  H 4.041717 -0.338771 -0.792638
  C 4.868785 -0.507735 -1.214130
  C 5.147696 -0.874239 -2.127822
  H 4.763999 -1.246142 -3.054843
  O 5.952806 -0.817968 -1.987873
  H 5.711986 -0.253607 -0.581382
  H 5.745137 -0.274588 -0.632820
 7
 0.000000
  H 4.087196 -0.329962 -0.770648
  C 4.924862 -0.504419 -1.205866
  C 5.180625 -0.878995 -2.139682
  H 4.784471 -1.249092 -3.062179
  O 5.917471 -0.826873 -2.010073
  H 5.779988 -0.255865 -0.587051
  H 5.600514 -0.258917 -0.593715
 7
 0.000000
  H 4.111212 -0.318653 -0.742433
  C 4.972919 -0.494813 -1.181926
  C 5.217024 -0.886591 -2.158618
  H 4.807567 -1.254689 -3.076098
  O 5.894679 -0.840174 -2.043223
  H 5.832418 -0.248347 -0.568351
  H 5.477893 -0.248025 -0.566535
 7
 0.000000
  H 4.112336 -0.304282 -0.706600
  C 5.012236 -0.478047 -1.140143
  C 5.256357 -0.898559 -2.188435
  H 4.832333 -1.264384 -3.100199
  O 5.885192 -0.858977 -2.090074
  H 5.868889 -0.230195 -0.523156
  H 5.376248 -0.238454 -0.542674
 7
 0.000000
  H 4.086496 -0.286288 -0.661763
  C 5.037803 -0.453289 -1.078449
  C 5.296401 -0.916134 -2.232203
  H 4.857077 -1.279475 -3.137707
  O 5.894156 -0.883857 -2.152051
  H 5.884365 -0.200654 -0.449587
  H 5.302202 -0.226164 -0.512076
 7
 0.000000
  H 4.040863 -0.266670 -0.612910
  C 5.043800 -0.423608 -1.004496
  C 5.331300 -0.935627 -2.280727
  H 4.879973 -1.296955 -3.181130
  O 5.921573 -0.909488 -2.215880
  H 5.875340 -0.164123 -0.358611
  H 5.255852 -0.208470 -0.468048
 7
 0.000000
  H 3.988886 -0.246638 -0.563061
  C 5.033983 -0.391059 -0.923412
  C 5.360247 -0.952769 -2.323371
  H 4.901445 -1.312823 -3.220509
  O 5.957276 -0.931346 -2.270283
  H 5.848081 -0.123987 -0.258673
  H 5.212724 -0.185994 -0.412138
 7
 0.000000
  H 3.931097 -0.225451 -0.510360
  C 5.009173 -0.355265 -0.834263
  C 5.383259 -0.965851 -2.355889
  H 4.921011 -1.325324 -3.251498
  O 5.995845 -0.948099 -2.311957
  H 5.803659 -0.080098 -0.149400
  H 5.160144 -0.158939 -0.344837
