 23
 0.000000
  H 1.534067 0.143424 0.407695
  C 2.614439 0.138678 0.397034
  C 3.330804 0.615957 1.584876
  C 2.430625 1.075766 2.727310
  C 3.253138 1.554545 3.919423
  C 3.216129 -0.324124 -0.754475
  C 4.595324 -0.408855 -0.965257
  C 5.204371 -0.876355 -2.132525
  C 4.505185 -1.359492 -3.337852
  H 3.425815 -1.338931 -3.286195
  O 6.507504 -0.917185 -2.236689
  H 3.993228 1.441814 1.298266
  H 3.992516 -0.178941 1.949873
  H 1.786734 0.254259 3.046545
  H 1.787729 1.890304 2.388795
  H 3.885440 0.756694 4.302244
  H 2.598644 1.878647 4.724600
  H 3.886424 2.394701 3.643694
  H 2.561395 -0.643926 -1.551611
  H 5.245716 -0.087167 -0.162671
  H 4.840701 -2.377004 -3.544665
  H 4.840518 -0.766388 -4.190213
  H 6.993955 -0.601219 -1.450573
 23
 0.488722
  H 1.608556 0.692539 0.244036
  C 2.661973 0.438312 0.279342
  C 3.364706 0.735904 1.538944
  C 2.433693 1.034270 2.712769
  C 3.221221 1.379729 3.970918
  C 3.227274 -0.120758 -0.843210
  C 4.606990 -0.241657 -1.051510
  C 5.210834 -0.857248 -2.148818
  C 4.491912 -1.596204 -3.208666
  H 3.423173 -1.646279 -3.046447
  O 6.507484 -0.834664 -2.300355
  H 4.001484 1.620276 1.375303
  H 4.050932 -0.072232 1.802400
  H 1.809328 0.162302 2.910483
  H 1.772786 1.865473 2.461866
  H 3.874915 0.560684 4.256310
  H 2.546643 1.573349 4.798357
  H 3.827936 2.267897 3.818629
  H 2.554974 -0.447454 -1.620192
  H 5.259057 0.235956 -0.332792
  H 4.900028 -2.603927 -3.276045
  H 4.698373 -1.129657 -4.174274
  H 7.004056 -0.351952 -1.611926
 23
 7.052083
  H 1.866909 1.204770 0.103814
  C 2.790253 0.657567 0.248696
  C 3.407809 0.741278 1.577071
  C 2.409199 1.040849 2.696459
  C 3.116675 1.186042 4.038918
  C 3.304566 -0.047733 -0.825161
  C 4.646332 -0.064746 -1.184142
  C 5.201511 -0.800710 -2.231785
  C 4.475682 -1.805964 -3.034222
  H 3.423342 -1.866972 -2.790951
  O 6.457759 -0.651324 -2.571126
  H 4.143218 1.560856 1.564248
  H 3.975270 -0.166014 1.795833
  H 1.685895 0.226077 2.760546
  H 1.862365 1.958398 2.474011
  H 3.664768 0.280597 4.288573
  H 2.394217 1.371597 4.829472
  H 3.817430 2.017943 4.021530
  H 2.587100 -0.577033 -1.441726
  H 5.292717 0.626556 -0.657570
  H 4.938369 -2.780815 -2.878373
  H 4.601645 -1.582876 -4.093243
  H 6.961148 -0.005165 -2.039790
 23
 21.453679
  H 2.243405 1.496752 0.047161
  C 2.988460 0.750077 0.285856
  C 3.451598 0.683662 1.685821
  C 2.379608 1.083170 2.695892
  C 2.937164 1.061770 4.121858
  C 3.468727 -0.050001 -0.761911
  C 4.693207 0.066179 -1.345875
  C 5.179009 -0.749388 -2.386656
  C 4.498097 -1.939464 -2.898386
  H 3.495159 -2.063788 -2.491350
  O 6.321791 -0.472548 -2.976950
  H 4.291960 1.388897 1.819090
  H 3.845502 -0.317878 1.905222
  H 1.546799 0.377713 2.636920
  H 1.992436 2.086456 2.473976
  H 3.321465 0.084819 4.370558
  H 2.166659 1.316297 4.840871
  H 3.751415 1.790381 4.220723
  H 2.747157 -0.794641 -1.142876
  H 5.312687 0.893508 -1.032318
  H 5.091446 -2.826296 -2.661373
  H 4.459485 -1.895830 -3.980621
  H 6.794009 0.303879 -2.627131
 23
 18.751049
  H 2.625057 1.712245 0.081562
  C 3.221981 0.842471 0.365616
  C 3.488811 0.644730 1.786697
  C 2.362355 1.111120 2.704076
  C 2.743095 0.984248 4.161694
  C 3.691009 -0.060914 -0.628160
  C 4.653394 0.216587 -1.555815
  C 5.097610 -0.665836 -2.556312
  C 4.511762 -2.000969 -2.844705
  H 3.582924 -2.199639 -2.308551
  O 6.102227 -0.358895 -3.313817
  H 4.403645 1.246320 2.013254
  H 3.773092 -0.396085 1.972857
  H 1.481374 0.480071 2.512043
  H 2.105688 2.145099 2.479027
  H 3.031051 -0.037011 4.405052
  H 1.914494 1.284514 4.801941
  H 3.583238 1.628668 4.395383
  H 3.256269 -1.051251 -0.597301
  H 5.154361 1.174147 -1.461484
  H 5.242644 -2.757391 -2.568025
  H 4.358532 -2.132577 -3.915791
  H 6.551916 0.468121 -3.108426
 23
 3.940305
  H 3.082871 1.767234 0.163178
  C 3.474788 0.800744 0.446704
  C 3.502161 0.494687 1.880487
  C 2.369736 1.139544 2.690221
  C 2.585143 0.952260 4.184101
  C 3.952572 -0.074812 -0.508885
  C 4.587991 0.295888 -1.688680
  C 5.006657 -0.596121 -2.679997
  C 4.592528 -2.011560 -2.757219
  H 3.741426 -2.237001 -2.128930
  O 5.790302 -0.211661 -3.651019
  H 4.447931 0.908327 2.257698
  H 3.550176 -0.582155 2.061654
  H 1.425987 0.679564 2.404661
  H 2.307905 2.201993 2.463247
  H 2.654397 -0.106351 4.437276
  H 1.756869 1.380382 4.741047
  H 3.503429 1.445479 4.511776
  H 3.872523 -1.128876 -0.281116
  H 4.803970 1.346895 -1.836528
  H 5.434198 -2.648991 -2.468936
  H 4.368785 -2.260506 -3.790523
  H 6.088338 0.717731 -3.607558
 23
 15.352760
  H 3.234768 1.879055 0.195633
  C 3.559638 0.873432 0.423245
  C 3.591980 0.526274 1.850460
  C 2.459424 1.181538 2.664204
  C 2.580863 0.829285 4.138825
  C 3.633561 -0.063616 -0.603432
  C 4.467264 0.263351 -1.662258
  C 4.916079 -0.573644 -2.683428
  C 4.816925 -2.044588 -2.636990
  H 4.283867 -2.395849 -1.762436
  O 5.567425 -0.101728 -3.712391
  H 4.540422 0.905231 2.256540
  H 3.583559 -0.557712 1.993016
  H 1.499271 0.830977 2.286234
  H 2.496357 2.264239 2.546490
  H 2.504713 -0.242625 4.289040
  H 1.784851 1.305996 4.703614
  H 3.529327 1.165647 4.542179
  H 3.069284 -0.983291 -0.555252
  H 4.966497 1.206295 -1.470175
  H 5.821926 -2.459678 -2.644194
  H 4.333430 -2.413182 -3.543720
  H 5.630479 0.871913 -3.753200
 23
 39.210511
  H 3.025207 1.824804 0.126629
  C 3.418836 0.838233 0.324407
  C 3.599207 0.509593 1.749253
  C 2.541395 1.198186 2.636170
  C 2.754117 0.837514 4.102651
  C 3.257802 -0.155350 -0.693497
  C 4.298143 0.120109 -1.541887
  C 4.943580 -0.558061 -2.577180
  C 4.899789 -2.031142 -2.682121
  H 4.252923 -2.468198 -1.931928
  O 5.728039 0.045895 -3.427079
  H 4.579800 0.860522 2.081302
  H 3.563254 -0.571173 1.898656
  H 1.545395 0.878857 2.324976
  H 2.605616 2.281457 2.516787
  H 2.677882 -0.237632 4.253891
  H 1.999226 1.319766 4.719058
  H 3.733646 1.164907 4.446500
  H 2.457161 -0.866998 -0.788875
  H 4.764214 0.993276 -1.022551
  H 5.909172 -2.427319 -2.579719
  H 4.559835 -2.315833 -3.677738
  H 5.723067 1.019932 -3.379939
 23
 56.277017
  H 2.992668 1.847096 0.045197
  C 3.360629 0.840525 0.208685
  C 3.619992 0.460116 1.633348
  C 2.644137 1.203192 2.561204
  C 2.882277 0.804737 4.012325
  C 2.941574 -0.183162 -0.771830
  C 4.053707 -0.015712 -1.492350
  C 4.902783 -0.534188 -2.444574
  C 4.994957 -2.005924 -2.627838
  H 4.273449 -2.531804 -2.014406
  O 5.773772 0.179701 -3.132228
  H 4.635298 0.727354 1.930533
  H 3.506088 -0.616755 1.763365
  H 1.617781 0.959906 2.284041
  H 2.779945 2.280451 2.455413
  H 2.736316 -0.263820 4.150565
  H 2.185954 1.328311 4.662661
  H 3.893259 1.056719 4.323619
  H 2.044499 -0.755254 -0.877140
  H 4.440504 0.910851 -0.646580
  H 6.003889 -2.340881 -2.386487
  H 4.830027 -2.241035 -3.678664
  H 5.679622 1.145002 -3.050064
 23
 48.134132
  H 3.036524 1.961096 0.068560
  C 3.455622 0.961808 0.188949
  C 3.690803 0.504337 1.615782
  C 2.658986 1.173518 2.544934
  C 2.838123 0.721416 4.000055
  C 2.942513 -0.052175 -0.802477
  C 4.008165 -0.083982 -1.577741
  C 4.874701 -0.594927 -2.501265
  C 5.025618 -2.068214 -2.561502
  H 4.339659 -2.578196 -1.899075
  O 5.676038 0.106385 -3.276510
  H 4.685521 0.786661 1.946150
  H 3.595757 -0.572644 1.696966
  H 1.650242 0.909179 2.209849
  H 2.762734 2.252835 2.500423
  H 2.721824 -0.367828 4.091275
  H 2.081792 1.203229 4.627036
  H 3.803670 0.984904 4.380029
  H 2.009642 -0.526062 -0.853458
  H 4.450014 1.077096 -0.441342
  H 6.054491 -2.355942 -2.306774
  H 4.851291 -2.367907 -3.564573
  H 5.534143 1.074675 -3.294238
 23
 34.641194
  H 3.108963 2.084783 0.158458
  C 3.614581 1.128563 0.209572
  C 3.792612 0.593185 1.643211
  C 2.664768 1.116230 2.524848
  C 2.743962 0.579421 3.944408
  C 3.043499 0.180596 -0.796521
  C 3.988822 -0.072264 -1.638435
  C 4.831226 -0.659205 -2.561303
  C 5.038109 -2.108596 -2.426548
  H 4.463042 -2.531499 -1.628492
  O 5.504511 -0.033484 -3.490943
  H 4.761211 0.918371 2.036290
  H 3.763540 -0.506913 1.661348
  H 1.708429 0.824952 2.101606
  H 2.703725 2.204497 2.570906
  H 2.689371 -0.504333 3.951364
  H 1.895872 0.973583 4.521605
  H 3.646676 0.887356 4.438737
  H 2.027886 -0.183533 -0.748707
  H 4.614291 1.312652 -0.276510
  H 6.107094 -2.327845 -2.240616
  H 4.775972 -2.550523 -3.349608
  H 5.240433 0.905519 -3.646159
 23
 23.338959
  H 3.217955 2.220104 0.221099
  C 3.801169 1.301176 0.273489
  C 3.826370 0.723035 1.688134
  C 2.596091 1.127928 2.495576
  C 2.611094 0.504614 3.887891
  C 3.242522 0.289540 -0.707795
  C 4.001001 -0.173027 -1.631733
  C 4.757027 -0.779949 -2.581159
  C 5.095834 -2.212927 -2.421082
  H 4.656395 -2.636375 -1.525190
  O 5.247041 -0.180502 -3.635178
  H 4.730334 1.074227 2.188596
  H 3.875657 -0.366840 1.653454
  H 1.688485 0.807033 1.979036
  H 2.560467 2.215166 2.590576
  H 2.632872 -0.580790 3.829011
  H 1.720557 0.795336 4.439843
  H 3.479719 0.836917 4.451349
  H 2.204174 0.012925 -0.570851
  H 4.803402 1.528950 -0.086752
  H 6.180296 -2.323995 -2.385929
  H 4.758487 -2.758356 -3.303012
  H 4.957092 0.738565 -3.775871
 23
 20.914067
  H 3.216378 2.443933 0.298096
  C 3.876378 1.578099 0.272588
  C 3.918675 0.920834 1.651442
  C 2.570341 0.940611 2.361935
  C 2.643267 0.266918 3.728187
  C 3.327435 0.586286 -0.730584
  C 3.983346 -0.095222 -1.589988
  C 4.667583 -0.866801 -2.475775
  C 5.009571 -2.262640 -2.129901
  H 4.623963 -2.544308 -1.157252
  O 5.048179 -0.450369 -3.657222
  H 4.654022 1.458227 2.255575
  H 4.269616 -0.110113 1.572022
  H 1.825083 0.417902 1.755623
  H 2.231468 1.971738 2.486156
  H 2.949806 -0.772638 3.633272
  H 1.673197 0.291342 4.219202
  H 3.359566 0.775707 4.370165
  H 2.250348 0.456880 -0.634373
  H 4.869567 1.892077 -0.040844
  H 6.094224 -2.378830 -2.147927
  H 4.625255 -2.932916 -2.898480
  H 4.830711 0.475933 -3.872374
 23
 22.366403
  H 2.776387 2.369816 0.312847
  C 3.586202 1.653430 0.196857
  C 3.832425 0.932838 1.528358
  C 2.601221 0.918482 2.427676
  C 2.885571 0.215414 3.751217
  C 3.198312 0.640496 -0.858536
  C 3.966245 -0.073769 -1.590447
  C 4.732687 -0.883979 -2.367314
  C 4.912504 -2.306173 -2.000394
  H 4.374330 -2.561843 -1.094986
  O 5.337232 -0.484757 -3.455437
  H 4.652537 1.438950 2.043077
  H 4.155845 -0.095296 1.356353
  H 1.780464 0.401055 1.925064
  H 2.277310 1.942237 2.627088
  H 3.186784 -0.816888 3.586102
  H 1.998361 0.213353 4.380040
  H 3.682624 0.721350 4.292610
  H 2.119416 0.521520 -0.947676
  H 4.478484 2.181504 -0.132235
  H 5.976234 -2.510576 -1.873695
  H 4.583213 -2.938671 -2.825821
  H 5.213412 0.454433 -3.692170
 23
 23.729245
  H 2.450628 2.216320 0.286892
  C 3.371198 1.648944 0.167658
  C 3.716214 0.933579 1.486864
  C 2.535632 0.899314 2.454278
  C 2.924286 0.241359 3.774959
  C 3.198882 0.638890 -0.941014
  C 4.099950 -0.050712 -1.536093
  C 4.894853 -0.896048 -2.242402
  C 4.855551 -2.348700 -1.958177
  H 4.161122 -2.588410 -1.161322
  O 5.722574 -0.512704 -3.178454
  H 4.554547 1.452529 1.957073
  H 4.041565 -0.091016 1.299317
  H 1.707717 0.340488 2.012833
  H 2.188179 1.916204 2.648697
  H 3.256285 -0.781893 3.616106
  H 2.074552 0.221163 4.453132
  H 3.729184 0.791347 4.257321
  H 2.162049 0.512723 -1.253609
  H 4.168889 2.327915 -0.122931
  H 5.858683 -2.688708 -1.696548
  H 4.582418 -2.884216 -2.867459
  H 5.744343 0.444575 -3.363416
