 23
 0.000000
  H 1.411780 0.150124 0.427782
  C 2.491053 0.141649 0.405003
  C 3.236246 0.613363 1.575945
  H 2.604771 0.941587 2.392877
  C 3.077837 -0.324863 -0.755696
  C 4.453843 -0.414607 -0.980623
  C 5.126789 -0.870072 -2.116553
  C 4.614736 -1.389082 -3.411074
  C 3.122837 -1.503384 -3.697555
  C 2.904503 -2.065731 -5.100173
  O 6.441213 -0.867740 -2.111214
  H 3.891510 1.438309 1.286644
  H 3.892781 -0.181126 1.938320
  H 2.412228 -0.640676 -1.540704
  H 5.090942 -0.088220 -0.168590
  H 5.071905 -2.377187 -3.541449
  H 5.072631 -0.765259 -4.187986
  H 2.648509 -0.522823 -3.644647
  H 2.647849 -2.175424 -2.981991
  H 3.345723 -1.418071 -5.853998
  H 1.841192 -2.149199 -5.309390
  H 3.345145 -3.055049 -5.197594
  H 6.843724 -0.537048 -1.284653
 23
 -0.068115
  H 1.445001 0.431574 0.345709
  C 2.512190 0.252544 0.337172
  C 3.221325 0.362166 1.613839
  H 2.543103 0.599356 2.428726
  C 3.082664 -0.081479 -0.873851
  C 4.455441 -0.284676 -1.045761
  C 5.143044 -0.749821 -2.170138
  C 4.623304 -1.350207 -3.420398
  C 3.129999 -1.466493 -3.683174
  C 2.892220 -2.214113 -4.994018
  O 6.456322 -0.739094 -2.163368
  H 3.988940 1.136781 1.558378
  H 3.749146 -0.562830 1.847946
  H 2.423877 -0.155921 -1.723855
  H 5.082156 -0.008247 -0.204678
  H 5.066817 -2.352034 -3.471425
  H 5.093269 -0.807243 -4.246950
  H 2.681929 -0.478242 -3.769238
  H 2.644349 -2.014912 -2.877704
  H 3.352063 -1.690985 -5.830498
  H 1.824816 -2.296766 -5.194042
  H 3.305833 -3.220859 -4.950583
  H 6.867900 -0.366510 -1.363535
 23
 0.834387
  H 1.479109 0.617330 0.249805
  C 2.520111 0.323515 0.255824
  C 3.155875 0.110974 1.560400
  H 2.462972 0.278686 2.375505
  C 3.131379 0.129627 -0.961133
  C 4.502738 -0.120626 -1.107086
  C 5.185280 -0.648879 -2.203555
  C 4.640191 -1.339146 -3.396858
  C 3.140826 -1.425096 -3.631359
  C 2.853803 -2.302355 -4.848878
  O 6.496852 -0.657488 -2.203838
  H 4.010769 0.780631 1.678760
  H 3.561824 -0.898483 1.638765
  H 2.519195 0.228508 -1.842721
  H 5.126279 0.196751 -0.278078
  H 5.048403 -2.355376 -3.360878
  H 5.121140 -0.887690 -4.272999
  H 2.727509 -0.429595 -3.821704
  H 2.645177 -1.857808 -2.762649
  H 3.323600 -1.894957 -5.742704
  H 1.780758 -2.360721 -5.028899
  H 3.225857 -3.314949 -4.698085
  H 6.920365 -0.224559 -1.433747
 23
 2.722961
  H 1.504804 0.706490 0.182918
  C 2.523293 0.345949 0.175379
  C 3.097664 -0.105271 1.448320
  H 2.380716 -0.039963 2.260359
  C 3.178666 0.292025 -1.026419
  C 4.555826 0.024819 -1.156246
  C 5.229013 -0.575836 -2.214634
  C 4.654846 -1.343104 -3.348625
  C 3.148596 -1.381755 -3.564799
  C 2.806476 -2.340036 -4.702114
  O 6.541644 -0.613181 -2.218121
  H 3.973252 0.500130 1.694184
  H 3.463363 -1.129502 1.375367
  H 2.608666 0.522186 -1.914132
  H 5.178824 0.432581 -0.365911
  H 5.023510 -2.370699 -3.232869
  H 5.146078 -0.982338 -4.258919
  H 2.779045 -0.390349 -3.830071
  H 2.643185 -1.715363 -2.657690
  H 3.282551 -2.030130 -5.628544
  H 1.732656 -2.362194 -4.867322
  H 3.133020 -3.351869 -4.472239
  H 6.975231 -0.133679 -1.486936
 23
 5.651020
  H 1.523588 0.750782 0.096630
  C 2.526175 0.350662 0.076785
  C 3.030138 -0.299736 1.296571
  H 2.273808 -0.345370 2.071852
  C 3.240604 0.440606 -1.079591
  C 4.622864 0.131898 -1.192472
  C 5.281679 -0.525707 -2.219762
  C 4.670328 -1.346422 -3.294540
  C 3.157528 -1.350690 -3.465699
  C 2.749038 -2.356342 -4.539099
  O 6.594686 -0.583046 -2.239229
  H 3.894431 0.254500 1.669846
  H 3.392325 -1.307526 1.092143
  H 2.728668 0.815922 -1.956070
  H 5.242061 0.621865 -0.447502
  H 5.019605 -2.373305 -3.132385
  H 5.140659 -1.043580 -4.236163
  H 2.808911 -0.363756 -3.768723
  H 2.668940 -1.616092 -2.526681
  H 3.202636 -2.109959 -5.496487
  H 1.668478 -2.352912 -4.669472
  H 3.053842 -3.364028 -4.266685
  H 7.045654 -0.056876 -1.551250
 23
 8.695864
  H 1.507495 0.652063 -0.009774
  C 2.528819 0.308095 -0.034236
  C 3.016418 -0.484922 1.109559
  H 2.232221 -0.673312 1.829424
  C 3.286423 0.583499 -1.124361
  C 4.682586 0.303626 -1.256249
  C 5.313803 -0.480547 -2.200310
  C 4.658910 -1.369083 -3.194403
  C 3.156491 -1.293282 -3.372822
  C 2.686431 -2.335903 -4.383239
  O 6.626103 -0.581343 -2.225032
  H 3.833085 0.060965 1.596787
  H 3.441644 -1.438176 0.789881
  H 2.805240 1.064690 -1.971305
  H 5.306598 0.828351 -0.538910
  H 4.949385 -2.394587 -2.938065
  H 5.146502 -1.179900 -4.158233
  H 2.868866 -0.302036 -3.735638
  H 2.652631 -1.469265 -2.421796
  H 3.131602 -2.160265 -5.360022
  H 1.603690 -2.296309 -4.493194
  H 2.954741 -3.335684 -4.064211
  H 7.098117 -0.021858 -1.584434
 23
 13.101434
  H 1.528938 0.643184 -0.017992
  C 2.546620 0.300812 -0.083095
  C 3.035392 -0.623499 0.964937
  H 2.235292 -0.925045 1.632159
  C 3.296149 0.679321 -1.135550
  C 4.696804 0.411975 -1.326453
  C 5.329577 -0.461795 -2.182448
  C 4.659886 -1.383076 -3.137258
  C 3.155184 -1.272624 -3.306910
  C 2.642222 -2.329736 -4.273736
  O 6.638716 -0.603298 -2.168118
  H 3.814599 -0.123573 1.543546
  H 3.497425 -1.513483 0.538469
  H 2.811516 1.231080 -1.937628
  H 5.281253 1.099773 -0.716426
  H 4.925758 -2.404411 -2.837308
  H 5.151172 -1.240216 -4.110780
  H 2.894734 -0.284389 -3.699339
  H 2.653400 -1.397038 -2.346801
  H 3.118600 -2.232783 -5.242515
  H 1.565894 -2.224379 -4.413655
  H 2.837879 -3.330881 -3.898676
  H 7.110147 -0.018313 -1.547952
 23
 19.808267
  H 1.535267 0.748134 -0.076476
  C 2.531074 0.341341 -0.143620
  C 2.944169 -0.661660 0.866217
  H 2.124823 -0.928214 1.522363
  C 3.339134 0.769088 -1.123937
  C 4.716230 0.398297 -1.358696
  C 5.357929 -0.480215 -2.176633
  C 4.679306 -1.383786 -3.143878
  C 3.163677 -1.383716 -3.164548
  C 2.632747 -2.358644 -4.217432
  O 6.665796 -0.601941 -2.180288
  H 3.759208 -0.247358 1.484575
  H 3.349984 -1.547585 0.395660
  H 2.954845 1.514982 -1.819121
  H 5.248301 1.159890 -0.760258
  H 5.048643 -2.391644 -2.937975
  H 5.060942 -1.130972 -4.135090
  H 2.801209 -0.384273 -3.408124
  H 2.761686 -1.665221 -2.193812
  H 2.970554 -2.080849 -5.216498
  H 1.552117 -2.361801 -4.214519
  H 2.972026 -3.374990 -4.014169
  H 7.139064 0.025140 -1.604364
 23
 29.253077
  H 1.551294 0.758343 0.096648
  C 2.520497 0.330902 -0.057918
  C 3.035409 -0.656726 0.909378
  H 2.324128 -0.854172 1.701404
  C 3.257984 0.778364 -1.103311
  C 4.593594 0.382188 -1.436152
  C 5.320294 -0.481088 -2.154336
  C 4.688499 -1.446813 -3.120281
  C 3.175467 -1.350208 -3.265538
  C 2.656102 -2.385505 -4.263152
  O 6.637870 -0.557872 -2.141501
  H 3.992480 -0.355952 1.321857
  H 3.262035 -1.602974 0.387133
  H 2.820036 1.576734 -1.698983
  H 4.945738 1.227373 -0.782185
  H 4.978888 -2.458074 -2.804436
  H 5.157571 -1.269663 -4.085218
  H 2.885244 -0.349032 -3.582933
  H 2.713726 -1.555760 -2.300955
  H 3.120084 -2.247384 -5.249242
  H 1.592657 -2.294148 -4.378634
  H 2.869516 -3.389313 -3.924329
  H 7.069675 0.105179 -1.572298
 23
 41.137450
  H 1.615143 0.873283 0.209614
  C 2.571746 0.411479 0.019110
  C 2.986256 -0.731200 0.833686
  H 2.198692 -1.056751 1.508080
  C 3.342286 0.927442 -1.008737
  C 4.568926 0.383384 -1.472745
  C 5.311874 -0.424422 -2.198472
  C 4.683351 -1.442896 -3.125641
  C 3.164738 -1.384430 -3.241738
  C 2.661000 -2.456741 -4.202999
  O 6.648501 -0.490352 -2.206185
  H 3.880295 -0.500017 1.422537
  H 3.289446 -1.559659 0.192375
  H 2.885336 1.689694 -1.632679
  H 4.819737 1.273559 -0.773736
  H 4.995972 -2.429492 -2.767902
  H 5.142147 -1.295330 -4.109128
  H 2.859034 -0.400656 -3.613021
  H 2.706312 -1.539840 -2.267734
  H 3.076973 -2.311678 -5.199299
  H 1.583530 -2.418696 -4.280492
  H 2.941907 -3.448695 -3.859293
  H 7.073668 0.117590 -1.583536
 23
 49.614637
  H 1.710914 1.055366 0.368186
  C 2.602481 0.502862 0.123316
  C 2.941845 -0.693094 0.890340
  H 2.162234 -0.957008 1.596512
  C 3.387100 0.967361 -0.944596
  C 4.493598 0.288250 -1.491462
  C 5.282944 -0.476039 -2.199447
  C 4.690118 -1.477602 -3.167146
  C 3.169933 -1.469164 -3.267952
  C 2.695592 -2.517804 -4.265668
  O 6.620287 -0.487506 -2.212133
  H 3.875730 -0.556869 1.440740
  H 3.130989 -1.532450 0.221388
  H 2.958690 1.775618 -1.527634
  H 4.613536 1.242178 -0.667533
  H 5.043891 -2.463529 -2.859551
  H 5.132909 -1.265724 -4.142186
  H 2.827860 -0.488436 -3.592736
  H 2.728927 -1.679829 -2.295872
  H 3.104055 -2.324241 -5.255337
  H 1.611406 -2.508890 -4.340112
  H 3.006850 -3.514444 -3.958319
  H 7.029481 0.172520 -1.630689
 23
 52.577805
  H 1.683015 0.996576 0.388868
  C 2.610579 0.498307 0.162079
  C 3.023218 -0.665084 0.946692
  H 2.260981 -0.963948 1.657259
  C 3.392583 1.009125 -0.925751
  C 4.417467 0.259805 -1.536707
  C 5.238802 -0.504282 -2.193631
  C 4.667538 -1.520510 -3.168682
  C 3.151835 -1.493463 -3.327496
  C 2.702451 -2.559107 -4.320414
  O 6.575773 -0.552112 -2.140362
  H 3.946815 -0.464635 1.496484
  H 3.262890 -1.505020 0.289534
  H 2.918493 1.783885 -1.525937
  H 4.392900 1.440105 -0.524395
  H 4.997557 -2.503036 -2.823397
  H 5.152079 -1.332216 -4.128986
  H 2.835152 -0.513731 -3.686912
  H 2.670276 -1.676943 -2.366514
  H 3.152140 -2.392879 -5.296311
  H 1.622120 -2.538194 -4.437976
  H 2.987351 -3.551601 -3.979153
  H 6.972208 0.096143 -1.536327
 23
 51.456870
  H 1.691158 0.889462 0.453821
  C 2.633470 0.423456 0.216943
  C 3.084944 -0.737605 0.972198
  H 2.342970 -1.069166 1.691350
  C 3.409009 0.997896 -0.867242
  C 4.404985 0.245273 -1.529550
  C 5.218243 -0.517653 -2.189848
  C 4.642954 -1.520639 -3.181354
  C 3.129461 -1.472024 -3.354340
  C 2.674836 -2.529470 -4.354461
  O 6.559321 -0.574226 -2.143211
  H 4.015429 -0.524538 1.506037
  H 3.337421 -1.559922 0.295568
  H 2.879821 1.727203 -1.481436
  H 4.235219 1.551835 -0.341972
  H 4.956742 -2.508789 -2.837533
  H 5.140670 -1.331007 -4.134503
  H 2.830932 -0.486582 -3.714612
  H 2.636144 -1.650805 -2.398296
  H 3.137763 -2.368125 -5.325145
  H 1.596330 -2.492670 -4.484553
  H 2.941320 -3.526721 -4.011729
  H 6.956566 0.068438 -1.535418
 23
 50.180265
  H 1.751069 0.902686 0.548588
  C 2.658185 0.395740 0.247447
  C 3.078623 -0.821341 0.924232
  H 2.363806 -1.146128 1.670622
  C 3.429641 0.999090 -0.832278
  C 4.400063 0.241031 -1.525146
  C 5.199084 -0.570110 -2.144429
  C 4.620596 -1.590536 -3.116077
  C 3.127589 -1.450258 -3.387974
  C 2.656236 -2.538099 -4.346031
  O 6.537911 -0.639749 -2.090422
  H 4.050188 -0.684158 1.404586
  H 3.251031 -1.621676 0.199383
  H 2.853354 1.684089 -1.459704
  H 4.120622 1.660425 -0.263301
  H 4.842436 -2.575777 -2.698730
  H 5.188513 -1.491148 -4.043520
  H 2.924545 -0.474812 -3.827697
  H 2.566542 -1.528242 -2.455727
  H 3.193926 -2.480608 -5.290779
  H 1.594710 -2.428009 -4.553037
  H 2.819253 -3.524864 -3.922072
  H 6.934851 0.021216 -1.501805
 23
 47.945411
  H 1.995553 1.056205 0.803892
  C 2.741354 0.440874 0.327112
  C 3.046938 -0.877665 0.844986
  H 2.401089 -1.170655 1.663783
  C 3.433439 1.006054 -0.821898
  C 4.436196 0.259912 -1.477983
  C 5.208367 -0.566051 -2.110646
  C 4.625996 -1.597021 -3.068005
  C 3.138423 -1.442173 -3.365748
  C 2.672655 -2.525909 -4.329886
  O 6.555612 -0.632686 -2.074975
  H 4.089949 -0.916588 1.177337
  H 3.005305 -1.619441 0.040767
  H 2.722216 1.450087 -1.535703
  H 3.925215 1.931684 -0.462762
  H 4.830234 -2.578503 -2.630371
  H 5.207391 -1.521272 -3.988786
  H 2.953475 -0.464964 -3.812434
  H 2.559572 -1.514327 -2.445218
  H 3.220264 -2.469478 -5.268739
  H 1.614157 -2.411505 -4.548098
  H 2.827579 -3.516006 -3.904994
  H 6.951796 0.018188 -1.475505
