 16
 0.000000
  C 1.023062 0.132207 0.382493
  C 2.489264 0.133181 0.383353
  C 3.229729 0.604130 1.554553
  H 2.575175 0.927032 2.359032
  C 3.131898 -0.330790 -0.772193
  C 4.524034 -0.400820 -0.948580
  C 5.115933 -0.855550 -2.082026
  H 4.570553 -1.203161 -2.947737
  H 6.190337 -0.890229 -2.169388
  H 0.606518 0.508340 1.312503
  H 0.643352 -0.876924 0.205139
  H 0.645145 0.740571 -0.442761
  H 3.891000 1.428752 1.277909
  H 3.891923 -0.181947 1.925135
  H 2.506411 -0.660855 -1.592897
  H 5.154240 -0.072947 -0.132653
 16
 13.059266
  C 1.056919 0.143036 0.407226
  C 2.554689 0.087241 0.267966
  C 3.322286 0.560612 1.445532
  H 2.653079 0.879456 2.240039
  C 3.001418 -0.383377 -0.903726
  C 4.366928 -0.376036 -0.886572
  C 5.113613 -0.805651 -1.957361
  H 4.648270 -1.167397 -2.858412
  H 6.188412 -0.798209 -1.939205
  H 0.727337 0.528114 1.366084
  H 0.642762 -0.858184 0.248510
  H 0.642929 0.756948 -0.399455
  H 3.971758 1.402737 1.191550
  H 3.972541 -0.222668 1.844473
  H 2.390259 -0.714610 -1.727883
  H 4.918961 -0.030759 -0.026951
 16
 45.594370
  C 1.060959 0.156234 0.440096
  C 2.644780 0.056080 0.190123
  C 3.377263 0.532646 1.376046
  H 2.686006 0.839775 2.141730
  C 2.914034 -0.425368 -1.008940
  C 4.265489 -0.366959 -0.863932
  C 5.124117 -0.773293 -1.876289
  H 4.750220 -1.152070 -2.819779
  H 6.197797 -0.729871 -1.768744
  H 0.789151 0.547766 1.415446
  H 0.630157 -0.838728 0.305769
  H 0.629774 0.782255 -0.345123
  H 4.015400 1.392285 1.153341
  H 4.016458 -0.241395 1.809531
  H 2.288306 -0.750139 -1.817553
  H 4.781078 -0.019051 0.002155
 16
 84.967566
  C 1.031126 0.151100 0.435811
  C 2.784952 0.038925 0.140769
  C 3.383117 0.540923 1.393712
  H 2.647085 0.824554 2.111710
  C 2.869908 -0.438491 -1.063962
  C 4.269004 -0.364093 -0.854071
  C 5.088758 -0.771869 -1.855646
  H 4.716497 -1.149882 -2.788304
  H 6.155856 -0.718900 -1.747406
  H 0.829230 0.544819 1.414176
  H 0.654918 -0.856188 0.325242
  H 0.658383 0.802200 -0.343277
  H 4.003323 1.438704 1.204619
  H 4.004802 -0.239629 1.872639
  H 2.247402 -0.755884 -1.858166
  H 4.830199 -0.018993 -0.011428
 16
 103.926337
  C 0.862104 0.161971 0.470126
  C 2.963676 0.038258 0.128917
  C 3.404073 0.549263 1.414261
  H 2.585514 0.808799 2.076492
  C 2.883854 -0.427561 -1.053451
  C 4.367369 -0.362278 -0.856656
  C 5.110260 -0.786391 -1.886619
  H 4.692347 -1.163472 -2.802888
  H 6.184896 -0.759556 -1.831981
  H 0.715421 0.555702 1.445535
  H 0.587358 -0.873577 0.352682
  H 0.585665 0.829081 -0.329672
  H 3.994432 1.452806 1.273635
  H 3.996766 -0.203652 1.930162
  H 2.268071 -0.749894 -1.861831
  H 4.969381 -0.019846 -0.036099
 16
 109.514613
  C 0.592735 0.209416 0.540277
  C 3.144043 0.056809 0.102924
  C 3.458523 0.537542 1.416355
  H 2.555507 0.747219 1.982075
  C 2.963887 -0.445755 -1.035395
  C 4.497399 -0.361754 -0.891668
  C 5.194135 -0.803601 -1.937561
  H 4.737404 -1.192449 -2.831185
  H 6.269300 -0.761943 -1.933610
  H 0.456473 0.616485 1.522492
  H 0.370636 -0.831410 0.413576
  H 0.357907 0.856903 -0.281277
  H 4.038823 1.459308 1.360139
  H 4.027691 -0.210746 1.969361
  H 2.337652 -0.800022 -1.815116
  H 5.133411 -0.005629 -0.092364
 16
 106.929144
  C 0.184395 0.228719 0.644490
  C 3.415059 0.050533 0.138407
  C 3.528200 0.564443 1.447706
  H 2.511097 0.697992 1.805533
  C 3.118811 -0.395483 -0.995144
  C 4.697892 -0.399585 -0.949927
  C 5.284985 -0.852010 -2.047012
  H 4.744897 -1.209027 -2.908308
  H 6.359889 -0.882656 -2.109884
  H 0.045369 0.624544 1.628287
  H 0.085001 -0.826219 0.495297
  H 0.076280 0.887789 -0.189526
  H 4.039321 1.526767 1.464070
  H 4.049158 -0.129626 2.107413
  H 2.520321 -0.721490 -1.809105
  H 5.380733 -0.076086 -0.167691
 16
 107.676572
  C -0.172993 0.250702 0.731582
  C 3.541468 0.057807 0.100530
  C 3.620298 0.558405 1.427238
  H 2.590045 0.691184 1.764836
  C 3.200472 -0.370515 -1.028526
  C 4.788435 -0.402966 -0.974906
  C 5.375149 -0.876173 -2.066238
  H 4.836377 -1.243953 -2.916666
  H 6.448468 -0.914425 -2.126963
  H -0.289584 0.640340 1.718439
  H -0.209151 -0.802023 0.573873
  H -0.228451 0.913490 -0.102502
  H 4.132688 1.517300 1.467913
  H 4.123914 -0.141640 2.090951
  H 2.618753 -0.707122 -1.849998
  H 5.472837 -0.062890 -0.193900
 16
 107.991363
  C -0.635099 0.287414 0.869446
  C 3.679754 0.042097 0.065438
  C 3.716233 0.553540 1.387370
  H 2.669675 0.695677 1.692170
  C 3.337157 -0.378243 -1.070518
  C 4.929203 -0.427887 -1.008307
  C 5.519743 -0.897635 -2.102355
  H 4.984028 -1.238102 -2.966195
  H 6.593284 -0.946245 -2.155551
  H -0.727646 0.685151 1.860375
  H -0.628357 -0.771155 0.717409
  H -0.651638 0.947332 0.025559
  H 4.236786 1.515337 1.436214
  H 4.198280 -0.145152 2.077968
  H 2.772020 -0.685572 -1.914691
  H 5.610182 -0.113750 -0.218391
 16
 109.754393
  C -0.947723 0.319319 0.976785
  C 3.752502 0.017963 0.006097
  C 3.780683 0.533659 1.329778
  H 2.743440 0.697301 1.632238
  C 3.399957 -0.391929 -1.124107
  C 4.997510 -0.429895 -1.008168
  C 5.615021 -0.898516 -2.081300
  H 5.100376 -1.237853 -2.959271
  H 6.690652 -0.931139 -2.114500
  H -1.012930 0.720100 1.963421
  H -0.942209 -0.739546 0.829571
  H -0.970681 0.970550 0.131496
  H 4.316696 1.481875 1.376972
  H 4.243546 -0.168628 2.023524
  H 2.836586 -0.668907 -1.977977
  H 5.667474 -0.122880 -0.204242
 16
 110.399689
  C -1.346002 0.356233 1.117749
  C 3.850285 0.001180 -0.042782
  C 3.842120 0.522722 1.277427
  H 2.798384 0.709575 1.541594
  C 3.510047 -0.402393 -1.177055
  C 5.111651 -0.433235 -1.025861
  C 5.737797 -0.903457 -2.092267
  H 5.232755 -1.237775 -2.977425
  H 6.810293 -0.953522 -2.107678
  H -1.379587 0.759324 2.101520
  H -1.334827 -0.702691 0.973601
  H -1.371801 1.004054 0.271388
  H 4.398969 1.459962 1.337538
  H 4.267388 -0.184346 1.992088
  H 2.973584 -0.646556 -2.048843
  H 5.774374 -0.154848 -0.207324
 16
 110.083260
  C -1.835050 0.411173 1.306990
  C 3.948913 -0.022119 -0.102797
  C 3.899343 0.508516 1.214865
  H 2.851769 0.723195 1.431908
  C 3.655432 -0.432199 -1.249027
  C 5.253521 -0.446494 -1.059264
  C 5.906530 -0.905206 -2.113630
  H 5.426291 -1.225485 -3.020653
  H 6.976666 -0.964488 -2.096149
  H -1.819392 0.820008 2.291276
  H -1.827014 -0.647509 1.167803
  H -1.874543 1.056466 0.457819
  H 4.476936 1.429965 1.293257
  H 4.274975 -0.202023 1.951673
  H 3.163195 -0.656376 -2.160619
  H 5.892552 -0.199480 -0.207046
 16
 109.755435
  C -2.329254 0.480450 1.523327
  C 4.028610 -0.050168 -0.178450
  C 3.930932 0.484582 1.136250
  H 2.881919 0.720216 1.305456
  C 3.795866 -0.472253 -1.335291
  C 5.383070 -0.460804 -1.091174
  C 6.089981 -0.897347 -2.122834
  H 5.656390 -1.201932 -3.057203
  H 7.159394 -0.953746 -2.054271
  H -2.257571 0.898335 2.504424
  H -2.342253 -0.577847 1.394389
  H -2.402659 1.119701 0.672375
  H 4.522304 1.394621 1.239399
  H 4.256927 -0.231054 1.890151
  H 3.352180 -0.682072 -2.277284
  H 5.971669 -0.243557 -0.203230
 16
 110.478654
  C -2.738074 0.551439 1.724906
  C 4.073033 -0.081977 -0.253345
  C 3.929052 0.456069 1.057258
  H 2.877947 0.709390 1.189033
  C 3.881323 -0.513179 -1.412057
  C 5.457995 -0.464829 -1.101031
  C 6.221309 -0.872508 -2.104792
  H 5.836440 -1.167979 -3.063017
  H 7.287904 -0.919623 -1.984804
  H -2.612418 0.977652 2.699657
  H -2.782095 -0.507975 1.608548
  H -2.852445 1.183573 0.876101
  H 4.529354 1.356289 1.182850
  H 4.213510 -0.264818 1.823586
  H 3.470444 -0.715820 -2.368599
  H 6.001040 -0.277319 -0.177784
