 20
 0.000000
  H 1.482882 0.138692 0.397311
  C 2.563098 0.133657 0.384419
  C 3.276974 0.612109 1.573897
  C 2.367613 1.067585 2.707184
  H 2.957390 1.407655 3.552902
  C 3.170057 -0.328187 -0.764691
  C 4.552562 -0.404101 -0.954103
  C 5.197254 -0.864902 -2.104180
  C 4.538236 -1.355065 -3.327565
  H 3.457468 -1.344347 -3.302006
  O 6.503715 -0.887464 -2.161032
  H 3.939184 1.438800 1.290005
  H 3.939561 -0.180673 1.941210
  H 1.728399 0.253517 3.041106
  H 1.728183 1.886132 2.384768
  H 2.524429 -0.650802 -1.567861
  H 5.184986 -0.077235 -0.138844
  H 4.889058 -2.369429 -3.525400
  H 4.889778 -0.758454 -4.171159
  H 6.936859 -0.561748 -1.348459
 20
 -0.164531
  H 1.514668 0.255174 0.373810
  C 2.591168 0.175611 0.372667
  C 3.279352 0.595499 1.596600
  C 2.336046 1.041709 2.704039
  H 2.898669 1.343097 3.584589
  C 3.191152 -0.298233 -0.774506
  C 4.571735 -0.410770 -0.951109
  C 5.208579 -0.862666 -2.110611
  C 4.524216 -1.383614 -3.309331
  H 3.446987 -1.412785 -3.211333
  O 6.509803 -0.848669 -2.206004
  H 3.972007 1.410222 1.360156
  H 3.913725 -0.223088 1.960969
  H 1.664157 0.233200 2.991212
  H 1.730557 1.888374 2.382094
  H 2.538871 -0.579492 -1.590074
  H 5.206681 -0.100231 -0.133668
  H 4.900475 -2.385104 -3.523918
  H 4.800820 -0.774776 -4.172234
  H 6.983967 -0.503018 -1.424580
 20
 -0.052879
  H 1.526350 0.374222 0.329047
  C 2.599784 0.223209 0.353873
  C 3.278680 0.575456 1.605729
  C 2.329596 1.013347 2.710043
  H 2.883745 1.269287 3.607294
  C 3.201168 -0.263810 -0.786627
  C 4.580478 -0.419882 -0.945186
  C 5.211947 -0.862764 -2.110859
  C 4.518645 -1.405051 -3.294356
  H 3.448266 -1.506938 -3.155292
  O 6.510863 -0.819477 -2.228114
  H 3.999465 1.379883 1.409249
  H 3.880694 -0.269469 1.949878
  H 1.632388 0.217633 2.959065
  H 1.753464 1.887626 2.406140
  H 2.554494 -0.501891 -1.618624
  H 5.217290 -0.129057 -0.120076
  H 4.952157 -2.377951 -3.543255
  H 4.720249 -0.766050 -4.151279
  H 6.991214 -0.457941 -1.458712
 20
 0.162786
  H 1.562170 0.518772 0.279939
  C 2.613092 0.272324 0.336975
  C 3.280407 0.549217 1.611522
  C 2.328089 0.995201 2.711992
  H 2.876028 1.201063 3.628189
  C 3.209242 -0.237531 -0.796533
  C 4.579185 -0.475846 -0.925529
  C 5.212896 -0.886847 -2.101759
  C 4.520616 -1.389024 -3.303525
  H 3.463050 -1.554603 -3.148993
  O 6.511257 -0.830291 -2.217993
  H 4.037328 1.332294 1.453727
  H 3.839599 -0.330167 1.939600
  H 1.592585 0.221676 2.924369
  H 1.797699 1.897931 2.425300
  H 2.574255 -0.402883 -1.652673
  H 5.215935 -0.235434 -0.077792
  H 4.995447 -2.316433 -3.621414
  H 4.667853 -0.684651 -4.125451
  H 6.988847 -0.489826 -1.437937
 20
 0.269386
  H 1.589235 0.576629 0.258160
  C 2.630858 0.296747 0.328035
  C 3.280099 0.516780 1.625646
  C 2.327842 1.008983 2.706462
  H 2.863027 1.173054 3.638777
  C 3.232072 -0.213383 -0.804967
  C 4.594058 -0.502790 -0.917087
  C 5.225031 -0.904432 -2.098678
  C 4.521649 -1.351638 -3.316286
  H 3.459505 -1.484455 -3.169983
  O 6.527384 -0.889660 -2.209238
  H 4.087805 1.252179 1.498416
  H 3.775114 -0.401954 1.956566
  H 1.543617 0.281025 2.891225
  H 1.860039 1.946819 2.415988
  H 2.607296 -0.337305 -1.677109
  H 5.222570 -0.321864 -0.054159
  H 4.965949 -2.287185 -3.656787
  H 4.697138 -0.632478 -4.118455
  H 7.012159 -0.577107 -1.420592
 20
 0.312049
  H 1.660073 0.759140 0.208836
  C 2.668753 0.383156 0.298484
  C 3.303347 0.545234 1.614117
  C 2.332069 0.961503 2.710562
  H 2.854083 1.080474 3.655042
  C 3.253925 -0.162866 -0.820517
  C 4.593512 -0.551105 -0.904371
  C 5.228899 -0.952341 -2.082775
  C 4.526399 -1.315900 -3.330091
  H 3.465100 -1.472048 -3.186852
  O 6.528892 -1.009903 -2.165374
  H 4.083944 1.313276 1.526633
  H 3.826853 -0.371785 1.905343
  H 1.555905 0.212602 2.842055
  H 1.852010 1.907481 2.468338
  H 2.643275 -0.232085 -1.709790
  H 5.209187 -0.437752 -0.020959
  H 4.985467 -2.209595 -3.747388
  H 4.678125 -0.528606 -4.071399
  H 7.012907 -0.777387 -1.348913
 20
 0.289892
  H 1.824208 1.079700 0.130585
  C 2.758369 0.551436 0.256692
  C 3.358270 0.619343 1.595228
  C 2.354408 0.971898 2.686300
  H 2.831028 0.938593 3.660707
  C 3.293596 -0.075825 -0.847185
  C 4.556792 -0.673885 -0.871650
  C 5.192882 -1.106316 -2.042163
  C 4.523661 -1.249060 -3.350118
  H 3.454154 -1.394834 -3.258677
  O 6.465757 -1.395895 -2.056052
  H 4.130482 1.401416 1.570961
  H 3.880493 -0.305110 1.847905
  H 1.527278 0.264389 2.688520
  H 1.948979 1.968980 2.540829
  H 2.723637 -0.026802 -1.760928
  H 5.128056 -0.697148 0.047722
  H 4.972600 -2.078729 -3.892855
  H 4.710760 -0.355456 -3.949540
  H 6.934317 -1.290697 -1.204477
 20
 3.547527
  H 1.834177 1.057754 0.118369
  C 2.710161 0.444426 0.262098
  C 3.362336 0.552083 1.574756
  C 2.438510 1.095075 2.659797
  H 2.937790 1.068951 3.622447
  C 3.181523 -0.256892 -0.816715
  C 4.455484 -0.878694 -0.835557
  C 5.184309 -1.091521 -2.039997
  C 4.600529 -1.166751 -3.393391
  H 3.519143 -1.216162 -3.388346
  O 6.477595 -1.166930 -2.028491
  H 4.221221 1.238915 1.471529
  H 3.775244 -0.400693 1.889876
  H 1.531990 0.498420 2.730119
  H 2.154130 2.124177 2.453391
  H 2.617742 -0.181157 -1.728235
  H 4.981621 -0.972345 0.109904
  H 4.999042 -2.045753 -3.893895
  H 4.935184 -0.309803 -3.988572
  H 6.882646 -1.112093 -1.141080
