 17
 0.000000
  H 1.482129 0.164177 0.458639
  C 2.563617 0.155975 0.437771
  C 3.257347 0.635849 1.632271
  C 2.332077 1.084862 2.751747
  H 2.908325 1.427785 3.606468
  C 3.166586 -0.306430 -0.713042
  C 4.548410 -0.389053 -0.918797
  C 5.106347 -0.860337 -2.091107
  H 4.513039 -1.198722 -2.932542
  O 6.379445 -0.942430 -2.295235
  H 3.928381 1.460032 1.357804
  H 3.928667 -0.149103 2.003771
  H 1.692176 0.268468 3.078659
  H 1.691817 1.900566 2.423904
  H 2.526424 -0.631448 -1.521622
  H 5.239007 -0.078705 -0.146735
  H 6.920275 -0.637023 -1.536660
 17
 4.657895
  H 1.485080 0.170851 0.460835
  C 2.566529 0.140012 0.463853
  C 3.234732 0.646986 1.661339
  C 2.287294 1.123464 2.749874
  H 2.844571 1.489508 3.607279
  C 3.190083 -0.367731 -0.655659
  C 4.576332 -0.384887 -0.863891
  C 5.117304 -0.767724 -2.074122
  H 4.461934 -1.001775 -2.909829
  O 6.376467 -0.734166 -2.391523
  H 3.918562 1.460047 1.384126
  H 3.897789 -0.131540 2.061804
  H 1.642522 0.314850 3.084779
  H 1.652859 1.929472 2.388620
  H 2.566773 -0.760363 -1.447021
  H 5.236621 -0.015088 -0.093329
  H 7.023427 -1.020488 -1.716982
 17
 13.262294
  H 1.472315 0.051241 0.507387
  C 2.554052 0.101345 0.488761
  C 3.208678 0.640569 1.675265
  C 2.259093 1.136838 2.750467
  H 2.813426 1.541526 3.592773
  C 3.190774 -0.358541 -0.645030
  C 4.579038 -0.339369 -0.851546
  C 5.145963 -0.719871 -2.044842
  H 4.518424 -0.951822 -2.905110
  O 6.436965 -0.626893 -2.284376
  H 3.902870 1.440962 1.385591
  H 3.873529 -0.128817 2.094813
  H 1.625284 0.331878 3.114713
  H 1.610746 1.920880 2.364134
  H 2.580545 -0.755300 -1.445069
  H 5.251662 0.015347 -0.083642
  H 7.034632 -1.341653 -2.013789
 17
 8.338339
  H 1.475614 0.075512 0.502570
  C 2.556629 0.131372 0.497075
  C 3.192922 0.661224 1.698130
  C 2.221134 1.119691 2.772486
  H 2.757484 1.529583 3.622148
  C 3.209191 -0.308526 -0.635992
  C 4.598897 -0.289110 -0.819971
  C 5.192195 -0.745680 -1.975871
  H 4.583794 -1.125216 -2.797132
  O 6.483401 -0.623652 -2.159547
  H 3.869581 1.482768 1.429090
  H 3.869253 -0.100589 2.109750
  H 1.603201 0.296891 3.119608
  H 1.559254 1.895580 2.388729
  H 2.608087 -0.693913 -1.448730
  H 5.257885 0.069186 -0.039912
  H 6.980708 -1.424374 -2.404692
 17
 1.654862
  H 1.487012 0.151841 0.443751
  C 2.568255 0.191445 0.457354
  C 3.193491 0.690533 1.682326
  C 2.206106 1.074567 2.771509
  H 2.731021 1.445300 3.648068
  C 3.234866 -0.242577 -0.667766
  C 4.626679 -0.254831 -0.818606
  C 5.239658 -0.829159 -1.917978
  H 4.640566 -1.345376 -2.661908
  O 6.526370 -0.752628 -2.060838
  H 3.831116 1.551501 1.438233
  H 3.897100 -0.061093 2.066293
  H 1.606702 0.220196 3.071622
  H 1.531093 1.854876 2.426217
  H 2.642493 -0.607687 -1.496200
  H 5.269130 0.180575 -0.066742
  H 6.937461 -1.358040 -2.707705
 17
 5.935253
  H 1.463389 -0.085515 0.563875
  C 2.544651 -0.019370 0.539759
  C 3.197033 0.602905 1.691800
  C 2.240087 1.274504 2.662731
  H 2.781701 1.668060 3.519893
  C 3.192828 -0.515761 -0.564874
  C 4.586570 -0.522697 -0.738808
  C 5.212713 -0.606840 -1.965738
  H 4.666938 -0.521146 -2.902727
  O 6.510988 -0.656640 -1.969714
  H 3.963653 1.315826 1.361920
  H 3.765785 -0.175229 2.217102
  H 1.492252 0.572340 3.025240
  H 1.721706 2.101506 2.184218
  H 2.591996 -0.913966 -1.373985
  H 5.276179 -0.585453 0.096926
  H 6.967732 -1.026531 -2.748601
 17
 19.843740
  H 1.413910 -0.131491 0.633342
  C 2.492462 -0.084554 0.552537
  C 3.213597 0.589362 1.637767
  C 2.313275 1.316589 2.624857
  H 2.902294 1.773980 3.416759
  C 3.078715 -0.617332 -0.563841
  C 4.466702 -0.618806 -0.809937
  C 5.196874 -0.413130 -1.950808
  H 4.864539 0.053318 -2.869111
  O 6.484001 -0.660299 -1.773014
  H 3.946601 1.286528 1.221562
  H 3.818083 -0.162925 2.164394
  H 1.597320 0.634306 3.080850
  H 1.753758 2.102176 2.127597
  H 2.445910 -1.085099 -1.308179
  H 5.236690 -0.986649 -0.120818
  H 6.970052 -1.098995 -2.487634
 17
 38.403464
  H 1.400897 -0.271468 0.748445
  C 2.471898 -0.137965 0.587382
  C 3.209502 0.613584 1.615143
  C 2.316884 1.367836 2.585994
  H 2.906047 1.854864 3.359331
  C 3.058354 -0.672077 -0.512900
  C 4.423857 -0.616109 -0.848477
  C 5.196832 -0.280973 -1.918192
  H 5.039689 0.493530 -2.655070
  O 6.427775 -0.760113 -1.749268
  H 3.951097 1.289579 1.175381
  H 3.801791 -0.122881 2.185794
  H 1.600282 0.699110 3.065307
  H 1.745047 2.126411 2.070348
  H 2.421305 -1.229457 -1.196527
  H 5.246315 -1.242222 -0.397649
  H 6.872015 -1.202175 -2.490378
 17
 62.128938
  H 1.398028 -0.321863 0.796002
  C 2.441587 -0.151934 0.577056
  C 3.224071 0.616506 1.561645
  C 2.363094 1.327362 2.597141
  H 2.988543 1.849715 3.317232
  C 2.950470 -0.661159 -0.589550
  C 4.247251 -0.509737 -1.019463
  C 5.145759 -0.177119 -1.907240
  H 5.167510 0.505697 -2.735223
  O 6.371499 -0.782493 -1.492036
  H 3.862675 1.337944 1.041033
  H 3.912537 -0.062490 2.079325
  H 1.738737 0.620386 3.139748
  H 1.713009 2.058606 2.122018
  H 2.315969 -1.291787 -1.201240
  H 5.569730 -1.150914 -0.574411
  H 6.824019 -1.325057 -2.173847
 17
 53.242133
  H 1.409344 -0.389166 0.836458
  C 2.428697 -0.152571 0.589744
  C 3.198062 0.674472 1.544501
  C 2.338383 1.310334 2.621751
  H 2.961229 1.826068 3.353188
  C 2.926461 -0.601344 -0.615671
  C 4.200581 -0.448285 -1.071714
  C 5.157274 -0.157200 -1.879165
  H 5.235360 0.563263 -2.682184
  O 6.374840 -0.859879 -1.453847
  H 3.764168 1.449397 1.002857
  H 3.952343 0.037839 2.017303
  H 1.762161 0.552294 3.153072
  H 1.651721 2.029090 2.199408
  H 2.295501 -1.282176 -1.192861
  H 5.803346 -1.215331 -0.683639
  H 6.741519 -1.420788 -2.175178
 17
 49.775364
  H 1.369239 -0.321370 0.814592
  C 2.393334 -0.161242 0.579331
  C 3.219642 0.621812 1.540823
  C 2.374242 1.305292 2.600719
  H 3.018720 1.825902 3.309941
  C 2.874079 -0.672578 -0.620124
  C 4.153015 -0.504974 -1.095544
  C 5.097706 -0.211673 -1.915225
  H 5.159079 0.500543 -2.716695
  O 6.378726 -0.741117 -1.429214
  H 3.809416 1.363306 0.989005
  H 3.941857 -0.032676 2.021221
  H 1.782843 0.577894 3.152994
  H 1.703351 2.030009 2.159368
  H 2.232026 -1.305341 -1.187140
  H 5.880992 -1.159306 -0.632736
  H 6.902472 -1.253207 -2.083714
 17
 42.703327
  H 1.364716 -0.360979 0.842905
  C 2.396580 -0.187659 0.589875
  C 3.213185 0.611376 1.531244
  C 2.371515 1.313672 2.592887
  H 3.008183 1.862242 3.282680
  C 2.865330 -0.681604 -0.607361
  C 4.099373 -0.473204 -1.113850
  C 5.095943 -0.188037 -1.878076
  H 5.175228 0.516936 -2.686311
  O 6.402854 -0.721224 -1.452031
  H 3.800586 1.349280 0.974620
  H 3.940000 -0.038447 2.027559
  H 1.793032 0.591114 3.169252
  H 1.679527 2.016794 2.133412
  H 2.222405 -1.341311 -1.177846
  H 6.070148 -1.195981 -0.650977
  H 6.865030 -1.237033 -2.153094
 17
 39.278475
  H 1.390004 -0.444228 0.897096
  C 2.406017 -0.220181 0.613767
  C 3.199239 0.636157 1.527849
  C 2.341872 1.332116 2.578447
  H 2.966087 1.891612 3.271200
  C 2.878987 -0.711169 -0.585958
  C 4.103555 -0.483534 -1.099085
  C 5.122013 -0.158559 -1.815946
  H 5.220944 0.643378 -2.531823
  O 6.423831 -0.770568 -1.515714
  H 3.752303 1.380188 0.947061
  H 3.953122 0.023517 2.036489
  H 1.767579 0.606685 3.151186
  H 1.645822 2.025771 2.111043
  H 2.239425 -1.375841 -1.156223
  H 6.202376 -1.384868 -0.780473
  H 6.844096 -1.187286 -2.304876
 17
 37.774760
  H 1.426210 -0.557899 0.922306
  C 2.419019 -0.267060 0.622004
  C 3.138596 0.708053 1.476298
  C 2.256455 1.298647 2.569672
  H 2.824458 1.990840 3.185527
  C 2.934552 -0.790286 -0.548678
  C 4.142302 -0.508635 -1.070187
  C 5.159267 -0.143212 -1.768722
  H 5.213700 0.650422 -2.498936
  O 6.490610 -0.699288 -1.519320
  H 3.544441 1.511367 0.852719
  H 4.000080 0.217073 1.942454
  H 1.862242 0.515857 3.214119
  H 1.417605 1.839781 2.137989
  H 2.345071 -1.522508 -1.086670
  H 6.405013 -1.321184 -0.760380
  H 6.877650 -1.118777 -2.326153
 17
 37.897354
  H 1.359480 -0.450451 0.853792
  C 2.378770 -0.220489 0.587274
  C 3.125818 0.713360 1.465177
  C 2.267907 1.280285 2.589668
  H 2.843988 1.974502 3.196362
  C 2.902370 -0.778787 -0.558748
  C 4.152377 -0.585174 -1.025571
  C 5.155420 -0.205221 -1.737389
  H 5.162532 0.577981 -2.483158
  O 6.513534 -0.682788 -1.520901
  H 3.531586 1.532426 0.861639
  H 3.987785 0.195259 1.898984
  H 1.904132 0.485219 3.236943
  H 1.408694 1.813360 2.188416
  H 2.291813 -1.483337 -1.110940
  H 6.560040 -1.301713 -0.756504
  H 6.911026 -1.061243 -2.341003
