18
 0
 C -2.68196700 0.13308300 -0.17977000
 C -1.28528600 -0.32391400 -0.75740100
 C -0.34214300 -0.00575600 0.35130500
 C 1.07056000 -0.16406200 0.26965000
 C 2.05937000 0.61589800 -0.53479400
 O 3.24521300 0.00940200 0.08208300
 O 3.85958600 -0.55915400 -0.97466800
 H -2.73498700 1.21934700 -0.31774000
 H -2.70538300 -0.13803900 0.90207600
 H -3.43208800 -0.42906000 -0.70751000
 H -1.37693500 -1.50530300 -0.60475000
 H -1.22357800 -0.06024500 -1.75299100
 H -0.49732100 1.19917900 0.46383200
 H -0.72558400 -0.32501100 1.33509200
 H 1.03701300 -1.06663100 -0.72632300
 H 1.58148600 -0.96948700 0.88425800
 H 2.06353600 1.68311600 -0.09514300
 H 2.08850900 0.68663700 -1.54744700
