 11
 0.000000
  H 1.387005 0.124571 0.359727
  C 2.463543 0.118610 0.345667
  H 2.995343 0.467018 1.214641
  C 3.101303 -0.331824 -0.776478
  C 4.498470 -0.378745 -0.892700
  C 5.155371 -0.836379 -2.032604
  H 4.608907 -1.186570 -2.904140
  O 6.424038 -0.895976 -2.181919
  H 2.508169 -0.668421 -1.616251
  H 5.088132 -0.039809 -0.047943
  H 6.967949 -0.590025 -1.422485
 11
 0.641612
  H 1.419241 0.363490 0.296094
  C 2.472458 0.143508 0.308709
  H 3.028074 0.467444 1.173620
  C 3.091983 -0.444919 -0.754082
  C 4.493677 -0.508775 -0.833850
  C 5.149920 -0.805450 -2.026480
  H 4.578734 -1.079692 -2.912394
  O 6.413310 -0.779445 -2.214834
  H 2.508496 -0.803205 -1.591367
  H 5.072631 -0.240464 0.041768
  H 6.969475 -0.529920 -1.441598
 11
 3.274916
  H 1.481550 0.499011 0.221244
  C 2.511592 0.195324 0.268999
  H 3.069323 0.550810 1.123992
  C 3.072477 -0.555825 -0.719587
  C 4.474566 -0.626402 -0.817072
  C 5.139587 -0.736612 -2.034333
  H 4.578139 -0.876188 -2.957337
  O 6.405973 -0.663224 -2.204743
  H 2.464906 -0.960172 -1.518647
  H 5.060329 -0.464468 0.079405
  H 6.953003 -0.578253 -1.393179
 11
 11.486500
  H 1.662451 0.772399 0.007604
  C 2.556501 0.197757 0.189922
  H 3.116868 0.520234 1.058900
  C 3.037685 -0.746568 -0.656186
  C 4.449525 -0.686343 -0.779454
  C 5.097612 -0.625404 -2.001627
  H 4.532323 -0.550643 -2.922731
  O 6.373526 -0.601523 -2.175653
  H 2.443316 -1.208904 -1.429938
  H 5.046095 -0.630230 0.123412
  H 6.922626 -0.656002 -1.363885
 11
 24.664615
  H 1.887252 0.902323 -0.220064
  C 2.693168 0.240537 0.076247
  H 3.128264 0.470917 1.037710
  C 3.004733 -0.860944 -0.646247
  C 4.428223 -0.672274 -0.697612
  C 5.034774 -0.526842 -1.931098
  H 4.450450 -0.384543 -2.834173
  O 6.312505 -0.533506 -2.149258
  H 2.421518 -1.348900 -1.405831
  H 5.036384 -0.804581 0.186447
  H 6.877281 -0.697859 -1.365515
 11
 33.657330
  H 2.288868 1.025949 -0.444962
  C 2.894123 0.212584 -0.047877
  H 3.298985 0.420511 0.932891
  C 2.895537 -1.021104 -0.649738
  C 4.322838 -0.727619 -0.654986
  C 4.969552 -0.439436 -1.855844
  H 4.406040 -0.224915 -2.756942
  O 6.252650 -0.444774 -2.041280
  H 2.276507 -1.452962 -1.408956
  H 4.918563 -0.930878 0.225600
  H 6.795227 -0.636183 -1.249011
 11
 30.297915
  H 2.565629 1.040219 -0.632908
  C 3.008951 0.194687 -0.109507
  H 3.177854 0.396891 0.940031
  C 2.880072 -1.099903 -0.636222
  C 4.294892 -0.666271 -0.589856
  C 4.938078 -0.370878 -1.808430
  H 4.350884 -0.118189 -2.687080
  O 6.196495 -0.441400 -2.035269
  H 2.306512 -1.545647 -1.420690
  H 4.903704 -0.947266 0.262447
  H 6.766314 -0.682272 -1.273578
 11
 29.305894
  H 2.621979 1.020049 -0.730635
  C 3.018701 0.198005 -0.141207
  H 2.982142 0.396920 0.922131
  C 2.955210 -1.126266 -0.629960
  C 4.334417 -0.557428 -0.526374
  C 4.936351 -0.308310 -1.783590
  H 4.324211 0.060845 -2.602704
  O 6.147865 -0.536925 -2.105021
  H 2.436241 -1.695580 -1.367035
  H 4.962867 -0.873703 0.298421
  H 6.743404 -0.863430 -1.394127
