 29
 0.000000
  C 0.907225 0.048713 0.272443
  C 2.402499 0.059069 0.088823
  C 3.242198 -0.012456 1.356518
  C 2.525381 -0.088379 2.701921
  C 3.525388 -0.153210 3.850939
  C 2.994905 0.127333 -1.120940
  C 2.354880 0.204794 -2.493703
  C 0.844424 0.217227 -2.713975
  H 0.622181 0.276969 -3.772745
  C 4.453791 0.132267 -1.208287
  C 5.194550 0.194809 -2.316784
  O 6.554367 0.195662 -2.331814
  H 0.591372 -0.009938 1.311805
  H 0.466858 -0.816775 -0.215569
  H 0.466860 0.963606 -0.115107
  H 3.888305 0.871289 1.387778
  H 3.888304 -0.894110 1.288165
  H 1.892521 -0.977730 2.743436
  H 1.892516 0.790655 2.843224
  H 4.160555 -1.032616 3.764878
  H 2.999991 -0.206885 4.802085
  H 4.160551 0.730294 3.864349
  H 2.744542 -0.643717 -3.066858
  H 2.744540 1.112397 -2.967761
  H 0.388283 1.076502 -2.229974
  H 0.388287 -0.691043 -2.329714
  H 4.998919 0.079693 -0.276547
  H 4.818004 0.251679 -3.324589
  H 6.883778 0.144498 -1.425044
 29
 3.365822
  C 0.880847 0.050847 0.234615
  C 2.354796 0.059245 0.085747
  C 3.208197 -0.012152 1.351129
  C 2.517132 -0.089096 2.714663
  C 3.557104 -0.151996 3.829426
  C 2.976862 0.126608 -1.108039
  C 2.354199 0.204645 -2.491053
  C 0.845163 0.217545 -2.719634
  H 0.663777 0.278084 -3.792561
  C 4.434760 0.131063 -1.186933
  C 5.187996 0.193202 -2.288281
  O 6.549859 0.192986 -2.284401
  H 0.797015 -0.008329 1.283289
  H 0.403183 -0.815135 -0.227623
  H 0.403186 0.963332 -0.127266
  H 3.854886 0.871624 1.375097
  H 3.854886 -0.893012 1.275519
  H 1.888867 -0.981425 2.777203
  H 1.888869 0.790526 2.877189
  H 4.189947 -1.029748 3.716233
  H 3.069409 -0.206771 4.800180
  H 4.189937 0.732903 3.815694
  H 2.755811 -0.643611 -3.055681
  H 2.755803 1.111028 -2.956669
  H 0.372204 1.076683 -2.253873
  H 0.372205 -0.688529 -2.353483
  H 4.977868 0.078360 -0.252892
  H 4.821796 0.250269 -3.299641
  H 6.871873 0.141663 -1.374779
 29
 11.679281
  C 0.853312 0.052173 0.211157
  C 2.328698 0.059773 0.076450
  C 3.184189 -0.012007 1.348560
  C 2.511739 -0.089343 2.719013
  C 3.573899 -0.151056 3.812681
  C 2.978612 0.126827 -1.111897
  C 2.362342 0.205430 -2.504953
  C 0.850281 0.218082 -2.729096
  H 0.669855 0.278983 -3.808473
  C 4.427457 0.130554 -1.177905
  C 5.173371 0.191418 -2.256658
  O 6.529306 0.190680 -2.243508
  H 0.987083 -0.006893 1.257889
  H 0.357497 -0.827436 -0.211402
  H 0.357501 0.973735 -0.109764
  H 3.831690 0.871338 1.368759
  H 3.831682 -0.892005 1.269259
  H 1.888341 -0.985122 2.798335
  H 1.888349 0.791807 2.898602
  H 4.205831 -1.027712 3.684984
  H 3.106309 -0.206390 4.793304
  H 4.205834 0.734402 3.784420
  H 2.765933 -0.643543 -3.068127
  H 2.765919 1.112330 -2.969038
  H 0.379274 1.076721 -2.270044
  H 0.379274 -0.686739 -2.369545
  H 4.969158 0.077685 -0.240802
  H 4.812823 0.248533 -3.268998
  H 6.845164 0.139371 -1.333990
 29
 24.582036
  C 0.803250 0.051790 0.217925
  C 2.301527 0.059639 0.078819
  C 3.170170 -0.011847 1.345724
  C 2.514723 -0.089776 2.726718
  C 3.593595 -0.150527 3.803335
  C 2.967455 0.126192 -1.100633
  C 2.366043 0.205886 -2.513024
  C 0.854549 0.219848 -2.760379
  H 0.690918 0.280894 -3.842244
  C 4.416123 0.129261 -1.154976
  C 5.177927 0.190783 -2.245424
  O 6.538510 0.189771 -2.227437
  H 1.126191 -0.004732 1.219582
  H 0.294464 -0.839440 -0.171449
  H 0.294465 0.981169 -0.068716
  H 3.816759 0.872116 1.359043
  H 3.816751 -0.891679 1.259514
  H 1.893108 -0.985178 2.817041
  H 1.893114 0.789763 2.917199
  H 4.224069 -1.026473 3.665591
  H 3.140964 -0.206245 4.790787
  H 4.224053 0.735338 3.765010
  H 2.777801 -0.645203 -3.071487
  H 2.777788 1.114368 -2.972190
  H 0.378660 1.077559 -2.309489
  H 0.378646 -0.683150 -2.408831
  H 4.956974 0.075880 -0.208803
  H 4.820071 0.248095 -3.261320
  H 6.851821 0.138520 -1.318918
