 20
 0.000000
  C 1.008776 0.120357 0.340911
  C 2.483313 0.120046 0.342955
  C 3.212152 0.596786 1.533781
  H 2.533117 0.913252 2.318745
  C 3.136679 -0.338197 -0.793625
  C 4.520843 -0.399165 -0.944684
  C 5.189792 -0.854380 -2.078927
  C 4.548710 -1.351167 -3.314519
  H 3.467326 -1.336202 -3.276191
  O 6.500431 -0.871521 -2.124810
  H 0.593799 0.499972 1.268914
  H 0.632486 -0.889772 0.171076
  H 0.631923 0.721166 -0.488200
  H 3.863360 1.432362 1.274651
  H 3.860388 -0.188028 1.925227
  H 2.512937 -0.666763 -1.611536
  H 5.133861 -0.066783 -0.117875
  H 4.896511 -2.366011 -3.510099
  H 4.895932 -0.753716 -4.158068
  H 6.946115 -0.547185 -1.319659
 20
 5.390583
  C 1.016267 0.172803 0.331424
  C 2.462128 0.117299 0.337887
  C 3.212843 0.581953 1.523945
  H 2.542006 0.883165 2.323947
  C 3.124674 -0.344232 -0.803607
  C 4.499899 -0.409518 -0.944285
  C 5.164732 -0.854638 -2.059732
  C 4.530405 -1.342405 -3.299284
  H 3.448790 -1.321863 -3.262968
  O 6.474397 -0.875268 -2.096280
  H 0.560148 0.510957 1.250345
  H 0.905945 -0.884484 0.160806
  H 0.585561 0.706104 -0.513805
  H 3.840301 1.434935 1.256224
  H 3.882461 -0.192594 1.902005
  H 2.502535 -0.667188 -1.626083
  H 5.108784 -0.082743 -0.114241
  H 4.872285 -2.358133 -3.496475
  H 4.880976 -0.740538 -4.137294
  H 6.915395 -0.554606 -1.283114
 20
 13.794634
  C 1.009787 0.215404 0.324088
  C 2.434214 0.137801 0.347831
  C 3.204695 0.576407 1.535313
  H 2.547873 0.837913 2.354301
  C 3.102640 -0.332280 -0.801152
  C 4.482838 -0.417514 -0.933120
  C 5.157455 -0.865085 -2.061573
  C 4.527992 -1.331310 -3.316919
  H 3.445752 -1.294556 -3.291551
  O 6.478368 -0.907024 -2.091087
  H 0.528613 0.585585 1.210853
  H 1.121133 -0.866775 0.281595
  H 0.532546 0.576136 -0.594518
  H 3.782796 1.459267 1.271140
  H 3.909155 -0.182659 1.876375
  H 2.483437 -0.632025 -1.631122
  H 5.093638 -0.105441 -0.093672
  H 4.855372 -2.350994 -3.521136
  H 4.894825 -0.723682 -4.144513
  H 6.917453 -0.599324 -1.266032
 20
 22.263575
  C 0.999420 0.256815 0.330041
  C 2.421941 0.134985 0.328823
  C 3.183664 0.552911 1.516186
  H 2.523169 0.801177 2.347126
  C 3.085457 -0.333817 -0.818640
  C 4.472124 -0.426649 -0.946754
  C 5.149475 -0.867458 -2.059963
  C 4.533040 -1.324284 -3.318336
  H 3.461234 -1.283269 -3.303047
  O 6.485053 -0.915717 -2.079400
  H 0.533724 0.656463 1.218598
  H 1.278409 -0.814017 0.389171
  H 0.486375 0.508836 -0.588063
  H 3.739549 1.447064 1.243385
  H 3.905554 -0.202418 1.858268
  H 2.484504 -0.622624 -1.648870
  H 5.080425 -0.119627 -0.100778
  H 4.856168 -2.342304 -3.522622
  H 4.908036 -0.715300 -4.136969
  H 6.915021 -0.612883 -1.249302
 20
 27.305888
  C 0.984874 0.289721 0.324587
  C 2.409093 0.133680 0.332316
  C 3.176135 0.553987 1.536937
  H 2.508466 0.782220 2.376112
  C 3.088126 -0.334252 -0.832958
  C 4.468888 -0.436814 -0.948182
  C 5.154628 -0.876303 -2.069911
  C 4.546275 -1.318546 -3.341814
  H 3.472655 -1.268150 -3.334916
  O 6.479701 -0.935826 -2.080760
  H 0.506025 0.738017 1.175857
  H 1.396514 -0.765869 0.520959
  H 0.444465 0.374902 -0.604786
  H 3.728112 1.471055 1.284274
  H 3.902302 -0.200314 1.858282
  H 2.474928 -0.603027 -1.678743
  H 5.072901 -0.142671 -0.095088
  H 4.860934 -2.335630 -3.551017
  H 4.932229 -0.705970 -4.150198
  H 6.896979 -0.643966 -1.250370
 20
 31.489004
  C 0.980022 0.325888 0.315615
  C 2.399816 0.124805 0.331055
  C 3.168786 0.537854 1.542507
  H 2.505586 0.763522 2.375762
  C 3.083538 -0.338014 -0.837045
  C 4.465000 -0.438327 -0.950335
  C 5.155451 -0.873143 -2.070494
  C 4.551438 -1.320553 -3.348945
  H 3.471486 -1.275986 -3.343769
  O 6.481388 -0.925562 -2.078801
  H 0.500195 0.809637 1.147723
  H 1.484981 -0.716977 0.597504
  H 0.428655 0.306667 -0.607113
  H 3.728593 1.439146 1.307940
  H 3.871715 -0.219248 1.855697
  H 2.472535 -0.604238 -1.680532
  H 5.061172 -0.145608 -0.102903
  H 4.872980 -2.338630 -3.557958
  H 4.936569 -0.704352 -4.158651
  H 6.890702 -0.630896 -1.248329
 20
 35.564930
  C 0.973939 0.342935 0.303545
  C 2.391464 0.112554 0.336549
  C 3.173755 0.535020 1.551399
  H 2.519629 0.762589 2.384356
  C 3.077657 -0.345216 -0.833293
  C 4.453614 -0.444295 -0.944362
  C 5.149856 -0.872828 -2.066293
  C 4.552246 -1.317741 -3.352830
  H 3.464252 -1.276174 -3.352568
  O 6.474545 -0.921312 -2.068997
  H 0.495645 0.829902 1.122364
  H 1.552881 -0.690885 0.624271
  H 0.414269 0.270852 -0.627573
  H 3.739552 1.440601 1.316172
  H 3.882589 -0.227545 1.866119
  H 2.467683 -0.610466 -1.687066
  H 5.039219 -0.158655 -0.106440
  H 4.878946 -2.336541 -3.565504
  H 4.939971 -0.696130 -4.159443
  H 6.880046 -0.625088 -1.228496
 20
 38.299732
  C 0.971235 0.372160 0.293271
  C 2.382900 0.096754 0.348580
  C 3.169831 0.534562 1.553814
  H 2.516270 0.770397 2.380099
  C 3.078144 -0.358087 -0.838390
  C 4.454207 -0.454296 -0.945047
  C 5.151239 -0.874518 -2.066836
  C 4.554605 -1.313346 -3.354679
  H 3.471693 -1.274449 -3.353261
  O 6.478056 -0.919105 -2.069792
  H 0.478745 0.854016 1.116632
  H 1.600481 -0.691878 0.652188
  H 0.413047 0.251272 -0.622325
  H 3.737535 1.437795 1.307236
  H 3.873888 -0.232568 1.874184
  H 2.460788 -0.619245 -1.687307
  H 5.045723 -0.169161 -0.094270
  H 4.882719 -2.329701 -3.572802
  H 4.939925 -0.685775 -4.157955
  H 6.881799 -0.627556 -1.231959
 20
 41.252383
  C 0.973354 0.386998 0.273709
  C 2.381995 0.083803 0.349898
  C 3.174954 0.532452 1.556995
  H 2.514180 0.773549 2.393192
  C 3.075878 -0.365001 -0.834996
  C 4.449672 -0.457906 -0.941223
  C 5.149949 -0.874769 -2.066771
  C 4.555503 -1.309436 -3.347696
  H 3.447050 -1.272032 -3.344307
  O 6.475859 -0.915763 -2.071388
  H 0.473329 0.861811 1.099622
  H 1.652119 -0.692679 0.649885
  H 0.420042 0.243013 -0.640388
  H 3.739021 1.430166 1.308275
  H 3.878741 -0.233594 1.879675
  H 2.461527 -0.625175 -1.678588
  H 5.042990 -0.171883 -0.085415
  H 4.885846 -2.320723 -3.568019
  H 4.936354 -0.683638 -4.143350
  H 6.879071 -0.625647 -1.235014
 20
 43.415614
  C 0.974050 0.410695 0.267860
  C 2.381196 0.073082 0.363463
  C 3.176377 0.529971 1.563763
  H 2.522680 0.768776 2.393470
  C 3.075721 -0.372406 -0.830063
  C 4.447499 -0.461683 -0.936185
  C 5.145678 -0.873423 -2.059535
  C 4.548112 -1.312048 -3.352981
  H 3.478972 -1.280722 -3.350230
  O 6.472025 -0.908086 -2.062030
  H 0.471319 0.877045 1.091112
  H 1.698133 -0.710493 0.664931
  H 0.420772 0.249247 -0.648538
  H 3.736216 1.425982 1.311009
  H 3.875503 -0.226468 1.883357
  H 2.443083 -0.637156 -1.686868
  H 5.041731 -0.174378 -0.077839
  H 4.882113 -2.323702 -3.576081
  H 4.929388 -0.677641 -4.156820
  H 6.875431 -0.616493 -1.221490
 20
 44.681025
  C 0.974248 0.435162 0.255233
  C 2.375293 0.060508 0.372594
  C 3.169900 0.527039 1.568526
  H 2.516470 0.762586 2.394021
  C 3.075769 -0.381106 -0.832199
  C 4.448744 -0.467665 -0.938457
  C 5.149438 -0.876345 -2.065980
  C 4.553929 -1.309403 -3.342437
  H 3.476148 -1.281639 -3.333679
  O 6.477085 -0.905708 -2.074390
  H 0.466066 0.895092 1.078967
  H 1.736750 -0.739595 0.675115
  H 0.427845 0.261861 -0.653277
  H 3.728302 1.431128 1.310578
  H 3.874877 -0.229801 1.892453
  H 2.446771 -0.642076 -1.675012
  H 5.038200 -0.181228 -0.086503
  H 4.888448 -2.312833 -3.566235
  H 4.927409 -0.676020 -4.141534
  H 6.882627 -0.616560 -1.240489
 20
 44.108625
  C 0.979281 0.471259 0.245025
  C 2.363379 0.036761 0.386314
  C 3.167123 0.529884 1.573330
  H 2.513705 0.764262 2.405834
  C 3.079648 -0.387528 -0.836021
  C 4.448749 -0.473615 -0.937009
  C 5.152607 -0.878665 -2.066824
  C 4.556672 -1.310563 -3.345750
  H 3.472648 -1.287666 -3.336497
  O 6.475904 -0.900570 -2.073274
  H 0.465481 0.918229 1.075864
  H 1.779792 -0.807836 0.695796
  H 0.428099 0.289355 -0.657792
  H 3.706100 1.434119 1.304097
  H 3.884452 -0.216126 1.899440
  H 2.455026 -0.642358 -1.672519
  H 5.038055 -0.193610 -0.080464
  H 4.897641 -2.315990 -3.574247
  H 4.929384 -0.670488 -4.146880
  H 6.882990 -0.612174 -1.235118
 20
 44.602531
  C 0.990825 0.492855 0.228571
  C 2.366567 0.018501 0.391208
  C 3.168051 0.523353 1.578313
  H 2.512155 0.752073 2.407662
  C 3.078960 -0.393679 -0.827554
  C 4.446549 -0.475541 -0.929460
  C 5.151831 -0.874115 -2.061976
  C 4.552323 -1.308044 -3.349223
  H 3.471320 -1.290717 -3.340764
  O 6.469422 -0.887691 -2.065655
  H 0.473458 0.938678 1.058147
  H 1.830335 -0.838164 0.700010
  H 0.446120 0.309246 -0.673544
  H 3.700130 1.433395 1.307676
  H 3.891180 -0.217482 1.908191
  H 2.452098 -0.646792 -1.662863
  H 5.035010 -0.196433 -0.073271
  H 4.904400 -2.323730 -3.587615
  H 4.911348 -0.679781 -4.128097
  H 6.876493 -0.600458 -1.226731
 20
 42.788039
  C 1.000735 0.524324 0.223582
  C 2.353309 -0.007165 0.405962
  C 3.161892 0.522736 1.582852
  H 2.508047 0.740982 2.419945
  C 3.082808 -0.402425 -0.830015
  C 4.445240 -0.485889 -0.925852
  C 5.154005 -0.880050 -2.063819
  C 4.554813 -1.310886 -3.343757
  H 3.475202 -1.302284 -3.330627
  O 6.468764 -0.885344 -2.070157
  H 0.485031 0.968594 1.053752
  H 1.887132 -0.916524 0.718222
  H 0.454289 0.354088 -0.685327
  H 3.670188 1.440285 1.303201
  H 3.898602 -0.200305 1.908876
  H 2.453051 -0.648701 -1.672074
  H 5.034864 -0.211084 -0.065490
  H 4.913111 -2.321505 -3.585309
  H 4.913412 -0.667357 -4.135810
  H 6.880864 -0.599014 -1.231141
