15

C 0.968767 0.139351 0.399601
C 2.446447 0.138115 0.395346
C 3.23446 0.607562 1.562646
C 2.459748 1.097943 2.783194
H 3.1273065110548126 1.4099565059219454 3.5590246557752008
C 3.060064 -0.326115 -0.760183
H 4.115364910678265 -0.3918313120599217 -0.9242602813367822
H 0.534549 0.509729 1.321297
H 0.597045 -0.873003 0.234389
H 0.596429 0.755461 -0.420228
H 3.890246 1.419373 1.227748
H 3.890735 -0.209842 1.882633
H 1.82201 0.301341 3.171549
H 1.821578 1.941446 2.51234
H 2.401323 -0.643773 -1.550558
