 23
 0.000000
  C 0.995837 0.164900 0.461683
  C 2.457621 0.127139 0.367003
  H 3.049210 0.464155 1.205443
  C 3.049724 -0.336547 -0.787465
  C 4.428341 -0.418150 -0.991638
  C 5.116540 -0.870769 -2.119508
  C 4.616472 -1.391793 -3.417947
  C 3.128013 -1.511977 -3.718709
  C 2.928712 -2.075876 -5.123750
  O 6.430631 -0.863199 -2.100902
  H 0.647436 0.548353 1.416319
  H 0.583327 -0.834685 0.310081
  H 0.582896 0.781644 -0.339220
  H 2.386170 -0.653135 -1.574859
  H 5.048979 -0.086189 -0.165423
  H 5.080450 -2.377410 -3.543949
  H 5.081225 -0.767279 -4.190371
  H 2.649956 -0.533207 -3.672064
  H 2.649383 -2.186648 -3.008462
  H 3.376100 -1.426578 -5.872514
  H 1.868595 -2.164888 -5.346422
  H 3.375620 -3.062885 -5.215708
  H 6.829249 -0.531927 -1.273496
 23
 9.359439
  C 1.116632 0.260484 0.699085
  C 2.513239 0.084279 0.261368
  H 3.270570 0.374766 0.985574
  C 2.831063 -0.404004 -0.954451
  C 4.175545 -0.432604 -1.026627
  C 5.000174 -0.863892 -2.102197
  C 4.614469 -1.398593 -3.434267
  C 3.157101 -1.556920 -3.829459
  C 3.064202 -2.123624 -5.242667
  O 6.300126 -0.805921 -1.960519
  H 1.035256 0.663845 1.704796
  H 0.582932 -0.695393 0.649810
  H 0.583949 0.918334 0.002827
  H 2.106877 -0.704056 -1.701986
  H 4.758480 -0.088459 -0.168623
  H 5.116249 -2.368894 -3.530481
  H 5.116154 -0.764127 -4.174577
  H 2.653961 -0.589915 -3.814287
  H 2.653500 -2.245202 -3.150323
  H 3.543257 -1.461890 -5.960660
  H 2.024233 -2.240525 -5.535284
  H 3.542503 -3.098383 -5.304437
  H 6.615678 -0.463184 -1.106769
 23
 39.445861
  C 1.205164 0.288332 0.768201
  C 2.555875 0.053023 0.184354
  H 3.328441 0.329597 0.876381
  C 2.700865 -0.445161 -1.057190
  C 4.022657 -0.423784 -1.004259
  C 4.953222 -0.861191 -2.096213
  C 4.628139 -1.397748 -3.432030
  C 3.176509 -1.568335 -3.858478
  C 3.114329 -2.135079 -5.270351
  O 6.243609 -0.777833 -1.893580
  H 1.245373 0.690467 1.773152
  H 0.630434 -0.635827 0.777993
  H 0.632467 0.965356 0.137504
  H 1.967458 -0.731889 -1.773744
  H 4.627460 -0.095136 -0.180357
  H 5.140041 -2.359382 -3.513947
  H 5.140814 -0.760363 -4.156297
  H 2.669860 -0.606601 -3.851606
  H 2.668986 -2.257752 -3.188676
  H 3.602536 -1.469931 -5.979092
  H 2.081187 -2.259593 -5.582932
  H 3.600972 -3.106475 -5.322206
  H 6.516315 -0.429276 -1.027749
 23
 81.630458
  C 1.255046 0.296551 0.787908
  C 2.610269 0.037434 0.145408
  H 3.345713 0.327179 0.871666
  C 2.634191 -0.466852 -1.109491
  C 3.936587 -0.400963 -0.947865
  C 4.937882 -0.857576 -2.088749
  C 4.633815 -1.395706 -3.428111
  C 3.181640 -1.573285 -3.871629
  C 3.135879 -2.142586 -5.288626
  O 6.224414 -0.761579 -1.854070
  H 1.330149 0.699827 1.796339
  H 0.671988 -0.619621 0.820461
  H 0.674076 0.983616 0.179664
  H 1.895713 -0.747732 -1.811269
  H 4.616910 -0.095497 -0.180702
  H 5.152938 -2.356592 -3.503835
  H 5.153951 -0.755065 -4.147803
  H 2.669144 -0.612568 -3.871150
  H 2.668637 -2.266055 -3.206600
  H 3.629734 -1.474724 -5.993930
  H 2.104799 -2.271949 -5.612946
  H 3.628257 -3.113636 -5.335492
  H 6.472078 -0.414733 -0.988793
 23
 122.583957
  C 1.274654 0.332561 0.832281
  C 2.635506 0.039272 0.159200
  H 3.337170 0.342571 0.902914
  C 2.568225 -0.500518 -1.105972
  C 3.859031 -0.396237 -0.867534
  C 4.942396 -0.872669 -2.115846
  C 4.656123 -1.405599 -3.467041
  C 3.216159 -1.591071 -3.901297
  C 3.166323 -2.147368 -5.317764
  O 6.209716 -0.753484 -1.851628
  H 1.377273 0.744599 1.822241
  H 0.679636 -0.579664 0.893358
  H 0.690707 1.025706 0.225323
  H 1.815282 -0.780515 -1.791348
  H 4.625915 -0.118312 -0.176959
  H 5.182793 -2.362916 -3.549515
  H 5.166098 -0.751095 -4.182126
  H 2.696730 -0.634533 -3.886882
  H 2.714084 -2.292087 -3.236765
  H 3.648949 -1.472097 -6.017951
  H 2.137526 -2.282602 -5.636214
  H 3.665188 -3.110014 -5.375085
  H 6.426606 -0.404239 -0.964475
 23
 153.355967
  C 1.247440 0.357719 0.858568
  C 2.624935 0.063231 0.227412
  H 3.299372 0.380119 0.998683
  C 2.535125 -0.512319 -1.061548
  C 3.802045 -0.369183 -0.754458
  C 4.998159 -0.896850 -2.172941
  C 4.717646 -1.420663 -3.517887
  C 3.258131 -1.601355 -3.920577
  C 3.163826 -2.153720 -5.345443
  O 6.262883 -0.764025 -1.896726
  H 1.332984 0.783401 1.856858
  H 0.660907 -0.555309 0.916344
  H 0.679588 1.043863 0.236405
  H 1.780123 -0.800595 -1.752100
  H 4.632167 -0.120796 -0.144225
  H 5.244505 -2.378808 -3.612107
  H 5.216999 -0.760844 -4.238795
  H 2.741114 -0.641856 -3.888922
  H 2.769890 -2.305248 -3.246092
  H 3.631500 -1.474854 -6.059076
  H 2.122645 -2.283794 -5.636959
  H 3.658997 -3.122263 -5.422106
  H 6.453814 -0.418453 -1.004331
 23
 166.319691
  C 1.096762 0.442865 0.987325
  C 2.503585 0.157728 0.481613
  H 3.148415 0.500505 1.271181
  C 2.495256 -0.516708 -0.883711
  C 3.686391 -0.328986 -0.506743
  C 5.151103 -0.957829 -2.330154
  C 4.845675 -1.483923 -3.681130
  C 3.360412 -1.633044 -3.999206
  C 3.176807 -2.169344 -5.420711
  O 6.440783 -0.841206 -2.125944
  H 1.113700 0.892354 1.964872
  H 0.516496 -0.481687 1.038353
  H 0.553486 1.101465 0.299773
  H 1.763082 -0.831374 -1.588050
  H 4.596566 -0.103323 -0.013417
  H 5.369977 -2.440186 -3.822474
  H 5.311933 -0.814775 -4.419592
  H 2.876201 -0.661200 -3.927832
  H 2.916611 -2.343343 -3.303618
  H 3.606537 -1.493928 -6.148922
  H 2.120733 -2.280129 -5.652671
  H 3.644571 -3.138730 -5.533450
  H 6.673744 -0.507471 -1.241233
 23
 164.596425
  C 0.995275 0.500135 0.984428
  C 2.432071 0.242932 0.636760
  H 3.056949 0.613344 1.439323
  C 2.492019 -0.596664 -0.750562
  C 3.617506 -0.229948 -0.321786
  C 5.271406 -0.955431 -2.426822
  C 4.927557 -1.494749 -3.781241
  C 3.430590 -1.650785 -4.026286
  C 3.156389 -2.205849 -5.420724
  O 6.581100 -0.827042 -2.316177
  H 0.921501 0.981651 1.952752
  H 0.435713 -0.436725 1.021840
  H 0.501316 1.128353 0.238594
  H 1.780244 -1.007450 -1.423539
  H 4.580269 -0.151355 0.122061
  H 5.437357 -2.456038 -3.921379
  H 5.369784 -0.839468 -4.542642
  H 2.948529 -0.677874 -3.932359
  H 3.017498 -2.337332 -3.287415
  H 3.553105 -1.541785 -6.187220
  H 2.087362 -2.314534 -5.588451
  H 3.619923 -3.183045 -5.546786
  H 6.854520 -0.456786 -1.456487
 23
 167.383561
  C 0.982526 0.530258 1.056610
  C 2.411172 0.258870 0.699510
  H 3.051832 0.602599 1.505706
  C 2.423027 -0.589625 -0.713618
  C 3.530853 -0.193540 -0.244706
  C 5.308688 -0.969255 -2.482140
  C 4.965562 -1.512033 -3.836305
  C 3.467839 -1.667773 -4.074467
  C 3.185329 -2.225659 -5.465821
  O 6.622569 -0.842160 -2.373753
  H 0.920314 0.999452 2.031527
  H 0.410251 -0.398772 1.082901
  H 0.493183 1.175559 0.321924
  H 1.710619 -0.995967 -1.384202
  H 4.481619 -0.105926 0.221552
  H 5.474151 -2.474607 -3.973692
  H 5.405617 -0.857800 -4.600023
  H 2.987124 -0.694176 -3.978689
  H 3.058218 -2.351062 -3.330723
  H 3.578493 -1.564027 -6.235661
  H 2.115401 -2.333706 -5.627509
  H 3.647259 -3.203203 -5.592136
  H 6.895978 -0.474033 -1.513391
 23
 167.481620
  C 0.947140 0.565164 1.118009
  C 2.376838 0.287292 0.794676
  H 3.007806 0.614729 1.620133
  C 2.380340 -0.602275 -0.651349
  C 3.454664 -0.156663 -0.148165
  C 5.373721 -0.990841 -2.553908
  C 5.018727 -1.532801 -3.906574
  C 3.515286 -1.680839 -4.120307
  C 3.197900 -2.238127 -5.503684
  O 6.687832 -0.869463 -2.459323
  H 0.864688 1.031124 2.093131
  H 0.366170 -0.358410 1.123172
  H 0.480192 1.217667 0.374577
  H 1.673706 -1.017157 -1.322439
  H 4.400965 -0.069433 0.332450
  H 5.516765 -2.499841 -4.046833
  H 5.448815 -0.879794 -4.676220
  H 3.043692 -0.704203 -4.008346
  H 3.115461 -2.353754 -3.361869
  H 3.580054 -1.580499 -6.282928
  H 2.124121 -2.337854 -5.642227
  H 3.650246 -3.218986 -5.638721
  H 6.966604 -0.500902 -1.600697
 23
 164.458946
  C 0.889973 0.597990 1.130174
  C 2.336097 0.318888 0.917424
  H 2.924347 0.632294 1.777030
  C 2.371261 -0.638833 -0.555897
  C 3.402549 -0.124784 -0.019746
  C 5.478831 -1.017617 -2.649752
  C 5.076394 -1.551420 -3.989309
  C 3.563492 -1.681633 -4.141258
  C 3.182901 -2.232969 -5.508580
  O 6.785284 -0.903057 -2.580854
  H 0.737830 1.069643 2.094224
  H 0.301422 -0.321011 1.098277
  H 0.480461 1.246517 0.350105
  H 1.675468 -1.074694 -1.224950
  H 4.351599 -0.050547 0.453803
  H 5.555871 -2.525356 -4.138286
  H 5.482262 -0.895427 -4.767220
  H 3.109361 -0.699336 -4.004852
  H 3.188647 -2.348168 -3.363477
  H 3.540162 -1.579240 -6.301610
  H 2.103436 -2.320157 -5.602412
  H 3.617944 -3.218694 -5.662300
  H 7.082718 -0.540215 -1.723903
 23
 138.134769
  C 0.966002 0.628334 0.459949
  C 2.334439 0.109587 0.792381
  H 2.688492 0.293672 1.802613
  C 2.588080 -1.097283 -0.278454
  C 3.579476 -0.358261 0.052234
  C 5.631837 -0.920794 -2.636688
  C 5.014482 -1.397405 -3.895085
  C 3.500865 -1.576012 -3.804598
  C 2.922626 -2.075203 -5.123543
  O 6.909612 -0.759896 -2.698691
  H 0.564027 1.174901 1.308414
  H 0.274014 -0.174446 0.219337
  H 0.989558 1.294477 -0.405287
  H 1.949417 -1.665506 -0.902508
  H 4.599039 -0.322573 0.354546
  H 5.490284 -2.347085 -4.166325
  H 5.271302 -0.694627 -4.696036
  H 3.042889 -0.621985 -3.543850
  H 3.280015 -2.294278 -3.015668
  H 3.125811 -1.369736 -5.926753
  H 1.845640 -2.199915 -5.048767
  H 3.356379 -3.034617 -5.398272
  H 7.314024 -0.449175 -1.862317
