 20
 0.000000
  C 0.995303 0.153402 0.432425
  C 2.458783 0.124114 0.359455
  H 3.039460 0.463473 1.204135
  C 3.059196 -0.337953 -0.790820
  C 4.438625 -0.415902 -0.985479
  C 5.129135 -0.868215 -2.113294
  C 4.631563 -1.389697 -3.413018
  C 3.144526 -1.507589 -3.707091
  H 3.017180 -1.909252 -4.708226
  O 6.443679 -0.861340 -2.096596
  H 0.627681 0.534175 1.380600
  H 0.591906 -0.848881 0.275839
  H 0.591771 0.769026 -0.373824
  H 2.401190 -0.655819 -1.581818
  H 5.052278 -0.082328 -0.154922
  H 5.096228 -2.374747 -3.536769
  H 5.096452 -0.763588 -4.183389
  H 2.658046 -0.536569 -3.675134
  H 2.657945 -2.187208 -3.012890
  H 6.838751 -0.529386 -1.267795
 20
 -0.399492
  C 0.987800 0.198540 0.487493
  C 2.433276 0.132562 0.282025
  H 3.066053 0.692385 0.958160
  C 3.006128 -0.525183 -0.780328
  C 4.388932 -0.513286 -0.983366
  C 5.124220 -0.920207 -2.097727
  C 4.656429 -1.361862 -3.437058
  C 3.174979 -1.535540 -3.726110
  H 3.061391 -1.820380 -4.769312
  O 6.435763 -0.864689 -2.051871
  H 0.731640 0.516940 1.493347
  H 0.505235 -0.747768 0.245151
  H 0.562430 0.932289 -0.205140
  H 2.358067 -1.052838 -1.459628
  H 4.973347 -0.098916 -0.167841
  H 5.183355 -2.298859 -3.651474
  H 5.080009 -0.643130 -4.149021
  H 2.628025 -0.608999 -3.576759
  H 2.741058 -2.328513 -3.123530
  H 6.812271 -0.591043 -1.193665
 20
 2.376117
  C 0.993495 0.218857 0.354294
  C 2.440132 0.169879 0.144860
  H 3.027676 0.981008 0.555915
  C 3.058890 -0.733494 -0.675559
  C 4.447281 -0.679781 -0.901998
  C 5.156792 -0.956270 -2.064606
  C 4.626687 -1.243291 -3.423063
  C 3.133338 -1.423977 -3.628448
  H 2.945739 -1.574607 -4.688366
  O 6.467246 -0.852550 -2.071065
  H 0.743114 0.727566 1.281626
  H 0.545185 -0.772060 0.319366
  H 0.533392 0.800926 -0.450321
  H 2.459594 -1.490451 -1.156780
  H 5.033456 -0.281755 -0.079231
  H 5.155664 -2.133830 -3.781315
  H 4.991119 -0.432824 -4.064929
  H 2.580204 -0.544155 -3.312314
  H 2.762196 -2.298826 -3.103854
  H 6.878170 -0.703052 -1.198798
 20
 7.834225
  C 0.985651 0.169893 0.170601
  C 2.432941 0.178975 -0.066681
  H 2.939404 1.128673 0.049956
  C 3.128157 -0.868194 -0.576757
  C 4.531212 -0.814962 -0.823747
  C 5.196817 -0.966723 -2.025369
  C 4.589083 -1.127289 -3.372306
  C 3.083849 -1.280509 -3.481875
  H 2.818765 -1.388949 -4.530232
  O 6.508017 -0.865613 -2.082375
  H 0.729000 0.833442 0.994013
  H 0.608737 -0.833218 0.353653
  H 0.466377 0.566669 -0.705749
  H 2.596337 -1.783856 -0.805008
  H 5.137810 -0.532063 0.031866
  H 5.077550 -1.995051 -3.831313
  H 4.927639 -0.274887 -3.971841
  H 2.567871 -0.405908 -3.094008
  H 2.733658 -2.163783 -2.959122
  H 6.959092 -0.800025 -1.220314
 20
 14.714486
  C 0.970412 0.125675 -0.004820
  C 2.418774 0.157745 -0.283005
  H 2.857407 1.136372 -0.424165
  C 3.180328 -0.928392 -0.482629
  C 4.596152 -0.926263 -0.753076
  C 5.223150 -0.961801 -1.982841
  C 4.566753 -1.029093 -3.312712
  C 3.055418 -1.139437 -3.372195
  H 2.751741 -1.253849 -4.409909
  O 6.534934 -0.889125 -2.070368
  H 0.702997 0.929653 0.680552
  H 0.653636 -0.830045 0.401406
  H 0.410459 0.309549 -0.923305
  H 2.713946 -1.909304 -0.416903
  H 5.230929 -0.841515 0.126137
  H 5.012987 -1.890823 -3.825019
  H 4.910669 -0.165204 -3.890766
  H 2.577594 -0.243378 -2.984007
  H 2.694053 -1.998922 -2.819816
  H 7.011706 -0.880238 -1.219600
 20
 10.837722
  C 0.965858 0.120592 -0.139675
  C 2.401358 0.114652 -0.451076
  H 2.841721 1.063270 -0.730288
  C 3.195005 -0.979080 -0.412863
  C 4.596644 -0.989952 -0.705775
  C 5.220029 -0.908071 -1.933732
  C 4.565620 -0.981094 -3.268865
  C 3.053075 -1.082567 -3.338258
  H 2.758158 -1.207435 -4.377101
  O 6.530054 -0.822151 -2.030505
  H 0.683687 1.025414 0.393016
  H 0.659947 -0.757285 0.422307
  H 0.403802 0.126097 -1.077324
  H 2.794418 -1.906498 -0.011558
  H 5.233398 -1.138512 0.162633
  H 5.020888 -1.836334 -3.781242
  H 4.903902 -0.105546 -3.834823
  H 2.575337 -0.184928 -2.962757
  H 2.688067 -1.943414 -2.782886
  H 7.007881 -0.780191 -1.182196
 20
 5.164814
  C 0.997766 0.130419 -0.204915
  C 2.409487 0.058872 -0.584235
  H 2.833436 0.932951 -1.060800
  C 3.226449 -1.000253 -0.313940
  C 4.587963 -1.096840 -0.673973
  C 5.194330 -0.871682 -1.901982
  C 4.541537 -0.867618 -3.240787
  C 3.040320 -1.077969 -3.344219
  H 2.777363 -1.182526 -4.392336
  O 6.501585 -0.782578 -2.001988
  H 0.747368 1.113111 0.188890
  H 0.716190 -0.646820 0.499788
  H 0.384344 0.007086 -1.102948
  H 2.857386 -1.775781 0.347537
  H 5.239771 -1.457873 0.117778
  H 5.054352 -1.652772 -3.807952
  H 4.825519 0.066740 -3.736374
  H 2.482200 -0.237798 -2.947102
  H 2.734646 -1.986308 -2.830255
  H 6.985747 -0.777947 -1.154945
 20
 2.630988
  C 1.043718 0.234750 -0.230701
  C 2.427657 0.041144 -0.661278
  H 2.858550 0.815853 -1.282035
  C 3.222972 -0.999807 -0.257586
  C 4.548415 -1.201060 -0.665822
  C 5.154626 -0.854656 -1.873952
  C 4.494029 -0.713072 -3.201397
  C 3.078216 -1.247868 -3.369378
  H 2.826182 -1.237983 -4.426392
  O 6.458536 -0.761094 -1.961584
  H 0.878056 1.265977 0.080038
  H 0.752187 -0.453457 0.557582
  H 0.374693 0.082343 -1.082327
  H 2.853028 -1.651715 0.523497
  H 5.185590 -1.702534 0.054646
  H 5.152610 -1.235140 -3.902690
  H 4.544630 0.341341 -3.494008
  H 2.340269 -0.649786 -2.847410
  H 3.009727 -2.273244 -3.015818
  H 6.943980 -0.833389 -1.117491
 20
 3.084150
  C 1.085997 0.331421 -0.278945
  C 2.461611 0.022944 -0.667173
  H 2.950839 0.770458 -1.278439
  C 3.213288 -1.038398 -0.230171
  C 4.522060 -1.273766 -0.665040
  C 5.111217 -0.815636 -1.850766
  C 4.432082 -0.686419 -3.170791
  C 3.074817 -1.353472 -3.346472
  H 2.765833 -1.250349 -4.382715
  O 6.394150 -0.578204 -1.929109
  H 1.032345 1.339298 0.132758
  H 0.678663 -0.384581 0.429679
  H 0.449577 0.355945 -1.166288
  H 2.825280 -1.665799 0.560790
  H 5.155816 -1.856420 -0.006039
  H 5.133782 -1.115293 -3.892911
  H 4.373954 0.376696 -3.428757
  H 2.307570 -0.906366 -2.722460
  H 3.134712 -2.412986 -3.114335
  H 6.892533 -0.671067 -1.094120
 20
 7.919245
  C 1.163636 0.367556 -0.344574
  C 2.573971 0.063245 -0.592348
  H 3.172770 0.883269 -0.969233
  C 3.234083 -1.091688 -0.241239
  C 4.519974 -1.364675 -0.702017
  C 5.077367 -0.773796 -1.855567
  C 4.404211 -0.749921 -3.182664
  C 3.047308 -1.421759 -3.309884
  H 2.720381 -1.361115 -4.344022
  O 6.298730 -0.322887 -1.900775
  H 1.064199 1.315858 0.185602
  H 0.656121 -0.422506 0.202200
  H 0.653307 0.519115 -1.298390
  H 2.781489 -1.766013 0.472893
  H 5.126788 -2.080729 -0.163238
  H 5.115434 -1.243089 -3.854887
  H 4.354158 0.284022 -3.539803
  H 2.297288 -0.939553 -2.692408
  H 3.103394 -2.470739 -3.031536
  H 6.809893 -0.395025 -1.070601
 20
 17.112916
  C 1.314508 0.468230 -0.449350
  C 2.737507 0.119525 -0.487456
  H 3.425443 0.949912 -0.568727
  C 3.269368 -1.133496 -0.207630
  C 4.491804 -1.478564 -0.740263
  C 4.975979 -0.714716 -1.848520
  C 4.303955 -0.746000 -3.171816
  C 3.026319 -1.562346 -3.285273
  H 2.667419 -1.518414 -4.309375
  O 6.112855 -0.092404 -1.847005
  H 1.141414 1.343429 0.177082
  H 0.692375 -0.359472 -0.116745
  H 0.995194 0.765605 -1.450948
  H 2.738046 -1.809250 0.449266
  H 5.059320 -2.329921 -0.395120
  H 5.060008 -1.165101 -3.846414
  H 4.146853 0.275878 -3.531334
  H 2.243110 -1.184058 -2.637685
  H 3.206489 -2.603735 -3.033527
  H 6.642653 -0.164885 -1.027097
 20
 26.550052
  C 1.533410 0.505647 -0.635334
  C 2.929350 0.102309 -0.441274
  H 3.632194 0.905828 -0.277913
  C 3.340369 -1.221177 -0.125981
  C 4.475513 -1.602512 -0.754479
  C 4.823681 -0.646891 -1.799860
  C 4.162279 -0.695482 -3.126160
  C 2.975131 -1.637763 -3.257990
  H 2.596041 -1.593718 -4.275099
  O 5.881144 0.100372 -1.745742
  H 1.278271 1.349534 0.009241
  H 0.840082 -0.314750 -0.470275
  H 1.398024 0.878081 -1.654510
  H 2.760593 -1.851154 0.533334
  H 5.036935 -2.507634 -0.596296
  H 4.953306 -1.018762 -3.815906
  H 3.904040 0.316429 -3.451320
  H 2.167696 -1.371991 -2.585620
  H 3.268437 -2.663397 -3.050381
  H 6.432166 0.007233 -0.942372
 20
 29.492720
  C 1.768436 0.482046 -0.840465
  C 3.113927 0.042763 -0.448240
  H 3.766617 0.831292 -0.095593
  C 3.419184 -1.320106 -0.031131
  C 4.469139 -1.696526 -0.764847
  C 4.649391 -0.568978 -1.715840
  C 4.013534 -0.628020 -3.064990
  C 2.920666 -1.670866 -3.244464
  H 2.547317 -1.623436 -4.263329
  O 5.662169 0.260190 -1.633674
  H 1.456815 1.321433 -0.215558
  H 1.037753 -0.320082 -0.780250
  H 1.767538 0.879660 -1.857780
  H 2.828364 -1.901429 0.656786
  H 5.043005 -2.605476 -0.763079
  H 4.836711 -0.862271 -3.752570
  H 3.674190 0.368562 -3.357632
  H 2.084715 -1.510115 -2.572883
  H 3.307534 -2.671467 -3.073105
  H 6.242027 0.135107 -0.858570
 20
 29.195266
  C 1.834103 0.461042 -0.894907
  C 3.174441 0.023912 -0.463459
  H 3.784551 0.816059 -0.041707
  C 3.440747 -1.340898 0.010776
  C 4.454909 -1.714537 -0.767588
  C 4.573283 -0.530820 -1.672035
  C 3.972397 -0.601546 -3.044951
  C 2.908576 -1.666829 -3.252677
  H 2.562604 -1.627196 -4.281691
  O 5.594608 0.307435 -1.592849
  H 1.503517 1.283282 -0.256235
  H 1.106244 -0.344901 -0.861406
  H 1.849096 0.882734 -1.900595
  H 2.859070 -1.899245 0.722418
  H 5.027881 -2.621818 -0.821884
  H 4.820346 -0.819948 -3.707132
  H 3.621546 0.387223 -3.347186
  H 2.049071 -1.522468 -2.606923
  H 3.310429 -2.659097 -3.067979
  H 6.188045 0.160889 -0.833550
 20
 28.923489
  C 1.876932 0.422088 -0.942053
  C 3.228110 -0.008433 -0.509912
  H 3.777494 0.786161 -0.004024
  C 3.473390 -1.364474 0.022463
  C 4.461147 -1.734436 -0.790129
  C 4.526793 -0.505006 -1.646120
  C 3.970629 -0.599133 -3.046446
  C 2.910987 -1.661274 -3.270065
  H 2.593276 -1.632004 -4.309279
  O 5.572259 0.327789 -1.580840
  H 1.535411 1.224722 -0.280342
  H 1.159251 -0.390080 -0.916485
  H 1.882349 0.867372 -1.938544
  H 2.898358 -1.906042 0.750242
  H 5.049485 -2.629752 -0.875782
  H 4.842970 -0.837353 -3.667108
  H 3.636632 0.384339 -3.378876
  H 2.030580 -1.502353 -2.654444
  H 3.300090 -2.653800 -3.057670
  H 6.182861 0.153034 -0.842623
