 19
 0.000000
  C -3.246571 -1.803282 -0.305766
  C -1.755804 -1.623751 -0.389088
  C -1.191650 -1.991242 -1.748495
  C -1.183820 -0.204091 -0.070457
  C -2.178328 0.886537 0.118126
  O -0.008121 -0.027281 -0.012965
  H -3.484816 -2.854921 -0.476094
  H -3.776628 -1.243006 -1.074684
  H -3.635189 -1.547876 0.677669
  H -1.288038 -2.242602 0.392271
  H -1.583057 -1.357844 -2.544846
  H -1.484389 -3.014213 -1.985665
  H -0.106666 -1.918274 -1.757932
  H -3.208296 0.555351 0.092727
  H -2.002431 1.620115 -0.670801
  H -1.960140 1.359633 1.076668
  O 3.352623 -0.184833 -0.054373
  H 3.530003 -0.457837 -0.963353
  H 2.404145 -0.010394 -0.001393
 19
 -0.771662
  C -3.201319 -1.816808 -0.221922
  C -1.724841 -1.638565 -0.414428
  C -1.254991 -1.936092 -1.820786
  C -1.128809 -0.205795 -0.101427
  C -2.124372 0.882671 0.036907
  O 0.049138 -0.065592 -0.021376
  H -3.427201 -2.880392 -0.327276
  H -3.791399 -1.307226 -0.979498
  H -3.525220 -1.536362 0.776688
  H -1.181691 -2.244422 0.325375
  H -1.731090 -1.293586 -2.561001
  H -1.551107 -2.956959 -2.069382
  H -0.176584 -1.849302 -1.915052
  H -3.155239 0.565109 -0.033970
  H -1.898809 1.616321 -0.740367
  H -1.938032 1.366042 0.997706
  O 3.209805 -0.233645 0.075804
  H 3.477122 -0.361863 -0.840546
  H 2.261348 -0.053867 0.080446
 19
 -1.081615
  C -3.099160 -1.861994 -0.130752
  C -1.652497 -1.608357 -0.428415
  C -1.268521 -1.853854 -1.869842
  C -1.118271 -0.140913 -0.146200
  C -2.165042 0.900086 -0.042002
  O 0.050995 0.047957 -0.052523
  H -3.261811 -2.942133 -0.178259
  H -3.769150 -1.420916 -0.864463
  H -3.373307 -1.563228 0.877837
  H -1.022652 -2.183722 0.263170
  H -1.842382 -1.238059 -2.561265
  H -1.515162 -2.890153 -2.110788
  H -0.207905 -1.700039 -2.043851
  H -3.176334 0.540045 -0.167822
  H -1.932269 1.660430 -0.791194
  H -2.047671 1.371742 0.935916
  O 3.047849 -0.497047 0.184858
  H 3.403496 -0.523910 -0.709223
  H 2.147007 -0.151671 0.139084
 19
 -1.879124
  C -2.926507 -1.900834 -0.020017
  C -1.540760 -1.533404 -0.456447
  C -1.277109 -1.738724 -1.930237
  C -1.117026 -0.021034 -0.220241
  C -2.244123 0.931649 -0.135081
  O 0.035563 0.254625 -0.144575
  H -2.988864 -2.992384 -0.008913
  H -3.697294 -1.554419 -0.703282
  H -3.137996 -1.581698 0.997475
  H -0.798903 -2.052130 0.165247
  H -1.974151 -1.183427 -2.556220
  H -1.441405 -2.795660 -2.152917
  H -0.257961 -1.485533 -2.206720
  H -3.215626 0.497500 -0.326666
  H -2.035370 1.742195 -0.836695
  H -2.218291 1.362932 0.868157
  O 2.757657 -0.869466 0.295326
  H 3.267917 -0.865102 -0.520597
  H 2.017028 -0.258313 0.191988
 19
 -3.672136
  C -2.691355 -1.918043 0.100301
  C -1.397698 -1.431078 -0.478642
  C -1.252146 -1.649435 -1.966265
  C -1.109505 0.116050 -0.301023
  C -2.320826 0.959737 -0.233742
  O 0.014540 0.495876 -0.259558
  H -2.633900 -3.007561 0.165751
  H -3.553245 -1.689644 -0.520952
  H -2.846443 -1.565284 1.116742
  H -0.546996 -1.861025 0.072829
  H -2.063796 -1.193853 -2.531578
  H -1.312933 -2.724191 -2.152442
  H -0.299412 -1.291729 -2.345288
  H -3.235421 0.444290 -0.495107
  H -2.157394 1.823712 -0.880262
  H -2.389710 1.331191 0.791383
  O 2.264392 -1.204812 0.355116
  H 2.922562 -1.319269 -0.337203
  H 1.832093 -0.351497 0.221799
 19
 -6.528290
  C -2.457336 -1.920843 0.181676
  C -1.261509 -1.328966 -0.501071
  C -1.196507 -1.588318 -1.987472
  C -1.080092 0.217025 -0.345180
  C -2.348566 0.978709 -0.277582
  O 0.005005 0.693333 -0.331326
  H -2.303309 -2.999546 0.258866
  H -3.379676 -1.788051 -0.378772
  H -2.572382 -1.549665 1.196070
  H -0.326165 -1.678765 -0.010850
  H -2.086758 -1.233153 -2.505523
  H -1.163629 -2.667381 -2.146042
  H -0.316660 -1.142332 -2.442326
  H -3.208899 0.418565 -0.621337
  H -2.221040 1.899472 -0.846627
  H -2.494249 1.255356 0.768789
  O 1.673606 -1.401208 0.346887
  H 2.363297 -1.737508 -0.235130
  H 1.608487 -0.444684 0.216032
 19
 -6.202235
  C -2.326165 -1.923471 0.180391
  C -1.238013 -1.230985 -0.576253
  C -1.110232 -1.601736 -2.031370
  C -1.056923 0.266931 -0.368962
  C -2.326529 1.036650 -0.210370
  O 0.028421 0.795295 -0.378317
  H -2.122665 -2.992652 0.227360
  H -3.287091 -1.834618 -0.327369
  H -2.421513 -1.543087 1.192661
  H -0.217223 -1.561244 -0.123780
  H -2.016647 -1.328392 -2.576841
  H -1.008352 -2.678909 -2.143323
  H -0.274835 -1.094096 -2.506163
  H -3.188693 0.518618 -0.613922
  H -2.206166 2.013265 -0.674403
  H -2.477707 1.197156 0.857962
  O 1.242303 -1.462870 0.380110
  H 1.854884 -2.029048 -0.107229
  H 1.403601 -0.530688 0.148705
 19
 -7.225098
  C -2.428239 -1.876283 0.080602
  C -1.321052 -1.175550 -0.628453
  C -1.015389 -1.619580 -2.024528
  C -1.091281 0.252910 -0.359832
  C -2.308374 1.089570 -0.089472
  O 0.043437 0.742955 -0.365250
  H -2.229092 -2.945868 0.129428
  H -3.372812 -1.778077 -0.462212
  H -2.570763 -1.495894 1.087241
  H 0.137064 -1.661959 0.005314
  H -1.860478 -1.371183 -2.673104
  H -0.897285 -2.700185 -2.085202
  H -0.142057 -1.116774 -2.433467
  H -3.216658 0.645459 -0.478944
  H -2.154405 2.079060 -0.514778
  H -2.410800 1.214965 0.988320
  O 1.119452 -1.531109 0.291215
  H 1.729750 -2.116810 -0.196519
  H 1.272123 -0.569745 0.073358
 19
 -10.433079
  C -2.545236 -1.831537 0.009158
  C -1.401481 -1.161614 -0.658604
  C -0.976970 -1.683477 -1.987890
  C -1.105717 0.227542 -0.364747
  C -2.266882 1.115003 -0.024972
  O 0.050864 0.679508 -0.385818
  H -2.372545 -2.905255 0.066104
  H -3.466072 -1.711545 -0.568293
  H -2.719275 -1.442109 1.007421
  H 0.254762 -1.793644 0.094806
  H -1.755359 -1.445396 -2.718511
  H -0.885975 -2.768229 -1.990077
  H -0.061096 -1.217297 -2.343368
  H -3.216914 0.707467 -0.348439
  H -2.099598 2.089282 -0.479854
  H -2.292585 1.267590 1.054057
  O 1.184539 -1.483190 0.258275
  H 1.834380 -2.016324 -0.240809
  H 1.153964 -0.506900 -0.034509
 19
 -12.201123
  C -2.599665 -1.846056 -0.039008
  C -1.441524 -1.168793 -0.666491
  C -0.934047 -1.715659 -1.951762
  C -1.140445 0.196121 -0.344233
  C -2.263592 1.110863 0.030534
  O 0.031670 0.651893 -0.367737
  H -2.428655 -2.920051 0.008673
  H -3.502523 -1.716817 -0.641857
  H -2.802901 -1.469046 0.958961
  H 0.378585 -1.873751 0.160649
  H -1.667452 -1.484255 -2.729374
  H -0.850711 -2.800702 -1.931985
  H 0.002236 -1.259297 -2.262663
  H -3.238846 0.701946 -0.202729
  H -2.120452 2.057180 -0.487234
  H -2.206361 1.326891 1.097729
  O 1.236542 -1.393928 0.194630
  H 1.909006 -1.851826 -0.340745
  H 0.976985 -0.370379 -0.139890
 19
 -13.679952
  C -2.548361 -1.888264 -0.020215
  C -1.413675 -1.179897 -0.654632
  C -0.917535 -1.694250 -1.954200
  C -1.174364 0.189944 -0.344330
  C -2.306251 1.069678 0.045178
  O 0.000513 0.705358 -0.379332
  H -2.355386 -2.958768 0.013329
  H -3.458044 -1.769009 -0.613559
  H -2.747485 -1.528755 0.984936
  H 0.441661 -1.911333 0.200121
  H -1.665529 -1.456570 -2.715215
  H -0.818700 -2.777774 -1.953843
  H 0.011551 -1.224936 -2.267973
  H -3.272916 0.602198 -0.091800
  H -2.245818 1.984470 -0.542768
  H -2.183534 1.369434 1.086134
  O 1.258541 -1.375223 0.167478
  H 1.928161 -1.853421 -0.335533
  H 0.831789 -0.078634 -0.267711
 19
 -19.285754
  C -2.507362 -1.889839 -0.034993
  C -1.362359 -1.184865 -0.646212
  C -0.804301 -1.728549 -1.903627
  C -1.103823 0.167557 -0.315737
  C -2.190862 1.066854 0.132792
  O 0.079647 0.695602 -0.376972
  H -2.324363 -2.962275 -0.009125
  H -3.404007 -1.758165 -0.646049
  H -2.723778 -1.536102 0.968375
  H 0.570032 -2.066867 0.336146
  H -1.510272 -1.495140 -2.705584
  H -0.721245 -2.812946 -1.880102
  H 0.145994 -1.278378 -2.177890
  H -3.172656 0.618290 0.058142
  H -2.151274 1.976838 -0.465403
  H -2.000071 1.380494 1.160129
  O 1.343598 -1.511811 0.176963
  H 2.013589 -2.052436 -0.251538
  H 0.831942 0.022702 -0.343515
 19
 -21.153320
  C -2.497022 -1.883693 -0.070156
  C -1.348408 -1.171134 -0.664076
  C -0.739463 -1.731425 -1.888142
  C -1.076842 0.163933 -0.303622
  C -2.130471 1.064197 0.218467
  O 0.091248 0.726822 -0.415655
  H -2.320393 -2.955734 -0.063609
  H -3.387902 -1.735585 -0.685187
  H -2.721152 -1.546192 0.937814
  H 0.662310 -2.185841 0.497591
  H -1.438290 -1.547651 -2.707988
  H -0.618785 -2.810505 -1.832075
  H 0.202809 -1.259462 -2.151677
  H -3.108455 0.604249 0.250667
  H -2.167906 1.953500 -0.411588
  H -1.853309 1.426059 1.206148
  O 1.379203 -1.617519 0.183529
  H 2.083488 -2.212969 -0.079583
  H 0.846798 0.099856 -0.494112
 19
 -25.717222
  C -2.645811 -1.834237 -0.183178
  C -1.464338 -1.156073 -0.747196
  C -0.752639 -1.816692 -1.854525
  C -1.125154 0.149572 -0.340424
  C -2.103895 1.048825 0.311180
  O 0.051949 0.677060 -0.530055
  H -2.513783 -2.913785 -0.201465
  H -3.522556 -1.628182 -0.804285
  H -2.876530 -1.507022 0.827774
  H 0.999239 -2.002398 0.745883
  H -1.384950 -1.760603 -2.747041
  H -0.616179 -2.879337 -1.662864
  H 0.196003 -1.353615 -2.104254
  H -3.119212 0.674703 0.277201
  H -2.052066 2.027572 -0.165869
  H -1.801602 1.211066 1.347903
  O 1.490262 -1.549629 0.053940
  H 2.317320 -2.027225 -0.047376
  H 0.781400 0.020906 -0.648605
