 17
 0.000000
  H 1.434666 -0.075677 0.039494
  C 2.506970 -0.083157 0.024811
  C 3.219640 -0.594735 -0.979503
  C 4.656865 -0.606839 -1.003266
  C 5.376124 -1.122684 -2.015954
  C 6.813944 -1.131599 -2.033451
  C 7.534357 -1.642237 -3.035927
  C 9.023700 -1.660708 -3.072183
  H 3.005843 0.351813 0.878732
  H 2.708096 -1.027922 -1.829911
  H 5.162986 -0.171907 -0.149424
  H 4.873093 -1.557654 -2.869874
  H 7.318324 -0.696809 -1.179884
  H 7.037438 -2.078744 -3.892845
  H 9.454830 -1.207269 -2.182013
  H 9.383893 -1.115112 -3.945344
  H 9.383891 -2.687786 -3.144253
 17
 1.121192
  H 1.425211 -0.150965 0.048526
  C 2.501452 -0.135428 0.053305
  C 3.222126 -0.553902 -0.984668
  C 4.662601 -0.565197 -1.007206
  C 5.382563 -1.114003 -2.002659
  C 6.819088 -1.138064 -2.027762
  C 7.538115 -1.650644 -3.028947
  C 9.025879 -1.683826 -3.073326
  H 2.972251 0.244179 0.945624
  H 2.724988 -0.943907 -1.864450
  H 5.160123 0.053731 -0.273254
  H 4.878172 -1.589191 -2.835080
  H 7.324020 -0.710474 -1.170539
  H 7.033830 -2.079594 -3.885968
  H 9.456069 -1.238661 -2.179426
  H 9.389474 -1.140831 -3.946484
  H 9.378342 -2.712402 -3.158785
 17
 1.764116
  H 1.426479 0.000075 -0.043628
  C 2.502232 0.021145 -0.042623
  C 3.227844 -0.695679 -0.903542
  C 4.671137 -0.709171 -0.921928
  C 5.388022 -1.163920 -1.965865
  C 6.824171 -1.191822 -2.000960
  C 7.537602 -1.581331 -3.060630
  C 9.024251 -1.653008 -3.098909
  H 2.967399 0.661374 0.690633
  H 2.733056 -1.345262 -1.617340
  H 5.152005 -0.108085 -0.159946
  H 4.879194 -1.548435 -2.841635
  H 7.334663 -0.889687 -1.094505
  H 7.030344 -1.875936 -3.971235
  H 9.457119 -1.322734 -2.159050
  H 9.411999 -1.030714 -3.904570
  H 9.347470 -2.675669 -3.294728
 17
 6.565984
  H 1.436720 0.020293 -0.092345
  C 2.512489 0.043325 -0.086287
  C 3.243252 -0.757994 -0.858101
  C 4.688634 -0.770960 -0.864202
  C 5.390790 -1.119688 -1.962160
  C 6.825815 -1.193599 -1.990455
  C 7.536387 -1.525388 -3.071444
  C 9.015756 -1.684947 -3.098349
  H 2.971855 0.750095 0.585943
  H 2.757540 -1.492486 -1.486033
  H 5.139699 -0.058688 -0.183339
  H 4.885662 -1.418828 -2.872438
  H 7.338204 -0.976667 -1.060691
  H 7.025777 -1.728683 -4.003355
  H 9.462810 -1.370674 -2.158356
  H 9.446900 -1.094031 -3.907466
  H 9.277313 -2.730056 -3.281623
 17
 14.060487
  H 1.477322 0.147068 -0.241184
  C 2.546036 0.140677 -0.222587
  C 3.254065 -0.832972 -0.778633
  C 4.705317 -0.902415 -0.755652
  C 5.386442 -1.154545 -1.897034
  C 6.819061 -1.278948 -1.943381
  C 7.518956 -1.503694 -3.061799
  C 9.000886 -1.660620 -3.120480
  H 3.023634 0.958962 0.292402
  H 2.746304 -1.675241 -1.240621
  H 5.156322 -0.123491 -0.154330
  H 4.872619 -1.381413 -2.823034
  H 7.353676 -1.142624 -1.010041
  H 7.003629 -1.599737 -4.004789
  H 9.438329 -1.629529 -2.127404
  H 9.448895 -0.868873 -3.728870
  H 9.255964 -2.607522 -3.584839
 17
 25.958771
  H 1.539039 0.324424 -0.339124
  C 2.612637 0.227493 -0.283361
  C 3.248225 -0.840053 -0.754906
  C 4.697358 -1.031204 -0.702037
  C 5.366773 -1.229958 -1.877683
  C 6.797149 -1.396404 -1.918545
  C 7.510985 -1.481664 -3.049256
  C 8.990785 -1.626735 -3.098273
  H 3.154915 1.067209 0.104644
  H 2.673024 -1.701738 -1.071608
  H 5.182756 -0.165704 -0.251728
  H 4.880239 -1.375979 -2.837327
  H 7.296386 -1.467593 -0.966099
  H 7.004463 -1.444601 -4.013064
  H 9.417179 -1.674751 -2.099469
  H 9.432023 -0.783115 -3.626553
  H 9.260273 -2.525306 -3.641590
 17
 44.769069
  H 1.514696 0.113272 -0.244752
  C 2.591968 0.088124 -0.270053
  C 3.264120 -0.971101 -0.691547
  C 4.715247 -1.094629 -0.666290
  C 5.405870 -1.054602 -1.857734
  C 6.829900 -1.245861 -1.905888
  C 7.524309 -1.317663 -3.048451
  C 8.951077 -1.721094 -3.138315
  H 3.097174 1.021473 -0.056794
  H 2.724517 -1.881301 -0.921854
  H 5.185350 -0.171698 -0.317584
  H 4.985277 -0.953870 -2.856613
  H 7.322404 -1.452291 -0.968113
  H 7.052166 -1.043244 -3.977965
  H 9.384491 -1.882808 -2.153686
  H 9.531944 -0.941423 -3.650650
  H 9.047278 -2.630860 -3.736648
 17
 65.247400
  H 1.491196 0.021197 -0.408120
  C 2.562120 0.063068 -0.449642
  C 3.307470 -1.018218 -0.617017
  C 4.753033 -1.074709 -0.552382
  C 5.457566 -0.924188 -1.753254
  C 6.853853 -1.239175 -1.851187
  C 7.511853 -1.320612 -3.013605
  C 8.932409 -1.732747 -3.155702
  H 3.003111 1.031781 -0.301733
  H 2.833517 -1.986270 -0.741421
  H 5.251299 -0.059908 -0.456439
  H 4.987648 -0.812422 -2.735215
  H 7.363894 -1.454003 -0.923497
  H 6.989165 -1.125013 -3.942350
  H 9.407781 -1.848122 -2.194045
  H 9.484687 -0.999827 -3.748494
  H 8.995380 -2.689498 -3.674675
 17
 76.569602
  H 1.516805 0.100882 -0.315033
  C 2.583067 0.085625 -0.453523
  C 3.265706 -1.051059 -0.573058
  C 4.693618 -1.206513 -0.583680
  C 5.430372 -0.967651 -1.762459
  C 6.854215 -1.281287 -1.853376
  C 7.521836 -1.327345 -3.002210
  C 8.956196 -1.702038 -3.134515
  H 3.075719 1.045586 -0.459176
  H 2.743795 -1.999816 -0.519123
  H 5.317201 -0.117893 -0.821769
  H 4.954778 -0.771067 -2.731786
  H 7.347288 -1.522247 -0.921026
  H 7.012342 -1.094613 -3.929386
  H 9.407160 -1.875423 -2.161285
  H 9.505335 -0.914079 -3.646104
  H 9.052563 -2.608740 -3.733594
 17
 72.884552
  H 1.516061 0.037051 -0.334924
  C 2.573545 0.015628 -0.527078
  C 3.261675 -1.127703 -0.577119
  C 4.669133 -1.291789 -0.598949
  C 5.458802 -0.818929 -1.704120
  C 6.870612 -1.250233 -1.828034
  C 7.525403 -1.280470 -2.980307
  C 8.927709 -1.756779 -3.146618
  H 3.067092 0.971870 -0.585960
  H 2.745085 -2.069837 -0.432248
  H 5.453824 0.046557 -0.963951
  H 4.981965 -0.571581 -2.657032
  H 7.336305 -1.579892 -0.911251
  H 7.040210 -0.937477 -3.887835
  H 9.365249 -2.022515 -2.184471
  H 9.538415 -0.985453 -3.615210
  H 8.948997 -2.628750 -3.798589
 17
 71.411790
  H 1.420123 -0.183386 -0.276684
  C 2.480343 -0.051091 -0.382189
  C 3.299773 -1.076452 -0.618556
  C 4.708455 -1.140262 -0.615354
  C 5.503195 -0.660651 -1.723051
  C 6.905633 -1.144708 -1.833995
  C 7.532732 -1.312238 -2.987553
  C 8.921881 -1.837435 -3.130244
  H 2.857632 0.949168 -0.252624
  H 2.893797 -2.085040 -0.677837
  H 5.537600 0.280806 -1.111050
  H 5.024648 -0.469565 -2.687675
  H 7.386401 -1.386760 -0.897181
  H 7.028147 -1.075219 -3.917428
  H 9.381387 -1.989974 -2.157610
  H 9.532859 -1.142834 -3.705821
  H 8.909399 -2.785963 -3.666250
 17
 68.796552
  H 1.533549 -0.089809 -0.271086
  C 2.571387 -0.081935 -0.555348
  C 3.300198 -1.214650 -0.605237
  C 4.693732 -1.283070 -0.616076
  C 5.497121 -0.606368 -1.637129
  C 6.885160 -1.142432 -1.793478
  C 7.498539 -1.267840 -2.958083
  C 8.875538 -1.814049 -3.137567
  H 3.035474 0.885357 -0.655460
  H 2.809796 -2.154495 -0.371456
  H 5.571382 0.362746 -1.110869
  H 5.012777 -0.436601 -2.606673
  H 7.362615 -1.451178 -0.874320
  H 7.000299 -0.958234 -3.869534
  H 9.314082 -2.083822 -2.179482
  H 9.513655 -1.077409 -3.624795
  H 8.848701 -2.697814 -3.774509
