 28
 0.000000
  C 0.903381 0.048728 0.272136
  C 2.394967 0.059103 0.088223
  C 3.238523 -0.012294 1.353639
  C 2.524147 -0.088341 2.701253
  C 3.531341 -0.152830 3.844218
  C 2.991424 0.127295 -1.120263
  C 2.353476 0.204797 -2.493756
  C 0.843356 0.217185 -2.713214
  H 0.628692 0.277119 -3.775401
  C 4.453065 0.132171 -1.206605
  C 5.194100 0.194380 -2.309192
  H 6.271438 0.193617 -2.295628
  H 0.607412 -0.010061 1.313949
  H 0.459660 -0.815322 -0.215398
  H 0.459659 0.962140 -0.115101
  H 3.884733 0.870701 1.383642
  H 3.884737 -0.893060 1.284119
  H 1.891998 -0.978151 2.745712
  H 1.891991 0.790815 2.845530
  H 4.166256 -1.031738 3.752954
  H 3.012745 -0.206718 4.799136
  H 4.166253 0.730767 3.852402
  H 2.745567 -0.643530 -3.065480
  H 2.745568 1.112063 -2.966419
  H 0.383964 1.076276 -2.233041
  H 0.383963 -0.690473 -2.332734
  H 4.993572 0.079562 -0.274246
  H 4.813442 0.251191 -3.315954
 28
 11.705423
  C 0.866493 0.046026 0.320021
  C 2.352545 0.055563 0.150959
  C 3.212342 -0.014497 1.392657
  C 2.515371 -0.091060 2.749441
  C 3.541638 -0.154605 3.875664
  C 3.019734 0.131800 -1.200084
  C 2.368443 0.208591 -2.560983
  C 0.854126 0.219005 -2.745458
  H 0.621637 0.278849 -3.806037
  C 4.468094 0.135265 -1.261447
  C 5.229462 0.196879 -2.353461
  H 6.306283 0.194397 -2.309448
  H 0.569438 -0.012771 1.361965
  H 0.424837 -0.815494 -0.175519
  H 0.424837 0.957825 -0.075455
  H 3.860156 0.868612 1.412317
  H 3.860161 -0.894212 1.312846
  H 1.885042 -0.981657 2.802978
  H 1.885039 0.787852 2.902827
  H 4.175804 -1.032696 3.772453
  H 3.040142 -0.209003 4.839639
  H 4.175807 0.729531 3.871887
  H 2.753786 -0.639847 -3.138275
  H 2.753785 1.116586 -3.039161
  H 0.402384 1.077163 -2.257758
  H 0.402383 -0.688572 -2.357394
  H 4.991008 0.082034 -0.318055
  H 4.862278 0.253946 -3.364775
 28
 35.154840
  C 0.831581 0.045635 0.326994
  C 2.308116 0.052668 0.202303
  C 3.203424 -0.014848 1.398850
  C 2.516506 -0.091793 2.762470
  C 3.553984 -0.154739 3.877995
  C 3.055726 0.136679 -1.286486
  C 2.380572 0.211151 -2.606368
  C 0.864917 0.217562 -2.719994
  H 0.592835 0.277222 -3.777227
  C 4.475878 0.136479 -1.282829
  C 5.253416 0.196196 -2.341259
  H 6.328982 0.190774 -2.245213
  H 0.532709 -0.013054 1.367036
  H 0.393208 -0.809686 -0.186624
  H 0.393210 0.953314 -0.087140
  H 3.853704 0.865642 1.398121
  H 3.853705 -0.889663 1.299073
  H 1.886462 -0.982440 2.816602
  H 1.886444 0.787127 2.916452
  H 4.187451 -1.032141 3.764706
  H 3.065893 -0.209501 4.848590
  H 4.187434 0.729814 3.864130
  H 2.749903 -0.634529 -3.196440
  H 2.749884 1.117814 -3.097520
  H 0.430840 1.076826 -2.215038
  H 0.430856 -0.693041 -2.314926
  H 4.967119 0.082442 -0.325188
  H 4.891798 0.253281 -3.353012
 28
 60.682940
  C 0.775653 0.044099 0.354616
  C 2.244501 0.049484 0.258749
  C 3.175260 -0.015352 1.407620
  C 2.523017 -0.093439 2.791684
  C 3.586551 -0.154993 3.882232
  C 3.072446 0.141253 -1.367762
  C 2.373664 0.214767 -2.670744
  C 0.859800 0.218411 -2.735426
  H 0.554778 0.277483 -3.782315
  C 4.489654 0.136943 -1.290737
  C 5.330920 0.195899 -2.335627
  H 6.401149 0.187146 -2.180227
  H 0.466382 -0.014574 1.394523
  H 0.342065 -0.806170 -0.170651
  H 0.342096 0.948078 -0.071661
  H 3.828025 0.865046 1.393573
  H 3.828000 -0.888603 1.294637
  H 1.895943 -0.985227 2.858810
  H 1.895961 0.785168 2.958703
  H 4.218323 -1.031367 3.752419
  H 3.123100 -0.210414 4.864598
  H 4.218339 0.730382 3.851824
  H 2.731457 -0.628433 -3.267078
  H 2.731448 1.119704 -3.168432
  H 0.442984 1.078137 -2.216250
  H 0.442995 -0.694258 -2.316262
  H 4.937717 0.081791 -0.313004
  H 4.995319 0.253540 -3.357583
 28
 85.712679
  C 0.757857 0.041860 0.394506
  C 2.217963 0.046144 0.318008
  C 3.157075 -0.017415 1.444124
  C 2.510039 -0.095587 2.829806
  C 3.574148 -0.157085 3.919158
  C 3.120559 0.145838 -1.449078
  C 2.390881 0.218631 -2.739347
  C 0.871082 0.218671 -2.740221
  H 0.518025 0.276601 -3.766943
  C 4.508338 0.140035 -1.345399
  C 5.368460 0.199205 -2.394050
  H 6.430975 0.190001 -2.230414
  H 0.435234 -0.016758 1.433451
  H 0.329761 -0.807759 -0.139284
  H 0.329804 0.946157 -0.040310
  H 3.811499 0.863690 1.425360
  H 3.811455 -0.890842 1.326366
  H 1.882431 -0.987296 2.895206
  H 1.882478 0.783135 2.995104
  H 4.205970 -1.033385 3.788855
  H 3.111281 -0.212519 4.901839
  H 4.206011 0.728263 3.888256
  H 2.731765 -0.627443 -3.349633
  H 2.731756 1.127993 -3.250583
  H 0.479220 1.075073 -2.202175
  H 0.479235 -0.692817 -2.301927
  H 4.944126 0.084361 -0.358252
  H 5.033524 0.256628 -3.412331
 28
 108.066920
  C 0.705586 0.038854 0.447870
  C 2.173009 0.042883 0.375846
  C 3.132585 -0.020213 1.493703
  C 2.504892 -0.099158 2.893085
  C 3.584655 -0.159802 3.967213
  C 3.147519 0.150584 -1.533207
  C 2.410332 0.222576 -2.809289
  C 0.890595 0.221230 -2.785651
  H 0.517954 0.279039 -3.810240
  C 4.528176 0.143726 -1.410759
  C 5.401922 0.202355 -2.449816
  H 6.465338 0.192333 -2.271623
  H 0.378188 -0.019701 1.485695
  H 0.278223 -0.810403 -0.088933
  H 0.278268 0.943134 0.010017
  H 3.787336 0.860723 1.464907
  H 3.787289 -0.892350 1.365994
  H 1.878993 -0.991174 2.966985
  H 1.879034 0.778927 3.066867
  H 4.215215 -1.035564 3.827776
  H 3.135986 -0.215617 4.956638
  H 4.215267 0.726043 3.927176
  H 2.744048 -0.623448 -3.423114
  H 2.744034 1.132275 -3.324042
  H 0.507531 1.079065 -2.238769
  H 0.507550 -0.692673 -2.338741
  H 4.951107 0.087781 -0.418790
  H 5.074873 0.260100 -3.473838
 28
 127.294675
  C 0.680869 0.035340 0.510296
  C 2.138362 0.039370 0.438203
  C 3.104320 -0.022542 1.534997
  C 2.489804 -0.101744 2.938943
  C 3.577625 -0.161873 4.003872
  C 3.181758 0.155162 -1.614355
  C 2.425382 0.226371 -2.876606
  C 0.906300 0.222787 -2.813319
  H 0.504899 0.279855 -3.824803
  C 4.553648 0.147295 -1.473910
  C 5.440397 0.205614 -2.507476
  H 6.499461 0.194990 -2.318562
  H 0.352183 -0.023268 1.549054
  H 0.254750 -0.813014 -0.028047
  H 0.254799 0.938897 0.070813
  H 3.758095 0.857491 1.497749
  H 3.758046 -0.892838 1.398993
  H 1.864565 -0.993778 3.016367
  H 1.864617 0.775961 3.116227
  H 4.207454 -1.037446 3.859437
  H 3.136754 -0.217876 4.996658
  H 4.207502 0.724329 3.958849
  H 2.746683 -0.620721 -3.497816
  H 2.746662 1.137954 -3.398573
  H 0.539073 1.078831 -2.255392
  H 0.539092 -0.690585 -2.355228
  H 4.966430 0.091037 -0.476344
  H 5.119451 0.263315 -3.530772
 28
 142.771956
  C 0.635520 0.032601 0.558967
  C 2.097719 0.036352 0.491749
  C 3.077857 -0.025032 1.579095
  C 2.481235 -0.104948 2.995719
  C 3.582658 -0.164329 4.047276
  C 3.215531 0.160074 -1.701506
  C 2.440196 0.230320 -2.946705
  C 0.923965 0.224210 -2.838725
  H 0.489784 0.280563 -3.837571
  C 4.576669 0.150864 -1.537124
  C 5.481980 0.208529 -2.559016
  H 6.539117 0.196873 -2.351794
  H 0.297007 -0.025952 1.596787
  H 0.212435 -0.815445 0.015374
  H 0.212489 0.936444 0.114232
  H 3.732427 0.855980 1.531654
  H 3.732368 -0.895155 1.432853
  H 1.857222 -0.997456 3.080031
  H 1.857271 0.772469 3.179904
  H 4.211229 -1.039467 3.894987
  H 3.154296 -0.220649 5.045679
  H 4.211287 0.722322 3.994401
  H 2.746551 -0.616305 -3.574225
  H 2.746530 1.142155 -3.475000
  H 0.574064 1.080434 -2.267290
  H 0.574092 -0.690844 -2.367241
  H 4.973236 0.094270 -0.533574
  H 5.172395 0.266510 -3.587327
 28
 154.709636
  C 0.607124 0.029055 0.622015
  C 2.063070 0.033151 0.548672
  C 3.046207 -0.027493 1.622774
  C 2.466024 -0.107778 3.045902
  C 3.577493 -0.166512 4.085847
  C 3.251495 0.164906 -1.787210
  C 2.453864 0.234260 -3.016528
  C 0.939413 0.225563 -2.862823
  H 0.472574 0.281020 -3.845799
  C 4.602423 0.154529 -1.601920
  C 5.524891 0.211626 -2.613765
  H 6.576593 0.199106 -2.391377
  H 0.264084 -0.029497 1.659816
  H 0.186683 -0.817361 0.076454
  H 0.186739 0.931502 0.175140
  H 3.699179 0.852165 1.565934
  H 3.699115 -0.895221 1.467340
  H 1.843136 -1.000191 3.135143
  H 1.843204 0.768978 3.234976
  H 4.204984 -1.041349 3.927295
  H 3.159176 -0.223070 5.088451
  H 4.205052 0.720544 4.026718
  H 2.744638 -0.614136 -3.651838
  H 2.744609 1.148734 -3.552368
  H 0.608183 1.080003 -2.279462
  H 0.608208 -0.689090 -2.379275
  H 4.985063 0.097579 -0.592058
  H 5.226737 0.269692 -3.643696
 28
 161.877091
  C 0.570990 0.024297 0.706284
  C 2.028584 0.030144 0.602123
  C 2.999053 -0.030950 1.684179
  C 2.445392 -0.112393 3.127638
  C 3.576272 -0.170121 4.149760
  C 3.283587 0.170049 -1.878424
  C 2.475782 0.239232 -3.104401
  C 0.962898 0.228541 -2.915692
  H 0.471222 0.283148 -3.883584
  C 4.629134 0.159436 -1.688654
  C 5.565910 0.216075 -2.692784
  H 6.615772 0.203086 -2.462824
  H 0.213315 -0.034566 1.749525
  H 0.157136 -0.819154 0.156744
  H 0.157176 0.924235 0.255122
  H 3.649617 0.847364 1.611969
  H 3.649557 -0.895603 1.513613
  H 1.824577 -1.005739 3.228665
  H 1.824637 0.763957 3.328540
  H 4.202021 -1.044423 3.980362
  H 3.176299 -0.227143 5.160414
  H 4.202097 0.717653 4.079801
  H 2.754263 -0.610576 -3.745277
  H 2.754220 1.155770 -3.645622
  H 0.646454 1.081448 -2.322470
  H 0.646502 -0.685705 -2.422192
  H 5.001918 0.102239 -0.674380
  H 5.280507 0.274363 -3.727038
 28
 163.173914
  C 0.543738 0.018445 0.809698
  C 1.995231 0.026681 0.663669
  C 2.945824 -0.035189 1.759567
  C 2.419791 -0.117103 3.211043
  C 3.566699 -0.173673 4.212841
  C 3.310679 0.174922 -1.964596
  C 2.501921 0.244226 -3.192019
  C 0.988009 0.231915 -2.975428
  H 0.475781 0.285886 -3.931985
  C 4.660383 0.164751 -1.781996
  C 5.602386 0.221133 -2.782996
  H 6.650759 0.208165 -2.555075
  H 0.179071 -0.040310 1.850863
  H 0.134978 -0.823926 0.255278
  H 0.134984 0.917846 0.353567
  H 3.594593 0.842267 1.671930
  H 3.594560 -0.897241 1.573748
  H 1.801804 -1.010371 3.322954
  H 1.801854 0.757910 3.422757
  H 4.190379 -1.047301 4.032806
  H 3.184905 -0.231083 5.230157
  H 4.190429 0.714644 4.132249
  H 2.772197 -0.607859 -3.837972
  H 2.772104 1.163637 -3.738026
  H 0.683532 1.082652 -2.374280
  H 0.683624 -0.681117 -2.473836
  H 5.030469 0.107359 -0.763858
  H 5.323735 0.279431 -3.818765
 28
 162.311779
  C 0.506767 0.012899 0.907307
  C 1.959907 0.023032 0.728390
  C 2.902772 -0.039678 1.839363
  C 2.397298 -0.121882 3.295479
  C 3.558381 -0.177544 4.281518
  C 3.334351 0.179677 -2.048252
  C 2.528666 0.248942 -3.273622
  C 1.018417 0.235171 -3.033192
  H 0.488488 0.288626 -3.980510
  C 4.689759 0.170164 -1.875443
  C 5.630754 0.226311 -2.876124
  H 6.681953 0.213409 -2.652860
  H 0.139628 -0.045734 1.945989
  H 0.100371 -0.829460 0.347393
  H 0.100324 0.912886 0.445726
  H 3.551988 0.838451 1.738709
  H 3.551989 -0.900893 1.640513
  H 1.780861 -1.016007 3.416073
  H 1.780864 0.752978 3.515938
  H 4.180458 -1.050775 4.092799
  H 3.191313 -0.235297 5.304530
  H 4.180471 0.711393 4.192273
  H 2.791902 -0.602424 -3.922029
  H 2.791680 1.167992 -3.822120
  H 0.724539 1.084719 -2.424596
  H 0.724755 -0.677595 -2.524151
  H 5.059621 0.112820 -0.856552
  H 5.352127 0.284474 -3.913446
 28
 150.807702
  C 0.496822 -0.009737 0.910807
  C 1.941839 0.030144 0.660262
  C 2.870148 -0.030187 1.788391
  C 2.392932 -0.124374 3.241173
  C 3.574021 -0.180306 4.202680
  C 3.330952 0.147614 -1.975560
  C 2.545869 0.379916 -3.191599
  C 1.043606 0.225649 -2.982639
  H 0.514516 0.289600 -3.928370
  C 4.686468 0.347647 -1.840272
  C 5.597020 0.135359 -2.833501
  H 6.645216 -0.004106 -2.610802
  H 0.146699 -0.070513 1.946267
  H 0.111913 -0.858267 0.340546
  H 0.070202 0.869605 0.427069
  H 3.522215 0.843014 1.663084
  H 3.523688 -0.879206 1.551704
  H 1.782808 -1.021458 3.368628
  H 1.774411 0.745152 3.480470
  H 4.196867 -1.048845 3.994573
  H 3.228975 -0.246951 5.233127
  H 4.189173 0.712453 4.106432
  H 2.894289 -0.442557 -3.830580
  H 2.762110 1.315590 -3.717835
  H 0.680240 1.010705 -2.329107
  H 0.830042 -0.733338 -2.516619
  H 5.062834 0.460624 -0.830654
  H 5.284533 -0.096570 -3.838574
