9

H -3.511922 0.981264 -0.128315
C -2.067256 0.589094 -0.028933
C -1.648132 -0.472032 0.639442
C -0.236225 -0.940215 0.79792
H 0.45429061742277044 -0.2621960380666858 0.2749683106881463
H -1.365257 1.230803 -0.5397
H -2.37923 -1.098299 1.140795
H -0.010482 -0.993169 1.869956
H -0.172772 -1.963357 0.40698
