 20
 0.000000
  C 1.006600 -0.071485 0.047722
  C 2.502916 -0.082175 0.026739
  C 3.219639 -0.594706 -0.979448
  C 4.657053 -0.605681 -1.000992
  C 5.378067 -1.120873 -2.012398
  C 6.816197 -1.130857 -2.031995
  C 7.534976 -1.642519 -3.036480
  C 9.024821 -1.662080 -3.074875
  H 0.643202 0.394424 0.962374
  H 0.611548 -1.086305 0.007997
  H 0.611551 0.493053 -0.796510
  H 3.002959 0.353247 0.881547
  H 2.709058 -1.028238 -1.830533
  H 5.161466 -0.170837 -0.147324
  H 4.874094 -1.555783 -2.866200
  H 7.322582 -0.696369 -1.179022
  H 7.036287 -2.078741 -3.892841
  H 9.458072 -1.208897 -2.185206
  H 9.384158 -1.116478 -3.948682
  H 9.384155 -2.689681 -3.147321
 20
 10.651110
  C 0.957569 -0.053644 0.082752
  C 2.453312 -0.073519 0.043728
  C 3.156255 -0.588449 -0.967169
  C 4.594794 -0.608326 -1.006190
  C 5.295870 -1.123684 -2.017923
  C 6.860145 -1.139939 -2.049827
  C 7.552929 -1.649798 -3.050772
  C 9.176295 -1.676487 -3.103158
  H 0.604575 0.413362 0.999557
  H 0.557029 -1.065784 0.043672
  H 0.557026 0.509838 -0.758934
  H 2.966392 0.358492 0.891838
  H 2.635391 -1.019266 -1.812923
  H 5.110842 -0.176340 -0.158131
  H 4.791649 -1.556578 -2.867766
  H 7.365875 -0.707230 -1.200348
  H 7.053734 -2.083975 -3.903122
  H 9.604128 -1.224418 -2.215672
  H 9.522333 -1.132951 -3.977184
  H 9.522333 -2.703060 -3.177405
 20
 33.534635
  C 0.927739 -0.035246 0.118727
  C 2.420576 -0.067837 0.054928
  C 3.101499 -0.583108 -0.956619
  C 4.535729 -0.613929 -1.017020
  C 5.213360 -1.134298 -2.038564
  C 6.899336 -1.147457 -2.064441
  C 7.556716 -1.660462 -3.071576
  C 9.319202 -1.683758 -3.117594
  H 0.590956 0.433609 1.039168
  H 0.518303 -1.044260 0.082491
  H 0.518389 0.528805 -0.718778
  H 2.952139 0.359363 0.893711
  H 2.569826 -1.010546 -1.795771
  H 5.062894 -0.185756 -0.176399
  H 4.735811 -1.572281 -2.898373
  H 7.374117 -0.709651 -1.205005
  H 7.087270 -2.099351 -3.933155
  H 9.701016 -1.224621 -2.216322
  H 9.633034 -1.132901 -3.996243
  H 9.633175 -2.718338 -3.188657
 20
 60.339747
  C 0.905430 -0.011288 0.166106
  C 2.397231 -0.059482 0.071275
  C 3.060872 -0.584997 -0.960522
  C 4.486018 -0.628349 -1.045774
  C 5.134406 -1.153002 -2.075759
  C 6.928867 -1.156630 -2.082651
  C 7.546149 -1.672738 -3.095923
  C 9.461353 -1.683381 -3.116546
  H 0.588101 0.459440 1.090277
  H 0.486128 -1.015749 0.130948
  H 0.485983 0.550866 -0.667089
  H 2.951248 0.361978 0.898648
  H 2.516910 -1.008071 -1.790977
  H 5.023844 -0.205506 -0.215705
  H 4.703747 -1.599975 -2.953175
  H 7.347932 -0.709355 -1.204719
  H 7.134866 -2.121277 -3.976358
  H 9.763590 -1.213233 -2.193589
  H 9.726665 -1.118549 -4.001109
  H 9.726577 -2.731089 -3.179703
 20
 88.366445
  C 0.872909 0.008123 0.204093
  C 2.362722 -0.053322 0.083376
  C 3.000920 -0.582979 -0.956511
  C 4.437920 -0.638451 -1.065475
  C 5.055100 -1.159055 -2.087510
  C 6.949308 -1.163062 -2.095238
  C 7.544363 -1.684833 -3.119622
  C 9.620268 -1.690795 -3.131151
  H 0.575297 0.482467 1.135331
  H 0.443851 -0.993474 0.174374
  H 0.443826 0.572962 -0.623504
  H 2.936324 0.363866 0.902405
  H 2.439239 -1.002159 -1.779384
  H 4.993321 -0.218014 -0.240100
  H 4.646258 -1.607168 -2.967197
  H 7.336640 -0.711794 -1.209424
  H 7.171869 -2.138011 -4.009181
  H 9.879329 -1.218715 -2.204394
  H 9.851082 -1.125125 -4.010965
  H 9.851006 -2.735068 -3.190835
 20
 114.051727
  C 0.838066 0.031271 0.249499
  C 2.327910 -0.042724 0.104162
  C 2.944568 -0.578719 -0.948135
  C 4.388682 -0.646186 -1.080605
  C 4.995683 -1.176393 -2.121504
  C 6.952517 -1.181228 -2.130911
  C 7.521032 -1.700370 -3.150123
  C 9.794635 -1.692815 -3.135097
  H 0.559275 0.508528 1.186426
  H 0.400224 -0.967176 0.225985
  H 0.400244 0.599222 -0.571853
  H 2.919222 0.370671 0.915727
  H 2.366942 -0.992779 -1.760987
  H 4.957714 -0.228307 -0.260244
  H 4.603797 -1.626081 -3.004307
  H 7.303276 -0.725880 -1.237040
  H 7.203726 -2.158939 -4.050304
  H 10.001498 -1.218734 -2.204411
  H 9.992547 -1.125966 -4.009194
  H 9.992470 -2.733114 -3.190493
 20
 135.426266
  C 0.827134 0.049164 0.284678
  C 2.309282 -0.036629 0.116158
  C 2.901691 -0.576560 -0.943856
  C 4.345380 -0.654915 -1.097666
  C 4.930085 -1.185586 -2.139491
  C 6.933737 -1.194181 -2.156425
  C 7.472958 -1.709807 -3.168742
  C 9.959724 -1.690392 -3.130356
  H 0.569138 0.527920 1.224562
  H 0.381375 -0.945005 0.269157
  H 0.381280 0.621159 -0.528679
  H 2.912818 0.369478 0.913395
  H 2.305688 -0.987675 -1.750944
  H 4.927222 -0.240341 -0.283805
  H 4.543313 -1.637477 -3.026616
  H 7.256977 -0.734360 -1.253755
  H 7.199115 -2.175406 -4.082723
  H 10.122384 -1.210874 -2.188991
  H 10.128962 -1.112763 -4.016917
  H 10.128871 -2.747225 -3.184378
 20
 150.819211
  C 0.797653 0.065974 0.317696
  C 2.277970 -0.027818 0.133349
  C 2.853930 -0.570662 -0.932229
  C 4.306256 -0.658015 -1.103572
  C 4.878870 -1.191115 -2.150168
  C 6.898635 -1.208998 -2.186045
  C 7.419263 -1.722004 -3.193109
  C 10.149651 -1.694721 -3.138576
  H 0.553114 0.547058 1.262048
  H 0.346145 -0.926222 0.308874
  H 0.346065 0.642034 -0.490011
  H 2.894182 0.376606 0.927088
  H 2.245594 -0.977820 -1.731594
  H 4.899877 -0.244984 -0.292771
  H 4.479262 -1.640980 -3.033269
  H 7.213729 -0.747852 -1.280624
  H 7.169471 -2.190733 -4.113262
  H 10.294695 -1.212202 -2.191242
  H 10.305801 -1.116693 -4.028197
  H 10.305466 -2.754140 -3.194038
 20
 133.115007
  C 0.840322 0.078709 0.334563
  C 2.322503 -0.015680 0.156722
  C 2.913597 -0.556941 -0.908177
  C 4.341523 -0.651247 -1.071366
  C 4.928674 -1.193524 -2.140888
  C 6.406726 -1.271407 -2.302716
  C 7.013660 -1.790720 -3.319751
  C 10.523452 -1.645360 -3.054917
  H 0.583451 0.564034 1.275861
  H 0.390404 -0.919464 0.319552
  H 0.387482 0.645211 -0.487674
  H 2.923460 0.378167 0.938319
  H 2.301054 -0.959946 -1.721734
  H 4.946647 -0.248752 -0.268275
  H 4.341085 -1.601391 -2.951142
  H 6.960039 -0.850779 -1.473379
  H 6.846425 -2.265554 -4.243156
  H 10.523052 -1.156442 -2.104148
  H 10.635573 -1.063276 -3.944377
  H 10.639873 -2.706736 -3.099280
 20
 122.446001
  C 0.936700 0.024600 0.247685
  C 2.420439 -0.052173 0.115880
  C 3.025616 -0.581393 -0.905177
  C 4.448841 -0.582038 -1.065705
  C 5.071769 -1.129591 -2.115530
  C 6.547852 -1.225821 -2.218375
  C 7.200694 -1.721997 -3.251517
  C 10.128536 -1.663781 -3.029978
  H 0.651685 0.575976 1.136146
  H 0.504498 -0.976197 0.306523
  H 0.500170 0.515270 -0.622261
  H 3.005603 0.360526 0.923130
  H 2.445490 -1.057882 -1.685044
  H 5.027091 -0.140564 -0.263764
  H 4.501741 -1.575133 -2.913949
  H 7.088463 -0.820833 -1.373759
  H 7.006205 -2.155398 -4.205574
  H 10.095544 -1.213674 -2.062639
  H 10.210245 -1.048844 -3.898420
  H 10.185480 -2.726108 -3.119213
