 14
 0.000000
  H 1.435555 0.136395 0.390425
  C 2.514324 0.121290 0.352528
  C 3.209570 0.615099 1.581710
  H 2.482984 0.915418 2.329559
  C 3.113069 -0.323054 -0.753905
  C 4.541068 -0.395885 -0.935614
  C 5.126247 -0.842616 -2.048804
  H 4.572690 -1.187017 -2.906858
  O 6.465630 -0.921551 -2.245739
  H 3.844967 1.472268 1.353687
  H 3.845064 -0.161549 2.009982
  H 2.503335 -0.655185 -1.580702
  H 5.161974 -0.065838 -0.113465
  H 6.907032 -0.602208 -1.449882
 14
 1.060720
  H 1.438001 0.007341 0.425323
  C 2.513985 0.092380 0.367559
  C 3.191479 0.660594 1.576122
  H 2.483325 0.783259 2.391422
  C 3.127224 -0.282207 -0.756495
  C 4.555068 -0.319903 -0.950268
  C 5.129114 -0.782659 -2.063412
  H 4.573208 -1.007758 -2.962754
  O 6.455077 -0.992503 -2.236045
  H 3.623961 1.635010 1.348964
  H 3.996956 0.011210 1.918584
  H 2.532711 -0.657870 -1.578645
  H 5.179563 -0.072012 -0.100141
  H 6.899419 -0.961976 -1.378956
 14
 2.890805
  H 1.440876 0.016045 0.418142
  C 2.522141 0.118190 0.364944
  C 3.179443 0.698404 1.576663
  H 2.528720 0.614252 2.441289
  C 3.141832 -0.257208 -0.756874
  C 4.568336 -0.300103 -0.962003
  C 5.139397 -0.753056 -2.081201
  H 4.615712 -0.837923 -3.022411
  O 6.439533 -1.126170 -2.197718
  H 3.397654 1.751298 1.418155
  H 4.120109 0.195434 1.803325
  H 2.549977 -0.661356 -1.566410
  H 5.199066 -0.115602 -0.096588
  H 6.820217 -1.220791 -1.316789
 14
 8.676079
  H 1.472276 -0.059874 0.457157
  C 2.534460 0.107953 0.375592
  C 3.184221 0.721719 1.569717
  H 2.599251 0.528528 2.465049
  C 3.149406 -0.238902 -0.759681
  C 4.564867 -0.222095 -0.999603
  C 5.146787 -0.724666 -2.098291
  H 4.746757 -0.623814 -3.099867
  O 6.408313 -1.224955 -2.108586
  H 3.265641 1.806402 1.445386
  H 4.188865 0.332694 1.719670
  H 2.555434 -0.650824 -1.566363
  H 5.201877 -0.072445 -0.137778
  H 6.592053 -1.550396 -1.219714
 14
 18.018204
  H 1.484291 -0.133814 0.491668
  C 2.539949 0.093387 0.384015
  C 3.209006 0.702631 1.572756
  H 2.587070 0.598641 2.458806
  C 3.143464 -0.210578 -0.773836
  C 4.539094 -0.114152 -1.066262
  C 5.147389 -0.683821 -2.132798
  H 4.895351 -0.515762 -3.168776
  O 6.301907 -1.394808 -2.007881
  H 3.394669 1.764341 1.406154
  H 4.171916 0.231354 1.764920
  H 2.560581 -0.648907 -1.570765
  H 5.189517 0.091839 -0.215845
  H 6.374586 -1.643579 -1.080200
 14
 28.462465
  H 1.526038 -0.209822 0.529509
  C 2.563836 0.060901 0.408233
  C 3.202125 0.768171 1.555862
  H 2.604415 0.652625 2.457270
  C 3.169361 -0.211523 -0.758383
  C 4.567821 -0.113239 -1.041519
  C 5.182480 -0.624810 -2.152024
  H 5.055641 -0.286795 -3.166450
  O 6.154418 -1.577124 -2.048233
  H 3.302884 1.843097 1.349632
  H 4.197703 0.380698 1.744692
  H 2.586446 -0.697495 -1.532249
  H 5.219596 0.021050 -0.176383
  H 6.159178 -1.869407 -1.117266
 14
 43.925722
  H 1.540167 -0.190294 0.510724
  C 2.580655 0.096937 0.402979
  C 3.203764 0.795298 1.563335
  H 2.657354 0.580380 2.477099
  C 3.233513 -0.237168 -0.732249
  C 4.598705 -0.072557 -1.015445
  C 5.215690 -0.643570 -2.124487
  H 5.124312 -0.272670 -3.141615
  O 6.005077 -1.740615 -2.080915
  H 3.204755 1.872976 1.419549
  H 4.242163 0.487269 1.692233
  H 2.653628 -0.710353 -1.517815
  H 5.253091 0.301842 -0.232429
  H 5.972282 -2.147466 -1.206675
 14
 64.242007
  H 1.572274 -0.192311 0.551663
  C 2.616638 0.056305 0.454709
  C 3.232234 0.838566 1.566282
  H 2.637067 0.750694 2.472307
  C 3.277813 -0.331721 -0.679900
  C 4.609650 -0.088711 -0.990888
  C 5.252517 -0.622281 -2.159021
  H 5.318222 -0.114889 -3.112266
  O 5.800551 -1.850743 -2.201258
  H 3.301836 1.898356 1.309926
  H 4.241537 0.487792 1.783249
  H 2.707506 -0.882099 -1.420809
  H 5.233413 0.433394 -0.274692
  H 5.699663 -2.284464 -1.341181
 14
 45.934073
  H 1.604563 -0.243753 0.583352
  C 2.648894 0.009602 0.467448
  C 3.278035 0.820148 1.565013
  H 2.680933 0.763460 2.472530
  C 3.283993 -0.384409 -0.656082
  C 4.595981 -0.017662 -1.035245
  C 5.287161 -0.587127 -2.115808
  H 5.521352 -0.074669 -3.039095
  O 5.600152 -1.903647 -2.205557
  H 3.350303 1.870691 1.279530
  H 4.290169 0.469411 1.792776
  H 2.723588 -0.962104 -1.385719
  H 5.144055 0.617847 -0.361654
  H 5.359403 -2.375002 -1.390629
 14
 28.996474
  H 1.640275 -0.223831 0.615053
  C 2.688373 -0.015756 0.484037
  C 3.341008 0.813933 1.547257
  H 2.738686 0.817314 2.451956
  C 3.299584 -0.438785 -0.635869
  C 4.595547 0.005239 -1.070167
  C 5.307138 -0.561040 -2.088351
  H 5.694647 -0.027427 -2.932770
  O 5.472137 -1.899881 -2.252900
  H 3.453450 1.850009 1.212985
  H 4.333881 0.434356 1.793758
  H 2.742065 -1.038275 -1.345823
  H 5.096948 0.720307 -0.430273
  H 5.138446 -2.363775 -1.470742
 14
 15.822626
  H 1.659479 -0.195472 0.642689
  C 2.712193 -0.006694 0.482975
  C 3.409789 0.788400 1.538692
  H 2.827693 0.798525 2.456660
  C 3.288702 -0.435401 -0.650905
  C 4.577368 0.025754 -1.104331
  C 5.325440 -0.583159 -2.053890
  H 5.891436 -0.065157 -2.815012
  O 5.357425 -1.927350 -2.249304
  H 3.556151 1.820506 1.213608
  H 4.389728 0.367258 1.759709
  H 2.746898 -1.078418 -1.331226
  H 4.987553 0.883694 -0.594644
  H 4.884547 -2.347448 -1.519666
 14
 6.657367
  H 1.715439 -0.269366 0.689840
  C 2.751965 -0.027151 0.500798
  C 3.434411 0.808910 1.532507
  H 2.867222 0.812315 2.459385
  C 3.326062 -0.447324 -0.630510
  C 4.617888 0.023002 -1.109238
  C 5.351543 -0.610623 -2.032248
  H 6.088476 -0.131377 -2.647242
  O 5.193013 -1.916237 -2.365267
  H 3.527142 1.839416 1.190711
  H 4.437881 0.434653 1.736366
  H 2.772775 -1.081949 -1.307410
  H 5.014890 0.912013 -0.652338
  H 4.608452 -2.317476 -1.704954
 14
 2.873103
  H 1.782138 -0.389633 0.751108
  C 2.776994 -0.048741 0.500667
  C 3.473626 0.786158 1.527647
  H 2.941760 0.760561 2.474733
  C 3.302522 -0.375668 -0.679360
  C 4.589633 0.090473 -1.174425
  C 5.377654 -0.635084 -1.969980
  H 6.269127 -0.243285 -2.436551
  O 5.165188 -1.929805 -2.305424
  H 3.532696 1.824582 1.197838
  H 4.491404 0.433435 1.687456
  H 2.721090 -0.990675 -1.358408
  H 4.924687 1.063801 -0.853909
  H 4.425421 -2.261546 -1.778855
 14
 3.837200
  H 1.777951 -0.334667 0.677512
  C 2.776720 -0.008972 0.425583
  C 3.524910 0.711189 1.502528
  H 3.096795 0.505750 2.479188
  C 3.257398 -0.231649 -0.793153
  C 4.570347 0.209143 -1.270455
  C 5.430591 -0.622803 -1.852697
  H 6.373111 -0.304580 -2.274288
  O 5.221274 -1.951579 -2.020850
  H 3.485877 1.787987 1.336574
  H 4.573320 0.416726 1.507617
  H 2.630961 -0.738536 -1.522119
  H 4.846389 1.239218 -1.109873
  H 4.398785 -2.175040 -1.563569
