 22
 0.000000
  H 1.545935 0.153967 0.436244
  C 2.627000 0.137214 0.394214
  C 3.346475 0.612278 1.575000
  C 2.452697 1.072174 2.719038
  C 3.273596 1.551566 3.910596
  C 3.204191 -0.329063 -0.766206
  C 4.590169 -0.419565 -0.991350
  C 5.164510 -0.884247 -2.151454
  C 4.494102 -1.364246 -3.351621
  H 3.411070 -1.346392 -3.309347
  H 6.245185 -0.903637 -2.198485
  H 4.018008 1.431123 1.286285
  H 4.018447 -0.178093 1.933461
  H 1.807930 0.250961 3.037834
  H 1.807629 1.885201 2.380640
  H 3.906899 0.755025 4.294432
  H 2.618817 1.875119 4.715499
  H 3.906466 2.392353 3.635933
  H 2.540180 -0.646697 -1.557506
  H 5.257820 -0.103791 -0.202195
  H 4.841061 -2.377853 -3.569740
  H 4.842403 -0.781748 -4.208766
 22
 4.970352
  H 1.476458 0.169246 0.475251
  C 2.558000 0.142117 0.407091
  C 3.310538 0.612425 1.575302
  C 2.453094 1.081426 2.742122
  C 3.308249 1.553016 3.913591
  C 3.114519 -0.332460 -0.773857
  C 4.486288 -0.428739 -1.013339
  C 5.151736 -0.869993 -2.115492
  C 4.559258 -1.367363 -3.360383
  H 3.477108 -1.366883 -3.362317
  H 6.234107 -0.866446 -2.104680
  H 3.990288 1.420305 1.269290
  H 3.991128 -0.181796 1.913595
  H 1.806543 0.266985 3.075989
  H 1.805919 1.899766 2.419264
  H 3.942861 0.750704 4.281762
  H 2.677005 1.882987 4.734643
  H 3.942097 2.387342 3.623412
  H 2.443907 -0.647707 -1.559111
  H 5.270324 -0.165531 -0.354520
  H 4.931396 -2.374196 -3.563880
  H 4.933236 -0.779569 -4.201948
 22
 15.677272
  H 1.435811 0.181187 0.503656
  C 2.513173 0.147392 0.419278
  C 3.283087 0.606685 1.561138
  C 2.452902 1.084349 2.749007
  C 3.336525 1.548185 3.903070
  C 3.049686 -0.328164 -0.764160
  C 4.415997 -0.429414 -1.017774
  C 5.133688 -0.858856 -2.089538
  C 4.608586 -1.359993 -3.340097
  H 3.521466 -1.374920 -3.378329
  H 6.208738 -0.841119 -2.045264
  H 3.966714 1.403079 1.240154
  H 3.966773 -0.189949 1.880765
  H 1.805012 0.276060 3.096420
  H 1.805151 1.908464 2.440207
  H 3.971933 0.739417 4.258202
  H 2.725130 1.883528 4.737346
  H 3.972061 2.377769 3.599627
  H 2.373281 -0.641684 -1.544072
  H 5.290524 -0.216768 -0.488092
  H 5.002300 -2.364289 -3.527243
  H 5.002921 -0.763639 -4.169147
 22
 29.664705
  H 1.396249 0.187432 0.519147
  C 2.474906 0.149931 0.425571
  C 3.264633 0.607651 1.563658
  C 2.449930 1.093152 2.770850
  C 3.352640 1.551974 3.912661
  C 3.000617 -0.326852 -0.760741
  C 4.359244 -0.427644 -1.013720
  C 5.130657 -0.852328 -2.073700
  C 4.647763 -1.365804 -3.354574
  H 3.555240 -1.391981 -3.420956
  H 6.217735 -0.829678 -2.017072
  H 3.950990 1.399927 1.231703
  H 3.950682 -0.193634 1.872540
  H 1.802409 0.289526 3.128009
  H 1.802632 1.920836 2.472263
  H 3.988058 0.739773 4.258495
  H 2.755585 1.890774 4.755546
  H 3.988278 2.377554 3.600179
  H 2.322782 -0.639083 -1.536761
  H 5.312291 -0.261240 -0.600083
  H 5.059268 -2.373634 -3.532478
  H 5.059893 -0.760885 -4.179559
 22
 44.732197
  H 1.376041 0.190885 0.527985
  C 2.452866 0.151296 0.429659
  C 3.253841 0.608691 1.566946
  C 2.455195 1.091461 2.766062
  C 3.368297 1.548709 3.903815
  C 2.968686 -0.323869 -0.752123
  C 4.327627 -0.422184 -0.999518
  C 5.131919 -0.841441 -2.046959
  C 4.672464 -1.363570 -3.350266
  H 3.587630 -1.395585 -3.431599
  H 6.210661 -0.822544 -1.998881
  H 3.941364 1.400064 1.230902
  H 3.940971 -0.195343 1.873243
  H 1.805444 0.286908 3.127664
  H 1.806283 1.922744 2.469654
  H 4.003781 0.734771 4.245765
  H 2.777305 1.889587 4.750980
  H 4.004336 2.372355 3.587100
  H 2.283425 -0.635043 -1.524684
  H 5.323143 -0.295252 -0.684581
  H 5.086138 -2.357423 -3.522046
  H 5.086890 -0.764746 -4.161582
 22
 57.084309
  H 1.379364 0.188510 0.538300
  C 2.457746 0.146611 0.440075
  C 3.256211 0.605040 1.575961
  C 2.448084 1.099518 2.775886
  C 3.355225 1.558434 3.911824
  C 2.975930 -0.334539 -0.739724
  C 4.336234 -0.429551 -0.993558
  C 5.149557 -0.841687 -2.054041
  C 4.668708 -1.351878 -3.361205
  H 3.592795 -1.370945 -3.433799
  H 6.239091 -0.845918 -2.025123
  H 3.942633 1.391019 1.238093
  H 3.934000 -0.197595 1.889256
  H 1.797480 0.301492 3.138044
  H 1.806013 1.928838 2.473312
  H 3.987138 0.742781 4.260282
  H 2.761473 1.905811 4.755201
  H 3.995628 2.379207 3.592125
  H 2.282075 -0.659201 -1.512868
  H 5.381151 -0.338682 -0.775551
  H 5.069435 -2.353121 -3.532764
  H 5.081626 -0.753148 -4.176114
 22
 63.755092
  H 1.405785 0.088483 0.578013
  C 2.478618 0.109989 0.447336
  C 3.275817 0.631926 1.561847
  C 2.450707 1.062704 2.767820
  C 3.342985 1.583164 3.898448
  C 2.995604 -0.336700 -0.733064
  C 4.347504 -0.384932 -1.049603
  C 5.171591 -0.793399 -2.060438
  C 4.652620 -1.426673 -3.311809
  H 3.576775 -1.532539 -3.291924
  H 6.264563 -0.687573 -2.121338
  H 3.889547 1.474123 1.229397
  H 4.000242 -0.135798 1.856240
  H 1.860588 0.216600 3.133814
  H 1.750048 1.850224 2.473596
  H 4.038401 0.806056 4.237638
  H 2.733362 1.889030 4.756132
  H 3.925172 2.452455 3.570130
  H 2.302828 -0.676996 -1.496856
  H 5.414530 -0.246771 -0.869578
  H 5.100896 -2.394897 -3.496067
  H 4.951674 -0.788343 -4.130211
 22
 67.307451
  H 1.384220 0.137986 0.571706
  C 2.462279 0.146030 0.428406
  C 3.288599 0.651666 1.565815
  C 2.460275 1.059519 2.781842
  C 3.347628 1.551349 3.913314
  C 2.958354 -0.276462 -0.744853
  C 4.303163 -0.358022 -1.103728
  C 5.169510 -0.783709 -2.046643
  C 4.684555 -1.485827 -3.309017
  H 3.605234 -1.628788 -3.286550
  H 6.245841 -0.641593 -2.132904
  H 3.899431 1.508850 1.245707
  H 4.005754 -0.134550 1.852567
  H 1.870344 0.208907 3.131561
  H 1.763181 1.854186 2.503905
  H 4.031867 0.776661 4.230345
  H 2.748600 1.837468 4.765455
  H 3.923370 2.412612 3.604845
  H 2.251020 -0.573101 -1.530812
  H 5.404744 -0.216448 -0.928070
  H 5.174090 -2.453459 -3.456896
  H 4.966387 -0.843537 -4.135129
 22
 67.171873
  H 1.371514 0.220088 0.558557
  C 2.435319 0.220590 0.401439
  C 3.277148 0.667607 1.536203
  C 2.468393 1.031105 2.778755
  C 3.376518 1.473985 3.918330
  C 2.909204 -0.166781 -0.806434
  C 4.241942 -0.250736 -1.178956
  C 5.174778 -0.711141 -2.052972
  C 4.725459 -1.595978 -3.223184
  H 3.666811 -1.833580 -3.145684
  H 6.234624 -0.476702 -2.196616
  H 3.878467 1.532283 1.239326
  H 3.985804 -0.130242 1.785388
  H 1.881731 0.170821 3.101704
  H 1.773481 1.837710 2.542528
  H 4.065278 0.679683 4.195139
  H 2.788695 1.730117 4.795519
  H 3.955422 2.348762 3.634037
  H 2.196209 -0.406411 -1.589362
  H 5.356308 -0.075573 -0.994613
  H 5.300720 -2.520977 -3.277903
  H 4.916343 -1.022375 -4.122129
 22
 68.614427
  H 1.357485 0.304043 0.525646
  C 2.421519 0.290771 0.366971
  C 3.272087 0.674832 1.511364
  C 2.476068 1.008862 2.769118
  C 3.397478 1.393258 3.920156
  C 2.885522 -0.066954 -0.861710
  C 4.209966 -0.158396 -1.237107
  C 5.184103 -0.663250 -2.055351
  C 4.747887 -1.679403 -3.119030
  H 3.712431 -1.983365 -2.969173
  H 6.215197 -0.359821 -2.265636
  H 3.887052 1.535175 1.242566
  H 3.965280 -0.139433 1.730173
  H 1.875594 0.149602 3.063035
  H 1.796287 1.835299 2.565134
  H 4.074525 0.573768 4.166009
  H 2.816849 1.629181 4.810781
  H 3.993002 2.268384 3.664144
  H 2.166990 -0.258847 -1.646623
  H 5.339924 0.029269 -1.073981
  H 5.389323 -2.565792 -3.128831
  H 4.851528 -1.177042 -4.067737
 22
 69.010348
  H 1.349832 0.372714 0.482045
  C 2.415915 0.345499 0.327470
  C 3.273758 0.673193 1.488324
  C 2.483966 0.983945 2.754780
  C 3.413322 1.315343 3.920053
  C 2.878806 0.017528 -0.912736
  C 4.193726 -0.082114 -1.290570
  C 5.196214 -0.616007 -2.061140
  C 4.755956 -1.744690 -2.998751
  H 3.762380 -2.094569 -2.751337
  H 6.195171 -0.264784 -2.350723
  H 3.908766 1.531646 1.244950
  H 3.954636 -0.162992 1.685475
  H 1.865103 0.126765 3.022216
  H 1.819797 1.829991 2.575744
  H 4.071666 0.479073 4.140300
  H 2.837314 1.535037 4.816874
  H 4.025068 2.184162 3.692127
  H 2.155892 -0.134272 -1.709169
  H 5.341809 0.102623 -1.138231
  H 5.447991 -2.587376 -2.989142
  H 4.757557 -1.311608 -3.997510
 22
 70.122347
  H 1.355185 0.414682 0.469898
  C 2.423960 0.370509 0.317310
  C 3.281360 0.660923 1.476196
  C 2.489080 0.969062 2.754084
  C 3.412180 1.262000 3.909886
  C 2.888292 0.051636 -0.933562
  C 4.192506 -0.058937 -1.318938
  C 5.211222 -0.588768 -2.061967
  C 4.757695 -1.772532 -2.930916
  H 3.783214 -2.141721 -2.620961
  H 6.184748 -0.217289 -2.394823
  H 3.931552 1.510773 1.244191
  H 3.945805 -0.191087 1.663378
  H 1.850576 0.113909 3.010429
  H 1.837599 1.835309 2.587563
  H 4.055291 0.406917 4.117665
  H 2.840757 1.477649 4.804697
  H 4.048668 2.135721 3.691366
  H 2.167287 -0.082543 -1.730439
  H 5.354296 0.109972 -1.161051
  H 5.469430 -2.588859 -2.923303
  H 4.695960 -1.382631 -3.942526
 22
 68.741496
  H 1.336146 0.477500 0.447639
  C 2.399505 0.404079 0.296357
  C 3.272340 0.648385 1.463019
  C 2.498280 0.960723 2.739815
  C 3.440655 1.205447 3.910358
  C 2.857635 0.086109 -0.958443
  C 4.151417 -0.048096 -1.350310
  C 5.210287 -0.565561 -2.065384
  C 4.785724 -1.803258 -2.861016
  H 3.850145 -2.203256 -2.502710
  H 6.158180 -0.147432 -2.425594
  H 3.949788 1.480643 1.244159
  H 3.909437 -0.228459 1.636844
  H 1.832441 0.124768 2.981888
  H 1.877949 1.848179 2.587528
  H 4.054772 0.327507 4.103419
  H 2.878397 1.425806 4.811071
  H 4.099865 2.052702 3.708342
  H 2.134554 -0.035882 -1.756024
  H 5.332105 0.086708 -1.150374
  H 5.542528 -2.589605 -2.846216
  H 4.666402 -1.458198 -3.885238
 22
 65.441021
  H 1.327911 0.559955 0.431635
  C 2.388190 0.455733 0.277284
  C 3.272758 0.639012 1.447129
  C 2.511546 0.946607 2.733294
  C 3.463254 1.127793 3.910347
  C 2.833148 0.134175 -0.987297
  C 4.104881 -0.025015 -1.404701
  C 5.203368 -0.528348 -2.092515
  C 4.825658 -1.847625 -2.759564
  H 3.937385 -2.280315 -2.324536
  H 6.104861 -0.059235 -2.502037
  H 3.974938 1.448355 1.246413
  H 3.876659 -0.258503 1.596994
  H 1.814834 0.127793 2.954190
  H 1.924384 1.858744 2.602893
  H 4.047164 0.222768 4.080559
  H 2.908911 1.344899 4.816897
  H 4.148917 1.952777 3.730453
  H 2.098280 0.011186 -1.772294
  H 5.320938 0.085754 -1.164815
  H 5.631013 -2.579631 -2.734463
  H 4.627537 -1.594985 -3.801302
