 24
 0.000000
  C 0.878774 0.034098 0.281791
  C 2.373188 0.034390 0.093418
  C 3.224830 -0.037860 1.351816
  C 2.520844 -0.070182 2.708478
  C 3.549072 -0.134719 3.834232
  C 2.968062 0.110950 -1.100990
  C 2.342771 0.220747 -2.472097
  C 0.838455 0.197683 -2.718968
  H 0.659553 0.288006 -3.784850
  H 4.046279 0.121357 -1.158697
  H 0.608457 -0.031539 1.328090
  H 0.423477 -0.813501 -0.223329
  H 0.438596 0.947724 -0.108430
  H 3.895756 0.827359 1.358641
  H 3.849071 -0.930574 1.305341
  H 1.872484 -0.945875 2.780248
  H 1.913049 0.826984 2.843984
  H 4.162603 -1.028705 3.743436
  H 3.052974 -0.158129 4.802078
  H 4.203476 0.734078 3.806978
  H 2.776082 -0.593806 -3.066896
  H 2.726165 1.153806 -2.905092
  H 0.342020 1.025327 -2.221716
  H 0.397184 -0.734958 -2.379254
 24
 -1.494517
  C 0.818385 0.310150 0.322545
  C 2.302195 0.181066 0.122103
  C 3.193107 0.085203 1.351501
  C 2.522475 -0.116377 2.707870
  C 3.571094 -0.255441 3.806738
  C 2.902639 0.160145 -1.066482
  C 2.359262 0.218698 -2.470225
  C 0.873196 0.010028 -2.734125
  H 0.701965 0.038799 -3.809208
  H 3.986785 0.115580 -1.073891
  H 0.558426 0.334574 1.374484
  H 0.289078 -0.524217 -0.129343
  H 0.454576 1.231142 -0.127910
  H 3.806875 0.989646 1.407661
  H 3.872798 -0.755729 1.196169
  H 1.908286 -1.019184 2.687817
  H 1.881683 0.734280 2.948324
  H 4.219224 -1.107811 3.613280
  H 3.094119 -0.400604 4.773595
  H 4.189442 0.638321 3.860445
  H 2.905093 -0.541502 -3.041769
  H 2.655719 1.186930 -2.893955
  H 0.267199 0.785644 -2.280214
  H 0.545466 -0.959371 -2.369213
 24
 -1.963868
  C 0.840203 0.563980 0.321992
  C 2.310513 0.320604 0.127596
  C 3.196786 0.230378 1.360773
  C 2.526256 -0.226777 2.655833
  C 3.556046 -0.378891 3.770193
  C 2.903746 0.169351 -1.053700
  C 2.361171 0.149890 -2.458142
  C 0.882300 -0.140769 -2.683553
  H 0.692342 -0.195165 -3.754628
  H 3.985464 0.085160 -1.058450
  H 0.602875 0.722463 1.367666
  H 0.250524 -0.278992 -0.029149
  H 0.529872 1.452128 -0.225580
  H 3.678965 1.196841 1.533839
  H 3.967033 -0.501910 1.116072
  H 2.030728 -1.185782 2.489989
  H 1.773879 0.494818 2.978055
  H 4.312215 -1.111723 3.496388
  H 3.078100 -0.707403 4.690494
  H 4.054105 0.569373 3.961741
  H 2.935194 -0.610574 -2.998653
  H 2.608108 1.110192 -2.928226
  H 0.247986 0.636816 -2.272968
  H 0.606173 -1.096265 -2.244659
 24
 -3.217437
  C 0.899524 0.803536 0.306663
  C 2.344454 0.435154 0.123974
  C 3.196851 0.358989 1.371906
  C 2.540467 -0.353082 2.556987
  C 3.521732 -0.501041 3.714120
  C 2.926116 0.176712 -1.044126
  C 2.353350 0.089378 -2.434519
  C 0.886331 -0.294050 -2.593508
  H 0.670093 -0.439576 -3.650839
  H 4.000151 0.029349 -1.046760
  H 0.712413 1.127994 1.325758
  H 0.242095 -0.036265 0.094746
  H 0.634213 1.625354 -0.355957
  H 3.505055 1.362465 1.678599
  H 4.081084 -0.215995 1.096276
  H 2.203899 -1.341680 2.236980
  H 1.668447 0.199290 2.909217
  H 4.392118 -1.077552 3.408010
  H 3.051064 -1.010053 4.552355
  H 3.861820 0.475589 4.052741
  H 2.948673 -0.661090 -2.964669
  H 2.532422 1.042649 -2.946969
  H 0.219671 0.475517 -2.221505
  H 0.677568 -1.226469 -2.074447
 24
 -2.405138
  C 0.964352 1.065364 0.287243
  C 2.393394 0.628409 0.120068
  C 3.194876 0.548899 1.394259
  C 2.569799 -0.457715 2.369226
  C 3.445700 -0.649543 3.601437
  C 2.972890 0.246203 -1.025168
  C 2.338641 0.001934 -2.370442
  C 0.895028 -0.485684 -2.399138
  H 0.638847 -0.782462 -3.415129
  H 4.055324 0.226713 -1.064939
  H 0.832458 1.521791 1.265265
  H 0.264313 0.236334 0.208749
  H 0.708795 1.805558 -0.468080
  H 3.289160 1.519723 1.880818
  H 4.159700 0.142191 1.104263
  H 2.443966 -1.413634 1.856543
  H 1.581830 -0.117952 2.684631
  H 4.426523 -1.025657 3.319415
  H 2.990209 -1.359753 4.288248
  H 3.580581 0.295172 4.124338
  H 2.952631 -0.762358 -2.858902
  H 2.426702 0.907159 -2.983563
  H 0.197069 0.285029 -2.093513
  H 0.773325 -1.350754 -1.751271
 24
 7.776018
  C 0.905764 1.222288 0.255399
  C 2.322925 0.747581 0.142795
  C 3.129564 0.661071 1.421869
  C 2.562847 -0.466688 2.302001
  C 3.486669 -0.759051 3.477737
  C 2.960810 0.327953 -0.954142
  C 2.374635 -0.046015 -2.292092
  C 0.989381 -0.679354 -2.280332
  H 0.741467 -1.032592 -3.279847
  H 4.005059 0.594446 -1.051901
  H 0.755867 1.674556 1.233181
  H 0.174016 0.422095 0.148592
  H 0.706345 1.968414 -0.511225
  H 3.184380 1.586899 1.985561
  H 4.039005 0.229787 1.014019
  H 2.437039 -1.365666 1.696007
  H 1.577558 -0.188528 2.685052
  H 4.462635 -1.086196 3.125395
  H 3.068175 -1.541277 4.107501
  H 3.625234 0.133088 4.084893
  H 3.072046 -0.764561 -2.734303
  H 2.363637 0.829475 -2.953665
  H 0.226598 0.031034 -1.979661
  H 0.965629 -1.528567 -1.600985
 24
 26.104866
  C 0.809072 1.444037 0.178162
  C 2.198614 0.892369 0.180562
  C 2.972268 0.752661 1.469205
  C 2.568905 -0.533012 2.222141
  C 3.584562 -0.866308 3.306081
  C 2.933332 0.432945 -0.858054
  C 2.424548 -0.089856 -2.183497
  C 1.122483 -0.878230 -2.115703
  H 0.906540 -1.327161 -3.083397
  H 3.913852 0.871552 -0.988116
  H 0.613111 1.922331 1.135200
  H 0.040140 0.684408 0.029012
  H 0.708760 2.179208 -0.617892
  H 2.931502 1.603038 2.138279
  H 3.858736 0.360318 0.945765
  H 2.492563 -1.361018 1.515402
  H 1.583063 -0.407667 2.682778
  H 4.563291 -1.054106 2.869680
  H 3.276798 -1.752144 3.857431
  H 3.677897 -0.040432 4.007880
  H 3.206127 -0.749165 -2.572139
  H 2.313860 0.731304 -2.903697
  H 0.287425 -0.240091 -1.846846
  H 1.200061 -1.672798 -1.376480
 24
 54.318446
  C 0.718548 1.662062 0.090798
  C 2.060207 1.007075 0.222899
  C 2.755534 0.753113 1.510039
  C 2.573315 -0.629918 2.177823
  C 3.707422 -0.923299 3.147326
  C 2.901248 0.512078 -0.756743
  C 2.491245 -0.143195 -2.069034
  C 1.225524 -0.990020 -1.982266
  H 1.078001 -1.542755 -2.908281
  H 3.828329 1.054840 -0.898926
  H 0.457189 2.139576 1.033369
  H -0.073839 0.946839 -0.140798
  H 0.732075 2.407257 -0.703346
  H 2.717981 1.541935 2.258670
  H 3.627144 0.309061 0.813515
  H 2.498731 -1.417631 1.425609
  H 1.630402 -0.629725 2.741387
  H 4.660029 -0.968790 2.623490
  H 3.542658 -1.874900 3.647544
  H 3.772013 -0.144797 3.904055
  H 3.322369 -0.782234 -2.381872
  H 2.364402 0.618631 -2.851785
  H 0.349840 -0.372067 -1.818218
  H 1.301920 -1.703878 -1.164571
 24
 71.112034
  C 0.717756 1.746020 0.082819
  C 2.024759 1.057308 0.270010
  C 2.655114 0.763371 1.509830
  C 2.545436 -0.625551 2.134923
  C 3.719088 -0.941430 3.056253
  C 2.916205 0.512352 -0.696682
  C 2.516208 -0.164877 -1.997432
  C 1.284182 -1.054336 -1.886406
  H 1.124936 -1.596222 -2.817073
  H 3.811951 1.105785 -0.870205
  H 0.413472 2.211866 1.018418
  H -0.059507 1.035187 -0.201762
  H 0.771687 2.507701 -0.695855
  H 2.599467 1.520063 2.302898
  H 3.609919 0.204555 0.538893
  H 2.469804 -1.392920 1.360263
  H 1.618579 -0.658410 2.721997
  H 4.652212 -0.963475 2.495510
  H 3.580856 -1.909416 3.533748
  H 3.806206 -0.184770 3.833383
  H 3.361061 -0.779173 -2.322417
  H 2.355763 0.592498 -2.772548
  H 0.393176 -0.467941 -1.681376
  H 1.410198 -1.778351 -1.084427
 24
 54.986570
  C 0.741802 1.838731 0.071199
  C 2.015056 1.102946 0.322680
  C 2.545140 0.769290 1.541013
  C 2.516924 -0.638177 2.094339
  C 3.704676 -0.958191 3.001673
  C 2.963028 0.513485 -0.661410
  C 2.528513 -0.189771 -1.940179
  C 1.323960 -1.109971 -1.769641
  H 1.142598 -1.668209 -2.685770
  H 3.821074 1.169206 -0.870619
  H 0.396801 2.310827 0.992772
  H -0.024672 1.136207 -0.252969
  H 0.844881 2.604531 -0.705335
  H 2.458332 1.469347 2.385961
  H 3.594537 0.116111 0.289932
  H 2.470025 -1.373766 1.286294
  H 1.595248 -0.726063 2.679028
  H 4.637313 -0.919172 2.441483
  H 3.602881 -1.952928 3.431789
  H 3.764672 -0.237495 3.815152
  H 3.371833 -0.789762 -2.297850
  H 2.317413 0.559397 -2.708838
  H 0.429265 -0.546530 -1.536677
  H 1.499390 -1.820050 -0.963034
 24
 30.768346
  C 0.823265 1.875681 0.032568
  C 2.048032 1.090257 0.342992
  C 2.467887 0.736171 1.577218
  C 2.539473 -0.670955 2.109004
  C 3.714205 -0.918082 3.055811
  C 2.966565 0.481116 -0.676472
  C 2.498723 -0.186256 -1.959852
  C 1.301843 -1.112142 -1.772964
  H 1.077870 -1.631123 -2.702827
  H 3.774003 1.193453 -0.918532
  H 0.419376 2.318107 0.941335
  H 0.080919 1.195949 -0.378854
  H 0.994105 2.669111 -0.698278
  H 2.308179 1.422349 2.417442
  H 3.611100 -0.064105 0.068938
  H 2.579137 -1.396871 1.293470
  H 1.604247 -0.831699 2.652704
  H 4.659882 -0.799094 2.530702
  H 3.673091 -1.925013 3.466048
  H 3.691101 -0.209372 3.881053
  H 3.330805 -0.774322 -2.357071
  H 2.261518 0.582096 -2.698876
  H 0.416861 -0.558945 -1.473981
  H 1.513723 -1.854929 -1.007093
 24
 10.809522
  C 0.960957 1.937003 -0.024347
  C 2.082968 1.029738 0.356641
  C 2.348095 0.647943 1.609341
  C 2.588661 -0.749190 2.110520
  C 3.713857 -0.848737 3.140264
  C 2.976763 0.418536 -0.689399
  C 2.428333 -0.175351 -1.980963
  C 1.251818 -1.120960 -1.762830
  H 0.986275 -1.612024 -2.697104
  H 3.734228 1.178599 -0.943237
  H 0.528138 2.401540 0.859374
  H 0.193730 1.335410 -0.505822
  H 1.261694 2.719728 -0.722704
  H 2.050844 1.281849 2.446238
  H 3.616335 -0.257776 -0.101154
  H 2.790159 -1.440679 1.290757
  H 1.649000 -1.056243 2.578899
  H 4.664801 -0.567679 2.692415
  H 3.799278 -1.864532 3.520611
  H 3.521556 -0.182319 3.978558
  H 3.234019 -0.737114 -2.461023
  H 2.140575 0.628815 -2.661463
  H 0.375357 -0.592020 -1.400925
  H 1.512165 -1.886076 -1.034883
 24
 -1.948513
  C 1.094908 1.961591 -0.033969
  C 2.084642 0.909509 0.362586
  C 2.202758 0.481516 1.615355
  C 2.662249 -0.862869 2.103253
  C 3.705033 -0.763486 3.216086
  C 2.983664 0.356615 -0.710669
  C 2.350251 -0.122344 -2.014191
  C 1.205517 -1.103335 -1.785518
  H 0.859382 -1.508044 -2.734535
  H 3.709567 1.151341 -0.934071
  H 0.633400 2.406923 0.844392
  H 0.313529 1.501535 -0.635209
  H 1.551466 2.751338 -0.631547
  H 1.762164 1.045126 2.433430
  H 3.596527 -0.423995 -0.249546
  H 3.055034 -1.480435 1.295532
  H 1.771417 -1.364945 2.494096
  H 4.613620 -0.295741 2.842799
  H 3.956482 -1.751232 3.596685
  H 3.325343 -0.163022 4.040147
  H 3.121313 -0.623342 -2.605115
  H 2.001653 0.734286 -2.594469
  H 0.363574 -0.624864 -1.293437
  H 1.537112 -1.929215 -1.159954
 24
 -6.095397
  C 1.250529 2.083354 0.005844
  C 2.088039 0.884437 0.334385
  C 2.122334 0.396119 1.559971
  C 2.721171 -0.899611 2.017879
  C 3.617509 -0.707412 3.240045
  C 2.973059 0.357688 -0.772138
  C 2.254763 -0.150154 -2.021413
  C 1.204795 -1.213175 -1.701682
  H 0.836137 -1.664089 -2.615268
  H 3.636071 1.186553 -1.044850
  H 0.717053 2.428792 0.885209
  H 0.522852 1.823978 -0.757153
  H 1.859222 2.905803 -0.378913
  H 1.590047 0.873147 2.374786
  H 3.608377 -0.427973 -0.336270
  H 3.281840 -1.410579 1.236825
  H 1.883606 -1.552263 2.288683
  H 4.427701 -0.017016 3.010859
  H 4.053752 -1.657767 3.550236
  H 3.036645 -0.295863 4.069577
  H 2.999209 -0.570278 -2.701164
  H 1.780586 0.686579 -2.531486
  H 0.364694 -0.780756 -1.173136
  H 1.630615 -1.996604 -1.078698
 24
 -9.414652
  C 1.416912 2.225333 0.035072
  C 2.150365 0.941994 0.299817
  C 2.032503 0.324201 1.469511
  C 2.673082 -0.948547 1.926577
  C 3.469327 -0.724538 3.211591
  C 2.986257 0.450587 -0.852334
  C 2.144108 -0.159340 -1.980278
  C 1.334709 -1.361662 -1.510601
  H 0.778751 -1.794297 -2.339223
  H 3.552423 1.293915 -1.258564
  H 0.874699 2.557734 0.916926
  H 0.703249 2.096742 -0.778116
  H 2.116892 3.008025 -0.259873
  H 1.400425 0.777888 2.224375
  H 3.701985 -0.295314 -0.509286
  H 3.329889 -1.361873 1.162020
  H 1.887665 -1.685300 2.120750
  H 4.257162 0.006078 3.043668
  H 3.924436 -1.653537 3.546307
  H 2.822143 -0.353614 4.002838
  H 2.813258 -0.466436 -2.788001
  H 1.469670 0.597607 -2.383564
  H 0.630767 -1.067574 -0.735723
  H 1.989928 -2.125160 -1.101759
