 14
 0.000000
  C 0.987195 0.138373 0.394916
  C 2.444911 0.108372 0.320783
  H 3.014306 0.450734 1.173563
  C 3.092782 -0.345297 -0.808985
  C 4.483988 -0.391028 -0.923513
  C 5.158492 -0.840927 -2.044489
  H 4.680143 -1.203679 -2.947654
  O 6.448329 -0.878600 -2.139403
  H 0.626373 0.519641 1.345037
  H 0.578876 -0.862112 0.231690
  H 0.579268 0.748854 -0.414558
  H 2.495617 -0.681570 -1.646320
  H 5.072390 -0.051752 -0.079186
  H 6.937937 -0.561748 -1.351190
 14
 -0.505884
  C 0.981472 0.114376 0.392881
  C 2.431780 0.164204 0.266579
  H 3.000256 0.632741 1.059130
  C 3.107289 -0.337839 -0.823133
  C 4.503314 -0.343631 -0.909544
  C 5.169572 -0.835161 -2.018193
  H 4.619369 -1.176229 -2.889705
  O 6.448659 -0.932332 -2.152430
  H 0.646060 0.324321 1.403169
  H 0.583246 -0.835965 0.036339
  H 0.537875 0.866453 -0.269589
  H 2.540152 -0.761830 -1.640837
  H 5.073920 0.032694 -0.070403
  H 6.976531 -0.634955 -1.381588
 14
 -0.005535
  C 0.979870 0.089237 0.400059
  C 2.414683 0.233176 0.201204
  H 2.963553 0.855498 0.896771
  C 3.104491 -0.347583 -0.837894
  C 4.501925 -0.341886 -0.916996
  C 5.184079 -0.817457 -2.022265
  H 4.649495 -1.073220 -2.932197
  O 6.462311 -0.957766 -2.123825
  H 0.709546 0.174681 1.449510
  H 0.595161 -0.829163 -0.038741
  H 0.465925 0.912672 -0.110645
  H 2.549303 -0.861191 -1.611886
  H 5.062455 0.019625 -0.064168
  H 6.973328 -0.750823 -1.314983
 14
 2.560878
  C 0.979283 0.086164 0.407617
  C 2.388520 0.302611 0.114855
  H 2.902904 1.075836 0.671859
  C 3.098692 -0.394243 -0.830151
  C 4.500533 -0.404132 -0.898706
  C 5.204797 -0.754311 -2.033871
  H 4.704165 -0.823159 -2.994628
  O 6.482397 -0.925920 -2.111423
  H 0.791082 0.177164 1.476445
  H 0.615810 -0.862017 0.020380
  H 0.383603 0.883502 -0.051139
  H 2.553770 -1.009687 -1.535766
  H 5.050303 -0.154873 0.000596
  H 6.962582 -0.895498 -1.257655
 14
 7.432562
  C 0.967943 0.126970 0.385680
  C 2.377264 0.306362 0.060639
  H 2.872277 1.177551 0.472415
  C 3.099736 -0.515244 -0.756990
  C 4.508802 -0.522075 -0.860885
  C 5.213265 -0.653530 -2.036555
  H 4.725404 -0.519175 -2.996618
  O 6.493870 -0.810343 -2.135735
  H 0.817410 0.266422 1.456794
  H 0.583730 -0.836345 0.063143
  H 0.370848 0.917356 -0.079299
  H 2.560229 -1.243860 -1.354620
  H 5.065917 -0.446597 0.067211
  H 6.963132 -0.964271 -1.289894
 14
 13.702918
  C 0.963830 0.183791 0.332046
  C 2.391095 0.298766 0.032891
  H 2.887586 1.203592 0.363022
  C 3.108072 -0.625622 -0.648413
  C 4.527438 -0.669949 -0.814610
  C 5.194056 -0.532455 -2.006159
  H 4.679649 -0.204253 -2.903320
  O 6.471500 -0.679931 -2.175749
  H 0.799763 0.387188 1.391923
  H 0.556549 -0.786873 0.068046
  H 0.403298 0.963834 -0.189612
  H 2.563668 -1.446061 -1.112969
  H 5.106592 -0.860746 0.085629
  H 6.964333 -0.990758 -1.389001
 14
 20.141846
  C 0.970395 0.210137 0.316658
  C 2.393399 0.329114 -0.033594
  H 2.894145 1.244202 0.255291
  C 3.099540 -0.657116 -0.611443
  C 4.522330 -0.776728 -0.813559
  C 5.201804 -0.418954 -1.948453
  H 4.702080 0.088938 -2.766690
  O 6.465363 -0.620124 -2.163210
  H 0.825026 0.483091 1.361967
  H 0.574545 -0.783349 0.132424
  H 0.384466 0.936125 -0.253000
  H 2.556576 -1.553597 -0.917102
  H 5.064895 -1.254423 -0.001407
  H 6.947708 -1.076454 -1.443413
 14
 16.330939
  C 0.984300 0.250047 0.281154
  C 2.401587 0.306825 -0.085589
  H 2.925554 1.226874 0.141426
  C 3.091278 -0.743175 -0.584581
  C 4.507563 -0.833349 -0.804626
  C 5.191353 -0.374411 -1.905513
  H 4.682095 0.152588 -2.704026
  O 6.454749 -0.547673 -2.133513
  H 0.849149 0.579657 1.309876
  H 0.551699 -0.735435 0.143052
  H 0.427089 0.969865 -0.321645
  H 2.562034 -1.681210 -0.743413
  H 5.044754 -1.403706 -0.050082
  H 6.949132 -1.016226 -1.429057
 14
 13.127030
  C 1.010697 0.266052 0.271390
  C 2.391108 0.314898 -0.188883
  H 2.927296 1.238728 -0.043038
  C 3.064126 -0.785539 -0.619519
  C 4.473179 -0.887129 -0.832111
  C 5.205166 -0.330758 -1.850586
  H 4.735113 0.254487 -2.631634
  O 6.472019 -0.512874 -2.043652
  H 0.938838 0.646213 1.285837
  H 0.580893 -0.726192 0.205186
  H 0.409763 0.953067 -0.325048
  H 2.534072 -1.732875 -0.655053
  H 4.976738 -1.543683 -0.127865
  H 6.937251 -1.005605 -1.337248
 14
 11.106461
  C 1.014779 0.269033 0.227719
  C 2.377821 0.299784 -0.294517
  H 2.905370 1.243684 -0.246851
  C 3.056989 -0.835021 -0.633068
  C 4.466248 -0.929499 -0.817110
  C 5.230228 -0.293212 -1.763001
  H 4.776729 0.311460 -2.540872
  O 6.508456 -0.445182 -1.915356
  H 0.957177 0.801790 1.176427
  H 0.622397 -0.737855 0.326339
  H 0.363287 0.834854 -0.447075
  H 2.528067 -1.782703 -0.611224
  H 4.953605 -1.632443 -0.146309
  H 6.956004 -0.957664 -1.210392
 14
 11.178410
  C 1.014310 0.231895 0.197872
  C 2.364282 0.263990 -0.357327
  H 2.890716 1.208447 -0.313565
  C 3.046843 -0.867853 -0.703076
  C 4.466700 -0.934148 -0.824137
  C 5.270782 -0.235491 -1.690049
  H 4.852785 0.411512 -2.453645
  O 6.559759 -0.353775 -1.771573
  H 0.951492 0.841542 1.096922
  H 0.659919 -0.776882 0.383757
  H 0.328979 0.706449 -0.514391
  H 2.521759 -1.816319 -0.731292
  H 4.931318 -1.651278 -0.152390
  H 6.972865 -0.905211 -1.075987
 14
 9.736842
  C 1.053927 0.311883 0.170071
  C 2.407758 0.256419 -0.381724
  H 2.954279 1.188069 -0.455278
  C 3.048128 -0.918833 -0.667661
  C 4.460729 -1.004376 -0.806463
  C 5.258446 -0.279130 -1.664403
  H 4.837001 0.367821 -2.428175
  O 6.554541 -0.372075 -1.737912
  H 0.957980 1.112967 0.901629
  H 0.730360 -0.643259 0.580006
  H 0.354558 0.562851 -0.638483
  H 2.501857 -1.850564 -0.628958
  H 4.932090 -1.735621 -0.156192
  H 6.967068 -0.919089 -1.038327
 14
 6.276117
  C 1.100363 0.334575 0.143920
  C 2.467847 0.239291 -0.354020
  H 3.026690 1.161385 -0.451751
  C 3.110461 -0.947327 -0.589718
  C 4.505484 -1.043842 -0.794443
  C 5.269084 -0.230712 -1.603230
  H 4.822704 0.496090 -2.273084
  O 6.554646 -0.323988 -1.736845
  H 0.986736 1.162875 0.840087
  H 0.746737 -0.598793 0.574501
  H 0.437947 0.564312 -0.699953
  H 2.563053 -1.875619 -0.486218
  H 4.998701 -1.856700 -0.272395
  H 6.994849 -0.948358 -1.124164
 14
 3.733694
  C 1.109256 0.344370 0.130848
  C 2.467368 0.239441 -0.383681
  H 3.001837 1.161133 -0.571001
  C 3.107570 -0.962942 -0.559641
  C 4.485148 -1.081515 -0.821527
  C 5.260586 -0.192597 -1.544626
  H 4.828130 0.612964 -2.127101
  O 6.544303 -0.280406 -1.684187
  H 0.986074 1.214622 0.772202
  H 0.783102 -0.566283 0.625346
  H 0.418987 0.521265 -0.703050
  H 2.561849 -1.878614 -0.372945
  H 4.975152 -1.976185 -0.454539
  H 6.979008 -0.983576 -1.157410
 14
 3.802550
  C 1.090534 0.352840 0.132530
  C 2.421697 0.217560 -0.436516
  H 2.904874 1.128205 -0.764205
  C 3.066594 -0.991632 -0.553934
  C 4.436654 -1.110396 -0.842619
  C 5.229188 -0.189450 -1.505713
  H 4.814487 0.650623 -2.050581
  O 6.516914 -0.270967 -1.630749
  H 0.978351 1.258169 0.731187
  H 0.792564 -0.535092 0.683497
  H 0.344029 0.520896 -0.654211
  H 2.536199 -1.898203 -0.294621
  H 4.934707 -2.045046 -0.613728
  H 6.951929 -1.010443 -1.152207
