 17
 0.000000
  C 1.006760 -0.071571 0.047748
  C 2.503072 -0.083075 0.025049
  C 3.220692 -0.594837 -0.979444
  C 4.657627 -0.605862 -1.001543
  C 5.378544 -1.120941 -2.013271
  C 6.815892 -1.131871 -2.033989
  C 7.531151 -1.641413 -3.034884
  H 8.604032 -1.654183 -3.059384
  H 0.645904 0.395588 0.962217
  H 0.609218 -1.085492 0.010348
  H 0.610333 0.491428 -0.796347
  H 3.003424 0.352832 0.879004
  H 2.711270 -1.028491 -1.830650
  H 5.163635 -0.172157 -0.148027
  H 4.874349 -1.555163 -2.866847
  H 7.322161 -0.697887 -1.180914
  H 7.035247 -2.076776 -3.890652
 17
 2.342206
  C 1.058791 -0.065310 0.109544
  C 2.537890 -0.025192 -0.024588
  C 3.172086 -0.568451 -1.068031
  C 4.593299 -0.624084 -1.094258
  C 5.351858 -1.116330 -2.062157
  C 6.780193 -1.151837 -2.011897
  C 7.543480 -1.645730 -2.983123
  H 8.618052 -1.658630 -2.918500
  H 0.706981 0.369143 1.045371
  H 0.811474 -1.109212 0.073859
  H 0.560624 0.440156 -0.723050
  H 3.107948 0.414505 0.786923
  H 2.613486 -0.997531 -1.893190
  H 5.001848 -0.219660 -0.198478
  H 4.885909 -1.520562 -2.949344
  H 7.236219 -0.744937 -1.118496
  H 7.113524 -2.056053 -3.881875
 17
 7.070206
  C 1.096411 -0.122765 0.176397
  C 2.534596 0.114519 -0.122191
  C 3.130779 -0.449005 -1.177917
  C 4.551156 -0.560761 -1.170323
  C 5.346711 -1.053279 -2.124574
  C 6.756830 -1.208522 -1.976996
  C 7.553881 -1.697420 -2.926632
  H 8.617615 -1.799403 -2.783962
  H 0.779745 0.299535 1.123381
  H 1.090691 -1.205679 0.217411
  H 0.429375 0.214841 -0.616688
  H 3.125521 0.614941 0.630572
  H 2.551442 -0.900852 -1.972954
  H 4.887829 -0.259686 -0.189726
  H 4.916759 -1.361982 -3.067023
  H 7.170692 -0.899293 -1.027284
  H 7.164784 -2.012222 -3.882032
 17
 15.099576
  C 1.158732 -0.160275 0.219631
  C 2.538091 0.186908 -0.182616
  C 3.091776 -0.375053 -1.258624
  C 4.502012 -0.527511 -1.226310
  C 5.328562 -1.015322 -2.162413
  C 6.721433 -1.244463 -1.945401
  C 7.549256 -1.725279 -2.874078
  H 8.598379 -1.884870 -2.680781
  H 0.851599 0.264747 1.169271
  H 1.350868 -1.236835 0.309499
  H 0.403825 0.037177 -0.546228
  H 3.140175 0.710101 0.534483
  H 2.491074 -0.828142 -2.043091
  H 4.768371 -0.298061 -0.196059
  H 4.935504 -1.259083 -3.144730
  H 7.095615 -0.999060 -0.954148
  H 7.201674 -1.973365 -3.858204
 17
 22.490209
  C 1.227109 -0.233739 0.271718
  C 2.508090 0.274547 -0.269781
  C 3.055498 -0.249855 -1.369800
  C 4.463800 -0.465263 -1.282763
  C 5.313671 -0.954384 -2.195013
  C 6.676874 -1.293422 -1.907349
  C 7.531081 -1.772939 -2.811178
  H 8.546359 -2.016818 -2.563406
  H 0.910543 0.249250 1.190979
  H 1.656348 -1.233168 0.482207
  H 0.408744 -0.299856 -0.443714
  H 3.123030 0.820912 0.433723
  H 2.465697 -0.690736 -2.160114
  H 4.670680 -0.343287 -0.214315
  H 4.972485 -1.107749 -3.211612
  H 6.998736 -1.137912 -0.885835
  H 7.235163 -1.937380 -3.831537
 17
 29.436289
  C 1.322733 -0.285501 0.308927
  C 2.469887 0.345232 -0.350491
  C 3.029495 -0.175805 -1.448469
  C 4.418336 -0.437288 -1.301244
  C 5.297250 -0.899719 -2.205295
  C 6.614834 -1.347209 -1.871645
  C 7.496548 -1.797999 -2.764995
  H 8.482838 -2.123545 -2.481757
  H 0.902461 0.276867 1.134771
  H 1.950643 -1.134837 0.676541
  H 0.541976 -0.643727 -0.360049
  H 3.108956 0.892236 0.343510
  H 2.459019 -0.617602 -2.249551
  H 4.577206 -0.447992 -0.211288
  H 5.014917 -0.938394 -3.249331
  H 6.880529 -1.301682 -0.823653
  H 7.256534 -1.852931 -3.812141
 17
 39.582863
  C 1.437694 -0.345313 0.343905
  C 2.432436 0.415374 -0.415570
  C 2.993670 -0.109870 -1.520078
  C 4.368556 -0.409241 -1.329042
  C 5.279315 -0.854591 -2.210834
  C 6.553993 -1.390535 -1.832026
  C 7.466940 -1.824988 -2.701446
  H 8.418739 -2.216774 -2.384301
  H 0.981344 0.174768 1.178582
  H 2.216509 -1.078090 0.690742
  H 0.687168 -0.848353 -0.262945
  H 3.080451 0.999795 0.234517
  H 2.426286 -0.582947 -2.306267
  H 4.467836 -0.503780 -0.225706
  H 5.058626 -0.811743 -3.269309
  H 6.757549 -1.426849 -0.771096
  H 7.287471 -1.802103 -3.761628
 17
 50.784315
  C 1.577895 -0.418447 0.366420
  C 2.387745 0.477271 -0.468493
  C 2.960398 -0.037854 -1.585591
  C 4.317734 -0.381290 -1.346517
  C 5.258269 -0.821969 -2.203998
  C 6.482441 -1.434750 -1.787340
  C 7.423323 -1.866295 -2.630059
  H 8.348087 -2.288100 -2.284708
  H 1.120535 0.031515 1.245143
  H 2.484027 -1.041494 0.639505
  H 0.858696 -1.027799 -0.182560
  H 3.024797 1.117359 0.137275
  H 2.399325 -0.524030 -2.369460
  H 4.364248 -0.534286 -0.244190
  H 5.089947 -0.728422 -3.271664
  H 6.633453 -1.520087 -0.717484
  H 7.308013 -1.770768 -3.696846
 17
 61.439002
  C 1.711854 -0.471375 0.379440
  C 2.346042 0.512079 -0.506883
  C 2.926463 0.000194 -1.633653
  C 4.272396 -0.362479 -1.363989
  C 5.241335 -0.792908 -2.195778
  C 6.420879 -1.472186 -1.751080
  C 7.391401 -1.889575 -2.567132
  H 8.284508 -2.359270 -2.198224
  H 1.276837 -0.078166 1.295643
  H 2.709895 -1.000553 0.578543
  H 1.029559 -1.161216 -0.115399
  H 2.970674 1.201698 0.058862
  H 2.368365 -0.526115 -2.397289
  H 4.273439 -0.564397 -0.251211
  H 5.133589 -0.634581 -3.264046
  H 6.512700 -1.619610 -0.683476
  H 7.337054 -1.729852 -3.630809
 17
 71.392300
  C 1.816626 -0.497957 0.403386
  C 2.315274 0.523527 -0.528818
  C 2.893529 -0.000766 -1.670558
  C 4.236004 -0.374820 -1.389465
  C 5.238833 -0.775088 -2.192704
  C 6.384506 -1.491684 -1.724303
  C 7.389227 -1.881963 -2.511399
  H 8.237349 -2.423144 -2.129368
  H 1.436314 -0.145077 1.352690
  H 2.880157 -0.980091 0.512503
  H 1.150814 -1.234515 -0.040603
  H 2.934730 1.255995 -0.005365
  H 2.332711 -0.569394 -2.401313
  H 4.187505 -0.608679 -0.266666
  H 5.198172 -0.547635 -3.252305
  H 6.408755 -1.713875 -0.664634
  H 7.381826 -1.684928 -3.570150
 17
 80.148849
  C 1.897195 -0.496595 0.414754
  C 2.308194 0.526836 -0.543852
  C 2.868589 -0.024916 -1.683102
  C 4.202683 -0.416544 -1.404712
  C 5.232381 -0.785748 -2.186781
  C 6.356565 -1.534542 -1.711226
  C 7.393597 -1.881966 -2.476256
  H 8.235361 -2.422683 -2.086272
  H 1.548957 -0.150426 1.384901
  H 3.015550 -0.960856 0.482911
  H 1.250451 -1.276522 0.009351
  H 2.925085 1.285580 -0.063285
  H 2.295812 -0.628671 -2.374883
  H 4.127469 -0.691001 -0.256044
  H 5.241328 -0.496109 -3.226015
  H 6.340744 -1.808401 -0.661401
  H 7.439119 -1.609372 -3.515273
 17
 88.717713
  C 1.941597 -0.493895 0.431401
  C 2.298730 0.506031 -0.541378
  C 2.860220 -0.057566 -1.683087
  C 4.191535 -0.437436 -1.433478
  C 5.239949 -0.788831 -2.191530
  C 6.355285 -1.546031 -1.700987
  C 7.413983 -1.871165 -2.443816
  H 8.235501 -2.443938 -2.049387
  H 1.623511 -0.150027 1.405201
  H 3.146975 -0.954543 0.467444
  H 1.324594 -1.311984 0.066475
  H 2.894530 1.307628 -0.098820
  H 2.278170 -0.706484 -2.331951
  H 4.103668 -0.736640 -0.229584
  H 5.288424 -0.459292 -3.219670
  H 6.303007 -1.858286 -0.665689
  H 7.484029 -1.582031 -3.475705
 17
 95.095052
  C 1.945701 -0.477779 0.451844
  C 2.290626 0.479176 -0.537481
  C 2.866769 -0.104908 -1.675326
  C 4.198851 -0.454741 -1.457533
  C 5.259308 -0.793970 -2.198547
  C 6.371112 -1.558180 -1.701352
  C 7.443025 -1.866232 -2.430642
  H 8.257656 -2.448943 -2.033081
  H 1.642944 -0.116595 1.426223
  H 3.272509 -0.980359 0.489612
  H 1.351672 -1.324333 0.123468
  H 2.858986 1.316741 -0.133517
  H 2.284847 -0.794337 -2.283827
  H 4.126650 -0.785978 -0.156280
  H 5.327626 -0.442988 -3.219471
  H 6.301020 -1.890903 -0.672542
  H 7.530428 -1.558722 -3.456100
 17
 95.329750
  C 1.927438 -0.436510 0.482820
  C 2.287891 0.445826 -0.526163
  C 2.877052 -0.174069 -1.659913
  C 4.203793 -0.485333 -1.514894
  C 5.285564 -0.800904 -2.223034
  C 6.384701 -1.585672 -1.718175
  C 7.482976 -1.856933 -2.419414
  H 8.292848 -2.443253 -2.011097
  H 1.624830 -0.041919 1.440559
  H 3.414076 -1.018505 0.566683
  H 1.366775 -1.319694 0.203342
  H 2.814763 1.335064 -0.183954
  H 2.283994 -0.913492 -2.199652
  H 4.191182 -0.863707 -0.065705
  H 5.392992 -0.405670 -3.224574
  H 6.281079 -1.957227 -0.704373
  H 7.609079 -1.501111 -3.423443
