19
 0
 C -1.25816749 1.68708727 -0.28371340
 C -1.07964393 0.19037019 -0.06004200
 C -1.72079658 -0.22304242 1.26365012
 C -1.59521904 -0.72073409 -1.17533839
 C -2.36641222 -0.16520175 -2.34522672
 O -1.39911153 -1.93992843 -1.11318155
 H -0.79806088 2.25696307 0.53098596
 H -2.31689472 1.96513433 -0.32534103
 H -0.78165751 2.00609129 -1.21658242
 H 0.00000000 0.00000000 0.00000000
 H -2.80714112 -0.08411383 1.23727996
 H -1.31911795 0.36688937 2.09439402
 H -1.52887852 -1.27902552 1.48301362
 H -2.43136436 0.92127834 -2.34588714
 H -3.38227517 -0.56871948 -2.32388789
 H -1.86703706 -0.47044495 -3.26939730
 O 2.30000000 0.00000000 0.00000000
 H 2.98474093 0.23913281 0.64258244
 H 2.78881206 -0.44606170 -0.70784698
