 19
 0.000000
  C -1.250644 1.699950 -0.299043
  C -1.088097 0.232298 -0.047460
  C -1.759759 -0.241638 1.222193
  C -1.564145 -0.772273 -1.156536
  C -2.308294 -0.154797 -2.289128
  O -1.358041 -1.935686 -1.036380
  H -0.775306 2.238663 0.524196
  H -2.292396 2.016018 -0.299950
  H -0.748221 2.018037 -1.208111
  H -0.007131 0.009613 -0.005622
  H -2.839039 -0.088095 1.208740
  H -1.375548 0.348063 2.056112
  H -1.564771 -1.296588 1.397937
  H -2.358339 0.923407 -2.260249
  H -3.312508 -0.584368 -2.272630
  H -1.825249 -0.494879 -3.207501
  O 2.241809 0.010000 -0.057539
  H 2.909561 0.248753 0.589261
  H 2.697890 -0.440806 -0.772828
 19
 -0.910132
  C -1.231964 1.710859 -0.292193
  C -1.057778 0.246855 -0.031382
  C -1.729721 -0.240487 1.229565
  C -1.505525 -0.765782 -1.149809
  C -2.255725 -0.162536 -2.282638
  O -1.280461 -1.927268 -1.033394
  H -0.742944 2.255509 0.518240
  H -2.274275 2.023132 -0.268381
  H -0.744986 2.027047 -1.210443
  H 0.029409 0.021585 -0.015003
  H -2.807764 -0.079268 1.214338
  H -1.351608 0.341602 2.070826
  H -1.535696 -1.296388 1.399878
  H -2.330335 0.911113 -2.250875
  H -3.250643 -0.612766 -2.272885
  H -1.764721 -0.489299 -3.200716
  O 2.046616 0.003785 -0.101172
  H 2.705959 0.225181 0.563685
  H 2.500214 -0.459274 -0.810345
 19
 -1.442353
  C -1.228498 1.716742 -0.283678
  C -1.043116 0.253144 -0.035259
  C -1.669071 -0.237005 1.247915
  C -1.475487 -0.758584 -1.143205
  C -2.205168 -0.163011 -2.297963
  O -1.270471 -1.926046 -1.016504
  H -0.742217 2.263430 0.525482
  H -2.274802 2.016657 -0.247809
  H -0.758580 2.042119 -1.210271
  H 0.057368 0.041709 -0.041241
  H -2.750789 -0.099561 1.256526
  H -1.287437 0.353746 2.080351
  H -1.455674 -1.290939 1.411808
  H -2.268151 0.915200 -2.280195
  H -3.205844 -0.600777 -2.297327
  H -1.706638 -0.506972 -3.205794
  O 1.876499 0.020381 -0.138617
  H 2.509962 0.184383 0.566796
  H 2.317872 -0.493660 -0.821626
 19
 -1.991804
  C -1.244518 1.732218 -0.270800
  C -1.047214 0.258746 -0.039825
  C -1.582255 -0.237715 1.274003
  C -1.473769 -0.747609 -1.133010
  C -2.147811 -0.165201 -2.331263
  O -1.317568 -1.924996 -0.977794
  H -0.778911 2.281531 0.546276
  H -2.295908 2.011742 -0.241796
  H -0.788198 2.070940 -1.193606
  H 0.078065 0.077805 -0.073080
  H -2.667207 -0.142578 1.329001
  H -1.187883 0.362857 2.087146
  H -1.336525 -1.287070 1.420489
  H -2.169804 0.915119 -2.348147
  H -3.161751 -0.560573 -2.350418
  H -1.640375 -0.554181 -3.211627
  O 1.751484 0.078726 -0.199669
  H 2.304318 0.113955 0.588810
  H 2.133045 -0.562958 -0.808688
