 17
 0.000000
  C 0.977817 0.133686 0.383978
  C 2.479947 0.115437 0.338060
  C 3.214481 0.604441 1.555204
  H 2.515632 0.914558 2.327412
  C 3.107078 -0.325358 -0.759569
  C 4.534777 -0.392482 -0.927141
  C 5.132585 -0.836597 -2.033813
  H 4.589870 -1.183940 -2.899125
  O 6.475266 -0.910113 -2.217310
  H 0.614335 0.515634 1.334860
  H 0.576898 -0.872159 0.242128
  H 0.576684 0.761764 -0.414268
  H 3.852697 1.455862 1.309313
  H 3.852871 -0.180366 1.966587
  H 2.507803 -0.660759 -1.594472
  H 5.150447 -0.060723 -0.100754
  H 6.905490 -0.589664 -1.418752
 17
 1.038996
  C 0.980157 0.060657 0.403367
  C 2.480964 0.153099 0.334357
  C 3.204094 0.672633 1.544594
  H 2.505952 0.936429 2.333375
  C 3.120257 -0.216379 -0.782963
  C 4.548421 -0.298190 -0.945300
  C 5.130472 -0.761747 -2.054220
  H 4.590601 -0.942520 -2.971135
  O 6.455614 -1.022455 -2.194981
  H 0.599726 0.446208 1.345769
  H 0.659007 -0.975606 0.304474
  H 0.519911 0.624883 -0.409447
  H 3.785348 1.557808 1.292740
  H 3.890893 -0.075443 1.939053
  H 2.533612 -0.559879 -1.624330
  H 5.165916 -0.082970 -0.081114
  H 6.871075 -1.020015 -1.323690
 17
 4.423944
  C 0.996054 0.012998 0.420776
  C 2.486530 0.183421 0.327694
  C 3.203424 0.734596 1.526699
  H 2.516975 0.898939 2.353595
  C 3.124858 -0.137299 -0.807878
  C 4.549298 -0.223835 -0.978434
  C 5.143472 -0.712623 -2.073297
  H 4.685030 -0.721436 -3.051836
  O 6.415794 -1.191627 -2.109626
  H 0.616890 0.343518 1.386210
  H 0.725668 -1.033545 0.287999
  H 0.490682 0.583599 -0.359745
  H 3.680377 1.679484 1.283446
  H 3.981664 0.050412 1.865485
  H 2.537022 -0.466937 -1.653409
  H 5.156001 -0.120511 -0.080944
  H 6.701760 -1.375178 -1.207525
 17
 10.506057
  C 1.022230 -0.047005 0.435677
  C 2.496740 0.230611 0.315433
  C 3.209186 0.780867 1.514168
  H 2.508536 1.029701 2.311017
  C 3.135928 -0.036612 -0.832911
  C 4.556266 -0.141079 -1.006405
  C 5.164434 -0.639200 -2.094362
  H 4.847131 -0.460841 -3.111226
  O 6.296061 -1.388678 -2.042099
  H 0.640208 0.252282 1.408642
  H 0.824323 -1.113945 0.303766
  H 0.462482 0.486008 -0.330353
  H 3.759310 1.675046 1.249509
  H 3.930144 0.057688 1.908322
  H 2.544557 -0.368566 -1.672914
  H 5.143312 -0.152444 -0.086525
  H 6.430195 -1.653614 -1.124565
 17
 18.703855
  C 1.021691 -0.039516 0.451271
  C 2.490664 0.237645 0.310338
  C 3.221827 0.788824 1.495999
  H 2.537191 1.053393 2.292957
  C 3.126913 -0.086727 -0.825553
  C 4.541998 -0.112354 -1.016661
  C 5.193992 -0.578021 -2.104381
  H 5.061171 -0.228248 -3.114433
  O 6.240730 -1.437020 -1.994836
  H 0.640733 0.314747 1.406576
  H 0.824520 -1.108505 0.379947
  H 0.456947 0.452035 -0.345937
  H 3.788326 1.675032 1.217771
  H 3.932336 0.061759 1.886659
  H 2.539288 -0.445093 -1.662500
  H 5.122488 -0.177785 -0.095515
  H 6.174193 -1.855944 -1.121502
 17
 33.054573
  C 1.053545 -0.070271 0.446106
  C 2.515127 0.246222 0.315440
  C 3.234915 0.825763 1.502426
  H 2.549374 1.042571 2.307059
  C 3.165621 -0.052751 -0.829717
  C 4.560584 -0.005794 -1.053700
  C 5.214660 -0.576793 -2.121740
  H 5.253702 -0.195516 -3.123101
  O 6.015054 -1.663608 -1.949697
  H 0.664532 0.236669 1.409801
  H 0.880333 -1.142611 0.336632
  H 0.478587 0.434269 -0.327767
  H 3.752606 1.743266 1.236048
  H 3.991417 0.126553 1.880770
  H 2.581874 -0.410009 -1.658697
  H 5.178121 0.020708 -0.139572
  H 5.778851 -2.045529 -1.077787
 17
 45.061672
  C 1.061754 -0.037810 0.439531
  C 2.531180 0.231748 0.346379
  C 3.227507 0.856008 1.516615
  H 2.533573 1.065079 2.318818
  C 3.207991 -0.100090 -0.782919
  C 4.594270 -0.038984 -1.009998
  C 5.251258 -0.593130 -2.116831
  H 5.270385 -0.167425 -3.112187
  O 5.880691 -1.790122 -2.062649
  H 0.669792 0.248717 1.413119
  H 0.848856 -1.099524 0.284233
  H 0.518084 0.520369 -0.319811
  H 3.719522 1.790304 1.230168
  H 4.004197 0.189617 1.900434
  H 2.621496 -0.518974 -1.593228
  H 5.234052 0.141277 -0.145020
  H 5.700699 -2.204966 -1.197672
 17
 64.038527
  C 1.076080 -0.013051 0.448579
  C 2.558765 0.191163 0.386720
  C 3.250188 0.861330 1.531576
  H 2.539556 1.160801 2.296558
  C 3.250640 -0.218673 -0.729941
  C 4.609826 -0.072919 -0.963409
  C 5.252711 -0.604643 -2.135100
  H 5.387169 -0.072976 -3.065583
  O 5.704277 -1.877483 -2.205657
  H 0.668423 0.337938 1.392482
  H 0.820991 -1.069443 0.339199
  H 0.575068 0.522577 -0.360300
  H 3.787117 1.749813 1.194626
  H 3.983581 0.194544 1.991823
  H 2.675096 -0.684779 -1.522040
  H 5.238845 0.365840 -0.199294
  H 5.545186 -2.320115 -1.360696
 17
 45.558339
  C 1.109211 -0.011403 0.469390
  C 2.595537 0.157100 0.378606
  C 3.316683 0.808372 1.518300
  H 2.630535 1.075378 2.311088
  C 3.255050 -0.225242 -0.752770
  C 4.603687 0.068693 -1.068047
  C 5.306852 -0.594583 -2.107559
  H 5.652833 -0.114759 -3.002026
  O 5.485321 -1.941658 -2.162081
  H 0.726174 0.353443 1.417321
  H 0.837873 -1.066014 0.376131
  H 0.604646 0.521890 -0.339565
  H 3.821495 1.715588 1.184250
  H 4.075073 0.146017 1.938462
  H 2.675732 -0.709014 -1.527672
  H 5.185406 0.589603 -0.319706
  H 5.126251 -2.369586 -1.367830
 17
 26.295193
  C 1.138048 -0.002201 0.483274
  C 2.625959 0.158189 0.367446
  C 3.365504 0.780362 1.514692
  H 2.679491 1.086075 2.301821
  C 3.268965 -0.278690 -0.734557
  C 4.609192 0.067560 -1.106466
  C 5.338600 -0.591214 -2.052271
  H 5.850598 -0.114291 -2.877892
  O 5.316851 -1.939058 -2.239773
  H 0.773857 0.336723 1.448710
  H 0.848153 -1.043392 0.358912
  H 0.630899 0.571644 -0.300127
  H 3.917192 1.662329 1.192559
  H 4.086262 0.074610 1.937350
  H 2.694245 -0.774300 -1.511066
  H 5.136000 0.738566 -0.439163
  H 4.850133 -2.378008 -1.513532
 17
 11.596169
  C 1.164104 -0.018496 0.501337
  C 2.655760 0.119978 0.382926
  C 3.395690 0.782427 1.508036
  H 2.725842 1.025614 2.328582
  C 3.279689 -0.263609 -0.742310
  C 4.654392 0.031561 -1.086130
  C 5.349238 -0.617239 -2.034826
  H 6.124285 -0.165346 -2.632272
  O 5.114772 -1.900787 -2.420237
  H 0.789296 0.468589 1.396228
  H 0.876517 -1.071771 0.542335
  H 0.669045 0.421628 -0.361425
  H 3.869179 1.703722 1.168228
  H 4.181721 0.132737 1.887632
  H 2.712246 -0.779428 -1.506265
  H 5.167373 0.752238 -0.472744
  H 4.545591 -2.315143 -1.763000
 17
 3.893631
  C 1.188488 -0.054892 0.514181
  C 2.671453 0.146923 0.362792
  C 3.408164 0.817897 1.484634
  H 2.742503 1.046307 2.310044
  C 3.294540 -0.241296 -0.755876
  C 4.674050 0.037039 -1.093388
  C 5.396684 -0.686423 -1.954005
  H 6.322098 -0.333181 -2.385004
  O 5.056761 -1.905500 -2.444879
  H 0.832328 0.317850 1.470994
  H 0.931111 -1.110857 0.445822
  H 0.651475 0.464204 -0.279219
  H 3.862185 1.745883 1.142229
  H 4.209124 0.177139 1.856674
  H 2.719195 -0.742254 -1.524037
  H 5.153981 0.865826 -0.596215
  H 4.287001 -2.223495 -1.957356
 17
 3.451432
  C 1.221116 -0.083075 0.498067
  C 2.688556 0.185595 0.318388
  C 3.442128 0.776989 1.473209
  H 2.774005 1.038863 2.287197
  C 3.296142 -0.100565 -0.835173
  C 4.689048 0.169176 -1.159069
  C 5.432334 -0.698121 -1.862650
  H 6.448838 -0.495399 -2.166719
  O 5.030115 -1.933802 -2.246950
  H 0.895797 0.151211 1.508021
  H 0.989727 -1.130339 0.298962
  H 0.637300 0.518628 -0.197495
  H 3.976001 1.673719 1.160491
  H 4.185045 0.068292 1.849244
  H 2.701812 -0.505610 -1.644756
  H 5.135292 1.079522 -0.795140
  H 4.155138 -2.074421 -1.870095
