 32
 0.000000
  C 0.911307 0.049183 0.267626
  C 2.404679 0.061128 0.083961
  C 3.242209 -0.011235 1.354780
  C 2.524111 -0.088739 2.700313
  C 3.520879 -0.154213 3.851543
  C 2.997348 0.128290 -1.122973
  C 2.353640 0.205091 -2.495882
  C 0.842017 0.217719 -2.714016
  C 0.515042 0.300816 -4.202265
  C 4.456650 0.132875 -1.209864
  C 5.196363 0.194482 -2.317094
  O 6.556461 0.195058 -2.332742
  H 0.605812 -0.006168 1.307515
  H 0.467573 -0.820031 -0.213072
  H 0.467228 0.963648 -0.118326
  H 3.887872 0.873049 1.387691
  H 3.888794 -0.892795 1.286503
  H 1.891312 -0.978650 2.740231
  H 1.890394 0.790126 2.841650
  H 4.156871 -1.033758 3.766658
  H 2.992444 -0.208956 4.801604
  H 4.155955 0.729930 3.867757
  H 2.740720 -0.644166 -3.070336
  H 2.741226 1.112757 -2.972330
  H 0.390130 1.079273 -2.223565
  H 0.389604 -0.692740 -2.322368
  H 0.923008 1.209705 -4.641365
  H -0.563712 0.309244 -4.347417
  H 0.922472 -0.553863 -4.739707
  H 5.001932 0.080795 -0.277722
  H 4.819717 0.250790 -3.325262
  H 6.885712 0.144395 -1.425679
 32
 5.596478
  C 0.917570 0.081005 0.271447
  C 2.373117 0.068039 0.096795
  C 3.229843 0.011421 1.355027
  C 2.504135 -0.100600 2.697814
  C 3.513468 -0.148397 3.844092
  C 2.983174 0.130619 -1.109848
  C 2.337064 0.204594 -2.477247
  C 0.829675 0.235764 -2.688912
  C 0.526117 0.311004 -4.182368
  C 4.446950 0.117980 -1.211215
  C 5.183413 0.169113 -2.328279
  O 6.546792 0.164071 -2.345765
  H 0.589622 -0.017692 1.282388
  H 0.756224 -0.830275 -0.285426
  H 0.426007 0.916580 -0.169513
  H 3.849612 0.914309 1.396893
  H 3.904879 -0.847307 1.282995
  H 1.899771 -1.009863 2.727205
  H 1.848472 0.759272 2.848158
  H 4.174723 -1.006804 3.738618
  H 3.000947 -0.228079 4.800834
  H 4.122466 0.753887 3.857015
  H 2.719590 -0.651303 -3.040578
  H 2.740137 1.101227 -2.955448
  H 0.390556 1.107484 -2.204296
  H 0.359372 -0.661776 -2.288345
  H 0.962303 1.207890 -4.618328
  H -0.548081 0.336274 -4.351384
  H 0.933789 -0.554628 -4.701457
  H 5.003377 0.069743 -0.294054
  H 4.799309 0.222981 -3.338026
  H 6.883664 0.117076 -1.438498
 32
 17.693530
  C 0.917595 0.075787 0.290852
  C 2.357233 0.073451 0.109960
  C 3.240344 0.028285 1.364144
  C 2.522254 -0.111812 2.714662
  C 3.530470 -0.144208 3.852781
  C 2.967387 0.134747 -1.109290
  C 2.316541 0.202792 -2.493806
  C 0.804605 0.267767 -2.721036
  C 0.516193 0.321473 -4.219771
  C 4.430581 0.112750 -1.196061
  C 5.179330 0.147461 -2.303666
  O 6.541451 0.136617 -2.304221
  H 0.563512 -0.088371 1.300638
  H 0.991896 -0.810121 -0.292913
  H 0.382175 0.879631 -0.175037
  H 3.831551 0.944992 1.404587
  H 3.935331 -0.806548 1.283082
  H 1.940481 -1.035105 2.737633
  H 1.847214 0.730795 2.871860
  H 4.211118 -0.985267 3.738998
  H 3.022943 -0.242892 4.809029
  H 4.117330 0.771402 3.870131
  H 2.685200 -0.670165 -3.047101
  H 2.741758 1.085523 -2.984935
  H 0.386332 1.160373 -2.261815
  H 0.302332 -0.606508 -2.307526
  H 0.980628 1.194706 -4.668880
  H -0.553001 0.373211 -4.399068
  H 0.903156 -0.563321 -4.716608
  H 4.975715 0.075483 -0.274198
  H 4.810413 0.188916 -3.317757
  H 6.859697 0.101883 -1.407702
 32
 31.566331
  C 0.915822 0.088595 0.297481
  C 2.370494 0.074662 0.110997
  C 3.235675 0.027195 1.369462
  C 2.495307 -0.121135 2.709369
  C 3.486585 -0.154813 3.863070
  C 2.998258 0.140663 -1.118232
  C 2.340634 0.201743 -2.494590
  C 0.834499 0.289983 -2.693958
  C 0.517067 0.317358 -4.187448
  C 4.444440 0.123344 -1.223698
  C 5.168883 0.140455 -2.352267
  O 6.529973 0.137451 -2.384180
  H 0.549845 -0.068856 1.300162
  H 1.196265 -0.804317 -0.247114
  H 0.347547 0.833349 -0.232155
  H 3.816951 0.948831 1.417717
  H 3.938685 -0.801104 1.297489
  H 1.917925 -1.044443 2.719755
  H 1.817043 0.716906 2.858973
  H 4.172048 -0.993750 3.756774
  H 2.964124 -0.258591 4.811403
  H 4.070817 0.762999 3.892769
  H 2.685754 -0.683333 -3.038775
  H 2.772094 1.068208 -3.002171
  H 0.443792 1.205684 -2.244177
  H 0.323662 -0.565479 -2.248723
  H 0.990975 1.172491 -4.665572
  H -0.556298 0.387218 -4.346759
  H 0.877053 -0.587294 -4.673268
  H 5.011530 0.108776 -0.307404
  H 4.775559 0.156895 -3.355805
  H 6.872829 0.125692 -1.479505
 32
 43.366889
  C 0.878097 0.127599 0.323773
  C 2.336911 0.088064 0.104271
  C 3.211594 0.023962 1.346062
  C 2.507412 -0.130269 2.692076
  C 3.532225 -0.180005 3.822204
  C 2.976310 0.158555 -1.125789
  C 2.333360 0.209127 -2.501634
  C 0.831023 0.301585 -2.708761
  C 0.518414 0.300846 -4.203977
  C 4.428637 0.138658 -1.199945
  C 5.179742 0.132928 -2.306883
  O 6.545599 0.134992 -2.301349
  H 0.527441 0.005988 1.333379
  H 1.297750 -0.775507 -0.154797
  H 0.280781 0.796917 -0.260926
  H 3.795529 0.947139 1.386457
  H 3.912416 -0.806903 1.252995
  H 1.923748 -1.050239 2.710502
  H 1.838469 0.710880 2.867252
  H 4.209710 -1.022689 3.691403
  H 3.033692 -0.288256 4.784111
  H 4.123524 0.734102 3.843978
  H 2.674863 -0.683352 -3.031839
  H 2.771645 1.064520 -3.017393
  H 0.446047 1.229024 -2.279693
  H 0.316474 -0.541651 -2.248256
  H 1.000357 1.145263 -4.698023
  H -0.556017 0.373984 -4.369084
  H 0.875684 -0.617524 -4.671018
  H 4.971052 0.144511 -0.274193
  H 4.810265 0.123757 -3.326161
  H 6.861945 0.147531 -1.388487
 32
 52.270844
  C 0.873895 0.178752 0.316177
  C 2.337923 0.104925 0.092071
  C 3.206584 0.020488 1.348633
  C 2.500623 -0.138177 2.692065
  C 3.523998 -0.214798 3.820082
  C 2.986377 0.175227 -1.132808
  C 2.346630 0.213453 -2.508548
  C 0.835825 0.303210 -2.705679
  C 0.507070 0.276939 -4.193886
  C 4.435603 0.162113 -1.205352
  C 5.183620 0.137750 -2.313706
  O 6.555363 0.140317 -2.313569
  H 0.524789 0.105622 1.328247
  H 1.406495 -0.742743 -0.090259
  H 0.264838 0.772904 -0.327321
  H 3.798254 0.938251 1.397571
  H 3.901876 -0.818459 1.251114
  H 1.902330 -1.051980 2.701232
  H 1.843281 0.711918 2.878479
  H 4.188222 -1.064034 3.680794
  H 3.025141 -0.325791 4.778149
  H 4.127420 0.688749 3.851590
  H 2.687736 -0.688534 -3.033472
  H 2.786371 1.066170 -3.038574
  H 0.457395 1.235998 -2.290584
  H 0.327329 -0.532455 -2.225780
  H 0.981742 1.108447 -4.705399
  H -0.566072 0.347720 -4.348001
  H 0.857555 -0.645644 -4.647529
  H 4.983932 0.191514 -0.273054
  H 4.813633 0.102173 -3.321950
  H 6.872863 0.173992 -1.405355
 32
 57.686910
  C 0.868047 0.238062 0.341908
  C 2.331191 0.120431 0.094518
  C 3.204941 0.020670 1.344990
  C 2.501197 -0.140947 2.693888
  C 3.528311 -0.254504 3.813741
  C 2.985121 0.191759 -1.144812
  C 2.350826 0.218426 -2.514380
  C 0.838566 0.302499 -2.716126
  C 0.513037 0.251491 -4.204860
  C 4.432008 0.177001 -1.211667
  C 5.185372 0.135285 -2.316698
  O 6.557610 0.155161 -2.309405
  H 0.521811 0.214160 1.359893
  H 1.476846 -0.718116 -0.001568
  H 0.237446 0.736982 -0.350595
  H 3.808302 0.929565 1.397653
  H 3.888387 -0.826322 1.234603
  H 1.881594 -1.043257 2.694811
  H 1.862867 0.722661 2.897172
  H 4.171474 -1.114410 3.659860
  H 3.033551 -0.366730 4.772454
  H 4.149978 0.633399 3.852864
  H 2.694443 -0.691661 -3.031720
  H 2.794054 1.069193 -3.053020
  H 0.454578 1.246017 -2.315308
  H 0.329974 -0.531404 -2.222329
  H 0.987593 1.076566 -4.728384
  H -0.559105 0.317416 -4.362577
  H 0.866789 -0.677949 -4.642701
  H 4.980681 0.229712 -0.275634
  H 4.819687 0.077855 -3.328395
  H 6.868477 0.212978 -1.400247
 32
 63.029495
  C 0.875554 0.283764 0.319640
  C 2.334642 0.124272 0.084623
  C 3.205873 0.020765 1.328800
  C 2.498699 -0.147827 2.692045
  C 3.525081 -0.280316 3.807682
  C 2.992964 0.198929 -1.146828
  C 2.358379 0.218098 -2.512902
  C 0.841945 0.298240 -2.702634
  C 0.504178 0.233160 -4.179341
  C 4.433661 0.186839 -1.208355
  C 5.192413 0.136649 -2.306817
  O 6.562960 0.162508 -2.291279
  H 0.523981 0.284707 1.322203
  H 1.549007 -0.702022 0.015660
  H 0.229759 0.740998 -0.423489
  H 3.812842 0.928611 1.381700
  H 3.886063 -0.827957 1.209440
  H 1.870847 -1.043901 2.688607
  H 1.870527 0.717678 2.906976
  H 4.162505 -1.148372 3.644456
  H 3.027564 -0.396660 4.771736
  H 4.157777 0.605324 3.852953
  H 2.704996 -0.703836 -3.033417
  H 2.801594 1.073260 -3.060872
  H 0.463589 1.232856 -2.313306
  H 0.344209 -0.522395 -2.203806
  H 0.972324 1.053418 -4.714534
  H -0.568035 0.296170 -4.326210
  H 0.854350 -0.698178 -4.610976
  H 4.971989 0.251225 -0.279890
  H 4.831593 0.065818 -3.324651
  H 6.865834 0.232087 -1.383881
 32
 66.711866
  C 0.877007 0.340741 0.357440
  C 2.329402 0.134720 0.101399
  C 3.210471 0.020890 1.348166
  C 2.510137 -0.150136 2.685554
  C 3.531350 -0.307128 3.796074
  C 2.989416 0.211819 -1.143210
  C 2.352593 0.221213 -2.520381
  C 0.841792 0.291119 -2.722671
  C 0.511455 0.208677 -4.221031
  C 4.424607 0.197057 -1.203844
  C 5.186527 0.140214 -2.307301
  O 6.562498 0.165246 -2.292762
  H 0.526787 0.332707 1.369243
  H 1.586281 -0.679313 0.051389
  H 0.244847 0.753922 -0.370535
  H 3.820073 0.916617 1.410415
  H 3.880153 -0.825727 1.224472
  H 1.874434 -1.031794 2.669818
  H 1.896128 0.716528 2.905574
  H 4.156290 -1.180445 3.623693
  H 3.035247 -0.426249 4.752909
  H 4.173422 0.567962 3.850062
  H 2.698943 -0.686178 -3.027048
  H 2.787588 1.060956 -3.063701
  H 0.454288 1.234208 -2.341845
  H 0.341439 -0.536363 -2.212740
  H 0.981024 1.028224 -4.762229
  H -0.566454 0.265000 -4.379865
  H 0.871577 -0.729266 -4.643066
  H 4.967261 0.266095 -0.273968
  H 4.830000 0.064882 -3.308763
  H 6.868206 0.239931 -1.380255
 32
 68.492014
  C 0.893060 0.451212 0.358287
  C 2.329501 0.145422 0.103523
  C 3.215155 0.021391 1.349840
  C 2.508278 -0.157699 2.692402
  C 3.530749 -0.358785 3.806260
  C 3.002966 0.231842 -1.159118
  C 2.358642 0.225654 -2.533287
  C 0.844911 0.276456 -2.725964
  C 0.506515 0.162439 -4.211170
  C 4.434472 0.213877 -1.213652
  C 5.201428 0.152532 -2.315994
  O 6.570132 0.184050 -2.293797
  H 0.516336 0.421406 1.358007
  H 1.610425 -0.670114 0.057500
  H 0.251258 0.815842 -0.399745
  H 3.833112 0.916086 1.419150
  H 3.880814 -0.834352 1.217221
  H 1.845376 -1.031449 2.660200
  H 1.908166 0.727541 2.928413
  H 4.135735 -1.244529 3.619309
  H 3.030537 -0.482625 4.764758
  H 4.194477 0.500752 3.875255
  H 2.709763 -0.679521 -3.035440
  H 2.782862 1.066533 -3.088456
  H 0.449496 1.223869 -2.359737
  H 0.357777 -0.547226 -2.196657
  H 0.965069 0.977780 -4.771608
  H -0.571647 0.205351 -4.362265
  H 0.873204 -0.780741 -4.617673
  H 4.976469 0.291996 -0.280783
  H 4.846379 0.071106 -3.327920
  H 6.869261 0.264675 -1.379622
 32
 70.387855
  C 0.919059 0.519554 0.356286
  C 2.341503 0.148936 0.103852
  C 3.223704 0.018637 1.350770
  C 2.504697 -0.166666 2.682956
  C 3.510441 -0.388951 3.799409
  C 3.014367 0.238635 -1.158997
  C 2.365346 0.223924 -2.531558
  C 0.842175 0.262597 -2.718606
  C 0.497661 0.131775 -4.197293
  C 4.441508 0.221299 -1.215060
  C 5.208926 0.157400 -2.318672
  O 6.578470 0.194505 -2.296947
  H 0.531630 0.471035 1.346725
  H 1.656386 -0.665828 0.052487
  H 0.281819 0.862750 -0.417530
  H 3.852957 0.924425 1.429988
  H 3.894010 -0.847201 1.213683
  H 1.837589 -1.026999 2.636349
  H 1.918107 0.712931 2.920276
  H 4.103410 -1.272976 3.610376
  H 3.003715 -0.515970 4.745468
  H 4.178316 0.457006 3.882449
  H 2.718404 -0.676722 -3.028519
  H 2.784235 1.067367 -3.093823
  H 0.439595 1.214408 -2.359383
  H 0.362434 -0.559215 -2.179081
  H 0.946166 0.940787 -4.765253
  H -0.577604 0.166379 -4.342389
  H 0.866799 -0.809986 -4.594839
  H 4.981520 0.304193 -0.288093
  H 4.851321 0.070419 -3.334544
  H 6.877295 0.279992 -1.384416
 32
 70.445039
  C 0.938022 0.640634 0.367299
  C 2.327785 0.173792 0.107610
  C 3.220765 0.021630 1.348418
  C 2.509769 -0.181257 2.682925
  C 3.522859 -0.447467 3.790935
  C 3.010450 0.269660 -1.166097
  C 2.362140 0.231970 -2.535107
  C 0.848333 0.244778 -2.720147
  C 0.503084 0.070271 -4.200101
  C 4.435285 0.255158 -1.214261
  C 5.209907 0.181500 -2.314300
  O 6.577414 0.189337 -2.282020
  H 0.526967 0.548158 1.347095
  H 1.660517 -0.646825 0.039060
  H 0.305418 0.977282 -0.415033
  H 3.847852 0.909435 1.436062
  H 3.876511 -0.838741 1.193543
  H 1.824024 -1.030920 2.620517
  H 1.935300 0.709556 2.945718
  H 4.100372 -1.340403 3.577568
  H 3.019109 -0.586870 4.741566
  H 4.208457 0.386636 3.887920
  H 2.733011 -0.682859 -3.029577
  H 2.766755 1.072381 -3.105747
  H 0.435070 1.193514 -2.386723
  H 0.384191 -0.564648 -2.159946
  H 0.942394 0.874145 -4.792431
  H -0.577697 0.086962 -4.345714
  H 0.885602 -0.879697 -4.575477
  H 4.973787 0.339703 -0.278323
  H 4.858279 0.085100 -3.328309
  H 6.871870 0.270512 -1.366081
 32
 69.330523
  C 0.989613 0.774133 0.362991
  C 2.333084 0.192214 0.105012
  C 3.221694 0.011749 1.345361
  C 2.499566 -0.198183 2.669418
  C 3.501120 -0.511790 3.781991
  C 3.027458 0.278995 -1.175674
  C 2.370574 0.222431 -2.540301
  C 0.850514 0.218941 -2.708311
  C 0.488951 0.003928 -4.176081
  C 4.445625 0.255579 -1.217800
  C 5.225903 0.184445 -2.317178
  O 6.592275 0.241947 -2.283409
  H 0.545275 0.643048 1.325677
  H 1.678296 -0.635623 0.014542
  H 0.375666 1.119913 -0.430812
  H 3.865326 0.892217 1.448163
  H 3.863974 -0.859592 1.179881
  H 1.794789 -1.026013 2.585422
  H 1.947996 0.697114 2.943569
  H 4.058310 -1.416511 3.555319
  H 2.987584 -0.656086 4.727485
  H 4.208469 0.304121 3.899211
  H 2.740680 -0.691154 -3.023056
  H 2.764110 1.056984 -3.126394
  H 0.429878 1.178756 -2.392292
  H 0.397934 -0.581845 -2.117800
  H 0.911793 0.789158 -4.789718
  H -0.585600 0.009585 -4.307717
  H 0.870568 -0.946522 -4.529725
  H 4.979939 0.353928 -0.282710
  H 4.875144 0.091765 -3.335528
  H 6.883252 0.338084 -1.368592
 32
 66.417744
  C 1.078266 0.966722 0.354533
  C 2.343067 0.229969 0.098674
  C 3.220981 -0.001349 1.335804
  C 2.475466 -0.227716 2.653392
  C 3.452262 -0.609675 3.766783
  C 3.055943 0.310356 -1.191450
  C 2.384094 0.224593 -2.543801
  C 0.859663 0.169443 -2.673794
  C 0.467959 -0.103528 -4.118831
  C 4.465543 0.297122 -1.231922
  C 5.247891 0.219734 -2.335047
  O 6.609748 0.273434 -2.301852
  H 0.559992 0.783295 1.272236
  H 1.685790 -0.605448 -0.024085
  H 0.504406 1.355275 -0.453820
  H 3.884841 0.859135 1.465079
  H 3.841205 -0.883148 1.150563
  H 1.740370 -1.030065 2.534979
  H 1.949885 0.679220 2.948344
  H 3.981085 -1.528200 3.518240
  H 2.922789 -0.763760 4.702503
  H 4.187372 0.178235 3.916151
  H 2.769405 -0.679389 -3.019950
  H 2.744255 1.067270 -3.150995
  H 0.417006 1.118620 -2.377902
  H 0.447563 -0.622476 -2.044495
  H 0.851213 0.674338 -4.768823
  H -0.611164 -0.133537 -4.221120
  H 0.869359 -1.055207 -4.452482
  H 4.999125 0.404519 -0.296430
  H 4.894180 0.112144 -3.351046
  H 6.902320 0.375768 -1.388131
