 20
 0.000000
  C 0.980741 0.050640 0.172990
  C 2.483899 0.051369 0.189601
  C 3.238373 -0.025643 1.497182
  C 2.406811 -0.086062 2.769944
  H 3.071614 -0.135962 3.630435
  C 3.138442 0.118772 -0.979287
  H 2.558889 0.171123 -1.892869
  C 4.565001 0.130101 -1.165130
  C 5.133344 0.199512 -2.368752
  O 6.465361 0.214447 -2.615105
  H 0.555893 -0.024179 1.166744
  H 0.611245 -0.788513 -0.417124
  H 0.603914 0.965646 -0.285391
  H 3.896779 0.846087 1.562742
  H 3.881684 -0.910641 1.468431
  H 1.774066 -0.966949 2.786073
  H 1.787035 0.797673 2.877293
  H 5.196898 0.079863 -0.287982
  H 4.564144 0.251645 -3.284272
  H 6.948882 0.166849 -1.780460
 20
 5.873563
  C 0.982071 0.000190 0.178688
  C 2.448949 0.041256 0.177446
  C 3.236002 -0.041207 1.512549
  C 2.406411 -0.072073 2.781366
  H 3.070324 -0.125863 3.641225
  C 3.113897 0.110418 -0.982395
  H 2.538833 0.156321 -1.900997
  C 4.546654 0.140669 -1.164538
  C 5.120462 0.213445 -2.373903
  O 6.451475 0.237389 -2.616297
  H 0.515048 -0.029839 1.154601
  H 0.572024 -0.795862 -0.438120
  H 0.862133 0.957591 -0.301094
  H 3.909190 0.815024 1.563825
  H 3.856863 -0.937560 1.485844
  H 1.755509 -0.944043 2.807623
  H 1.802577 0.828289 2.880278
  H 5.177182 0.097833 -0.286032
  H 4.553419 0.257940 -3.291525
  H 6.931404 0.195207 -1.780031
 20
 18.068737
  C 0.960873 -0.029157 0.185995
  C 2.425392 0.018737 0.177157
  C 3.237638 -0.064264 1.507902
  C 2.416530 -0.058520 2.779345
  H 3.083136 -0.113684 3.641599
  C 3.098348 0.084951 -0.983357
  H 2.529596 0.105673 -1.909442
  C 4.529334 0.148638 -1.158264
  C 5.107547 0.222109 -2.362853
  O 6.441450 0.276674 -2.597291
  H 0.471906 -0.003894 1.140837
  H 0.520491 -0.769060 -0.461696
  H 1.088023 0.927189 -0.278880
  H 3.926957 0.774513 1.535853
  H 3.825448 -0.978323 1.475569
  H 1.746085 -0.917699 2.818575
  H 1.831180 0.857163 2.865467
  H 5.156291 0.127548 -0.277466
  H 4.545797 0.244406 -3.285218
  H 6.911545 0.253545 -1.763455
 20
 32.125013
  C 0.959771 -0.059634 0.200330
  C 2.418566 0.018760 0.167073
  C 3.238661 -0.059923 1.506589
  C 2.398629 -0.045411 2.781969
  H 3.056841 -0.098333 3.646996
  C 3.093793 0.085958 -0.995118
  H 2.526216 0.098749 -1.918201
  C 4.519722 0.152973 -1.170709
  C 5.096095 0.225823 -2.371913
  O 6.436674 0.280176 -2.605176
  H 0.473436 -0.059291 1.161059
  H 0.495779 -0.737125 -0.512810
  H 1.249538 0.905494 -0.191076
  H 3.937824 0.778687 1.531777
  H 3.823871 -0.982479 1.473151
  H 1.729338 -0.897355 2.821488
  H 1.817526 0.868029 2.860503
  H 5.148787 0.134154 -0.290117
  H 4.536463 0.245484 -3.294057
  H 6.913328 0.255831 -1.755833
 20
 44.354204
  C 0.948230 -0.086496 0.214263
  C 2.411750 0.017875 0.167325
  C 3.226086 -0.054053 1.495603
  C 2.394526 -0.033622 2.776064
  H 3.059999 -0.083222 3.635204
  C 3.088871 0.080361 -1.000980
  H 2.516629 0.079141 -1.924824
  C 4.521337 0.154672 -1.175818
  C 5.103522 0.224136 -2.374129
  O 6.442863 0.286114 -2.598513
  H 0.470665 -0.121883 1.166726
  H 0.464150 -0.674728 -0.556286
  H 1.378562 0.880964 -0.087655
  H 3.924643 0.777944 1.519469
  H 3.802821 -0.976083 1.459781
  H 1.725298 -0.884428 2.825629
  H 1.814640 0.879426 2.855511
  H 5.150206 0.144563 -0.291032
  H 4.549854 0.236120 -3.299056
  H 6.903987 0.267931 -1.759826
 20
 53.247291
  C 0.945180 -0.110570 0.226789
  C 2.408400 0.019293 0.158630
  C 3.214770 -0.049584 1.491102
  C 2.391812 -0.026212 2.770925
  H 3.058675 -0.070633 3.622926
  C 3.091531 0.079766 -1.017723
  H 2.520716 0.073260 -1.936991
  C 4.512075 0.156497 -1.184137
  C 5.104760 0.225195 -2.380586
  O 6.449651 0.287537 -2.593235
  H 0.472628 -0.166907 1.183614
  H 0.446263 -0.632878 -0.571548
  H 1.477235 0.864017 -0.015403
  H 3.917116 0.783902 1.514089
  H 3.792244 -0.972928 1.456622
  H 1.725378 -0.880256 2.828638
  H 1.808368 0.888452 2.850975
  H 5.133717 0.148528 -0.299918
  H 4.558037 0.234704 -3.311641
  H 6.903940 0.269380 -1.742813
 20
 59.134571
  C 0.933598 -0.136042 0.233274
  C 2.402891 0.021051 0.165765
  C 3.208851 -0.043353 1.483462
  C 2.392605 -0.016948 2.764190
  H 3.074439 -0.053623 3.626803
  C 3.084835 0.077479 -1.018929
  H 2.505940 0.064210 -1.940163
  C 4.515377 0.157786 -1.187166
  C 5.109889 0.224673 -2.382399
  O 6.454234 0.287472 -2.591540
  H 0.457210 -0.224029 1.178183
  H 0.420396 -0.575622 -0.611430
  H 1.554616 0.848274 0.061375
  H 3.914490 0.794828 1.502132
  H 3.789728 -0.970059 1.450829
  H 1.729638 -0.876439 2.828059
  H 1.805210 0.894419 2.839756
  H 5.144460 0.153127 -0.294086
  H 4.570459 0.230598 -3.307106
  H 6.903513 0.270350 -1.741688
 20
 63.438876
  C 0.934518 -0.164022 0.225135
  C 2.406020 0.023621 0.168298
  C 3.217571 -0.039447 1.493392
  C 2.396168 -0.009914 2.775514
  H 3.061554 -0.036496 3.622937
  C 3.094119 0.074689 -1.025867
  H 2.519751 0.059988 -1.937823
  C 4.504743 0.153907 -1.190287
  C 5.104759 0.221423 -2.386989
  O 6.451100 0.288399 -2.590360
  H 0.446045 -0.284427 1.157213
  H 0.420688 -0.511978 -0.655050
  H 1.622241 0.847082 0.119818
  H 3.916410 0.793943 1.507244
  H 3.796471 -0.957962 1.463429
  H 1.740652 -0.871223 2.843370
  H 1.800116 0.901270 2.844994
  H 5.123816 0.150262 -0.307523
  H 4.564436 0.227891 -3.321149
  H 6.897823 0.271571 -1.736166
 20
 67.166853
  C 0.934612 -0.194205 0.232044
  C 2.399656 0.031206 0.174572
  C 3.216324 -0.033160 1.496400
  C 2.394940 -0.003825 2.760551
  H 3.057087 -0.023239 3.613975
  C 3.086491 0.077226 -1.025487
  H 2.502249 0.063520 -1.939463
  C 4.508740 0.155764 -1.193603
  C 5.108114 0.222795 -2.387904
  O 6.460983 0.283397 -2.589434
  H 0.432261 -0.332114 1.174849
  H 0.418540 -0.471282 -0.666165
  H 1.670789 0.851935 0.167470
  H 3.923916 0.817533 1.508641
  H 3.807060 -0.965267 1.468843
  H 1.743627 -0.871065 2.826380
  H 1.793898 0.903307 2.821847
  H 5.135359 0.149900 -0.306268
  H 4.566362 0.230241 -3.326401
  H 6.908025 0.263075 -1.729446
 20
 70.131835
  C 0.940111 -0.223294 0.231967
  C 2.401408 0.038310 0.183458
  C 3.219539 -0.031660 1.498780
  C 2.397104 0.001154 2.764156
  H 3.049939 -0.015352 3.609057
  C 3.092909 0.075506 -1.026491
  H 2.508976 0.062946 -1.932039
  C 4.502639 0.149899 -1.194298
  C 5.105634 0.219330 -2.391125
  O 6.457890 0.289020 -2.588814
  H 0.431096 -0.357602 1.157276
  H 0.424723 -0.442504 -0.685350
  H 1.722627 0.863043 0.197456
  H 3.924766 0.813862 1.508742
  H 3.803308 -0.957708 1.473222
  H 1.749165 -0.864578 2.831647
  H 1.793387 0.911894 2.823041
  H 5.127594 0.145876 -0.314306
  H 4.569972 0.230456 -3.324464
  H 6.900896 0.269479 -1.727532
 20
 71.809450
  C 0.945796 -0.260746 0.223840
  C 2.401197 0.050418 0.185317
  C 3.224449 -0.027469 1.500181
  C 2.397572 0.007700 2.772781
  H 3.061407 -0.005833 3.634414
  C 3.098949 0.079419 -1.031428
  H 2.510851 0.062921 -1.944698
  C 4.503352 0.160678 -1.193312
  C 5.110598 0.225085 -2.390708
  O 6.454855 0.280987 -2.579568
  H 0.420737 -0.380329 1.145455
  H 0.428429 -0.425975 -0.700490
  H 1.765672 0.889929 0.212104
  H 3.923216 0.807786 1.507079
  H 3.806420 -0.954493 1.471467
  H 1.747190 -0.859790 2.841045
  H 1.796692 0.909518 2.827575
  H 5.128378 0.158541 -0.306230
  H 4.564836 0.229419 -3.352386
  H 6.893166 0.261876 -1.716810
 20
 72.589288
  C 0.946568 -0.299020 0.216274
  C 2.395236 0.062444 0.185934
  C 3.228457 -0.028356 1.509388
  C 2.401372 0.012647 2.782165
  H 3.063476 -0.002438 3.643538
  C 3.099456 0.081063 -1.038026
  H 2.512428 0.063185 -1.945281
  C 4.500995 0.165410 -1.198865
  C 5.111916 0.227810 -2.397521
  O 6.461208 0.283014 -2.586147
  H 0.408772 -0.390291 1.132061
  H 0.425746 -0.425853 -0.711035
  H 1.804067 0.925748 0.216331
  H 3.933742 0.802421 1.515792
  H 3.801183 -0.956864 1.479550
  H 1.744697 -0.852155 2.850625
  H 1.804802 0.916987 2.834151
  H 5.124176 0.166254 -0.314186
  H 4.579331 0.230072 -3.337109
  H 6.898835 0.266314 -1.723947
 20
 70.802720
  C 0.965898 -0.369631 0.216560
  C 2.380913 0.087351 0.191552
  C 3.223046 -0.027239 1.505565
  C 2.407353 0.017200 2.783830
  H 3.077205 -0.004391 3.641545
  C 3.100367 0.089194 -1.040620
  H 2.512601 0.069560 -1.946190
  C 4.496006 0.175732 -1.196462
  C 5.113955 0.233459 -2.396111
  O 6.464665 0.278959 -2.578443
  H 0.401326 -0.386467 1.125584
  H 0.434061 -0.451477 -0.708928
  H 1.849873 0.997370 0.216826
  H 3.938905 0.796536 1.512820
  H 3.782868 -0.963558 1.464796
  H 1.745499 -0.841479 2.855345
  H 1.816713 0.926133 2.841473
  H 5.118101 0.177472 -0.311868
  H 4.587159 0.230358 -3.331576
  H 6.900239 0.265069 -1.714303
 20
 70.340146
  C 0.982369 -0.410258 0.217397
  C 2.384444 0.102673 0.203348
  C 3.223095 -0.021924 1.508023
  C 2.407217 0.029249 2.787533
  H 3.070693 0.004854 3.639498
  C 3.109327 0.100614 -1.042814
  H 2.517130 0.086100 -1.947033
  C 4.490650 0.178279 -1.195809
  C 5.111043 0.238509 -2.399272
  O 6.458996 0.283606 -2.578801
  H 0.408069 -0.390470 1.114593
  H 0.456065 -0.479649 -0.714176
  H 1.904190 1.032190 0.219968
  H 3.948930 0.794803 1.518158
  H 3.771084 -0.956220 1.469311
  H 1.731412 -0.833167 2.859584
  H 1.829904 0.935527 2.841856
  H 5.118458 0.176161 -0.307244
  H 4.583811 0.243111 -3.336724
  H 6.893980 0.266104 -1.713572
