 22
 0.000000
  C 1.006055 0.111184 0.341853
  C 2.477050 0.124869 0.369794
  C 3.232744 0.600559 1.550204
  C 2.427231 1.088223 2.746490
  H 3.108317 1.405964 3.533535
  C 3.137208 -0.333201 -0.771489
  C 4.521881 -0.401780 -0.944858
  C 5.153302 -0.856457 -2.081484
  C 4.541516 -1.347774 -3.312035
  H 3.455904 -1.345021 -3.307980
  H 6.238494 -0.854997 -2.076517
  H 0.555265 0.467577 1.258641
  H 0.649484 -0.899854 0.135772
  H 0.645028 0.717199 -0.491473
  H 3.902875 1.405612 1.224503
  H 3.896786 -0.208578 1.878424
  H 1.798789 0.300149 3.151877
  H 1.802946 1.938416 2.486171
  H 2.510848 -0.661930 -1.588870
  H 5.154374 -0.076464 -0.131760
  H 4.905693 -2.358461 -3.511915
  H 4.907312 -0.754055 -4.153304
 22
 3.352419
  C 1.008462 0.075789 0.379119
  C 2.457378 0.119844 0.376449
  C 3.219868 0.600450 1.549247
  C 2.416106 1.099364 2.739771
  H 3.097475 1.414495 3.526140
  C 3.118613 -0.332609 -0.768690
  C 4.518200 -0.395966 -0.945979
  C 5.151656 -0.850109 -2.089381
  C 4.537139 -1.346217 -3.318331
  H 3.453533 -1.349130 -3.308364
  H 6.234668 -0.842466 -2.087998
  H 0.532965 0.447084 1.268311
  H 0.614286 -0.902761 0.127814
  H 0.852034 0.711172 -0.468195
  H 3.900721 1.394968 1.225541
  H 3.870875 -0.216485 1.880736
  H 1.779360 0.318785 3.147879
  H 1.801003 1.955037 2.473017
  H 2.492279 -0.663403 -1.587495
  H 5.151970 -0.069253 -0.133209
  H 4.904307 -2.355081 -3.518818
  H 4.895267 -0.751462 -4.161393
 22
 8.468715
  C 1.004082 0.027172 0.396542
  C 2.454446 0.103141 0.384673
  C 3.223801 0.597973 1.538439
  C 2.414570 1.112133 2.724340
  H 3.094655 1.430643 3.513945
  C 3.118772 -0.338758 -0.767656
  C 4.506015 -0.388204 -0.946328
  C 5.133924 -0.833380 -2.081391
  C 4.520169 -1.341452 -3.298968
  H 3.433271 -1.360308 -3.278950
  H 6.219742 -0.809611 -2.087738
  H 0.502245 0.385343 1.288781
  H 0.578135 -0.895492 0.030196
  H 1.041934 0.746907 -0.418644
  H 3.918843 1.380123 1.213690
  H 3.854974 -0.235975 1.876316
  H 1.772206 0.341118 3.134188
  H 1.808842 1.967802 2.447076
  H 2.497642 -0.677165 -1.586261
  H 5.139635 -0.056266 -0.135624
  H 4.898665 -2.346912 -3.496646
  H 4.861874 -0.743566 -4.146944
 22
 15.354517
  C 0.998404 0.002852 0.414642
  C 2.443686 0.095792 0.379088
  C 3.218347 0.604131 1.540684
  C 2.414311 1.124183 2.721602
  H 3.094976 1.444713 3.504878
  C 3.105811 -0.342824 -0.775119
  C 4.495382 -0.388648 -0.949984
  C 5.128798 -0.828809 -2.079527
  C 4.521457 -1.343391 -3.307908
  H 3.439186 -1.369118 -3.293960
  H 6.209002 -0.799132 -2.080413
  H 0.492309 0.340768 1.300277
  H 0.546043 -0.880296 -0.013941
  H 1.176949 0.754959 -0.351117
  H 3.914291 1.381703 1.216004
  H 3.841660 -0.229296 1.879747
  H 1.770694 0.353068 3.138682
  H 1.807845 1.982303 2.439970
  H 2.486102 -0.683054 -1.593927
  H 5.123617 -0.056010 -0.137814
  H 4.905449 -2.346135 -3.503307
  H 4.862528 -0.743682 -4.153491
 22
 21.247872
  C 0.986699 -0.017025 0.437731
  C 2.444007 0.095131 0.373764
  C 3.214758 0.608151 1.539042
  C 2.405630 1.132889 2.718868
  H 3.085105 1.455608 3.503278
  C 3.104428 -0.342059 -0.781574
  C 4.494380 -0.388593 -0.955125
  C 5.130049 -0.828710 -2.085928
  C 4.523306 -1.343938 -3.315850
  H 3.440350 -1.370255 -3.301973
  H 6.211023 -0.798524 -2.086250
  H 0.468711 0.313217 1.322537
  H 0.512457 -0.873821 -0.023183
  H 1.291658 0.761869 -0.314187
  H 3.914641 1.384991 1.214201
  H 3.835163 -0.227817 1.883400
  H 1.762209 0.364297 3.136618
  H 1.800744 1.989460 2.434721
  H 2.484608 -0.681959 -1.599654
  H 5.122538 -0.056130 -0.140077
  H 4.907719 -2.347269 -3.510913
  H 4.864040 -0.743233 -4.161747
 22
 25.151637
  C 0.994640 -0.037664 0.459972
  C 2.431227 0.102341 0.373194
  C 3.210418 0.614723 1.530338
  C 2.399334 1.129147 2.707949
  H 3.077132 1.457311 3.490852
  C 3.103616 -0.340011 -0.787899
  C 4.492561 -0.381136 -0.959463
  C 5.130289 -0.822238 -2.079962
  C 4.522757 -1.355906 -3.317766
  H 3.438274 -1.389401 -3.302377
  H 6.213675 -0.784764 -2.079281
  H 0.474351 0.269315 1.356401
  H 0.503011 -0.819356 -0.086529
  H 1.377188 0.805953 -0.223522
  H 3.902043 1.393381 1.205435
  H 3.826494 -0.221694 1.868362
  H 1.765744 0.352316 3.126037
  H 1.784433 1.980255 2.427077
  H 2.484593 -0.691178 -1.603954
  H 5.116395 -0.042321 -0.148720
  H 4.911790 -2.360595 -3.504135
  H 4.856753 -0.757615 -4.169709
 22
 27.702381
  C 0.987551 -0.059261 0.463627
  C 2.413897 0.100993 0.358651
  C 3.204649 0.618180 1.521768
  C 2.398519 1.137400 2.721255
  H 3.088583 1.475127 3.496514
  C 3.086810 -0.344027 -0.800152
  C 4.480471 -0.381336 -0.968480
  C 5.130319 -0.827784 -2.095222
  C 4.537517 -1.360425 -3.314713
  H 3.456389 -1.396933 -3.300000
  H 6.211166 -0.787376 -2.093007
  H 0.472603 0.225832 1.367719
  H 0.481915 -0.786354 -0.151329
  H 1.434928 0.840377 -0.154164
  H 3.894925 1.406487 1.185370
  H 3.830896 -0.224703 1.857467
  H 1.778530 0.359187 3.155020
  H 1.774177 1.983313 2.448019
  H 2.467907 -0.700012 -1.611963
  H 5.105757 -0.034717 -0.151297
  H 4.928048 -2.360739 -3.493741
  H 4.868695 -0.765179 -4.163867
 22
 29.534053
  C 0.993169 -0.072839 0.476900
  C 2.414302 0.106614 0.363417
  C 3.202250 0.622937 1.518942
  C 2.393665 1.135805 2.710181
  H 3.077221 1.484432 3.478399
  C 3.091681 -0.342043 -0.798677
  C 4.484003 -0.377375 -0.965791
  C 5.133550 -0.823829 -2.085814
  C 4.535020 -1.367163 -3.321191
  H 3.444596 -1.404563 -3.306579
  H 6.215853 -0.781966 -2.081079
  H 0.478215 0.189790 1.389438
  H 0.472603 -0.746347 -0.197962
  H 1.496106 0.870757 -0.081641
  H 3.879413 1.411017 1.180574
  H 3.832770 -0.210723 1.856008
  H 1.786136 0.352219 3.149283
  H 1.758874 1.971146 2.434647
  H 2.471565 -0.701500 -1.607883
  H 5.106720 -0.028337 -0.150966
  H 4.928771 -2.376670 -3.499152
  H 4.867871 -0.768369 -4.179163
 22
 31.134931
  C 0.994725 -0.092243 0.472950
  C 2.412703 0.110528 0.357104
  C 3.209435 0.630702 1.522422
  C 2.397075 1.136827 2.707365
  H 3.079328 1.496896 3.477680
  C 3.091617 -0.343016 -0.805552
  C 4.474904 -0.376655 -0.970809
  C 5.127835 -0.826778 -2.089080
  C 4.535912 -1.369236 -3.317905
  H 3.462968 -1.404916 -3.306395
  H 6.206942 -0.786220 -2.081930
  H 0.469957 0.143122 1.401796
  H 0.475272 -0.701788 -0.239808
  H 1.541946 0.887701 -0.035260
  H 3.877477 1.423928 1.183392
  H 3.841279 -0.191451 1.859386
  H 1.793595 0.339060 3.152055
  H 1.746381 1.972016 2.425679
  H 2.473158 -0.703905 -1.611300
  H 5.092327 -0.026395 -0.160942
  H 4.923619 -2.367989 -3.490507
  H 4.866837 -0.779312 -4.166672
 22
 32.744989
  C 1.001613 -0.098440 0.483489
  C 2.415742 0.122301 0.357715
  C 3.211624 0.635321 1.519459
  C 2.384473 1.142213 2.717995
  H 3.062178 1.508568 3.491180
  C 3.099846 -0.339865 -0.810189
  C 4.476899 -0.372259 -0.975846
  C 5.127899 -0.826816 -2.091063
  C 4.534561 -1.374226 -3.321287
  H 3.462762 -1.407554 -3.308346
  H 6.201778 -0.787840 -2.083567
  H 0.487222 0.119940 1.395439
  H 0.475392 -0.678468 -0.258645
  H 1.583654 0.901591 0.001892
  H 3.869233 1.424879 1.180233
  H 3.848440 -0.185055 1.854352
  H 1.785597 0.339414 3.163394
  H 1.728088 1.970906 2.437690
  H 2.482217 -0.702419 -1.614786
  H 5.095902 -0.017224 -0.167170
  H 4.925635 -2.391972 -3.493053
  H 4.870079 -0.777300 -4.186503
 22
 34.257566
  C 0.986917 -0.112294 0.480713
  C 2.407591 0.129441 0.353920
  C 3.211423 0.640287 1.525743
  C 2.398354 1.137233 2.709775
  H 3.074750 1.504127 3.476664
  C 3.091617 -0.335203 -0.810346
  C 4.477131 -0.364921 -0.974479
  C 5.132636 -0.823634 -2.088421
  C 4.541492 -1.375772 -3.316790
  H 3.455393 -1.410598 -3.305750
  H 6.215263 -0.783147 -2.079060
  H 0.461516 0.099806 1.401811
  H 0.465850 -0.659927 -0.278397
  H 1.607193 0.912671 0.017612
  H 3.870594 1.437180 1.185581
  H 3.847506 -0.176005 1.858093
  H 1.809457 0.338160 3.153104
  H 1.741995 1.958840 2.432322
  H 2.472082 -0.702172 -1.617393
  H 5.094464 -0.004891 -0.166656
  H 4.930022 -2.383012 -3.482524
  H 4.874770 -0.787641 -4.174645
 22
 35.933963
  C 0.992456 -0.118248 0.487578
  C 2.406082 0.140646 0.355425
  C 3.211534 0.642262 1.524857
  C 2.394379 1.135692 2.710274
  H 3.080896 1.510618 3.491678
  C 3.093642 -0.329947 -0.812023
  C 4.478061 -0.358066 -0.976937
  C 5.133952 -0.820611 -2.087665
  C 4.540794 -1.378250 -3.313752
  H 3.450145 -1.414016 -3.303302
  H 6.225517 -0.779214 -2.078792
  H 0.480117 0.087975 1.386859
  H 0.458528 -0.652975 -0.298479
  H 1.639687 0.921318 0.034681
  H 3.877864 1.453355 1.183222
  H 3.853753 -0.185437 1.861086
  H 1.804998 0.329854 3.153381
  H 1.728857 1.960700 2.430001
  H 2.474481 -0.699932 -1.616427
  H 5.088626 0.003097 -0.180497
  H 4.927235 -2.375265 -3.474500
  H 4.871947 -0.799986 -4.165874
 22
 37.195514
  C 0.983829 -0.134768 0.483281
  C 2.404753 0.149274 0.345923
  C 3.216870 0.646449 1.528255
  C 2.401852 1.138559 2.718282
  H 3.081481 1.507864 3.489605
  C 3.092648 -0.324597 -0.818846
  C 4.475188 -0.351346 -0.980342
  C 5.134417 -0.819041 -2.090100
  C 4.546805 -1.379924 -3.311188
  H 3.458590 -1.415430 -3.302126
  H 6.214881 -0.777751 -2.079490
  H 0.460167 0.075574 1.393937
  H 0.458915 -0.647959 -0.301626
  H 1.665021 0.937077 0.028278
  H 3.875101 1.447609 1.193581
  H 3.849344 -0.173422 1.856762
  H 1.818250 0.338635 3.158597
  H 1.742772 1.955136 2.444870
  H 2.472463 -0.697653 -1.624361
  H 5.091565 0.017950 -0.173447
  H 4.938101 -2.387962 -3.468295
  H 4.883116 -0.798737 -4.173054
 22
 38.716110
  C 0.990567 -0.144245 0.486210
  C 2.400810 0.159375 0.344593
  C 3.217383 0.648747 1.531842
  C 2.403789 1.136686 2.716909
  H 3.090267 1.508986 3.497911
  C 3.090337 -0.319446 -0.821073
  C 4.473603 -0.343745 -0.981937
  C 5.134175 -0.815177 -2.089312
  C 4.548784 -1.381702 -3.307779
  H 3.461925 -1.418178 -3.298881
  H 6.219927 -0.772233 -2.077919
  H 0.465356 0.069726 1.392894
  H 0.463184 -0.645209 -0.307753
  H 1.695724 0.947509 0.032056
  H 3.878824 1.450943 1.200616
  H 3.847554 -0.173783 1.858382
  H 1.818966 0.334249 3.155167
  H 1.743158 1.955091 2.442609
  H 2.469466 -0.695415 -1.625607
  H 5.087725 0.029985 -0.177144
  H 4.941853 -2.392763 -3.460254
  H 4.885327 -0.801533 -4.174134
