 20
 0.000000
  C 1.006771 -0.072965 0.044816
  C 2.503005 -0.082499 0.026102
  C 3.220933 -0.594489 -0.979023
  C 4.658445 -0.604365 -0.998406
  C 5.379234 -1.119297 -2.009303
  C 6.817415 -1.129526 -2.029382
  C 7.533279 -1.642092 -3.035643
  C 9.023223 -1.662902 -3.076489
  H 0.642896 0.393040 0.959658
  H 0.612046 -1.088137 0.006068
  H 0.612047 0.492571 -0.799128
  H 3.001484 0.353425 0.881897
  H 2.711407 -1.028378 -1.830810
  H 5.162101 -0.169244 -0.144195
  H 4.875032 -1.554270 -2.863228
  H 7.325823 -0.695451 -1.177221
  H 7.032405 -2.077888 -3.891166
  H 9.459285 -1.210143 -2.187654
  H 9.381284 -1.117307 -3.950993
  H 9.381284 -2.691061 -3.149350
 20
 -0.112981
  C 1.013922 0.011936 0.025061
  C 2.498053 -0.170673 0.051320
  C 3.205687 -0.711214 -0.944623
  C 4.635354 -0.806360 -0.940653
  C 5.367006 -1.226398 -1.986614
  C 6.802896 -1.234945 -2.002819
  C 7.538150 -1.616157 -3.051648
  C 9.025238 -1.601895 -3.095306
  H 0.694535 0.715890 0.788635
  H 0.511962 -0.935622 0.207658
  H 0.686315 0.374043 -0.951417
  H 3.015471 0.197022 0.927688
  H 2.697277 -1.070479 -1.830141
  H 5.138942 -0.473599 -0.039477
  H 4.868628 -1.560217 -2.885917
  H 7.295720 -0.881077 -1.104902
  H 7.046076 -1.970628 -3.949024
  H 9.442292 -1.242937 -2.157960
  H 9.372884 -0.958064 -3.903052
  H 9.407599 -2.601131 -3.290141
 20
 -0.036677
  C 1.050661 0.123911 0.019427
  C 2.508808 -0.187735 0.024412
  C 3.174915 -0.785777 -0.966176
  C 4.601867 -0.954685 -0.946954
  C 5.347491 -1.273728 -2.018427
  C 6.783740 -1.291293 -2.000093
  C 7.547106 -1.526464 -3.069623
  C 9.036066 -1.502520 -3.069487
  H 0.852912 1.043403 0.565538
  H 0.488972 -0.677603 0.503757
  H 0.676698 0.224617 -0.997454
  H 3.063708 0.149669 0.891085
  H 2.652251 -1.110376 -1.857036
  H 5.096410 -0.729718 -0.009597
  H 4.866993 -1.494243 -2.963236
  H 7.251350 -1.059662 -1.050710
  H 7.081608 -1.756272 -4.019983
  H 9.424329 -1.283915 -2.077593
  H 9.401117 -0.745592 -3.764663
  H 9.431177 -2.464102 -3.398803
 20
 1.451364
  C 1.128529 0.253388 0.024435
  C 2.539139 -0.223387 -0.023294
  C 3.115076 -0.920765 -1.002173
  C 4.531594 -1.198462 -0.982011
  C 5.308198 -1.305706 -2.070826
  C 6.741464 -1.392927 -1.999483
  C 7.550335 -1.395574 -3.060670
  C 9.037439 -1.439927 -2.992239
  H 1.085646 1.270976 0.407043
  H 0.538601 -0.377061 0.692666
  H 0.668951 0.221972 -0.961372
  H 3.163797 0.097941 0.802413
  H 2.552527 -1.227735 -1.874146
  H 4.998053 -1.209246 -0.003922
  H 4.865448 -1.278218 -3.058229
  H 7.166654 -1.423774 -1.003548
  H 7.127373 -1.362385 -4.057015
  H 9.380359 -1.505974 -1.962465
  H 9.462699 -0.544501 -3.447187
  H 9.417528 -2.298495 -3.546619
 20
 4.259771
  C 1.218131 0.365393 0.020333
  C 2.600090 -0.183083 -0.083425
  C 3.066581 -1.036754 -0.987126
  C 4.481021 -1.392149 -0.994919
  C 5.283585 -1.270157 -2.057922
  C 6.709956 -1.457655 -1.993510
  C 7.536989 -1.273008 -3.022852
  C 9.016794 -1.431575 -2.960361
  H 1.250483 1.434366 0.220562
  H 0.685959 -0.111282 0.845352
  H 0.654276 0.189945 -0.893679
  H 3.303274 0.212108 0.641747
  H 2.433515 -1.433842 -1.769919
  H 4.909431 -1.667772 -0.038271
  H 4.872159 -0.975314 -3.014918
  H 7.109604 -1.747066 -1.029215
  H 7.136923 -0.982394 -3.986260
  H 9.333648 -1.765480 -1.975224
  H 9.507434 -0.483476 -3.184037
  H 9.352435 -2.155255 -3.703522
 20
 6.237174
  C 1.280131 0.436394 -0.032450
  C 2.645993 -0.148469 -0.165607
  C 3.025757 -1.109477 -0.992841
  C 4.427990 -1.551056 -1.036607
  C 5.289509 -1.175143 -1.983217
  C 6.694457 -1.501125 -1.966568
  C 7.555740 -1.130497 -2.913095
  C 9.013816 -1.435714 -2.899901
  H 1.339352 1.520173 0.044576
  H 0.799589 0.064528 0.873720
  H 0.654818 0.172701 -0.882923
  H 3.397885 0.291457 0.480188
  H 2.327116 -1.570974 -1.680058
  H 4.771673 -2.155198 -0.204531
  H 4.943991 -0.567446 -2.810250
  H 7.043815 -2.070433 -1.113903
  H 7.203758 -0.561770 -3.764776
  H 9.278550 -2.045750 -2.039560
  H 9.591949 -0.511527 -2.865870
  H 9.298708 -1.964986 -3.809430
 20
 5.889615
  C 1.364938 0.532513 -0.073485
  C 2.709734 -0.087994 -0.257443
  C 2.992473 -1.151766 -0.992337
  C 4.363268 -1.669973 -1.104488
  C 5.297200 -1.106791 -1.872496
  C 6.669104 -1.548842 -1.941785
  C 7.572217 -1.037090 -2.776864
  C 8.998650 -1.461037 -2.847733
  H 1.444677 1.617653 -0.078308
  H 0.942247 0.234891 0.887279
  H 0.678646 0.221666 -0.858401
  H 3.518680 0.390503 0.282320
  H 2.218269 -1.673166 -1.543590
  H 4.606169 -2.535122 -0.497499
  H 5.033685 -0.256359 -2.489027
  H 6.956377 -2.334540 -1.253773
  H 7.281522 -0.253228 -3.465191
  H 9.198806 -2.279265 -2.160090
  H 9.652780 -0.624864 -2.597937
  H 9.249846 -1.780327 -3.859428
 20
 3.643535
  C 1.449497 0.670470 -0.160281
  C 2.765491 0.006177 -0.392011
  C 2.950560 -1.124455 -1.062781
  C 4.265576 -1.724680 -1.249730
  C 5.312226 -1.059776 -1.750609
  C 6.631244 -1.617938 -1.908796
  C 7.627236 -1.000228 -2.544479
  C 9.002728 -1.549795 -2.702852
  H 1.559032 1.752789 -0.182870
  H 1.057779 0.397783 0.821089
  H 0.721713 0.369957 -0.911028
  H 3.623173 0.481957 0.066805
  H 2.107565 -1.651923 -1.494198
  H 4.369548 -2.764969 -0.964124
  H 5.178899 -0.036152 -2.077370
  H 6.798616 -2.592032 -1.465488
  H 7.456576 -0.027758 -2.989308
  H 9.080853 -2.542273 -2.265485
  H 9.728006 -0.894827 -2.218553
  H 9.269607 -1.607024 -3.758419
 20
 3.389228
  C 1.514262 0.753839 -0.283147
  C 2.822848 0.088613 -0.568196
  C 2.953471 -1.174376 -0.976762
  C 4.233347 -1.787644 -1.253711
  C 5.283624 -1.108678 -1.741765
  C 6.610547 -1.639190 -1.885622
  C 7.612150 -0.979151 -2.472121
  C 9.017438 -1.465130 -2.550068
  H 1.625871 1.837856 -0.264866
  H 1.133253 0.441201 0.685900
  H 0.771216 0.487021 -1.032194
  H 3.711895 0.642238 -0.310983
  H 2.075257 -1.793188 -1.100830
  H 4.322888 -2.849073 -1.056882
  H 5.143127 -0.084732 -2.065882
  H 6.805566 -2.599223 -1.429777
  H 7.422071 -0.021374 -2.933779
  H 9.113472 -2.459426 -2.117484
  H 9.679604 -0.783787 -2.013485
  H 9.353902 -1.496597 -3.586587
 20
 4.648959
  C 1.553687 0.770974 -0.385821
  C 2.833262 0.035647 -0.617667
  C 2.951806 -1.250983 -0.945876
  C 4.250966 -1.849594 -1.170403
  C 5.257586 -1.170643 -1.744139
  C 6.626333 -1.601375 -1.808042
  C 7.573265 -0.945765 -2.483170
  C 9.017496 -1.310503 -2.489450
  H 1.710408 1.844354 -0.456847
  H 1.163976 0.554494 0.609977
  H 0.796779 0.474556 -1.109198
  H 3.735099 0.575090 -0.358191
  H 2.076277 -1.882124 -1.036702
  H 4.395571 -2.873976 -0.850965
  H 5.039949 -0.222034 -2.218297
  H 6.901598 -2.464860 -1.215117
  H 7.305112 -0.081476 -3.077838
  H 9.195039 -2.218647 -1.919039
  H 9.610051 -0.503342 -2.056733
  H 9.368842 -1.460345 -3.510672
 20
 13.980286
  C 1.830044 0.835099 -0.607526
  C 3.017831 -0.069965 -0.616723
  C 2.973039 -1.404458 -0.763092
  C 4.217633 -2.072941 -1.027622
  C 5.142377 -1.379759 -1.732218
  C 6.553093 -1.598193 -1.742020
  C 7.396757 -0.887789 -2.499564
  C 8.879401 -0.994205 -2.444930
  H 2.139463 1.869014 -0.729224
  H 1.282416 0.758856 0.337026
  H 1.140775 0.572633 -1.409804
  H 3.943340 0.360189 -0.259954
  H 2.038805 -1.950130 -0.710665
  H 4.415661 -3.069172 -0.654715
  H 4.791077 -0.618007 -2.417433
  H 6.959673 -2.309411 -1.035009
  H 7.002877 -0.166874 -3.205254
  H 9.191347 -1.780042 -1.760636
  H 9.314251 -0.047392 -2.114141
  H 9.282161 -1.207976 -3.436344
 20
 29.009651
  C 2.126473 0.809538 -0.887684
  C 3.230611 -0.165056 -0.621203
  C 3.046940 -1.513696 -0.486369
  C 4.224904 -2.227771 -0.792133
  C 5.034151 -1.497529 -1.637079
  C 6.454969 -1.512058 -1.654892
  C 7.192298 -0.798430 -2.517049
  C 8.678701 -0.717957 -2.498260
  H 2.529195 1.782496 -1.153537
  H 1.497378 0.939261 -0.002541
  H 1.486318 0.455680 -1.694355
  H 4.138752 0.260679 -0.226292
  H 2.087389 -1.953022 -0.250638
  H 4.514330 -3.181386 -0.376161
  H 4.570841 -0.989338 -2.471104
  H 6.956769 -2.075235 -0.877108
  H 6.698246 -0.218046 -3.286694
  H 9.097246 -1.375483 -1.740462
  H 9.001103 0.304052 -2.291681
  H 9.084876 -0.995302 -3.470545
 20
 38.304664
  C 2.427118 0.691307 -1.188112
  C 3.459645 -0.240109 -0.629487
  C 3.152508 -1.545060 -0.169861
  C 4.253686 -2.285528 -0.496732
  C 4.911574 -1.513023 -1.497475
  C 6.340581 -1.369637 -1.582019
  C 6.975274 -0.701882 -2.550600
  C 8.448765 -0.496810 -2.615240
  H 2.886667 1.578216 -1.618057
  H 1.753371 1.011947 -0.390620
  H 1.824236 0.200265 -1.950510
  H 4.338223 0.247108 -0.237564
  H 2.195246 -1.858664 0.215957
  H 4.642682 -3.186229 -0.050671
  H 4.366040 -1.260886 -2.394609
  H 6.912851 -1.793378 -0.765141
  H 6.402130 -0.258151 -3.355425
  H 8.953354 -1.027072 -1.811108
  H 8.686449 0.565191 -2.537317
  H 8.839390 -0.847723 -3.570636
 20
 18.391605
  C 2.755365 0.508181 -1.491875
  C 3.734844 -0.281376 -0.659670
  C 3.281746 -1.433427 0.160803
  C 4.268133 -2.253957 -0.205345
  C 4.748209 -1.429855 -1.349208
  C 6.201099 -1.185075 -1.532345
  C 6.744532 -0.641464 -2.612752
  C 8.199431 -0.365874 -2.785164
  H 3.260192 1.279175 -2.069558
  H 2.031517 0.989352 -0.835784
  H 2.209630 -0.141666 -2.174362
  H 4.521114 0.339329 -0.232839
  H 2.355943 -1.578479 0.688895
  H 4.714443 -3.122050 0.246569
  H 4.197649 -1.544716 -2.281977
  H 6.824935 -1.452009 -0.688477
  H 6.113139 -0.361204 -3.446917
  H 8.769704 -0.734458 -1.936485
  H 8.370026 0.706415 -2.882405
  H 8.570682 -0.839639 -3.693256
 20
 4.997881
  C 2.627320 0.358401 -1.533473
  C 3.833597 -0.128603 -0.748106
  C 3.569745 -1.134863 0.341765
  C 4.301147 -2.089718 -0.218981
  C 4.692571 -1.258019 -1.421320
  C 6.141550 -0.958098 -1.580337
  C 6.758736 -0.853682 -2.747607
  C 8.203415 -0.522546 -2.918885
  H 2.936114 1.034704 -2.330499
  H 1.940793 0.889849 -0.873872
  H 2.094601 -0.483421 -1.975161
  H 4.443484 0.720317 -0.426203
  H 2.979620 -1.065278 1.238552
  H 4.566956 -3.096714 0.053293
  H 4.266383 -1.608294 -2.364980
  H 6.689682 -0.799439 -0.659541
  H 6.206240 -1.012663 -3.664732
  H 8.704682 -0.455595 -1.956973
  H 8.311150 0.429129 -3.435500
  H 8.697903 -1.282179 -3.523441
