 23
 0.000000
  C 1.001391 0.144950 0.411574
  C 2.476872 0.137115 0.391776
  C 3.241761 0.606812 1.560680
  H 2.624311 0.938152 2.385822
  C 3.085150 -0.328938 -0.768384
  C 4.460578 -0.414759 -0.982434
  C 5.131365 -0.868610 -2.114069
  C 4.622084 -1.389535 -3.412510
  C 3.131375 -1.502143 -3.693725
  H 2.988046 -1.902357 -4.691291
  O 6.451953 -0.868750 -2.114844
  H 0.595168 0.520217 1.345896
  H 0.618622 -0.863134 0.247534
  H 0.618365 0.759432 -0.404144
  H 3.895557 1.429178 1.263088
  H 3.895863 -0.192624 1.914642
  H 2.421373 -0.644612 -1.554160
  H 5.090886 -0.086315 -0.164306
  H 5.079557 -2.377249 -3.539560
  H 5.079866 -0.763794 -4.187050
  H 2.650901 -0.527894 -3.652630
  H 2.650627 -2.177688 -2.990712
  H 6.850163 -0.537466 -1.288087
 23
 26.767882
  C 1.130023 0.111664 0.333152
  C 2.664918 0.063930 0.319585
  C 3.203388 0.699282 1.536016
  H 2.432378 0.987246 2.231252
  C 3.118840 -0.650812 -0.749275
  C 4.524045 -0.489693 -0.802189
  C 5.061143 -0.872159 -2.006267
  C 4.513528 -1.312082 -3.317656
  C 3.033892 -1.393068 -3.699078
  H 2.985765 -1.695563 -4.741764
  O 6.392299 -0.902005 -2.161928
  H 0.713914 0.612393 1.192999
  H 0.812315 -0.925025 0.232529
  H 0.836465 0.634172 -0.579853
  H 3.782439 1.591126 1.270941
  H 3.920949 0.043356 2.032391
  H 2.511809 -1.158049 -1.453354
  H 5.145092 -0.130424 -0.006625
  H 4.967354 -2.289813 -3.513948
  H 4.997343 -0.645237 -4.042906
  H 2.533192 -0.431102 -3.602225
  H 2.483655 -2.135805 -3.124799
  H 6.897898 -0.621195 -1.381068
 23
 57.597616
  C 1.215737 0.040833 0.157929
  C 2.817593 -0.021558 0.261144
  C 3.162954 0.813100 1.433969
  H 2.296341 1.043380 2.045708
  C 3.202394 -1.032102 -0.571079
  C 4.595965 -0.633465 -0.732160
  C 5.059904 -0.911251 -1.993564
  C 4.460234 -1.272167 -3.320675
  C 2.980410 -1.196687 -3.613050
  H 2.819662 -1.369056 -4.676016
  O 6.391693 -0.916594 -2.215598
  H 0.804331 0.662355 0.935922
  H 0.893345 -0.980911 0.268526
  H 0.980283 0.493559 -0.808377
  H 3.597705 1.755943 1.131208
  H 3.822692 0.261185 2.099748
  H 2.652308 -1.756231 -1.083751
  H 5.222270 -0.258001 0.047036
  H 4.840935 -2.268199 -3.564718
  H 4.939985 -0.547664 -3.987067
  H 2.602162 -0.211609 -3.375438
  H 2.390614 -1.918663 -3.050565
  H 6.928028 -0.689337 -1.434979
 23
 71.986480
  C 1.349613 -0.071571 -0.122932
  C 2.975112 -0.124496 0.168733
  C 3.130613 0.901005 1.240937
  H 2.210014 1.154736 1.727976
  C 3.258043 -1.342516 -0.337753
  C 4.590853 -0.849517 -0.676614
  C 5.080492 -0.903134 -1.958870
  C 4.368649 -1.112696 -3.262751
  C 2.873789 -0.961197 -3.329258
  H 2.572394 -1.022746 -4.369723
  O 6.400533 -0.925759 -2.146851
  H 0.870030 0.637328 0.534262
  H 1.011857 -1.089299 0.053511
  H 1.286534 0.230587 -1.158638
  H 3.554408 1.827946 0.833382
  H 3.839322 0.535633 1.997559
  H 2.707541 -2.187032 -0.682440
  H 5.286940 -0.611301 0.118578
  H 4.701209 -2.070952 -3.669699
  H 4.809596 -0.364486 -3.927523
  H 2.549587 -0.002544 -2.955097
  H 2.328693 -1.759793 -2.813285
  H 6.939250 -0.808462 -1.344279
 23
 92.514063
  C 1.068789 -0.205076 -0.220798
  C 3.178008 -0.284611 0.055141
  C 3.306977 0.959376 0.821912
  H 2.405077 1.220168 1.328398
  C 3.296364 -1.555794 -0.114799
  C 4.608080 -1.032176 -0.571922
  C 5.075843 -0.959780 -1.877014
  C 4.347803 -0.978779 -3.139809
  C 2.837439 -0.731443 -3.129026
  H 2.481657 -0.723942 -4.155988
  O 6.384869 -0.906070 -2.088956
  H 0.736058 0.660026 0.344234
  H 0.847434 -1.150001 0.209085
  H 1.018430 -0.114963 -1.274360
  H 3.601057 1.784928 0.164457
  H 4.089800 0.836748 1.574083
  H 2.777623 -2.454329 -0.307309
  H 5.392626 -1.019526 0.215315
  H 4.564919 -1.947063 -3.608011
  H 4.853576 -0.215488 -3.778264
  H 2.604577 0.233568 -2.699118
  H 2.310447 -1.511919 -2.601247
  H 6.933705 -0.789215 -1.284437
 23
 94.921555
  C 0.601804 -0.200836 -0.165297
  C 3.417393 -0.303023 0.027168
  C 3.396844 0.947919 0.739260
  H 2.419146 1.123775 1.178422
  C 3.385734 -1.570255 -0.169826
  C 4.740071 -0.995779 -0.557277
  C 5.195416 -0.931856 -1.890107
  C 4.389170 -0.969234 -3.128085
  C 2.902755 -0.638718 -3.044650
  H 2.496177 -0.589543 -4.068540
  O 6.467507 -0.909543 -2.138041
  H 0.251290 0.643248 0.388609
  H 0.517290 -1.154473 0.299560
  H 0.655367 -0.119745 -1.231523
  H 3.643213 1.786503 0.069326
  H 4.139680 0.910899 1.516195
  H 2.871701 -2.471185 -0.369963
  H 5.540506 -1.049232 0.187012
  H 4.535515 -1.958555 -3.563855
  H 4.872390 -0.267514 -3.809874
  H 2.745656 0.318405 -2.588074
  H 2.334202 -1.399512 -2.507955
  H 7.059520 -0.898376 -1.365788
