20

C      2.059425   -0.374870    0.933752
H      3.351836    0.441341    0.993454
C      0.903103    0.399780    0.276378
C     -0.395983   -0.316792    0.410160
C     -2.249880    1.659120   -0.801593
H     -3.654913    1.334529   -0.425521
C     -0.550408   -1.603642   -0.320921
C     -1.992326   -2.109148   -0.354927
H     -2.492805   -2.168395    0.963841
H      1.770706   -0.644193    1.952242
H      2.244374   -1.295055    0.377696
H      1.128575    0.564721   -0.778440
H      0.825463    1.375293    0.762955
H     -0.759961   -0.366591    1.428390
H     -1.879506    2.570036   -0.347101
H     -2.030768    1.617963   -1.858316
H      0.053808   -2.359697    0.198105
H     -0.182706   -1.514519   -1.345456
H     -2.601911   -1.431836   -0.968333
H     -2.013894   -3.106766   -0.818189
