 22
 0.000000
  C 0.998446 0.128302 0.372021
  C 2.466513 0.141366 0.403676
  C 3.226053 0.612415 1.574592
  C 2.444240 1.099724 2.787320
  C 3.390329 1.546186 3.898247
  C 3.131908 -0.317501 -0.738021
  C 4.528473 -0.390652 -0.922131
  C 5.062166 -0.855381 -2.080236
  H 4.435965 -1.181948 -2.892629
  H 6.127153 -0.914158 -2.227814
  H 0.541475 0.494495 1.282487
  H 0.641688 -0.885287 0.169648
  H 0.641476 0.719653 -0.475557
  H 3.901582 1.414191 1.246086
  H 3.901921 -0.193328 1.892313
  H 1.805874 0.301417 3.171623
  H 1.805765 1.941945 2.512430
  H 4.026503 0.726786 4.224380
  H 2.825004 1.892188 4.759583
  H 4.026430 2.363562 3.566648
  H 2.521137 -0.651494 -1.568248
  H 5.190398 -0.072128 -0.129667
 22
 10.763802
  C 0.897616 0.128749 0.373199
  C 2.492882 0.142320 0.406065
  C 3.245622 0.611803 1.573065
  C 2.460221 1.097739 2.782371
  C 3.401410 1.545555 3.896640
  C 3.146384 -0.314679 -0.730969
  C 4.541517 -0.390198 -0.920998
  C 5.066900 -0.855077 -2.079478
  H 4.438970 -1.181011 -2.890305
  H 6.262903 -0.922782 -2.249474
  H 0.446991 0.495147 1.284218
  H 0.545393 -0.883209 0.172974
  H 0.545183 0.720438 -0.471722
  H 3.921038 1.413890 1.246008
  H 3.921408 -0.193161 1.892059
  H 1.821559 0.298720 3.163857
  H 1.821442 1.938509 2.504951
  H 4.037636 0.727084 4.225242
  H 2.832291 1.890705 4.755850
  H 4.037518 2.363942 3.567467
  H 2.530754 -0.647325 -1.557857
  H 5.207512 -0.072934 -0.131678
 22
 33.719315
  C 0.828610 0.132593 0.382656
  C 2.540621 0.145642 0.414250
  C 3.269500 0.613664 1.577591
  C 2.467047 1.094678 2.774785
  C 3.386834 1.548714 3.904554
  C 3.159857 -0.311032 -0.721830
  C 4.555149 -0.396080 -0.935679
  C 5.049728 -0.863387 -2.099981
  H 4.416600 -1.186921 -2.904461
  H 6.384538 -0.946419 -2.308689
  H 0.401168 0.500735 1.298106
  H 0.495205 -0.878412 0.189902
  H 0.494982 0.728796 -0.456250
  H 3.945656 1.418931 1.257515
  H 3.946076 -0.188749 1.903806
  H 1.826653 0.291967 3.144439
  H 1.826481 1.929893 2.486353
  H 4.023043 0.734651 4.244060
  H 2.801222 1.889921 4.754099
  H 4.022824 2.371487 3.586356
  H 2.526029 -0.639313 -1.537665
  H 5.237534 -0.083447 -0.158175
 22
 60.480006
  C 0.748147 0.134420 0.387064
  C 2.575631 0.148406 0.421142
  C 3.290306 0.621557 1.597195
  C 2.473319 1.099523 2.786962
  C 3.374362 1.558629 3.929222
  C 3.176582 -0.316533 -0.735366
  C 4.571961 -0.409094 -0.967889
  C 5.044624 -0.880263 -2.141880
  H 4.412177 -1.203913 -2.946730
  H 6.519981 -0.977017 -2.385245
  H 0.340127 0.506179 1.311492
  H 0.434508 -0.885097 0.199467
  H 0.434361 0.740318 -0.454012
  H 3.968318 1.430001 1.283916
  H 3.968820 -0.178390 1.930499
  H 1.831037 0.293410 3.146980
  H 1.830734 1.930466 2.489294
  H 4.010400 0.748489 4.277999
  H 2.774861 1.896386 4.770361
  H 4.010047 2.385129 3.620406
  H 2.529758 -0.641208 -1.542192
  H 5.265601 -0.099949 -0.199056
 22
 86.134547
  C 0.730717 0.128159 0.371130
  C 2.604397 0.148896 0.422413
  C 3.291967 0.630894 1.620589
  C 2.468335 1.108278 2.809077
  C 3.355691 1.570604 3.958962
  C 3.149680 -0.323746 -0.753263
  C 4.528035 -0.422527 -1.001402
  C 4.965008 -0.891992 -2.170832
  H 4.387363 -1.228906 -3.008761
  H 6.654225 -0.995155 -2.430280
  H 0.378914 0.507192 1.313587
  H 0.500375 -0.916957 0.191492
  H 0.500338 0.757996 -0.481890
  H 3.982749 1.434955 1.318463
  H 3.983609 -0.158117 1.958969
  H 1.822893 0.298755 3.160967
  H 1.822208 1.935972 2.503296
  H 3.992475 0.764123 4.314854
  H 2.745653 1.905522 4.793434
  H 3.991847 2.399716 3.657730
  H 2.484741 -0.641312 -1.542509
  H 5.223876 -0.116298 -0.239939
 22
 102.952708
  C 0.842605 0.132502 0.421491
  C 2.450422 0.202660 0.385643
  C 3.213195 0.664251 1.552708
  C 2.449446 1.092430 2.801005
  C 3.401825 1.536161 3.907991
  C 3.004081 -0.242305 -0.782756
  C 4.415419 -0.401573 -0.990719
  C 4.880714 -0.892314 -2.115911
  H 4.481939 -1.256915 -3.032411
  H 7.105722 -1.103236 -2.218633
  H 0.488391 0.477522 1.371978
  H 0.585977 -0.900980 0.243230
  H 0.499566 0.755940 -0.390711
  H 3.863441 1.491762 1.233607
  H 3.932593 -0.120702 1.828874
  H 1.837066 0.263614 3.169107
  H 1.771508 1.917734 2.561846
  H 4.072258 0.728814 4.197736
  H 2.840251 1.835823 4.790251
  H 4.004746 2.385908 3.591888
  H 2.353054 -0.556046 -1.584455
  H 5.080991 -0.119177 -0.186248
 22
 109.402115
  C 0.838210 0.158643 0.435106
  C 2.376438 0.167504 0.371633
  C 3.194403 0.626801 1.534143
  C 2.465064 1.090627 2.790962
  C 3.461539 1.518204 3.857956
  C 2.900459 -0.290402 -0.776392
  C 4.343718 -0.445306 -0.981332
  C 4.845073 -0.881054 -2.079650
  H 4.617701 -1.266801 -3.050781
  H 7.412868 -0.899951 -2.059131
  H 0.497966 0.527762 1.393104
  H 0.506565 -0.860519 0.271974
  H 0.474637 0.782397 -0.374272
  H 3.848304 1.440803 1.197720
  H 3.881544 -0.180224 1.817191
  H 1.851716 0.282985 3.194011
  H 1.816528 1.937806 2.561470
  H 4.112370 0.694574 4.134417
  H 2.939935 1.847675 4.750229
  H 4.078281 2.339529 3.506864
  H 2.262092 -0.586372 -1.591541
  H 4.956518 -0.148788 -0.142627
 22
 111.995899
  C 0.820601 0.176892 0.445628
  C 2.340320 0.140289 0.372943
  C 3.185783 0.596935 1.524865
  C 2.479440 1.092193 2.786534
  C 3.501603 1.510109 3.837486
  C 2.858246 -0.327494 -0.768978
  C 4.308134 -0.460409 -0.995420
  C 4.822434 -0.883296 -2.086346
  H 4.714856 -1.274866 -3.071299
  H 7.663936 -0.780116 -1.963523
  H 0.485681 0.562833 1.400027
  H 0.433161 -0.828161 0.314069
  H 0.437681 0.806462 -0.350398
  H 3.845968 1.397504 1.170395
  H 3.852469 -0.224282 1.812077
  H 1.857728 0.304066 3.208784
  H 1.852766 1.953297 2.557788
  H 4.137064 0.675102 4.114621
  H 3.000179 1.861722 4.733104
  H 4.131614 2.313065 3.468482
  H 2.220155 -0.622660 -1.589418
  H 4.905122 -0.136636 -0.147739
 22
 112.567043
  C 0.826686 0.199626 0.476507
  C 2.325844 0.130369 0.383544
  C 3.193967 0.579604 1.517338
  C 2.497662 1.090851 2.776428
  C 3.517670 1.503335 3.822081
  C 2.817473 -0.351897 -0.768148
  C 4.255411 -0.475580 -1.031992
  C 4.776052 -0.897485 -2.112525
  H 4.819440 -1.297761 -3.102538
  H 7.882661 -0.672849 -1.862877
  H 0.519975 0.601417 1.432940
  H 0.413154 -0.796720 0.369713
  H 0.444627 0.839285 -0.309353
  H 3.857017 1.380189 1.147769
  H 3.845056 -0.259237 1.808446
  H 1.866100 0.312392 3.197090
  H 1.879710 1.952863 2.538130
  H 4.141411 0.668109 4.105875
  H 3.018486 1.863907 4.709913
  H 4.153939 2.294404 3.451982
  H 2.167301 -0.652966 -1.573280
  H 4.855333 -0.135580 -0.179661
 22
 112.164483
  C 0.797185 0.212510 0.491543
  C 2.284517 0.117347 0.377386
  C 3.187910 0.559978 1.489302
  C 2.531468 1.090399 2.765637
  C 3.593141 1.491234 3.792349
  C 2.743341 -0.374144 -0.775656
  C 4.190303 -0.488964 -1.069309
  C 4.754525 -0.904658 -2.111962
  H 4.980055 -1.297702 -3.071549
  H 8.088500 -0.516553 -1.608500
  H 0.522134 0.630641 1.455988
  H 0.364227 -0.781467 0.412503
  H 0.416187 0.864330 -0.290532
  H 3.840840 1.350416 1.099135
  H 3.819134 -0.289951 1.768786
  H 1.895756 0.325995 3.200368
  H 1.922950 1.959484 2.536022
  H 4.211994 0.641040 4.065851
  H 3.120648 1.866276 4.697835
  H 4.237396 2.274472 3.401843
  H 2.073785 -0.682861 -1.580209
  H 4.777319 -0.124279 -0.206264
 22
 111.177551
  C 0.782735 0.220700 0.538098
  C 2.256656 0.129467 0.372878
  C 3.194659 0.566964 1.458287
  C 2.576237 1.086240 2.751368
  C 3.655181 1.476036 3.740386
  C 2.698881 -0.363451 -0.795005
  C 4.114661 -0.497790 -1.117647
  C 4.739711 -0.916343 -2.122762
  H 5.119652 -1.297219 -3.026638
  H 8.268340 -0.413279 -1.277081
  H 0.532484 0.631997 1.498317
  H 0.338247 -0.773028 0.470394
  H 0.363478 0.870640 -0.232386
  H 3.828996 1.366238 1.056345
  H 3.833333 -0.287589 1.718814
  H 1.953442 0.314284 3.198573
  H 1.962682 1.960644 2.542644
  H 4.277236 0.630515 3.988177
  H 3.211330 1.840019 4.654374
  H 4.282249 2.258578 3.341137
  H 2.032659 -0.668178 -1.572452
  H 4.692860 -0.130838 -0.258270
 22
 111.132634
  C 0.752432 0.253383 0.560082
  C 2.246152 0.129112 0.366360
  C 3.206783 0.536421 1.443363
  C 2.614426 1.060636 2.753286
  C 3.723525 1.438937 3.729825
  C 2.671837 -0.345874 -0.810638
  C 4.086813 -0.509484 -1.123599
  C 4.756563 -0.910858 -2.108030
  H 5.205768 -1.334814 -2.979367
  H 8.445686 -0.168153 -1.133134
  H 0.565201 0.689993 1.529256
  H 0.266761 -0.718572 0.486228
  H 0.349710 0.913473 -0.211620
  H 3.847824 1.334385 1.049011
  H 3.818993 -0.340641 1.685980
  H 1.967392 0.302175 3.200543
  H 2.009201 1.946498 2.554330
  H 4.325084 0.568355 3.985069
  H 3.292113 1.815420 4.655166
  H 4.344154 2.224074 3.312890
  H 2.016052 -0.639401 -1.614985
  H 4.651501 -0.145621 -0.242852
 22
 109.761742
  C 0.745260 0.268853 0.584416
  C 2.211562 0.144705 0.373480
  C 3.194286 0.539465 1.405543
  C 2.660097 1.066959 2.731942
  C 3.811533 1.422502 3.667743
  C 2.636183 -0.338694 -0.797515
  C 4.042030 -0.521436 -1.130419
  C 4.749187 -0.920970 -2.083257
  H 5.325193 -1.325122 -2.877814
  H 8.600327 -0.002258 -0.766189
  H 0.496464 0.692609 1.550541
  H 0.278457 -0.704272 0.510158
  H 0.309711 0.892323 -0.185582
  H 3.833993 1.325484 0.989965
  H 3.813587 -0.333146 1.640759
  H 2.035178 0.313796 3.213161
  H 2.060792 1.963389 2.566167
  H 4.424509 0.550346 3.884966
  H 3.425624 1.800199 4.611287
  H 4.445227 2.194819 3.233160
  H 1.949721 -0.629511 -1.579710
  H 4.630961 -0.159608 -0.255937
 22
 108.822387
  C 0.737559 0.348172 0.573364
  C 2.192256 0.150466 0.347782
  C 3.208595 0.559282 1.375432
  C 2.682103 1.148048 2.684784
  C 3.839885 1.496188 3.615747
  C 2.590801 -0.410544 -0.810417
  C 3.962520 -0.670155 -1.144285
  C 4.733669 -1.128040 -2.020280
  H 5.456508 -1.492734 -2.725049
  H 8.512818 -0.128504 -0.395909
  H 0.525379 0.839703 1.516490
  H 0.225051 -0.611564 0.563062
  H 0.308149 0.942588 -0.229302
  H 3.868655 1.308776 0.927301
  H 3.806521 -0.319890 1.638693
  H 2.034564 0.427229 3.187382
  H 2.110161 2.056762 2.485704
  H 4.423652 0.612562 3.861932
  H 3.461741 1.914965 4.544808
  H 4.500422 2.233108 3.161705
  H 1.880793 -0.703633 -1.565269
  H 4.618077 -0.332355 -0.306808
 22
 108.594315
  C 0.719510 0.352180 0.579947
  C 2.175383 0.157431 0.348383
  C 3.196042 0.577475 1.365880
  C 2.678961 1.141008 2.688354
  C 3.843981 1.492107 3.609523
  C 2.566550 -0.410388 -0.810642
  C 3.919467 -0.670582 -1.162273
  C 4.743392 -1.107122 -2.002847
  H 5.491703 -1.459121 -2.669539
  H 8.645299 -0.181425 -0.378638
  H 0.509145 0.873632 1.507536
  H 0.219399 -0.614197 0.608212
  H 0.279156 0.911713 -0.242380
  H 3.835106 1.345564 0.914306
  H 3.819050 -0.291169 1.610445
  H 2.044424 0.406427 3.189232
  H 2.092817 2.045221 2.510554
  H 4.441826 0.612536 3.836117
  H 3.474372 1.896129 4.548760
  H 4.489516 2.240484 3.154066
  H 1.846605 -0.707589 -1.561549
  H 4.648179 -0.369884 -0.356587
