 29
 0.000000
  C 0.967587 0.141027 0.404036
  C 2.443508 0.138589 0.396680
  C 3.233315 0.606889 1.560836
  C 2.460444 1.097119 2.780895
  H 3.137885 1.410929 3.561006
  C 3.056402 -0.326589 -0.761066
  C 4.433768 -0.411762 -0.973822
  C 5.114680 -0.862348 -2.097327
  C 4.623023 -1.385182 -3.401468
  C 3.133200 -1.504093 -3.699412
  C 2.914827 -2.066176 -5.101470
  O 6.436919 -0.856368 -2.082273
  H 0.536829 0.511902 1.326800
  H 0.594922 -0.870545 0.238211
  H 0.594254 0.756010 -0.415772
  H 3.889289 1.417579 1.224597
  H 3.889852 -0.210543 1.879161
  H 1.824868 0.303446 3.172198
  H 1.824381 1.940474 2.514126
  H 2.397326 -0.644068 -1.550819
  H 5.051427 -0.079921 -0.147450
  H 5.080570 -2.373214 -3.526221
  H 5.081204 -0.757429 -4.174236
  H 2.657017 -0.524202 -3.647368
  H 2.656382 -2.176277 -2.984953
  H 3.355339 -1.418324 -5.855808
  H 1.850809 -2.148810 -5.308605
  H 3.354735 -3.056001 -5.199181
  H 6.809577 -0.521403 -1.245229
 29
 12.794932
  C 0.923917 0.172100 0.481093
  C 2.391117 0.173928 0.484821
  C 3.191652 0.635705 1.632914
  C 2.430183 1.128125 2.858211
  H 3.124315 1.439034 3.631310
  C 3.063582 -0.334225 -0.779735
  C 4.421112 -0.408558 -0.965488
  C 5.172149 -0.900468 -2.192412
  C 4.667980 -1.418628 -3.484918
  C 3.172502 -1.527672 -3.757935
  C 2.931560 -2.088508 -5.157004
  O 6.481925 -0.887128 -2.159589
  H 0.490216 0.542439 1.402297
  H 0.554339 -0.840306 0.309479
  H 0.553911 0.783733 -0.343533
  H 3.849503 1.442558 1.288772
  H 3.849901 -0.184519 1.942930
  H 1.797980 0.339697 3.261196
  H 1.797686 1.975917 2.603464
  H 2.404683 -0.650625 -1.566967
  H 5.040551 -0.078536 -0.143612
  H 5.120869 -2.408557 -3.615011
  H 5.121367 -0.793089 -4.262846
  H 2.704128 -0.544748 -3.697652
  H 2.703646 -2.196506 -3.035435
  H 3.365727 -1.443082 -5.916964
  H 1.864752 -2.165797 -5.350582
  H 3.365287 -3.080364 -5.260561
  H 6.850944 -0.551146 -1.320084
 29
 39.838958
  C 0.873829 0.192791 0.531468
  C 2.328476 0.203698 0.558406
  C 3.165980 0.650255 1.669513
  C 2.429894 1.147148 2.906538
  H 3.154054 1.452739 3.667385
  C 3.052370 -0.346923 -0.812131
  C 4.394112 -0.400927 -0.946876
  C 5.227217 -0.933653 -2.275501
  C 4.708924 -1.442351 -3.543917
  C 3.211193 -1.539413 -3.786251
  C 2.946588 -2.098357 -5.180856
  O 6.498218 -0.899370 -2.191280
  H 0.431932 0.561764 1.449709
  H 0.511328 -0.817715 0.344021
  H 0.511249 0.792621 -0.303075
  H 3.822883 1.448229 1.308330
  H 3.822932 -0.175603 1.960743
  H 1.804505 0.367146 3.328916
  H 1.804446 2.002580 2.672029
  H 2.376026 -0.655267 -1.579685
  H 5.031230 -0.078688 -0.144310
  H 5.153389 -2.434216 -3.688019
  H 5.153465 -0.825067 -4.333409
  H 2.759667 -0.550008 -3.714532
  H 2.759399 -2.205324 -3.051000
  H 3.374852 -1.455541 -5.946052
  H 1.877715 -2.170491 -5.361276
  H 3.374659 -3.091811 -5.290269
  H 6.843208 -0.561856 -1.348525
 29
 71.267553
  C 0.824306 0.212436 0.579178
  C 2.274658 0.232478 0.629497
  C 3.138939 0.670330 1.720017
  C 2.415041 1.171460 2.968226
  H 3.139649 1.469865 3.712111
  C 3.053322 -0.358970 -0.843085
  C 4.367906 -0.393524 -0.929208
  C 5.292541 -0.965949 -2.356659
  C 4.764584 -1.472987 -3.620339
  C 3.254599 -1.556033 -3.827086
  C 2.937293 -2.111489 -5.212519
  O 6.574316 -0.912816 -2.225796
  H 0.379148 0.581586 1.498265
  H 0.463270 -0.803224 0.388142
  H 0.463555 0.814006 -0.261274
  H 3.803235 1.462813 1.349267
  H 3.803024 -0.158776 2.000286
  H 1.789393 0.391654 3.399526
  H 1.789700 2.033264 2.740694
  H 2.352879 -0.660140 -1.593124
  H 5.029292 -0.078108 -0.143545
  H 5.202985 -2.471195 -3.765140
  H 5.202885 -0.851727 -4.415052
  H 2.811447 -0.564768 -3.736087
  H 2.811462 -2.209736 -3.076408
  H 3.348704 -1.473536 -5.991720
  H 1.861716 -2.170250 -5.359160
  H 3.348669 -3.111009 -5.335256
  H 6.902038 -0.570719 -1.372117
 29
 103.148582
  C 0.766888 0.245852 0.661362
  C 2.214538 0.270235 0.722937
  C 3.102435 0.699159 1.792402
  C 2.397750 1.203031 3.048192
  H 3.140932 1.500131 3.789744
  C 3.039094 -0.363429 -0.855572
  C 4.341087 -0.388180 -0.917001
  C 5.346259 -1.002860 -2.449361
  C 4.812567 -1.508165 -3.708168
  C 3.304645 -1.583449 -3.895120
  C 2.963888 -2.136714 -5.274234
  O 6.613845 -0.939277 -2.292426
  H 0.321470 0.614814 1.580597
  H 0.407290 -0.767295 0.468979
  H 0.407765 0.845228 -0.178046
  H 3.767205 1.484805 1.412586
  H 3.766601 -0.131579 2.060950
  H 1.775149 0.427966 3.485692
  H 1.775719 2.066026 2.828834
  H 2.321792 -0.656703 -1.586330
  H 5.019544 -0.079995 -0.149190
  H 5.245709 -2.506558 -3.855130
  H 5.245451 -0.888519 -4.504737
  H 2.867180 -0.589981 -3.794472
  H 2.867369 -2.231905 -3.135603
  H 3.367308 -1.501434 -6.059133
  H 1.886686 -2.189347 -5.405172
  H 3.367465 -3.138241 -5.402603
  H 6.928305 -0.595619 -1.435103
 29
 130.563065
  C 0.720968 0.258086 0.681397
  C 2.159837 0.298103 0.786887
  C 3.075869 0.710951 1.826398
  C 2.385172 1.215599 3.091304
  H 3.142867 1.506751 3.825972
  C 3.027586 -0.364879 -0.871947
  C 4.308782 -0.368640 -0.879203
  C 5.416796 -1.033567 -2.532360
  C 4.865747 -1.536785 -3.780611
  C 3.351392 -1.588978 -3.906253
  C 2.949956 -2.138743 -5.268790
  O 6.683940 -0.957478 -2.345004
  H 0.255209 0.622345 1.593411
  H 0.371007 -0.757357 0.482232
  H 0.373350 0.858892 -0.162087
  H 3.736428 1.496640 1.437677
  H 3.733747 -0.128984 2.084871
  H 1.767483 0.440822 3.534651
  H 1.770253 2.084850 2.880345
  H 2.286168 -0.644807 -1.572538
  H 5.019933 -0.075147 -0.146767
  H 5.282259 -2.540180 -3.936534
  H 5.281053 -0.921864 -4.589221
  H 2.936303 -0.587779 -3.788805
  H 2.937998 -2.229576 -3.126817
  H 3.330940 -1.510500 -6.069779
  H 1.868299 -2.175639 -5.357412
  H 3.332655 -3.146202 -5.410325
  H 6.986217 -0.608589 -1.476339
 29
 152.934200
  C 0.688725 0.272358 0.749148
  C 2.114324 0.332668 0.883481
  C 3.048161 0.746812 1.900305
  C 2.359207 1.256904 3.170247
  H 3.103684 1.548054 3.884089
  C 3.000456 -0.353378 -0.825601
  C 4.254311 -0.343443 -0.806227
  C 5.465582 -1.075334 -2.621335
  C 4.917523 -1.573733 -3.866959
  C 3.394598 -1.611773 -3.977691
  C 2.968827 -2.156721 -5.337550
  O 6.725805 -1.010556 -2.445826
  H 0.209060 0.637181 1.658291
  H 0.348000 -0.752211 0.555194
  H 0.341065 0.872948 -0.100456
  H 3.705112 1.535274 1.504805
  H 3.711143 -0.091288 2.161093
  H 1.743205 0.477787 3.619519
  H 1.736683 2.125438 2.954293
  H 2.230081 -0.629465 -1.505042
  H 5.004964 -0.061821 -0.109340
  H 5.326515 -2.581795 -4.029109
  H 5.333701 -0.962408 -4.681198
  H 2.994322 -0.605835 -3.854227
  H 2.987532 -2.249319 -3.193490
  H 3.347491 -1.531067 -6.143609
  H 1.884660 -2.182807 -5.413685
  H 3.340615 -3.168925 -5.485160
  H 7.033057 -0.663392 -1.575718
 29
 165.018344
  C 0.654054 0.315763 0.798328
  C 2.071622 0.374183 0.962571
  C 2.971164 0.777063 2.002172
  C 2.292258 1.283252 3.290119
  H 3.053443 1.563557 4.015915
  C 3.017043 -0.307703 -0.763783
  C 4.247584 -0.295047 -0.724923
  C 5.538653 -1.109536 -2.734195
  C 4.976684 -1.622222 -3.991866
  C 3.451738 -1.648890 -4.047009
  C 2.965639 -2.196037 -5.386273
  O 6.808478 -1.058624 -2.615329
  H 0.126714 0.668777 1.692587
  H 0.333118 -0.706562 0.581176
  H 0.339984 0.920234 -0.056851
  H 3.637290 1.558533 1.616193
  H 3.630674 -0.063728 2.250108
  H 1.673386 0.509009 3.730885
  H 1.680550 2.155838 3.087397
  H 2.235723 -0.574378 -1.436375
  H 5.031655 -0.031291 -0.060150
  H 5.378280 -2.630427 -4.161452
  H 5.373874 -1.016796 -4.817745
  H 3.064228 -0.639158 -3.910810
  H 3.068969 -2.277834 -3.243281
  H 3.318149 -1.577880 -6.209821
  H 1.878479 -2.212571 -5.419127
  H 3.322839 -3.212021 -5.543966
  H 7.131220 -0.713798 -1.762845
 29
 168.366602
  C 0.659909 0.301148 0.851111
  C 2.058808 0.374015 1.025393
  C 2.863257 0.823783 2.099255
  C 2.152041 1.352498 3.353043
  H 2.891954 1.663594 4.091909
  C 3.095866 -0.315815 -0.636123
  C 4.326794 -0.280586 -0.574472
  C 5.644202 -1.177354 -2.865711
  C 5.022901 -1.670839 -4.120122
  C 3.499226 -1.649677 -4.083666
  C 2.908721 -2.166363 -5.391406
  O 6.943656 -1.168930 -2.862213
  H 0.070562 0.656195 1.702730
  H 0.387798 -0.730081 0.625756
  H 0.387487 0.866442 -0.040187
  H 3.529591 1.592911 1.696419
  H 3.528236 -0.002617 2.367332
  H 1.531854 0.582989 3.799482
  H 1.532581 2.209762 3.113818
  H 2.311100 -0.587699 -1.294196
  H 5.157604 -0.033754 0.032847
  H 5.386943 -2.685789 -4.318931
  H 5.393089 -1.067209 -4.957654
  H 3.162074 -0.627349 -3.913350
  H 3.153788 -2.272137 -3.258720
  H 3.230277 -1.552575 -6.230626
  H 1.822155 -2.146400 -5.355497
  H 3.221665 -3.191718 -5.579160
  H 7.327289 -0.832829 -2.030359
 29
 172.381322
  C 0.607934 0.314473 0.953294
  C 2.012179 0.401795 1.132235
  C 2.807221 0.876125 2.203481
  C 2.090910 1.421252 3.446872
  H 2.826520 1.749420 4.180009
  C 3.103691 -0.329267 -0.580316
  C 4.325181 -0.283623 -0.513858
  C 5.697546 -1.230224 -2.972007
  C 5.064204 -1.710193 -4.223607
  C 3.541304 -1.670800 -4.169442
  C 2.928417 -2.173208 -5.470221
  O 6.995771 -1.238167 -2.998543
  H 0.006471 0.675928 1.794898
  H 0.347686 -0.726556 0.736402
  H 0.336759 0.863388 0.045804
  H 3.474881 1.642615 1.786318
  H 3.482179 0.056020 2.484994
  H 1.473873 0.653441 3.906066
  H 1.464429 2.271658 3.191148
  H 2.314553 -0.603660 -1.223348
  H 5.169066 -0.041272 0.067564
  H 5.414463 -2.728157 -4.430458
  H 5.433431 -1.106856 -5.061148
  H 3.219339 -0.645207 -3.989292
  H 3.198794 -2.292614 -3.342418
  H 3.247253 -1.559785 -6.310130
  H 1.843679 -2.139897 -5.420540
  H 3.226302 -3.200912 -5.666418
  H 7.399176 -0.907984 -2.168522
 29
 175.386746
  C 0.563741 0.326911 1.049227
  C 1.960778 0.429425 1.234360
  C 2.750324 0.925530 2.298044
  C 2.029587 1.485346 3.529390
  H 2.763697 1.830913 4.258532
  C 3.107869 -0.344488 -0.531722
  C 4.324706 -0.285430 -0.451932
  C 5.753802 -1.279354 -3.072477
  C 5.102417 -1.745759 -4.319679
  C 3.579538 -1.686560 -4.242900
  C 2.939021 -2.174707 -5.536107
  O 7.054073 -1.301060 -3.121493
  H -0.045711 0.693268 1.878898
  H 0.316221 -0.718987 0.842216
  H 0.294901 0.857727 0.130602
  H 3.416779 1.686648 1.867972
  H 3.432390 0.114686 2.590787
  H 1.417625 0.721732 3.999296
  H 1.398198 2.325767 3.258604
  H 2.307367 -0.621950 -1.161852
  H 5.185561 -0.046190 0.106327
  H 5.437210 -2.767229 -4.534940
  H 5.468943 -1.142931 -5.158904
  H 3.274657 -0.657384 -4.052132
  H 3.242125 -2.307033 -3.412559
  H 3.253334 -1.561745 -6.378320
  H 1.855473 -2.127011 -5.469372
  H 3.220207 -3.205598 -5.741446
  H 7.473977 -0.978952 -2.295663
 29
 177.333640
  C 0.511583 0.342059 1.146303
  C 1.907616 0.460376 1.338440
  C 2.698191 0.974878 2.390496
  C 1.976534 1.549691 3.615346
  H 2.709218 1.909211 4.335450
  C 3.106440 -0.358061 -0.486724
  C 4.315770 -0.285465 -0.392062
  C 5.804884 -1.325172 -3.169704
  C 5.138418 -1.779265 -4.412921
  C 3.617884 -1.702220 -4.316571
  C 2.953957 -2.177042 -5.602253
  O 7.104663 -1.359009 -3.236403
  H -0.107038 0.713976 1.968668
  H 0.274828 -0.709235 0.948914
  H 0.243085 0.856824 0.217293
  H 3.362697 1.730522 1.946842
  H 3.386934 0.172157 2.691561
  H 1.369228 0.789155 4.097928
  H 1.339528 2.382868 3.332406
  H 2.295652 -0.635653 -1.098022
  H 5.190873 -0.050109 0.140743
  H 5.458871 -2.803479 -4.635073
  H 5.502722 -1.177279 -5.253269
  H 3.328609 -0.670322 -4.116685
  H 3.284677 -2.321330 -3.483511
  H 3.264617 -1.564651 -6.446112
  H 1.872343 -2.116388 -5.520706
  H 3.219929 -3.210273 -5.815305
  H 7.538194 -1.044694 -2.412836
 29
 178.434676
  C 0.462056 0.358928 1.243221
  C 1.852489 0.492504 1.442134
  C 2.643442 1.025107 2.482764
  C 1.920973 1.615053 3.700335
  H 2.654093 1.989170 4.413432
  C 3.106047 -0.372335 -0.442153
  C 4.309399 -0.286016 -0.330403
  C 5.855731 -1.368789 -3.264588
  C 5.171943 -1.810275 -4.503367
  C 3.652698 -1.715917 -4.386336
  C 2.964858 -2.176893 -5.664645
  O 7.155109 -1.413912 -3.346934
  H -0.164751 0.735563 2.056188
  H 0.236397 -0.696663 1.056071
  H 0.195127 0.857599 0.304951
  H 3.305920 1.775056 2.025673
  H 3.337987 0.230172 2.792440
  H 1.318486 0.858907 4.194783
  H 1.279468 2.440001 3.405347
  H 2.281799 -0.649856 -1.036043
  H 5.200415 -0.054161 0.177912
  H 5.478195 -2.837290 -4.732868
  H 5.533309 -1.208555 -5.345281
  H 3.378895 -0.681538 -4.176815
  H 3.324298 -2.334366 -3.550690
  H 3.271283 -1.564353 -6.510049
  H 1.885219 -2.103761 -5.567742
  H 3.215760 -3.212259 -5.885953
  H 7.600224 -1.107322 -2.525972
 29
 178.922526
  C 0.407678 0.378836 1.343314
  C 1.795598 0.528153 1.547373
  C 2.588671 1.077450 2.575784
  C 1.867783 1.681036 3.788553
  H 2.601421 2.067991 4.492273
  C 3.102742 -0.382219 -0.398408
  C 4.299029 -0.282228 -0.269257
  C 5.903300 -1.409989 -3.357418
  C 5.202898 -1.839505 -4.590936
  C 3.686389 -1.727885 -4.454661
  C 2.976470 -2.175569 -5.725376
  O 7.201162 -1.467368 -3.454280
  H -0.227666 0.759308 2.149131
  H 0.193045 -0.680983 1.165810
  H 0.140943 0.862675 0.396906
  H 3.247601 1.822118 2.105289
  H 3.289070 0.290147 2.891705
  H 1.270878 0.928412 4.295328
  H 1.220952 2.498509 3.483961
  H 2.265942 -0.658275 -0.971799
  H 5.203156 -0.054114 0.213589
  H 5.494754 -2.869088 -4.826508
  H 5.561695 -1.238948 -5.434496
  H 3.428058 -0.691325 -4.236767
  H 3.362116 -2.345117 -3.616621
  H 3.279413 -1.563397 -6.572307
  H 1.899188 -2.090034 -5.614191
  H 3.212404 -3.212893 -5.953773
  H 7.658002 -1.169255 -2.636264
