 20
 0.000000
  H 1.383975 0.137746 0.394054
  C 2.453972 0.138831 0.396445
  C 3.235887 0.609601 1.567949
  C 2.454651 1.098519 2.785050
  C 3.400218 1.544794 3.895611
  C 3.074760 -0.323868 -0.755623
  C 4.452396 -0.411652 -0.974602
  C 5.123831 -0.863395 -2.100714
  H 4.763810 -1.238544 -3.035887
  O 6.448567 -0.861790 -2.097024
  H 3.892013 1.422462 1.236076
  H 3.892206 -0.206765 1.890660
  H 1.816409 0.300727 3.170305
  H 1.816264 1.941012 2.511316
  H 4.036296 0.723883 4.220901
  H 2.831617 1.890430 4.756103
  H 4.036115 2.362679 3.562473
  H 2.419633 -0.642347 -1.548686
  H 5.073532 -0.080521 -0.149771
  H 6.820588 -0.526463 -1.260938
 20
 0.000000
  H 1.419172 0.131628 0.378823
  C 2.489104 0.136268 0.390057
  C 3.259743 0.609616 1.567977
  C 2.466855 1.095918 2.778576
  C 3.401725 1.545315 3.896908
  C 3.136044 -0.335374 -0.784290
  C 4.447095 -0.427524 -1.014171
  C 5.086828 -0.861334 -2.095583
  H 4.747683 -1.239175 -3.037455
  O 6.350123 -0.838779 -2.039680
  H 3.915886 1.424658 1.241528
  H 3.916082 -0.204570 1.896111
  H 1.828105 0.296004 3.158553
  H 1.827956 1.936289 2.499565
  H 4.037817 0.726517 4.227454
  H 2.824887 1.889048 4.752668
  H 4.037633 2.365314 3.569026
  H 2.488554 -0.656018 -1.582736
  H 5.077268 -0.098763 -0.195267
  H 6.668180 -0.479698 -1.144367
 20
 0.000000
  H 1.454312 0.126173 0.365239
  C 2.524086 0.134507 0.385664
  C 3.282939 0.610495 1.570157
  C 2.478004 1.094036 2.773893
  C 3.401675 1.546642 3.900211
  C 3.199573 -0.346899 -0.813004
  C 4.446123 -0.443304 -1.053505
  C 5.053887 -0.860451 -2.093382
  H 4.733852 -1.240602 -3.040999
  O 6.254598 -0.819835 -1.992470
  H 3.939043 1.427803 1.249345
  H 3.939243 -0.201425 1.903928
  H 1.838779 0.291915 3.148379
  H 1.838626 1.932201 2.489393
  H 4.037729 0.730040 4.236220
  H 2.816322 1.888366 4.750980
  H 4.037541 2.368837 3.577794
  H 2.560078 -0.669765 -1.616978
  H 5.086534 -0.117291 -0.241471
  H 6.511864 -0.436475 -1.036622
 20
 0.000000
  H 1.489043 0.121589 0.353823
  C 2.558557 0.133751 0.383770
  C 3.305129 0.612430 1.574965
  C 2.487786 1.093067 2.771483
  C 3.399770 1.548955 3.905972
  C 3.265379 -0.358433 -0.841744
  C 4.449844 -0.458945 -1.092487
  C 5.025421 -0.860959 -2.094640
  H 4.722106 -1.243011 -3.046982
  O 6.162802 -0.805332 -1.956322
  H 3.961136 1.432085 1.259995
  H 3.961337 -0.197143 1.914576
  H 1.848125 0.288657 3.140276
  H 1.847971 1.928944 2.481290
  H 4.035726 0.734628 4.247641
  H 2.805648 1.888568 4.751493
  H 4.035536 2.373425 3.589216
  H 2.634224 -0.683574 -1.651375
  H 5.101817 -0.136118 -0.288417
  H 6.351888 -0.397490 -0.939434
 20
 0.000000
  H 1.522764 0.118223 0.345438
  C 2.591907 0.134328 0.385195
  C 3.325750 0.615734 1.583183
  C 2.495697 1.093333 2.772146
  C 3.395549 1.552559 3.914949
  C 3.333548 -0.370055 -0.870704
  C 4.458788 -0.474524 -1.131312
  C 5.002114 -0.863330 -2.100533
  H 4.712394 -1.246847 -3.056512
  O 6.075840 -0.795900 -1.932804
  H 3.981593 1.437809 1.274232
  H 3.981796 -0.191420 1.928813
  H 1.855650 0.286563 3.135067
  H 1.855493 1.926850 2.476084
  H 4.031342 0.740576 4.262450
  H 2.792446 1.889964 4.754980
  H 4.031151 2.379373 3.604027
  H 2.711050 -0.697507 -1.686086
  H 5.123799 -0.155398 -0.336490
  H 6.188991 -0.363514 -0.854724
 20
 0.000000
  H 1.554635 0.116547 0.341258
  C 2.623290 0.136685 0.391053
  C 3.344030 0.620834 1.595873
  C 2.501051 1.095274 2.776983
  C 3.388394 1.557871 3.928179
  C 3.404265 -0.381930 -0.900297
  C 4.473490 -0.490166 -1.170289
  C 4.984860 -0.868241 -2.112751
  H 4.704763 -1.252755 -3.071196
  O 5.995125 -0.792373 -1.923996
  H 3.999639 1.445383 1.293082
  H 3.999843 -0.183846 1.947661
  H 1.860672 0.286088 3.133890
  H 1.860515 1.926376 2.474908
  H 4.023955 0.748285 4.281649
  H 2.776159 1.892981 4.762505
  H 4.023763 2.387084 3.623226
  H 2.790691 -0.711716 -1.721483
  H 5.153092 -0.175322 -0.386166
  H 6.024567 -0.335497 -0.784858
 20
 0.000000
  H 1.582989 0.117378 0.343316
  C 2.651046 0.141556 0.403170
  C 3.358575 0.628404 1.614716
  C 2.502724 1.099630 2.787830
  C 3.377433 1.565557 3.947324
  C 3.477388 -0.394381 -0.931321
  C 4.494619 -0.506114 -1.210023
  C 4.975207 -0.876941 -2.134403
  H 4.699601 -1.261914 -3.093966
  O 5.923550 -0.796243 -1.933609
  H 4.013883 1.455434 1.318097
  H 4.014086 -0.173796 1.972675
  H 1.862078 0.288021 3.138705
  H 1.861920 1.928309 2.479726
  H 4.012697 0.758374 4.306774
  H 2.756108 1.898333 4.775844
  H 4.012506 2.397173 3.648353
  H 2.872824 -0.726471 -1.758243
  H 5.190293 -0.196166 -0.438129
  H 5.862742 -0.314826 -0.733294
 20
 0.000000
  H 1.606060 0.121907 0.354582
  C 2.673415 0.150086 0.424396
  C 3.367783 0.639558 1.642482
  C 2.499266 1.107552 2.807556
  C 3.361370 1.576730 3.975152
  C 3.554469 -0.408277 -0.965944
  C 4.523277 -0.523173 -1.252516
  C 4.974768 -0.891521 -2.170696
  H 4.697204 -1.276309 -3.129772
  O 5.863479 -0.809722 -1.967154
  H 4.022727 1.469043 1.351977
  H 4.022928 -0.160188 2.006554
  H 1.858419 0.293541 3.152452
  H 1.858264 1.933830 2.493474
  H 3.996273 0.771926 4.340525
  H 2.731100 1.907161 4.797836
  H 3.996084 2.410726 3.682106
  H 2.958892 -0.742617 -1.798464
  H 5.236641 -0.218843 -0.494650
  H 5.706202 -0.302719 -0.703063
 20
 0.000000
  H 1.622643 0.130560 0.376111
  C 2.689218 0.162590 0.455519
  C 3.370834 0.654544 1.679794
  C 2.490192 1.119379 2.837004
  C 3.340063 1.591646 4.012300
  C 3.634887 -0.423658 -1.004263
  C 4.558451 -0.541082 -1.297119
  C 4.983227 -0.912414 -2.222713
  H 4.696863 -1.296319 -3.179559
  O 5.816737 -0.832909 -2.024881
  H 4.025366 1.486393 1.395178
  H 4.025562 -0.142837 2.049753
  H 1.849212 0.303054 3.176136
  H 1.849060 1.943344 2.517160
  H 3.974557 0.789133 4.383379
  H 2.701231 1.919784 4.829278
  H 3.974372 2.427932 3.724960
  H 3.048031 -0.760134 -1.842099
  H 5.290486 -0.242956 -0.554739
  H 5.559991 -0.299784 -0.695682
 20
 0.000000
  H 1.631078 0.144027 0.409626
  C 2.696827 0.179686 0.498076
  C 3.366358 0.673938 1.728081
  C 2.474357 1.135753 2.877775
  C 3.312618 1.610891 4.060230
  C 3.718792 -0.440954 -1.047343
  C 4.599954 -0.560007 -1.344241
  C 5.000979 -0.940759 -2.293287
  H 4.698708 -1.322982 -3.245913
  O 5.786113 -0.866489 -2.108493
  H 4.020445 1.508014 1.449015
  H 4.020635 -0.121217 2.103589
  H 1.833306 0.317246 3.211470
  H 1.833160 1.957537 2.552495
  H 3.946670 0.810536 4.436687
  H 2.665768 1.936840 4.871757
  H 3.946491 2.449337 3.778269
  H 3.140211 -0.779414 -1.890120
  H 5.350962 -0.268494 -0.618363
  H 5.430955 -0.306110 -0.711375
 20
 0.000000
  H 1.629899 0.162733 0.456182
  C 2.694826 0.201658 0.552776
  C 3.353417 0.697944 1.787857
  C 2.451242 1.157008 2.930695
  C 3.278979 1.634698 4.119517
  C 3.804902 -0.460202 -1.095279
  C 4.646431 -0.579804 -1.393523
  C 5.026836 -0.976820 -2.383078
  H 4.702049 -1.356485 -3.329302
  O 5.773273 -0.910033 -2.216925
  H 4.007057 1.534025 1.513791
  H 4.007239 -0.095206 2.168364
  H 1.810172 0.336535 3.259488
  H 1.810034 1.976826 2.600514
  H 3.912585 0.836286 4.500818
  H 2.624948 1.958652 4.926073
  H 3.912415 2.475087 3.842402
  H 3.233820 -0.800426 -1.942450
  H 5.415841 -0.295023 -0.684439
  H 5.326901 -0.320668 -0.747576
 20
 0.000000
  H 1.623804 0.173818 0.483773
  C 2.688343 0.214189 0.583974
  C 3.342070 0.711366 1.821279
  C 2.435406 1.169200 2.961052
  C 3.258461 1.648011 4.152671
  C 3.837669 -0.465541 -1.108573
  C 4.664982 -0.584813 -1.405986
  C 5.039222 -0.990060 -2.416046
  H 4.704804 -1.368569 -3.359377
  O 5.774015 -0.926459 -2.257827
  H 3.995499 1.548335 1.549427
  H 3.995677 -0.080897 2.204000
  H 1.794340 0.347856 3.287672
  H 1.794207 1.988147 2.628699
  H 3.891855 0.850459 4.536118
  H 2.601261 1.971074 4.957005
  H 3.891690 2.489260 3.877702
  H 3.269924 -0.806539 -1.957673
  H 5.440588 -0.302373 -0.702738
  H 5.294603 -0.325011 -0.758371
 20
 0.000000
  H 1.600655 0.221421 0.602255
  C 2.663613 0.267215 0.715987
  C 3.299005 0.767673 1.961489
  C 2.375597 1.220840 3.089622
  C 3.180976 1.703799 4.291597
  C 4.018483 -0.510212 -1.219804
  C 4.769113 -0.627065 -1.511144
  C 5.101916 -1.082964 -2.647393
  H 4.706970 -1.453305 -3.570328
  O 5.786152 -1.038233 -2.536177
  H 3.951563 1.607972 1.697945
  H 3.951720 -0.021260 2.352517
  H 1.734626 0.396228 3.408088
  H 1.734512 2.036519 2.749116
  H 3.813499 0.909473 4.683093
  H 2.511963 2.023479 5.087496
  H 3.813354 2.548274 4.024678
  H 3.463330 -0.854073 -2.076043
  H 5.578852 -0.358256 -0.841878
  H 5.153921 -0.376083 -0.885494
