 20
 0.000000
  C 1.008670 0.116487 0.346626
  C 2.482486 0.113924 0.343688
  C 3.212339 0.591856 1.531820
  H 2.533771 0.907012 2.316577
  C 3.133311 -0.342720 -0.793021
  C 4.519954 -0.402483 -0.944922
  C 5.192083 -0.855185 -2.079328
  C 4.552915 -1.351605 -3.314765
  H 3.469518 -1.336932 -3.272545
  O 6.503310 -0.869407 -2.123821
  H 0.597278 0.484413 1.279572
  H 0.628635 -0.889111 0.160824
  H 0.631523 0.728842 -0.475031
  H 3.859494 1.431072 1.272706
  H 3.860356 -0.192615 1.925517
  H 2.507535 -0.670567 -1.609413
  H 5.133101 -0.069863 -0.115910
  H 4.899707 -2.368465 -3.510487
  H 4.896610 -0.750207 -4.159344
  H 6.946289 -0.546403 -1.322040
 20
 5.385393
  C 1.017648 0.071442 0.373089
  C 2.463941 0.113047 0.339661
  C 3.213327 0.595735 1.514712
  H 2.542623 0.932629 2.299606
  C 3.125548 -0.344333 -0.802270
  C 4.499544 -0.393680 -0.949271
  C 5.164682 -0.841130 -2.064541
  C 4.531933 -1.347029 -3.296666
  H 3.450859 -1.339406 -3.255800
  O 6.468198 -0.846784 -2.106386
  H 0.561275 0.463830 1.271621
  H 0.584056 -0.898929 0.129453
  H 0.909311 0.716976 -0.481226
  H 3.883288 1.415702 1.252228
  H 3.838375 -0.206227 1.912263
  H 2.503896 -0.679387 -1.618867
  H 5.108609 -0.055278 -0.123097
  H 4.884283 -2.360344 -3.485642
  H 4.871653 -0.748729 -4.141125
  H 6.907186 -0.515057 -1.299721
 20
 13.986247
  C 1.005488 0.034892 0.399081
  C 2.431204 0.106319 0.357043
  C 3.206205 0.609933 1.521494
  H 2.548740 0.984269 2.300167
  C 3.099274 -0.351431 -0.797134
  C 4.484734 -0.383390 -0.949713
  C 5.161066 -0.835764 -2.073463
  C 4.537949 -1.363594 -3.305252
  H 3.463039 -1.373269 -3.266354
  O 6.466821 -0.823953 -2.120462
  H 0.520517 0.411532 1.301298
  H 0.536546 -0.860624 0.022733
  H 1.113918 0.761338 -0.401857
  H 3.904209 1.392556 1.246008
  H 3.791615 -0.213649 1.937537
  H 2.480384 -0.705399 -1.606848
  H 5.090953 -0.032208 -0.129993
  H 4.905152 -2.372791 -3.484018
  H 4.868066 -0.766690 -4.154344
  H 6.894838 -0.482134 -1.323510
 20
 21.969835
  C 0.992166 0.010847 0.436216
  C 2.418179 0.104105 0.352038
  C 3.184579 0.613720 1.509221
  H 2.526103 1.004580 2.276450
  C 3.091416 -0.358545 -0.806736
  C 4.476191 -0.375562 -0.959405
  C 5.160299 -0.831846 -2.079252
  C 4.543385 -1.381097 -3.309472
  H 3.461395 -1.403702 -3.270155
  O 6.487701 -0.804988 -2.128524
  H 0.517691 0.338933 1.344102
  H 0.482851 -0.791745 -0.055187
  H 1.269393 0.824876 -0.270977
  H 3.898458 1.384960 1.233105
  H 3.743491 -0.219442 1.936554
  H 2.475252 -0.734481 -1.611360
  H 5.079093 -0.010083 -0.140722
  H 4.923233 -2.391041 -3.477099
  H 4.866716 -0.786122 -4.166641
  H 6.906343 -0.453448 -1.337810
 20
 27.695327
  C 0.984514 -0.021106 0.456560
  C 2.407489 0.102611 0.344899
  C 3.175723 0.629228 1.503289
  H 2.516424 1.035813 2.263801
  C 3.085507 -0.369735 -0.818625
  C 4.469437 -0.377877 -0.969633
  C 5.157183 -0.833599 -2.083281
  C 4.549245 -1.389648 -3.313960
  H 3.465926 -1.417544 -3.278086
  O 6.484312 -0.800368 -2.129479
  H 0.509567 0.255111 1.382460
  H 0.448301 -0.736509 -0.143156
  H 1.389004 0.870953 -0.144723
  H 3.893389 1.394992 1.216167
  H 3.725906 -0.198230 1.944550
  H 2.467956 -0.758209 -1.623572
  H 5.068262 -0.004595 -0.153177
  H 4.933375 -2.396149 -3.476185
  H 4.870844 -0.796801 -4.169039
  H 6.899438 -0.442614 -1.329060
 20
 31.579521
  C 0.982980 -0.055961 0.470558
  C 2.398699 0.106459 0.337116
  C 3.168882 0.647019 1.497286
  H 2.506539 1.054720 2.257174
  C 3.083640 -0.369914 -0.827238
  C 4.464025 -0.377540 -0.975830
  C 5.153477 -0.836658 -2.083328
  C 4.550453 -1.392849 -3.317236
  H 3.470810 -1.416285 -3.286559
  O 6.478983 -0.807547 -2.123521
  H 0.506194 0.179526 1.407529
  H 0.430755 -0.694086 -0.206241
  H 1.479760 0.892658 -0.055732
  H 3.871484 1.416276 1.199638
  H 3.732576 -0.169962 1.947737
  H 2.471029 -0.761532 -1.628652
  H 5.060362 -0.005116 -0.160359
  H 4.930047 -2.397937 -3.475798
  H 4.876855 -0.803960 -4.168962
  H 6.889403 -0.449028 -1.317626
 20
 35.163393
  C 0.976044 -0.083604 0.480389
  C 2.389618 0.121955 0.334521
  C 3.166581 0.657396 1.498282
  H 2.503015 1.061382 2.263062
  C 3.080973 -0.364362 -0.833682
  C 4.460980 -0.370224 -0.979240
  C 5.154190 -0.836389 -2.083040
  C 4.552205 -1.398969 -3.321377
  H 3.466922 -1.418947 -3.293588
  O 6.483319 -0.809355 -2.118618
  H 0.491398 0.136955 1.413459
  H 0.419374 -0.663971 -0.239179
  H 1.544014 0.904494 -0.010344
  H 3.855597 1.426700 1.196804
  H 3.746622 -0.163828 1.952214
  H 2.466585 -0.758920 -1.627087
  H 5.057112 0.008074 -0.161765
  H 4.930670 -2.409733 -3.474284
  H 4.884873 -0.811526 -4.179229
  H 6.889144 -0.449546 -1.314379
 20
 38.647210
  C 0.973540 -0.105259 0.477906
  C 2.384216 0.129661 0.326205
  C 3.169251 0.658454 1.497135
  H 2.513269 1.059742 2.260966
  C 3.076093 -0.360031 -0.839294
  C 4.452408 -0.366713 -0.983257
  C 5.146155 -0.835703 -2.083920
  C 4.549694 -1.394130 -3.307721
  H 3.466149 -1.411753 -3.280722
  O 6.480323 -0.811255 -2.120333
  H 0.482421 0.125150 1.409110
  H 0.421673 -0.662140 -0.256926
  H 1.599969 0.894778 -0.002009
  H 3.862239 1.433854 1.198656
  H 3.743050 -0.157098 1.940889
  H 2.468528 -0.756689 -1.635956
  H 5.058055 0.019457 -0.153022
  H 4.922107 -2.395394 -3.456284
  H 4.880216 -0.816236 -4.156693
  H 6.886693 -0.450661 -1.317926
 20
 40.881161
  C 0.971951 -0.130870 0.492852
  C 2.375944 0.151726 0.327638
  C 3.169217 0.661406 1.504553
  H 2.516515 1.058052 2.270519
  C 3.076852 -0.353670 -0.846942
  C 4.450407 -0.359497 -0.986390
  C 5.148162 -0.834112 -2.084989
  C 4.553613 -1.399380 -3.310062
  H 3.474120 -1.414694 -3.284721
  O 6.479280 -0.810676 -2.117006
  H 0.472282 0.106555 1.414603
  H 0.416244 -0.660763 -0.262831
  H 1.643815 0.927856 0.000390
  H 3.866692 1.438755 1.209234
  H 3.738069 -0.161583 1.940524
  H 2.460448 -0.751470 -1.638666
  H 5.049165 0.028813 -0.162378
  H 4.926775 -2.408479 -3.452875
  H 4.888743 -0.822253 -4.166525
  H 6.884464 -0.444613 -1.312088
 20
 43.257459
  C 0.977712 -0.155640 0.491210
  C 2.376304 0.163897 0.319541
  C 3.174537 0.663235 1.503786
  H 2.512122 1.069177 2.287043
  C 3.073183 -0.343492 -0.845786
  C 4.444686 -0.353111 -0.987026
  C 5.143984 -0.833848 -2.086417
  C 4.552949 -1.394739 -3.296372
  H 3.458853 -1.405637 -3.269100
  O 6.476362 -0.815603 -2.121335
  H 0.473252 0.087839 1.410870
  H 0.425615 -0.672270 -0.281424
  H 1.694523 0.938493 -0.007423
  H 3.866148 1.427598 1.217558
  H 3.729058 -0.149063 1.928363
  H 2.467202 -0.738232 -1.630105
  H 5.041583 0.033238 -0.169585
  H 4.926467 -2.413102 -3.435033
  H 4.893314 -0.816025 -4.158580
  H 6.886602 -0.448678 -1.319158
 20
 43.990304
  C 0.977307 -0.178979 0.510742
  C 2.368658 0.183542 0.323314
  C 3.168600 0.668523 1.509817
  H 2.519853 1.071766 2.270866
  C 3.074603 -0.342949 -0.846253
  C 4.446396 -0.349033 -0.983753
  C 5.148188 -0.828029 -2.079618
  C 4.553846 -1.400440 -3.313700
  H 3.469408 -1.411233 -3.296215
  O 6.472729 -0.809469 -2.100539
  H 0.468790 0.074424 1.421239
  H 0.429148 -0.683956 -0.263771
  H 1.738986 0.981842 -0.024698
  H 3.880887 1.440858 1.221992
  H 3.720958 -0.167447 1.943946
  H 2.458159 -0.739605 -1.634015
  H 5.036674 0.042216 -0.172358
  H 4.925211 -2.414111 -3.450628
  H 4.898431 -0.828090 -4.172539
  H 6.875869 -0.441025 -1.293214
 20
 44.243657
  C 0.987056 -0.207322 0.518850
  C 2.365806 0.205714 0.316158
  C 3.168784 0.672361 1.512210
  H 2.516071 1.082131 2.275985
  C 3.077124 -0.332870 -0.853006
  C 4.444356 -0.339230 -0.987011
  C 5.148049 -0.827270 -2.080156
  C 4.551834 -1.400140 -3.309950
  H 3.470865 -1.402805 -3.293959
  O 6.470155 -0.814253 -2.097769
  H 0.472986 0.043434 1.425955
  H 0.439926 -0.705533 -0.261944
  H 1.788859 1.025923 -0.052658
  H 3.887381 1.437733 1.233873
  H 3.706677 -0.171631 1.942453
  H 2.455970 -0.734887 -1.636584
  H 5.035970 0.053704 -0.170504
  H 4.915909 -2.416474 -3.443150
  H 4.902313 -0.834275 -4.173350
  H 6.875327 -0.442439 -1.291627
 20
 43.367648
  C 0.995725 -0.235522 0.529940
  C 2.360783 0.226920 0.309011
  C 3.164900 0.677431 1.515247
  H 2.511134 1.095676 2.273206
  C 3.079823 -0.325435 -0.857477
  C 4.443930 -0.329049 -0.989920
  C 5.149529 -0.824066 -2.082396
  C 4.551429 -1.398368 -3.310465
  H 3.471495 -1.393180 -3.298104
  O 6.467739 -0.818579 -2.094308
  H 0.480536 0.010878 1.437779
  H 0.448114 -0.732978 -0.250562
  H 1.845202 1.076403 -0.083915
  H 3.894791 1.433700 1.245202
  H 3.685709 -0.175074 1.948656
  H 2.458680 -0.731635 -1.638714
  H 5.035666 0.065576 -0.173701
  H 4.910751 -2.421473 -3.439769
  H 4.907879 -0.840746 -4.172978
  H 6.875378 -0.446738 -1.289212
 20
 42.766735
  C 1.005239 -0.261240 0.537391
  C 2.357162 0.243597 0.295628
  C 3.166144 0.681351 1.510030
  H 2.513300 1.113177 2.263116
  C 3.077653 -0.319370 -0.857701
  C 4.441213 -0.320092 -0.987879
  C 5.149788 -0.821224 -2.078049
  C 4.549526 -1.397244 -3.303198
  H 3.469411 -1.386488 -3.292823
  O 6.465071 -0.823327 -2.084711
  H 0.491928 -0.018692 1.448340
  H 0.460809 -0.771497 -0.235033
  H 1.908388 1.113747 -0.121518
  H 3.909942 1.425171 1.246802
  H 3.666931 -0.177016 1.945608
  H 2.457395 -0.729865 -1.638574
  H 5.031797 0.077259 -0.172855
  H 4.896981 -2.406209 -3.424086
  H 4.918704 -0.838171 -4.185994
  H 6.875503 -0.451945 -1.283283
