 17
 0.000000
  C 0.973891 0.131063 0.377809
  C 2.431024 0.084913 0.264865
  H 3.022684 0.421665 1.103164
  C 3.071592 -0.367436 -0.860631
  C 4.463375 -0.406622 -0.959786
  C 5.189664 -0.850430 -2.067768
  C 4.597592 -1.353874 -3.323009
  H 3.518624 -1.354210 -3.323639
  O 6.494380 -0.846191 -2.059630
  H 0.645632 0.516555 1.336638
  H 0.551102 -0.864526 0.224698
  H 0.552220 0.744596 -0.421694
  H 2.467755 -0.700728 -1.689845
  H 5.025789 -0.061565 -0.101261
  H 4.968837 -2.362946 -3.509871
  H 4.968767 -0.753476 -4.155320
  H 6.908056 -0.517848 -1.240355
 17
 11.495624
  C 0.855406 0.145043 0.412452
  C 2.452848 0.098464 0.298901
  H 3.031963 0.437501 1.142906
  C 3.090725 -0.353173 -0.824757
  C 4.475864 -0.390601 -0.919645
  C 5.254241 -0.874964 -2.129041
  C 4.639828 -1.370602 -3.364787
  H 3.558170 -1.362373 -3.344090
  O 6.546896 -0.870195 -2.119725
  H 0.532445 0.530000 1.369935
  H 0.446583 -0.851403 0.259197
  H 0.447808 0.759134 -0.387753
  H 2.486953 -0.687563 -1.656670
  H 5.047148 -0.048768 -0.069263
  H 4.999809 -2.382275 -3.557588
  H 4.999760 -0.772483 -4.203207
  H 6.965332 -0.541372 -1.299207
 17
 35.377371
  C 0.758336 0.123400 0.358393
  C 2.522710 0.104675 0.314344
  H 3.009085 0.458850 1.194993
  C 3.142629 -0.335458 -0.779876
  C 4.505163 -0.365355 -0.856517
  C 5.294710 -0.889210 -2.164461
  C 4.590657 -1.363487 -3.347638
  H 3.512688 -1.324173 -3.250435
  O 6.582629 -0.879538 -2.142443
  H 0.468863 0.509845 1.318989
  H 0.448784 -0.894932 0.205754
  H 0.449856 0.753110 -0.456764
  H 2.543571 -0.670200 -1.611737
  H 5.129938 -0.039855 -0.047771
  H 4.908000 -2.387111 -3.567102
  H 4.908549 -0.775255 -4.213401
  H 7.021218 -0.553369 -1.328061
 17
 65.205477
  C 0.610010 0.133449 0.383273
  C 2.544983 0.125351 0.365697
  H 2.992557 0.485607 1.260461
  C 3.170276 -0.321233 -0.743685
  C 4.549399 -0.353088 -0.825315
  C 5.358895 -0.911074 -2.218782
  C 4.623488 -1.375965 -3.379342
  H 3.549057 -1.324879 -3.252891
  O 6.625232 -0.904481 -2.204221
  H 0.339060 0.520290 1.343969
  H 0.345703 -0.893085 0.227682
  H 0.346639 0.766397 -0.440089
  H 2.567594 -0.656406 -1.575705
  H 5.203480 -0.035686 -0.036954
  H 4.923210 -2.402779 -3.607611
  H 4.924082 -0.791323 -4.253501
  H 7.073363 -0.582241 -1.399885
 17
 96.059633
  C 0.453620 0.133917 0.383052
  C 2.602337 0.137259 0.396586
  H 3.021307 0.510419 1.322184
  C 3.226290 -0.312587 -0.719421
  C 4.602953 -0.346128 -0.806079
  C 5.400548 -0.925421 -2.254519
  C 4.622507 -1.377709 -3.383916
  H 3.556095 -1.311934 -3.219572
  O 6.666743 -0.923913 -2.254223
  H 0.206344 0.526602 1.356820
  H 0.234667 -0.913916 0.226726
  H 0.236413 0.781016 -0.456169
  H 2.625261 -0.646877 -1.548499
  H 5.290570 -0.035706 -0.035610
  H 4.898702 -2.404048 -3.621596
  H 4.898757 -0.798954 -4.264157
  H 7.134070 -0.604007 -1.456297
 17
 108.256670
  C 0.123385 0.240134 0.314462
  C 2.862414 -0.006294 0.464102
  H 3.166023 0.368864 1.411394
  C 3.363100 -0.496920 -0.635572
  C 4.763573 -0.462051 -0.925368
  C 5.329930 -0.849686 -2.153755
  C 4.582856 -1.363375 -3.315821
  H 3.523844 -1.423831 -3.147284
  O 6.634485 -0.788844 -2.332222
  H 0.039293 0.656087 1.298193
  H -0.006431 -0.814313 0.171331
  H 0.173218 0.892655 -0.534590
  H 2.702792 -0.864612 -1.413081
  H 5.429609 -0.083420 -0.168982
  H 4.970278 -2.348722 -3.582047
  H 4.781376 -0.723145 -4.176425
  H 7.143681 -0.432142 -1.579207
 17
 113.357266
  C -0.023114 0.236946 0.248929
  C 3.020601 -0.004680 0.546938
  H 3.174098 0.395386 1.511733
  C 3.483834 -0.481898 -0.551841
  C 4.882297 -0.484224 -0.920285
  C 5.336844 -0.860770 -2.138708
  C 4.530211 -1.348375 -3.291067
  H 3.462244 -1.404603 -3.083556
  O 6.639335 -0.810790 -2.421172
  H -0.151836 0.653401 1.229100
  H -0.119794 -0.821490 0.101051
  H 0.072247 0.886138 -0.599842
  H 2.805466 -0.832408 -1.322920
  H 5.575516 -0.139019 -0.169000
  H 4.893696 -2.327425 -3.581279
  H 4.698689 -0.691109 -4.139996
  H 7.187675 -0.439199 -1.695645
 17
 114.028534
  C -0.121451 0.174782 0.132553
  C 3.170816 0.048006 0.656989
  H 3.109015 0.443030 1.644410
  C 3.634036 -0.388147 -0.447892
  C 5.004102 -0.460343 -0.905220
  C 5.350080 -0.861079 -2.142575
  C 4.429489 -1.302763 -3.228864
  H 3.374219 -1.293588 -2.943845
  O 6.634170 -0.890867 -2.515677
  H -0.340929 0.562418 1.109815
  H -0.157866 -0.878689 -0.042089
  H 0.009510 0.844991 -0.691891
  H 2.926139 -0.723924 -1.219865
  H 5.748473 -0.173924 -0.192517
  H 4.712479 -2.316832 -3.540587
  H 4.573143 -0.658973 -4.089994
  H 7.241682 -0.563034 -1.835735
 17
 113.532835
  C -0.215060 0.101792 0.021470
  C 3.294767 0.100031 0.762483
  H 3.001760 0.507902 1.696540
  C 3.761959 -0.296620 -0.350015
  C 5.087734 -0.444603 -0.886061
  C 5.345655 -0.869292 -2.147458
  C 4.340463 -1.255454 -3.179457
  H 3.312296 -1.184626 -2.831795
  O 6.595703 -0.973113 -2.595365
  H -0.474126 0.479712 0.986579
  H -0.158341 -0.951714 -0.135296
  H -0.015304 0.780540 -0.776498
  H 3.015816 -0.607839 -1.086124
  H 5.891980 -0.196926 -0.215675
  H 4.539558 -2.279008 -3.499836
  H 4.466162 -0.615679 -4.055323
  H 7.262912 -0.705789 -1.944103
 17
 113.780998
  C -0.381866 0.070182 -0.006300
  C 3.388370 0.151376 0.790472
  H 3.028974 0.522396 1.714242
  C 3.863511 -0.232405 -0.316074
  C 5.163296 -0.431968 -0.893759
  C 5.370394 -0.878427 -2.153632
  C 4.319771 -1.237993 -3.144616
  H 3.312170 -1.128503 -2.763205
  O 6.599929 -1.027170 -2.645622
  H -0.676405 0.432048 0.957826
  H -0.306637 -0.987040 -0.177451
  H -0.192214 0.764970 -0.798739
  H 3.067988 -0.540446 -1.029905
  H 5.990384 -0.197882 -0.256288
  H 4.469962 -2.261259 -3.459285
  H 4.437011 -0.608334 -4.033201
  H 7.301300 -0.792284 -2.014237
 17
 113.382636
  C -0.369262 0.076284 0.001015
  C 3.382523 0.149384 0.785479
  H 2.995829 0.497823 1.706819
  C 3.862621 -0.241137 -0.321113
  C 5.161653 -0.424584 -0.896734
  C 5.372449 -0.871872 -2.157013
  C 4.321232 -1.240744 -3.145328
  H 3.311834 -1.133433 -2.761255
  O 6.602273 -1.025633 -2.646821
  H -0.676780 0.429537 0.962933
  H -0.298642 -0.976010 -0.179751
  H -0.184002 0.776130 -0.787028
  H 3.067733 -0.536964 -1.030325
  H 5.992792 -0.177242 -0.254947
  H 4.476863 -2.271512 -3.459173
  H 4.434080 -0.617880 -4.031004
  H 7.302741 -0.794887 -2.015532
