 23
 0.000000
  C 0.989169 0.129431 0.372904
  C 2.461700 0.139357 0.397493
  C 3.226011 0.611302 1.571792
  C 2.434573 1.097518 2.782346
  C 3.380705 1.543593 3.893635
  C 3.112221 -0.320642 -0.746976
  C 4.496364 -0.386359 -0.911315
  C 5.133738 -0.841318 -2.045321
  H 4.648570 -1.202171 -2.943427
  O 6.428722 -0.887542 -2.162612
  H 0.543563 0.497978 1.289562
  H 0.627752 -0.883366 0.190599
  H 0.627928 0.735029 -0.459370
  H 3.887854 1.422862 1.247678
  H 3.887589 -0.199105 1.899241
  H 1.798033 0.298158 3.165287
  H 1.798438 1.939936 2.506016
  H 4.016035 0.722721 4.218422
  H 2.815160 1.889647 4.755163
  H 4.016366 2.360884 3.560576
  H 2.493856 -0.651466 -1.570174
  H 5.126798 -0.058427 -0.095004
  H 6.922172 -0.572351 -1.379606
 23
 15.578867
  C 1.033963 0.115477 0.337458
  C 2.544743 0.110146 0.325120
  C 3.285398 0.596699 1.536111
  C 2.462335 1.075893 2.728446
  C 3.383916 1.529694 3.858619
  C 3.127713 -0.340999 -0.796381
  C 4.484875 -0.319757 -0.742743
  C 4.982617 -0.778401 -1.888816
  H 4.412150 -1.123667 -2.749404
  O 6.296043 -0.880064 -2.145554
  H 0.599845 0.483961 1.254211
  H 0.672790 -0.893589 0.148478
  H 0.673399 0.713811 -0.496908
  H 3.943040 1.425710 1.253589
  H 3.942533 -0.197292 1.906758
  H 1.827704 0.272925 3.103918
  H 1.828156 1.915870 2.444046
  H 4.018761 0.714196 4.197164
  H 2.798547 1.871206 4.708498
  H 4.019198 2.352511 3.539010
  H 2.570730 -0.690081 -1.666161
  H 5.092976 0.014279 0.091261
  H 6.877216 -0.585489 -1.416537
 23
 68.338044
  C 1.114156 0.103656 0.308145
  C 2.685272 0.093477 0.280769
  C 3.337563 0.594266 1.524361
  C 2.458616 1.056836 2.686640
  C 3.334411 1.526911 3.847059
  C 3.198059 -0.337762 -0.798278
  C 4.554285 -0.262299 -0.584623
  C 4.845668 -0.722835 -1.753026
  H 4.199036 -1.037252 -2.553099
  O 6.083614 -0.920038 -2.241088
  H 0.672347 0.467157 1.216944
  H 0.764637 -0.912322 0.118325
  H 0.762940 0.705474 -0.531241
  H 3.981414 1.442705 1.263875
  H 3.992237 -0.187122 1.927962
  H 1.827858 0.240016 3.038820
  H 1.818597 1.884853 2.381891
  H 3.973707 0.724157 4.207956
  H 2.713182 1.856539 4.677550
  H 3.964338 2.362691 3.550211
  H 2.638016 -0.670883 -1.643908
  H 5.171413 0.051961 0.221956
  H 6.808259 -0.683473 -1.633173
 23
 147.882134
  C 1.129362 0.070313 0.264044
  C 2.840350 0.105735 0.191393
  C 3.398955 0.604976 1.509448
  C 2.476099 1.043344 2.646096
  C 3.332541 1.490704 3.830895
  C 3.108872 -0.264125 -0.960255
  C 4.580961 -0.142406 -0.508708
  C 4.723909 -0.756883 -1.606943
  H 4.151549 -1.202557 -2.404783
  O 6.007899 -0.982542 -2.134250
  H 0.785979 0.445027 1.214508
  H 0.827153 -0.961871 0.124315
  H 0.776861 0.696847 -0.543685
  H 4.029826 1.476231 1.304175
  H 4.020512 -0.191889 1.927543
  H 1.842298 0.219362 2.984639
  H 1.852159 1.887644 2.343094
  H 3.960171 0.678449 4.190931
  H 2.696991 1.808528 4.650041
  H 3.971984 2.328014 3.561091
  H 2.477188 -0.590119 -1.755731
  H 5.213141 0.239727 0.248538
  H 6.727491 -0.633913 -1.583101
 23
 141.339411
  C 0.755922 0.114471 0.373541
  C 3.377567 0.193434 0.144033
  C 3.683897 0.662520 1.505675
  C 2.577608 1.009276 2.504400
  C 3.218709 1.385278 3.839146
  C 2.936873 -0.011838 -1.012331
  C 4.661847 0.126242 -0.744540
  C 4.904253 -0.962844 -1.473693
  H 4.239619 -1.679318 -1.938376
  O 6.089181 -1.268842 -1.986724
  H 0.402689 0.457049 1.321283
  H 0.626998 -0.933743 0.179986
  H 0.526716 0.753179 -0.459132
  H 4.295985 1.563533 1.421013
  H 4.273332 -0.131128 1.974447
  H 1.928833 0.152124 2.671429
  H 1.982916 1.849691 2.149914
  H 3.795872 0.555501 4.241267
  H 2.446297 1.633096 4.562830
  H 3.866464 2.253065 3.739762
  H 2.138455 -0.372071 -1.607883
  H 5.418545 0.726836 -0.271883
  H 6.825227 -0.717962 -1.663092
 23
 102.228328
  C 0.273736 0.120118 0.359573
  C 3.551253 0.276387 0.241272
  C 3.929647 0.659496 1.599171
  C 2.715231 0.978704 2.487893
  C 3.170577 1.350245 3.892739
  C 3.017798 0.193257 -0.924164
  C 4.579483 0.091077 -0.998321
  C 5.073600 -1.134285 -1.428062
  H 4.377551 -1.955056 -1.571400
  O 6.245278 -1.358802 -1.902776
  H -0.072691 0.423641 1.321878
  H 0.347053 -0.925247 0.157941
  H 0.174213 0.816669 -0.454449
  H 4.576402 1.528202 1.556512
  H 4.504817 -0.144243 2.050865
  H 2.072934 0.105467 2.530878
  H 2.148220 1.801133 2.048916
  H 3.720048 0.532933 4.349030
  H 2.313746 1.571204 4.519518
  H 3.811099 2.232172 3.875627
  H 2.226017 -0.140992 -1.545466
  H 5.253647 0.968699 -0.916636
  H 6.892774 -0.640503 -1.798103
