 17
 0.000000
  C 1.000195 0.124640 0.360652
  C 2.460875 0.089947 0.274893
  H 3.032238 0.432162 1.126443
  C 3.106296 -0.362922 -0.851837
  C 4.496349 -0.408484 -0.966578
  C 5.203698 -0.857436 -2.086172
  C 4.592917 -1.357106 -3.331596
  H 3.512913 -1.349142 -3.312523
  O 6.509547 -0.860685 -2.095418
  H 0.649647 0.507246 1.313103
  H 0.588271 -0.874027 0.197873
  H 0.588811 0.733836 -0.447551
  H 2.497224 -0.695827 -1.679707
  H 5.073401 -0.066742 -0.116294
  H 4.952776 -2.368373 -3.522389
  H 4.953233 -0.758478 -4.168452
  H 6.938187 -0.534058 -1.281204
 17
 0.569205
  C 0.987928 0.155160 0.354281
  C 2.442116 0.054904 0.250120
  H 3.040565 0.562758 0.995440
  C 3.080187 -0.565858 -0.796404
  C 4.471487 -0.543805 -0.925518
  C 5.190901 -0.884130 -2.074057
  C 4.585607 -1.309242 -3.351050
  H 3.504088 -1.315258 -3.330728
  O 6.493105 -0.795512 -2.105499
  H 0.671527 0.589398 1.296748
  H 0.519143 -0.819521 0.208683
  H 0.602556 0.775340 -0.460047
  H 2.477287 -1.047587 -1.552711
  H 5.034420 -0.177933 -0.074578
  H 4.954468 -2.303497 -3.604968
  H 4.936144 -0.653019 -4.147298
  H 6.919435 -0.538052 -1.265693
 17
 2.201515
  C 1.009228 0.182051 0.301501
  C 2.462419 0.087948 0.208136
  H 3.049489 0.764351 0.815928
  C 3.116481 -0.691830 -0.712274
  C 4.509967 -0.632245 -0.866346
  C 5.205554 -0.891579 -2.046970
  C 4.559719 -1.206036 -3.338135
  H 3.481928 -1.247198 -3.273116
  O 6.504734 -0.787046 -2.109061
  H 0.692506 0.669598 1.216497
  H 0.538342 -0.794759 0.199566
  H 0.634233 0.779718 -0.533772
  H 2.531150 -1.318973 -1.373910
  H 5.079807 -0.272355 -0.017557
  H 4.948373 -2.155819 -3.710105
  H 4.855011 -0.459981 -4.075921
  H 6.957627 -0.625717 -1.257518
 17
 5.654484
  C 1.020184 0.188456 0.215239
  C 2.479445 0.088880 0.137378
  H 3.049856 0.893697 0.587619
  C 3.147491 -0.822552 -0.625511
  C 4.548282 -0.753102 -0.789201
  C 5.206430 -0.895042 -2.007309
  C 4.505936 -1.084946 -3.295886
  H 3.429930 -1.139209 -3.184305
  O 6.501421 -0.765377 -2.114905
  H 0.706299 0.789003 1.065739
  H 0.549157 -0.796132 0.236637
  H 0.643714 0.691793 -0.682329
  H 2.586683 -1.575122 -1.166054
  H 5.132391 -0.463567 0.079672
  H 4.880004 -1.992438 -3.772457
  H 4.766053 -0.269642 -3.971873
  H 6.989372 -0.689439 -1.273219
 17
 10.571461
  C 1.056256 0.186210 0.118090
  C 2.514759 0.070649 0.041848
  H 3.086727 0.930796 0.366942
  C 3.187565 -0.958974 -0.527733
  C 4.603628 -0.899817 -0.710780
  C 5.216000 -0.892328 -1.954004
  C 4.457924 -0.977790 -3.220118
  H 3.388916 -1.034565 -3.058543
  O 6.507474 -0.753812 -2.102288
  H 0.761562 0.903081 0.879917
  H 0.584496 -0.779637 0.289452
  H 0.667601 0.563724 -0.831412
  H 2.641828 -1.801560 -0.936824
  H 5.208228 -0.723144 0.172297
  H 4.800040 -1.850493 -3.776909
  H 4.694333 -0.119606 -3.847427
  H 7.026565 -0.712826 -1.274849
 17
 15.162421
  C 1.062231 0.181588 0.037346
  C 2.527140 0.085133 -0.051617
  H 3.088665 0.983093 0.172275
  C 3.206246 -0.998656 -0.474953
  C 4.629275 -0.975380 -0.671447
  C 5.211965 -0.877565 -1.924112
  C 4.417830 -0.879873 -3.169968
  H 3.353512 -0.920943 -2.976620
  O 6.501756 -0.761573 -2.093223
  H 0.771515 0.964676 0.732754
  H 0.613935 -0.768391 0.320880
  H 0.646798 0.457288 -0.934516
  H 2.669199 -1.898327 -0.760187
  H 5.252774 -0.922972 0.213899
  H 4.722345 -1.733432 -3.777951
  H 4.656656 0.000758 -3.765379
  H 7.038311 -0.754289 -1.278585
 17
 18.764051
  C 1.015100 0.170168 -0.032679
  C 2.490043 0.134054 -0.169446
  H 2.996054 1.086420 -0.079474
  C 3.220086 -0.945442 -0.438779
  C 4.645043 -1.012953 -0.654561
  C 5.225398 -0.864734 -1.913393
  C 4.414721 -0.747120 -3.136853
  H 3.354129 -0.720651 -2.919664
  O 6.514990 -0.818605 -2.089883
  H 0.709118 1.002040 0.595931
  H 0.620371 -0.755952 0.379487
  H 0.560055 0.317864 -1.013358
  H 2.717751 -1.912000 -0.517070
  H 5.276417 -1.176446 0.211900
  H 4.637391 -1.584577 -3.799887
  H 4.713777 0.142252 -3.692175
  H 7.063806 -0.900092 -1.285219
 17
 13.012794
  C 1.029954 0.156137 -0.117525
  C 2.486706 0.109990 -0.324351
  H 2.995475 1.060144 -0.430153
  C 3.227821 -1.019614 -0.362966
  C 4.636238 -1.082325 -0.619882
  C 5.208723 -0.830189 -1.857925
  C 4.392478 -0.640222 -3.073827
  H 3.333171 -0.616911 -2.850062
  O 6.503269 -0.792607 -2.051930
  H 0.729471 1.074707 0.380098
  H 0.664394 -0.704709 0.440002
  H 0.535115 0.139543 -1.093317
  H 2.759294 -1.967938 -0.119950
  H 5.268136 -1.381468 0.207564
  H 4.597700 -1.444019 -3.780526
  H 4.703574 0.275670 -3.577137
  H 7.053642 -0.899230 -1.254026
 17
 10.134539
  C 1.083948 0.183405 -0.233941
  C 2.521117 0.001861 -0.466507
  H 3.074621 0.900538 -0.714334
  C 3.247533 -1.138476 -0.279612
  C 4.637927 -1.198749 -0.580774
  C 5.171359 -0.784186 -1.795987
  C 4.335120 -0.587902 -3.000577
  H 3.277984 -0.689497 -2.790075
  O 6.456606 -0.668081 -2.015567
  H 0.870423 1.166090 0.178333
  H 0.660016 -0.595903 0.395533
  H 0.569760 0.132970 -1.198720
  H 2.774208 -2.034462 0.104287
  H 5.305939 -1.506584 0.213975
  H 4.623912 -1.316925 -3.758551
  H 4.552505 0.386888 -3.437342
  H 7.028773 -0.745075 -1.227083
 17
 10.400693
  C 1.127346 0.212430 -0.265055
  C 2.524494 -0.083707 -0.580930
  H 3.101880 0.766033 -0.926107
  C 3.238032 -1.201877 -0.266154
  C 4.627640 -1.236597 -0.563288
  C 5.137840 -0.741577 -1.759997
  C 4.310206 -0.592664 -2.979218
  H 3.261357 -0.795701 -2.806731
  O 6.411713 -0.543618 -1.981695
  H 1.033793 1.196338 0.189669
  H 0.666524 -0.545739 0.362949
  H 0.563148 0.264725 -1.201176
  H 2.764443 -2.063886 0.181712
  H 5.307503 -1.506887 0.233766
  H 4.687529 -1.278950 -3.739264
  H 4.452091 0.403384 -3.398431
  H 6.993134 -0.611564 -1.200724
