 13
 0.000000
  C 0.985798 0.150181 0.413071
  C 2.427301 0.105801 0.311459
  H 3.026562 0.438611 1.152915
  C 3.082434 -0.348199 -0.821722
  C 4.485423 -0.390361 -0.921348
  C 5.117616 -0.839299 -2.042563
  H 4.559573 -1.181248 -2.903338
  H 6.194901 -0.868532 -2.108421
  H 0.634433 0.543372 1.360749
  H 0.562940 -0.846251 0.236258
  H 0.560292 0.722241 -0.420212
  H 2.500548 -0.686622 -1.672179
  H 5.068976 -0.052981 -0.074230
 13
 2.686196
  C 0.980163 0.196459 0.412987
  C 2.404866 0.106461 0.316436
  H 3.012491 0.416121 1.159564
  C 3.061896 -0.349195 -0.819372
  C 4.474034 -0.398652 -0.916042
  C 5.110796 -0.843751 -2.043360
  H 4.556091 -1.173209 -2.907968
  H 6.185350 -0.881851 -2.103690
  H 0.597667 0.552632 1.360201
  H 0.769751 -0.849130 0.216734
  H 0.506948 0.721056 -0.424757
  H 2.481853 -0.678995 -1.673572
  H 5.057021 -0.070928 -0.064271
 13
 6.781041
  C 0.976842 0.244062 0.394708
  C 2.401138 0.098345 0.324471
  H 3.016734 0.356817 1.178548
  C 3.056694 -0.348178 -0.817829
  C 4.454675 -0.415780 -0.908247
  C 5.088290 -0.830438 -2.040588
  H 4.535527 -1.116489 -2.919928
  H 6.160544 -0.889690 -2.093710
  H 0.575965 0.631776 1.317729
  H 0.951640 -0.853287 0.297409
  H 0.465262 0.633614 -0.490155
  H 2.481318 -0.643432 -1.683345
  H 5.036552 -0.124986 -0.045517
 13
 11.997329
  C 0.969574 0.272962 0.390870
  C 2.388224 0.084536 0.321323
  H 3.002182 0.326103 1.181980
  C 3.047886 -0.353394 -0.824224
  C 4.444403 -0.426778 -0.907312
  C 5.083441 -0.828165 -2.038101
  H 4.536245 -1.100269 -2.925523
  H 6.155824 -0.890370 -2.084686
  H 0.555901 0.663258 1.307663
  H 1.089667 -0.839534 0.325551
  H 0.440500 0.608204 -0.498359
  H 2.476216 -0.634935 -1.697815
  H 5.022258 -0.150182 -0.037426
 13
 15.589974
  C 0.963718 0.304948 0.386787
  C 2.373676 0.067243 0.314551
  H 2.988948 0.286660 1.181528
  C 3.038320 -0.357285 -0.835215
  C 4.437754 -0.441461 -0.908031
  C 5.086134 -0.822420 -2.038991
  H 4.548595 -1.071319 -2.936036
  H 6.156300 -0.890204 -2.075717
  H 0.552966 0.710072 1.286702
  H 1.195140 -0.818236 0.396961
  H 0.408641 0.553967 -0.513312
  H 2.471245 -0.614671 -1.716422
  H 5.010492 -0.187690 -0.026698
 13
 18.017163
  C 0.960645 0.327766 0.377941
  C 2.361306 0.053214 0.306493
  H 2.964399 0.256173 1.178579
  C 3.038474 -0.361045 -0.849686
  C 4.428449 -0.453142 -0.908371
  C 5.090012 -0.818832 -2.040244
  H 4.562141 -1.049728 -2.948569
  H 6.158861 -0.891424 -2.065358
  H 0.545551 0.751052 1.284418
  H 1.282235 -0.796149 0.460619
  H 0.398363 0.506419 -0.515220
  H 2.477765 -0.598990 -1.738496
  H 4.991249 -0.218767 -0.019197
 13
 19.695349
  C 0.957894 0.346458 0.372505
  C 2.354083 0.039392 0.310214
  H 2.958964 0.231711 1.193432
  C 3.033096 -0.361140 -0.852693
  C 4.430256 -0.463775 -0.908282
  C 5.093859 -0.814642 -2.041217
  H 4.568922 -1.027723 -2.954400
  H 6.161920 -0.893976 -2.062710
  H 0.546238 0.779256 1.257552
  H 1.351686 -0.780618 0.518102
  H 0.374691 0.466429 -0.534480
  H 2.468599 -0.579741 -1.748736
  H 4.993340 -0.248556 -0.012103
 13
 20.825784
  C 0.955259 0.363345 0.360385
  C 2.348721 0.025121 0.313498
  H 2.957906 0.218191 1.196162
  C 3.033048 -0.358942 -0.857799
  C 4.429820 -0.478716 -0.906379
  C 5.097575 -0.811461 -2.041368
  H 4.573479 -1.000879 -2.967769
  H 6.170602 -0.897443 -2.058242
  H 0.533048 0.819466 1.241193
  H 1.408622 -0.767052 0.582991
  H 0.364173 0.405414 -0.545116
  H 2.470249 -0.549371 -1.760959
  H 4.990464 -0.288886 -0.002551
 13
 22.550110
  C 0.963778 0.372151 0.355177
  C 2.342637 0.015764 0.318852
  H 2.949527 0.210955 1.194402
  C 3.031651 -0.361501 -0.859581
  C 4.421878 -0.483549 -0.905528
  C 5.090941 -0.810735 -2.042560
  H 4.575494 -0.989328 -2.954502
  H 6.176203 -0.900611 -2.059664
  H 0.536600 0.825044 1.236614
  H 1.459656 -0.759705 0.596140
  H 0.371788 0.390790 -0.551083
  H 2.462963 -0.547341 -1.772844
  H 4.994500 -0.297054 0.020387
 13
 23.909670
  C 0.958782 0.386884 0.349122
  C 2.342602 0.006277 0.326565
  H 2.957012 0.208453 1.210373
  C 3.035623 -0.365589 -0.854618
  C 4.431036 -0.488792 -0.899847
  C 5.103168 -0.810376 -2.036233
  H 4.581096 -0.984934 -2.972563
  H 6.161447 -0.896779 -2.049496
  H 0.527411 0.831170 1.224920
  H 1.497089 -0.764927 0.606023
  H 0.370108 0.386498 -0.555755
  H 2.478209 -0.545597 -1.752707
  H 4.987894 -0.310753 0.004893
 13
 25.254967
  C 0.962312 0.403293 0.344636
  C 2.339923 -0.002595 0.336071
  H 2.956178 0.208914 1.211151
  C 3.032547 -0.374750 -0.848791
  C 4.427810 -0.504953 -0.896350
  C 5.100827 -0.820436 -2.034944
  H 4.592168 -0.962578 -2.952758
  H 6.188107 -0.884202 -2.056926
  H 0.528310 0.845501 1.218394
  H 1.535204 -0.773429 0.620452
  H 0.372725 0.381052 -0.561508
  H 2.469744 -0.551383 -1.751587
  H 4.979621 -0.326741 -0.005469
 13
 26.255918
  C 0.964807 0.420117 0.336036
  C 2.341028 -0.012256 0.342051
  H 2.959326 0.218884 1.208631
  C 3.039752 -0.375917 -0.848501
  C 4.430987 -0.507153 -0.892341
  C 5.104150 -0.815060 -2.032683
  H 4.588678 -0.959091 -2.965096
  H 6.176831 -0.886334 -2.051379
  H 0.520908 0.853861 1.215669
  H 1.578178 -0.797771 0.631697
  H 0.377392 0.376695 -0.566730
  H 2.477736 -0.544312 -1.755462
  H 4.991693 -0.338352 0.019118
 13
 27.359245
  C 0.965754 0.428454 0.332191
  C 2.342480 -0.017040 0.350909
  H 2.960180 0.226211 1.215851
  C 3.044373 -0.368200 -0.846080
  C 4.436465 -0.499426 -0.891313
  C 5.109426 -0.800587 -2.033663
  H 4.589919 -0.969782 -2.962380
  H 6.179508 -0.906553 -2.045774
  H 0.513872 0.849262 1.212995
  H 1.622729 -0.813627 0.634785
  H 0.380977 0.371161 -0.571622
  H 2.482301 -0.524367 -1.753942
  H 4.993713 -0.352279 0.019382
 13
 28.436932
  C 0.969307 0.443105 0.325243
  C 2.346808 -0.028854 0.360156
  H 2.959185 0.226798 1.221507
  C 3.049795 -0.380343 -0.840535
  C 4.439804 -0.518762 -0.885103
  C 5.110060 -0.815043 -2.030263
  H 4.591252 -0.954005 -2.964552
  H 6.180820 -0.889693 -2.051080
  H 0.513717 0.861325 1.201530
  H 1.664365 -0.837239 0.645411
  H 0.384865 0.376713 -0.580044
  H 2.486171 -0.533611 -1.749623
  H 5.002247 -0.363385 0.029254
