 13
 0.000000
  C 0.981240 0.145725 0.414153
  C 2.421856 0.100561 0.302106
  H 3.023272 0.436078 1.137282
  C 3.071429 -0.355561 -0.833633
  C 4.477127 -0.393178 -0.928937
  C 5.127536 -0.838306 -2.038352
  H 4.590858 -1.187618 -2.908101
  H 6.203385 -0.858101 -2.088331
  H 0.643979 0.529883 1.370560
  H 0.552506 -0.846714 0.240945
  H 0.552811 0.742721 -0.397432
  H 2.479850 -0.694101 -1.675694
  H 5.045624 -0.049717 -0.074426
 13
 4.202160
  C 0.970976 0.141111 0.402571
  C 2.403012 0.122608 0.357689
  H 2.967562 0.466655 1.214385
  C 3.107917 -0.322395 -0.750385
  C 4.484861 -0.387154 -0.914291
  C 5.061440 -0.844906 -2.054822
  H 4.471322 -1.181224 -2.891508
  H 6.130543 -0.887124 -2.161162
  H 0.576436 0.516578 1.337387
  H 0.572640 -0.856427 0.190266
  H 0.573318 0.715386 -0.440578
  H 2.718510 -0.688827 -1.661733
  H 5.125548 -0.059846 -0.100821
 13
 14.107926
  C 0.947768 0.138329 0.395791
  C 2.390614 0.136425 0.390680
  H 2.933036 0.485566 1.260344
  C 3.121583 -0.296488 -0.687336
  C 4.493370 -0.384310 -0.907365
  C 5.021950 -0.851908 -2.071412
  H 4.406370 -1.182873 -2.894636
  H 6.090337 -0.908287 -2.212398
  H 0.522869 0.507961 1.318435
  H 0.565209 -0.867695 0.166898
  H 0.564522 0.707873 -0.464244
  H 2.911070 -0.681039 -1.644462
  H 5.195748 -0.073896 -0.135345
 13
 27.511169
  C 0.929466 0.137885 0.394567
  C 2.372765 0.145488 0.414013
  H 2.900141 0.499090 1.294407
  C 3.119389 -0.283594 -0.653917
  C 4.496179 -0.387896 -0.915956
  C 5.000325 -0.858788 -2.088760
  H 4.376138 -1.190384 -2.913335
  H 6.065329 -0.919637 -2.242045
  H 0.488111 0.503941 1.307999
  H 0.556763 -0.871755 0.157891
  H 0.556589 0.705169 -0.473659
  H 3.062902 -0.676690 -1.631575
  H 5.249278 -0.083538 -0.160333
 13
 42.008847
  C 0.917340 0.138656 0.394622
  C 2.361456 0.147394 0.421956
  H 2.881960 0.502157 1.310009
  C 3.108027 -0.279635 -0.641178
  C 4.490897 -0.392497 -0.930532
  C 4.994739 -0.864741 -2.103162
  H 4.382581 -1.198694 -2.928500
  H 6.057091 -0.923070 -2.252614
  H 0.465723 0.506434 1.314320
  H 0.551509 -0.862871 0.156015
  H 0.552358 0.701021 -0.468186
  H 3.181706 -0.673333 -1.618898
  H 5.247523 -0.094532 -0.197112
 13
 49.879153
  C 0.861141 0.176505 0.406877
  C 2.346761 0.077788 0.390617
  H 2.830692 0.354465 1.319473
  C 3.101738 -0.316199 -0.596294
  C 4.479694 -0.388875 -1.036189
  C 5.063006 -0.886362 -2.130802
  H 4.543599 -1.313558 -2.978990
  H 6.139291 -0.869573 -2.225339
  H 0.493254 0.522578 1.363799
  H 0.439894 -0.804951 0.190951
  H 0.510680 0.842734 -0.378657
  H 3.222458 -0.754223 -1.594875
  H 5.190387 0.052756 -0.307209
 13
 55.991041
  C 0.852028 0.177245 0.401053
  C 2.339577 0.072292 0.414082
  H 2.802043 0.330772 1.373761
  C 3.111353 -0.307754 -0.564777
  C 4.486338 -0.387951 -1.069670
  C 5.076373 -0.902911 -2.152826
  H 4.562009 -1.362768 -2.994845
  H 6.134638 -0.865005 -2.247051
  H 0.471159 0.514880 1.365530
  H 0.421438 -0.792639 0.170520
  H 0.533791 0.866841 -0.370952
  H 3.289060 -0.739356 -1.568822
  H 5.179095 0.093294 -0.346139
 13
 61.289098
  C 0.850975 0.181633 0.402131
  C 2.338501 0.061108 0.439019
  H 2.791278 0.282907 1.408215
  C 3.104556 -0.302061 -0.541777
  C 4.484689 -0.376349 -1.095161
  C 5.076011 -0.919595 -2.161674
  H 4.567458 -1.413094 -2.959451
  H 6.162375 -0.859471 -2.271027
  H 0.464195 0.496547 1.358020
  H 0.407978 -0.775157 0.140039
  H 0.552107 0.900419 -0.362280
  H 3.336585 -0.716427 -1.555728
  H 5.158649 0.143463 -0.403689
 13
 65.645379
  C 0.847401 0.189543 0.409171
  C 2.334215 0.049154 0.450034
  H 2.784397 0.233506 1.420640
  C 3.095934 -0.300801 -0.540930
  C 4.485140 -0.364108 -1.118260
  C 5.097608 -0.934800 -2.163158
  H 4.596034 -1.481380 -2.955663
  H 6.160344 -0.848428 -2.267320
  H 0.458626 0.487382 1.376683
  H 0.391380 -0.754111 0.119578
  H 0.561732 0.931455 -0.339138
  H 3.385772 -0.695821 -1.570617
  H 5.139781 0.201645 -0.442803
 13
 68.624404
  C 0.844801 0.201754 0.418863
  C 2.329793 0.024447 0.449615
  H 2.785494 0.146305 1.437392
  C 3.082795 -0.303123 -0.552803
  C 4.470642 -0.345049 -1.149923
  C 5.115777 -0.962134 -2.153340
  H 4.644811 -1.567072 -2.910438
  H 6.181684 -0.834418 -2.259098
  H 0.464920 0.468778 1.398613
  H 0.367226 -0.715159 0.092505
  H 0.576906 0.978454 -0.293294
  H 3.419145 -0.666888 -1.604646
  H 5.100670 0.299452 -0.514065
 13
 71.187346
  C 0.849551 0.207537 0.420553
  C 2.333179 0.012033 0.460784
  H 2.781663 0.097402 1.454404
  C 3.091571 -0.297232 -0.539310
  C 4.463940 -0.330991 -1.167052
  C 5.124434 -0.976169 -2.150667
  H 4.663497 -1.618447 -2.882284
  H 6.188011 -0.827270 -2.262038
  H 0.463739 0.453441 1.402827
  H 0.360588 -0.696063 0.063825
  H 0.598453 1.004978 -0.270492
  H 3.449656 -0.644015 -1.617922
  H 5.074683 0.361969 -0.566064
 13
 71.325785
  C 0.865161 0.209650 0.409739
  C 2.343855 -0.011058 0.494681
  H 2.757425 0.016041 1.500489
  C 3.136604 -0.287875 -0.486600
  C 4.455089 -0.307027 -1.181484
  C 5.126512 -1.002157 -2.137065
  H 4.665661 -1.695263 -2.829211
  H 6.169623 -0.807574 -2.289375
  H 0.448788 0.420043 1.389150
  H 0.375577 -0.663620 -0.003344
  H 0.651668 1.049147 -0.256449
  H 3.470485 -0.613265 -1.617717
  H 5.036315 0.465779 -0.666134
 13
 69.802617
  C 0.877765 0.208348 0.392490
  C 2.354995 -0.015541 0.523401
  H 2.730690 -0.049840 1.541889
  C 3.186349 -0.253167 -0.430678
  C 4.455190 -0.270550 -1.200243
  C 5.118769 -1.032849 -2.124082
  H 4.645109 -1.760212 -2.769627
  H 6.151819 -0.822625 -2.324829
  H 0.427326 0.378227 1.364771
  H 0.401917 -0.653841 -0.074322
  H 0.687060 1.070566 -0.240571
  H 3.482000 -0.543691 -1.639027
  H 5.021757 0.555990 -0.755742
