 22
 0.000000
  H 1.455669 0.168056 0.469293
  C 2.536469 0.151195 0.427116
  C 3.283321 0.620892 1.595823
  C 2.409738 1.085159 2.752042
  H 3.024397 1.418803 3.582398
  C 3.096615 -0.319388 -0.744606
  C 4.477385 -0.418779 -0.992510
  C 5.101621 -0.874592 -2.128683
  C 4.601024 -1.386651 -3.405104
  C 3.114194 -1.500459 -3.689654
  H 2.970362 -1.901380 -4.688964
  H 6.185010 -0.863669 -2.101458
  H 3.950489 1.437445 1.291338
  H 3.950834 -0.179060 1.940816
  H 1.769797 0.278582 3.102546
  H 1.769495 1.909831 2.447336
  H 2.412399 -0.629501 -1.516712
  H 5.139463 -0.099548 -0.197356
  H 5.069410 -2.372122 -3.541454
  H 5.069915 -0.769083 -4.184832
  H 2.629648 -0.527863 -3.648269
  H 2.629238 -2.174488 -2.987616
 22
 0.014251
  H 1.480809 0.493488 0.385942
  C 2.551164 0.338184 0.344954
  C 3.288378 0.574611 1.588072
  C 2.406499 0.960215 2.765371
  H 3.009509 1.128913 3.653057
  C 3.086827 -0.077929 -0.853104
  C 4.468149 -0.226715 -1.079544
  C 5.101477 -0.742822 -2.185797
  C 4.599545 -1.420612 -3.379708
  C 3.112853 -1.609955 -3.614004
  H 2.964995 -2.175140 -4.530984
  H 6.183658 -0.681449 -2.167096
  H 4.033794 1.362965 1.416333
  H 3.881983 -0.311686 1.843331
  H 1.690401 0.172598 2.988151
  H 1.850735 1.870839 2.554257
  H 2.399941 -0.268150 -1.660593
  H 5.114987 0.137576 -0.291769
  H 5.097343 -2.402393 -3.397676
  H 5.048653 -0.912515 -4.245431
  H 2.606081 -0.655387 -3.733143
  H 2.650921 -2.165439 -2.801384
 22
 1.100961
  H 1.531004 0.817018 0.296175
  C 2.573748 0.532363 0.244190
  C 3.282867 0.463373 1.525684
  C 2.398600 0.731716 2.733890
  H 2.980552 0.678450 3.649735
  C 3.105111 0.215691 -0.982091
  C 4.481571 -0.013535 -1.185599
  C 5.119633 -0.615174 -2.239742
  C 4.597907 -1.498952 -3.282270
  C 3.104837 -1.743405 -3.391767
  H 2.914717 -2.467739 -4.179732
  H 6.196716 -0.501024 -2.270068
  H 4.107919 1.188909 1.512762
  H 3.773032 -0.510933 1.633161
  H 1.598744 -0.002085 2.799847
  H 1.947280 1.719407 2.675349
  H 2.439069 0.201924 -1.830171
  H 5.109076 0.426656 -0.419369
  H 5.118446 -2.459612 -3.150991
  H 4.989497 -1.138185 -4.243649
  H 2.573351 -0.831707 -3.649369
  H 2.698941 -2.139481 -2.463670
 22
 3.388964
  H 1.576039 1.019085 0.218298
  C 2.598265 0.674884 0.138618
  C 3.282180 0.374346 1.402062
  C 2.382735 0.439688 2.625173
  H 2.954200 0.245430 3.528494
  C 3.153808 0.500053 -1.098672
  C 4.534425 0.258590 -1.324499
  C 5.141072 -0.473073 -2.303506
  C 4.571269 -1.543523 -3.127588
  C 3.074760 -1.783573 -3.080603
  H 2.824489 -2.638959 -3.702116
  H 6.209943 -0.346003 -2.419857
  H 4.105070 1.095956 1.514390
  H 3.779926 -0.599119 1.352683
  H 1.591132 -0.303837 2.562273
  H 1.919191 1.419124 2.718480
  H 2.512371 0.612420 -1.961840
  H 5.181480 0.858163 -0.690761
  H 5.105391 -2.465551 -2.857156
  H 4.888634 -1.362207 -4.163832
  H 2.525531 -0.927411 -3.459393
  H 2.738671 -1.992101 -2.067300
 22
 6.246762
  H 1.547782 0.972667 0.191193
  C 2.585944 0.702755 0.047292
  C 3.333801 0.296257 1.246789
  C 2.476897 0.135398 2.490094
  H 3.093536 -0.118931 3.347649
  C 3.111432 0.706304 -1.209871
  C 4.505143 0.555908 -1.509740
  C 5.128569 -0.352179 -2.298130
  C 4.540710 -1.568104 -2.883450
  C 3.034333 -1.716759 -2.833915
  H 2.744563 -2.665303 -3.280879
  H 6.197526 -0.255729 -2.431931
  H 4.101110 1.066363 1.424819
  H 3.908329 -0.617265 1.064042
  H 1.747366 -0.659271 2.354638
  H 1.937244 1.052054 2.715966
  H 2.445347 0.897671 -2.043098
  H 5.116874 1.316734 -1.021668
  H 5.028426 -2.432175 -2.412881
  H 4.878559 -1.612743 -3.928262
  H 2.543063 -0.922096 -3.384164
  H 2.667940 -1.704558 -1.807342
 22
 10.759724
  H 1.512840 0.837841 0.205135
  C 2.559559 0.664363 -0.002220
  C 3.399302 0.233344 1.125809
  C 2.627264 -0.072061 2.393900
  H 3.302603 -0.372311 3.187792
  C 3.005559 0.818230 -1.279226
  C 4.394796 0.724421 -1.668308
  C 5.093612 -0.261678 -2.241068
  C 4.529617 -1.550681 -2.702613
  C 3.020080 -1.668564 -2.668023
  H 2.717152 -2.661079 -2.986898
  H 6.160594 -0.150900 -2.360649
  H 4.124625 1.035203 1.319021
  H 4.021878 -0.620965 0.848061
  H 1.920683 -0.883124 2.229489
  H 2.066824 0.796134 2.731051
  H 2.291460 1.089060 -2.048300
  H 4.887132 1.641788 -1.342992
  H 5.000103 -2.360269 -2.134653
  H 4.875909 -1.685792 -3.735248
  H 2.557559 -0.942409 -3.328325
  H 2.631578 -1.515861 -1.658935
 22
 18.525475
  H 1.546045 1.056738 0.271697
  C 2.551834 0.751143 0.009659
  C 3.386901 0.233664 1.099701
  C 2.616983 -0.124646 2.361615
  H 3.295353 -0.477754 3.134044
  C 2.986461 0.958156 -1.274677
  C 4.317835 0.694026 -1.732241
  C 5.065345 -0.210116 -2.306927
  C 4.572927 -1.556995 -2.766714
  C 3.090997 -1.800061 -2.539469
  H 2.818783 -2.776954 -2.933871
  H 6.113913 -0.026848 -2.494989
  H 4.164356 0.971690 1.349416
  H 3.959681 -0.630438 0.734265
  H 1.890257 -0.909290 2.160600
  H 2.079537 0.736368 2.753228
  H 2.291673 1.362892 -2.002644
  H 4.636490 1.730556 -1.442230
  H 5.165390 -2.311649 -2.241231
  H 4.807626 -1.643847 -3.829914
  H 2.491007 -1.054338 -3.055337
  H 2.841185 -1.785295 -1.482559
 22
 31.646249
  H 1.621115 1.294906 0.343767
  C 2.600290 0.902399 0.091714
  C 3.368770 0.221657 1.151777
  C 2.555898 -0.058771 2.410336
  H 3.168950 -0.558171 3.154941
  C 3.040956 1.083617 -1.222062
  C 4.235294 0.584236 -1.762461
  C 5.024597 -0.226962 -2.389415
  C 4.630771 -1.598041 -2.864261
  C 3.173589 -1.954142 -2.599607
  H 2.965068 -2.948959 -2.985309
  H 6.038827 0.055153 -2.632115
  H 4.243533 0.832241 1.421517
  H 3.793664 -0.709362 0.754185
  H 1.707662 -0.700996 2.185256
  H 2.177857 0.863308 2.847634
  H 2.362714 1.582579 -1.905585
  H 4.413365 1.705060 -1.336831
  H 5.292206 -2.320325 -2.375809
  H 4.841438 -1.646475 -3.935183
  H 2.505038 -1.251599 -3.095449
  H 2.955750 -1.953604 -1.533466
 22
 38.848996
  H 1.684514 1.491276 0.527603
  C 2.612162 1.045420 0.206873
  C 3.389938 0.254319 1.169932
  C 2.621564 -0.060758 2.449999
  H 3.242842 -0.631599 3.135023
  C 3.009463 1.225043 -1.153537
  C 4.019753 0.468567 -1.772244
  C 4.911091 -0.242925 -2.360271
  C 4.681497 -1.631169 -2.900354
  C 3.252615 -2.122954 -2.726671
  H 3.156440 -3.125215 -3.135646
  H 5.924491 0.117840 -2.507474
  H 4.307940 0.795813 1.437222
  H 3.734083 -0.672683 0.694844
  H 1.732207 -0.646762 2.231378
  H 2.313908 0.852328 2.954067
  H 2.276841 1.693508 -1.807814
  H 3.999385 1.861748 -1.230081
  H 5.377592 -2.300406 -2.390669
  H 4.952891 -1.622500 -3.957656
  H 2.554442 -1.474718 -3.248987
  H 2.977028 -2.156771 -1.676185
 22
 36.579284
  H 1.722921 1.539833 0.594740
  C 2.631909 1.080822 0.244252
  C 3.409483 0.243268 1.158750
  C 2.668337 -0.097220 2.447326
  H 3.293199 -0.706901 3.093988
  C 3.022163 1.293369 -1.136584
  C 3.962952 0.457192 -1.771904
  C 4.865694 -0.251545 -2.332493
  C 4.680916 -1.639459 -2.898117
  C 3.253103 -2.151860 -2.783716
  H 3.186402 -3.150820 -3.206841
  H 5.879801 0.122262 -2.453487
  H 4.345384 0.756410 1.419301
  H 3.724683 -0.672700 0.643245
  H 1.759034 -0.653271 2.233660
  H 2.398196 0.804577 2.990972
  H 2.243179 1.695946 -1.784395
  H 3.819287 2.082871 -1.082032
  H 5.366369 -2.302280 -2.365964
  H 4.992213 -1.616624 -3.944060
  H 2.566453 -1.506788 -3.325505
  H 2.938235 -2.200884 -1.744475
 22
 34.234204
  H 1.811122 1.657935 0.654513
  C 2.652132 1.111231 0.254626
  C 3.383184 0.188742 1.113901
  C 2.701740 -0.086036 2.447833
  H 3.302770 -0.764641 3.047913
  C 3.025494 1.328585 -1.138119
  C 3.944971 0.462338 -1.758202
  C 4.857961 -0.263467 -2.275732
  C 4.703505 -1.646178 -2.859777
  C 3.271426 -2.158201 -2.814873
  H 3.224200 -3.154400 -3.245494
  H 5.880254 0.106239 -2.350319
  H 4.388642 0.600490 1.304665
  H 3.571393 -0.750023 0.570290
  H 1.725693 -0.543193 2.295434
  H 2.564689 0.834247 3.012504
  H 2.170833 1.575020 -1.778674
  H 3.604716 2.280534 -1.115952
  H 5.363296 -2.313205 -2.300838
  H 5.061834 -1.616599 -3.889962
  H 2.611944 -1.510711 -3.384884
  H 2.908116 -2.212512 -1.792193
 22
 33.742263
  H 1.837232 1.686326 0.667422
  C 2.653829 1.114353 0.260642
  C 3.366935 0.170267 1.112032
  C 2.706809 -0.071315 2.463895
  H 3.295028 -0.768151 3.054287
  C 3.022583 1.325686 -1.134366
  C 3.949749 0.461442 -1.750664
  C 4.863506 -0.263931 -2.266600
  C 4.713286 -1.643726 -2.862406
  C 3.281576 -2.156744 -2.829733
  H 3.237621 -3.150753 -3.267295
  H 5.885724 0.106377 -2.331397
  H 4.389144 0.541999 1.272485
  H 3.506291 -0.775108 0.571609
  H 1.712294 -0.491508 2.337544
  H 2.617705 0.855519 3.024796
  H 2.154136 1.529909 -1.771969
  H 3.552372 2.300144 -1.147897
  H 5.369985 -2.314838 -2.305299
  H 5.077324 -1.606278 -3.890661
  H 2.624786 -1.505476 -3.400348
  H 2.912000 -2.217997 -1.809416
