 22
 0.000000
  C 0.931696 0.046846 0.295357
  C 2.418017 0.063754 0.062382
  C 3.237469 -0.009389 1.329696
  H 2.601086 -0.055173 2.206223
  C 3.003446 0.130421 -1.149209
  C 2.352255 0.206477 -2.515726
  C 0.838993 0.217896 -2.697526
  H 0.622912 0.276910 -3.761396
  C 4.464715 0.134929 -1.237191
  C 5.208987 0.195408 -2.337179
  H 6.284115 0.191944 -2.281565
  H 0.709713 -0.009201 1.358091
  H 0.471187 -0.816345 -0.178167
  H 0.459629 0.949250 -0.084055
  H 3.882670 0.863418 1.428754
  H 3.875375 -0.893151 1.331549
  H 2.740620 -0.642145 -3.089171
  H 2.741970 1.112551 -2.992217
  H 0.381176 1.077294 -2.218243
  H 0.379355 -0.688073 -2.315814
  H 4.997647 0.082940 -0.300178
  H 4.819894 0.250765 -3.338550
 22
 5.868430
  C 0.943700 0.064281 0.305300
  C 2.391141 0.067209 0.068349
  C 3.234570 0.008391 1.341844
  H 2.587966 -0.068572 2.212411
  C 2.991769 0.131493 -1.146744
  C 2.339490 0.209074 -2.509247
  C 0.826212 0.244064 -2.688200
  H 0.614287 0.301785 -3.755022
  C 4.455398 0.114950 -1.238283
  C 5.198619 0.168722 -2.338343
  H 6.273538 0.157568 -2.270459
  H 0.677777 -0.034840 1.344754
  H 0.761548 -0.843801 -0.232752
  H 0.410265 0.900601 -0.116992
  H 3.839011 0.908920 1.450077
  H 3.897622 -0.856225 1.338228
  H 2.715815 -0.648693 -3.078101
  H 2.741336 1.107964 -2.989288
  H 0.382252 1.117786 -2.218804
  H 0.344365 -0.652342 -2.308367
  H 4.986089 0.059475 -0.303050
  H 4.802100 0.228135 -3.336394
 22
 17.843797
  C 0.939835 0.062018 0.292007
  C 2.377450 0.071464 0.059302
  C 3.237953 0.019933 1.364310
  H 2.584185 -0.084276 2.227055
  C 2.982953 0.131996 -1.145482
  C 2.329410 0.203640 -2.504620
  C 0.815982 0.271593 -2.676853
  H 0.601792 0.316460 -3.741887
  C 4.442174 0.107424 -1.235964
  C 5.190707 0.150925 -2.342401
  H 6.263994 0.132112 -2.272497
  H 0.643514 -0.084390 1.322955
  H 1.000095 -0.842030 -0.279042
  H 0.355739 0.860249 -0.173242
  H 3.813316 0.946910 1.480643
  H 3.932008 -0.829591 1.357218
  H 2.686687 -0.668628 -3.064074
  H 2.746591 1.088011 -2.997393
  H 0.396303 1.169288 -2.221447
  H 0.309306 -0.604440 -2.278001
  H 4.973983 0.055486 -0.294520
  H 4.794666 0.206999 -3.337230
 22
 31.759187
  C 0.921031 0.067782 0.334660
  C 2.362881 0.073801 0.063504
  C 3.241004 0.016897 1.344694
  H 2.606895 -0.108456 2.217700
  C 2.972613 0.134398 -1.142777
  C 2.332961 0.202662 -2.509918
  C 0.814937 0.290265 -2.703945
  H 0.616045 0.324182 -3.777257
  C 4.412801 0.103365 -1.219390
  C 5.165965 0.138497 -2.319776
  H 6.246791 0.119917 -2.247248
  H 0.642739 -0.094266 1.354712
  H 1.177239 -0.812191 -0.226743
  H 0.305129 0.801165 -0.143268
  H 3.797862 0.959275 1.452341
  H 3.952705 -0.815517 1.318686
  H 2.690598 -0.687920 -3.061325
  H 2.771681 1.083198 -3.010399
  H 0.404719 1.204667 -2.267461
  H 0.288448 -0.574088 -2.299980
  H 4.937757 0.056014 -0.281153
  H 4.770734 0.190595 -3.331051
 22
 44.256320
  C 0.911147 0.095001 0.332697
  C 2.349595 0.068417 0.046766
  C 3.217312 0.002194 1.327903
  H 2.587291 -0.126118 2.193404
  C 2.975735 0.132726 -1.157214
  C 2.327353 0.204776 -2.517043
  C 0.808460 0.285667 -2.676515
  H 0.580631 0.321754 -3.741025
  C 4.437367 0.103892 -1.226305
  C 5.197147 0.136908 -2.317773
  H 6.273503 0.115498 -2.236629
  H 0.630852 -0.060467 1.357122
  H 1.299865 -0.778599 -0.200532
  H 0.272210 0.786263 -0.176294
  H 3.764262 0.937580 1.438837
  H 3.923309 -0.820954 1.302040
  H 2.677298 -0.679894 -3.075446
  H 2.751938 1.085446 -3.023026
  H 0.407191 1.195757 -2.228348
  H 0.299438 -0.582006 -2.262457
  H 4.958513 0.059100 -0.289105
  H 4.815897 0.182345 -3.327028
 22
 52.596661
  C 0.902140 0.121915 0.349720
  C 2.348581 0.061275 0.046008
  C 3.209578 -0.015202 1.334224
  H 2.574107 -0.146772 2.199691
  C 2.982760 0.133105 -1.163218
  C 2.339712 0.207888 -2.525644
  C 0.828650 0.283950 -2.683974
  H 0.601136 0.317558 -3.739345
  C 4.419231 0.105308 -1.230662
  C 5.175382 0.136714 -2.333179
  H 6.241386 0.122468 -2.259035
  H 0.626464 -0.013739 1.377540
  H 1.402517 -0.766125 -0.145747
  H 0.243280 0.762164 -0.200999
  H 3.754222 0.917283 1.452656
  H 3.917781 -0.839291 1.307408
  H 2.688066 -0.669506 -3.081593
  H 2.761804 1.084235 -3.028031
  H 0.426035 1.191723 -2.237775
  H 0.324499 -0.583799 -2.267876
  H 4.947973 0.065978 -0.285417
  H 4.786179 0.178165 -3.334445
 22
 58.804581
  C 0.896738 0.152085 0.356031
  C 2.344528 0.053749 0.041450
  C 3.202549 -0.033095 1.331856
  H 2.573548 -0.166257 2.192870
  C 2.984586 0.133538 -1.171642
  C 2.329328 0.212740 -2.539307
  C 0.815433 0.279961 -2.680916
  H 0.572141 0.312382 -3.740492
  C 4.435706 0.110567 -1.230930
  C 5.202198 0.138460 -2.323380
  H 6.274174 0.120216 -2.235031
  H 0.624508 0.037994 1.382902
  H 1.480807 -0.759893 -0.095637
  H 0.223350 0.737517 -0.237475
  H 3.752959 0.899287 1.459493
  H 3.911417 -0.861192 1.301585
  H 2.672101 -0.654776 -3.098074
  H 2.740684 1.089710 -3.042271
  H 0.411302 1.187168 -2.228098
  H 0.323303 -0.592982 -2.257350
  H 4.951220 0.076099 -0.294654
  H 4.820853 0.170050 -3.329616
 22
 63.370346
  C 0.899723 0.188526 0.362294
  C 2.344927 0.049408 0.043374
  C 3.200637 -0.053357 1.333515
  H 2.557763 -0.193292 2.200232
  C 2.990632 0.136979 -1.175818
  C 2.335615 0.214791 -2.543034
  C 0.813219 0.274250 -2.685003
  H 0.569495 0.299031 -3.741660
  C 4.434790 0.117266 -1.234044
  C 5.198384 0.144051 -2.329273
  H 6.266666 0.127806 -2.245247
  H 0.618632 0.093770 1.400171
  H 1.546607 -0.753970 -0.054487
  H 0.221330 0.715798 -0.265609
  H 3.752636 0.869263 1.468634
  H 3.898100 -0.879392 1.291689
  H 2.686442 -0.659832 -3.107737
  H 2.745753 1.096352 -3.047832
  H 0.402803 1.185055 -2.236141
  H 0.323714 -0.602922 -2.254055
  H 4.965326 0.086846 -0.273960
  H 4.814689 0.170685 -3.330242
 22
 67.019127
  C 0.892980 0.228408 0.371588
  C 2.338818 0.042093 0.047569
  C 3.205102 -0.075146 1.343016
  H 2.565158 -0.215309 2.201578
  C 2.988116 0.133995 -1.177030
  C 2.337515 0.211587 -2.538601
  C 0.827335 0.266417 -2.684763
  H 0.587645 0.283492 -3.740108
  C 4.425503 0.110054 -1.235060
  C 5.192678 0.144325 -2.331101
  H 6.270310 0.158667 -2.245257
  H 0.606515 0.152916 1.401699
  H 1.586089 -0.754367 -0.019993
  H 0.204736 0.703513 -0.289837
  H 3.768601 0.848138 1.482683
  H 3.893383 -0.908648 1.287586
  H 2.688855 -0.659152 -3.099538
  H 2.745078 1.087984 -3.040759
  H 0.416845 1.171213 -2.247976
  H 0.343227 -0.602356 -2.252144
  H 4.943398 0.090587 -0.298592
  H 4.806998 0.184299 -3.340238
 22
 70.133981
  C 0.905305 0.270850 0.378024
  C 2.341172 0.038386 0.048985
  C 3.208383 -0.093064 1.342764
  H 2.559462 -0.239599 2.211796
  C 2.993007 0.143982 -1.179257
  C 2.332443 0.219668 -2.551285
  C 0.817221 0.252697 -2.692700
  H 0.572093 0.267036 -3.753785
  C 4.427391 0.127978 -1.230437
  C 5.200371 0.154982 -2.320631
  H 6.282990 0.141467 -2.228010
  H 0.609917 0.195600 1.415524
  H 1.630015 -0.753181 -0.001467
  H 0.215901 0.700511 -0.303344
  H 3.779166 0.822459 1.492310
  H 3.888952 -0.930583 1.275857
  H 2.693185 -0.641942 -3.118136
  H 2.724662 1.102400 -3.049795
  H 0.393783 1.153672 -2.252686
  H 0.346306 -0.628965 -2.256837
  H 4.948259 0.099943 -0.280351
  H 4.820360 0.174424 -3.338103
 22
 72.318754
  C 0.907155 0.312309 0.393207
  C 2.338747 0.029294 0.056124
  C 3.216179 -0.110113 1.352499
  H 2.578522 -0.255109 2.202589
  C 2.992248 0.143759 -1.176855
  C 2.338308 0.218043 -2.545950
  C 0.816707 0.244389 -2.699126
  H 0.577480 0.249982 -3.764678
  C 4.423721 0.123768 -1.228475
  C 5.198169 0.155928 -2.323555
  H 6.261400 0.155159 -2.235521
  H 0.611698 0.230116 1.404597
  H 1.659591 -0.766064 0.019180
  H 0.196581 0.700482 -0.313252
  H 3.790312 0.803588 1.504208
  H 3.893303 -0.954496 1.276857
  H 2.709265 -0.650000 -3.116792
  H 2.735070 1.109891 -3.046174
  H 0.387987 1.143096 -2.270586
  H 0.347522 -0.633094 -2.261415
  H 4.940492 0.098456 -0.286845
  H 4.826423 0.182479 -3.316008
 22
 72.568260
  C 0.927056 0.409735 0.395056
  C 2.331075 0.021294 0.052201
  C 3.214314 -0.142381 1.352222
  H 2.566865 -0.289680 2.214159
  C 2.995705 0.157035 -1.183726
  C 2.340583 0.223483 -2.547058
  C 0.822916 0.213435 -2.693524
  H 0.578923 0.197661 -3.758722
  C 4.426673 0.134464 -1.231545
  C 5.203085 0.170262 -2.324721
  H 6.277095 0.161406 -2.233377
  H 0.601320 0.283716 1.412127
  H 1.672387 -0.782059 0.015126
  H 0.209678 0.735359 -0.322971
  H 3.796640 0.751833 1.513328
  H 3.877259 -0.995560 1.262458
  H 2.727325 -0.630989 -3.119338
  H 2.715934 1.123635 -3.045443
  H 0.375045 1.108206 -2.275637
  H 0.376416 -0.669747 -2.239996
  H 4.945484 0.099957 -0.283560
  H 4.828058 0.195620 -3.329182
 22
 72.461385
  C 0.957889 0.519541 0.405624
  C 2.325437 0.014089 0.053621
  C 3.209587 -0.189120 1.348096
  H 2.559339 -0.339450 2.209280
  C 3.000282 0.165345 -1.187664
  C 2.341888 0.220480 -2.547387
  C 0.823621 0.164790 -2.687867
  H 0.576555 0.120833 -3.747729
  C 4.426261 0.141826 -1.228793
  C 5.209504 0.187485 -2.319542
  H 6.282847 0.183537 -2.222717
  H 0.599751 0.336155 1.404450
  H 1.676757 -0.787023 -0.005399
  H 0.243476 0.831091 -0.323669
  H 3.810962 0.687794 1.525308
  H 3.853244 -1.056222 1.237784
  H 2.747704 -0.617031 -3.119420
  H 2.691972 1.133536 -3.047364
  H 0.350507 1.053318 -2.285938
  H 0.404407 -0.721378 -2.214564
  H 4.938760 0.102230 -0.282011
  H 4.838042 0.220242 -3.326685
 22
 71.502608
  C 1.006633 0.646859 0.413158
  C 2.319399 0.001642 0.052293
  C 3.197789 -0.254169 1.343258
  H 2.543994 -0.399160 2.196353
  C 3.008141 0.156055 -1.192603
  C 2.341625 0.204157 -2.550558
  C 0.820776 0.098432 -2.677481
  H 0.566333 0.028418 -3.727730
  C 4.426927 0.131607 -1.226263
  C 5.216346 0.204576 -2.313687
  H 6.287613 0.244980 -2.209736
  H 0.600931 0.414454 1.384184
  H 1.666870 -0.788713 -0.034126
  H 0.310127 0.976297 -0.328065
  H 3.832004 0.602894 1.540188
  H 3.810034 -1.139428 1.213723
  H 2.765552 -0.615389 -3.127406
  H 2.662339 1.130863 -3.050227
  H 0.320267 0.975788 -2.285784
  H 0.435053 -0.790446 -2.184580
  H 4.933501 0.106419 -0.277290
  H 4.846987 0.276297 -3.320707
