 20
 0.000000
  C 1.009068 0.117710 0.342043
  C 2.481960 0.115596 0.340945
  C 3.210639 0.593339 1.530541
  H 2.530830 0.908803 2.314119
  C 3.133124 -0.340885 -0.793628
  C 4.517639 -0.400626 -0.943876
  C 5.190075 -0.854153 -2.077464
  C 4.551122 -1.351056 -3.313848
  H 3.472061 -1.335939 -3.272613
  O 6.498082 -0.868894 -2.120600
  H 0.596506 0.492027 1.272337
  H 0.630343 -0.889653 0.163922
  H 0.632372 0.722836 -0.483719
  H 3.858680 1.431581 1.272597
  H 3.857674 -0.190837 1.924883
  H 2.508662 -0.668882 -1.610409
  H 5.129335 -0.068113 -0.115912
  H 4.897319 -2.365974 -3.509141
  H 4.895320 -0.751923 -4.156873
  H 6.942654 -0.544112 -1.314436
 20
 0.237703
  C 1.025058 0.259915 0.291253
  C 2.496175 0.145638 0.329497
  C 3.201266 0.476486 1.580954
  H 2.528756 0.418320 2.431969
  C 3.142591 -0.347675 -0.795672
  C 4.525529 -0.366288 -0.970720
  C 5.193034 -0.845356 -2.095482
  C 4.550832 -1.450091 -3.281263
  H 3.472764 -1.497185 -3.206096
  O 6.500830 -0.790555 -2.176307
  H 0.624706 0.705230 1.196284
  H 0.581327 -0.728403 0.159476
  H 0.708449 0.848167 -0.570506
  H 3.569320 1.504721 1.534492
  H 4.059864 -0.167644 1.750408
  H 2.513565 -0.697045 -1.601010
  H 5.137570 0.042232 -0.177593
  H 4.951590 -2.453032 -3.428336
  H 4.833273 -0.881900 -4.167627
  H 6.946493 -0.393819 -1.404899
 20
 4.144041
  C 1.070793 0.456083 0.226396
  C 2.544036 0.245414 0.316653
  C 3.161508 0.311768 1.654456
  H 2.449865 -0.026949 2.405759
  C 3.162970 -0.355877 -0.772797
  C 4.529297 -0.263074 -1.035100
  C 5.186949 -0.814579 -2.132028
  C 4.548703 -1.606094 -3.203637
  H 3.481649 -1.720129 -3.071898
  O 6.475244 -0.660672 -2.291432
  H 0.673560 0.877291 1.144957
  H 0.573985 -0.493121 0.028758
  H 0.831134 1.124875 -0.600227
  H 3.399983 1.348710 1.912142
  H 4.077825 -0.268100 1.717210
  H 2.523867 -0.851334 -1.489617
  H 5.126724 0.312374 -0.339960
  H 5.018927 -2.588552 -3.247556
  H 4.751469 -1.131985 -4.164302
  H 6.916001 -0.140147 -1.596274
 20
 29.277713
  C 1.309781 0.485012 0.058804
  C 2.848379 0.331949 0.461740
  C 2.913803 0.287002 1.925088
  H 1.946112 0.046455 2.358067
  C 3.370609 -0.323325 -0.649131
  C 4.678641 -0.199659 -1.112785
  C 5.183816 -0.784684 -2.270663
  C 4.433532 -1.671642 -3.185482
  H 3.411451 -1.839710 -2.878226
  O 6.424917 -0.584270 -2.643608
  H 0.797299 0.891921 0.925808
  H 0.917851 -0.491865 -0.182739
  H 1.252817 1.188038 -0.766786
  H 3.188583 1.266453 2.326889
  H 3.648921 -0.445429 2.267208
  H 2.680895 -0.885531 -1.253141
  H 5.341059 0.437597 -0.539813
  H 4.953941 -2.625307 -3.258597
  H 4.444332 -1.239050 -4.185832
  H 6.937819 0.003163 -2.050619
 20
 75.157564
  C 1.277097 0.332119 -0.065280
  C 3.135462 0.251519 0.659899
  C 2.841486 0.400518 2.065861
  H 1.788330 0.444853 2.319584
  C 3.512547 -0.361601 -0.511462
  C 4.802846 -0.253467 -1.087367
  C 5.173859 -0.797986 -2.303933
  C 4.299900 -1.580621 -3.217136
  H 3.293678 -1.716971 -2.829332
  O 6.392158 -0.635850 -2.778090
  H 0.741031 0.726038 0.778177
  H 0.992210 -0.671663 -0.322885
  H 1.331564 1.016993 -0.883207
  H 3.246425 1.362632 2.415908
  H 3.299928 -0.419019 2.629911
  H 2.767257 -0.833453 -1.134595
  H 5.546901 0.291671 -0.519175
  H 4.754976 -2.557704 -3.382006
  H 4.250996 -1.086508 -4.181826
  H 7.002170 -0.149349 -2.176040
 20
 99.650784
  C 0.919332 0.257264 -0.242814
  C 3.321816 0.209303 0.743603
  C 2.993243 0.424000 2.092915
  H 1.920044 0.427236 2.269847
  C 3.675865 -0.262995 -0.420781
  C 4.956497 -0.253079 -1.064554
  C 5.221196 -0.813878 -2.269433
  C 4.257298 -1.545106 -3.126965
  H 3.264324 -1.593307 -2.702114
  O 6.426293 -0.739188 -2.821631
  H 0.507579 0.611993 0.684805
  H 0.632364 -0.736001 -0.519910
  H 1.008397 0.992567 -1.018211
  H 3.339788 1.411780 2.406734
  H 3.432961 -0.354553 2.726150
  H 2.842079 -0.635247 -1.042078
  H 5.745672 0.267698 -0.539178
  H 4.630007 -2.556317 -3.291540
  H 4.212605 -1.063763 -4.099259
  H 7.077285 -0.277505 -2.267110
 20
 71.624023
  C 1.403503 -0.138380 -0.901784
  C 3.476511 0.298909 1.029717
  C 3.115515 0.597166 2.348435
  H 2.019572 0.608269 2.448034
  C 3.834590 -0.149387 -0.074831
  C 4.957538 -0.251629 -0.934278
  C 5.008101 -0.779597 -2.193582
  C 3.880467 -1.414227 -2.939814
  H 2.969112 -1.452763 -2.363430
  O 6.144136 -0.769807 -2.922612
  H 0.830615 0.224435 -0.060419
  H 1.129938 -1.133351 -1.295421
  H 1.540382 0.580570 -1.698946
  H 3.476395 1.595419 2.643868
  H 3.479916 -0.174599 3.034641
  H 2.434078 -0.346427 -0.566145
  H 5.854531 0.177363 -0.514931
  H 4.154584 -2.438654 -3.196198
  H 3.706986 -0.865803 -3.860723
  H 6.891172 -0.385067 -2.455319
 20
 55.955945
  C 1.290674 -0.131165 -0.894160
  C 3.642227 0.350494 1.052321
  C 3.212424 0.611361 2.372368
  H 2.124013 0.586814 2.457621
  C 4.009275 -0.069513 -0.049476
  C 5.038697 -0.255078 -0.964201
  C 5.002971 -0.821153 -2.233648
  C 3.820765 -1.400458 -2.897743
  H 2.924613 -1.342626 -2.299099
  O 6.087160 -0.874241 -2.967032
  H 0.654503 0.195909 -0.087276
  H 0.983545 -1.104792 -1.263551
  H 1.329672 0.599055 -1.690674
  H 3.544859 1.603245 2.681663
  H 3.631341 -0.136525 3.048567
  H 2.347686 -0.299178 -0.559295
  H 5.986367 0.142485 -0.620359
  H 4.032433 -2.442679 -3.141505
  H 3.659994 -0.891468 -3.846949
  H 6.893202 -0.524923 -2.539388
 20
 46.354881
  C 1.204123 -0.134899 -0.920330
  C 3.778992 0.339736 1.102929
  C 3.188454 0.602101 2.358525
  H 2.099842 0.574030 2.311487
  C 4.187919 -0.035747 0.002282
  C 5.174651 -0.262495 -0.938117
  C 5.080723 -0.832049 -2.205077
  C 3.851114 -1.375805 -2.805999
  H 2.994450 -1.292590 -2.153382
  O 6.138558 -0.927272 -2.966903
  H 0.546992 0.149364 -0.111333
  H 0.887329 -1.091229 -1.323105
  H 1.170598 0.613378 -1.700848
  H 3.508256 1.582130 2.716260
  H 3.537061 -0.141722 3.079363
  H 2.232815 -0.234652 -0.560340
  H 6.157815 0.073648 -0.616866
  H 4.017231 -2.421734 -3.069530
  H 3.653506 -0.863997 -3.747488
  H 6.969290 -0.585056 -2.587850
 20
 43.289901
  C 1.139384 -0.115703 -0.947717
  C 3.865561 0.299740 1.133248
  C 3.170045 0.574687 2.331060
  H 2.090627 0.559603 2.195459
  C 4.303036 -0.048255 0.038191
  C 5.258995 -0.298313 -0.917979
  C 5.122051 -0.848786 -2.195500
  C 3.858309 -1.338047 -2.764483
  H 3.027271 -1.229913 -2.082103
  O 6.159266 -0.974982 -2.969666
  H 0.471335 0.160479 -0.142017
  H 0.789041 -1.052736 -1.366898
  H 1.074139 0.641990 -1.718325
  H 3.492124 1.543882 2.718693
  H 3.464393 -0.161664 3.084063
  H 2.144198 -0.178814 -0.569621
  H 6.265427 -0.021706 -0.606590
  H 3.975430 -2.384641 -3.048713
  H 3.651957 -0.810515 -3.696595
  H 7.011160 -0.661759 -2.612325
 20
 45.658632
  C 1.105049 -0.064223 -1.003217
  C 3.819263 0.212865 1.156165
  C 3.106868 0.564689 2.320798
  H 2.028523 0.599259 2.208917
  C 4.250253 -0.128687 0.060532
  C 5.236449 -0.435759 -0.855159
  C 5.126750 -0.892123 -2.165203
  C 3.860781 -1.186024 -2.856931
  H 3.001919 -0.996177 -2.227439
  O 6.198314 -1.104899 -2.878375
  H 0.432762 0.235960 -0.209875
  H 0.759214 -1.012620 -1.403033
  H 1.049757 0.668745 -1.792768
  H 3.490530 1.555901 2.621391
  H 3.481319 -0.029226 3.154679
  H 2.120419 -0.145486 -0.614833
  H 6.247316 -0.299358 -0.469396
  H 3.859551 -2.216791 -3.199579
  H 3.793410 -0.582173 -3.766580
  H 7.055920 -0.931933 -2.454344
 20
 57.498816
  C 1.111303 -0.366225 -0.873442
  C 3.811476 0.214552 1.176126
  C 3.189929 0.634629 2.366615
  H 2.121544 0.742710 2.428136
  C 4.148818 -0.114742 0.033551
  C 5.118697 -0.417866 -0.893482
  C 5.021099 -0.831542 -2.220982
  C 3.771072 -1.064597 -2.963666
  H 2.889678 -0.878088 -2.369264
  O 6.108261 -1.054257 -2.921440
  H 0.425399 -0.108395 -0.075780
  H 0.923888 -1.385811 -1.174164
  H 0.939294 0.294537 -1.719243
  H 3.609209 1.681297 2.363903
  H 3.845782 0.446031 3.224375
  H 2.128896 -0.209648 -0.552257
  H 6.124015 -0.309653 -0.496615
  H 3.763996 -2.093838 -3.326335
  H 3.762495 -0.440033 -3.856269
  H 6.954964 -0.910274 -2.453841
 20
 88.398755
  C 1.166936 -0.458304 -0.922716
  C 3.734644 0.112763 1.229454
  C 3.139319 0.568183 2.413106
  H 2.099042 0.811213 2.536360
  C 4.047748 -0.163296 0.068206
  C 5.025879 -0.478737 -0.841566
  C 4.955367 -0.814086 -2.157909
  C 3.732446 -0.935926 -2.962317
  H 2.833951 -0.721583 -2.400041
  O 6.043647 -1.069993 -2.817745
  H 0.430580 -0.238041 -0.158629
  H 1.064432 -1.495662 -1.199951
  H 0.995621 0.171393 -1.790980
  H 3.664767 1.585012 2.155188
  H 3.986564 0.817189 3.086562
  H 2.150041 -0.174290 -0.564692
  H 6.019810 -0.444641 -0.411350
  H 3.694644 -1.946596 -3.370242
  H 3.801775 -0.277882 -3.826753
  H 6.865521 -1.002871 -2.308754
 20
 594.867979
  C 1.092628 -0.864370 -0.696002
  C 3.664920 0.065509 1.355456
  C 3.213114 0.679110 2.617908
  H 2.184178 1.171785 2.445695
  C 3.877941 -0.155611 0.162639
  C 4.868222 -0.599632 -0.715837
  C 4.935018 -0.788644 -2.101143
  C 3.828423 -0.515884 -3.091735
  H 2.942770 -0.126644 -2.611944
  O 6.047021 -1.255725 -2.639753
  H 0.332719 -0.657613 0.026477
  H 1.058298 -1.976322 -0.991991
  H 0.925591 -0.256168 -1.536993
  H 3.789767 1.106698 1.767724
  H 4.057715 1.254327 1.969528
  H 2.253058 0.327571 -0.539415
  H 5.767971 -0.869855 -0.183566
  H 3.602753 -1.431350 -3.616392
  H 4.199566 0.201331 -3.855387
  H 6.811061 -1.464668 -2.010036
 20
 10000.000000
  C 1.035541 -0.821069 -0.643428
  C 3.643093 0.052334 1.354972
  C 3.168624 0.625409 2.557126
  H 2.190943 1.067957 2.339788
  C 3.892993 -0.157251 0.139435
  C 4.895695 -0.599036 -0.707241
  C 4.963976 -0.779229 -2.089110
  C 3.898915 -0.539573 -3.075275
  H 2.981654 -0.179059 -2.634201
  O 6.074882 -1.217587 -2.619935
  H 0.309853 -0.587102 0.122490
  H 0.938762 -1.855425 -0.934608
  H 0.897611 -0.161953 -1.500133
  H 3.756057 1.070637 1.749334
  H 3.910733 1.086202 1.894502
  H 2.326457 0.388618 -0.611710
  H 5.794945 -0.864408 -0.157843
  H 3.708820 -1.465471 -3.618147
  H 4.260420 0.174459 -3.817786
  H 6.802763 -1.394608 -1.993001
