10

H 3.5873592745931666 -0.5975668439562621 -0.9850631123871335
C 4.65721 -0.60568 -1.000988
C 5.378399 -1.120791 -2.012236
C 6.817844 -1.129667 -2.029658
C 7.534843 -1.641794 -3.035058
H 8.604346881404847 -1.656583701382187 -3.064087509003634
H 5.161438 -0.170817 -0.147283
H 4.871981 -1.556211 -2.867039
H 7.325033 -0.695507 -1.177329
H 7.034725 -2.077642 -3.890685
