19
 0
 C -3.24386630 -1.79685527 -0.33431743
 C -1.73958123 -1.58603249 -0.45573320
 C -1.28309748 -1.87032502 -1.88574993
 C -1.21741792 -0.21466344 -0.02386846
 C -2.16143577 0.89897927 0.35113020
 O 0.00000000 0.00000000 0.00000000
 H -3.51228595 -2.82559902 -0.59856872
 H -3.79982707 -1.12821883 -1.00048506
 H -3.58508326 -1.62237156 0.69144879
 H -1.25760928 -2.30912619 0.21532224
 H -1.71215152 -1.14799155 -2.58880611
 H -1.58335459 -2.87558160 -2.20008343
 H -0.19291146 -1.80705676 -1.97261058
 H -3.20687730 0.59638115 0.36315371
 H -2.04974583 1.71537931 -0.36739312
 H -1.90438401 1.25189889 1.35413187
 O 3.35345725 -0.16812010 0.04027079
 H 2.40000000 0.00000000 0.00000000
 H 3.75144242 0.69733787 -0.13734096
