17

C 0.993261 0.133595 0.38395
C 2.471599 0.140321 0.400275
H 3.025201175597317 0.4817598055035812 1.2498891319859298
C 3.094519 -0.322246 -0.751479
C 4.470156 -0.413577 -0.979476
C 5.130316 -0.867893 -2.111975
C 4.619381 -1.389077 -3.411201
H 3.5707685060806353 -1.4681211408106387 -3.608846797829651
O 6.455925 -0.869303 -2.115755
H 0.545013 0.501552 1.299954
H 0.628787 -0.880681 0.214986
H 0.628483 0.748957 -0.439708
H 2.434694 -0.63959 -1.541385
H 5.104736 -0.086787 -0.165738
H 5.069941 -2.379791 -3.54125
H 5.070324 -0.763208 -4.189928
H 6.838433 -0.535559 -1.28274
