 15
 0.000000
  C 0.882118 0.041817 0.340650
  C 2.352946 0.065741 0.049647
  H 2.992713 0.019284 0.920354
  C 2.935446 0.131744 -1.139154
  C 2.371878 0.206183 -2.532437
  C 0.863691 0.223082 -2.746925
  H 0.659929 0.280388 -3.813615
  H 4.018824 0.126816 -1.179504
  H 0.701672 -0.019948 1.411284
  H 0.415447 -0.820972 -0.128645
  H 0.394545 0.943331 -0.022818
  H 2.786728 -0.643449 -3.087976
  H 2.792559 1.106446 -2.996327
  H 0.405689 1.085282 -2.271398
  H 0.398618 -0.680858 -2.365273
 15
 -0.205431
  C 0.868115 0.055533 0.366870
  C 2.328228 0.115657 0.031957
  H 2.978662 0.133206 0.897580
  C 2.917570 0.141176 -1.154251
  C 2.382721 0.163723 -2.558292
  C 0.874864 0.202818 -2.767848
  H 0.663319 0.308612 -3.830056
  H 4.003749 0.164842 -1.157650
  H 0.738687 -0.242275 1.407453
  H 0.351048 -0.660762 -0.260693
  H 0.397852 1.029258 0.237386
  H 2.789946 -0.710947 -3.079351
  H 2.823568 1.043456 -3.045344
  H 0.431595 1.045149 -2.248791
  H 0.405334 -0.712847 -2.426581
 15
 0.697334
  C 0.880587 0.041684 0.369886
  C 2.334186 0.208500 0.055609
  H 2.976088 0.332945 0.919149
  C 2.912245 0.138818 -1.132643
  C 2.370506 0.104762 -2.536722
  C 0.870747 0.222995 -2.778767
  H 0.692850 0.324171 -3.848569
  H 3.997420 0.161668 -1.173361
  H 0.772852 -0.466216 1.326969
  H 0.422525 -0.573318 -0.394896
  H 0.365257 0.998625 0.436066
  H 2.736364 -0.810101 -3.017084
  H 2.859077 0.937743 -3.056214
  H 0.464931 1.099959 -2.282191
  H 0.334197 -0.659078 -2.441022
 15
 2.864544
  C 0.885827 0.021590 0.369427
  C 2.322128 0.296116 0.056908
  H 2.939987 0.570248 0.902818
  C 2.903409 0.113430 -1.116190
  C 2.362579 0.038492 -2.522061
  C 0.879448 0.265890 -2.790962
  H 0.727832 0.354191 -3.865938
  H 3.987777 0.120497 -1.176582
  H 0.848857 -0.657463 1.222993
  H 0.454199 -0.502604 -0.473975
  H 0.321099 0.913980 0.627820
  H 2.663568 -0.917765 -2.965424
  H 2.913534 0.814295 -3.066495
  H 0.538390 1.185095 -2.321517
  H 0.264313 -0.559923 -2.444242
 15
 8.722463
  C 0.893338 -0.023103 0.348500
  C 2.313371 0.341779 0.048872
  H 2.879752 0.795957 0.842559
  C 2.903004 0.034329 -1.099376
  C 2.356239 -0.006962 -2.508908
  C 0.890617 0.332452 -2.772942
  H 0.735443 0.394180 -3.847495
  H 3.985227 0.030226 -1.186134
  H 0.915535 -0.694628 1.212511
  H 0.533287 -0.628541 -0.475228
  H 0.241347 0.811264 0.587556
  H 2.597154 -0.967606 -2.986481
  H 2.953655 0.747154 -3.033267
  H 0.637532 1.295207 -2.332912
  H 0.206076 -0.417704 -2.391587
 15
 19.279574
  C 0.910820 -0.043666 0.343989
  C 2.309454 0.402604 0.039465
  H 2.844021 1.014278 0.759248
  C 2.866822 -0.039184 -1.086882
  C 2.349862 -0.018087 -2.513754
  C 0.894929 0.375832 -2.760818
  H 0.739999 0.499859 -3.833984
  H 3.953319 -0.107127 -1.167648
  H 0.959419 -0.755143 1.178417
  H 0.686080 -0.688507 -0.505105
  H 0.186353 0.736056 0.575992
  H 2.522019 -0.994544 -2.985973
  H 2.994781 0.706253 -3.011586
  H 0.667141 1.315117 -2.261046
  H 0.193311 -0.372255 -2.414308
 15
 39.279699
  C 0.939250 -0.035224 0.305559
  C 2.316906 0.483653 0.063156
  H 2.832809 1.165734 0.727719
  C 2.836557 -0.067468 -1.037498
  C 2.312186 -0.025819 -2.470933
  C 0.867207 0.408451 -2.750537
  H 0.714303 0.454016 -3.832584
  H 3.923816 -0.220860 -1.130607
  H 0.953992 -0.901895 0.986315
  H 0.970314 -0.704049 -0.602411
  H 0.178394 0.664316 0.633446
  H 2.479527 -1.001394 -2.947408
  H 2.981703 0.680543 -2.975834
  H 0.684491 1.396703 -2.337618
  H 0.132666 -0.276556 -2.337157
 15
 63.574115
  C 0.958068 -0.074170 0.275681
  C 2.278913 0.543773 0.013978
  H 2.731373 1.372867 0.542624
  C 2.791055 -0.149421 -1.037640
  C 2.306658 -0.046155 -2.475114
  C 0.888409 0.466418 -2.701432
  H 0.698890 0.549123 -3.770238
  H 3.883903 -0.301276 -1.088712
  H 0.999885 -0.926683 0.966726
  H 1.203215 -0.848613 -0.579173
  H 0.100677 0.536013 0.534583
  H 2.439616 -1.006633 -2.992574
  H 2.996315 0.656490 -2.948158
  H 0.758165 1.441922 -2.238735
  H 0.146492 -0.204178 -2.277071
 15
 81.060255
  C 0.986224 -0.043423 0.324838
  C 2.214053 0.588530 0.018974
  H 2.654409 1.442853 0.510492
  C 2.757314 -0.188693 -1.026551
  C 2.294237 -0.051972 -2.483548
  C 0.880500 0.469710 -2.697805
  H 0.691529 0.582929 -3.763886
  H 3.842767 -0.357977 -1.035987
  H 1.014772 -0.971331 0.882770
  H 1.512526 -0.876917 -0.728261
  H 0.110928 0.544116 0.613672
  H 2.411304 -1.013396 -2.992670
  H 2.990363 0.645782 -2.962176
  H 0.756759 1.438554 -2.217723
  H 0.134931 -0.211395 -2.289524
 15
 59.986910
  C 0.971152 -0.002560 0.428893
  C 2.108719 0.603179 -0.010968
  H 2.537961 1.505755 0.382742
  C 2.718674 -0.281572 -1.042584
  C 2.306687 -0.062257 -2.523641
  C 0.899871 0.477344 -2.707651
  H 0.714602 0.666034 -3.760518
  H 3.792829 -0.401060 -0.988400
  H 1.013774 -0.962448 0.914091
  H 1.814054 -0.963571 -0.843692
  H 0.109690 0.585757 0.768046
  H 2.407106 -1.015035 -3.042206
  H 3.010492 0.643462 -2.978902
  H 0.781472 1.414783 -2.170644
  H 0.151800 -0.225145 -2.343600
 15
 35.803123
  C 0.958256 0.080878 0.465898
  C 2.062604 0.605259 -0.069270
  H 2.541020 1.510529 0.270468
  C 2.697440 -0.342421 -1.043155
  C 2.326268 -0.042524 -2.521110
  C 0.903972 0.462425 -2.714186
  H 0.722242 0.660475 -3.768715
  H 3.772575 -0.469302 -0.972316
  H 0.957233 -0.920363 0.864987
  H 1.925187 -1.117169 -0.864758
  H 0.151169 0.654012 0.911074
  H 2.494273 -0.947534 -3.105282
  H 3.009170 0.720320 -2.910929
  H 0.741785 1.379911 -2.155744
  H 0.178773 -0.276049 -2.374731
 15
 14.766286
  C 0.980306 0.144341 0.578686
  C 2.024819 0.579620 -0.107699
  H 2.503959 1.522257 0.095365
  C 2.665104 -0.388881 -1.060090
  C 2.347832 -0.013801 -2.521038
  C 0.906253 0.413337 -2.745792
  H 0.773935 0.747934 -3.772023
  H 3.736189 -0.481585 -0.945754
  H 0.871445 -0.885992 0.874796
  H 2.031114 -1.254659 -0.875625
  H 0.283498 0.812800 1.073677
  H 2.570839 -0.882199 -3.143101
  H 3.010522 0.794411 -2.841793
  H 0.636013 1.228379 -2.079102
  H 0.225581 -0.415590 -2.564371
 15
 2.272868
  C 0.968037 0.230250 0.613060
  C 2.054964 0.532386 -0.072494
  H 2.583533 1.459696 0.102563
  C 2.648910 -0.414960 -1.066524
  C 2.354928 0.041699 -2.508065
  C 0.882818 0.337631 -2.757886
  H 0.737427 0.676587 -3.781260
  H 3.726819 -0.511297 -0.946732
  H 0.596819 -0.776959 0.698996
  H 2.120547 -1.356990 -0.919387
  H 0.458371 0.967628 1.213061
  H 2.680218 -0.751574 -3.185577
  H 2.948290 0.930655 -2.736698
  H 0.524229 1.111352 -2.083994
  H 0.281501 -0.555733 -2.602926
 15
 -1.525333
  C 0.983577 0.257109 0.671115
  C 2.053424 0.517982 -0.065754
  H 2.577146 1.460007 0.038793
  C 2.606022 -0.431470 -1.076278
  C 2.360335 0.074010 -2.501263
  C 0.885311 0.305347 -2.792468
  H 0.741893 0.561618 -3.839391
  H 3.678572 -0.556565 -0.925254
  H 0.470223 -0.684001 0.574719
  H 2.114488 -1.392073 -0.926594
  H 0.623751 0.942292 1.420961
  H 2.754893 -0.663334 -3.206468
  H 2.913594 1.006388 -2.651028
  H 0.492342 1.116421 -2.179499
  H 0.311838 -0.593358 -2.575456
 15
 -2.101893
  C 1.044444 0.283382 0.779869
  C 2.039050 0.517113 -0.055044
  H 2.551573 1.469353 -0.036763
  C 2.535862 -0.449844 -1.080217
  C 2.364686 0.096601 -2.501685
  C 0.896267 0.272169 -2.868421
  H 0.797992 0.652601 -3.882522
  H 3.599592 -0.636909 -0.903232
  H 0.514853 -0.655850 0.780538
  H 2.002614 -1.398547 -0.985895
  H 0.718428 1.013030 1.501629
  H 2.836026 -0.592293 -3.207271
  H 2.877535 1.057739 -2.581302
  H 0.415722 0.970910 -2.187513
  H 0.372766 -0.679084 -2.806035
