 32
 0.000000
  C 0.944241 0.151537 0.424019
  C 2.414266 0.148504 0.398742
  C 3.220895 0.609881 1.556921
  C 2.467625 1.099599 2.794055
  C 3.450620 1.532814 3.879095
  C 3.020711 -0.316680 -0.769823
  C 4.395990 -0.400827 -0.970587
  C 5.094922 -0.855350 -2.084438
  C 4.616028 -1.385549 -3.394387
  C 3.128885 -1.509424 -3.715174
  C 2.951422 -2.079966 -5.121638
  O 6.409568 -0.847746 -2.049143
  H 0.533296 0.511745 1.357423
  H 0.570437 -0.856741 0.242059
  H 0.557094 0.766125 -0.388545
  H 3.878379 1.419594 1.216726
  H 3.882033 -0.209907 1.863963
  H 1.834733 0.305414 3.192163
  H 1.830898 1.947925 2.539526
  H 4.087425 0.704614 4.180997
  H 2.915083 1.880856 4.758453
  H 4.083773 2.344920 3.529427
  H 2.356775 -0.631656 -1.556284
  H 5.022829 -0.071576 -0.149617
  H 5.084327 -2.371767 -3.508059
  H 5.091452 -0.761561 -4.162244
  H 2.648497 -0.532022 -3.677721
  H 2.641516 -2.180352 -3.008243
  H 3.409340 -1.432651 -5.865520
  H 1.895336 -2.172872 -5.361477
  H 3.402513 -3.065981 -5.202030
  H 6.789812 -0.507651 -1.215519
 32
 2.514700
  C 1.032430 0.239309 0.295522
  C 2.488437 0.114205 0.415536
  C 3.260327 0.542533 1.613931
  C 2.462455 1.099577 2.786837
  C 3.392022 1.486691 3.930813
  C 3.088649 -0.380507 -0.716358
  C 4.456221 -0.433000 -0.942149
  C 5.091047 -0.802693 -2.106013
  C 4.574962 -1.333832 -3.405884
  C 3.093421 -1.579103 -3.654998
  C 2.894773 -2.133001 -5.062836
  O 6.387207 -0.669020 -2.154093
  H 0.538415 0.697037 1.150600
  H 0.578626 -0.741368 0.103029
  H 0.862257 0.822942 -0.603545
  H 3.991421 1.296397 1.306747
  H 3.846014 -0.311098 1.969055
  H 1.752864 0.352766 3.147755
  H 1.902574 1.983467 2.475910
  H 3.951287 0.624208 4.287064
  H 2.820265 1.883584 4.765992
  H 4.099812 2.250449 3.615923
  H 2.425117 -0.680446 -1.512919
  H 5.106381 -0.088895 -0.142004
  H 5.116445 -2.270094 -3.574859
  H 4.952209 -0.655029 -4.176868
  H 2.533953 -0.646604 -3.575031
  H 2.702779 -2.305526 -2.941412
  H 3.258473 -1.433026 -5.811601
  H 1.839734 -2.312026 -5.253291
  H 3.424449 -3.074425 -5.189461
  H 6.792478 -0.323387 -1.335368
 32
 4.888087
  C 1.146035 0.542399 0.158795
  C 2.535572 0.139132 0.415752
  C 3.252348 0.422947 1.664825
  C 2.452415 1.084885 2.770211
  C 3.320177 1.300516 4.005472
  C 3.146728 -0.417825 -0.691615
  C 4.511413 -0.447119 -0.934110
  C 5.078248 -0.662198 -2.179662
  C 4.525664 -1.228694 -3.437836
  C 3.089473 -1.734281 -3.557178
  C 2.875294 -2.341261 -4.945386
  O 6.319810 -0.296058 -2.361980
  H 0.685587 1.124586 0.945648
  H 0.526723 -0.340200 -0.046212
  H 1.182186 1.099897 -0.769247
  H 4.115260 1.048055 1.439658
  H 3.664709 -0.514957 2.042415
  H 1.599091 0.457517 3.041434
  H 2.073962 2.055157 2.432272
  H 3.697138 0.353260 4.387550
  H 2.743347 1.774923 4.795237
  H 4.170027 1.942761 3.777726
  H 2.491327 -0.677511 -1.518316
  H 5.178949 -0.097700 -0.155273
  H 5.200697 -2.055691 -3.682959
  H 4.707991 -0.484890 -4.220519
  H 2.377620 -0.912723 -3.441028
  H 2.889693 -2.505023 -2.805674
  H 3.048254 -1.601802 -5.725177
  H 1.855238 -2.704642 -5.045139
  H 3.549168 -3.178932 -5.113982
  H 6.778208 0.052231 -1.568586
 32
 8.832828
  C 1.243811 0.839973 0.077947
  C 2.528748 0.201340 0.381628
  C 3.229219 0.340723 1.681154
  C 2.486480 1.088843 2.791776
  C 3.322118 1.117601 4.070599
  C 3.091683 -0.424003 -0.705573
  C 4.455361 -0.482233 -0.948112
  C 4.981652 -0.542039 -2.223914
  C 4.453056 -1.144814 -3.477362
  C 3.129539 -1.899391 -3.522762
  C 2.967826 -2.566907 -4.884404
  O 6.127410 0.042996 -2.444503
  H 0.870412 1.480861 0.862343
  H 0.488700 0.082098 -0.146125
  H 1.385026 1.413293 -0.854609
  H 4.193967 0.839113 1.516065
  H 3.482453 -0.667973 2.040177
  H 1.534420 0.597500 3.003186
  H 2.282416 2.116579 2.483433
  H 3.526652 0.109849 4.424382
  H 2.793061 1.648243 4.857926
  H 4.270810 1.622751 3.904761
  H 2.434405 -0.617909 -1.535265
  H 5.127427 -0.157126 -0.163875
  H 5.243577 -1.840130 -3.788142
  H 4.458336 -0.362648 -4.243852
  H 2.288039 -1.224364 -3.389111
  H 3.103151 -2.664971 -2.749902
  H 2.973156 -1.828408 -5.680490
  H 2.026776 -3.106012 -4.930171
  H 3.769766 -3.275338 -5.071277
  H 6.593063 0.378725 -1.662415
 32
 12.792811
  C 1.371549 1.108182 0.012690
  C 2.544533 0.289847 0.336881
  C 3.204992 0.284856 1.663485
  C 2.516237 1.057679 2.784831
  C 3.291738 0.909982 4.087408
  C 3.060309 -0.378879 -0.757762
  C 4.411800 -0.517969 -0.994791
  C 4.908292 -0.426417 -2.289255
  C 4.374577 -1.050089 -3.538252
  C 3.204681 -2.023591 -3.438076
  C 3.041034 -2.776391 -4.758316
  O 5.950229 0.320991 -2.496865
  H 1.077535 1.775427 0.816849
  H 0.515059 0.482378 -0.246154
  H 1.618073 1.676911 -0.890580
  H 4.223933 0.671688 1.564951
  H 3.323425 -0.760418 1.974718
  H 1.502582 0.680672 2.933025
  H 2.456437 2.120128 2.533381
  H 3.353545 -0.134249 4.386695
  H 2.799571 1.459694 4.886098
  H 4.303575 1.299087 3.985377
  H 2.404786 -0.475594 -1.603673
  H 5.093448 -0.263668 -0.193989
  H 5.231099 -1.591961 -3.957838
  H 4.165437 -0.266327 -4.272397
  H 2.273451 -1.502368 -3.238416
  H 3.383149 -2.742031 -2.634001
  H 2.847681 -2.085070 -5.576159
  H 2.205979 -3.470302 -4.697312
  H 3.934466 -3.347042 -4.997985
  H 6.401827 0.647111 -1.690362
 32
 16.351684
  C 1.550672 1.357881 -0.036535
  C 2.587177 0.377203 0.306821
  C 3.180952 0.227126 1.652138
  C 2.525386 1.015808 2.783405
  C 3.202098 0.705113 4.114241
  C 3.063486 -0.285935 -0.807567
  C 4.406685 -0.477596 -1.054994
  C 4.830674 -0.334998 -2.372412
  C 4.249286 -0.989039 -3.572451
  C 3.301913 -2.162703 -3.331575
  C 3.111003 -2.956448 -4.620064
  O 5.793545 0.501022 -2.621096
  H 1.312246 2.035697 0.776375
  H 0.631983 0.869025 -0.364853
  H 1.940591 1.913863 -0.907407
  H 4.242622 0.497544 1.617424
  H 3.166642 -0.838701 1.907571
  H 1.469099 0.756858 2.855848
  H 2.604868 2.086031 2.593780
  H 3.123690 -0.353730 4.352235
  H 2.732190 1.265986 4.919123
  H 4.255854 0.974000 4.087850
  H 2.409633 -0.294519 -1.668183
  H 5.116893 -0.282749 -0.263870
  H 5.112277 -1.352925 -4.141376
  H 3.789628 -0.239293 -4.222313
  H 2.325612 -1.823703 -2.995633
  H 3.715631 -2.816358 -2.564464
  H 2.688232 -2.329286 -5.401647
  H 2.434716 -3.791245 -4.453616
  H 4.057235 -3.356679 -4.977789
  H 6.243032 0.858306 -1.833844
 32
 21.007658
  C 1.689425 1.439975 -0.080938
  C 2.589669 0.349053 0.313881
  C 3.144291 0.167351 1.669582
  C 2.560160 1.049405 2.772299
  C 3.171977 0.693519 4.123456
  C 3.027026 -0.356660 -0.789966
  C 4.364513 -0.564208 -1.038007
  C 4.749097 -0.333532 -2.353918
  C 4.139459 -0.948331 -3.553438
  C 3.432666 -2.282084 -3.311924
  C 3.168586 -2.988310 -4.637996
  O 5.651658 0.569488 -2.579740
  H 1.489570 2.141383 0.720519
  H 0.741039 1.061232 -0.458412
  H 2.190117 1.947781 -0.925255
  H 4.229416 0.317985 1.647516
  H 3.009487 -0.884909 1.947117
  H 1.479637 0.912119 2.826903
  H 2.763352 2.100403 2.563526
  H 2.970210 -0.344717 4.380090
  H 2.752922 1.320844 4.907200
  H 4.250266 0.841519 4.114468
  H 2.375455 -0.340269 -1.651619
  H 5.081667 -0.401259 -0.246493
  H 4.960515 -1.102769 -4.260779
  H 3.474717 -0.237133 -4.052448
  H 2.481775 -2.140907 -2.799175
  H 4.060176 -2.917575 -2.683153
  H 2.535903 -2.380299 -5.281392
  H 2.665803 -3.937335 -4.468215
  H 4.098391 -3.189964 -5.165460
  H 6.099733 0.908368 -1.781839
 32
 25.929530
  C 1.814280 1.433771 -0.126586
  C 2.587037 0.273902 0.346022
  C 3.103579 0.104937 1.716612
  C 2.606113 1.099341 2.763556
  C 3.154186 0.744183 4.141016
  C 2.991616 -0.492835 -0.735873
  C 4.335369 -0.634217 -1.000367
  C 4.687273 -0.345578 -2.313879
  C 4.058529 -0.926333 -3.525810
  C 3.562772 -2.361107 -3.347203
  C 3.194163 -2.967719 -4.697124
  O 5.534673 0.616069 -2.520367
  H 1.640406 2.172108 0.648752
  H 0.855407 1.139243 -0.552194
  H 2.418244 1.874230 -0.958959
  H 4.199086 0.128663 1.707287
  H 2.850181 -0.911628 2.042572
  H 1.516468 1.085512 2.803306
  H 2.929046 2.110042 2.509032
  H 2.832711 -0.251513 4.442556
  H 2.797136 1.452699 4.886322
  H 4.242606 0.769578 4.146428
  H 2.323591 -0.512973 -1.585580
  H 5.051342 -0.436402 -0.213703
  H 4.814489 -0.898264 -4.317200
  H 3.247790 -0.281037 -3.881259
  H 2.693097 -2.398049 -2.697851
  H 4.347631 -2.960012 -2.885170
  H 2.402983 -2.394833 -5.176437
  H 2.843603 -3.990185 -4.570390
  H 4.054189 -2.986831 -5.364278
  H 5.990790 0.940867 -1.720775
 32
 31.771310
  C 1.918996 1.391889 -0.170539
  C 2.586680 0.196162 0.370523
  C 3.070540 0.046720 1.752662
  C 2.673036 1.140150 2.740379
  C 3.168291 0.800949 4.142166
  C 2.958635 -0.626711 -0.687106
  C 4.304684 -0.712698 -0.964847
  C 4.615394 -0.348165 -2.268334
  C 3.990593 -0.901495 -3.494696
  C 3.658606 -2.391352 -3.388153
  C 3.230265 -2.939779 -4.742043
  O 5.390571 0.682366 -2.436405
  H 1.754034 2.157432 0.579638
  H 0.967152 1.152194 -0.645048
  H 2.598878 1.777443 -0.979253
  H 4.160422 -0.054473 1.759908
  H 2.704677 -0.917833 2.124026
  H 1.587583 1.244126 2.766155
  H 3.103995 2.095520 2.438690
  H 2.739872 -0.136025 4.489428
  H 2.883863 1.579870 4.843530
  H 4.251600 0.709939 4.161950
  H 2.279948 -0.677734 -1.525773
  H 5.018118 -0.493310 -0.181740
  H 4.692948 -0.737280 -4.316280
  H 3.094310 -0.331372 -3.760193
  H 2.859767 -2.561522 -2.668060
  H 4.539089 -2.934373 -3.041965
  H 2.345013 -2.425637 -5.105855
  H 2.999955 -3.997823 -4.665903
  H 4.020492 -2.819605 -5.477380
  H 5.849063 0.987083 -1.630482
 32
 38.164061
  C 2.007830 1.325703 -0.217305
  C 2.588113 0.114526 0.393455
  C 3.046878 -0.005507 1.788271
  C 2.745138 1.169673 2.713822
  C 3.201766 0.863121 4.135653
  C 2.941959 -0.754988 -0.639148
  C 4.289033 -0.790214 -0.929041
  C 4.549338 -0.346998 -2.220764
  C 3.937092 -0.879313 -3.462054
  C 3.730576 -2.395563 -3.427027
  C 3.266352 -2.904671 -4.788279
  O 5.230838 0.757603 -2.343394
  H 1.849070 2.119426 0.501519
  H 1.067453 1.121295 -0.730021
  H 2.744161 1.653361 -1.005505
  H 4.120738 -0.214370 1.815065
  H 2.587143 -0.909564 2.202827
  H 1.673012 1.371635 2.724992
  H 3.261711 2.065190 2.365107
  H 2.688669 -0.010895 4.528441
  H 2.986639 1.700822 4.791659
  H 4.272064 0.675387 4.170008
  H 2.254080 -0.836769 -1.468501
  H 4.998077 -0.550518 -0.149477
  H 4.596976 -0.611977 -4.289504
  H 2.988435 -0.376923 -3.670308
  H 2.991806 -2.666950 -2.674572
  H 4.670246 -2.883202 -3.160728
  H 2.320817 -2.446913 -5.072473
  H 3.126756 -3.982073 -4.762356
  H 3.999575 -2.678704 -5.558274
  H 5.694825 1.048722 -1.535031
 32
 45.149152
  C 2.100679 1.264284 -0.261378
  C 2.605185 0.045799 0.410995
  C 3.039887 -0.046518 1.815372
  C 2.813297 1.184527 2.686483
  C 3.236826 0.908927 4.124234
  C 2.948059 -0.863983 -0.597467
  C 4.297639 -0.852332 -0.902303
  C 4.484048 -0.339216 -2.184352
  C 3.883042 -0.863100 -3.433584
  C 3.782356 -2.390970 -3.458051
  C 3.303849 -2.875210 -4.823061
  O 5.049912 0.838158 -2.263964
  H 1.952520 2.082970 0.428348
  H 1.171048 1.085118 -0.797269
  H 2.876971 1.544083 -1.040073
  H 4.093907 -0.337149 1.866280
  H 2.507139 -0.894254 2.260629
  H 1.758349 1.458879 2.677859
  H 3.391370 2.026996 2.306218
  H 2.660911 0.088493 4.548793
  H 3.074679 1.788806 4.743239
  H 4.292825 0.649316 4.177534
  H 2.251195 -0.980445 -1.415663
  H 5.005963 -0.584968 -0.129187
  H 4.505653 -0.515904 -4.261327
  H 2.897638 -0.421338 -3.604362
  H 3.092159 -2.743634 -2.692949
  H 4.762222 -2.822633 -3.245091
  H 2.319252 -2.475235 -5.053751
  H 3.241105 -3.959680 -4.839818
  H 3.989614 -2.565773 -5.606843
  H 5.534354 1.118046 -1.463561
 32
 53.468171
  C 2.180407 1.203765 -0.300619
  C 2.617490 -0.016759 0.425966
  C 3.042953 -0.077550 1.834120
  C 2.887173 1.201984 2.655199
  C 3.295992 0.962070 4.104689
  C 2.942091 -0.966496 -0.559905
  C 4.294459 -0.929547 -0.874451
  C 4.409572 -0.347019 -2.140513
  C 3.830888 -0.853575 -3.405118
  C 3.842895 -2.381590 -3.498917
  C 3.358093 -2.839373 -4.868983
  O 4.850956 0.893383 -2.155012
  H 2.044843 2.047381 0.366367
  H 1.258447 1.045487 -0.854383
  H 2.988738 1.438972 -1.069441
  H 4.078640 -0.434300 1.902947
  H 2.454442 -0.870415 2.310911
  H 1.847597 1.535088 2.633844
  H 3.511203 1.995418 2.241565
  H 2.676149 0.195329 4.561171
  H 3.185058 1.872545 4.685791
  H 4.333131 0.645768 4.170105
  H 2.236723 -1.110363 -1.366930
  H 5.001230 -0.644363 -0.105946
  H 4.413159 -0.420366 -4.222581
  H 2.812414 -0.482141 -3.544501
  H 3.204467 -2.817301 -2.729860
  H 4.855744 -2.747279 -3.335067
  H 2.339652 -2.506019 -5.051945
  H 3.376369 -3.924072 -4.934470
  H 3.993624 -2.443705 -5.657428
  H 5.359122 1.155990 -1.366267
 32
 63.142313
  C 2.248915 1.159272 -0.322744
  C 2.644771 -0.057832 0.440688
  C 3.070427 -0.092903 1.848786
  C 2.958314 1.216931 2.631106
  C 3.359822 1.007356 4.088953
  C 2.940854 -1.040472 -0.527585
  C 4.290300 -0.990595 -0.858343
  C 4.345134 -0.364881 -2.112959
  C 3.778621 -0.857224 -3.388688
  C 3.914528 -2.373057 -3.552998
  C 3.422769 -2.812459 -4.927449
  O 4.654714 0.924535 -2.059767
  H 2.128976 2.020417 0.329154
  H 1.329472 1.012974 -0.876097
  H 3.069110 1.358512 -1.092757
  H 4.092802 -0.483720 1.930318
  H 2.453231 -0.848687 2.349078
  H 1.929061 1.583757 2.598788
  H 3.608305 1.977190 2.194376
  H 2.714856 0.275654 4.568246
  H 3.279512 1.938715 4.642630
  H 4.385498 0.658696 4.164604
  H 2.221368 -1.208744 -1.316747
  H 5.002699 -0.694236 -0.098436
  H 4.301004 -0.338241 -4.196850
  H 2.730505 -0.570380 -3.489180
  H 3.338612 -2.892210 -2.782259
  H 4.958824 -2.659305 -3.436114
  H 2.374012 -2.558564 -5.064492
  H 3.528664 -3.889663 -5.042053
  H 3.997300 -2.331173 -5.717472
  H 5.205524 1.179377 -1.294382
 32
 74.170764
  C 2.258116 1.099353 -0.332889
  C 2.664262 -0.104224 0.448005
  C 3.110871 -0.116860 1.851844
  C 3.034251 1.210118 2.606005
  C 3.458502 1.026450 4.057831
  C 2.960118 -1.098350 -0.510751
  C 4.304406 -0.990251 -0.859445
  C 4.297789 -0.346218 -2.107494
  C 3.760361 -0.845648 -3.387183
  C 3.971404 -2.348315 -3.575211
  C 3.499952 -2.789930 -4.954772
  O 4.464309 0.981976 -2.002369
  H 2.130153 1.962327 0.307035
  H 1.334680 0.937345 -0.890132
  H 3.098242 1.289968 -1.119825
  H 4.127655 -0.524875 1.927723
  H 2.483195 -0.850726 2.377949
  H 2.014372 1.591596 2.584585
  H 3.687177 1.948455 2.141043
  H 2.809946 0.315732 4.565226
  H 3.403906 1.972767 4.592851
  H 4.479791 0.661732 4.122110
  H 2.234258 -1.306166 -1.283171
  H 5.014245 -0.665742 -0.110009
  H 4.256905 -0.288966 -4.185431
  H 2.694265 -0.610424 -3.487719
  H 3.423410 -2.905774 -2.812922
  H 5.029930 -2.584651 -3.463810
  H 2.441825 -2.587732 -5.086258
  H 3.659205 -3.855816 -5.086378
  H 4.047539 -2.268089 -5.737322
  H 5.078089 1.255750 -1.294042
