 22
 0.000000
  C 0.956024 0.054285 0.173662
  C 2.458412 0.058808 0.093487
  C 3.258000 -0.013810 1.380489
  C 2.473440 -0.087498 2.686339
  H 3.172551 -0.134458 3.518619
  C 3.080129 0.126331 -1.103129
  C 2.325162 0.199658 -2.402678
  H 1.251391 0.191865 -2.264533
  C 4.531282 0.133252 -1.225753
  C 5.217957 0.197309 -2.361062
  H 6.295059 0.197340 -2.361587
  H 0.603325 -0.003409 1.196085
  H 0.546916 -0.800423 -0.364918
  H 0.546918 0.964159 -0.265345
  H 3.907553 0.865322 1.432480
  H 3.907560 -0.893211 1.333250
  H 1.847183 -0.976204 2.723446
  H 1.847179 0.791385 2.823188
  H 2.598165 -0.645032 -3.035046
  H 2.598165 1.110123 -2.936007
  H 5.092422 0.081258 -0.304281
  H 4.759601 0.252145 -3.332888
 22
 9.967662
  C 0.873171 0.054429 0.171114
  C 2.504548 0.059881 0.074464
  C 3.301127 -0.012240 1.352663
  C 2.445114 -0.092096 2.767804
  H 3.143881 -0.138939 3.598006
  C 3.111305 0.127253 -1.119475
  C 2.343987 0.200157 -2.411524
  H 1.271797 0.191686 -2.261368
  C 4.561553 0.134816 -1.253477
  C 5.240115 0.199274 -2.395896
  H 6.317403 0.199763 -2.404535
  H 0.532260 -0.003401 1.195936
  H 0.465756 -0.799571 -0.364723
  H 0.465758 0.963291 -0.265246
  H 3.947745 0.865879 1.409560
  H 3.947750 -0.891184 1.310413
  H 1.821363 -0.979873 2.799256
  H 1.821357 0.786503 2.898928
  H 2.610410 -0.644674 -3.046376
  H 2.610410 1.111041 -2.947304
  H 5.130109 0.083060 -0.336208
  H 4.773663 0.253898 -3.363956
 22
 30.769914
  C 0.819276 0.053503 0.187538
  C 2.581654 0.059554 0.080277
  C 3.338846 -0.012832 1.363134
  C 2.358484 -0.096859 2.852184
  H 3.061170 -0.143229 3.674034
  C 3.152413 0.128940 -1.149355
  C 2.349701 0.200763 -2.422241
  H 1.285253 0.190145 -2.234168
  C 4.603409 0.138094 -1.311558
  C 5.259600 0.203513 -2.471005
  H 6.336908 0.205130 -2.499634
  H 0.528597 -0.004756 1.219965
  H 0.450597 -0.806852 -0.354500
  H 0.450600 0.969378 -0.254268
  H 3.973438 0.866531 1.470271
  H 3.973435 -0.898657 1.370662
  H 1.756705 -0.993508 2.830116
  H 1.756708 0.796577 2.931124
  H 2.598887 -0.643210 -3.064762
  H 2.598884 1.111656 -2.965749
  H 5.189553 0.086837 -0.403139
  H 4.770503 0.257509 -3.427956
 22
 55.402609
  C 0.747893 0.054159 0.175915
  C 2.640082 0.060633 0.061159
  C 3.384422 -0.011581 1.340986
  C 2.317909 -0.101195 2.929118
  H 3.048842 -0.145806 3.719794
  C 3.164564 0.129847 -1.165453
  C 2.350800 0.201064 -2.427630
  H 1.290089 0.189306 -2.219294
  C 4.611886 0.139321 -1.333300
  C 5.260932 0.204895 -2.495510
  H 6.338187 0.206849 -2.530097
  H 0.515544 -0.004379 1.213302
  H 0.431253 -0.815944 -0.372271
  H 0.431256 0.980412 -0.270906
  H 3.995737 0.872917 1.515003
  H 3.995729 -0.910026 1.414396
  H 1.735492 -1.002989 2.849721
  H 1.735518 0.803769 2.951668
  H 2.589608 -0.644801 -3.070874
  H 2.589607 1.113929 -2.971648
  H 5.194934 0.087899 -0.421924
  H 4.761614 0.258631 -3.447897
 22
 82.697428
  C 0.659726 0.054012 0.178489
  C 2.681855 0.061553 0.044825
  C 3.423968 -0.009901 1.311148
  C 2.288672 -0.105700 3.008858
  H 3.033841 -0.149787 3.790188
  C 3.190140 0.131039 -1.186563
  C 2.366926 0.201749 -2.439716
  H 1.306697 0.189339 -2.219806
  C 4.640978 0.140958 -1.362317
  C 5.282075 0.206339 -2.521063
  H 6.358131 0.208523 -2.559736
  H 0.445120 -0.005584 1.234578
  H 0.352224 -0.824091 -0.373442
  H 0.352227 0.988636 -0.271149
  H 4.027412 0.876342 1.499617
  H 4.027411 -0.911717 1.398720
  H 1.710226 -1.012229 2.917691
  H 1.710215 0.805343 3.020252
  H 2.600132 -0.644653 -3.084643
  H 2.600126 1.115323 -2.985332
  H 5.225249 0.089702 -0.453918
  H 4.778886 0.259859 -3.469586
