 26
 0.000000
  C 0.965877 0.141080 0.403861
  C 2.441623 0.138113 0.395483
  C 3.232810 0.606037 1.558897
  C 2.460161 1.096122 2.778561
  H 3.141900 1.409448 3.557669
  C 3.054544 -0.327250 -0.762677
  C 4.432021 -0.411401 -0.972891
  C 5.115537 -0.861635 -2.095707
  C 4.625403 -1.384463 -3.399875
  C 3.136770 -1.502435 -3.695146
  H 2.988915 -1.901172 -4.689836
  O 6.437800 -0.854875 -2.078898
  H 0.536942 0.512212 1.327187
  H 0.592714 -0.870148 0.236709
  H 0.592179 0.754961 -0.416679
  H 3.889306 1.416062 1.222017
  H 3.889761 -0.211447 1.876296
  H 1.825925 0.304117 3.173219
  H 1.825556 1.940701 2.515393
  H 2.395585 -0.644658 -1.552315
  H 5.050351 -0.079741 -0.147022
  H 5.084782 -2.371645 -3.523785
  H 5.085270 -0.756627 -4.171435
  H 2.658311 -0.526547 -3.648118
  H 2.657855 -2.175339 -2.987116
  H 6.812991 -0.520362 -1.242733
 26
 7.678448
  C 0.844351 0.143069 0.408788
  C 2.479422 0.138959 0.397587
  C 3.263662 0.605495 1.557590
  C 2.485455 1.094012 2.773339
  H 3.166792 1.408624 3.555696
  C 3.080692 -0.325408 -0.758075
  C 4.456828 -0.411740 -0.973744
  C 5.135078 -0.863589 -2.100671
  C 4.637447 -1.385114 -3.401562
  C 3.147424 -1.499742 -3.688305
  H 2.996947 -1.899205 -4.684805
  O 6.454909 -0.859173 -2.089825
  H 0.423477 0.514533 1.332919
  H 0.476327 -0.866748 0.242287
  H 0.475865 0.756431 -0.410302
  H 3.920309 1.415978 1.222145
  H 3.920741 -0.211341 1.876348
  H 1.851855 0.302126 3.167048
  H 1.851516 1.937875 2.509575
  H 2.416402 -0.641329 -1.544044
  H 5.081102 -0.081571 -0.151649
  H 5.095275 -2.372727 -3.527535
  H 5.095693 -0.758361 -4.174925
  H 2.669927 -0.524011 -3.641162
  H 2.669560 -2.172519 -2.980289
  H 6.837673 -0.525839 -1.256439
 26
 23.620901
  C 0.748318 0.143944 0.410331
  C 2.542770 0.142473 0.406213
  C 3.290806 0.609591 1.568007
  C 2.478553 1.089865 2.763431
  H 3.142226 1.410957 3.562246
  C 3.116260 -0.320866 -0.746828
  C 4.492077 -0.412952 -0.976854
  C 5.156448 -0.868814 -2.113982
  C 4.638828 -1.387322 -3.407123
  C 3.145076 -1.493750 -3.672718
  H 2.987441 -1.893783 -4.670529
  O 6.472645 -0.870173 -2.117998
  H 0.347774 0.516458 1.336998
  H 0.405887 -0.866575 0.244510
  H 0.405670 0.758445 -0.408761
  H 3.947956 1.425649 1.245028
  H 3.948275 -0.202746 1.899554
  H 1.844745 0.293664 3.144322
  H 1.844523 1.928077 2.487569
  H 2.438930 -0.633272 -1.524143
  H 5.131107 -0.086539 -0.164288
  H 5.092461 -2.376242 -3.538590
  H 5.092640 -0.763345 -4.185458
  H 2.669862 -0.517728 -3.624896
  H 2.669804 -2.166423 -2.963927
  H 6.874482 -0.539733 -1.291657
 26
 41.082946
  C 0.639909 0.145154 0.412901
  C 2.593697 0.147777 0.419547
  C 3.316489 0.621822 1.598633
  C 2.475396 1.095661 2.778085
  H 3.120567 1.421489 3.588760
  C 3.151088 -0.322423 -0.750420
  C 4.526051 -0.419371 -0.992580
  C 5.178066 -0.876992 -2.134422
  C 4.644152 -1.393640 -3.422942
  C 3.147622 -1.494075 -3.673147
  H 2.984484 -1.893511 -4.669532
  O 6.496530 -0.882684 -2.149754
  H 0.257200 0.520819 1.347200
  H 0.323955 -0.875333 0.246823
  H 0.323986 0.766722 -0.413335
  H 3.974489 1.443547 1.287681
  H 3.974767 -0.186268 1.942787
  H 1.840883 0.294335 3.147606
  H 1.840670 1.929741 2.490491
  H 2.464493 -0.631769 -1.520208
  H 5.175724 -0.095937 -0.187407
  H 5.094403 -2.383643 -3.558835
  H 5.094406 -0.771819 -4.205214
  H 2.674000 -0.517239 -3.624848
  H 2.674167 -2.167165 -2.963474
  H 6.912475 -0.554774 -1.329851
 26
 58.441284
  C 0.535916 0.144234 0.409731
  C 2.649032 0.147824 0.419835
  C 3.347231 0.620541 1.595888
  C 2.486162 1.088518 2.760743
  H 3.117880 1.418258 3.581357
  C 3.176233 -0.317077 -0.736910
  C 4.546531 -0.417469 -0.987729
  C 5.189992 -0.877250 -2.135303
  C 4.644677 -1.391873 -3.418548
  C 3.146368 -1.487700 -3.656504
  H 2.977876 -1.887241 -4.653065
  O 6.504704 -0.886406 -2.160060
  H 0.177813 0.522034 1.349226
  H 0.246736 -0.879611 0.245777
  H 0.247148 0.769872 -0.417304
  H 4.004806 1.445163 1.292493
  H 4.004988 -0.184522 1.947484
  H 1.851509 0.283383 3.120516
  H 1.851424 1.918700 2.463506
  H 2.480597 -0.623088 -1.498573
  H 5.203693 -0.095880 -0.187080
  H 5.092266 -2.382615 -3.557832
  H 5.091977 -0.771733 -4.203858
  H 2.674378 -0.510265 -3.607518
  H 2.674876 -2.160916 -2.945851
  H 6.930903 -0.560191 -1.345040
 26
 74.337999
  C 0.413050 0.151739 0.427639
  C 2.685462 0.157776 0.444725
  C 3.364130 0.637971 1.639585
  C 2.476238 1.100169 2.790190
  H 3.089149 1.434746 3.623022
  C 3.208241 -0.321781 -0.748471
  C 4.588092 -0.428414 -1.014856
  C 5.219929 -0.890479 -2.168392
  C 4.658441 -1.403304 -3.446959
  C 3.157330 -1.493110 -3.669407
  H 2.979600 -1.892046 -4.664364
  O 6.538625 -0.904374 -2.205587
  H 0.075702 0.532617 1.374737
  H 0.150704 -0.880172 0.264430
  H 0.151367 0.783796 -0.404424
  H 4.021887 1.468716 1.347546
  H 4.022035 -0.163696 2.003555
  H 1.841140 0.289762 3.137273
  H 1.841037 1.925436 2.480242
  H 2.503436 -0.625924 -1.505619
  H 5.254185 -0.109635 -0.221027
  H 5.101563 -2.395524 -3.590905
  H 5.101076 -0.785257 -4.236713
  H 2.688572 -0.514398 -3.617889
  H 2.689265 -2.165591 -2.955963
  H 6.976982 -0.579891 -1.395629
 26
 86.188681
  C 0.348419 0.139721 0.388781
  C 2.779587 0.156646 0.443014
  C 3.393527 0.648025 1.670565
  C 2.444047 1.096029 2.784068
  H 3.014963 1.439342 3.642334
  C 3.249525 -0.319890 -0.743502
  C 4.608680 -0.431581 -1.025753
  C 5.215451 -0.891005 -2.174101
  C 4.632282 -1.401466 -3.442088
  C 3.127344 -1.482178 -3.634433
  H 2.933036 -1.881096 -4.626562
  O 6.531506 -0.911141 -2.232184
  H 0.075773 0.526589 1.351642
  H 0.186258 -0.910846 0.225204
  H 0.189581 0.786557 -0.455723
  H 4.048556 1.491743 1.411154
  H 4.046683 -0.142436 2.066656
  H 1.811272 0.272648 3.103993
  H 1.813511 1.913766 2.445830
  H 2.533311 -0.618907 -1.488048
  H 5.281143 -0.115157 -0.239749
  H 5.068456 -2.395689 -3.592159
  H 5.065041 -0.785876 -4.238962
  H 2.663758 -0.501471 -3.581142
  H 2.667530 -2.155346 -2.916761
  H 6.985386 -0.588216 -1.430978
 26
 94.039327
  C 0.363086 0.126173 0.331861
  C 2.948825 0.171183 0.493551
  C 3.390575 0.675323 1.754880
  C 2.324234 1.087220 2.766534
  H 2.799333 1.447713 3.672680
  C 3.328998 -0.300219 -0.674696
  C 4.706745 -0.434745 -1.040087
  C 5.232789 -0.903940 -2.218186
  C 4.582025 -1.409465 -3.461545
  C 3.065082 -1.464076 -3.575250
  H 2.811089 -1.858627 -4.556272
  O 6.549841 -0.953185 -2.361909
  H 0.128903 0.516488 1.298599
  H 0.330648 -0.932072 0.174655
  H 0.341733 0.781362 -0.514259
  H 4.020458 1.549150 1.555481
  H 4.008873 -0.100912 2.219452
  H 1.697051 0.238496 3.022309
  H 1.705727 1.883446 2.363293
  H 2.588929 -0.597549 -1.400435
  H 5.416242 -0.120549 -0.279194
  H 4.995420 -2.409561 -3.632648
  H 4.983053 -0.798051 -4.277435
  H 2.623881 -0.473926 -3.498390
  H 2.633857 -2.131733 -2.834161
  H 7.043016 -0.637435 -1.585794
 26
 98.356904
  C 0.341883 0.107566 0.268972
  C 3.079379 0.178948 0.526719
  C 3.409022 0.691484 1.814023
  C 2.254149 1.080921 2.751862
  H 2.657894 1.453403 3.687274
  C 3.411989 -0.287039 -0.630271
  C 4.786174 -0.439295 -1.053972
  C 5.242198 -0.907780 -2.236108
  C 4.533198 -1.406590 -3.460461
  C 3.015329 -1.442901 -3.511276
  H 2.716646 -1.833687 -4.481181
  O 6.569154 -0.979619 -2.445533
  H 0.095778 0.497294 1.234990
  H 0.368077 -0.953698 0.116662
  H 0.384239 0.769012 -0.574156
  H 4.020651 1.588537 1.656174
  H 4.004230 -0.073897 2.328235
  H 1.633972 0.216185 2.965750
  H 1.648891 1.862669 2.303482
  H 2.658531 -0.580072 -1.341593
  H 5.519557 -0.133928 -0.323107
  H 4.924650 -2.411595 -3.645250
  H 4.907067 -0.798841 -4.290412
  H 2.590902 -0.446261 -3.418125
  H 2.608276 -2.108306 -2.753991
  H 7.091826 -0.672907 -1.693593
 26
 100.640257
  C 0.265855 0.092715 0.226404
  C 3.156228 0.186409 0.549426
  C 3.427528 0.701564 1.845818
  C 2.232598 1.074900 2.737446
  H 2.597141 1.452913 3.687001
  C 3.469032 -0.277657 -0.605667
  C 4.835988 -0.441358 -1.057525
  C 5.253828 -0.912115 -2.247444
  C 4.508607 -1.403261 -3.453171
  C 2.985957 -1.423814 -3.460393
  H 2.654937 -1.810892 -4.421700
  O 6.576846 -0.997684 -2.495783
  H 0.009497 0.480299 1.188924
  H 0.321543 -0.965323 0.077904
  H 0.338269 0.755272 -0.610452
  H 4.028143 1.610540 1.710760
  H 4.009659 -0.057018 2.384759
  H 1.617712 0.200389 2.927965
  H 1.635446 1.848927 2.264784
  H 2.706112 -0.567968 -1.312738
  H 5.587933 -0.141887 -0.338615
  H 4.885042 -2.412949 -3.647743
  H 4.865768 -0.797381 -4.292364
  H 2.575073 -0.422849 -3.355493
  H 2.594257 -2.086125 -2.692493
  H 7.125027 -0.692357 -1.750097
 26
 101.909771
  C 0.191314 0.079373 0.191794
  C 3.233656 0.197722 0.579451
  C 3.445572 0.713937 1.880215
  C 2.204468 1.068802 2.721904
  H 2.523729 1.452229 3.685333
  C 3.525621 -0.265222 -0.575785
  C 4.882549 -0.442737 -1.059478
  C 5.262135 -0.916686 -2.257974
  C 4.481665 -1.400705 -3.447299
  C 2.961052 -1.406583 -3.417269
  H 2.603133 -1.789979 -4.370064
  O 6.578113 -1.016112 -2.542503
  H -0.074603 0.465707 1.153288
  H 0.275826 -0.978455 0.047568
  H 0.291726 0.745496 -0.640745
  H 4.033494 1.634923 1.768850
  H 4.013851 -0.037658 2.444100
  H 1.596952 0.184145 2.886333
  H 1.616407 1.833362 2.223410
  H 2.753415 -0.550579 -1.272890
  H 5.649972 -0.152482 -0.359117
  H 4.842696 -2.413411 -3.650040
  H 4.823392 -0.797473 -4.293846
  H 2.562788 -0.401328 -3.303413
  H 2.582241 -2.066565 -2.640724
  H 7.140067 -0.718666 -1.817416
 26
 102.579270
  C 0.114600 0.063260 0.152521
  C 3.307596 0.208422 0.607896
  C 3.462104 0.725689 1.912111
  C 2.178443 1.059515 2.697853
  H 2.450074 1.448035 3.673675
  C 3.581075 -0.254091 -0.548556
  C 4.925649 -0.443851 -1.062399
  C 5.267496 -0.921457 -2.269533
  C 4.450378 -1.396066 -3.436365
  C 2.929621 -1.383884 -3.363012
  H 2.539947 -1.763137 -4.305333
  O 6.574856 -1.036016 -2.590098
  H -0.161342 0.447407 1.110187
  H 0.225731 -0.990527 0.013828
  H 0.240357 0.730780 -0.672461
  H 4.035667 1.658101 1.824659
  H 4.015068 -0.017989 2.500628
  H 1.580099 0.164172 2.835398
  H 1.600907 1.813968 2.172634
  H 2.796788 -0.536181 -1.237278
  H 5.712114 -0.160744 -0.377716
  H 4.794001 -2.413389 -3.647459
  H 4.775644 -0.795709 -4.291673
  H 2.546520 -0.373678 -3.239335
  H 2.565130 -2.040243 -2.576310
  H 7.165091 -0.741257 -1.870887
 26
 102.849013
  C 0.028355 0.049303 0.119775
  C 3.371992 0.220047 0.638339
  C 3.477285 0.738301 1.945277
  C 2.154598 1.052274 2.678165
  H 2.380989 1.444998 3.663909
  C 3.629644 -0.242313 -0.519384
  C 4.961535 -0.443817 -1.062474
  C 5.270356 -0.924941 -2.277602
  C 4.421171 -1.391943 -3.426570
  C 2.903278 -1.365046 -3.319209
  H 2.489123 -1.740595 -4.252327
  O 6.567944 -1.052457 -2.628192
  H -0.259283 0.432285 1.075672
  H 0.159474 -1.003872 -0.014623
  H 0.172759 0.719707 -0.701248
  H 4.037507 1.680772 1.879138
  H 4.016085 0.001705 2.555727
  H 1.565503 0.147300 2.790937
  H 1.587480 1.797206 2.128390
  H 2.834237 -0.520271 -1.196734
  H 5.763279 -0.168518 -0.395876
  H 4.749671 -2.412547 -3.644238
  H 4.732685 -0.794414 -4.288657
  H 2.532590 -0.351057 -3.188586
  H 2.549988 -2.018698 -2.525132
  H 7.168662 -0.767377 -1.931252
 26
 102.887893
  C -0.065982 0.034569 0.084331
  C 3.427820 0.230382 0.665755
  C 3.489383 0.748248 1.971889
  C 2.133797 1.042582 2.651963
  H 2.316872 1.438478 3.645052
  C 3.673287 -0.232380 -0.494291
  C 4.991117 -0.444141 -1.063577
  C 5.267833 -0.928090 -2.285217
  C 4.386621 -1.385818 -3.411649
  C 2.871676 -1.342820 -3.265597
  H 2.429806 -1.714013 -4.187904
  O 6.556254 -1.068330 -2.666245
  H -0.365805 0.415495 1.035910
  H 0.079670 -1.015580 -0.046300
  H 0.091886 0.705693 -0.731565
  H 4.036450 1.698593 1.925365
  H 4.013905 0.018921 2.601574
  H 1.554343 0.129039 2.741366
  H 1.577822 1.778326 2.079347
  H 2.865443 -0.506969 -1.161745
  H 5.809796 -0.175339 -0.412821
  H 4.699012 -2.409963 -3.636511
  H 4.682757 -0.791057 -4.280967
  H 2.514753 -0.324736 -3.126736
  H 2.531413 -1.993481 -2.463137
  H 7.185593 -0.785325 -1.973396
