 20
 0.000000
  C 1.008621 -0.071827 0.047052
  C 2.504890 -0.083317 0.024496
  C 3.218875 -0.596413 -0.982800
  C 4.656980 -0.606195 -1.002002
  C 5.376658 -1.121830 -2.014278
  C 6.815581 -1.130474 -2.031243
  C 7.533164 -1.642508 -3.036460
  C 9.023331 -1.660943 -3.072641
  H 0.649193 0.395275 0.964049
  H 0.612051 -1.086428 0.011028
  H 0.612051 0.495578 -0.794830
  H 3.005466 0.352134 0.879363
  H 2.708041 -1.030045 -1.834081
  H 5.161238 -0.171242 -0.148120
  H 4.872982 -1.556891 -2.868376
  H 7.322441 -0.696040 -1.178375
  H 7.034856 -2.078903 -3.893158
  H 9.458125 -1.207851 -2.183152
  H 9.382428 -1.114149 -3.946041
  H 9.382428 -2.688915 -3.143884
 20
 0.408465
  C 1.009189 -0.003546 -0.000652
  C 2.502955 -0.041218 0.007783
  C 3.222254 -0.706765 -0.899652
  C 4.657425 -0.738122 -0.927210
  C 5.378681 -1.154120 -1.983903
  C 6.815050 -1.175200 -2.015063
  C 7.533839 -1.575266 -3.068633
  C 9.022195 -1.603374 -3.116059
  H 0.635170 0.798371 0.630417
  H 0.606019 -0.947006 0.369839
  H 0.629885 0.143029 -1.011265
  H 2.996748 0.437935 0.842602
  H 2.703824 -1.098147 -1.766562
  H 5.166550 -0.416962 -0.026950
  H 4.869600 -1.481481 -2.882094
  H 7.321735 -0.842406 -1.117243
  H 7.028932 -1.906108 -3.967643
  H 9.451448 -1.281645 -2.170069
  H 9.387154 -0.947401 -3.907343
  H 9.374878 -2.611025 -3.338405
 20
 8.277045
  C 1.048047 0.017758 -0.035063
  C 2.541096 -0.002995 -0.024279
  C 3.231206 -0.914723 -0.739843
  C 4.669245 -0.910651 -0.794815
  C 5.369988 -1.244845 -1.896680
  C 6.808065 -1.255468 -1.954918
  C 7.511642 -1.535504 -3.061581
  C 9.002491 -1.552342 -3.124618
  H 0.673833 0.948437 0.377724
  H 0.661428 -0.815082 0.537888
  H 0.663009 -0.081635 -1.056710
  H 3.032759 0.635906 0.690393
  H 2.704863 -1.181856 -1.645950
  H 5.200438 -0.692221 0.110585
  H 4.852874 -1.477318 -2.822034
  H 7.326745 -1.031293 -1.032240
  H 6.997705 -1.757832 -3.981999
  H 9.440650 -1.329927 -2.153357
  H 9.363341 -0.815196 -3.836285
  H 9.346323 -2.534865 -3.456675
 20
 23.299659
  C 1.051886 -0.048484 0.019580
  C 2.538448 0.007875 -0.087951
  C 3.226397 -0.969872 -0.739304
  C 4.662025 -0.924928 -0.815571
  C 5.376203 -1.182706 -1.928347
  C 6.809095 -1.250121 -1.959132
  C 7.525403 -1.459280 -3.065024
  C 9.005483 -1.598908 -3.099987
  H 0.642402 0.933587 0.191979
  H 0.771251 -0.701795 0.846332
  H 0.599476 -0.456171 -0.884603
  H 3.028243 0.814920 0.446085
  H 2.699311 -1.039261 -1.687383
  H 5.179613 -0.791858 0.119444
  H 4.865769 -1.282774 -2.875890
  H 7.315040 -1.147812 -1.003186
  H 7.021560 -1.541857 -4.023342
  H 9.427458 -1.531149 -2.102408
  H 9.443236 -0.819950 -3.721856
  H 9.286404 -2.557281 -3.533508
 20
 55.693273
  C 1.069035 -0.064554 0.052459
  C 2.520691 0.052587 -0.245827
  C 3.217835 -1.049055 -0.730528
  C 4.645429 -1.024790 -0.818709
  C 5.366802 -1.221422 -1.939158
  C 6.800624 -1.311231 -1.959184
  C 7.531815 -1.433994 -3.067947
  C 9.015313 -1.561547 -3.092868
  H 0.624719 0.914021 0.142517
  H 0.936648 -0.613287 0.984886
  H 0.539732 -0.611768 -0.728283
  H 3.006677 0.941980 0.166276
  H 2.647691 -0.743006 -1.637563
  H 5.158824 -0.984037 0.136055
  H 4.862560 -1.264178 -2.897420
  H 7.296630 -1.273459 -0.995833
  H 7.042381 -1.458215 -4.033031
  H 9.423358 -1.561917 -2.085544
  H 9.459981 -0.736470 -3.650573
  H 9.308608 -2.486458 -3.589620
 20
 75.085721
  C 1.049988 -0.053373 0.040243
  C 2.502001 0.006629 -0.354998
  C 3.253750 -1.140592 -0.614380
  C 4.673726 -1.129380 -0.755977
  C 5.380015 -1.234765 -1.897432
  C 6.808573 -1.359777 -1.939695
  C 7.532011 -1.402913 -3.060736
  C 9.017067 -1.533717 -3.105213
  H 0.587679 0.929795 -0.005737
  H 0.981461 -0.413012 1.065668
  H 0.487524 -0.741973 -0.583828
  H 2.958099 0.992278 -0.182057
  H 2.599437 -0.556933 -1.516540
  H 5.197252 -1.187157 0.192300
  H 4.866848 -1.186908 -2.850867
  H 7.310614 -1.421168 -0.980736
  H 7.037381 -1.338966 -4.022418
  H 9.432473 -1.593736 -2.101605
  H 9.461923 -0.678074 -3.617554
  H 9.305016 -2.429903 -3.656574
 20
 69.868812
  C 1.057446 -0.088361 0.095823
  C 2.471414 0.004501 -0.458855
  C 3.269513 -1.159952 -0.592810
  C 4.666083 -1.150555 -0.780381
  C 5.386542 -1.232808 -1.913343
  C 6.819941 -1.377347 -1.938999
  C 7.556516 -1.400681 -3.050200
  C 9.037561 -1.547747 -3.078623
  H 0.527144 0.863405 0.011131
  H 1.106811 -0.344601 1.153089
  H 0.487814 -0.863883 -0.404218
  H 2.912112 1.003011 -0.350027
  H 2.421488 -0.256069 -1.587838
  H 5.177184 -1.242442 0.176027
  H 4.884024 -1.156656 -2.868928
  H 7.309999 -1.469588 -0.974447
  H 7.075927 -1.306853 -4.014501
  H 9.438668 -1.636714 -2.073049
  H 9.497625 -0.687241 -3.563276
  H 9.321841 -2.433272 -3.647696
 20
 64.616461
  C 1.098863 -0.127308 0.136839
  C 2.423556 0.002547 -0.609778
  C 3.289081 -1.157394 -0.576740
  C 4.661890 -1.146906 -0.786429
  C 5.402847 -1.156395 -1.921410
  C 6.819118 -1.376506 -1.943793
  C 7.565406 -1.369332 -3.051741
  C 9.042775 -1.568175 -3.076868
  H 0.522341 0.794175 0.074899
  H 1.288439 -0.335087 1.187754
  H 0.507286 -0.944505 -0.265682
  H 2.882405 0.991526 -0.477672
  H 2.221846 -0.076240 -1.704918
  H 5.162143 -1.374577 0.156381
  H 4.908225 -1.009775 -2.872748
  H 7.295697 -1.544702 -0.984694
  H 7.096163 -1.205522 -4.013505
  H 9.432101 -1.726976 -2.073701
  H 9.538877 -0.698794 -3.511045
  H 9.299737 -2.431244 -3.692646
 20
 64.323199
  C 1.167300 -0.187478 0.243773
  C 2.276349 0.028011 -0.800434
  C 3.312012 -0.982443 -0.712287
  C 4.659544 -1.030947 -0.825299
  C 5.456890 -0.943220 -1.944546
  C 6.818435 -1.346874 -1.962852
  C 7.601920 -1.325898 -3.053392
  C 9.052877 -1.662589 -3.053642
  H 0.596750 0.728334 0.383883
  H 1.601965 -0.470879 1.198891
  H 0.487603 -0.975913 -0.067132
  H 2.627413 1.070255 -0.785051
  H 1.843619 -0.139933 -1.792693
  H 5.120543 -1.466742 0.062582
  H 4.999921 -0.664265 -2.884523
  H 7.246601 -1.654990 -1.015405
  H 7.183495 -1.032850 -4.007551
  H 9.379250 -1.984492 -2.067186
  H 9.648057 -0.797841 -3.352593
  H 9.258245 -2.460549 -3.768626
 20
 59.448082
  C 1.228854 -0.165702 -0.169770
  C 2.574472 -0.157802 -0.899850
  C 3.500818 -1.123810 -0.293468
  C 4.845884 -1.104918 -0.209801
  C 5.528081 -0.768776 -1.383154
  C 6.752240 -1.368330 -1.761382
  C 7.378295 -1.127414 -2.929209
  C 8.724642 -1.649461 -3.284747
  H 0.533373 0.520306 -0.646942
  H 1.363460 0.143622 0.863398
  H 0.801960 -1.164166 -0.176447
  H 2.967494 0.868147 -0.942887
  H 2.408089 -0.504741 -1.925779
  H 5.360306 -1.698414 0.535814
  H 5.023143 -0.158855 -2.120108
  H 7.227923 -2.012378 -1.032698
  H 6.905202 -0.492925 -3.666841
  H 9.117913 -2.288922 -2.498449
  H 9.421613 -0.826358 -3.449661
  H 8.675028 -2.220407 -4.212104
