 29
 0.000000
  C 0.975382 0.135330 0.395693
  C 2.451959 0.141493 0.394423
  C 3.233968 0.611540 1.563352
  C 2.454403 1.097678 2.780699
  H 3.127428 1.413254 3.563907
  C 3.075737 -0.321472 -0.758150
  C 4.453885 -0.410024 -0.969922
  C 5.120801 -0.865738 -2.099934
  C 4.618381 -1.386894 -3.400935
  C 3.127361 -1.500621 -3.695191
  C 2.904439 -2.062713 -5.096561
  O 6.443581 -0.867815 -2.096030
  H 0.541041 0.497157 1.320583
  H 0.610719 -0.878406 0.225033
  H 0.591893 0.752549 -0.418515
  H 3.888589 1.424810 1.230559
  H 3.892458 -0.203691 1.883263
  H 1.820225 0.301241 3.168703
  H 1.816247 1.938899 2.512111
  H 2.420816 -0.640389 -1.550856
  H 5.078118 -0.079510 -0.148332
  H 5.071312 -2.376897 -3.527018
  H 5.076165 -0.761552 -4.175912
  H 2.654517 -0.519087 -3.643098
  H 2.649590 -2.171080 -2.979717
  H 3.345669 -1.416736 -5.852102
  H 1.839738 -2.141860 -5.301599
  H 3.340812 -3.054088 -5.194574
  H 6.825271 -0.534647 -1.262452
 29
 0.140121
  C 0.981948 0.384528 0.321064
  C 2.438806 0.175553 0.374974
  C 3.220999 0.419511 1.608668
  C 2.454449 0.916672 2.831392
  H 3.144088 1.040498 3.662904
  C 3.049102 -0.256244 -0.799332
  C 4.423670 -0.307809 -1.017224
  C 5.105846 -0.719713 -2.152231
  C 4.609893 -1.333402 -3.414856
  C 3.124085 -1.571179 -3.655800
  C 2.922470 -2.244667 -5.012025
  O 6.423713 -0.599367 -2.185842
  H 0.579273 0.825728 1.220838
  H 0.475892 -0.559505 0.133983
  H 0.752052 1.021227 -0.537022
  H 4.018669 1.139118 1.381466
  H 3.731534 -0.515834 1.872195
  H 1.692150 0.207900 3.138083
  H 1.988324 1.878660 2.643482
  H 2.386301 -0.524654 -1.606859
  H 5.055034 0.056623 -0.215316
  H 5.138603 -2.290805 -3.506223
  H 5.010114 -0.719650 -4.231487
  H 2.584905 -0.623317 -3.662553
  H 2.714356 -2.222216 -2.883309
  H 3.307789 -1.622724 -5.816720
  H 1.864951 -2.416481 -5.195570
  H 3.431497 -3.205112 -5.049618
  H 6.823217 -0.212453 -1.379544
 29
 2.207921
  C 1.049358 0.709057 0.266574
  C 2.429666 0.200902 0.371044
  C 3.153531 0.145618 1.659566
  C 2.464175 0.761575 2.869957
  H 3.093362 0.632664 3.746547
  C 3.027595 -0.217582 -0.816402
  C 4.392161 -0.204675 -1.072045
  C 5.069610 -0.549404 -2.237526
  C 4.600074 -1.272247 -3.450565
  C 3.144084 -1.683651 -3.610758
  C 2.967995 -2.466658 -4.909013
  O 6.351294 -0.255482 -2.343430
  H 0.685883 1.139869 1.189073
  H 0.367149 -0.084726 -0.047766
  H 1.027163 1.460237 -0.523006
  H 4.140304 0.606720 1.539959
  H 3.359016 -0.911185 1.870318
  H 1.512830 0.281367 3.075767
  H 2.300403 1.825430 2.730970
  H 2.353182 -0.462518 -1.621595
  H 5.020268 0.215930 -0.292937
  H 5.224844 -2.170449 -3.513325
  H 4.900287 -0.666525 -4.312294
  H 2.504559 -0.801594 -3.657227
  H 2.836684 -2.316474 -2.780074
  H 3.256716 -1.865048 -5.768039
  H 1.928335 -2.760246 -5.036298
  H 3.575551 -3.369927 -4.905075
  H 6.734017 0.193212 -1.564758
 29
 6.041087
  C 1.147244 0.970226 0.234895
  C 2.409626 0.218502 0.364859
  C 3.071551 -0.019725 1.663547
  C 2.482962 0.673507 2.884923
  H 3.039603 0.377802 3.769185
  C 2.993855 -0.237309 -0.825822
  C 4.344863 -0.135537 -1.117994
  C 5.028222 -0.461853 -2.284947
  C 4.585975 -1.246814 -3.469589
  C 3.176883 -1.818111 -3.544323
  C 3.000611 -2.594380 -4.846706
  O 6.278518 -0.062081 -2.432497
  H 0.830919 1.423131 1.164113
  H 0.345332 0.335979 -0.143516
  H 1.310127 1.743428 -0.517732
  H 4.134151 0.228921 1.578782
  H 3.056759 -1.103445 1.829010
  H 1.445331 0.394315 3.042380
  H 2.548095 1.755056 2.793438
  H 2.309532 -0.551327 -1.598624
  H 4.951213 0.353683 -0.362714
  H 5.305733 -2.069537 -3.560786
  H 4.766762 -0.621076 -4.348784
  H 2.441662 -1.014246 -3.528392
  H 2.998990 -2.494878 -2.707698
  H 3.156344 -1.947701 -5.709062
  H 1.996334 -3.006318 -4.909100
  H 3.705578 -3.418898 -4.907092
  H 6.642489 0.426932 -1.673005
 29
 11.978711
  C 1.296432 1.161954 0.224815
  C 2.396618 0.194129 0.382335
  C 3.001015 -0.148504 1.685428
  C 2.501804 0.611855 2.907341
  H 3.016054 0.253229 3.787727
  C 2.965568 -0.308328 -0.808415
  C 4.283217 -0.090877 -1.155636
  C 4.967432 -0.398627 -2.328273
  C 4.560016 -1.238243 -3.486438
  C 3.175042 -1.867875 -3.536984
  C 3.030169 -2.704518 -4.806887
  O 6.166477 0.122578 -2.530176
  H 1.069146 1.683274 1.141727
  H 0.385772 0.683873 -0.141014
  H 1.610710 1.867207 -0.546148
  H 4.091786 -0.061564 1.608778
  H 2.826570 -1.220211 1.836815
  H 1.435356 0.460578 3.063530
  H 2.698677 1.676467 2.816165
  H 2.280467 -0.736489 -1.522183
  H 4.860220 0.481045 -0.440722
  H 5.313149 -2.033109 -3.556778
  H 4.710272 -0.631180 -4.382136
  H 2.408858 -1.093585 -3.550872
  H 3.025056 -2.517983 -2.673830
  H 3.167919 -2.090511 -5.694891
  H 2.040103 -3.152191 -4.855609
  H 3.763656 -3.505508 -4.830137
  H 6.493554 0.678589 -1.799105
 29
 19.736889
  C 1.496559 1.269186 0.168212
  C 2.451035 0.174517 0.420701
  C 2.931479 -0.214634 1.755875
  C 2.451901 0.618343 2.935976
  H 2.850221 0.201892 3.858802
  C 3.031943 -0.416918 -0.747109
  C 4.278266 -0.050694 -1.192504
  C 4.929537 -0.355782 -2.383788
  C 4.511336 -1.220019 -3.524113
  C 3.167034 -1.936158 -3.504298
  C 2.984987 -2.734518 -4.792903
  O 6.107408 0.199633 -2.628950
  H 1.265472 1.837957 1.060292
  H 0.562549 0.888843 -0.252251
  H 1.939042 1.902122 -0.605634
  H 4.027070 -0.251704 1.738371
  H 2.633673 -1.259396 1.909941
  H 1.367310 0.612471 3.009711
  H 2.796914 1.648624 2.858379
  H 2.361731 -0.977262 -1.383397
  H 4.851408 0.575696 -0.511185
  H 5.307041 -1.963279 -3.646518
  H 4.568772 -0.595076 -4.425701
  H 2.355101 -1.211909 -3.432611
  H 3.120457 -2.625762 -2.663083
  H 3.017246 -2.082371 -5.662431
  H 2.025376 -3.246548 -4.789740
  H 3.768674 -3.484567 -4.899511
  H 6.452134 0.745992 -1.899327
 29
 26.686653
  C 1.712467 1.470344 0.210309
  C 2.547868 0.285041 0.417690
  C 2.874103 -0.280117 1.732993
  C 2.322795 0.446677 2.951722
  H 2.609619 -0.088912 3.852917
  C 3.120099 -0.329214 -0.767804
  C 4.310757 0.081448 -1.296478
  C 4.942595 -0.314999 -2.482100
  C 4.496847 -1.247517 -3.555614
  C 3.157166 -1.965230 -3.452692
  C 2.927479 -2.819135 -4.697449
  O 6.128224 0.205661 -2.778425
  H 1.542567 2.029559 1.123545
  H 0.740080 1.162100 -0.187140
  H 2.148583 2.100703 -0.565329
  H 3.965459 -0.371604 1.805790
  H 2.522065 -1.320661 1.743496
  H 1.237801 0.496466 2.924963
  H 2.721491 1.455271 3.024158
  H 2.508061 -1.065023 -1.266021
  H 4.853481 0.824785 -0.721165
  H 5.292753 -1.993800 -3.666257
  H 4.522313 -0.672778 -4.489230
  H 2.346810 -1.240288 -3.378847
  H 3.147880 -2.620811 -2.581968
  H 2.917100 -2.204094 -5.594695
  H 1.973623 -3.336831 -4.632037
  H 3.711070 -3.565776 -4.805476
  H 6.465650 0.830461 -2.111956
 29
 18.315978
  C 1.983179 1.656166 0.277647
  C 2.653747 0.355453 0.397316
  C 2.752762 -0.384232 1.670279
  C 2.167397 0.290878 2.903374
  H 2.293323 -0.361026 3.766394
  C 3.208459 -0.239875 -0.777112
  C 4.337622 0.234532 -1.414346
  C 4.915493 -0.201831 -2.605302
  C 4.460856 -1.223793 -3.592602
  C 3.160592 -1.989960 -3.385566
  C 2.905378 -2.910523 -4.576171
  O 6.068093 0.329123 -2.989366
  H 1.877481 2.168808 1.226659
  H 0.980875 1.464878 -0.119302
  H 2.450058 2.295662 -0.461702
  H 3.809445 -0.615289 1.836205
  H 2.278056 -1.367949 1.538279
  H 1.104410 0.482537 2.782860
  H 2.673543 1.227392 3.120858
  H 2.667772 -1.082760 -1.186128
  H 4.877984 1.012102 -0.892908
  H 5.283809 -1.941373 -3.701169
  H 4.415379 -0.703461 -4.554834
  H 2.326220 -1.296288 -3.301277
  H 3.222088 -2.606657 -2.487639
  H 2.828212 -2.339760 -5.499236
  H 1.975470 -3.460053 -4.439404
  H 3.710936 -3.632214 -4.688381
  H 6.436803 0.979406 -2.365070
 29
 12.906935
  C 2.160351 1.601941 0.241303
  C 2.714454 0.255938 0.429227
  C 2.702911 -0.445149 1.729593
  C 2.102107 0.309529 2.906818
  H 2.141042 -0.317403 3.793757
  C 3.314501 -0.364653 -0.688571
  C 4.353334 0.213012 -1.400440
  C 4.908648 -0.196546 -2.606658
  C 4.430619 -1.200264 -3.599254
  C 3.146899 -1.985358 -3.359375
  C 2.856016 -2.883078 -4.559512
  O 6.025734 0.376415 -3.031737
  H 2.038725 2.156767 1.164583
  H 1.165979 1.471025 -0.199103
  H 2.708606 2.167151 -0.510719
  H 3.733459 -0.735637 1.957784
  H 2.171057 -1.398204 1.608049
  H 1.062321 0.566236 2.724074
  H 2.658777 1.218271 3.121367
  H 2.901597 -1.307981 -1.008278
  H 4.840640 1.057807 -0.927398
  H 5.255388 -1.904670 -3.754916
  H 4.342816 -0.658839 -4.548358
  H 2.307407 -1.302501 -3.223915
  H 3.250456 -2.621270 -2.480402
  H 2.731692 -2.293808 -5.465155
  H 1.942357 -3.449103 -4.397187
  H 3.667010 -3.589333 -4.721504
  H 6.387988 1.048380 -2.426415
 29
 7.696714
  C 2.384078 1.645811 0.289417
  C 2.799568 0.245426 0.439513
  C 2.609662 -0.510026 1.697420
  C 1.994030 0.254033 2.860687
  H 1.898533 -0.407961 3.717408
  C 3.407710 -0.378108 -0.656400
  C 4.391481 0.231520 -1.427986
  C 4.910604 -0.175062 -2.649520
  C 4.414014 -1.200929 -3.609155
  C 3.155029 -2.004273 -3.307273
  C 2.815121 -2.902281 -4.494068
  O 5.988207 0.424883 -3.129045
  H 2.329718 2.191295 1.224678
  H 1.373889 1.631070 -0.133462
  H 2.985171 2.151131 -0.463062
  H 3.582675 -0.915421 1.993150
  H 1.993489 -1.392576 1.484723
  H 1.003610 0.624317 2.610993
  H 2.619127 1.091276 3.160924
  H 3.070167 -1.369104 -0.914511
  H 4.877744 1.090633 -0.980116
  H 5.244762 -1.890938 -3.793530
  H 4.275734 -0.671295 -4.559100
  H 2.315427 -1.333131 -3.123596
  H 3.310290 -2.642007 -2.437391
  H 2.640667 -2.312756 -5.391177
  H 1.916446 -3.478166 -4.288686
  H 3.624367 -3.599880 -4.697081
  H 6.371182 1.099604 -2.539498
 29
 7.434005
  C 2.433744 1.521391 0.158291
  C 2.862806 0.142261 0.431224
  C 2.538716 -0.559938 1.697077
  C 1.911725 0.292243 2.791400
  H 1.692314 -0.330156 3.654929
  C 3.597216 -0.510565 -0.551888
  C 4.496139 0.173687 -1.382455
  C 4.991261 -0.189192 -2.621211
  C 4.447369 -1.192135 -3.578270
  C 3.183740 -1.965219 -3.221640
  C 2.718285 -2.786698 -4.420700
  O 6.013605 0.466168 -3.144374
  H 2.328862 2.139178 1.040370
  H 1.452038 1.462228 -0.324162
  H 3.067924 1.943140 -0.621840
  H 3.458154 -1.019394 2.072832
  H 1.868159 -1.395624 1.464044
  H 0.981359 0.745539 2.461375
  H 2.593102 1.074852 3.114227
  H 3.450515 -1.572522 -0.675106
  H 5.018458 0.989159 -0.893995
  H 5.252039 -1.879866 -3.852096
  H 4.247833 -0.623903 -4.496718
  H 2.392699 -1.273074 -2.933192
  H 3.371942 -2.653142 -2.399129
  H 2.489770 -2.143898 -5.268369
  H 1.822432 -3.348960 -4.169336
  H 3.484493 -3.494105 -4.729112
  H 6.406547 1.139387 -2.558580
