17

H 1.474987625437247 -0.11779409458013332 -0.03864732939159448
C 2.544849 -0.135017 -0.038751
C 3.259053 -1.26625 -0.045532
C 4.696539 -1.289368 -0.045668
C 5.417839 -2.424341 -0.052473
C 6.856069 -2.445187 -0.052594
C 7.575088 -3.572269 -0.059351
C 9.064994 -3.614251 -0.059602
H 3.044426 0.826795 -0.032991
H 2.747224 -2.220492 -0.05125
H 5.200478 -0.331143 -0.03993
H 4.914358 -3.382769 -0.058217
H 7.362107 -1.487776 -0.046863
H 7.076902 -4.533573 -0.065106
H 9.498075 -2.615711 -0.053614
H 9.424509 -4.139588 -0.945682
H 9.424509 -4.150166 0.820119
