 26
 0.000000
  H 1.405224 0.134920 0.386628
  C 2.475139 0.140018 0.399085
  C 3.241227 0.613797 1.578372
  C 2.445071 1.099206 2.786946
  C 3.376873 1.549401 3.907489
  C 3.096863 -0.322475 -0.752613
  C 4.472906 -0.413204 -0.978851
  C 5.132414 -0.867699 -2.111643
  C 4.618673 -1.388937 -3.410716
  C 3.124514 -1.501358 -3.691727
  H 2.956077 -1.894820 -4.672399
  O 6.457488 -0.870547 -2.119086
  H 3.897288 1.429656 1.253616
  H 3.897458 -0.199872 1.908184
  H 1.806291 0.298662 3.165430
  H 1.806160 1.939037 2.506526
  H 4.012896 0.731247 4.239516
  H 2.797657 1.892484 4.761770
  H 4.012720 2.370011 3.581218
  H 2.436796 -0.639606 -1.542199
  H 5.100515 -0.083792 -0.158214
  H 5.068655 -2.379864 -3.541239
  H 5.069011 -0.763340 -4.190016
  H 2.653353 -0.519100 -3.634327
  H 2.652914 -2.171265 -2.971344
  H 6.834017 -0.535875 -1.285013
 26
 0.000000
  H 1.435236 0.111856 0.329172
  C 2.535027 0.121657 0.353343
  C 3.286913 0.598584 1.540478
  C 2.476299 1.080660 2.740749
  C 3.394594 1.534692 3.870856
  C 3.132997 -0.325100 -0.759167
  C 4.445542 -0.408750 -0.967769
  C 5.084396 -0.846272 -2.058276
  C 4.600413 -1.371449 -3.367161
  C 3.112992 -1.495640 -3.677473
  H 2.966971 -1.890343 -4.661240
  O 6.346276 -0.830268 -2.018751
  H 3.942907 1.417165 1.222504
  H 3.943070 -0.212363 1.877072
  H 1.836966 0.277464 3.112626
  H 1.836842 1.917839 2.453722
  H 4.030540 0.719176 4.209457
  H 2.805159 1.875350 4.719099
  H 4.030371 2.357940 3.551159
  H 2.474631 -0.642720 -1.549976
  H 5.069459 -0.078364 -0.144712
  H 5.060684 -2.358782 -3.488743
  H 5.061027 -0.742254 -4.137509
  H 2.633052 -0.517137 -3.629416
  H 2.632628 -2.169307 -2.966445
  H 6.673208 -0.476948 -1.138204
 26
 0.000000
  H 1.463042 0.089039 0.272333
  C 2.596095 0.104071 0.309529
  C 3.332974 0.584239 1.504744
  C 2.507291 1.062751 2.696141
  C 3.411286 1.520750 3.836137
  C 3.171478 -0.327559 -0.765310
  C 4.420019 -0.405029 -0.958516
  C 5.038144 -0.826331 -2.008610
  C 4.583524 -1.355138 -3.326538
  C 3.103352 -1.490808 -3.665423
  H 2.979354 -1.886555 -4.651795
  O 6.235417 -0.793451 -1.927039
  H 3.988810 1.405676 1.193888
  H 3.988966 -0.223852 1.848456
  H 1.867463 0.256771 3.061077
  H 1.867345 1.897146 2.402174
  H 4.047067 0.708002 4.181636
  H 2.811204 1.858819 4.677928
  H 4.046905 2.346766 3.523338
  H 2.514291 -0.645516 -1.556964
  H 5.041101 -0.073901 -0.133615
  H 5.053677 -2.338873 -3.439167
  H 5.054007 -0.722341 -4.087924
  H 2.615018 -0.516049 -3.626684
  H 2.614610 -2.168223 -2.963724
  H 6.508003 -0.420188 -0.996793
 26
 0.000000
  H 1.488240 0.066414 0.215968
  C 2.658258 0.087272 0.267675
  C 3.379321 0.570761 1.471173
  C 2.537987 1.045475 2.653106
  C 3.426882 1.507559 3.803288
  C 3.212272 -0.329876 -0.771100
  C 4.396681 -0.401960 -0.950886
  C 4.994030 -0.807867 -1.962623
  C 4.568042 -1.339973 -3.288771
  C 3.095498 -1.486707 -3.655193
  H 2.992886 -1.883303 -4.643684
  O 6.125694 -0.760207 -1.844228
  H 4.034896 1.395187 1.167765
  H 4.035045 -0.234341 1.822333
  H 1.897734 0.236577 3.010773
  H 1.897624 1.876953 2.351871
  H 4.062397 0.697707 4.156005
  H 2.815743 1.842867 4.638202
  H 4.062243 2.336471 3.497707
  H 2.555775 -0.648028 -1.563247
  H 5.015819 -0.070324 -0.124728
  H 5.047573 -2.320151 -3.392547
  H 5.047889 -0.703615 -4.041294
  H 2.599235 -0.515637 -3.625633
  H 2.598843 -2.167815 -2.962684
  H 6.338229 -0.365992 -0.861765
 26
 0.000000
  H 1.509687 0.043880 0.159831
  C 2.721788 0.071311 0.227908
  C 3.426092 0.558218 1.439927
  C 2.568424 1.028857 2.611712
  C 3.441286 1.495164 3.772424
  C 3.255692 -0.332067 -0.776577
  C 4.375833 -0.399519 -0.944823
  C 4.952327 -0.790958 -1.920510
  C 4.553956 -1.326026 -3.254036
  C 3.089288 -1.483315 -3.646726
  H 3.007223 -1.880574 -4.636873
  O 6.017491 -0.730631 -1.770554
  H 4.081287 1.385787 1.144353
  H 4.081427 -0.243742 1.798920
  H 1.927826 0.216887 2.961723
  H 1.927724 1.857263 2.302822
  H 4.076419 0.688359 4.132733
  H 2.818610 1.827513 4.599969
  H 4.076273 2.327124 3.474437
  H 2.599333 -0.650256 -1.568824
  H 4.994084 -0.067651 -0.118093
  H 5.042300 -2.302726 -3.349159
  H 5.042601 -0.686187 -3.997899
  H 2.585608 -0.515837 -3.626105
  H 2.585233 -2.168019 -2.963166
  H 6.163021 -0.314224 -0.732781
 26
 0.000000
  H 1.525664 0.021690 0.104547
  C 2.785854 0.056511 0.191031
  C 3.472607 0.546885 1.411698
  C 2.598105 1.013205 2.572725
  C 3.454142 1.483823 3.744185
  C 3.301302 -0.334123 -0.781720
  C 4.358193 -0.397730 -0.940382
  C 4.914094 -0.775985 -1.883223
  C 4.541533 -1.313629 -3.223162
  C 3.084676 -1.480679 -3.640143
  H 3.021740 -1.878423 -4.631499
  O 5.913144 -0.705305 -1.707466
  H 4.127293 1.377721 1.124266
  H 4.127424 -0.251808 1.778832
  H 1.957262 0.198040 2.914772
  H 1.957169 1.838417 2.255873
  H 4.088765 0.680183 4.112383
  H 2.819578 1.813037 4.563921
  H 4.088629 2.318948 3.454088
  H 2.644464 -0.652172 -1.573625
  H 4.976800 -0.065951 -0.113882
  H 5.037907 -2.287040 -3.310101
  H 5.038193 -0.670498 -3.958834
  H 2.574268 -0.516589 -3.627951
  H 2.573910 -2.168775 -2.965020
  H 5.984494 -0.265633 -0.611713
 26
 0.000000
  H 1.534688 -0.000249 0.049886
  C 2.850441 0.042973 0.157297
  C 3.518780 0.536866 1.386742
  C 2.626906 0.998598 2.536339
  C 3.465253 1.473615 3.718773
  C 3.349188 -0.336058 -0.786563
  C 4.344126 -0.396553 -0.937468
  C 4.879762 -0.763054 -1.851020
  C 4.530801 -1.302893 -3.196422
  C 3.081463 -1.478782 -3.635398
  H 3.035959 -1.876856 -4.627576
  O 5.813435 -0.684285 -1.655107
  H 4.172810 1.371102 1.107783
  H 4.172931 -0.258428 1.762347
  H 1.985929 0.180102 2.870086
  H 1.985846 1.820480 2.211189
  H 4.099223 0.673269 4.095181
  H 2.818425 1.799501 4.530217
  H 4.099098 2.312035 3.436887
  H 2.691192 -0.653773 -1.577643
  H 4.964491 -0.065226 -0.112104
  H 5.034347 -2.273262 -3.275796
  H 5.034618 -0.656718 -3.924523
  H 2.565072 -0.517816 -3.630975
  H 2.564732 -2.170004 -2.968050
  H 5.802241 -0.220209 -0.498533
 26
 0.000000
  H 1.534432 -0.021891 -0.004038
  C 2.915090 0.030962 0.127363
  C 3.564165 0.528407 1.365671
  C 2.654433 0.985278 2.503161
  C 3.474234 1.464768 3.696749
  C 3.399187 -0.337873 -0.791107
  C 4.334221 -0.395995 -0.936094
  C 4.850139 -0.752471 -1.824667
  C 4.521897 -1.294112 -3.174553
  C 3.079453 -1.477697 -3.632671
  H 3.049207 -1.875972 -4.625351
  O 5.719944 -0.667870 -1.614214
  H 4.217379 1.366170 1.095504
  H 4.217489 -0.263361 1.750065
  H 2.013449 0.163325 2.828287
  H 2.013376 1.803704 2.169393
  H 4.107396 0.667839 4.081675
  H 2.814803 1.787129 4.499415
  H 4.107282 2.306606 3.423383
  H 2.739259 -0.655028 -1.580801
  H 4.957972 -0.065547 -0.112930
  H 5.031607 -2.261784 -3.247220
  H 5.031862 -0.645239 -3.895943
  H 2.557942 -0.519492 -3.635118
  H 2.557619 -2.171682 -2.972198
  H 5.616955 -0.178112 -0.393638
 26
 0.000000
  H 1.522736 -0.043213 -0.057167
  C 2.979138 0.020731 0.101863
  C 3.608183 0.521734 1.349049
  C 2.680215 0.973487 2.473788
  C 3.480688 1.457486 3.678628
  C 3.450907 -0.339559 -0.795331
  C 4.328930 -0.396029 -0.936197
  C 4.825897 -0.744483 -1.804778
  C 4.514846 -1.287531 -3.158164
  C 3.078329 -1.477456 -3.632047
  H 3.060710 -1.875836 -4.624988
  O 5.634158 -0.656222 -1.585199
  H 4.260412 1.363132 1.087945
  H 4.260510 -0.266400 1.742504
  H 2.039365 0.147963 2.790015
  H 2.039303 1.788343 2.131124
  H 4.112877 0.664080 4.072335
  H 2.808392 1.776139 4.472053
  H 4.112775 2.302848 3.414046
  H 2.788202 -0.655906 -1.583023
  H 4.957862 -0.066943 -0.116432
  H 5.029578 -2.252948 -3.225221
  H 5.029818 -0.636401 -3.873941
  H 2.552662 -0.521557 -3.640228
  H 2.552355 -2.173749 -2.977312
  H 5.429417 -0.139562 -0.297582
 26
 0.000000
  H 1.497639 -0.064180 -0.109414
  C 3.041738 0.012541 0.081448
  C 3.650131 0.517069 1.337431
  C 2.703711 0.963477 2.448854
  C 3.484210 1.451981 3.664932
  C 3.503734 -0.341077 -0.799137
  C 4.328521 -0.396588 -0.937605
  C 4.807495 -0.739257 -1.791769
  C 4.509528 -1.283324 -3.147685
  C 3.077646 -1.478048 -3.633494
  H 3.069618 -1.876471 -4.626540
  O 5.557341 -0.649351 -1.568084
  H 4.301199 1.362183 1.085591
  H 4.301284 -0.267350 1.740146
  H 2.063146 0.134300 2.755973
  H 2.063097 1.774681 2.097086
  H 4.115254 0.662175 4.067614
  H 2.798899 1.766762 4.448713
  H 4.115165 2.300943 3.409328
  H 2.837364 -0.656350 -1.584163
  H 4.964526 -0.069389 -0.122552
  H 5.028027 -2.247012 -3.210444
  H 5.028252 -0.630465 -3.859164
  H 2.548870 -0.523913 -3.646060
  H 2.548579 -2.176105 -2.983145
  H 5.240551 -0.104756 -0.210853
 26
 0.000000
  H 1.456896 -0.084753 -0.160684
  C 3.101884 0.006676 0.066821
  C 3.689180 0.514657 1.331425
  C 2.724270 0.955536 2.429072
  C 3.484320 1.448491 3.656257
  C 3.556920 -0.342375 -0.802391
  C 4.333247 -0.397609 -0.940163
  C 4.795352 -0.736972 -1.786087
  C 4.505805 -1.281672 -3.143570
  C 3.076963 -1.479474 -3.637019
  H 3.075098 -1.877909 -4.630091
  O 5.490721 -0.647221 -1.562776
  H 4.338913 1.363533 1.088964
  H 4.338986 -0.266001 1.743516
  H 2.084149 0.122655 2.726957
  H 2.084114 1.763038 2.068074
  H 4.114050 0.662329 4.068025
  H 2.785972 1.759269 4.430066
  H 4.113975 2.301099 3.409743
  H 2.885978 -0.656295 -1.584060
  H 4.978268 -0.072864 -0.131233
  H 5.026704 -2.244242 -3.203552
  H 5.026916 -0.627695 -3.852272
  H 2.546210 -0.526480 -3.652417
  H 2.545933 -2.178672 -2.989502
  H 5.051779 -0.073754 -0.133604
 26
 0.000000
  H 1.396868 -0.104759 -0.210542
  C 3.158254 0.003565 0.059056
  C 3.724337 0.514872 1.331963
  C 2.741194 0.950122 2.415585
  C 3.480636 1.447402 3.653566
  C 3.609488 -0.343380 -0.804918
  C 4.343523 -0.399111 -0.943920
  C 4.789985 -0.738041 -1.788761
  C 4.503333 -1.282958 -3.146771
  C 3.075547 -1.481823 -3.642839
  H 3.075799 -1.880260 -4.635911
  O 5.435840 -0.650024 -1.569760
  H 4.372580 1.367497 1.098850
  H 4.372638 -0.262039 1.753398
  H 2.101672 0.113545 2.704255
  H 2.101650 1.753930 2.045377
  H 4.108901 0.664871 4.074388
  H 2.769437 1.754108 4.417227
  H 4.108840 2.303643 3.416110
  H 2.932973 -0.655633 -1.582441
  H 4.999647 -0.077464 -0.142717
  H 5.025056 -2.245140 -3.205794
  H 5.025257 -0.628595 -3.854517
  H 2.544116 -0.529223 -3.659214
  H 2.543850 -2.181414 -2.996296
  H 4.865652 -0.046384 -0.065407
 26
 0.000000
  H 1.368370 -0.112371 -0.229510
  C 3.174281 0.002583 0.056608
  C 3.732618 0.515070 1.332460
  C 2.742904 0.948247 2.410919
  C 3.474809 1.447072 3.652753
  C 3.625608 -0.344346 -0.807326
  C 4.347427 -0.400396 -0.947120
  C 4.789334 -0.740011 -1.793668
  C 4.502567 -1.284921 -3.151656
  C 3.074738 -1.483747 -3.647619
  H 3.074906 -1.882185 -4.640690
  O 5.419923 -0.652828 -1.576738
  H 4.380281 1.369055 1.102739
  H 4.380334 -0.260482 1.757286
  H 2.103636 0.110327 2.696241
  H 2.103620 1.750713 2.037363
  H 4.102504 0.665859 4.076862
  H 2.758979 1.752279 4.412678
  H 4.102448 2.304631 3.418585
  H 2.947276 -0.656049 -1.583485
  H 5.007551 -0.079884 -0.148750
  H 5.024259 -2.247118 -3.210717
  H 5.024457 -0.630573 -3.859442
  H 2.543332 -0.531133 -3.663955
  H 2.543070 -2.183323 -3.001035
  H 4.802866 -0.038212 -0.045041
 26
 0.000000
  H 1.216110 -0.148826 -0.320384
  C 3.270850 0.004811 0.062126
  C 3.789385 0.523054 1.352350
  C 2.766648 0.945439 2.403920
  C 3.459732 1.451884 3.664775
  C 3.721672 -0.343737 -0.805847
  C 4.378108 -0.402110 -0.951416
  C 4.791820 -0.747311 -1.811874
  C 4.496913 -1.291628 -3.168356
  C 3.066133 -1.487507 -3.656929
  H 3.060345 -1.885944 -4.649984
  O 5.340685 -0.666692 -1.611276
  H 4.433760 1.383961 1.139891
  H 4.433787 -0.245578 1.794429
  H 2.129009 0.100676 2.672182
  H 2.129017 1.741066 2.013315
  H 4.084202 0.677376 4.105603
  H 2.720642 1.749288 4.405262
  H 4.084172 2.316152 3.447335
  H 3.030392 -0.651457 -1.572106
  H 5.063881 -0.089159 -0.171898
  H 5.016306 -2.254899 -3.230102
  H 5.016486 -0.638358 -3.878836
  H 2.536616 -0.533798 -3.670528
  H 2.536371 -2.185984 -3.007598
  H 4.447998 0.001393 0.053625
