 10
 0.000000
  H 3.378086 -0.451542 -1.073722
  C 4.453063 -0.437977 -1.039073
  C 5.239461 -0.870035 -2.117459
  C 4.635670 -1.365354 -3.353160
  H 3.551712 -1.351265 -3.318290
  O 6.530879 -0.842053 -2.048551
  H 4.935726 -0.079444 -0.144120
  H 4.997611 -2.374942 -3.568938
  H 4.999092 -0.786774 -4.207061
  H 6.904595 -0.504543 -1.206353
 10
 1.274296
  H 3.370648 -0.345904 -1.142383
  C 4.440102 -0.414086 -1.042229
  C 5.235735 -0.865542 -2.099535
  C 4.632459 -1.373043 -3.333083
  H 3.550503 -1.359470 -3.307126
  O 6.526666 -0.928874 -2.012624
  H 4.864889 -0.246283 -0.064909
  H 4.995265 -2.379890 -3.559694
  H 5.006686 -0.782917 -4.176928
  H 6.968634 -0.369107 -1.340839
 10
 7.498054
  H 3.339019 -0.319319 -1.127754
  C 4.408553 -0.417522 -1.023892
  C 5.208457 -0.881600 -2.084957
  C 4.633292 -1.358124 -3.330589
  H 3.557843 -1.323844 -3.341541
  O 6.467052 -1.002380 -1.898861
  H 4.854774 -0.329341 -0.061737
  H 5.018112 -2.379030 -3.539598
  H 5.051964 -0.795579 -4.159513
  H 7.043257 -0.262331 -1.520402
 10
 12.681731
  H 3.265670 -0.344791 -1.060977
  C 4.336387 -0.438186 -0.992444
  C 5.158703 -0.892652 -2.018534
  C 4.648537 -1.354857 -3.300623
  H 3.569820 -1.311308 -3.351074
  O 6.434629 -1.034363 -1.742363
  H 4.862830 -0.304065 -0.065333
  H 5.011840 -2.361542 -3.524877
  H 5.103024 -0.754078 -4.103794
  H 7.054766 -0.277138 -1.725281
 10
 15.653163
  H 3.213531 -0.366581 -0.990499
  C 4.282750 -0.461981 -0.968165
  C 5.125268 -0.892250 -1.999279
  C 4.682136 -1.328325 -3.312144
  H 3.601979 -1.296698 -3.406880
  O 6.386808 -0.992061 -1.626749
  H 4.893325 -0.291717 -0.091800
  H 5.054776 -2.339903 -3.509099
  H 5.141097 -0.739096 -4.113971
  H 7.057832 -0.362250 -1.939817
 10
 23.678461
  H 3.196161 -0.290337 -0.793820
  C 4.238864 -0.449059 -0.969750
  C 5.054588 -0.901096 -2.014980
  C 4.738092 -1.343113 -3.362857
  H 3.664214 -1.340644 -3.530143
  O 6.296281 -0.932268 -1.544740
  H 5.071313 -0.353167 -0.249966
  H 5.140523 -2.347447 -3.521032
  H 5.204187 -0.702586 -4.116967
  H 6.989353 -0.417281 -2.003776
 10
 47.026111
  H 3.203262 -0.208420 -0.653088
  C 4.188260 -0.443944 -0.987681
  C 4.958306 -0.898097 -2.032173
  C 4.724329 -1.359847 -3.390597
  H 3.660643 -1.379992 -3.611989
  O 6.214688 -0.922729 -1.498586
  H 5.254719 -0.444632 -0.370561
  H 5.142395 -2.360620 -3.515752
  H 5.220242 -0.703786 -4.109586
  H 6.896389 -0.353616 -1.916628
 10
 59.242601
  H 3.211859 -0.207571 -0.635969
  C 4.159431 -0.452666 -1.050968
  C 4.901360 -0.884090 -2.035372
  C 4.721042 -1.363515 -3.409540
  H 3.666604 -1.401245 -3.663793
  O 6.216086 -0.907176 -1.438664
  H 5.491221 -0.512136 -0.457188
  H 5.149753 -2.360640 -3.501083
  H 5.227727 -0.703650 -4.112576
  H 6.879917 -0.296716 -1.833307
 10
 54.837313
  H 3.148229 -0.197477 -0.650055
  C 4.090913 -0.434007 -1.072662
  C 4.848869 -0.860608 -2.024543
  C 4.705516 -1.353985 -3.399524
  H 3.656716 -1.396895 -3.675319
  O 6.193594 -0.876839 -1.405748
  H 5.635606 -0.552291 -0.507818
  H 5.143026 -2.347709 -3.475437
  H 5.214132 -0.690834 -4.097596
  H 6.861205 -0.273615 -1.809233
 10
 46.447983
  H 3.051632 -0.215961 -0.687225
  C 4.010346 -0.442971 -1.069328
  C 4.797737 -0.856880 -2.000081
  C 4.729043 -1.352887 -3.384433
  H 3.690405 -1.413724 -3.696564
  O 6.219681 -0.897766 -1.426557
  H 5.868606 -0.597488 -0.545785
  H 5.177999 -2.343070 -3.449115
  H 5.262959 -0.698580 -4.071049
  H 6.867837 -0.287872 -1.852354
 10
 41.612493
  H 3.001455 -0.231475 -0.764145
  C 3.975659 -0.442718 -1.112476
  C 4.822878 -0.853660 -1.987439
  C 4.731259 -1.352593 -3.378107
  H 3.694946 -1.402705 -3.694092
  O 6.228172 -0.903793 -1.441386
  H 6.006754 -0.637837 -0.516751
  H 5.167404 -2.348678 -3.422173
  H 5.271507 -0.693993 -4.054497
  H 6.848379 -0.265822 -1.869930
 10
 38.628944
  H 2.897746 -0.211504 -0.952181
  C 3.912057 -0.410110 -1.167107
  C 4.831714 -0.829559 -1.959155
  C 4.770755 -1.376777 -3.345581
  H 3.744130 -1.425605 -3.690931
  O 6.212603 -0.877749 -1.443627
  H 6.149865 -0.658728 -0.483338
  H 5.194927 -2.378685 -3.344546
  H 5.337659 -0.745886 -4.026087
  H 6.821846 -0.247076 -1.898701
 10
 37.932896
  H 2.825872 -0.277607 -1.007060
  C 3.856237 -0.441384 -1.166094
  C 4.818508 -0.827695 -1.923023
  C 4.789902 -1.377174 -3.314258
  H 3.768810 -1.448712 -3.672308
  O 6.188002 -0.835691 -1.409164
  H 6.225799 -0.458887 -0.498306
  H 5.231653 -2.371426 -3.310814
  H 5.346162 -0.730547 -3.988723
  H 6.822358 -0.392556 -2.021502
