 16
 0.000000
  H 1.450401 0.115686 0.341651
  C 2.532291 0.113821 0.335732
  C 3.211866 0.596562 1.533875
  H 2.509158 0.904653 2.300940
  C 3.152631 -0.346207 -0.808475
  C 4.544979 -0.414277 -0.979073
  C 5.182122 -0.869460 -2.114319
  C 4.571472 -1.359192 -3.338476
  H 3.487179 -1.357045 -3.336536
  H 6.265237 -0.865525 -2.102629
  H 3.874250 1.432263 1.292665
  H 3.875770 -0.172165 1.938312
  H 2.519327 -0.672644 -1.620133
  H 5.169749 -0.085873 -0.160338
  H 4.943088 -2.367508 -3.545648
  H 4.945095 -0.773632 -4.184181
 16
 4.801912
  H 1.456851 0.132269 0.383154
  C 2.540207 0.121874 0.355806
  C 3.246624 0.604356 1.553297
  H 2.554715 0.916426 2.330505
  C 3.131372 -0.350867 -0.820117
  C 4.502500 -0.438824 -1.040554
  C 5.192873 -0.875038 -2.128375
  C 4.609238 -1.370407 -3.366534
  H 3.523505 -1.372575 -3.375439
  H 6.274219 -0.853360 -2.072358
  H 3.909348 1.440950 1.307310
  H 3.911035 -0.168292 1.954691
  H 2.450493 -0.666613 -1.604707
  H 4.912951 -0.073911 -0.130945
  H 4.990337 -2.377301 -3.568760
  H 4.992425 -0.782678 -4.207818
 16
 15.041621
  H 1.472701 0.148981 0.423669
  C 2.552783 0.129094 0.373225
  C 3.275971 0.604853 1.555348
  H 2.593281 0.917870 2.334805
  C 3.109650 -0.352066 -0.823960
  C 4.469210 -0.454177 -1.080176
  C 5.196551 -0.879582 -2.140623
  C 4.641230 -1.374935 -3.377262
  H 3.561184 -1.381213 -3.395644
  H 6.275972 -0.846602 -2.056822
  H 3.932577 1.439633 1.308810
  H 3.934017 -0.167328 1.955031
  H 2.385479 -0.653281 -1.571688
  H 4.698931 -0.071012 -0.125377
  H 5.028928 -2.375788 -3.572868
  H 5.030608 -0.787363 -4.210148
 16
 28.807333
  H 1.479957 0.155409 0.439961
  C 2.560304 0.132092 0.381554
  C 3.296031 0.606173 1.557498
  H 2.614895 0.923147 2.344693
  C 3.092013 -0.342625 -0.797121
  C 4.446817 -0.456361 -1.084131
  C 5.204756 -0.881540 -2.144231
  C 4.665740 -1.381489 -3.395626
  H 3.578621 -1.391715 -3.425667
  H 6.277964 -0.842844 -2.044501
  H 3.956873 1.446481 1.306019
  H 3.957843 -0.172856 1.958614
  H 2.331061 -0.641221 -1.536030
  H 4.525014 -0.066368 -0.112908
  H 5.061475 -2.384690 -3.588267
  H 5.063916 -0.789799 -4.226951
 16
 43.496405
  H 1.482197 0.157026 0.458250
  C 2.560124 0.132630 0.397260
  C 3.300002 0.616420 1.565915
  H 2.626249 0.940513 2.343943
  C 3.089267 -0.353716 -0.779724
  C 4.459959 -0.466419 -1.094646
  C 5.217061 -0.890686 -2.146221
  C 4.674350 -1.373752 -3.408150
  H 3.592962 -1.367878 -3.439340
  H 6.297237 -0.866284 -2.041544
  H 3.957374 1.450806 1.305167
  H 3.958232 -0.154452 1.975238
  H 2.305819 -0.662746 -1.501874
  H 4.402270 -0.071313 -0.124489
  H 5.056937 -2.379652 -3.605277
  H 5.080762 -0.783554 -4.234602
 16
 54.070056
  H 1.467671 0.133372 0.476849
  C 2.548399 0.111441 0.410762
  C 3.302833 0.645392 1.580880
  H 2.626749 1.011246 2.350479
  C 3.087416 -0.393717 -0.715102
  C 4.461316 -0.509789 -1.128016
  C 5.195729 -0.922044 -2.133903
  C 4.690420 -1.340284 -3.457430
  H 3.613702 -1.284004 -3.515886
  H 6.269101 -0.950188 -2.014519
  H 3.940490 1.477964 1.262045
  H 3.958594 -0.100649 2.036470
  H 2.336394 -0.739158 -1.430238
  H 4.338210 -0.092884 -0.130343
  H 5.034929 -2.355738 -3.631193
  H 5.125696 -0.745466 -4.254459
 16
 59.488129
  H 1.457004 0.126129 0.516925
  C 2.535444 0.117944 0.454195
  C 3.277813 0.693756 1.610508
  H 2.601125 1.067868 2.357659
  C 3.098667 -0.410778 -0.645784
  C 4.471958 -0.541020 -1.149501
  C 5.191552 -0.953042 -2.149220
  C 4.704888 -1.331328 -3.513573
  H 3.628120 -1.232604 -3.588509
  H 6.255345 -1.022581 -2.036375
  H 3.908563 1.528269 1.281511
  H 3.922449 -0.055490 2.087583
  H 2.388385 -0.818469 -1.365839
  H 4.307098 -0.117444 -0.144530
  H 5.006061 -2.364523 -3.714048
  H 5.178093 -0.705407 -4.260058
 16
 64.546645
  H 1.457393 0.098464 0.540338
  C 2.533487 0.109208 0.480965
  C 3.262930 0.747792 1.612409
  H 2.570461 1.149138 2.344958
  C 3.100095 -0.459010 -0.595021
  C 4.486780 -0.597565 -1.149893
  C 5.197974 -0.998575 -2.161336
  C 4.707040 -1.289881 -3.540698
  H 3.633367 -1.142139 -3.620740
  H 6.272647 -1.116078 -2.042024
  H 3.888271 1.566764 1.254961
  H 3.908235 0.033345 2.120292
  H 2.400754 -0.922949 -1.308009
  H 4.265792 -0.194184 -0.125887
  H 4.960929 -2.316924 -3.789049
  H 5.216889 -0.643458 -4.254462
 16
 69.239335
  H 1.464273 0.069637 0.536936
  C 2.536181 0.099711 0.491630
  C 3.242567 0.793289 1.606286
  H 2.538793 1.209239 2.310086
  C 3.119598 -0.500937 -0.562401
  C 4.513521 -0.642224 -1.134911
  C 5.205298 -1.032460 -2.164120
  C 4.694444 -1.244317 -3.548861
  H 3.626382 -1.049769 -3.615956
  H 6.271134 -1.194071 -2.051230
  H 3.865148 1.604800 1.228453
  H 3.893398 0.111166 2.147913
  H 2.443619 -1.003516 -1.263885
  H 4.236156 -0.268501 -0.110055
  H 4.905295 -2.276385 -3.844456
  H 5.228594 -0.587734 -4.240833
 16
 72.451658
  H 1.447040 0.053405 0.545180
  C 2.537993 0.095398 0.504244
  C 3.223653 0.834010 1.582565
  H 2.507159 1.274556 2.266549
  C 3.140675 -0.543550 -0.527208
  C 4.542892 -0.688298 -1.116148
  C 5.212217 -1.060018 -2.160321
  C 4.681723 -1.195567 -3.560316
  H 3.621312 -0.958764 -3.614304
  H 6.274915 -1.268521 -2.061842
  H 3.843037 1.633623 1.173399
  H 3.880956 0.174817 2.159459
  H 2.477503 -1.091186 -1.209945
  H 4.217385 -0.343281 -0.074688
  H 4.850019 -2.206363 -3.894158
  H 5.231114 -0.539094 -4.220642
 16
 74.867006
  H 1.454096 0.019230 0.538891
  C 2.532431 0.078239 0.504745
  C 3.206515 0.885002 1.557095
  H 2.487417 1.342554 2.208345
  C 3.153108 -0.595822 -0.493514
  C 4.555982 -0.743611 -1.098492
  C 5.209474 -1.095531 -2.163395
  C 4.668180 -1.135103 -3.555004
  H 3.612275 -0.848424 -3.588946
  H 6.264562 -1.351659 -2.085317
  H 3.816851 1.671176 1.114302
  H 3.868986 0.266448 2.166685
  H 2.508152 -1.186811 -1.150674
  H 4.192775 -0.426647 -0.034790
  H 4.790703 -2.139576 -3.943830
  H 5.250746 -0.462806 -4.188654
 16
 75.160218
  H 1.451101 -0.000623 0.564689
  C 2.528442 0.065892 0.519885
  C 3.201550 0.937223 1.509738
  H 2.477516 1.430363 2.148750
  C 3.149427 -0.660636 -0.452540
  C 4.529978 -0.811367 -1.091322
  C 5.192472 -1.117670 -2.158334
  C 4.666820 -1.058966 -3.563215
  H 3.628157 -0.746879 -3.591085
  H 6.234214 -1.410532 -2.082779
  H 3.804584 1.699681 1.014579
  H 3.873494 0.363439 2.148789
  H 2.510759 -1.302832 -1.062224
  H 4.154566 -0.546916 0.020699
  H 4.766935 -2.048915 -4.004740
  H 5.271803 -0.371235 -4.150790
 16
 73.925756
  H 1.440865 -0.018730 0.618467
  C 2.518394 0.051898 0.544663
  C 3.212513 0.990619 1.449834
  H 2.505390 1.521133 2.072260
  C 3.123594 -0.738196 -0.407490
  C 4.453385 -0.865885 -1.102419
  C 5.159634 -1.127782 -2.152357
  C 4.683470 -0.979719 -3.569953
  H 3.649786 -0.647661 -3.613573
  H 6.190530 -1.444050 -2.054427
  H 3.803588 1.715968 0.892047
  H 3.903418 0.465277 2.107813
  H 2.481202 -1.428911 -0.957700
  H 4.095885 -0.661278 0.075554
  H 4.775129 -1.948144 -4.064845
  H 5.318935 -0.271608 -4.095453
