 19
 0.000000
  H 1.515255 0.144215 0.410252
  C 2.599939 0.133919 0.384193
  C 3.291683 0.615187 1.580934
  C 2.360942 1.062737 2.695957
  H 2.932519 1.407892 3.554905
  C 3.195486 -0.330185 -0.770967
  C 4.584532 -0.411714 -0.974795
  C 5.184876 -0.874330 -2.127643
  C 4.533094 -1.356925 -3.331649
  H 3.449443 -1.339981 -3.291385
  H 6.268929 -0.882722 -2.147665
  H 3.964724 1.438467 1.306154
  H 3.965428 -0.168755 1.952032
  H 1.721017 0.245778 3.020405
  H 1.720404 1.876710 2.365363
  H 2.542020 -0.651445 -1.570249
  H 5.231899 -0.089380 -0.171465
  H 4.882960 -2.368993 -3.548452
  H 4.884101 -0.775700 -4.187594
 19
 0.713813
  H 1.523040 0.200286 0.385210
  C 2.599472 0.073617 0.402518
  C 3.293955 0.594459 1.578436
  C 2.365003 1.142333 2.657961
  H 2.942244 1.522780 3.499152
  C 3.180486 -0.523407 -0.696642
  C 4.568862 -0.581845 -0.912101
  C 5.177053 -0.892003 -2.107518
  C 4.531551 -1.246994 -3.362986
  H 3.455895 -1.261773 -3.322210
  H 6.255259 -0.861426 -2.132085
  H 3.985723 1.382145 1.263472
  H 3.942496 -0.184061 1.998082
  H 1.700919 0.368766 3.026977
  H 1.755624 1.955890 2.273698
  H 2.521213 -0.902446 -1.463847
  H 5.219051 -0.314468 -0.094714
  H 4.905891 -2.226014 -3.686476
  H 4.862861 -0.567571 -4.150065
 19
 3.019122
  H 1.550375 0.299895 0.327488
  C 2.608550 0.057994 0.388715
  C 3.309526 0.592414 1.557652
  C 2.383288 1.185122 2.610363
  H 2.961579 1.576588 3.442065
  C 3.151290 -0.673196 -0.645482
  C 4.539219 -0.726696 -0.865979
  C 5.170817 -0.937238 -2.064806
  C 4.532405 -1.138547 -3.362631
  H 3.449206 -1.119194 -3.328845
  H 6.250345 -0.918069 -2.069192
  H 4.025556 1.367719 1.234191
  H 3.937715 -0.194103 2.005142
  H 1.696823 0.433977 2.991136
  H 1.800942 2.008003 2.201028
  H 2.477712 -1.099246 -1.374125
  H 5.173195 -0.533789 -0.017013
  H 4.871829 -2.098446 -3.769687
  H 4.896478 -0.396597 -4.082734
 19
 6.447042
  H 1.656392 0.391009 0.182646
  C 2.671010 0.045511 0.362402
  C 3.330194 0.592463 1.549525
  C 2.361733 1.234350 2.539244
  H 2.900270 1.625173 3.394614
  C 3.190740 -0.833256 -0.553295
  C 4.586089 -0.864682 -0.811114
  C 5.170579 -1.001994 -2.039179
  C 4.482306 -1.010297 -3.329564
  H 3.408583 -0.899726 -3.251557
  H 6.249314 -1.060688 -2.078166
  H 4.053952 1.355278 1.240018
  H 3.926845 -0.184237 2.040848
  H 1.642632 0.501230 2.898458
  H 1.809883 2.052351 2.080112
  H 2.522953 -1.317956 -1.244362
  H 5.234096 -0.755418 0.054748
  H 4.733100 -1.939656 -3.849995
  H 4.880346 -0.228607 -3.972565
 19
 14.707144
  H 1.906918 0.647388 -0.009680
  C 2.793814 0.086775 0.291261
  C 3.384435 0.522476 1.564264
  C 2.387698 1.293597 2.422182
  H 2.858843 1.602510 3.345055
  C 3.134932 -0.976724 -0.495767
  C 4.542658 -1.049037 -0.747975
  C 5.124840 -1.042248 -1.972996
  C 4.440748 -0.893405 -3.263799
  H 3.362479 -0.843807 -3.177710
  H 6.201864 -1.095261 -2.013117
  H 4.223512 1.192558 1.361232
  H 3.782343 -0.335798 2.108667
  H 1.534966 0.668234 2.669570
  H 2.029561 2.184312 1.910912
  H 2.430536 -1.439484 -1.170198
  H 5.184221 -1.074894 0.119793
  H 4.728496 -1.723768 -3.908195
  H 4.797002 -0.004401 -3.777150
 19
 26.774948
  H 2.107048 0.662749 -0.137203
  C 2.885548 -0.001849 0.262738
  C 3.394686 0.447399 1.567740
  C 2.397918 1.368759 2.264895
  H 2.798978 1.680446 3.228670
  C 3.159915 -1.146158 -0.429379
  C 4.580576 -1.035426 -0.681262
  C 5.098182 -0.985922 -1.928486
  C 4.353498 -0.713329 -3.165464
  H 3.316726 -0.440279 -2.993901
  H 6.160104 -1.153836 -2.049795
  H 4.333104 1.000717 1.436193
  H 3.617634 -0.418065 2.198140
  H 1.459319 0.859004 2.441062
  H 2.200662 2.264230 1.677211
  H 2.497077 -1.624367 -1.130645
  H 5.248136 -1.233411 0.146734
  H 4.407421 -1.606028 -3.803700
  H 4.846719 0.069080 -3.735370
 19
 38.189650
  H 2.717481 0.577128 -0.469905
  C 3.224183 -0.183340 0.129980
  C 3.489572 0.303042 1.539897
  C 2.512785 1.413276 1.915037
  H 2.703429 1.736609 2.937497
  C 3.084592 -1.516221 -0.289464
  C 4.472331 -1.000583 -0.494598
  C 4.948967 -0.761636 -1.781530
  C 4.141891 -0.447810 -2.946152
  H 3.091422 -0.290096 -2.730859
  H 6.014403 -0.848467 -1.942794
  H 4.508148 0.687145 1.622225
  H 3.385032 -0.530922 2.237298
  H 1.485437 1.062661 1.858383
  H 2.626024 2.271652 1.264449
  H 2.434598 -2.054380 -0.946152
  H 5.195236 -1.265280 0.268282
  H 4.244194 -1.262923 -3.668943
  H 4.564205 0.416860 -3.468721
 19
 39.415754
  H 2.704353 0.531695 -0.473651
  C 3.232953 -0.213237 0.128262
  C 3.476785 0.286934 1.542803
  C 2.534105 1.438560 1.874542
  H 2.709092 1.770320 2.890552
  C 3.110087 -1.555510 -0.285111
  C 4.471129 -0.957021 -0.486431
  C 4.936895 -0.690171 -1.774376
  C 4.116911 -0.418080 -2.940094
  H 3.056897 -0.316580 -2.728043
  H 6.007151 -0.711496 -1.940158
  H 4.503873 0.630677 1.651577
  H 3.320977 -0.531088 2.246792
  H 1.493729 1.126636 1.795410
  H 2.699386 2.284392 1.210383
  H 2.474439 -2.109915 -0.941535
  H 5.208580 -1.234924 0.258483
  H 4.263366 -1.228728 -3.659585
  H 4.497709 0.462331 -3.463213
