 14
 0.000000
  H 1.383894 0.122605 0.355914
  C 2.456052 0.091095 0.278207
  H 3.023821 0.432960 1.127850
  C 3.069166 -0.363522 -0.851932
  C 4.466867 -0.406999 -0.961324
  C 5.196762 -0.854604 -2.077791
  C 4.596069 -1.353561 -3.323040
  H 3.511683 -1.349310 -3.315155
  O 6.493522 -0.849423 -2.065358
  H 2.456650 -0.696000 -1.678162
  H 5.031201 -0.061844 -0.102773
  H 4.962225 -2.364274 -3.516509
  H 4.963901 -0.757432 -4.161093
  H 6.918835 -0.523278 -1.251100
 14
 9.606799
  H 1.369887 0.128369 0.369254
  C 2.442037 0.093018 0.282809
  H 3.017900 0.433156 1.128513
  C 3.043768 -0.363376 -0.851492
  C 4.443205 -0.410649 -0.969738
  C 5.152528 -0.856518 -2.082210
  C 4.578315 -1.353402 -3.322443
  H 3.496374 -1.353564 -3.325290
  O 6.608536 -0.847955 -2.062090
  H 2.424511 -0.693608 -1.672765
  H 5.014527 -0.067213 -0.114677
  H 4.952783 -2.362331 -3.513267
  H 4.954318 -0.756473 -4.157200
  H 7.010185 -0.519098 -1.242092
 14
 28.027231
  H 1.388864 0.142885 0.401506
  C 2.459521 0.098555 0.295952
  H 3.052601 0.434521 1.131638
  C 3.030393 -0.358637 -0.838804
  C 4.414897 -0.413932 -0.974869
  C 5.058564 -0.860860 -2.091624
  C 4.570316 -1.363374 -3.346837
  H 3.494342 -1.381824 -3.393610
  O 6.673174 -0.839102 -2.042036
  H 2.400544 -0.683996 -1.650198
  H 5.001923 -0.077160 -0.134253
  H 4.977120 -2.358148 -3.529502
  H 4.977538 -0.769851 -4.165402
  H 6.983423 -0.494647 -1.184827
 14
 47.399593
  H 1.360171 0.157182 0.435142
  C 2.428987 0.110586 0.324576
  H 3.025147 0.444870 1.157428
  C 2.997725 -0.351304 -0.821398
  C 4.408700 -0.412834 -0.971058
  C 5.007639 -0.867789 -2.109972
  C 4.569920 -1.369446 -3.361561
  H 3.467213 -1.400357 -3.433945
  O 6.781430 -0.841915 -2.053879
  H 2.365408 -0.678345 -1.638548
  H 5.011225 -0.078934 -0.133721
  H 5.003600 -2.370434 -3.540022
  H 5.001297 -0.767201 -4.182076
  H 7.032830 -0.495986 -1.185384
 14
 66.356688
  H 1.359580 0.173331 0.478651
  C 2.426850 0.119548 0.347387
  H 3.041220 0.450227 1.169243
  C 2.966330 -0.344887 -0.805597
  C 4.380212 -0.416459 -0.982423
  C 4.928133 -0.873051 -2.124435
  C 4.569493 -1.379643 -3.387380
  H 3.487104 -1.427145 -3.501111
  O 6.859933 -0.834392 -2.035972
  H 2.320892 -0.668135 -1.611059
  H 5.000851 -0.086939 -0.157817
  H 5.022032 -2.365099 -3.551252
  H 5.019852 -0.779041 -4.186816
  H 7.051271 -0.486855 -1.156898
 14
 82.586354
  H 1.343018 0.179384 0.493910
  C 2.410051 0.123132 0.356385
  H 3.029846 0.452668 1.175128
  C 2.941318 -0.343161 -0.801121
  C 4.351276 -0.418341 -0.986978
  C 4.885371 -0.876501 -2.132861
  C 4.554575 -1.382025 -3.393193
  H 3.470345 -1.435175 -3.520624
  O 6.975853 -0.831264 -2.028908
  H 2.293037 -0.664852 -1.602628
  H 4.975503 -0.090896 -0.167847
  H 5.013117 -2.366596 -3.551200
  H 5.010781 -0.777821 -4.187737
  H 7.155865 -0.484562 -1.150081
 14
 94.733888
  H 1.346958 0.202880 0.552473
  C 2.410339 0.135861 0.387670
  H 3.053363 0.459824 1.191647
  C 2.901597 -0.336103 -0.783255
  C 4.306331 -0.428487 -1.011392
  C 4.789767 -0.886315 -2.156379
  C 4.568553 -1.391708 -3.417077
  H 3.487097 -1.468730 -3.603952
  O 7.036608 -0.820947 -2.004730
  H 2.234360 -0.651982 -1.569786
  H 4.949976 -0.107113 -0.207055
  H 5.048438 -2.373268 -3.547821
  H 5.046115 -0.770428 -4.189660
  H 7.199268 -0.477094 -1.130862
 14
 102.063509
  H 1.351930 0.231247 0.620687
  C 2.406701 0.149790 0.422776
  H 3.076552 0.464399 1.205630
  C 2.846790 -0.325277 -0.756160
  C 4.259192 -0.440088 -1.038869
  C 4.697004 -0.894003 -2.174307
  C 4.587864 -1.408185 -3.457589
  H 3.520641 -1.511212 -3.708126
  O 7.099198 -0.807158 -1.972158
  H 2.151362 -0.632404 -1.523682
  H 4.928175 -0.124120 -0.247721
  H 5.078986 -2.383070 -3.552969
  H 5.075846 -0.767018 -4.200056
  H 7.281395 -0.464747 -1.101449
 14
 105.419247
  H 1.358140 0.260594 0.689891
  C 2.405519 0.163479 0.456602
  H 3.103942 0.468561 1.217856
  C 2.792830 -0.316006 -0.732791
  C 4.199265 -0.454979 -1.072860
  C 4.601788 -0.908540 -2.208115
  C 4.610561 -1.418548 -3.482802
  H 3.565204 -1.548182 -3.799572
  O 7.158151 -0.798318 -1.951284
  H 2.071283 -0.612619 -1.476675
  H 4.892046 -0.147599 -0.301002
  H 5.117279 -2.392328 -3.540837
  H 5.114013 -0.751934 -4.197340
  H 7.374159 -0.455253 -1.082965
 14
 106.932143
  H 1.357389 0.274502 0.724939
  C 2.398652 0.170373 0.473606
  H 3.111429 0.470861 1.223183
  C 2.759876 -0.311751 -0.722123
  C 4.159060 -0.461974 -1.090071
  C 4.543982 -0.916296 -2.226955
  C 4.611428 -1.424552 -3.497643
  H 3.575189 -1.568276 -3.850817
  O 7.256025 -0.790412 -1.931971
  H 2.023784 -0.604500 -1.455558
  H 4.867178 -0.157913 -0.326460
  H 5.124470 -2.392078 -3.536698
  H 5.121946 -0.749663 -4.193648
  H 7.484677 -0.448551 -1.067401
 14
 107.376407
  H 1.356405 0.289363 0.762592
  C 2.392687 0.177383 0.491119
  H 3.121046 0.472531 1.227549
  C 2.725685 -0.306928 -0.710320
  C 4.117416 -0.469596 -1.109220
  C 4.485614 -0.924484 -2.247145
  C 4.612404 -1.430606 -3.512506
  H 3.591455 -1.588156 -3.900875
  O 7.352794 -0.781993 -1.911392
  H 1.975450 -0.594135 -1.429472
  H 4.839998 -0.170620 -0.358244
  H 5.133242 -2.396335 -3.532185
  H 5.131250 -0.743936 -4.193274
  H 7.595933 -0.441430 -1.050318
 14
 107.301032
  H 1.360150 0.303987 0.799732
  C 2.389270 0.184112 0.507943
  H 3.133362 0.473620 1.230352
  C 2.693378 -0.302441 -0.699421
  C 4.075089 -0.477717 -1.129559
  C 4.427231 -0.933533 -2.269591
  C 4.613784 -1.436381 -3.526778
  H 3.608585 -1.608595 -3.951628
  O 7.448703 -0.772669 -1.888691
  H 1.927040 -0.584243 -1.404914
  H 4.815000 -0.183542 -0.390335
  H 5.141000 -2.397649 -3.526719
  H 5.138962 -0.739490 -4.190329
  H 7.704845 -0.433426 -1.030327
 14
 104.703841
  H 1.418340 0.373745 0.945494
  C 2.415821 0.218516 0.572124
  H 3.225075 0.487733 1.230325
  C 2.614129 -0.285475 -0.653090
  C 3.934602 -0.510081 -1.195329
  C 4.326879 -0.973495 -2.324684
  C 4.719195 -1.437846 -3.544797
  H 3.806003 -1.662640 -4.124209
  O 7.223118 -0.784616 -1.867213
  H 1.783090 -0.546100 -1.290769
  H 4.761558 -0.241243 -0.530931
  H 5.278709 -2.377383 -3.477126
  H 5.272483 -0.688234 -4.121232
  H 7.697398 -0.480851 -1.088828
