 13
 0.000000
  C 0.983843 0.150841 0.426593
  C 2.423710 0.099430 0.298518
  H 3.038144 0.431870 1.126396
  C 3.051393 -0.360776 -0.847817
  C 4.455778 -0.404930 -0.958627
  C 5.141673 -0.843053 -2.050142
  H 4.703303 -1.210061 -2.963726
  H 6.220623 -0.833865 -2.027646
  H 0.658539 0.536741 1.387760
  H 0.550040 -0.842030 0.263356
  H 0.550010 0.755194 -0.377860
  H 2.436473 -0.692335 -1.673325
  H 5.025327 -0.061378 -0.103451
 13
 -0.401732
  C 0.986807 0.143674 0.419154
  C 2.426750 0.108596 0.305596
  H 3.028940 0.470088 1.131583
  C 3.075178 -0.358446 -0.824272
  C 4.481176 -0.399331 -0.928072
  C 5.127206 -0.817950 -2.052174
  H 4.600767 -1.072028 -2.958600
  H 6.200709 -0.907009 -2.066355
  H 0.640953 0.559105 1.359634
  H 0.571630 -0.861737 0.272580
  H 0.547960 0.690960 -0.424181
  H 2.489113 -0.729473 -1.654720
  H 5.061481 -0.095198 -0.066116
 13
 0.254821
  C 0.983751 0.134040 0.407146
  C 2.425544 0.122477 0.296766
  H 3.018499 0.518717 1.113348
  C 3.083485 -0.348235 -0.823771
  C 4.489705 -0.384103 -0.924757
  C 5.120021 -0.802793 -2.054561
  H 4.580563 -0.909824 -2.983997
  H 6.171012 -1.037564 -2.084941
  H 0.628803 0.567484 1.336338
  H 0.590266 -0.882480 0.286609
  H 0.535236 0.651343 -0.449124
  H 2.512482 -0.777773 -1.638432
  H 5.072141 -0.105028 -0.055076
 13
 3.182379
  C 0.981696 0.102927 0.417875
  C 2.423849 0.146768 0.292672
  H 3.006232 0.580721 1.095255
  C 3.089110 -0.318289 -0.820956
  C 4.493417 -0.360488 -0.922033
  C 5.109051 -0.807550 -2.048771
  H 4.653801 -0.649606 -3.016149
  H 6.089913 -1.254196 -2.062783
  H 0.619157 0.581833 1.320513
  H 0.634113 -0.934614 0.374193
  H 0.506654 0.553338 -0.460162
  H 2.542967 -0.784073 -1.633410
  H 5.081494 -0.132025 -0.038331
 13
 10.120100
  C 0.980892 0.040291 0.409040
  C 2.430065 0.148281 0.298022
  H 2.991240 0.551175 1.137272
  C 3.116687 -0.196354 -0.842506
  C 4.516349 -0.225107 -0.944170
  C 5.058801 -0.837546 -2.033921
  H 4.734029 -0.587819 -3.037990
  H 5.850111 -1.564637 -1.965891
  H 0.612929 0.386992 1.364933
  H 0.672386 -0.991341 0.248166
  H 0.488516 0.591561 -0.393011
  H 2.631349 -0.694624 -1.669928
  H 5.138234 0.087713 -0.104915
 13
 19.682159
  C 0.978159 0.035845 0.370510
  C 2.429098 0.099687 0.324310
  H 2.969085 0.494082 1.185778
  C 3.158253 -0.244890 -0.783443
  C 4.560966 -0.187780 -0.898486
  C 4.975853 -0.826079 -2.049053
  H 4.747736 -0.399061 -3.019938
  H 5.683208 -1.637963 -2.058483
  H 0.576810 0.450265 1.290118
  H 0.639724 -0.996125 0.261044
  H 0.554233 0.560799 -0.485382
  H 2.724396 -0.779132 -1.622123
  H 5.217499 0.114092 -0.105015
 13
 32.891762
  C 1.012457 -0.028240 0.289769
  C 2.447882 0.174844 0.328980
  H 2.908742 0.511837 1.246994
  C 3.278492 -0.121371 -0.720821
  C 4.671171 -0.113814 -0.830420
  C 4.804665 -0.852486 -2.009148
  H 4.620192 -0.420830 -2.969349
  H 5.278372 -1.837695 -2.008534
  H 0.536755 0.290746 1.213800
  H 0.772635 -1.073056 0.103532
  H 0.579465 0.520075 -0.544332
  H 2.895714 -0.543567 -1.651541
  H 5.412316 0.140608 -0.102964
 13
 44.272277
  C 1.044428 -0.062844 0.185594
  C 2.489295 0.164130 0.355724
  H 2.863347 0.524606 1.305036
  C 3.427163 -0.060890 -0.607521
  C 4.791736 -0.057494 -0.735517
  C 4.552687 -0.835983 -1.916885
  H 4.392405 -0.351225 -2.872654
  H 4.844060 -1.885299 -1.957996
  H 0.500993 0.208369 1.084225
  H 0.831612 -1.107902 -0.046336
  H 0.655071 0.522151 -0.648390
  H 3.042217 -0.578153 -1.575208
  H 5.632459 0.155082 -0.116791
 13
 36.985082
  C 1.095247 -0.091296 0.113806
  C 2.516103 0.175121 0.411832
  H 2.788245 0.613676 1.363678
  C 3.553151 -0.026774 -0.426722
  C 4.868813 -0.059169 -0.676812
  C 4.340162 -0.788253 -1.853852
  H 4.292282 -0.252124 -2.799948
  H 4.538191 -1.856315 -1.918975
  H 0.461665 0.221443 0.935428
  H 0.922540 -1.152774 -0.068301
  H 0.781900 0.432837 -0.785807
  H 3.159733 -0.614743 -1.547294
  H 5.805226 0.104298 -0.201605
 13
 31.227745
  C 1.121705 -0.108977 0.078735
  C 2.511439 0.240287 0.433744
  H 2.705286 0.753873 1.367811
  C 3.625523 0.014527 -0.257626
  C 4.865583 -0.101355 -0.674768
  C 4.237483 -0.776963 -1.871837
  H 4.344180 -0.185705 -2.780927
  H 4.534922 -1.819659 -1.972088
  H 0.429204 0.224610 0.843398
  H 1.011981 -1.185871 -0.041298
  H 0.840458 0.346883 -0.872055
  H 3.130674 -0.754921 -1.672830
  H 5.861800 -0.046368 -0.307616
 13
 22.061651
  C 1.137604 -0.154748 0.150307
  C 2.471091 0.388021 0.462106
  H 2.547711 1.107943 1.277737
  C 3.615773 0.167084 -0.140204
  C 4.754602 -0.258529 -0.655651
  C 4.268073 -0.747572 -1.990420
  H 4.598688 -0.112863 -2.814428
  H 4.547920 -1.785635 -2.132201
  H 0.382816 0.259850 0.807650
  H 1.132947 -1.241553 0.249940
  H 0.875781 0.068587 -0.882127
  H 3.176115 -0.684128 -1.935913
  H 5.710487 -0.463012 -0.215348
 13
 11.971250
  C 1.019493 -0.074251 0.294309
  C 2.399886 0.422622 0.439468
  H 2.549593 1.240842 1.147122
  C 3.486020 0.042794 -0.176723
  C 4.609527 -0.392183 -0.700309
  C 4.461740 -0.802134 -2.122925
  H 4.800306 -0.013675 -2.796143
  H 5.009531 -1.717751 -2.318156
  H 0.336462 0.463014 0.942355
  H 0.969181 -1.139727 0.525711
  H 0.699905 0.031714 -0.742719
  H 3.396695 -0.947922 -2.282249
  H 5.496743 -0.634603 -0.134435
 13
 7.215227
  C 0.956258 -0.031183 0.401806
  C 2.357618 0.436378 0.424077
  H 2.549703 1.336259 1.010513
  C 3.386182 -0.068674 -0.205018
  C 4.479774 -0.549328 -0.744837
  C 4.581461 -0.796295 -2.197683
  H 4.915480 0.130364 -2.674862
  H 5.298486 -1.575121 -2.431177
  H 0.308738 0.620079 0.977582
  H 0.921973 -1.038240 0.825631
  H 0.584373 -0.117696 -0.618140
  H 3.591216 -1.014842 -2.585524
  H 5.303821 -0.852959 -0.107061
 13
 5.887054
  C 0.949447 -0.041972 0.433374
  C 2.337173 0.462795 0.432506
  H 2.523115 1.365324 1.014597
  C 3.365802 -0.056880 -0.187092
  C 4.419630 -0.561313 -0.775237
  C 4.588940 -0.793703 -2.222966
  H 5.088775 0.090164 -2.632095
  H 5.242311 -1.639794 -2.411218
  H 0.283694 0.623171 0.971437
  H 0.945008 -1.025338 0.912470
  H 0.582252 -0.199222 -0.579951
  H 3.639275 -0.917840 -2.733408
  H 5.269661 -0.826652 -0.147110
