 17
 0.000000
  H 1.432997 -0.076555 0.037770
  C 2.505321 -0.083178 0.024770
  C 3.219926 -0.594188 -0.978428
  C 4.657266 -0.605120 -0.999887
  C 5.378413 -1.120246 -2.011164
  C 6.816136 -1.130397 -2.031092
  C 7.534462 -1.641634 -3.034744
  C 9.023850 -1.662127 -3.074968
  H 3.002533 0.352210 0.879510
  H 2.710027 -1.027799 -1.829671
  H 5.161405 -0.170324 -0.146315
  H 4.874458 -1.555102 -2.864863
  H 7.322478 -0.696243 -1.178774
  H 7.035249 -2.077645 -3.890692
  H 9.460514 -1.209549 -2.186488
  H 9.381761 -1.117238 -3.949547
  H 9.381762 -2.689933 -3.148444
 17
 1.781774
  H 1.480180 -0.054673 0.080743
  C 2.555650 -0.066988 0.056558
  C 3.231779 -0.582757 -0.955989
  C 4.665752 -0.617487 -1.024176
  C 5.355010 -1.142868 -2.055585
  C 6.786042 -1.179005 -2.126524
  C 7.514246 -1.685527 -3.120911
  C 8.997227 -1.634573 -3.020876
  H 3.059996 0.365041 0.904705
  H 2.701164 -1.010960 -1.796614
  H 5.201117 -0.190430 -0.185792
  H 4.819717 -1.570382 -2.894860
  H 7.361168 -0.760959 -1.305833
  H 7.069140 -2.131321 -3.996071
  H 9.227810 -1.147269 -2.064219
  H 9.436100 -1.065358 -3.837437
  H 9.436100 -2.629764 -3.040557
