19
 0
 C -3.19711789 0.09312428 1.32747844
 C -1.72303103 0.47053445 1.24567954
 C -1.07846832 -0.19016290 0.02823736
 C -1.41413151 1.96856064 1.22797676
 C -2.51620323 2.99334560 1.14284454
 O -0.23999818 2.35459612 1.26180008
 H -3.31390415 -0.99338142 1.40531101
 H -3.74755013 0.42239676 0.43947487
 H -3.66967986 0.53750531 2.20968057
 H -1.23990961 0.08111780 2.15145283
 H -1.50566510 0.19593630 -0.90373438
 H -1.22372658 -1.27550674 0.04896044
 H 0.00000000 0.00000000 0.00000000
 H -3.51454345 2.56173925 1.18396585
 H -2.41879321 3.54130178 0.20182661
 H -2.41626478 3.68452277 1.98482235
 O 2.95285372 -0.16801368 -0.05299085
 H 2.00000000 0.00000000 0.00000000
 H 3.16154852 -0.59992821 0.78894261
