 9
 0.000000
  C 0.958797 -0.017329 -0.005937
  C 2.457479 0.006616 0.017210
  C 3.161597 0.809776 0.793462
  H 4.235897 0.819523 0.802882
  H 0.598417 -0.756679 -0.720516
  H 0.561975 0.953284 -0.298409
  H 0.561973 -0.276575 0.974074
  H 2.961369 -0.681524 -0.647884
  H 2.657950 1.496341 1.457034
 9
 -0.791867
  C 0.969544 -0.043051 0.013243
  C 2.461972 -0.041066 0.095773
  C 3.175005 0.883263 0.710367
  H 4.249754 0.837606 0.755833
  H 0.633116 -0.501607 -0.913757
  H 0.574286 0.968072 0.076645
  H 0.553425 -0.621259 0.839796
  H 2.959106 -0.871191 -0.389529
  H 2.714462 1.715249 1.218397
 9
 4.424032
  C 0.979902 -0.056111 0.066257
  C 2.470601 -0.053360 0.094967
  C 3.152527 0.868136 0.753004
  H 4.225098 0.843866 0.794948
  H 0.612041 -0.325879 -0.918939
  H 0.590024 0.928030 0.321023
  H 0.601487 -0.774788 0.787759
  H 2.950679 -0.940633 -0.294529
  H 2.692022 1.841178 0.798350
 9
 45.430216
  C 0.969355 -0.044444 0.140246
  C 2.455411 -0.052525 0.146621
  C 3.069341 0.932610 0.873617
  H 4.149348 0.845968 0.981688
  H 0.599335 -0.140699 -0.871803
  H 0.602386 0.887689 0.568194
  H 0.603443 -0.866932 0.747901
  H 2.935756 -0.894659 -0.347696
  H 2.771671 1.686186 0.132915
 9
 76.160296
  C 0.944545 0.009882 0.188653
  C 2.446186 0.121061 0.175924
  C 3.111249 1.003570 1.056508
  H 4.201017 0.823824 1.054737
  H 0.530416 -0.135397 -0.807629
  H 0.511631 0.897414 0.641820
  H 0.669912 -0.853766 0.792291
  H 2.935176 -0.669130 -0.416349
  H 2.794664 1.165056 -0.305263
 9
 73.191148
  C 0.964556 0.035221 0.197067
  C 2.465368 0.265199 0.074722
  C 3.112722 0.861266 1.225494
  H 4.205738 0.703303 1.169016
  H 0.528668 -0.201098 -0.772573
  H 0.478326 0.914958 0.606815
  H 0.779937 -0.799742 0.868186
  H 2.952848 -0.579804 -0.432869
  H 2.656634 1.163211 -0.555166
