 17
 0.000000
  C 0.959741 0.053591 0.186046
  C 2.464502 0.054475 0.170357
  C 3.176029 -0.020068 1.491458
  H 2.468755 -0.066516 2.314663
  C 3.119148 0.120202 -0.994515
  H 2.549059 0.172035 -1.913161
  C 4.549374 0.129533 -1.159862
  C 5.139333 0.197019 -2.355972
  O 6.476446 0.209704 -2.580668
  H 0.573640 -0.003609 1.199736
  H 0.571205 -0.794461 -0.377478
  H 0.571217 0.959640 -0.278485
  H 3.810245 0.853930 1.638145
  H 3.810285 -0.905064 1.538901
  H 5.163801 0.079305 -0.269609
  H 4.584225 0.249191 -3.280737
  H 6.945762 0.162214 -1.738803
 17
 -0.244468
  C 0.960144 0.071252 0.188363
  C 2.461920 0.069671 0.166742
  C 3.170717 -0.065085 1.486202
  H 2.459198 -0.150695 2.303745
  C 3.117240 0.163332 -0.996089
  H 2.549943 0.252086 -1.912287
  C 4.548028 0.149046 -1.160023
  C 5.140469 0.208524 -2.354076
  O 6.477988 0.200894 -2.576503
  H 0.583936 0.282057 1.184512
  H 0.574512 -0.902865 -0.119926
  H 0.562062 0.815325 -0.498307
  H 3.803215 0.802721 1.674066
  H 3.806436 -0.951385 1.496062
  H 5.159927 0.088507 -0.268828
  H 4.588958 0.270215 -3.279512
  H 6.945836 0.146890 -1.733047
 17
 -0.660105
  C 0.959519 0.094222 0.193893
  C 2.459860 0.080131 0.157090
  C 3.160013 -0.097397 1.474769
  H 2.438529 -0.215381 2.285004
  C 3.120147 0.197690 -1.001249
  H 2.559116 0.309973 -1.922595
  C 4.551818 0.159553 -1.158172
  C 5.150853 0.208521 -2.350527
  O 6.488378 0.175416 -2.566937
  H 0.596228 0.498176 1.137797
  H 0.571750 -0.920687 0.089440
  H 0.554282 0.693104 -0.619731
  H 3.784620 0.766285 1.696932
  H 3.796556 -0.975272 1.459983
  H 5.157341 0.082793 -0.266145
  H 4.604252 0.277198 -3.279693
  H 6.951262 0.119048 -1.721828
 17
 -1.180748
  C 0.962454 0.114044 0.193601
  C 2.458890 0.062159 0.142162
  C 3.147962 -0.147991 1.461553
  H 2.420225 -0.276867 2.256925
  C 3.125166 0.209433 -1.007209
  H 2.572641 0.354569 -1.925740
  C 4.558355 0.164720 -1.155439
  C 5.165310 0.225036 -2.342057
  O 6.506419 0.185740 -2.550537
  H 0.637878 0.770825 0.999211
  H 0.554871 -0.880344 0.382650
  H 0.550224 0.482468 -0.739513
  H 3.774452 0.705653 1.708603
  H 3.781884 -1.033190 1.434157
  H 5.159647 0.079533 -0.256657
  H 4.624955 0.302114 -3.273272
  H 6.963044 0.113506 -1.702988
 17
 -1.308300
  C 0.960880 0.134706 0.185505
  C 2.455654 0.049783 0.135517
  C 3.134348 -0.191676 1.454857
  H 2.399743 -0.315606 2.244348
  C 3.127404 0.213762 -1.009445
  H 2.577460 0.372775 -1.927916
  C 4.558410 0.164844 -1.152933
  C 5.171144 0.252151 -2.335984
  O 6.510806 0.213231 -2.538932
  H 0.659158 0.994021 0.783881
  H 0.544226 -0.755037 0.653147
  H 0.536051 0.238949 -0.810270
  H 3.779480 0.646450 1.718378
  H 3.748846 -1.088736 1.416316
  H 5.153689 0.056947 -0.255192
  H 4.636046 0.364027 -3.266449
  H 6.967433 0.111548 -1.683820
 17
 -1.003793
  C 0.956331 0.148756 0.158574
  C 2.452379 0.041924 0.132662
  C 3.120800 -0.210402 1.455671
  H 2.381665 -0.307680 2.247285
  C 3.134037 0.208670 -1.005545
  H 2.590717 0.387398 -1.924389
  C 4.570641 0.157774 -1.140672
  C 5.191542 0.261254 -2.316811
  O 6.531286 0.222596 -2.510431
  H 0.667767 1.138135 0.520789
  H 0.524364 -0.590843 0.828932
  H 0.533932 0.014217 -0.833422
  H 3.791480 0.609874 1.715430
  H 3.707857 -1.124721 1.422939
  H 5.158523 0.032822 -0.243097
  H 4.663300 0.387742 -3.249553
  H 6.980090 0.106828 -1.655877
 17
 -0.067569
  C 0.959740 0.149363 0.142000
  C 2.453574 0.015976 0.137161
  C 3.119546 -0.254372 1.456241
  H 2.381538 -0.360730 2.246595
  C 3.135930 0.238154 -0.991529
  H 2.590550 0.437563 -1.904455
  C 4.570027 0.187774 -1.127971
  C 5.189391 0.269392 -2.306339
  O 6.530398 0.230381 -2.500911
  H 0.711062 1.201452 0.276540
  H 0.505906 -0.423014 0.946593
  H 0.533658 -0.172821 -0.805549
  H 3.791378 0.560640 1.724419
  H 3.706794 -1.171298 1.412923
  H 5.160102 0.085259 -0.226467
  H 4.659378 0.374484 -3.241182
  H 6.976974 0.133370 -1.651121
