 26
 0.000000
  C 0.971814 0.138952 0.397808
  C 2.447401 0.138846 0.396928
  C 3.233470 0.607805 1.563387
  C 2.455800 1.096687 2.780201
  H 3.134529 1.410901 3.561793
  C 3.068551 -0.324647 -0.756796
  C 4.444694 -0.410885 -0.972142
  C 5.119770 -0.863060 -2.099686
  C 4.622584 -1.385199 -3.401754
  C 3.133006 -1.501664 -3.692965
  H 2.982957 -1.900466 -4.687489
  O 6.442341 -0.859367 -2.090746
  H 0.538047 0.509236 1.319238
  H 0.601330 -0.872926 0.228610
  H 0.600964 0.752153 -0.424530
  H 3.890443 1.418288 1.228458
  H 3.890772 -0.208781 1.882396
  H 1.821305 0.303877 3.172706
  H 1.821043 1.940451 2.515030
  H 2.415617 -0.643763 -1.551082
  H 5.072269 -0.082236 -0.153732
  H 5.080380 -2.372952 -3.527181
  H 5.080775 -0.758103 -4.174942
  H 2.655319 -0.525477 -3.645435
  H 2.654942 -2.174318 -2.984194
  H 6.823995 -0.525711 -1.257144
 26
 7.934876
  C 0.954966 0.167534 0.463199
  C 2.420822 0.146978 0.416860
  C 3.247000 0.601902 1.552504
  C 2.505611 1.100084 2.791245
  H 3.228947 1.402782 3.548073
  C 3.004373 -0.335080 -0.782930
  C 4.335214 -0.445366 -1.056951
  C 5.112331 -0.872416 -2.124796
  C 4.680626 -1.402327 -3.444710
  C 3.198415 -1.528557 -3.753878
  H 3.085027 -1.932104 -4.759668
  O 6.442629 -0.828093 -2.021034
  H 0.562061 0.543705 1.398684
  H 0.564158 -0.840175 0.292450
  H 0.566399 0.778436 -0.357204
  H 3.906893 1.407923 1.201278
  H 3.904927 -0.224667 1.856680
  H 1.880826 0.320972 3.220002
  H 1.883131 1.960953 2.561861
  H 2.287035 -0.636277 -1.535707
  H 4.719087 -0.074941 -0.131693
  H 5.164891 -2.380024 -3.553128
  H 5.162505 -0.769393 -4.199183
  H 2.705824 -0.561765 -3.727293
  H 2.708303 -2.210269 -3.066073
  H 6.776464 -0.482630 -1.163007
 26
 23.982266
  C 0.947334 0.177041 0.476780
  C 2.416276 0.148477 0.415010
  C 3.270349 0.597985 1.546075
  C 2.558515 1.098708 2.795644
  H 3.303489 1.392302 3.537022
  C 2.974465 -0.343216 -0.812545
  C 4.277908 -0.461120 -1.102726
  C 5.105507 -0.867771 -2.120842
  C 4.716032 -1.409574 -3.463634
  C 3.242338 -1.544603 -3.779788
  H 3.131966 -1.948915 -4.785512
  O 6.407821 -0.799581 -1.958531
  H 0.565597 0.552136 1.412814
  H 0.550984 -0.820608 0.306488
  H 0.555463 0.784635 -0.334733
  H 3.926150 1.399486 1.194512
  H 3.921701 -0.228328 1.844273
  H 1.937507 0.322472 3.240006
  H 1.942514 1.970709 2.582239
  H 2.207635 -0.621971 -1.514061
  H 4.452558 -0.082474 -0.154346
  H 5.207787 -2.381758 -3.563037
  H 5.198408 -0.773576 -4.211637
  H 2.748299 -0.582111 -3.752768
  H 2.755734 -2.225173 -3.092782
  H 6.695853 -0.443302 -1.070812
 26
 43.599466
  C 0.940850 0.183195 0.504896
  C 2.413683 0.153467 0.430936
  C 3.272025 0.604201 1.554951
  C 2.558276 1.104481 2.804298
  H 3.299133 1.399901 3.542542
  C 2.973820 -0.347173 -0.817051
  C 4.279504 -0.477982 -1.140827
  C 5.129317 -0.882776 -2.147629
  C 4.749857 -1.419253 -3.481786
  C 3.269542 -1.541164 -3.788330
  H 3.145642 -1.945829 -4.791213
  O 6.431440 -0.810943 -1.974641
  H 0.567199 0.561274 1.446747
  H 0.539556 -0.818499 0.339666
  H 0.539638 0.792703 -0.307057
  H 3.931773 1.412694 1.201160
  H 3.932368 -0.224258 1.857133
  H 1.940783 0.328491 3.248268
  H 1.940956 1.972569 2.590159
  H 2.163036 -0.619503 -1.495637
  H 4.273827 -0.085533 -0.166927
  H 5.233838 -2.397980 -3.583185
  H 5.236907 -0.782406 -4.231427
  H 2.782140 -0.570106 -3.755850
  H 2.781261 -2.217130 -3.091229
  H 6.701851 -0.460041 -1.103504
 26
 63.076212
  C 0.949592 0.188788 0.510215
  C 2.422922 0.160630 0.444037
  C 3.269933 0.608472 1.569331
  C 2.537939 1.102778 2.808636
  H 3.262414 1.398166 3.553322
  C 3.001482 -0.341576 -0.813058
  C 4.313459 -0.481995 -1.160244
  C 5.156652 -0.884669 -2.164701
  C 4.761297 -1.424527 -3.495681
  C 3.264156 -1.539506 -3.772490
  H 3.114300 -1.946744 -4.773603
  O 6.460962 -0.817544 -2.001026
  H 0.575717 0.563878 1.447920
  H 0.548584 -0.812045 0.342536
  H 0.550445 0.799248 -0.301289
  H 3.931639 1.418431 1.223625
  H 3.930593 -0.218692 1.875613
  H 1.920532 0.328049 3.240167
  H 1.922716 1.963731 2.589248
  H 2.176411 -0.609652 -1.486335
  H 4.165707 -0.090724 -0.185269
  H 5.242001 -2.407971 -3.600805
  H 5.238253 -0.790395 -4.258371
  H 2.781415 -0.562506 -3.730646
  H 2.784764 -2.211384 -3.060184
  H 6.736292 -0.471289 -1.134758
 26
 80.371022
  C 0.955317 0.187857 0.488080
  C 2.428992 0.162017 0.437164
  C 3.269453 0.608291 1.577254
  C 2.535419 1.090181 2.795618
  H 3.256523 1.384198 3.550680
  C 3.013454 -0.326092 -0.795372
  C 4.337298 -0.477522 -1.159436
  C 5.162862 -0.886464 -2.177482
  C 4.753830 -1.422419 -3.484585
  C 3.265255 -1.534004 -3.731778
  H 3.096354 -1.942854 -4.733074
  O 6.474645 -0.824602 -2.041393
  H 0.569855 0.564677 1.438751
  H 0.555318 -0.816807 0.314354
  H 0.561652 0.805664 -0.325883
  H 3.932816 1.417402 1.237069
  H 3.926434 -0.218479 1.881369
  H 1.912463 0.309465 3.219439
  H 1.918691 1.954847 2.572654
  H 2.182549 -0.586750 -1.461410
  H 4.064958 -0.090985 -0.195564
  H 5.227579 -2.408195 -3.597313
  H 5.225627 -0.787166 -4.247876
  H 2.785631 -0.558278 -3.680163
  H 2.799453 -2.202428 -3.012453
  H 6.774852 -0.471859 -1.173682
 26
 92.084916
  C 0.959886 0.092702 0.524853
  C 2.433633 0.117305 0.466710
  C 3.265092 0.654131 1.567962
  C 2.516154 1.192002 2.784290
  H 3.232657 1.557521 3.512694
  C 3.030498 -0.413129 -0.727447
  C 4.365097 -0.542622 -1.137597
  C 5.168711 -0.932619 -2.150671
  C 4.752029 -1.382634 -3.517431
  C 3.260539 -1.418787 -3.799041
  H 3.098860 -1.773918 -4.803317
  O 6.490733 -0.944815 -2.003013
  H 0.564857 0.511729 1.463497
  H 0.591417 -0.932073 0.417473
  H 0.540578 0.651559 -0.319204
  H 3.894533 1.462051 1.162559
  H 3.955507 -0.127870 1.915135
  H 1.928658 0.421004 3.261904
  H 1.868799 2.014908 2.519186
  H 2.215159 -0.773607 -1.372988
  H 4.011438 -0.177813 -0.167083
  H 5.176810 -2.381138 -3.652511
  H 5.254234 -0.744972 -4.254509
  H 2.821109 -0.424901 -3.718982
  H 2.751059 -2.100522 -3.115873
  H 6.790790 -0.665131 -1.124069
 26
 98.011791
  C 0.958141 0.027189 0.540570
  C 2.439373 0.087491 0.483713
  C 3.256010 0.693883 1.578707
  C 2.481605 1.261359 2.763134
  H 3.183040 1.675433 3.482902
  C 3.056275 -0.474432 -0.668055
  C 4.403095 -0.597353 -1.157195
  C 5.196188 -0.969397 -2.154146
  C 4.747020 -1.350189 -3.538954
  C 3.248068 -1.328305 -3.798200
  H 3.061748 -1.644117 -4.821722
  O 6.529194 -1.046980 -2.036842
  H 0.560897 0.473531 1.452344
  H 0.611997 -1.004987 0.489719
  H 0.525249 0.543381 -0.319274
  H 3.864359 1.498401 1.141269
  H 3.959674 -0.054780 1.966387
  H 1.908403 0.490741 3.268818
  H 1.813516 2.057437 2.457589
  H 2.265635 -0.879649 -1.311796
  H 3.990078 -0.228756 -0.145889
  H 5.126149 -2.358965 -3.709304
  H 5.261510 -0.704089 -4.250743
  H 2.841012 -0.329433 -3.678824
  H 2.729662 -2.019967 -3.139002
  H 6.856406 -0.824455 -1.147671
 26
 101.817165
  C 0.978256 -0.029445 0.556825
  C 2.459022 0.064058 0.521545
  C 3.235346 0.738613 1.610881
  C 2.417725 1.333363 2.745849
  H 3.090752 1.795755 3.463691
  C 3.113252 -0.520919 -0.586871
  C 4.454621 -0.660573 -1.168992
  C 5.223150 -1.020906 -2.172130
  C 4.727615 -1.330315 -3.575086
  C 3.224068 -1.246052 -3.801383
  H 3.009791 -1.499857 -4.827991
  O 6.560288 -1.147293 -2.096931
  H 0.558229 0.445927 1.440581
  H 0.657513 -1.076156 0.545147
  H 0.546528 0.440245 -0.328893
  H 3.828380 1.536347 1.161115
  H 3.940359 0.031529 2.045627
  H 1.849753 0.566935 3.272030
  H 1.732795 2.106819 2.384741
  H 2.366755 -0.972260 -1.245982
  H 4.020266 -0.289609 -0.098734
  H 5.071560 -2.344987 -3.796266
  H 5.249832 -0.659859 -4.260327
  H 2.853500 -0.244489 -3.621689
  H 2.699646 -1.948309 -3.177302
  H 6.912138 -0.975786 -1.223307
 26
 104.024453
  C 0.997887 -0.150634 0.597583
  C 2.466802 0.015781 0.577527
  C 3.209876 0.806842 1.611432
  C 2.358199 1.460751 2.695429
  H 3.006966 2.006689 3.376510
  C 3.172647 -0.630444 -0.498751
  C 4.481477 -0.760500 -1.166707
  C 5.222579 -1.103508 -2.192558
  C 4.706447 -1.276163 -3.611170
  C 3.212572 -1.084658 -3.807434
  H 2.974182 -1.234341 -4.853930
  O 6.552626 -1.303531 -2.141072
  H 0.545464 0.367828 1.431288
  H 0.729334 -1.210354 0.667997
  H 0.557343 0.227746 -0.327170
  H 3.775202 1.593811 1.103648
  H 3.940125 0.165994 2.110582
  H 1.817710 0.719424 3.279847
  H 1.647204 2.173780 2.270958
  H 2.474023 -1.169905 -1.146621
  H 4.054636 -0.399208 -0.020616
  H 5.004603 -2.291088 -3.908068
  H 5.270653 -0.574363 -4.242046
  H 2.903211 -0.073312 -3.531425
  H 2.646687 -1.815012 -3.238436
  H 6.922574 -1.211099 -1.249637
 26
 107.660595
  C 1.008195 -0.232084 0.629566
  C 2.473192 -0.005324 0.602401
  C 3.190105 0.858985 1.590044
  C 2.322353 1.535924 2.645288
  H 2.958334 2.140205 3.297851
  C 3.201039 -0.673499 -0.445555
  C 4.483680 -0.809562 -1.173141
  C 5.219616 -1.141983 -2.204185
  C 4.695364 -1.229060 -3.624204
  C 3.212027 -0.965310 -3.795730
  H 2.957576 -1.052925 -4.849880
  O 6.542503 -1.400418 -2.162645
  H 0.534349 0.305047 1.434997
  H 0.783406 -1.287505 0.751054
  H 0.555611 0.080591 -0.310421
  H 3.729089 1.641686 1.039117
  H 3.947809 0.267022 2.119502
  H 1.811924 0.809898 3.266632
  H 1.593346 2.194762 2.195959
  H 2.533798 -1.276232 -1.068351
  H 4.044318 -0.450551 0.042890
  H 4.944710 -2.232240 -3.967408
  H 5.281829 -0.528895 -4.219028
  H 2.950657 0.035999 -3.467783
  H 2.618950 -1.697318 -3.256200
  H 6.914607 -1.368057 -1.264708
 26
 109.787350
  C 1.010144 -0.293324 0.711638
  C 2.454768 0.003203 0.623171
  C 3.172007 0.927103 1.555477
  C 2.312942 1.594272 2.626700
  H 2.939166 2.244416 3.233545
  C 3.180614 -0.700794 -0.437294
  C 4.426208 -0.847072 -1.208145
  C 5.196425 -1.169080 -2.211754
  C 4.713439 -1.199800 -3.649449
  C 3.247295 -0.862519 -3.850240
  H 3.011625 -0.925702 -4.910797
  O 6.512020 -1.466012 -2.134010
  H 0.540045 0.246724 1.518152
  H 0.840541 -1.355335 0.875125
  H 0.509615 -0.035242 -0.220841
  H 3.652773 1.716538 0.961098
  H 3.977611 0.388952 2.071735
  H 1.862514 0.862772 3.287151
  H 1.534360 2.204732 2.187615
  H 2.528225 -1.365751 -1.007008
  H 3.976698 -0.484472 0.099746
  H 4.925034 -2.206774 -4.008996
  H 5.347338 -0.513798 -4.212496
  H 3.027712 0.145595 -3.514518
  H 2.607099 -1.568617 -3.330061
  H 6.851310 -1.479411 -1.223316
 26
 106.986842
  C 1.020191 -0.350037 0.809326
  C 2.438897 0.008338 0.648421
  C 3.159682 0.989378 1.509701
  C 2.308061 1.674384 2.577252
  H 2.928552 2.369961 3.136992
  C 3.163661 -0.771287 -0.410104
  C 4.346129 -0.906210 -1.243086
  C 5.165354 -1.185645 -2.217005
  C 4.737511 -1.136690 -3.675462
  C 3.281035 -0.754227 -3.906532
  H 3.077357 -0.757876 -4.971934
  O 6.466801 -1.532863 -2.097564
  H 0.554571 0.210564 1.611003
  H 0.904718 -1.414343 1.029004
  H 0.473404 -0.163924 -0.115892
  H 3.595604 1.765308 0.867326
  H 3.999790 0.508785 2.023718
  H 1.900403 0.953592 3.283648
  H 1.491670 2.242793 2.133231
  H 2.537935 -1.498924 -0.923923
  H 3.906236 -0.577759 0.204380
  H 4.944215 -2.132164 -4.074224
  H 5.403729 -0.436459 -4.183291
  H 3.072539 0.243984 -3.523503
  H 2.608654 -1.467991 -3.439134
  H 6.757271 -1.621736 -1.175701
