 20
 0.000000
  C 0.988432 0.158165 0.444855
  C 2.448958 0.122078 0.354826
  H 3.033139 0.461151 1.198340
  C 3.053427 -0.339430 -0.793774
  C 4.432711 -0.418397 -0.991022
  C 5.128895 -0.869433 -2.115978
  C 4.637001 -1.391353 -3.417383
  C 3.150926 -1.509596 -3.712244
  H 3.031179 -1.911798 -4.715200
  O 6.442293 -0.858502 -2.089420
  H 0.639249 0.541298 1.398298
  H 0.576697 -0.841325 0.291236
  H 0.576491 0.773407 -0.357608
  H 2.395988 -0.657735 -1.585671
  H 5.062873 -0.089707 -0.172660
  H 5.105772 -2.374671 -3.539938
  H 5.105945 -0.765389 -4.185512
  H 2.661409 -0.540398 -3.683899
  H 2.661466 -2.190707 -3.022158
  H 6.838654 -0.527189 -1.261068
 20
 -0.509944
  C 1.000060 0.162100 0.532376
  C 2.431345 0.234217 0.246276
  H 3.052987 0.822960 0.907979
  C 3.003673 -0.388965 -0.837462
  C 4.382363 -0.356955 -1.055665
  C 5.123210 -0.873008 -2.118270
  C 4.664985 -1.434806 -3.417277
  C 3.183297 -1.591109 -3.718597
  H 3.077750 -1.953372 -4.738652
  O 6.434775 -0.846805 -2.051336
  H 0.769960 0.464694 1.548710
  H 0.603603 -0.831588 0.324518
  H 0.462437 0.836834 -0.142598
  H 2.357936 -0.932262 -1.506036
  H 4.963995 0.109711 -0.266864
  H 5.167228 -2.402761 -3.530702
  H 5.121758 -0.799504 -4.186748
  H 2.659872 -0.642110 -3.650264
  H 2.718549 -2.323331 -3.065132
  H 6.803333 -0.481693 -1.225732
 20
 -0.160816
  C 0.992955 0.109443 0.545481
  C 2.399390 0.270924 0.182478
  H 2.976028 1.009986 0.724126
  C 2.996706 -0.423631 -0.842854
  C 4.374100 -0.362029 -1.059577
  C 5.131925 -0.905274 -2.097622
  C 4.683981 -1.419394 -3.417800
  C 3.202552 -1.541126 -3.732876
  H 3.095623 -1.845048 -4.771200
  O 6.440810 -0.922651 -1.997164
  H 0.803653 0.416124 1.570143
  H 0.646819 -0.908320 0.371561
  H 0.379931 0.751779 -0.095569
  H 2.378319 -1.065449 -1.448505
  H 4.935946 0.139456 -0.279720
  H 5.175035 -2.387783 -3.563773
  H 5.153848 -0.759568 -4.157332
  H 2.689240 -0.591565 -3.610241
  H 2.726618 -2.302798 -3.122007
  H 6.800069 -0.579540 -1.156628
 20
 2.738724
  C 1.052129 0.063496 0.637581
  C 2.346223 0.389922 0.040548
  H 2.760788 1.362510 0.265609
  C 2.981628 -0.411023 -0.882405
  C 4.358643 -0.347563 -1.095122
  C 5.128056 -0.985003 -2.068900
  C 4.693944 -1.449058 -3.411056
  C 3.216515 -1.432530 -3.765649
  H 3.107488 -1.711132 -4.809720
  O 6.422653 -1.113746 -1.898863
  H 0.956054 0.507092 1.627038
  H 0.879542 -1.009159 0.673877
  H 0.250546 0.498739 0.032891
  H 2.397849 -1.181818 -1.365352
  H 4.900006 0.249060 -0.368979
  H 5.102725 -2.453825 -3.561674
  H 5.243230 -0.816037 -4.118618
  H 2.787423 -0.445822 -3.635373
  H 2.657882 -2.154186 -3.178448
  H 6.761819 -0.803155 -1.038099
 20
 9.714139
  C 1.140530 0.020046 0.754436
  C 2.243108 0.455007 -0.100689
  H 2.383461 1.520465 -0.220171
  C 2.944306 -0.406481 -0.928870
  C 4.314725 -0.326893 -1.126822
  C 5.108549 -1.029352 -2.035739
  C 4.719618 -1.489414 -3.391659
  C 3.276786 -1.309357 -3.836086
  H 3.193580 -1.601491 -4.874845
  O 6.373122 -1.259372 -1.770707
  H 1.107518 0.613597 1.664443
  H 1.202594 -1.042496 0.985345
  H 0.183527 0.188386 0.252693
  H 2.392108 -1.240453 -1.350865
  H 4.833286 0.321895 -0.430073
  H 5.010227 -2.539300 -3.490106
  H 5.384739 -0.945825 -4.072360
  H 2.962201 -0.274889 -3.748216
  H 2.596052 -1.940978 -3.265293
  H 6.674259 -0.957198 -0.890509
 20
 20.713380
  C 1.279742 0.071083 0.904139
  C 2.113221 0.464965 -0.234572
  H 2.029231 1.491130 -0.562857
  C 2.819032 -0.459077 -1.026374
  C 4.181342 -0.373661 -1.162284
  C 5.052654 -1.090482 -1.994256
  C 4.794217 -1.463546 -3.400828
  C 3.381992 -1.298175 -3.924531
  H 3.371209 -1.533036 -4.984380
  O 6.278999 -1.347790 -1.611182
  H 1.324120 0.829906 1.681814
  H 1.566626 -0.899873 1.296610
  H 0.227152 0.006362 0.609809
  H 2.264182 -1.289362 -1.443391
  H 4.607016 0.398306 -0.533709
  H 5.126332 -2.496049 -3.546269
  H 5.482827 -0.850899 -3.986833
  H 3.030671 -0.277702 -3.798460
  H 2.687368 -1.979893 -3.430492
  H 6.472574 -1.141750 -0.676653
 20
 34.642392
  C 1.461090 0.157574 0.998891
  C 1.988676 0.389215 -0.350619
  H 1.694828 1.305706 -0.851801
  C 2.654827 -0.628623 -1.099487
  C 4.013737 -0.514085 -1.147670
  C 4.990751 -1.168833 -1.938924
  C 4.846864 -1.449369 -3.385378
  C 3.480776 -1.202797 -4.005132
  H 3.535618 -1.403440 -5.066648
  O 6.191300 -1.352491 -1.482068
  H 1.404825 1.091859 1.553491
  H 2.060306 -0.566267 1.545036
  H 0.438975 -0.241070 0.948808
  H 2.108015 -1.488970 -1.445635
  H 4.300251 0.388642 -0.601254
  H 5.133448 -2.495924 -3.547872
  H 5.619219 -0.859063 -3.892607
  H 3.169926 -0.168393 -3.879834
  H 2.728566 -1.856726 -3.582840
  H 6.312612 -1.163710 -0.534841
 20
 46.764701
  C 1.708873 0.216577 1.053735
  C 1.989237 0.367499 -0.383023
  H 1.545536 1.196789 -0.911026
  C 2.448955 -0.750363 -1.209933
  C 3.783908 -0.610767 -1.211830
  C 4.908648 -1.136520 -1.896274
  C 4.892878 -1.402125 -3.363486
  C 3.558294 -1.238928 -4.074504
  H 3.699549 -1.393668 -5.136363
  O 6.077602 -1.246045 -1.327023
  H 1.777454 1.156141 1.596189
  H 2.341140 -0.536553 1.523836
  H 0.687906 -0.151911 1.144337
  H 1.842567 -1.580712 -1.521974
  H 3.889857 0.354738 -0.645836
  H 5.278848 -2.414646 -3.500448
  H 5.658081 -0.749680 -3.817099
  H 3.144631 -0.239524 -3.930842
  H 2.840328 -1.976775 -3.726195
  H 6.090529 -1.071790 -0.366729
 20
 54.918524
  C 1.865504 0.281477 1.051045
  C 2.072409 0.288834 -0.413866
  H 1.642435 1.112006 -0.972645
  C 2.319931 -0.976645 -1.153730
  C 3.627555 -0.787851 -1.269489
  C 4.821234 -1.150320 -1.880400
  C 4.921570 -1.275114 -3.364800
  C 3.601334 -1.249226 -4.117396
  H 3.795613 -1.330572 -5.183209
  O 5.978185 -1.189536 -1.250704
  H 2.048677 1.258403 1.489868
  H 2.468406 -0.471469 1.552996
  H 0.818700 0.023099 1.234851
  H 1.668126 -1.800113 -1.363898
  H 3.538627 0.323785 -0.658218
  H 5.451942 -2.210913 -3.565553
  H 5.581890 -0.477402 -3.721009
  H 3.064978 -0.320600 -3.944494
  H 2.968585 -2.080336 -3.824168
  H 5.927700 -1.140071 -0.279599
 20
 47.544163
  C 1.910936 0.293970 1.093401
  C 2.140854 0.332236 -0.385168
  H 1.651090 1.108768 -0.948852
  C 2.308125 -0.986561 -1.107052
  C 3.591245 -0.875307 -1.328139
  C 4.792786 -1.196438 -1.905514
  C 4.927759 -1.238696 -3.390953
  C 3.623081 -1.238757 -4.168713
  H 3.842613 -1.301464 -5.228583
  O 5.933681 -1.265706 -1.254385
  H 2.053981 1.274169 1.540275
  H 2.543691 -0.437439 1.590310
  H 0.871714 -0.013600 1.272327
  H 1.614470 -1.788161 -1.235234
  H 3.376412 0.480407 -0.592418
  H 5.497851 -2.141211 -3.618140
  H 5.564182 -0.399432 -3.697196
  H 3.055392 -0.324316 -3.997769
  H 3.010882 -2.092739 -3.904126
  H 5.864486 -1.296017 -0.288030
 20
 31.549207
  C 1.898217 0.290937 1.147742
  C 2.197803 0.417972 -0.327837
  H 1.549592 1.085791 -0.883025
  C 2.361865 -0.926273 -1.029208
  C 3.597201 -0.976667 -1.382560
  C 4.800874 -1.260633 -1.954307
  C 4.946780 -1.225758 -3.435489
  C 3.645117 -1.239306 -4.225003
  H 3.874493 -1.247438 -5.296317
  O 5.922217 -1.376204 -1.295228
  H 1.926196 1.272185 1.621740
  H 2.603373 -0.368624 1.644296
  H 0.905545 -0.132758 1.291553
  H 1.589783 -1.668770 -1.113342
  H 3.243205 0.772754 -0.474210
  H 5.566667 -2.090567 -3.711434
  H 5.543706 -0.339971 -3.685099
  H 3.042880 -0.359588 -4.016904
  H 3.063417 -2.126249 -4.003615
  H 5.840275 -1.511103 -0.330009
 20
 24.792400
  C 1.779883 0.239364 1.198766
  C 2.269134 0.407931 -0.222526
  H 1.692950 1.113716 -0.826639
  C 2.454543 -0.914072 -0.961991
  C 3.652852 -1.035905 -1.409096
  C 4.833548 -1.295591 -2.024232
  C 4.942676 -1.221367 -3.510086
  C 3.622684 -1.086449 -4.260027
  H 3.819741 -1.022425 -5.328220
  O 5.959388 -1.521128 -1.388365
  H 1.722465 1.207534 1.683791
  H 2.447612 -0.400143 1.775663
  H 0.785986 -0.217283 1.211009
  H 1.663883 -1.643304 -0.999988
  H 3.307690 0.786550 -0.225150
  H 5.474275 -2.119384 -3.834349
  H 5.608101 -0.386842 -3.744962
  H 3.088188 -0.193654 -3.962558
  H 2.983542 -1.948954 -4.085242
  H 5.889294 -1.634415 -0.423114
 20
 21.444643
  C 1.586913 0.240549 1.162486
  C 2.363233 0.453606 -0.119484
  H 1.885363 1.167503 -0.795925
  C 2.648406 -0.832710 -0.863195
  C 3.800906 -0.977570 -1.403797
  C 4.935409 -1.258983 -2.092395
  C 4.924899 -1.293154 -3.582563
  C 3.556755 -1.168045 -4.234334
  H 3.673805 -1.127485 -5.313533
  O 6.103121 -1.460668 -1.534693
  H 1.418592 1.195207 1.650507
  H 2.133330 -0.400098 1.849601
  H 0.619710 -0.221189 0.961500
  H 1.897965 -1.611417 -0.826337
  H 3.356603 0.865169 0.089752
  H 5.414958 -2.220707 -3.890745
  H 5.584526 -0.488342 -3.921851
  H 3.046730 -0.266680 -3.914500
  H 2.931791 -2.022959 -3.996919
  H 6.115420 -1.457851 -0.560891
 20
 19.215976
  C 1.442261 0.228010 1.094483
  C 2.446837 0.497470 -0.011920
  H 2.005150 1.162032 -0.760008
  C 2.850557 -0.754148 -0.749382
  C 3.945969 -0.958861 -1.383348
  C 5.020947 -1.270635 -2.152407
  C 4.903196 -1.337659 -3.633012
  C 3.500189 -1.166718 -4.192137
  H 3.551020 -1.066154 -5.272098
  O 6.210860 -1.528318 -1.670154
  H 1.099641 1.172004 1.511738
  H 1.891740 -0.346019 1.901050
  H 0.575354 -0.311079 0.721107
  H 2.114319 -1.554137 -0.682374
  H 3.336834 0.981366 0.388305
  H 5.340788 -2.286140 -3.959046
  H 5.568090 -0.562539 -4.034038
  H 3.018563 -0.280133 -3.789928
  H 2.881487 -2.030394 -3.964949
  H 6.294633 -1.473769 -0.699197
