 22
 0.000000
  H 1.519434 0.147202 0.418546
  C 2.600262 0.137881 0.395103
  C 3.325246 0.611617 1.573259
  C 2.449089 1.075974 2.728554
  C 3.292497 1.549957 3.907309
  C 3.193163 -0.326974 -0.761881
  C 4.578440 -0.417220 -0.986933
  C 5.166381 -0.879990 -2.141301
  C 4.514514 -1.364888 -3.351929
  H 3.431668 -1.364108 -3.351359
  H 6.246994 -0.899374 -2.189213
  H 3.991348 1.431237 1.277003
  H 3.991605 -0.184807 1.926685
  H 1.805488 0.258800 3.059661
  H 1.805307 1.894834 2.401973
  H 3.926483 0.749283 4.281178
  H 2.652016 1.877402 4.722093
  H 3.926210 2.386775 3.622851
  H 2.530977 -0.645567 -1.555291
  H 5.229590 -0.096863 -0.188469
  H 4.878487 -2.375695 -3.554592
  H 4.879317 -0.774151 -4.196428
 22
 3.252514
  H 1.550906 0.175550 0.469324
  C 2.631454 0.145640 0.394614
  C 3.369378 0.613659 1.570521
  C 2.468701 1.069564 2.715859
  C 3.286477 1.544597 3.910213
  C 3.157116 -0.324935 -0.788687
  C 4.542658 -0.431319 -1.039024
  C 5.189263 -0.879932 -2.158251
  C 4.547822 -1.379033 -3.363912
  H 3.466249 -1.372491 -3.307333
  H 6.271604 -0.863182 -2.144295
  H 4.029629 1.444129 1.285806
  H 4.027543 -0.187328 1.933573
  H 1.826128 0.243598 3.023321
  H 1.828191 1.882485 2.371488
  H 3.919837 0.746714 4.291135
  H 2.631213 1.865474 4.715549
  H 3.920653 2.385346 3.638613
  H 2.434081 -0.618960 -1.539913
  H 5.004578 -0.070510 -0.135924
  H 4.898713 -2.393625 -3.569997
  H 4.884422 -0.800717 -4.227724
 22
 7.699174
  H 1.561427 0.116123 0.474849
  C 2.643276 0.078954 0.413235
  C 3.363313 0.586870 1.579130
  C 2.460700 1.101205 2.702044
  C 3.276568 1.600060 3.891847
  C 3.186429 -0.433615 -0.748442
  C 4.572771 -0.502151 -1.009412
  C 5.185947 -0.947007 -2.142879
  C 4.527209 -1.279084 -3.392399
  H 3.449574 -1.150943 -3.371523
  H 6.268825 -1.033327 -2.136667
  H 4.017016 1.406754 1.254967
  H 4.050115 -0.163577 1.982147
  H 1.851710 0.269664 3.056881
  H 1.783843 1.878085 2.351736
  H 3.913141 0.810102 4.286880
  H 2.615313 1.921350 4.692083
  H 3.900931 2.448267 3.614352
  H 2.457239 -0.791760 -1.462864
  H 4.981673 -0.133430 -0.090006
  H 4.811082 -2.302417 -3.673673
  H 4.957340 -0.675343 -4.202644
 22
 18.627639
  H 1.565089 0.049862 0.493261
  C 2.645209 0.025485 0.436071
  C 3.369798 0.560501 1.593767
  C 2.469151 1.093993 2.699763
  C 3.276629 1.652584 3.866215
  C 3.195205 -0.497471 -0.711098
  C 4.594135 -0.586418 -1.001183
  C 5.214687 -0.969118 -2.145331
  C 4.546500 -1.196468 -3.421891
  H 3.474717 -1.036090 -3.361532
  H 6.290979 -1.091653 -2.137668
  H 4.025656 1.372030 1.241584
  H 4.054459 -0.176868 2.033219
  H 1.836073 0.286784 3.073305
  H 1.802980 1.869689 2.317668
  H 3.910058 0.883269 4.302618
  H 2.609399 2.005790 4.649628
  H 3.901349 2.484556 3.552464
  H 2.457802 -0.837031 -1.436946
  H 4.819035 -0.293609 -0.005098
  H 4.758700 -2.223859 -3.732265
  H 4.958510 -0.555326 -4.199971
 22
 19.763382
  H 1.536810 -0.054267 0.537096
  C 2.608283 -0.118668 0.485240
  C 3.347796 0.506981 1.589086
  C 2.461227 1.126253 2.669787
  C 3.302823 1.753364 3.777865
  C 3.156554 -0.733122 -0.608593
  C 4.557785 -0.804571 -0.919785
  C 5.191150 -1.041353 -2.090016
  C 4.561489 -0.976935 -3.409253
  H 3.513534 -0.688378 -3.351039
  H 6.251610 -1.262433 -2.075077
  H 4.001089 1.280219 1.151667
  H 4.024023 -0.209386 2.075982
  H 1.820903 0.350632 3.087463
  H 1.832228 1.884179 2.223402
  H 3.927167 1.006903 4.264933
  H 2.659394 2.202244 4.535260
  H 3.947252 2.537149 3.381083
  H 2.447782 -1.109961 -1.345733
  H 4.826441 -0.631359 0.097802
  H 4.676776 -1.939786 -3.895092
  H 5.049093 -0.236673 -4.036886
 22
 26.100511
  H 1.507724 -0.120753 0.599896
  C 2.581362 -0.165998 0.520273
  C 3.355429 0.489542 1.585562
  C 2.476700 1.125626 2.664125
  C 3.322211 1.811372 3.730966
  C 3.101451 -0.825657 -0.560774
  C 4.483637 -0.890390 -0.928355
  C 5.159451 -1.092523 -2.072794
  C 4.611187 -0.858903 -3.420021
  H 3.595161 -0.489640 -3.386877
  H 6.208432 -1.377812 -2.023340
  H 3.965772 1.276841 1.125234
  H 4.043758 -0.214092 2.070070
  H 1.850686 0.365460 3.130570
  H 1.819673 1.864966 2.207997
  H 3.968275 1.092449 4.238393
  H 2.685871 2.282934 4.474706
  H 3.951824 2.586750 3.291125
  H 2.365266 -1.217902 -1.255475
  H 4.682511 -0.800911 0.121784
  H 4.650856 -1.806388 -3.961928
  H 5.222079 -0.147431 -3.977177
 22
 33.595202
  H 1.508511 -0.157788 0.628798
  C 2.594189 -0.237774 0.570164
  C 3.352591 0.463795 1.617986
  C 2.471710 1.173474 2.647728
  C 3.314045 1.876289 3.711201
  C 3.102891 -0.920388 -0.489836
  C 4.468179 -0.964576 -0.969246
  C 5.138269 -1.122033 -2.101437
  C 4.618622 -0.757247 -3.436269
  H 3.612592 -0.360913 -3.385395
  H 6.151878 -1.493018 -2.076889
  H 4.004161 1.204958 1.128642
  H 4.018074 -0.231755 2.140554
  H 1.829902 0.437538 3.121101
  H 1.837547 1.904282 2.147109
  H 3.919232 1.161757 4.263147
  H 2.675571 2.393815 4.421891
  H 3.977226 2.612503 3.258711
  H 2.357473 -1.386192 -1.149526
  H 4.641664 -0.969121 0.106531
  H 4.649876 -1.648829 -4.054644
  H 5.263698 -0.017405 -3.901238
 22
 34.875634
  H 1.497350 -0.157601 0.650819
  C 2.583386 -0.241971 0.591114
  C 3.359060 0.449131 1.628179
  C 2.487099 1.196689 2.622905
  C 3.324751 1.906119 3.678050
  C 3.072478 -0.955983 -0.462642
  C 4.425723 -1.001935 -0.966619
  C 5.123144 -1.089340 -2.086205
  C 4.636303 -0.691631 -3.430562
  H 3.597265 -0.382331 -3.401210
  H 6.104690 -1.531224 -2.078720
  H 4.061210 1.163281 1.150567
  H 3.981425 -0.261264 2.169430
  H 1.813523 0.509112 3.126711
  H 1.864080 1.929917 2.085236
  H 3.908599 1.185702 4.257202
  H 2.682169 2.451823 4.362162
  H 4.005790 2.618732 3.221178
  H 2.292524 -1.407379 -1.093069
  H 4.593029 -1.191851 0.112976
  H 4.768676 -1.546502 -4.090773
  H 5.218613 0.122142 -3.830552
 22
 36.484205
  H 1.405595 -0.323894 0.783349
  C 2.479219 -0.310247 0.637641
  C 3.298688 0.452336 1.586011
  C 2.487040 1.208722 2.630570
  C 3.393576 1.950981 3.606303
  C 2.952054 -1.026590 -0.407728
  C 4.293348 -1.037118 -1.017557
  C 5.060669 -1.142376 -2.074633
  C 4.743777 -0.551649 -3.393975
  H 3.767040 -0.053923 -3.402551
  H 6.003329 -1.642284 -1.986818
  H 3.941685 1.160208 1.033096
  H 3.988821 -0.211610 2.119727
  H 1.860527 0.520028 3.175907
  H 1.823760 1.940847 2.114756
  H 4.022358 1.267111 4.134368
  H 2.801519 2.522605 4.327338
  H 4.032739 2.659827 3.078487
  H 2.211362 -1.634030 -0.956258
  H 4.478621 -1.314860 0.032848
  H 4.754463 -1.370926 -4.114953
  H 5.494190 0.160815 -3.679368
 22
 38.293821
  H 1.342228 -0.324317 0.822304
  C 2.411661 -0.384186 0.666320
  C 3.277288 0.386705 1.568927
  C 2.514363 1.211346 2.599655
  C 3.468389 2.034480 3.461662
  C 2.858511 -1.141893 -0.378477
  C 4.147300 -1.123078 -1.015315
  C 5.006505 -1.126064 -2.003912
  C 4.805772 -0.399508 -3.290500
  H 3.844419 0.109582 -3.318119
  H 5.947812 -1.646723 -1.914020
  H 3.907134 1.061519 0.968078
  H 3.968374 -0.273442 2.102854
  H 1.931222 0.542121 3.242063
  H 1.816529 1.885173 2.102479
  H 4.151993 1.388535 4.015550
  H 2.916234 2.626185 4.176954
  H 4.055457 2.707846 2.851501
  H 2.119459 -1.771228 -0.890708
  H 4.240311 -1.578393 0.001543
  H 4.858503 -1.115944 -4.108443
  H 5.602588 0.331498 -3.423903
 22
 41.693698
  H 1.311772 -0.417143 0.909332
  C 2.368571 -0.449201 0.693708
  C 3.274246 0.372747 1.507155
  C 2.552007 1.239111 2.539703
  C 3.536058 2.070865 3.346935
  C 2.794132 -1.281164 -0.340412
  C 3.994756 -1.187563 -1.058963
  C 4.935014 -1.113243 -1.951097
  C 4.857589 -0.249895 -3.165620
  H 3.912594 0.281850 -3.218025
  H 5.880458 -1.624938 -1.811186
  H 3.872364 1.019372 0.846824
  H 4.003433 -0.260311 2.029161
  H 1.978358 0.602805 3.218572
  H 1.848610 1.906111 2.034052
  H 4.234282 1.433942 3.882047
  H 3.008629 2.681621 4.079109
  H 4.106027 2.739734 2.697680
  H 2.035712 -1.939193 -0.774162
  H 3.986956 -1.819401 -0.000295
  H 4.973009 -0.873351 -4.044881
  H 5.673077 0.462947 -3.155890
 22
 45.316124
  H 1.333951 -0.344359 0.871401
  C 2.399736 -0.442206 0.721629
  C 3.305507 0.371142 1.549446
  C 2.565535 1.273483 2.537525
  C 3.543526 2.094885 3.369939
  C 2.851558 -1.333386 -0.308998
  C 3.995653 -1.182773 -1.112492
  C 4.942695 -1.059338 -1.974742
  C 4.829268 -0.259423 -3.239429
  H 3.845149 0.182809 -3.345789
  H 5.923945 -1.507530 -1.815776
  H 3.945725 0.989425 0.901098
  H 3.995405 -0.270206 2.113513
  H 1.947134 0.665865 3.203557
  H 1.903208 1.950422 1.992393
  H 4.205733 1.449441 3.940963
  H 3.003715 2.730119 4.071615
  H 4.153377 2.737658 2.731818
  H 2.089862 -1.958744 -0.766219
  H 3.757569 -1.886357 0.198547
  H 5.025684 -0.916436 -4.081155
  H 5.586798 0.521635 -3.234856
