 29
 0.000000
  C 0.968715 0.139065 0.403932
  C 2.446345 0.136481 0.395691
  C 3.231787 0.605563 1.563224
  C 2.458146 1.100459 2.782079
  C 3.412771 1.543877 3.886265
  C 3.058247 -0.328047 -0.762008
  C 4.435933 -0.412802 -0.974063
  C 5.117662 -0.862583 -2.097466
  C 4.626733 -1.384592 -3.401529
  C 3.137589 -1.502676 -3.697315
  H 2.984685 -1.899937 -4.689826
  O 6.439906 -0.856318 -2.081902
  H 0.541709 0.503900 1.330936
  H 0.596382 -0.872331 0.235896
  H 0.583262 0.758673 -0.407651
  H 3.890499 1.414793 1.228318
  H 3.885493 -0.212702 1.885849
  H 1.818335 0.306761 3.172385
  H 1.823186 1.945664 2.509821
  H 4.046080 0.720424 4.209327
  H 2.851658 1.894293 4.749161
  H 4.050974 2.357290 3.547762
  H 2.398983 -0.645008 -1.551719
  H 5.052967 -0.081205 -0.146989
  H 5.084556 -2.372338 -3.526624
  H 5.084956 -0.756310 -4.173680
  H 2.660826 -0.525259 -3.646429
  H 2.660477 -2.174838 -2.986133
  H 6.812186 -0.521751 -1.244609
 29
 3.804620
  C 0.990720 0.109302 0.432228
  C 2.422349 0.129953 0.390539
  C 3.218374 0.600446 1.557204
  C 2.450190 1.108480 2.775182
  C 3.415842 1.544711 3.872830
  C 3.037269 -0.331282 -0.769457
  C 4.409688 -0.407863 -0.969958
  C 5.101629 -0.852947 -2.087077
  C 4.618275 -1.376366 -3.394423
  C 3.131903 -1.497607 -3.691789
  H 3.003968 -1.898028 -4.692635
  O 6.423073 -0.840468 -2.062353
  H 0.544029 0.489763 1.344665
  H 0.580204 -0.882084 0.224151
  H 0.788787 0.737831 -0.392237
  H 3.889611 1.399261 1.222411
  H 3.864071 -0.223394 1.882606
  H 1.803777 0.323480 3.171449
  H 1.825710 1.960582 2.500695
  H 4.040247 0.714552 4.195499
  H 2.865478 1.906167 4.737939
  H 4.062409 2.348160 3.526954
  H 2.380802 -0.648698 -1.559718
  H 5.029684 -0.077694 -0.145558
  H 5.085961 -2.359814 -3.515990
  H 5.083446 -0.746662 -4.161143
  H 2.644486 -0.526876 -3.656016
  H 2.647122 -2.177247 -2.995940
  H 6.804535 -0.507768 -1.229095
 29
 8.749201
  C 0.936251 0.060585 0.439301
  C 2.403221 0.113043 0.393327
  C 3.221161 0.590515 1.550512
  C 2.465993 1.118088 2.765834
  C 3.443455 1.543550 3.853516
  C 3.022783 -0.338654 -0.768801
  C 4.404761 -0.400257 -0.966149
  C 5.092921 -0.834086 -2.069446
  C 4.618199 -1.360814 -3.371760
  C 3.133579 -1.493554 -3.665542
  H 3.022877 -1.892922 -4.657431
  O 6.390825 -0.809620 -2.044469
  H 0.459445 0.455440 1.335306
  H 0.486702 -0.893664 0.125657
  H 0.957308 0.737599 -0.386008
  H 3.912107 1.369717 1.216680
  H 3.845819 -0.246929 1.875192
  H 1.809464 0.346629 3.171097
  H 1.857938 1.980001 2.486352
  H 4.054262 0.703587 4.178073
  H 2.905528 1.921289 4.719553
  H 4.103258 2.332535 3.498057
  H 2.371929 -0.664007 -1.562261
  H 5.031630 -0.068014 -0.145775
  H 5.098173 -2.337793 -3.490205
  H 5.081979 -0.728289 -4.135847
  H 2.632249 -0.526061 -3.644314
  H 2.649038 -2.185916 -2.977401
  H 6.771159 -0.476776 -1.220173
 29
 15.861675
  C 0.935502 0.043920 0.483841
  C 2.391166 0.112776 0.405305
  C 3.211746 0.592386 1.554560
  C 2.457054 1.126527 2.768856
  C 3.434674 1.551112 3.857777
  C 3.004590 -0.335963 -0.760271
  C 4.395490 -0.396085 -0.963653
  C 5.094587 -0.835272 -2.083895
  C 4.623382 -1.368506 -3.394153
  C 3.140207 -1.509498 -3.696557
  H 3.034987 -1.912884 -4.691990
  O 6.408399 -0.806913 -2.061253
  H 0.460829 0.420708 1.385085
  H 0.457920 -0.859763 0.096511
  H 1.099687 0.773832 -0.302207
  H 3.909169 1.365476 1.220327
  H 3.824180 -0.255299 1.879578
  H 1.797435 0.358575 3.174280
  H 1.853048 1.989846 2.486497
  H 4.041734 0.709956 4.185120
  H 2.896904 1.932785 4.721962
  H 4.097945 2.336482 3.501829
  H 2.353305 -0.664122 -1.549174
  H 5.022768 -0.062339 -0.142293
  H 5.107698 -2.344300 -3.509800
  H 5.086962 -0.734842 -4.158193
  H 2.635610 -0.545273 -3.680302
  H 2.657033 -2.202555 -3.010433
  H 6.787220 -0.470551 -1.234188
 29
 22.086946
  C 0.934064 0.024231 0.500440
  C 2.388507 0.115844 0.401992
  C 3.206671 0.594495 1.553463
  C 2.452375 1.130215 2.770570
  C 3.435170 1.554049 3.860101
  C 3.007619 -0.336270 -0.773226
  C 4.386232 -0.391934 -0.971475
  C 5.088503 -0.831126 -2.085054
  C 4.620607 -1.371662 -3.396104
  C 3.138153 -1.517241 -3.699441
  H 3.033727 -1.929903 -4.703670
  O 6.416240 -0.798155 -2.060010
  H 0.449168 0.367465 1.392567
  H 0.442093 -0.820265 0.054387
  H 1.222103 0.801398 -0.248421
  H 3.910348 1.365198 1.220396
  H 3.813045 -0.259518 1.878760
  H 1.793009 0.362539 3.177646
  H 1.848814 1.995342 2.490100
  H 4.041986 0.712230 4.185778
  H 2.899913 1.936140 4.725889
  H 4.098836 2.338477 3.503286
  H 2.357976 -0.671937 -1.561476
  H 5.006655 -0.055282 -0.150415
  H 5.107143 -2.347757 -3.506417
  H 5.083509 -0.738913 -4.162335
  H 2.633577 -0.557167 -3.688134
  H 2.657616 -2.205786 -3.012543
  H 6.792474 -0.457530 -1.232490
 29
 26.641987
  C 0.944129 0.005247 0.521374
  C 2.384402 0.112879 0.402277
  C 3.209042 0.596598 1.555382
  C 2.446395 1.128506 2.768167
  C 3.420584 1.563018 3.858992
  C 3.007059 -0.340004 -0.775084
  C 4.398091 -0.396812 -0.981773
  C 5.093977 -0.836241 -2.097675
  C 4.622507 -1.376179 -3.404402
  C 3.138228 -1.519414 -3.697990
  H 3.025965 -1.933010 -4.701365
  O 6.419169 -0.804390 -2.080024
  H 0.459367 0.316497 1.421499
  H 0.425346 -0.769375 -0.016390
  H 1.322210 0.841505 -0.155892
  H 3.908745 1.369651 1.222960
  H 3.811883 -0.257578 1.880850
  H 1.793584 0.355978 3.174673
  H 1.835828 1.987080 2.484821
  H 4.033958 0.727595 4.187738
  H 2.879446 1.941582 4.722224
  H 4.078104 2.352630 3.502783
  H 2.351090 -0.680103 -1.561193
  H 5.025883 -0.060133 -0.162407
  H 5.106131 -2.352521 -3.515855
  H 5.081156 -0.744153 -4.172463
  H 2.636045 -0.557882 -3.683600
  H 2.661773 -2.206483 -3.006599
  H 6.797971 -0.460795 -1.245599
 29
 29.528418
  C 0.935679 -0.010559 0.542188
  C 2.374575 0.115464 0.403641
  C 3.198426 0.595695 1.548942
  C 2.448915 1.124881 2.764806
  C 3.435360 1.565545 3.841253
  C 3.004036 -0.341710 -0.780082
  C 4.374995 -0.394036 -0.973407
  C 5.086231 -0.834145 -2.088484
  C 4.631275 -1.377113 -3.402941
  C 3.151031 -1.525216 -3.713422
  H 3.052134 -1.940088 -4.718955
  O 6.411461 -0.798780 -2.059267
  H 0.452406 0.276634 1.459628
  H 0.401940 -0.729861 -0.061825
  H 1.388582 0.879810 -0.076386
  H 3.890668 1.366466 1.212299
  H 3.802234 -0.255236 1.867891
  H 1.804601 0.347740 3.183864
  H 1.830372 1.982586 2.487314
  H 4.057417 0.732243 4.163526
  H 2.903680 1.943598 4.711412
  H 4.085629 2.358132 3.474476
  H 2.354768 -0.683706 -1.563850
  H 4.991472 -0.056457 -0.151490
  H 5.118863 -2.351782 -3.507940
  H 5.096373 -0.743527 -4.165357
  H 2.645185 -0.564273 -3.705241
  H 2.668617 -2.214492 -3.026647
  H 6.775110 -0.459296 -1.232647
 29
 31.809167
  C 0.944429 -0.034845 0.540392
  C 2.373111 0.109991 0.392861
  C 3.202071 0.592783 1.542611
  C 2.444334 1.122825 2.764597
  C 3.430298 1.579297 3.841839
  C 3.001618 -0.346932 -0.787645
  C 4.385059 -0.401803 -0.983306
  C 5.088435 -0.838352 -2.089749
  C 4.628707 -1.376947 -3.402590
  C 3.145166 -1.518069 -3.707152
  H 3.039756 -1.930062 -4.711683
  O 6.422539 -0.806341 -2.060901
  H 0.459800 0.223419 1.469545
  H 0.400490 -0.693757 -0.118686
  H 1.456273 0.899150 -0.022024
  H 3.891113 1.370460 1.201013
  H 3.813820 -0.258293 1.864625
  H 1.807423 0.339180 3.189712
  H 1.814930 1.975651 2.485129
  H 4.061706 0.753491 4.166582
  H 2.895778 1.955420 4.712191
  H 4.072329 2.377340 3.471553
  H 2.348574 -0.687402 -1.570470
  H 5.005659 -0.066340 -0.161614
  H 5.111971 -2.354121 -3.510575
  H 5.093912 -0.743308 -4.165816
  H 2.643810 -0.555297 -3.694509
  H 2.662942 -2.206108 -3.019615
  H 6.792723 -0.464696 -1.221181
 29
 33.496339
  C 0.940940 -0.051062 0.540956
  C 2.364740 0.112352 0.393173
  C 3.205051 0.596453 1.550622
  C 2.452022 1.121661 2.771114
  C 3.440000 1.589288 3.842220
  C 2.997464 -0.348579 -0.790800
  C 4.366007 -0.400516 -0.978339
  C 5.083376 -0.840989 -2.091304
  C 4.635725 -1.378762 -3.404670
  C 3.156754 -1.521093 -3.718908
  H 3.058661 -1.935206 -4.731401
  O 6.410687 -0.808545 -2.056476
  H 0.453130 0.179022 1.467848
  H 0.389734 -0.653654 -0.168762
  H 1.501118 0.913072 0.031247
  H 3.885648 1.375787 1.206266
  H 3.818338 -0.246016 1.869839
  H 1.824898 0.333743 3.201006
  H 1.813897 1.967564 2.493273
  H 4.080945 0.769417 4.165502
  H 2.907073 1.962778 4.715072
  H 4.073610 2.392585 3.466525
  H 2.346338 -0.689926 -1.574652
  H 4.981171 -0.063127 -0.152813
  H 5.120386 -2.354996 -3.509007
  H 5.105040 -0.744363 -4.163689
  H 2.654343 -0.558620 -3.708549
  H 2.670797 -2.210359 -3.034902
  H 6.769778 -0.472319 -1.226768
 29
 35.186642
  C 0.951451 -0.056800 0.554164
  C 2.377033 0.120065 0.396671
  C 3.212198 0.594526 1.542667
  C 2.446398 1.115158 2.764143
  C 3.426941 1.593750 3.841140
  C 3.008016 -0.346547 -0.793516
  C 4.384679 -0.400820 -0.988603
  C 5.088578 -0.839073 -2.087715
  C 4.633027 -1.382362 -3.409839
  C 3.146810 -1.523244 -3.723925
  H 3.047261 -1.933668 -4.725240
  O 6.427535 -0.807603 -2.051766
  H 0.459944 0.164633 1.490492
  H 0.395280 -0.612402 -0.178776
  H 1.553624 0.925689 0.071867
  H 3.889384 1.380037 1.197175
  H 3.832620 -0.250681 1.862757
  H 1.823932 0.319639 3.192312
  H 1.799431 1.956073 2.483365
  H 4.074867 0.780301 4.167179
  H 2.886686 1.962080 4.711897
  H 4.054043 2.403224 3.467765
  H 2.353710 -0.687147 -1.571470
  H 5.002306 -0.064504 -0.170388
  H 5.116413 -2.361825 -3.513945
  H 5.103286 -0.748798 -4.172461
  H 2.644952 -0.558548 -3.714393
  H 2.659503 -2.212485 -3.038344
  H 6.789745 -0.467993 -1.214866
 29
 36.815218
  C 0.939320 -0.074928 0.537220
  C 2.368963 0.124002 0.384556
  C 3.213181 0.596800 1.546718
  C 2.451427 1.114736 2.771692
  C 3.435440 1.598540 3.846716
  C 3.005870 -0.345163 -0.802635
  C 4.378986 -0.396045 -0.990906
  C 5.091309 -0.842153 -2.099687
  C 4.635839 -1.383181 -3.407076
  C 3.158237 -1.518453 -3.708166
  H 3.051371 -1.929442 -4.705283
  O 6.421545 -0.813748 -2.068341
  H 0.439354 0.138720 1.467088
  H 0.389313 -0.598623 -0.218268
  H 1.580580 0.931097 0.075764
  H 3.890353 1.387154 1.202261
  H 3.833065 -0.245937 1.863879
  H 1.841338 0.325516 3.198067
  H 1.806295 1.944481 2.496532
  H 4.087744 0.788755 4.169707
  H 2.897123 1.964688 4.720262
  H 4.056870 2.409931 3.471134
  H 2.351619 -0.689960 -1.588011
  H 4.998296 -0.052991 -0.165054
  H 5.114323 -2.361175 -3.510523
  H 5.102267 -0.755181 -4.170789
  H 2.660760 -0.552374 -3.696683
  H 2.674150 -2.204286 -3.017579
  H 6.788467 -0.470659 -1.227291
 29
 38.310783
  C 0.939846 -0.077753 0.549639
  C 2.367855 0.138096 0.388671
  C 3.215926 0.600795 1.550980
  C 2.457728 1.111837 2.770168
  C 3.443308 1.597748 3.846281
  C 3.004200 -0.336990 -0.800689
  C 4.379605 -0.387682 -0.989711
  C 5.091729 -0.833965 -2.087165
  C 4.643459 -1.386544 -3.410023
  C 3.155827 -1.530489 -3.731223
  H 3.061224 -1.947635 -4.734905
  O 6.421953 -0.801653 -2.043979
  H 0.444127 0.135303 1.475284
  H 0.383996 -0.582782 -0.221043
  H 1.613107 0.945330 0.093403
  H 3.890509 1.388419 1.210825
  H 3.831156 -0.238324 1.863083
  H 1.847533 0.316145 3.197144
  H 1.807394 1.942742 2.495431
  H 4.100223 0.787224 4.167884
  H 2.904203 1.961127 4.721783
  H 4.063540 2.414029 3.469964
  H 2.349125 -0.682160 -1.582100
  H 4.994607 -0.042753 -0.169094
  H 5.128647 -2.367610 -3.505832
  H 5.117641 -0.756840 -4.174685
  H 2.650428 -0.560371 -3.728995
  H 2.663225 -2.220858 -3.040586
  H 6.778937 -0.456374 -1.204088
 29
 39.765949
  C 0.947610 -0.092224 0.538386
  C 2.381805 0.148374 0.375797
  C 3.230844 0.605802 1.552697
  C 2.459753 1.111477 2.771577
  C 3.426402 1.594295 3.844715
  C 3.019435 -0.331066 -0.808794
  C 4.390715 -0.381582 -0.997777
  C 5.098183 -0.835090 -2.098695
  C 4.635357 -1.388759 -3.407716
  C 3.153323 -1.523262 -3.704245
  H 3.043358 -1.938854 -4.692824
  O 6.433404 -0.808450 -2.066916
  H 0.445312 0.122741 1.464155
  H 0.396448 -0.578416 -0.241063
  H 1.653543 0.956323 0.083961
  H 3.904863 1.395138 1.221354
  H 3.847324 -0.237200 1.866567
  H 1.848465 0.308885 3.194250
  H 1.804663 1.943787 2.494377
  H 4.084971 0.785110 4.167495
  H 2.878695 1.952594 4.718205
  H 4.044648 2.414913 3.473509
  H 2.365261 -0.678551 -1.588599
  H 5.010179 -0.032983 -0.178156
  H 5.111588 -2.368556 -3.505364
  H 5.101879 -0.768081 -4.178827
  H 2.658042 -0.557432 -3.698883
  H 2.670053 -2.202433 -3.009143
  H 6.799253 -0.462249 -1.233839
 29
 41.246585
  C 0.948185 -0.097607 0.555561
  C 2.376894 0.162025 0.384649
  C 3.233100 0.609914 1.558473
  C 2.465269 1.117987 2.787217
  C 3.434549 1.597593 3.850951
  C 3.013166 -0.324565 -0.806261
  C 4.374913 -0.376381 -0.995512
  C 5.090177 -0.832223 -2.095253
  C 4.646242 -1.393045 -3.416354
  C 3.162275 -1.540449 -3.744928
  H 3.074443 -1.962561 -4.746564
  O 6.412419 -0.800846 -2.049673
  H 0.445857 0.122561 1.480497
  H 0.391388 -0.568283 -0.233314
  H 1.680721 0.970648 0.099282
  H 3.910960 1.402255 1.222605
  H 3.854558 -0.245866 1.869372
  H 1.858905 0.319970 3.212884
  H 1.811379 1.948816 2.516970
  H 4.090923 0.792207 4.167124
  H 2.894654 1.954031 4.724309
  H 4.047538 2.413394 3.478539
  H 2.359763 -0.668855 -1.578516
  H 4.990792 -0.026185 -0.177212
  H 5.131826 -2.372460 -3.504225
  H 5.123525 -0.768481 -4.182233
  H 2.658133 -0.576875 -3.751020
  H 2.669154 -2.224312 -3.058226
  H 6.772407 -0.447346 -1.202596
