19
 0
 C -1.07873643 -0.19021017 0.01842165
 C -1.40545005 -1.50012420 -0.68829262
 C -0.68149659 -2.65973494 -0.00613293
 C -2.89120171 -1.84031598 -0.81723558
 C -3.94718265 -0.99858107 -0.14762345
 O -3.24027948 -2.83527901 -1.46295207
 H 0.00000000 0.00000000 0.00000000
 H -1.39372197 -0.20849770 1.06741928
 H -1.56917095 0.65632162 -0.47343995
 H -1.03318389 -1.41262296 -1.71748566
 H -1.04772062 -2.80833266 1.01560073
 H 0.39719636 -2.47564938 0.03897484
 H -0.83579222 -3.59741475 -0.55111241
 H -3.54960542 -0.11086713 0.34079695
 H -4.45790361 -1.60401750 0.60594823
 H -4.66430797 -0.66987937 -0.90546689
 O 2.30000000 0.00000000 0.00000000
 H 2.75978125 -0.85122736 -0.05458952
 H 3.01377174 0.64429848 0.11985406
