 19
 0.000000
  C -1.085824 -0.171437 0.039758
  C -1.378717 -1.461141 -0.655700
  C -0.748783 -2.664774 0.014348
  C -2.894097 -1.872039 -0.851901
  C -3.879555 -1.007487 -0.154921
  O -3.159393 -2.833566 -1.494491
  H -0.001608 -0.006120 0.006073
  H -1.343918 -0.190442 1.097591
  H -1.541003 0.683039 -0.455525
  H -1.053187 -1.387312 -1.703178
  H -1.110364 -2.812589 1.032089
  H 0.323082 -2.479707 0.092476
  H -0.929004 -3.574730 -0.553260
  H -3.451994 -0.146382 0.338226
  H -4.396612 -1.643591 0.567853
  H -4.617141 -0.699971 -0.899508
  O 2.268543 -0.007227 -0.031060
  H 2.728429 -0.849534 -0.091968
  H 2.946141 0.662875 0.085783
 19
 -0.466364
  C -1.064114 -0.176227 0.042063
  C -1.351077 -1.466641 -0.647821
  C -0.761493 -2.674682 0.048590
  C -2.873411 -1.855507 -0.868693
  C -3.856411 -1.006561 -0.154072
  O -3.139376 -2.795806 -1.542835
  H 0.021020 -0.012216 0.001530
  H -1.313780 -0.191390 1.100776
  H -1.512133 0.677514 -0.458929
  H -1.013214 -1.409044 -1.692273
  H -1.145751 -2.797587 1.060168
  H 0.311589 -2.512019 0.145213
  H -0.944519 -3.588300 -0.510736
  H -3.425958 -0.165170 0.370177
  H -4.386122 -1.659742 0.542908
  H -4.586845 -0.670419 -0.891963
  O 2.190526 -0.012108 -0.091084
  H 2.684747 -0.838002 -0.110552
  H 2.829211 0.691117 0.047793
 19
 -1.028058
  C -1.026216 -0.210723 0.075663
  C -1.326659 -1.472611 -0.656387
  C -0.775702 -2.718338 0.009292
  C -2.858349 -1.818068 -0.893973
  C -3.823916 -1.009299 -0.115045
  O -3.141732 -2.703883 -1.632534
  H 0.065039 -0.063423 0.031523
  H -1.265067 -0.258641 1.133959
  H -1.464279 0.666139 -0.397953
  H -0.981205 -1.392006 -1.696513
  H -1.169699 -2.854867 1.014944
  H 0.303062 -2.593375 0.111927
  H -0.979757 -3.612989 -0.577781
  H -3.376172 -0.216445 0.467789
  H -4.363591 -1.701808 0.533523
  H -4.551036 -0.607602 -0.820172
  O 2.093630 0.045949 -0.133546
  H 2.645970 -0.739967 -0.126648
  H 2.656486 0.797802 0.068843
 19
 -1.654969
  C -0.924860 -0.229311 -0.099133
  C -1.324484 -1.577571 -0.589016
  C -0.901103 -2.719520 0.315698
  C -2.879881 -1.823093 -0.789549
  C -3.778040 -0.853223 -0.118429
  O -3.235045 -2.768415 -1.416205
  H 0.178248 -0.174686 -0.170829
  H -1.149323 -0.063806 0.953230
  H -1.298559 0.575054 -0.725411
  H -0.962948 -1.727152 -1.612251
  H -1.311446 -2.619185 1.317932
  H 0.181336 -2.688058 0.413184
  H -1.187880 -3.684034 -0.092892
  H -3.266874 -0.038323 0.369622
  H -4.373726 -1.416931 0.601662
  H -4.473064 -0.477467 -0.873753
  O 2.097418 -0.085175 -0.468294
  H 2.675179 -0.826412 -0.264444
  H 2.600868 0.725775 -0.347080
 19
 -2.244969
  C -0.916471 -0.259282 -0.037290
  C -1.274829 -1.575347 -0.633820
  C -0.901344 -2.773888 0.220977
  C -2.817235 -1.806961 -0.920943
  C -3.755276 -0.966780 -0.139377
  O -3.133834 -2.652733 -1.695781
  H 0.190395 -0.174505 -0.092217
  H -1.164259 -0.174499 1.017338
  H -1.291812 0.581722 -0.613739
  H -0.855517 -1.660406 -1.641559
  H -1.357668 -2.725589 1.208841
  H 0.177303 -2.765677 0.362948
  H -1.176650 -3.711035 -0.256205
  H -3.273336 -0.234164 0.489680
  H -4.368884 -1.642095 0.459758
  H -4.428958 -0.482168 -0.850762
  O 2.014137 0.120366 -0.330282
  H 2.654176 -0.555124 -0.083566
  H 2.359928 0.976398 -0.054965
 19
 -2.477050
  C -0.888455 -0.272797 -0.039248
  C -1.260038 -1.575269 -0.652015
  C -0.892354 -2.790508 0.187842
  C -2.806025 -1.780454 -0.926524
  C -3.730610 -0.982829 -0.087250
  O -3.141415 -2.581682 -1.741144
  H 0.224982 -0.184952 -0.107133
  H -1.112402 -0.203770 1.021820
  H -1.260459 0.580718 -0.597000
  H -0.842468 -1.654797 -1.658586
  H -1.320748 -2.734749 1.185299
  H 0.190656 -2.818728 0.293935
  H -1.210123 -3.717280 -0.285766
  H -3.234161 -0.281818 0.569145
  H -4.333893 -1.685663 0.488656
  H -4.417386 -0.462952 -0.759116
  O 1.942322 0.148394 -0.372074
  H 2.584509 -0.506808 -0.076728
  H 2.212973 1.007566 -0.024771
 19
 -2.465648
  C -0.887022 -0.274577 -0.031682
  C -1.245740 -1.565308 -0.668614
  C -0.857218 -2.789944 0.143245
  C -2.790132 -1.781974 -0.934887
  C -3.721397 -1.014111 -0.078094
  O -3.121797 -2.573337 -1.762552
  H 0.228665 -0.174235 -0.102348
  H -1.115198 -0.227492 1.029186
  H -1.267730 0.587537 -0.575065
  H -0.831023 -1.620677 -1.680886
  H -1.262894 -2.747263 1.151343
  H 0.228257 -2.822308 0.218958
  H -1.186414 -3.708459 -0.335043
  H -3.230623 -0.306043 0.579835
  H -4.301589 -1.735840 0.500954
  H -4.429067 -0.505496 -0.735112
  O 1.895274 0.182626 -0.338745
  H 2.530525 -0.467878 -0.018846
  H 2.104081 1.029823 0.070922
 19
 -2.320997
  C -0.878719 -0.287417 0.013567
  C -1.251246 -1.557289 -0.664816
  C -0.864651 -2.810914 0.104919
  C -2.797511 -1.757357 -0.935327
  C -3.723082 -0.978833 -0.078016
  O -3.134180 -2.541765 -1.766526
  H 0.236854 -0.209304 -0.039067
  H -1.125806 -0.264503 1.072024
  H -1.243058 0.593090 -0.506738
  H -0.841670 -1.579486 -1.682628
  H -1.284409 -2.809757 1.107959
  H 0.218983 -2.838436 0.197132
  H -1.181238 -3.711247 -0.412961
  H -3.228960 -0.289980 0.591587
  H -4.322281 -1.696116 0.486173
  H -4.413912 -0.450173 -0.736220
  O 1.914370 0.141515 -0.329008
  H 2.601873 -0.473868 -0.061590
  H 2.101551 0.989758 0.088877
 19
 -2.358277
  C -0.876739 -0.277312 -0.026544
  C -1.245480 -1.571062 -0.653167
  C -0.867526 -2.793595 0.172466
  C -2.786880 -1.775380 -0.922448
  C -3.712420 -0.965346 -0.098859
  O -3.124475 -2.589516 -1.725555
  H 0.238146 -0.193897 -0.095223
  H -1.104087 -0.218485 1.034471
  H -1.239720 0.584563 -0.581979
  H -0.827375 -1.640702 -1.662668
  H -1.287814 -2.745554 1.173460
  H 0.213698 -2.828148 0.264680
  H -1.194309 -3.711270 -0.303107
  H -3.215882 -0.246818 0.538134
  H -4.309217 -1.658294 0.497887
  H -4.408953 -0.464031 -0.780697
  O 1.908759 0.121942 -0.356567
  H 2.532692 -0.544438 -0.041109
  H 2.145275 0.969619 0.037347
 19
 -2.427603
  C -0.883733 -0.280907 0.032468
  C -1.239279 -1.549237 -0.654812
  C -0.857952 -2.802113 0.112928
  C -2.778631 -1.757490 -0.945549
  C -3.721402 -0.993505 -0.087976
  O -3.101332 -2.538152 -1.784606
  H 0.229398 -0.179625 -0.044677
  H -1.102696 -0.281649 1.096732
  H -1.267941 0.600175 -0.475849
  H -0.813186 -1.567415 -1.667480
  H -1.294485 -2.810162 1.109303
  H 0.225885 -2.824436 0.222686
  H -1.164492 -3.704969 -0.416409
  H -3.236158 -0.298565 0.589063
  H -4.317696 -1.722356 0.470838
  H -4.413284 -0.470904 -0.746698
  O 1.918374 0.163826 -0.335581
  H 2.540096 -0.528388 -0.074101
  H 2.182249 0.984234 0.096877
 19
 -2.694259
  C -0.863975 -0.278566 0.023197
  C -1.227437 -1.561843 -0.634917
  C -0.915316 -2.802777 0.186244
  C -2.763973 -1.733191 -0.968093
  C -3.704651 -1.010289 -0.078514
  O -3.079834 -2.457349 -1.859580
  H 0.245623 -0.174047 -0.072631
  H -1.082234 -0.252944 1.086785
  H -1.264717 0.589788 -0.496051
  H -0.772062 -1.622074 -1.630917
  H -1.390464 -2.767675 1.164994
  H 0.160631 -2.847675 0.343826
  H -1.217214 -3.711967 -0.327049
  H -3.219504 -0.390151 0.662567
  H -4.338202 -1.758847 0.402747
  H -4.360152 -0.412090 -0.712503
  O 1.957151 0.159948 -0.411806
  H 2.578300 -0.528942 -0.142511
  H 2.241284 0.988871 -0.006169
 19
 -2.503167
  C -0.875633 -0.282796 0.036364
  C -1.234021 -1.550528 -0.652587
  C -0.871574 -2.806832 0.119330
  C -2.773409 -1.746518 -0.955931
  C -3.713634 -1.001903 -0.081170
  O -3.095156 -2.504567 -1.815455
  H 0.235719 -0.178721 -0.046116
  H -1.095856 -0.285457 1.100848
  H -1.268144 0.597894 -0.467180
  H -0.801538 -1.571606 -1.660712
  H -1.315776 -2.810425 1.112436
  H 0.210830 -2.837056 0.239260
  H -1.177658 -3.706711 -0.411677
  H -3.227076 -0.331342 0.618548
  H -4.318139 -1.742813 0.452769
  H -4.398245 -0.454637 -0.727831
  O 1.937694 0.172303 -0.342046
  H 2.558219 -0.520936 -0.080919
  H 2.206650 0.990829 0.091688
