 22
 0.000000
  C 1.030533 0.093540 0.324418
  C 2.500334 0.107788 0.377453
  C 3.241338 0.597236 1.552128
  C 2.422400 1.092693 2.732969
  H 3.092629 1.421752 3.524807
  C 3.168144 -0.361827 -0.747753
  C 4.556469 -0.429177 -0.936192
  C 5.173917 -0.867392 -2.085178
  C 4.547682 -1.337502 -3.318376
  H 3.462449 -1.332965 -3.303537
  H 6.257379 -0.867859 -2.093062
  H 0.563125 0.478112 1.222713
  H 0.678002 -0.923990 0.146430
  H 0.686107 0.673538 -0.535618
  H 3.909504 1.400044 1.221860
  H 3.905976 -0.204467 1.892293
  H 1.790966 0.304988 3.137149
  H 1.795285 1.936687 2.455736
  H 2.540234 -0.696640 -1.562521
  H 5.197228 -0.115318 -0.123886
  H 4.908372 -2.344260 -3.538688
  H 4.906002 -0.731655 -4.153029
 22
 -0.270277
  C 1.025240 0.080408 0.343391
  C 2.494507 0.073442 0.379159
  C 3.241473 0.594670 1.543434
  C 2.424038 1.116052 2.713773
  H 3.093630 1.474400 3.488478
  C 3.157411 -0.400998 -0.749968
  C 4.546933 -0.430863 -0.939642
  C 5.173900 -0.864971 -2.081819
  C 4.556215 -1.358346 -3.310898
  H 3.472750 -1.380507 -3.290620
  H 6.257170 -0.839322 -2.088445
  H 0.574930 0.197374 1.319832
  H 0.639678 -0.812512 -0.146878
  H 0.700331 0.922803 -0.277837
  H 3.903292 1.397387 1.192754
  H 3.913747 -0.191687 1.899910
  H 1.805977 0.334229 3.149863
  H 1.785802 1.943530 2.415032
  H 2.533748 -0.763249 -1.555238
  H 5.180203 -0.090150 -0.133552
  H 4.941616 -2.357559 -3.528097
  H 4.894203 -0.746506 -4.150611
 22
 2.250817
  C 1.019389 0.050316 0.373703
  C 2.483231 0.046285 0.380466
  C 3.241763 0.587075 1.531377
  C 2.425806 1.103105 2.707697
  H 3.097456 1.473738 3.476136
  C 3.136981 -0.416911 -0.760605
  C 4.523143 -0.373683 -0.966518
  C 5.160486 -0.819410 -2.097030
  C 4.559878 -1.395831 -3.296181
  H 3.476278 -1.445473 -3.272548
  H 6.245342 -0.772719 -2.107529
  H 0.547599 0.086668 1.345084
  H 0.583080 -0.650228 -0.321574
  H 0.883709 1.060060 -0.095633
  H 3.894380 1.389162 1.176480
  H 3.909826 -0.207190 1.889866
  H 1.824733 0.316558 3.158828
  H 1.772163 1.919429 2.407348
  H 2.523213 -0.859761 -1.531053
  H 5.144124 0.030716 -0.184537
  H 4.963049 -2.399983 -3.450137
  H 4.889698 -0.828210 -4.175683
 22
 16.555282
  C 1.031963 -0.045259 0.427581
  C 2.462030 0.051467 0.381548
  C 3.234371 0.538255 1.553111
  C 2.422183 1.127443 2.699153
  H 3.091946 1.466876 3.481919
  C 3.130556 -0.454709 -0.737756
  C 4.500727 -0.328539 -0.986455
  C 5.139928 -0.773064 -2.116113
  C 4.538731 -1.386019 -3.303973
  H 3.449910 -1.347135 -3.317528
  H 6.209354 -0.610867 -2.176116
  H 0.502834 0.159358 1.339814
  H 0.542900 -0.668807 -0.303443
  H 1.231927 0.971642 -0.140258
  H 3.971121 1.278829 1.226224
  H 3.800185 -0.318062 1.930884
  H 1.758875 0.388706 3.139107
  H 1.838268 1.983188 2.370233
  H 2.533866 -0.974250 -1.481504
  H 5.115119 0.157124 -0.237910
  H 4.864618 -2.432454 -3.374461
  H 4.932857 -0.902101 -4.199847
 22
 34.218742
  C 1.000308 -0.035835 0.456883
  C 2.397297 0.142209 0.340275
  C 3.212111 0.646070 1.506037
  C 2.412042 1.047500 2.742848
  H 3.100413 1.341890 3.525862
  C 3.106240 -0.415828 -0.783592
  C 4.481680 -0.359512 -0.990978
  C 5.132470 -0.806557 -2.111297
  C 4.545351 -1.454513 -3.296180
  H 3.470543 -1.594490 -3.234086
  H 6.209224 -0.704305 -2.130681
  H 0.466725 0.244208 1.345087
  H 0.463929 -0.572923 -0.304810
  H 1.611082 1.035771 -0.159298
  H 3.812700 1.501204 1.185008
  H 3.905755 -0.147302 1.773566
  H 1.819016 0.217562 3.122816
  H 1.760385 1.896690 2.545832
  H 2.508143 -0.924232 -1.524177
  H 5.091514 0.094838 -0.225974
  H 5.025257 -2.416218 -3.445866
  H 4.776043 -0.869879 -4.186019
 22
 40.677411
  C 0.962848 -0.090567 0.495959
  C 2.361778 0.193931 0.341685
  C 3.203596 0.649067 1.529189
  C 2.400886 1.038773 2.770293
  H 3.088531 1.340597 3.559766
  C 3.066249 -0.368146 -0.816919
  C 4.431276 -0.292209 -1.027785
  C 5.091171 -0.799534 -2.125108
  C 4.513675 -1.484338 -3.282264
  H 3.432892 -1.561079 -3.256688
  H 6.168044 -0.702406 -2.141648
  H 0.433354 0.137365 1.397944
  H 0.407937 -0.537199 -0.312677
  H 1.996508 1.094861 -0.277303
  H 3.816644 1.496267 1.231892
  H 3.877021 -0.166676 1.791445
  H 1.821572 0.202536 3.144492
  H 1.735968 1.878421 2.572606
  H 2.452909 -0.859863 -1.554677
  H 5.036286 0.188924 -0.277245
  H 4.944337 -2.487249 -3.358788
  H 4.819606 -0.968826 -4.192580
 22
 42.563476
  C 0.982687 -0.076915 0.509811
  C 2.356789 0.179920 0.361618
  C 3.200077 0.655750 1.538769
  C 2.403580 1.041255 2.781220
  H 3.092730 1.348627 3.564372
  C 3.057309 -0.353886 -0.824105
  C 4.434663 -0.291958 -1.031538
  C 5.082145 -0.803990 -2.124621
  C 4.492529 -1.483808 -3.286261
  H 3.410834 -1.540953 -3.267058
  H 6.160129 -0.719392 -2.145999
  H 0.463338 0.122832 1.426216
  H 0.412972 -0.498840 -0.300317
  H 2.319495 0.987018 -0.491829
  H 3.801099 1.514115 1.236753
  H 3.888342 -0.148571 1.805017
  H 1.829067 0.202584 3.163910
  H 1.731456 1.872026 2.581501
  H 2.441870 -0.874473 -1.542996
  H 5.043799 0.186693 -0.279788
  H 4.905049 -2.491716 -3.358251
  H 4.810527 -0.975464 -4.197387
 22
 38.786974
  C 0.979369 -0.040413 0.518901
  C 2.329776 0.178779 0.392559
  C 3.179600 0.656387 1.546098
  C 2.404666 1.025878 2.807064
  H 3.103844 1.330218 3.578204
  C 3.019154 -0.295753 -0.833846
  C 4.421120 -0.255419 -1.039192
  C 5.064961 -0.785218 -2.117057
  C 4.474740 -1.488008 -3.266002
  H 3.393788 -1.558332 -3.237891
  H 6.144815 -0.718756 -2.130957
  H 0.451519 0.187104 1.426578
  H 0.402707 -0.477287 -0.279952
  H 2.508156 0.862453 -0.726324
  H 3.762658 1.526639 1.237981
  H 3.885028 -0.138362 1.791460
  H 1.843522 0.180630 3.189773
  H 1.725687 1.853603 2.627862
  H 2.406373 -0.856228 -1.526560
  H 5.026014 0.247259 -0.298829
  H 4.897548 -2.490842 -3.326309
  H 4.779716 -0.989947 -4.185771
 22
 28.303701
  C 0.992384 -0.043912 0.515596
  C 2.313188 0.203382 0.398323
  C 3.183058 0.648776 1.530391
  C 2.446817 0.931620 2.835858
  H 3.163211 1.244640 3.591203
  C 2.964672 -0.120863 -0.915786
  C 4.398167 -0.134170 -1.093350
  C 5.056492 -0.786096 -2.090918
  C 4.475720 -1.580787 -3.177913
  H 3.393438 -1.634560 -3.161653
  H 6.135136 -0.708987 -2.108367
  H 0.473822 0.093920 1.446103
  H 0.388449 -0.361537 -0.316200
  H 2.598119 0.962805 -1.005069
  H 3.724585 1.552975 1.243741
  H 3.927928 -0.131952 1.704463
  H 1.943245 0.042740 3.206287
  H 1.718834 1.729809 2.715343
  H 2.356460 -0.705420 -1.597656
  H 4.995324 0.394491 -0.364164
  H 4.887650 -2.590701 -3.142495
  H 4.804626 -1.173058 -4.135188
 22
 20.209711
  C 0.989087 -0.022481 0.519962
  C 2.314316 0.196977 0.409196
  C 3.190744 0.650214 1.522267
  C 2.483291 0.903016 2.847398
  H 3.212310 1.206791 3.593568
  C 2.927095 -0.054838 -0.939150
  C 4.376848 -0.097879 -1.096583
  C 5.040343 -0.775652 -2.070094
  C 4.464345 -1.592195 -3.142872
  H 3.380033 -1.631681 -3.142050
  H 6.121403 -0.723044 -2.065805
  H 0.459099 0.101065 1.445325
  H 0.401085 -0.357212 -0.316422
  H 2.596192 0.961309 -1.271709
  H 3.702189 1.570147 1.225814
  H 3.964351 -0.109471 1.665905
  H 1.992251 0.003894 3.208688
  H 1.747535 1.696920 2.758678
  H 2.359137 -0.754166 -1.549263
  H 4.967784 0.462592 -0.386186
  H 4.863857 -2.606736 -3.077293
  H 4.816190 -1.216675 -4.106200
 22
 17.409046
  C 0.981951 0.038508 0.529678
  C 2.310374 0.191030 0.414388
  C 3.190986 0.641517 1.522250
  C 2.503582 0.897433 2.857882
  H 3.244188 1.189505 3.597033
  C 2.907445 -0.084466 -0.929955
  C 4.366794 -0.098254 -1.079956
  C 5.042692 -0.753651 -2.070111
  C 4.473847 -1.565111 -3.154263
  H 3.394822 -1.592732 -3.170336
  H 6.123679 -0.682558 -2.070186
  H 0.460250 0.198101 1.457871
  H 0.375789 -0.265902 -0.305200
  H 2.521136 0.769407 -1.519813
  H 3.701276 1.559437 1.212374
  H 3.971472 -0.113905 1.656035
  H 2.004814 0.004507 3.220365
  H 1.774068 1.702469 2.781768
  H 2.433896 -0.952998 -1.392992
  H 4.949470 0.469985 -0.368373
  H 4.859627 -2.582550 -3.083567
  H 4.846322 -1.196153 -4.109624
 22
 17.716076
  C 0.978916 0.131853 0.503402
  C 2.329910 0.151347 0.442919
  C 3.198311 0.630157 1.548987
  C 2.489534 0.935827 2.862206
  H 3.223561 1.204899 3.617045
  C 2.933318 -0.261328 -0.854422
  C 4.386691 -0.186286 -1.037545
  C 5.049047 -0.729252 -2.092550
  C 4.463208 -1.465024 -3.218645
  H 3.380879 -1.501112 -3.209175
  H 6.125752 -0.625033 -2.119155
  H 0.425807 0.528211 1.335449
  H 0.391358 -0.312675 -0.282003
  H 2.448865 0.427412 -1.572412
  H 3.726172 1.530678 1.216447
  H 3.965769 -0.130254 1.723986
  H 1.941041 0.069114 3.220857
  H 1.798566 1.769347 2.759386
  H 2.544497 -1.238602 -1.161976
  H 4.966542 0.349109 -0.301704
  H 4.860453 -2.482119 -3.232182
  H 4.810281 -1.022650 -4.153647
 22
 16.745515
  C 0.967367 0.106612 0.521700
  C 2.315143 0.169458 0.430310
  C 3.191212 0.634581 1.537485
  C 2.494764 0.953439 2.852751
  H 3.235469 1.230761 3.597948
  C 2.927137 -0.244949 -0.863389
  C 4.386888 -0.197431 -1.022909
  C 5.051010 -0.735725 -2.080280
  C 4.464379 -1.449438 -3.219849
  H 3.380614 -1.469777 -3.220738
  H 6.128692 -0.642443 -2.098985
  H 0.436625 0.386316 1.411556
  H 0.363102 -0.228926 -0.304121
  H 2.474345 0.395881 -1.638808
  H 3.726516 1.528121 1.199248
  H 3.951877 -0.131956 1.712655
  H 1.949492 0.091975 3.227906
  H 1.805105 1.786864 2.745209
  H 2.545416 -1.238462 -1.135805
  H 4.970519 0.308409 -0.271494
  H 4.845061 -2.473251 -3.236370
  H 4.827745 -1.006440 -4.148751
