 17
 0.000000
  C 0.973891 0.131063 0.377809
  C 2.431024 0.084913 0.264865
  H 3.022684 0.421665 1.103164
  C 3.071592 -0.367436 -0.860631
  C 4.463375 -0.406622 -0.959786
  C 5.189664 -0.850430 -2.067768
  C 4.597592 -1.353874 -3.323009
  H 3.518624 -1.354210 -3.323639
  O 6.494380 -0.846191 -2.059630
  H 0.645632 0.516555 1.336638
  H 0.551102 -0.864526 0.224698
  H 0.552220 0.744596 -0.421694
  H 2.467755 -0.700728 -1.689845
  H 5.025789 -0.061565 -0.101261
  H 4.968837 -2.362946 -3.509871
  H 4.968767 -0.753476 -4.155320
  H 6.908056 -0.517848 -1.240355
 17
 9.085616
  C 0.936622 0.141256 0.402934
  C 2.397859 0.100688 0.304597
  H 2.979720 0.440241 1.150219
  C 3.053833 -0.350189 -0.817198
  C 4.435610 -0.382492 -0.899179
  C 5.244885 -0.876742 -2.133491
  C 4.639530 -1.373774 -3.372526
  H 3.557742 -1.368173 -3.358041
  O 6.536963 -0.867218 -2.112750
  H 0.597633 0.525532 1.358784
  H 0.519074 -0.855703 0.245659
  H 0.520534 0.753191 -0.400469
  H 2.459789 -0.686772 -1.654871
  H 4.999658 -0.039514 -0.045773
  H 5.003091 -2.384629 -3.562864
  H 5.002845 -0.774471 -4.208633
  H 6.946391 -0.536858 -1.288736
 17
 27.428816
  C 0.898221 0.137194 0.393288
  C 2.367351 0.112860 0.334145
  H 2.923083 0.460720 1.199162
  C 3.068000 -0.337484 -0.785694
  C 4.449460 -0.353979 -0.828507
  C 5.318774 -0.904076 -2.201774
  C 4.641644 -1.379010 -3.386368
  H 3.561714 -1.345021 -3.302596
  O 6.583772 -0.884808 -2.155434
  H 0.537242 0.519385 1.343317
  H 0.493587 -0.864604 0.235982
  H 0.494452 0.751784 -0.413762
  H 2.496835 -0.681252 -1.639892
  H 5.050023 -0.021730 -0.002295
  H 4.964582 -2.399089 -3.594849
  H 4.965103 -0.785950 -4.241821
  H 6.993628 -0.554182 -1.329563
 17
 47.741700
  C 0.875796 0.128339 0.371697
  C 2.347262 0.123867 0.360393
  H 2.873687 0.481328 1.246545
  C 3.082021 -0.316892 -0.733754
  C 4.440906 -0.319364 -0.741758
  C 5.364069 -0.926448 -2.256889
  C 4.624057 -1.383284 -3.398375
  H 3.548945 -1.325177 -3.256258
  O 6.635779 -0.901482 -2.195042
  H 0.479722 0.506511 1.309797
  H 0.490478 -0.879117 0.201946
  H 0.490475 0.736550 -0.449174
  H 2.533464 -0.666665 -1.601091
  H 5.092318 -0.002217 0.045836
  H 4.913102 -2.407256 -3.624943
  H 4.914822 -0.799902 -4.269082
  H 7.060224 -0.570182 -1.367167
 17
 68.222704
  C 0.840582 0.127392 0.369440
  C 2.319670 0.140027 0.399839
  H 2.811739 0.498288 1.286868
  C 3.086051 -0.292543 -0.673128
  C 4.431418 -0.284867 -0.655356
  C 5.412583 -0.947878 -2.309786
  C 4.633283 -1.395156 -3.428309
  H 3.568115 -1.322304 -3.249570
  O 6.670648 -0.923821 -2.249832
  H 0.417253 0.501041 1.295613
  H 0.469993 -0.884223 0.192575
  H 0.469505 0.732812 -0.459887
  H 2.559952 -0.645935 -1.548881
  H 5.114327 0.020518 0.102895
  H 4.901409 -2.429897 -3.666975
  H 4.903389 -0.811757 -4.315099
  H 7.104315 -0.595967 -1.430586
 17
 86.636779
  C 0.806139 0.134865 0.388113
  C 2.276814 0.157099 0.442187
  H 2.756795 0.520787 1.343050
  C 3.058500 -0.270286 -0.618253
  C 4.404448 -0.256483 -0.584910
  C 5.459238 -0.972210 -2.370501
  C 4.668867 -1.416142 -3.480615
  H 3.601395 -1.338793 -3.290443
  O 6.712345 -0.947873 -2.309707
  H 0.367309 0.506180 1.308928
  H 0.444806 -0.879127 0.206443
  H 0.444246 0.738827 -0.446134
  H 2.543277 -0.626818 -1.502083
  H 5.098126 0.046855 0.168391
  H 4.929787 -2.448942 -3.721276
  H 4.931588 -0.835555 -4.367414
  H 7.147279 -0.620790 -1.492163
 17
 102.609597
  C 0.760938 0.142664 0.407035
  C 2.238434 0.176376 0.490415
  H 2.696469 0.541192 1.394550
  C 3.046882 -0.247800 -0.561829
  C 4.382214 -0.226898 -0.510219
  C 5.505343 -0.995907 -2.429842
  C 4.698072 -1.436150 -3.530230
  H 3.635983 -1.353113 -3.324558
  O 6.759180 -0.972684 -2.372605
  H 0.302972 0.510744 1.319752
  H 0.409201 -0.874456 0.219779
  H 0.408992 0.745250 -0.433416
  H 2.548055 -0.606922 -1.452686
  H 5.086784 0.070865 0.229411
  H 4.950069 -2.473176 -3.775325
  H 4.951158 -0.855226 -4.423266
  H 7.200340 -0.646258 -1.556846
 17
 115.563224
  C 0.726773 0.147161 0.418484
  C 2.196124 0.194036 0.533810
  H 2.634697 0.563512 1.449615
  C 3.026151 -0.223587 -0.502351
  C 4.358591 -0.195331 -0.431835
  C 5.546080 -1.018879 -2.487250
  C 4.725105 -1.454145 -3.575286
  H 3.664813 -1.365038 -3.354337
  O 6.796720 -0.999388 -2.438749
  H 0.248754 0.511389 1.321970
  H 0.387551 -0.872276 0.225423
  H 0.387038 0.747276 -0.427675
  H 2.541950 -0.586269 -1.402014
  H 5.078431 0.097644 0.296072
  H 4.967550 -2.490857 -3.823233
  H 4.968539 -0.875437 -4.470139
  H 7.245344 -0.674123 -1.625127
 17
 125.317969
  C 0.681137 0.158977 0.447773
  C 2.148429 0.215478 0.586842
  H 2.569715 0.586105 1.505726
  C 3.002570 -0.199473 -0.442448
  C 4.327645 -0.165798 -0.357394
  C 5.589453 -1.041520 -2.543752
  C 4.764635 -1.479300 -3.637910
  H 3.705836 -1.389808 -3.415216
  O 6.844020 -1.026507 -2.506741
  H 0.185816 0.520235 1.343930
  H 0.351675 -0.862991 0.249057
  H 0.351146 0.756970 -0.404264
  H 2.533159 -0.564638 -1.348518
  H 5.049201 0.125851 0.367391
  H 5.006292 -2.518463 -3.886582
  H 5.006859 -0.899091 -4.535054
  H 7.293858 -0.702545 -1.696453
 17
 132.015546
  C 0.638438 0.173600 0.485782
  C 2.095209 0.235835 0.635931
  H 2.509786 0.608436 1.559011
  C 2.957991 -0.174810 -0.383405
  C 4.287951 -0.137553 -0.289283
  C 5.630960 -1.065278 -2.602669
  C 4.816652 -1.505952 -3.705404
  H 3.756858 -1.418559 -3.489894
  O 6.887864 -1.057336 -2.580631
  H 0.133026 0.532399 1.376628
  H 0.316739 -0.849312 0.282783
  H 0.314850 0.768546 -0.369973
  H 2.497034 -0.542196 -1.293852
  H 5.004260 0.157022 0.442074
  H 5.061902 -2.543639 -3.951015
  H 5.063602 -0.925140 -4.599271
  H 7.339232 -0.734453 -1.770506
 17
 136.463504
  C 0.586354 0.193150 0.534382
  C 2.042051 0.257954 0.690604
  H 2.452704 0.630948 1.614569
  C 2.914615 -0.151457 -0.325179
  C 4.244469 -0.112105 -0.224743
  C 5.676269 -1.089097 -2.661792
  C 4.875409 -1.537053 -3.782843
  H 3.812897 -1.454954 -3.580099
  O 6.938604 -1.085931 -2.652059
  H 0.072657 0.550688 1.421870
  H 0.269194 -0.831038 0.326856
  H 0.267254 0.785648 -0.325723
  H 2.461880 -0.520175 -1.238979
  H 4.949052 0.187105 0.517633
  H 5.128912 -2.574849 -4.024806
  H 5.130347 -0.953446 -4.674096
  H 7.385515 -0.763097 -1.842550
 17
 139.397795
  C 0.538658 0.214215 0.585317
  C 1.986413 0.278420 0.742093
  H 2.397460 0.651605 1.667185
  C 2.860069 -0.129210 -0.267961
  C 4.195819 -0.089096 -0.163573
  C 5.719454 -1.113664 -2.723069
  C 4.938318 -1.567747 -3.858364
  H 3.873543 -1.492425 -3.670120
  O 6.984758 -1.114092 -2.725178
  H 0.021073 0.570964 1.469998
  H 0.224206 -0.809630 0.373894
  H 0.223285 0.804049 -0.277546
  H 2.412063 -0.498492 -1.184198
  H 4.887130 0.215295 0.591521
  H 5.201608 -2.602852 -4.095317
  H 5.201613 -0.982011 -4.744103
  H 7.428547 -0.789292 -1.913394
 17
 141.213955
  C 0.482872 0.237916 0.644001
  C 1.931423 0.300449 0.796768
  H 2.345703 0.673087 1.721182
  C 2.806442 -0.107111 -0.213051
  C 4.144030 -0.066835 -0.106536
  C 5.767575 -1.138077 -2.783847
  C 5.005520 -1.599785 -3.937947
  H 3.937069 -1.531431 -3.766222
  O 7.037588 -1.141738 -2.795003
  H -0.036332 0.594530 1.528596
  H 0.168764 -0.786189 0.428990
  H 0.167945 0.825635 -0.221518
  H 2.362475 -0.476810 -1.130839
  H 4.817481 0.243861 0.663848
  H 5.279456 -2.633977 -4.169818
  H 5.278979 -1.010891 -4.819361
  H 7.477193 -0.816756 -1.983429
 17
 142.279413
  C 0.432040 0.260500 0.701517
  C 1.874693 0.321796 0.848584
  H 2.292838 0.694213 1.772617
  C 2.746841 -0.084352 -0.158882
  C 4.089811 -0.044046 -0.050928
  C 5.813936 -1.162779 -2.845082
  C 5.071231 -1.629217 -4.012014
  H 4.000801 -1.566310 -3.855262
  O 7.085997 -1.169590 -2.862462
  H -0.086844 0.616426 1.585642
  H 0.118985 -0.763032 0.483552
  H 0.116996 0.845451 -0.165499
  H 2.305339 -0.454668 -1.077807
  H 4.746483 0.272774 0.734004
  H 5.353592 -2.660853 -4.238477
  H 5.353941 -1.038624 -4.887586
  H 7.523048 -0.843947 -2.047616
