11

C -2.655073 0.176918 -0.361676
C -1.249256 -0.362374 -0.58599
C -0.311735 0.020968 0.555779
H 0.7010418907051591 -0.34628079343174567 0.3334924880913426
H -2.651095 1.264134 -0.357251
H -3.048716 -0.168232 0.591743
H -3.323823 -0.162053 -1.151058
H -1.288623 -1.448954 -0.665062
H -0.860574 0.031326 -1.524838
H -0.319984 1.105005 0.673623
H -0.690173 -0.407814 1.488151
