 13
 0.000000
  C -1.522026 -0.832001 0.888994
  C -0.879178 0.267439 0.043953
  H -1.205414 0.153287 -0.998152
  C -1.176380 1.622263 0.542328
  H -2.126222 1.894032 0.962168
  H -0.563813 2.440160 0.207416
  H -1.154635 -1.806159 0.574615
  H -2.604777 -0.823725 0.781244
  H -1.276042 -0.693851 1.938469
  H 0.206821 0.129637 0.051271
  O 2.402627 -0.308917 -0.337815
  H 2.829626 0.263881 0.302523
  H 3.035770 -0.487947 -1.035113
 13
 353.718638
  C -2.183569 -0.957404 1.041836
  C -1.478405 0.288686 -0.069710
  H -1.706499 0.121034 -1.163528
  C -1.368147 1.682467 0.443709
  H -1.507171 1.902201 1.575874
  H -1.025998 2.574691 -0.233623
  H -1.939452 -2.055144 0.637052
  H -3.496596 -0.800469 1.046046
  H -1.745137 -0.819075 2.231059
  H 0.345376 -0.364654 -0.204464
  O 3.112869 -0.324821 -0.829196
  H 3.930330 1.381650 1.188772
  H 4.974261 -0.730484 -1.829727
 13
 687.104537
  C -2.789448 -1.280079 1.320582
  C -1.950505 0.467532 -0.215518
  H -2.290940 0.323028 -1.487617
  C -1.781728 1.945177 0.428910
  H -1.896430 2.124095 1.755635
  H -1.357334 2.984439 -0.341550
  H -2.529173 -2.514767 0.806128
  H -4.533377 -1.144880 1.467682
  H -2.135056 -1.092488 2.707633
  H 0.423474 -0.360587 -0.532026
  O 4.085358 -0.498748 -1.149823
  H 5.635419 2.200439 1.994508
  H 7.081957 -1.336280 -2.832885
 13
 776.099141
  C -2.964195 -1.421416 1.407120
  C -2.044053 0.452416 -0.289413
  H -2.436494 0.310648 -1.694712
  C -1.869105 2.081513 0.429603
  H -1.986518 2.308225 1.908249
  H -1.428607 3.219700 -0.410414
  H -2.712804 -2.723793 0.846930
  H -4.881567 -1.258029 1.548137
  H -2.221870 -1.209932 2.918905
  H 0.499790 -0.406851 -0.634665
  O 4.388658 -0.552107 -1.213285
  H 6.026900 2.449307 2.172552
  H 7.603414 -1.438355 -3.070724
 13
 858.909870
  C -3.263616 -1.618883 1.491051
  C -2.142317 0.508213 -0.412973
  H -2.538764 0.405516 -1.898698
  C -1.929501 2.261073 0.416352
  H -2.052886 2.415846 2.011600
  H -1.363127 3.377546 -0.380271
  H -3.059820 -2.947379 0.998492
  H -5.390699 -1.410884 1.678554
  H -2.522453 -1.482228 3.046871
  H 0.565329 -0.457615 -0.764552
  O 4.755208 -0.543288 -1.324153
  H 6.616185 2.867685 2.418699
  H 8.325524 -1.572287 -3.367253
 13
 996.317605
  C -3.515834 -1.765117 1.557319
  C -2.393211 0.543746 -0.491529
  H -2.821476 0.355462 -2.162803
  C -2.158795 2.557557 0.366537
  H -2.307349 2.846742 2.180045
  H -1.613551 3.915570 -0.626001
  H -3.188286 -3.246486 0.959989
  H -5.847310 -1.741045 1.773407
  H -2.603646 -1.467040 3.371864
  H 0.595865 -0.443710 -0.803384
  O 5.205030 -0.744531 -1.308615
  H 7.310945 3.025321 2.765687
  H 9.116524 -1.988136 -3.571726
 13
 769.473532
  C -4.338817 -2.210027 1.529142
  C -2.763308 0.728042 -0.770732
  H -3.287334 0.642895 -2.928126
  C -2.342045 3.196293 0.641041
  H -2.631961 3.314071 2.976942
  H -1.536686 5.044354 -0.318114
  H -4.156844 -4.020258 0.614002
  H -7.309956 -1.941584 1.758367
  H -3.201722 -2.100117 3.810779
  H 0.824544 -0.679870 -1.191884
  O 6.390834 -1.042275 -1.686965
  H 9.080351 3.298013 3.962509
  H 11.310635 -2.442903 -4.486287
 13
 52.447366
  C -8.783332 -4.453685 2.869338
  C -5.248190 0.745086 -1.885012
  H -6.791992 0.413574 -5.653147
  C -3.719320 4.981493 1.075635
  H -4.097619 5.071621 5.539991
  H -1.771498 8.361972 -0.360809
  H -9.297083 -7.663272 1.238707
  H -14.538293 -3.188883 3.701238
  H -6.014306 -4.449246 6.914356
  H 1.630107 -3.317019 -2.239682
  O 13.426132 -1.690957 -3.879308
  H 17.389050 11.148735 6.925430
  H 23.908318 -4.192774 -10.336414
