 17
 0.000000
  C 1.008231 -0.070885 0.048901
  C 2.504233 -0.082439 0.026221
  C 3.219382 -0.594965 -0.979956
  C 4.656316 -0.606722 -1.003034
  C 5.376429 -1.122231 -2.015063
  C 6.814495 -1.132442 -2.035106
  C 7.532488 -1.642367 -3.036183
  H 8.604598 -1.654268 -3.059541
  H 0.645742 0.395049 0.963602
  H 0.612776 -1.085345 0.009079
  H 0.612777 0.493366 -0.795100
  H 3.005501 0.352598 0.880275
  H 2.708012 -1.028175 -1.830411
  H 5.161610 -0.172139 -0.149877
  H 4.871262 -1.556803 -2.868204
  H 7.320053 -0.697763 -1.181759
  H 7.037817 -2.078719 -3.892798
 17
 1.966102
  C 1.007074 -0.091324 0.008776
  C 2.501006 -0.085783 0.019660
  C 3.253891 -0.586099 -0.962539
  C 4.681700 -0.581915 -0.954322
  C 5.430273 -1.079536 -1.931237
  C 6.879349 -1.104383 -1.980020
  C 7.448961 -1.652973 -3.057005
  H 8.507361 -1.737693 -3.223338
  H 0.606470 0.367031 0.908583
  H 0.628104 -1.111078 -0.056206
  H 0.628104 0.455688 -0.854309
  H 2.980804 0.354252 0.883519
  H 2.778335 -1.027316 -1.828726
  H 5.159698 -0.142111 -0.090911
  H 4.990734 -1.535186 -2.825751
  H 7.448827 -0.686049 -1.158771
  H 6.761358 -2.039674 -3.816156
 17
 7.133721
  C 1.000954 -0.109069 -0.026067
  C 2.495130 -0.087494 0.016298
  C 3.275025 -0.581070 -0.952679
  C 4.707273 -0.561269 -0.913809
  C 5.488000 -1.055959 -1.884970
  C 6.922118 -1.092222 -1.956147
  C 7.382388 -1.659544 -3.069893
  H 8.405515 -1.802554 -3.350641
  H 0.576753 0.344792 0.864925
  H 0.633745 -1.135358 -0.101057
  H 0.633764 0.433680 -0.900280
  H 2.953386 0.358833 0.892519
  H 2.823945 -1.027745 -1.829591
  H 5.165399 -0.115326 -0.038351
  H 5.117465 -1.524905 -2.805574
  H 7.533555 -0.693225 -1.172861
  H 6.565092 -1.985554 -3.709901
 17
 15.654424
  C 1.005769 -0.125006 -0.057355
  C 2.492554 -0.091338 0.008746
  C 3.291554 -0.578577 -0.947783
  C 4.723202 -0.547323 -0.886426
  C 5.519318 -1.035672 -1.845135
  C 6.953423 -1.082486 -1.937038
  C 7.328112 -1.662571 -3.075834
  H 8.320074 -1.851668 -3.447058
  H 0.565666 0.323827 0.823756
  H 0.649030 -1.152503 -0.137889
  H 0.649052 0.413959 -0.935803
  H 2.932362 0.358712 0.892270
  H 2.858445 -1.029173 -1.832375
  H 5.165459 -0.097143 -0.002653
  H 5.202228 -1.519452 -2.794887
  H 7.599687 -0.696857 -1.179977
  H 6.399755 -1.936586 -3.613783
 17
 27.221741
  C 1.000177 -0.138064 -0.082998
  C 2.494596 -0.095369 0.000826
  C 3.305798 -0.576301 -0.943306
  C 4.739488 -0.536429 -0.865010
  C 5.546861 -1.020382 -1.815092
  C 6.980038 -1.079239 -1.930670
  C 7.284425 -1.667936 -3.086391
  H 8.236816 -1.892225 -3.526715
  H 0.544109 0.310895 0.798346
  H 0.647950 -1.173329 -0.167863
  H 0.647976 0.401959 -0.970273
  H 2.922359 0.357372 0.889622
  H 2.885085 -1.030119 -1.834234
  H 5.168364 -0.082495 0.026135
  H 5.276209 -1.517410 -2.790849
  H 7.663778 -0.700120 -1.186392
  H 6.279093 -1.891528 -3.525317
 17
 40.255493
  C 1.002715 -0.145994 -0.098534
  C 2.487314 -0.097756 -0.003870
  C 3.309595 -0.575896 -0.942528
  C 4.745056 -0.530748 -0.853849
  C 5.558357 -1.011469 -1.797588
  C 6.993061 -1.078643 -1.929497
  C 7.264405 -1.671104 -3.092600
  H 8.190593 -1.911679 -3.564887
  H 0.540379 0.298248 0.773561
  H 0.659921 -1.168581 -0.185080
  H 0.659895 0.385243 -0.976608
  H 2.900938 0.352097 0.879251
  H 2.900072 -1.028639 -1.831345
  H 5.158697 -0.080039 0.030982
  H 5.330432 -1.523900 -2.803607
  H 7.686268 -0.707481 -1.200842
  H 6.193667 -1.858465 -3.460427
 17
 53.596149
  C 0.987213 -0.149739 -0.105871
  C 2.488808 -0.098784 -0.005972
  C 3.312121 -0.574739 -0.940322
  C 4.751981 -0.527375 -0.847158
  C 5.565823 -1.006945 -1.788661
  C 6.999667 -1.082277 -1.936628
  C 7.261074 -1.675009 -3.100201
  H 8.196626 -1.925828 -3.592585
  H 0.517316 0.298288 0.773651
  H 0.641279 -1.184976 -0.194498
  H 0.641213 0.387175 -0.995380
  H 2.904210 0.355359 0.885523
  H 2.904492 -1.028521 -1.831215
  H 5.162237 -0.074785 0.041392
  H 5.369460 -1.538451 -2.832267
  H 7.696802 -0.714901 -1.215422
  H 6.134059 -1.839775 -3.423840
 17
 65.771594
  C 0.999808 -0.151552 -0.109422
  C 2.481833 -0.099376 -0.007376
  C 3.307730 -0.575751 -0.942470
  C 4.743326 -0.527568 -0.847140
  C 5.557874 -1.006890 -1.788295
  C 6.988900 -1.085272 -1.942654
  C 7.266071 -1.676430 -3.102798
  H 8.194045 -1.916027 -3.573078
  H 0.533257 0.292486 0.762221
  H 0.655848 -1.189157 -0.198199
  H 0.655706 0.386432 -1.000846
  H 2.894160 0.356127 0.886681
  H 2.902204 -1.029861 -1.834186
  H 5.151354 -0.072335 0.046634
  H 5.378747 -1.563672 -2.881985
  H 7.688187 -0.711696 -1.209445
  H 6.082713 -1.838903 -3.422408
 17
 75.809568
  C 0.987529 -0.151376 -0.109019
  C 2.482070 -0.099477 -0.007624
  C 3.307896 -0.575673 -0.942365
  C 4.741766 -0.527419 -0.846578
  C 5.555968 -1.006066 -1.786498
  C 6.985821 -1.088853 -1.949896
  C 7.285977 -1.677672 -3.105070
  H 8.229730 -1.909772 -3.560609
  H 0.518696 0.294277 0.765848
  H 0.644728 -1.180540 -0.197124
  H 0.644418 0.382266 -0.993411
  H 2.892690 0.352687 0.879880
  H 2.900643 -1.031747 -1.838059
  H 5.149967 -0.069169 0.053120
  H 5.380597 -1.588915 -2.931628
  H 7.673737 -0.714860 -1.216015
  H 6.046782 -1.846200 -3.436869
 17
 86.496696
  C 0.986990 -0.151789 -0.109922
  C 2.476380 -0.099085 -0.006838
  C 3.302243 -0.574932 -0.940894
  C 4.738304 -0.526311 -0.844411
  C 5.553117 -1.003858 -1.782135
  C 6.975600 -1.093938 -1.959936
  C 7.310690 -1.676994 -3.103778
  H 8.264883 -1.897515 -3.536692
  H 0.518390 0.292620 0.762514
  H 0.644366 -1.183774 -0.198707
  H 0.644136 0.382958 -0.996899
  H 2.888914 0.357077 0.888587
  H 2.896755 -1.029667 -1.833916
  H 5.142341 -0.068430 0.054506
  H 5.367935 -1.620293 -2.993124
  H 7.656052 -0.714382 -1.215113
  H 6.002590 -1.861605 -3.467039
 17
 96.732639
  C 0.984501 -0.150393 -0.107233
  C 2.473385 -0.097035 -0.002634
  C 3.302049 -0.572919 -0.936759
  C 4.735245 -0.522933 -0.838174
  C 5.551547 -0.998829 -1.772491
  C 6.961922 -1.100485 -1.972507
  C 7.350008 -1.673537 -3.097338
  H 8.321308 -1.878460 -3.499801
  H 0.513479 0.295282 0.767622
  H 0.641872 -1.185001 -0.196383
  H 0.641761 0.385686 -0.996609
  H 2.878302 0.352948 0.880670
  H 2.897931 -1.029020 -1.832243
  H 5.134236 -0.062152 0.066375
  H 5.338349 -1.662274 -3.075332
  H 7.624533 -0.715899 -1.217499
  H 5.953059 -1.890467 -3.523487
 17
 106.166436
  C 0.978415 -0.150948 -0.108334
  C 2.468503 -0.095868 -0.000380
  C 3.297042 -0.570633 -0.932321
  C 4.732490 -0.519320 -0.831192
  C 5.550093 -0.993437 -1.761980
  C 6.951613 -1.106071 -1.983399
  C 7.394536 -1.669403 -3.089255
  H 8.382864 -1.856732 -3.457150
  H 0.506107 0.293203 0.763514
  H 0.637800 -1.182406 -0.197944
  H 0.637762 0.382845 -0.995307
  H 2.876753 0.360390 0.895237
  H 2.893004 -1.028937 -1.832088
  H 5.123709 -0.058927 0.072594
  H 5.295000 -1.711509 -3.172018
  H 7.597608 -0.713935 -1.213482
  H 5.897074 -1.929471 -3.600056
 17
 113.643726
  C 0.972983 -0.152660 -0.111728
  C 2.463962 -0.095113 0.001188
  C 3.294511 -0.568526 -0.928101
  C 4.731569 -0.514945 -0.822689
  C 5.550915 -0.986792 -1.748983
  C 6.935588 -1.113761 -1.998504
  C 7.439326 -1.662702 -3.076055
  H 8.444936 -1.829059 -3.402754
  H 0.498379 0.289574 0.756342
  H 0.634707 -1.182613 -0.202322
  H 0.634715 0.379466 -0.998027
  H 2.871859 0.365157 0.904704
  H 2.893470 -1.027785 -1.829710
  H 5.113846 -0.053044 0.084068
  H 5.237117 -1.767300 -3.281593
  H 7.561318 -0.713316 -1.212314
  H 5.834085 -1.977942 -3.695243
 17
 119.140457
  C 0.965411 -0.156169 -0.118532
  C 2.456414 -0.095156 0.001112
  C 3.293559 -0.566947 -0.924994
  C 4.730370 -0.509726 -0.812463
  C 5.551824 -0.979177 -1.734043
  C 6.921624 -1.121562 -2.013774
  C 7.481968 -1.657114 -3.065085
  H 8.502608 -1.802468 -3.350526
  H 0.486103 0.284774 0.747015
  H 0.629434 -1.188856 -0.210753
  H 0.629340 0.376318 -1.008196
  H 2.854770 0.361419 0.897333
  H 2.901638 -1.023451 -1.821175
  H 5.104541 -0.042797 0.104151
  H 5.167025 -1.827048 -3.398944
  H 7.525792 -0.714255 -1.214086
  H 5.763877 -2.033164 -3.803701
