 32
 0.000000
  C 0.986964 0.138002 0.377890
  C 2.464716 0.142258 0.392920
  C 3.239071 0.610428 1.569499
  C 2.450119 1.095982 2.782766
  C 3.388304 1.540417 3.900261
  C 3.089247 -0.318443 -0.757540
  C 4.468218 -0.406418 -0.972231
  C 5.129709 -0.861254 -2.101753
  C 4.615906 -1.384960 -3.400148
  C 3.123001 -1.502306 -3.685582
  C 2.890082 -2.066402 -5.084408
  O 6.455025 -0.860968 -2.112743
  H 0.538984 0.502146 1.295722
  H 0.620825 -0.874858 0.203927
  H 0.621458 0.757173 -0.442975
  H 3.896692 1.424302 1.243233
  H 3.893971 -0.206319 1.893973
  H 1.810094 0.296847 3.162115
  H 1.812829 1.938549 2.506884
  H 4.022891 0.719297 4.227669
  H 2.814041 1.883637 4.757853
  H 4.025608 2.359520 3.573033
  H 2.434029 -0.635199 -1.550905
  H 5.091005 -0.076457 -0.148876
  H 5.067793 -2.375303 -3.528580
  H 5.065248 -0.759014 -4.179744
  H 2.648348 -0.521538 -3.631928
  H 2.650833 -2.172941 -2.966233
  H 3.324370 -1.420512 -5.844486
  H 1.823431 -2.147048 -5.280593
  H 3.326820 -3.057716 -5.184680
  H 6.841092 -0.527652 -1.281220
 32
 0.020356
  C 0.993469 0.536212 0.255523
  C 2.446662 0.296401 0.332006
  C 3.213447 0.497766 1.583297
  C 2.458541 1.041620 2.793078
  C 3.401538 1.201793 3.982090
  C 3.062750 -0.137958 -0.838180
  C 4.435931 -0.263666 -1.031469
  C 5.101180 -0.629162 -2.197578
  C 4.581868 -1.220511 -3.461304
  C 3.129920 -1.665455 -3.592904
  C 2.946141 -2.450282 -4.889847
  O 6.410082 -0.477338 -2.265515
  H 0.581470 0.974966 1.155316
  H 0.474344 -0.402432 0.053466
  H 0.782899 1.183477 -0.597566
  H 4.057336 1.165606 1.378522
  H 3.661565 -0.464030 1.862104
  H 1.653438 0.360936 3.075241
  H 2.022553 2.014813 2.558455
  H 3.839633 0.246775 4.262848
  H 2.862896 1.589446 4.843014
  H 4.206613 1.895375 3.750657
  H 2.409057 -0.335445 -1.670513
  H 5.076855 0.031918 -0.209808
  H 5.229203 -2.083589 -3.659585
  H 4.816886 -0.511938 -4.264351
  H 2.465845 -0.802270 -3.627319
  H 2.853497 -2.305148 -2.754213
  H 3.210033 -1.842736 -5.752242
  H 1.910416 -2.760928 -5.000193
  H 3.567876 -3.342583 -4.897876
  H 6.823418 -0.117773 -1.459895
 32
 1.722889
  C 1.039040 0.682016 0.208867
  C 2.441062 0.241108 0.356212
  C 3.159708 0.321420 1.646791
  C 2.501156 1.118280 2.771396
  C 3.407562 1.155775 4.001172
  C 3.056427 -0.217911 -0.806635
  C 4.427819 -0.299499 -1.030570
  C 5.056213 -0.515357 -2.255787
  C 4.519351 -1.102443 -3.514115
  C 3.157535 -1.794461 -3.537057
  C 3.000307 -2.584236 -4.835078
  O 6.328207 -0.199350 -2.395423
  H 0.595166 1.026820 1.129584
  H 0.428190 -0.118354 -0.213278
  H 1.022263 1.491437 -0.524384
  H 4.165001 0.718382 1.486237
  H 3.311334 -0.708363 1.998208
  H 1.551397 0.665981 3.056158
  H 2.310141 2.141899 2.439403
  H 3.597462 0.153350 4.374425
  H 2.940180 1.727199 4.798102
  H 4.363555 1.623655 3.769220
  H 2.399215 -0.406818 -1.641938
  H 5.081323 -0.005368 -0.217767
  H 5.279275 -1.824853 -3.831983
  H 4.546269 -0.321201 -4.281756
  H 2.351828 -1.065836 -3.494165
  H 3.068781 -2.479513 -2.693095
  H 3.075064 -1.929142 -5.698832
  H 2.031321 -3.072726 -4.864947
  H 3.765224 -3.350353 -4.921213
  H 6.754961 0.153925 -1.592568
 32
 5.820282
  C 1.128631 0.700447 0.151625
  C 2.456288 0.113772 0.412605
  C 3.130426 0.224221 1.722349
  C 2.571509 1.236784 2.720332
  C 3.402979 1.240724 3.999317
  C 3.066121 -0.462702 -0.697902
  C 4.427557 -0.430858 -0.976175
  C 4.985533 -0.487820 -2.245701
  C 4.451799 -1.067660 -3.510784
  C 3.164687 -1.881571 -3.522963
  C 2.998813 -2.563080 -4.879073
  O 6.192028 0.010227 -2.440785
  H 0.661126 1.123712 1.030149
  H 0.458884 -0.026838 -0.309624
  H 1.283330 1.485541 -0.594931
  H 4.196647 0.419565 1.582037
  H 3.086375 -0.770828 2.182362
  H 1.541842 0.992706 2.980362
  H 2.587427 2.234226 2.281785
  H 3.379325 0.265258 4.481182
  H 3.011982 1.972495 4.702464
  H 4.441924 1.496471 3.791127
  H 2.404020 -0.766243 -1.490482
  H 5.083734 -0.075172 -0.192226
  H 5.262427 -1.703704 -3.883189
  H 4.378749 -0.258127 -4.243223
  H 2.298427 -1.239625 -3.368233
  H 3.192997 -2.644748 -2.745037
  H 2.945803 -1.827228 -5.678988
  H 2.083865 -3.149957 -4.897822
  H 3.831763 -3.232051 -5.085379
  H 6.642289 0.320043 -1.633549
 32
 11.510120
  C 1.229708 0.686439 0.078180
  C 2.480239 0.000480 0.462202
  C 3.120008 0.176432 1.782837
  C 2.616114 1.318916 2.662656
  C 3.396506 1.367971 3.971257
  C 3.094130 -0.688941 -0.584904
  C 4.449559 -0.596860 -0.908952
  C 4.925430 -0.499910 -2.203992
  C 4.380949 -1.035418 -3.487303
  C 3.155399 -1.941131 -3.514436
  C 2.959516 -2.498239 -4.921703
  O 6.072544 0.118332 -2.427050
  H 0.762684 1.224487 0.891657
  H 0.517623 -0.007280 -0.369162
  H 1.518983 1.380248 -0.715035
  H 4.202841 0.259870 1.671409
  H 2.971108 -0.766631 2.325459
  H 1.558519 1.187068 2.896363
  H 2.736448 2.268304 2.138782
  H 3.258998 0.450798 4.539934
  H 3.055467 2.197663 4.584226
  H 4.459580 1.501342 3.788303
  H 2.428501 -1.073203 -1.342870
  H 5.111191 -0.239479 -0.126858
  H 5.221337 -1.590492 -3.921512
  H 4.224940 -0.191443 -4.165970
  H 2.259434 -1.382863 -3.245361
  H 3.282453 -2.778402 -2.824961
  H 2.837972 -1.692819 -5.641659
  H 2.073638 -3.126054 -4.959828
  H 3.810773 -3.103268 -5.226947
  H 6.553889 0.382764 -1.618559
 32
 17.154438
  C 1.350508 0.684409 -0.015122
  C 2.532304 -0.055780 0.472476
  C 3.146218 0.178941 1.794882
  C 2.590726 1.325788 2.633932
  C 3.379640 1.467729 3.931165
  C 3.123433 -0.848554 -0.510970
  C 4.475803 -0.745758 -0.855129
  C 4.898144 -0.535707 -2.158326
  C 4.350778 -1.046044 -3.452762
  C 3.127475 -1.956913 -3.492300
  C 2.874875 -2.413144 -4.928310
  O 6.016045 0.139747 -2.370479
  H 0.901822 1.321507 0.730434
  H 0.601042 0.018924 -0.443683
  H 1.725705 1.284826 -0.846786
  H 4.229722 0.299712 1.696357
  H 3.021888 -0.756446 2.356736
  H 1.546581 1.146320 2.884083
  H 2.653983 2.257715 2.073059
  H 3.262980 0.584110 4.553265
  H 3.026536 2.325557 4.496689
  H 4.440478 1.609831 3.733196
  H 2.453892 -1.288412 -1.233835
  H 5.154439 -0.418238 -0.073228
  H 5.192301 -1.590481 -3.902398
  H 4.188037 -0.185538 -4.113240
  H 2.236796 -1.430114 -3.151493
  H 3.291615 -2.837892 -2.862919
  H 2.714856 -1.558876 -5.581862
  H 1.992727 -3.045535 -4.975494
  H 3.719469 -2.984377 -5.313265
  H 6.463990 0.451412 -1.563000
 32
 25.999603
  C 1.545779 0.612954 -0.161904
  C 2.597994 -0.191049 0.496190
  C 3.122719 0.083349 1.842080
  C 2.688252 1.382662 2.513104
  C 3.322378 1.507904 3.892990
  C 3.220734 -1.059137 -0.412217
  C 4.550497 -0.815478 -0.815849
  C 4.827701 -0.471155 -2.123860
  C 4.257005 -0.969922 -3.409461
  C 3.038965 -1.883633 -3.431898
  C 2.787105 -2.372372 -4.854753
  O 5.880108 0.300676 -2.377727
  H 1.064797 1.326495 0.491703
  H 0.801757 -0.007676 -0.663577
  H 2.091792 1.128139 -0.964463
  H 4.214808 0.015465 1.842724
  H 2.796765 -0.759772 2.470386
  H 1.604635 1.406990 2.624963
  H 2.989763 2.233600 1.904944
  H 3.022188 0.683286 4.534583
  H 3.010984 2.436163 4.370340
  H 4.410097 1.512280 3.826198
  H 2.572653 -1.575764 -1.102034
  H 5.220991 -0.423128 -0.058775
  H 5.088239 -1.501443 -3.877858
  H 4.071903 -0.100885 -4.051845
  H 2.149234 -1.348250 -3.099812
  H 3.205698 -2.751587 -2.790195
  H 2.590626 -1.536623 -5.522161
  H 1.926589 -3.037185 -4.880129
  H 3.647890 -2.920694 -5.238185
  H 6.356960 0.607880 -1.586618
 32
 34.654296
  C 1.709515 0.572678 -0.269754
  C 2.667977 -0.247799 0.495374
  C 3.121085 0.052908 1.859243
  C 2.726242 1.407837 2.444696
  C 3.252037 1.549637 3.868294
  C 3.297493 -1.191049 -0.343991
  C 4.606695 -0.887283 -0.793851
  C 4.783809 -0.449987 -2.085738
  C 4.185287 -0.921970 -3.372660
  C 3.035523 -1.920472 -3.381601
  C 2.692388 -2.299972 -4.820114
  O 5.798472 0.373404 -2.351833
  H 1.204277 1.333421 0.306907
  H 1.002566 -0.022861 -0.846969
  H 2.371103 1.019125 -1.037860
  H 4.203213 -0.086744 1.934665
  H 2.701555 -0.739779 2.494384
  H 1.641783 1.511629 2.460022
  H 3.139458 2.209670 1.832747
  H 2.828346 0.784212 4.517775
  H 2.985293 2.520265 4.274440
  H 4.335271 1.460809 3.896823
  H 2.658214 -1.770085 -0.993049
  H 5.291522 -0.494322 -0.046586
  H 5.030972 -1.361402 -3.918397
  H 3.895020 -0.034863 -3.949316
  H 2.143080 -1.488946 -2.929745
  H 3.319866 -2.823726 -2.840930
  H 2.368173 -1.427670 -5.385289
  H 1.888983 -3.031740 -4.837123
  H 3.552898 -2.731972 -5.324614
  H 6.300575 0.659735 -1.568839
 32
 43.185893
  C 1.880566 0.615365 -0.356806
  C 2.713208 -0.259486 0.488880
  C 3.162219 0.074624 1.845706
  C 2.637979 1.371221 2.457522
  C 3.204088 1.563763 3.857154
  C 3.315787 -1.260363 -0.306078
  C 4.623124 -0.960217 -0.789043
  C 4.747193 -0.447875 -2.057682
  C 4.125183 -0.890088 -3.350774
  C 3.025817 -1.944067 -3.365898
  C 2.629100 -2.259007 -4.809237
  O 5.760164 0.382585 -2.325311
  H 1.407838 1.439595 0.156400
  H 1.181194 0.074976 -0.992711
  H 2.634359 0.966734 -1.091148
  H 4.253540 0.065493 1.887743
  H 2.852578 -0.768514 2.483235
  H 1.546681 1.349197 2.524577
  H 2.927810 2.216144 1.833488
  H 2.853715 0.781464 4.529211
  H 2.889436 2.520323 4.265216
  H 4.293489 1.543806 3.845368
  H 2.669999 -1.899010 -0.893774
  H 5.299613 -0.547136 -0.043519
  H 4.974068 -1.298242 -3.911460
  H 3.809116 -0.000739 -3.907782
  H 2.142562 -1.590331 -2.846236
  H 3.383289 -2.868099 -2.891763
  H 2.265127 -1.366016 -5.312862
  H 1.839362 -3.006831 -4.831505
  H 3.472743 -2.644394 -5.369977
  H 6.340528 0.555662 -1.565962
 32
 55.161184
  C 2.021772 0.617590 -0.430045
  C 2.732074 -0.290763 0.474267
  C 3.123257 0.015138 1.853238
  C 2.683735 1.364722 2.430717
  C 3.213500 1.531508 3.850599
  C 3.335340 -1.322691 -0.299137
  C 4.625878 -0.967277 -0.799745
  C 4.633027 -0.344291 -2.029989
  C 4.054973 -0.809832 -3.340905
  C 2.989931 -1.907855 -3.343842
  C 2.649455 -2.302290 -4.780878
  O 5.620487 0.533700 -2.287903
  H 1.671062 1.536057 0.016944
  H 1.283026 0.153590 -1.082852
  H 2.818408 0.806879 -1.201857
  H 4.204650 -0.092170 1.954517
  H 2.706002 -0.790285 2.476100
  H 1.595540 1.437933 2.449720
  H 3.073419 2.174473 1.808712
  H 2.863104 0.728287 4.495095
  H 2.875093 2.471646 4.274803
  H 4.301939 1.529252 3.861981
  H 2.687958 -1.971339 -0.873215
  H 5.332984 -0.602115 -0.058122
  H 4.925068 -1.195247 -3.880652
  H 3.709647 0.063674 -3.906210
  H 2.075627 -1.559531 -2.875820
  H 3.361359 -2.786053 -2.809245
  H 2.245654 -1.453979 -5.331188
  H 1.904003 -3.098512 -4.787949
  H 3.527331 -2.662560 -5.304633
  H 6.250559 0.649820 -1.553462
 32
 72.141046
  C 2.203289 0.510961 -0.473527
  C 2.850759 -0.349440 0.477573
  C 3.150560 -0.028522 1.878154
  C 2.727699 1.361517 2.360914
  C 3.076321 1.548231 3.828197
  C 3.502636 -1.442257 -0.222399
  C 4.728434 -0.980955 -0.800387
  C 4.639019 -0.338152 -2.007075
  C 4.004424 -0.798570 -3.295234
  C 2.945360 -1.883248 -3.297350
  C 2.541576 -2.209161 -4.738368
  O 5.610266 0.556214 -2.340736
  H 1.792475 1.443017 -0.124670
  H 1.653492 0.075715 -1.296280
  H 3.147839 0.608791 -1.261295
  H 4.209360 -0.185573 2.057088
  H 2.642494 -0.789153 2.494148
  H 1.654994 1.481902 2.240107
  H 3.227612 2.127162 1.780024
  H 2.588579 0.797977 4.446630
  H 2.751064 2.542167 4.178444
  H 4.140059 1.476585 3.978784
  H 2.860685 -2.084052 -0.812650
  H 5.466838 -0.601968 -0.101237
  H 4.832386 -1.107816 -3.928180
  H 3.577630 0.102224 -3.768612
  H 2.042046 -1.568068 -2.764127
  H 3.345596 -2.784113 -2.846901
  H 2.154166 -1.335979 -5.232293
  H 1.772253 -2.973566 -4.761045
  H 3.398011 -2.569413 -5.303357
  H 6.214269 0.758808 -1.615132
 32
 85.830059
  C 2.194149 0.507055 -0.426671
  C 2.786821 -0.318939 0.474896
  C 3.121620 -0.035776 1.887981
  C 2.692606 1.335648 2.400959
  C 3.104644 1.513845 3.858352
  C 3.452861 -1.395507 -0.263101
  C 4.676384 -0.971843 -0.818616
  C 4.607603 -0.247570 -2.044950
  C 4.013452 -0.754862 -3.362413
  C 2.964312 -1.854760 -3.316612
  C 2.564834 -2.252005 -4.737056
  O 5.631981 0.599956 -2.345948
  H 1.831887 1.464610 -0.096699
  H 1.712483 0.135148 -1.318900
  H 3.544062 0.502892 -1.510794
  H 4.197733 -0.176313 2.036986
  H 2.636611 -0.806611 2.497583
  H 1.610361 1.442024 2.322816
  H 3.160102 2.117521 1.801229
  H 2.629164 0.768426 4.491374
  H 2.809808 2.496866 4.216801
  H 4.181926 1.422753 3.972569
  H 2.810963 -2.077981 -0.805399
  H 5.422819 -0.617870 -0.111558
  H 4.874549 -1.125025 -3.926901
  H 3.632974 0.105973 -3.914851
  H 2.064586 -1.516481 -2.801065
  H 3.365151 -2.734402 -2.813203
  H 2.157763 -1.400851 -5.277094
  H 1.808920 -3.032902 -4.713430
  H 3.422420 -2.627742 -5.289305
  H 6.247284 0.748046 -1.611755
 32
 74.215912
  C 1.949733 0.492275 -0.275000
  C 2.646518 -0.312809 0.529600
  C 3.102852 -0.048545 1.924403
  C 2.689841 1.310081 2.486650
  C 3.257395 1.502527 3.887031
  C 3.322829 -1.305160 -0.308960
  C 4.549787 -0.905278 -0.830036
  C 4.609815 -0.189744 -2.116392
  C 4.118330 -0.794372 -3.448580
  C 2.999719 -1.819998 -3.403487
  C 2.687610 -2.311157 -4.818772
  O 5.736923 0.547731 -2.384844
  H 1.541886 1.413154 0.101680
  H 1.561003 0.175592 -1.225641
  H 3.764199 0.529804 -1.768230
  H 4.186029 -0.159012 1.989451
  H 2.677841 -0.839103 2.552659
  H 1.597817 1.378845 2.531690
  H 3.056851 2.102756 1.844269
  H 2.856053 0.758802 4.574457
  H 2.998251 2.485869 4.266639
  H 4.342159 1.416164 3.883444
  H 2.692460 -2.010766 -0.835749
  H 5.286820 -0.567353 -0.103152
  H 5.002456 -1.261506 -3.893379
  H 3.844956 0.035620 -4.098854
  H 2.090102 -1.383640 -2.992986
  H 3.299520 -2.679550 -2.800580
  H 2.407285 -1.483672 -5.462123
  H 1.863663 -3.021688 -4.798861
  H 3.549822 -2.803953 -5.255484
  H 6.261719 0.760318 -1.598673
 32
 63.517715
  C 1.774399 0.640429 -0.122489
  C 2.638869 -0.148498 0.539782
  C 3.159237 0.022230 1.928010
  C 2.721364 1.309812 2.623479
  C 3.231382 1.344916 4.055890
  C 3.256470 -1.068234 -0.410782
  C 4.493541 -0.724056 -0.941430
  C 4.661276 -0.150025 -2.283119
  C 4.190400 -0.865716 -3.568556
  C 3.035290 -1.849991 -3.465346
  C 2.787235 -2.495066 -4.827036
  O 5.881010 0.413633 -2.562141
  H 1.351135 1.518837 0.329771
  H 1.394373 0.386184 -1.095184
  H 3.919217 0.697382 -2.074069
  H 4.247894 -0.039576 1.932815
  H 2.801471 -0.836120 2.503926
  H 1.633650 1.374325 2.633789
  H 3.113448 2.175275 2.084436
  H 2.841322 0.505120 4.626869
  H 2.917112 2.259605 4.545970
  H 4.318629 1.303025 4.083040
  H 2.568106 -1.648396 -1.007176
  H 5.288877 -0.482964 -0.238057
  H 5.077625 -1.389704 -3.943319
  H 3.951247 -0.087067 -4.299084
  H 2.121044 -1.341017 -3.162164
  H 3.271372 -2.639789 -2.753082
  H 2.523706 -1.747023 -5.568013
  H 1.972830 -3.209605 -4.761233
  H 3.677554 -3.022090 -5.174187
  H 6.436797 0.543412 -1.782241
 32
 58.880364
  C 1.715035 0.933876 0.008462
  C 2.547330 0.034388 0.563632
  C 3.092499 0.030822 1.946260
  C 2.723472 1.251043 2.793097
  C 3.343193 1.150060 4.174022
  C 3.128270 -0.790301 -0.508906
  C 4.393061 -0.539969 -1.010925
  C 4.552045 -0.066158 -2.427788
  C 4.221224 -0.970860 -3.637440
  C 3.039038 -1.919465 -3.542466
  C 2.964984 -2.764506 -4.816462
  O 5.755065 0.534194 -2.721789
  H 1.381171 1.800062 0.547237
  H 1.383393 0.814543 -1.003555
  H 3.765790 0.756930 -2.337991
  H 4.175754 -0.079473 1.917935
  H 2.707153 -0.866890 2.431733
  H 1.642566 1.317418 2.895034
  H 3.079667 2.158947 2.310910
  H 2.995310 0.258447 4.689940
  H 3.072427 2.011762 4.771922
  H 4.426623 1.108768 4.111478
  H 2.401349 -1.209383 -1.185890
  H 5.174370 -0.246147 -0.314940
  H 5.131902 -1.552991 -3.812974
  H 4.093782 -0.306315 -4.503434
  H 2.102882 -1.363460 -3.453226
  H 3.153641 -2.593305 -2.692804
  H 2.856779 -2.132526 -5.697955
  H 2.112168 -3.434690 -4.771793
  H 3.864683 -3.363812 -4.935166
  H 6.261257 0.788237 -1.937085
