15

H -3.511922 0.981264 -0.128315
C -2.067256 0.589094 -0.028933
C -1.648132 -0.472032 0.639442
C -0.236225 -0.940215 0.79792
C 0.813054 -0.0768 0.107014
C 2.223647 -0.614208 0.341484
H 2.950536331261564 -0.004824500532901177 -0.215547103867054
H -1.365257 1.230803 -0.5397
H -2.37923 -1.098299 1.140795
H -0.010482 -0.993169 1.869956
H -0.172772 -1.963357 0.40698
H 0.61 -0.055088 -0.966369
H 0.752921 0.944151 0.489733
H 2.424161 -0.596072 1.415896
H 2.267211 -1.657784 0.021514
