20
 0
 C -3.45731591 -2.90702386 0.25810622
 C -2.63142454 -1.74405141 0.80570493
 C -1.71926745 -2.22745684 1.92874658
 C -1.81593596 -1.07871801 -0.30160620
 O -1.75434534 -1.53794345 -1.44339688
 C -1.07545626 0.18963179 0.04111258
 H -4.07768134 -3.34965925 1.04440699
 H -2.81472719 -3.69480693 -0.15112707
 H -4.12149724 -2.57064002 -0.54544709
 H -3.32533425 -0.98930423 1.19520757
 H -0.96826411 -2.93152382 1.55413545
 H -2.29741479 -2.72740999 2.71309341
 H -1.18353500 -1.39423874 2.39472774
 H -1.33914689 0.53904994 1.04215820
 H -1.34927816 0.96949213 -0.67422220
 H 0.00000000 0.00000000 0.00000000
 O 2.97448936 0.17182862 0.05419406
 H 2.00000000 0.00000000 0.00000000
 H 3.49037717 -0.67392331 0.07948637
 H 3.19704877 0.75482808 0.82402479
