 32
 0.000000
  C 0.971295 0.138670 0.397107
  C 2.449192 0.137931 0.394590
  C 3.235531 0.607709 1.563175
  C 2.458783 1.097654 2.782664
  C 3.408473 1.542867 3.890157
  C 3.064128 -0.325974 -0.760267
  C 4.443809 -0.411383 -0.973421
  C 5.121105 -0.862388 -2.097901
  C 4.624049 -1.385480 -3.402263
  C 3.132878 -1.503140 -3.696540
  C 2.906825 -2.064904 -5.097384
  O 6.446987 -0.858854 -2.089278
  H 0.535803 0.508833 1.318339
  H 0.600068 -0.873827 0.231408
  H 0.599672 0.754766 -0.423105
  H 3.891403 1.419890 1.229297
  H 3.891713 -0.209425 1.884089
  H 1.820837 0.300684 3.170019
  H 1.820581 1.940882 2.510902
  H 4.044564 0.721261 4.213483
  H 2.843061 1.889238 4.752367
  H 4.044282 2.359921 3.554946
  H 2.406174 -0.643694 -1.551139
  H 5.058130 -0.077641 -0.141777
  H 5.079219 -2.374632 -3.528483
  H 5.079630 -0.757954 -4.176997
  H 2.657804 -0.522545 -3.642832
  H 2.657374 -2.174659 -2.980221
  H 3.344702 -1.417655 -5.854232
  H 1.841151 -2.145462 -5.298957
  H 3.344286 -3.055949 -5.197183
  H 6.807211 -0.521489 -1.247443
 32
 0.690256
  C 0.961259 -0.222945 0.568138
  C 2.430386 -0.106750 0.492611
  C 3.214501 0.585207 1.539110
  C 2.450729 1.179430 2.714992
  C 3.411916 1.846811 3.688143
  C 3.048427 -0.666316 -0.624152
  C 4.419584 -0.682019 -0.854030
  C 5.108789 -1.116477 -1.981829
  C 4.613773 -1.462986 -3.347338
  C 3.130194 -1.395122 -3.692366
  C 2.930942 -1.669282 -5.180335
  O 6.430617 -1.151301 -1.941860
  H 0.541913 0.210615 1.466029
  H 0.669486 -1.270559 0.507281
  H 0.509413 0.256354 -0.298113
  H 3.789145 1.387673 1.064858
  H 3.957271 -0.117161 1.935217
  H 1.903232 0.396755 3.245827
  H 1.735073 1.925662 2.363398
  H 4.127588 1.128822 4.082984
  H 2.866016 2.272546 4.527391
  H 3.961869 2.650840 3.202652
  H 2.397366 -1.139849 -1.343281
  H 5.055663 -0.282951 -0.070085
  H 4.989102 -2.469584 -3.569359
  H 5.166245 -0.807344 -4.034475
  H 2.735374 -0.406294 -3.464339
  H 2.574535 -2.148081 -3.131451
  H 3.455439 -0.933416 -5.786107
  H 1.874910 -1.624726 -5.435403
  H 3.300939 -2.656818 -5.446778
  H 6.809343 -1.173797 -1.043407
 32
 4.729486
  C 0.963042 -0.391575 0.634858
  C 2.427938 -0.237134 0.532983
  C 3.200280 0.571068 1.501716
  C 2.431651 1.244712 2.630424
  C 3.381759 2.024637 3.527056
  C 3.056766 -0.874256 -0.533914
  C 4.427878 -0.870502 -0.771630
  C 5.117597 -1.230361 -1.920268
  C 4.625154 -1.417586 -3.315956
  C 3.138969 -1.302225 -3.639397
  C 2.920563 -1.425194 -5.144138
  O 6.450109 -1.253394 -1.864160
  H 0.538049 0.107646 1.493504
  H 0.705007 -1.447151 0.670589
  H 0.488928 -0.007160 -0.265584
  H 3.746382 1.342959 0.950141
  H 3.970005 -0.069035 1.945561
  H 1.915332 0.496621 3.235381
  H 1.689581 1.934406 2.223932
  H 4.125122 1.367012 3.972793
  H 2.832331 2.505457 4.333332
  H 3.899477 2.798853 2.965319
  H 2.420274 -1.439784 -1.201685
  H 5.078557 -0.504050 0.014794
  H 4.995268 -2.394929 -3.651820
  H 5.183523 -0.691318 -3.925739
  H 2.755810 -0.338797 -3.304937
  H 2.581109 -2.099224 -3.148521
  H 3.448923 -0.640818 -5.680026
  H 1.863478 -1.342245 -5.381511
  H 3.274076 -2.386188 -5.510823
  H 6.803899 -1.733906 -1.100386
 32
 10.008242
  C 0.960705 -0.544077 0.676541
  C 2.418746 -0.370336 0.538286
  C 3.185913 0.566349 1.388096
  C 2.421080 1.347443 2.451493
  C 3.372126 2.244354 3.237301
  C 3.054297 -1.098085 -0.457207
  C 4.432103 -1.097730 -0.693114
  C 5.137300 -1.364970 -1.851412
  C 4.663135 -1.338246 -3.254062
  C 3.176115 -1.148976 -3.527317
  C 2.922465 -1.064973 -5.030881
  O 6.475646 -1.419898 -1.748024
  H 0.535183 0.039391 1.483109
  H 0.726491 -1.598625 0.831765
  H 0.465051 -0.269235 -0.256354
  H 3.703106 1.281168 0.738341
  H 3.985874 0.000275 1.879390
  H 1.936963 0.660344 3.146178
  H 1.658113 1.972289 1.986902
  H 4.136118 1.656361 3.740494
  H 2.827296 2.803382 3.993840
  H 3.864566 2.958665 2.581674
  H 2.434993 -1.741065 -1.065901
  H 5.113412 -0.885485 0.122979
  H 5.001768 -2.268589 -3.726095
  H 5.234779 -0.543934 -3.751349
  H 2.824988 -0.230100 -3.055121
  H 2.611653 -1.991199 -3.130162
  H 3.459000 -0.227505 -5.471128
  H 1.862264 -0.930183 -5.230149
  H 3.244705 -1.976173 -5.529907
  H 6.847422 -2.194855 -1.304476
 32
 15.756494
  C 0.891880 -0.548352 0.713805
  C 2.353705 -0.409711 0.541811
  C 3.162836 0.585254 1.291829
  C 2.462491 1.413574 2.365716
  C 3.449655 2.333185 3.069873
  C 2.968352 -1.230869 -0.386299
  C 4.347158 -1.267900 -0.629172
  C 5.083579 -1.522071 -1.761095
  C 4.702426 -1.366790 -3.180604
  C 3.239820 -1.065633 -3.484800
  C 3.009680 -0.911708 -4.986124
  O 6.402856 -1.684251 -1.526825
  H 0.490902 0.089251 1.490337
  H 0.639302 -1.584783 0.932683
  H 0.384364 -0.314595 -0.224835
  H 3.620447 1.273298 0.567326
  H 4.004441 0.050638 1.752356
  H 1.996359 0.761716 3.107507
  H 1.668899 2.021326 1.926227
  H 4.233819 1.763029 3.558474
  H 2.941988 2.927839 3.824154
  H 3.914543 3.015395 2.363436
  H 2.337064 -1.910665 -0.947359
  H 5.077995 -1.120271 0.151781
  H 4.988124 -2.293136 -3.697720
  H 5.356047 -0.594924 -3.610347
  H 2.931092 -0.147683 -2.976419
  H 2.605344 -1.867355 -3.109649
  H 3.597992 -0.085354 -5.383207
  H 1.964185 -0.701793 -5.191542
  H 3.295140 -1.814644 -5.520187
  H 6.698952 -2.585809 -1.376666
 32
 28.913889
  C 0.827575 -0.420897 0.812841
  C 2.284783 -0.371594 0.612199
  C 3.156610 0.552418 1.361325
  C 2.498144 1.436244 2.415630
  C 3.530077 2.341232 3.078269
  C 2.827594 -1.209576 -0.358407
  C 4.176496 -1.273020 -0.689805
  C 4.978120 -1.515873 -1.790168
  C 4.734177 -1.441538 -3.240289
  C 3.290408 -1.103892 -3.617993
  C 3.131528 -1.002935 -5.130868
  O 6.260007 -1.644362 -1.398661
  H 0.482083 0.257529 1.585180
  H 0.527352 -1.437480 1.076126
  H 0.310627 -0.188225 -0.118119
  H 3.651715 1.203548 0.633044
  H 3.951001 -0.030673 1.835372
  H 2.025717 0.813692 3.177610
  H 1.729144 2.059980 1.957141
  H 4.304355 1.760415 3.572813
  H 3.056359 2.982235 3.817359
  H 4.005860 2.981991 2.338328
  H 2.155982 -1.898851 -0.861226
  H 5.062357 -1.182493 -0.016318
  H 5.024032 -2.385764 -3.708390
  H 5.401859 -0.678624 -3.656630
  H 3.009604 -0.158388 -3.155042
  H 2.627224 -1.876906 -3.230868
  H 3.776907 -0.218378 -5.522760
  H 2.109455 -0.748662 -5.396757
  H 3.407770 -1.933400 -5.620518
  H 6.667564 -2.486065 -1.156319
 32
 57.152267
  C 0.708790 -0.367199 0.981302
  C 2.147367 -0.381739 0.655315
  C 3.115800 0.563442 1.262413
  C 2.593466 1.535472 2.318783
  C 3.734218 2.401312 2.846563
  C 2.588140 -1.298734 -0.284100
  C 3.902075 -1.442508 -0.685352
  C 4.756363 -1.668945 -1.701279
  C 4.740077 -1.468779 -3.164609
  C 3.358044 -1.062545 -3.680011
  C 3.374446 -0.878978 -5.193180
  O 6.011123 -1.904237 -1.112357
  H 0.455520 0.364338 1.736920
  H 0.397830 -1.353337 1.327358
  H 0.122925 -0.160875 0.084098
  H 3.583641 1.139642 0.457258
  H 3.926472 -0.022104 1.710820
  H 2.160258 0.981851 3.153733
  H 1.827683 2.184379 1.891942
  H 4.506947 1.790427 3.306367
  H 3.365479 3.101831 3.592444
  H 4.184509 2.979675 2.042396
  H 1.863755 -1.997423 -0.689162
  H 5.057415 -1.482442 -0.024750
  H 5.030956 -2.416976 -3.631776
  H 5.494324 -0.727965 -3.439600
  H 3.054792 -0.130046 -3.205808
  H 2.633980 -1.835447 -3.419430
  H 4.077269 -0.099739 -5.481049
  H 2.388848 -0.600189 -5.555535
  H 3.670367 -1.800732 -5.690434
  H 6.347291 -2.788810 -0.881783
 32
 67.221207
  C 0.655507 -0.321743 1.052448
  C 2.088050 -0.354524 0.676940
  C 3.095032 0.568123 1.272866
  C 2.610706 1.534596 2.350919
  C 3.766776 2.394697 2.852591
  C 2.484756 -1.260449 -0.285118
  C 3.769071 -1.408935 -0.747152
  C 4.634935 -1.631364 -1.705823
  C 4.702944 -1.488458 -3.177340
  C 3.355493 -1.079596 -3.772580
  C 3.448463 -0.932627 -5.286109
  O 5.926695 -1.856191 -1.032442
  H 0.439592 0.409886 1.820938
  H 0.342414 -1.303894 1.408511
  H 0.042453 -0.100597 0.178064
  H 3.541630 1.150534 0.459466
  H 3.906143 -0.033369 1.695538
  H 2.196185 0.977856 3.193449
  H 1.832912 2.188624 1.953075
  H 4.549503 1.778643 3.288589
  H 3.420360 3.089315 3.614416
  H 4.197453 2.975701 2.039837
  H 1.742034 -1.958380 -0.661257
  H 5.192606 -1.497163 -0.093730
  H 5.018954 -2.445229 -3.604738
  H 5.467213 -0.748626 -3.428666
  H 3.035957 -0.134966 -3.331230
  H 2.608479 -1.835639 -3.527184
  H 4.173718 -0.167470 -5.555280
  H 2.485651 -0.645976 -5.701007
  H 3.753401 -1.868551 -5.749098
  H 6.290192 -2.722400 -0.747681
 32
 53.989297
  C 0.614154 -0.369397 1.154530
  C 2.032313 -0.398443 0.700640
  C 3.055389 0.572057 1.194272
  C 2.618237 1.563787 2.271710
  C 3.788582 2.458189 2.679002
  C 2.394927 -1.343005 -0.244190
  C 3.648460 -1.519170 -0.750723
  C 4.542063 -1.731540 -1.654918
  C 4.684151 -1.511020 -3.103427
  C 3.373533 -1.028821 -3.724973
  C 3.541374 -0.789771 -5.223476
  O 5.889320 -2.020679 -0.956479
  H 0.431387 0.388736 1.910027
  H 0.335841 -1.341847 1.569955
  H -0.052268 -0.189746 0.308068
  H 3.448291 1.129454 0.337060
  H 3.900729 -0.001814 1.595447
  H 2.264719 1.025766 3.154945
  H 1.807980 2.194842 1.899676
  H 4.606289 1.867093 3.089100
  H 3.475352 3.169819 3.436846
  H 4.161339 3.019830 1.825490
  H 1.640093 -2.050914 -0.561364
  H 5.420601 -1.769363 -0.095129
  H 4.989722 -2.449380 -3.570567
  H 5.476270 -0.777431 -3.276216
  H 3.061137 -0.100700 -3.242128
  H 2.595095 -1.779098 -3.563454
  H 4.295385 -0.029894 -5.412817
  H 2.604521 -0.454958 -5.662509
  H 3.841705 -1.702673 -5.729588
  H 6.238924 -2.933417 -0.815317
 32
 49.313813
  C 0.612230 -0.403800 1.393203
  C 1.973106 -0.437336 0.808394
  C 3.032568 0.544914 1.175665
  C 2.680653 1.594640 2.226560
  C 3.873346 2.510422 2.486498
  C 2.248256 -1.409493 -0.135945
  C 3.422946 -1.557557 -0.800681
  C 4.321761 -1.722603 -1.674598
  C 4.655224 -1.504763 -3.081874
  C 3.447086 -0.952320 -3.846055
  C 3.797747 -0.722681 -5.310693
  O 5.786572 -2.159665 -0.870941
  H 0.490272 0.379942 2.130471
  H 0.380291 -1.363073 1.857688
  H -0.128700 -0.260158 0.605233
  H 3.344276 1.060037 0.259627
  H 3.911524 -0.005184 1.526124
  H 2.400109 1.109558 3.163567
  H 1.839166 2.201810 1.888097
  H 4.724391 1.944437 2.858704
  H 3.618959 3.263128 3.228758
  H 4.172705 3.024062 1.575575
  H 1.481613 -2.144807 -0.351573
  H 5.395251 -1.861778 -0.026995
  H 4.963382 -2.452987 -3.528457
  H 5.495245 -0.810643 -3.157831
  H 3.127721 -0.012592 -3.393709
  H 2.617825 -1.657657 -3.774888
  H 4.609755 -0.005494 -5.406173
  H 2.937592 -0.332979 -5.849079
  H 4.104127 -1.651252 -5.786523
  H 6.076391 -3.088712 -0.757530
 32
 47.377474
  C 0.667569 -0.528818 1.634779
  C 1.951511 -0.462527 0.913540
  C 2.975052 0.574891 1.190463
  C 2.670602 1.591137 2.287290
  C 3.826722 2.575481 2.439039
  C 2.184759 -1.403954 -0.076253
  C 3.288599 -1.460464 -0.878248
  C 4.138127 -1.553313 -1.775817
  C 4.600478 -1.442122 -3.134555
  C 3.433720 -1.060513 -4.061962
  C 3.917106 -0.946904 -5.501095
  O 5.907126 -1.857705 -0.792755
  H 0.570675 0.232089 2.399118
  H 0.547906 -1.510768 2.094843
  H -0.158589 -0.429294 0.928774
  H 3.167902 1.111384 0.253776
  H 3.916770 0.075395 1.439046
  H 2.516880 1.082150 3.240596
  H 1.764698 2.149293 2.045109
  H 4.743752 2.060057 2.715451
  H 3.604187 3.303887 3.214789
  H 4.001292 3.115132 1.511054
  H 1.444081 -2.177694 -0.239525
  H 5.414447 -1.540025 -0.026461
  H 5.011533 -2.403562 -3.450677
  H 5.396339 -0.697726 -3.201064
  H 3.009802 -0.108624 -3.740146
  H 2.650490 -1.816716 -3.995635
  H 4.683920 -0.181431 -5.593280
  H 3.090149 -0.678688 -6.153793
  H 4.330958 -1.890669 -5.848095
  H 6.402986 -2.642719 -0.511952
 32
 45.615303
  C 0.524709 -0.174340 1.610430
  C 1.801056 -0.244360 0.884545
  C 2.981242 0.562703 1.261254
  C 2.844576 1.510403 2.447746
  C 4.152683 2.257469 2.691029
  C 1.875549 -1.100401 -0.206635
  C 2.953695 -1.252889 -1.039740
  C 3.797560 -1.406504 -1.918840
  C 4.463654 -1.463307 -3.178117
  C 3.488952 -1.126929 -4.322234
  C 4.193722 -1.215254 -5.667397
  O 5.717507 -1.827709 -0.690874
  H 0.548822 0.504268 2.453917
  H 0.239666 -1.168862 1.958877
  H -0.270894 0.130543 0.927624
  H 3.287810 1.137151 0.378035
  H 3.815248 -0.119667 1.458322
  H 2.589314 0.950211 3.349286
  H 2.052663 2.237720 2.261455
  H 4.960365 1.565270 2.917438
  H 4.047441 2.936527 3.533223
  H 4.434263 2.841730 1.818176
  H 1.011437 -1.706036 -0.452521
  H 5.125323 -1.455743 -0.030831
  H 4.838569 -2.480539 -3.321395
  H 5.319819 -0.786227 -3.187686
  H 3.092085 -0.121008 -4.176163
  H 2.640327 -1.812882 -4.302266
  H 5.021552 -0.511774 -5.717503
  H 3.498791 -0.978605 -6.469298
  H 4.581919 -2.216326 -5.839149
  H 6.306907 -2.437369 -0.229451
 32
 43.630640
  C 0.508498 -0.267121 1.709210
  C 1.751560 -0.277980 0.925747
  C 2.961941 0.461114 1.340358
  C 2.877686 1.317012 2.598964
  C 4.209770 2.009815 2.872437
  C 1.762282 -1.014616 -0.251351
  C 2.797463 -1.099853 -1.149564
  C 3.608818 -1.180637 -2.061886
  C 4.364071 -1.251972 -3.262500
  C 3.469691 -1.233833 -4.506820
  C 4.278696 -1.360909 -5.787064
  O 5.807265 -1.210909 -0.802390
  H 0.573988 0.321721 2.615281
  H 0.222574 -1.290270 1.963212
  H -0.310830 0.109090 1.092610
  H 3.275335 1.090996 0.498069
  H 3.772614 -0.265919 1.467435
  H 2.626451 0.692631 3.459165
  H 2.097501 2.072369 2.490695
  H 5.001540 1.280425 3.026940
  H 4.135944 2.619381 3.769263
  H 4.489184 2.652471 2.040980
  H 0.872454 -1.568301 -0.527099
  H 5.133250 -0.961446 -0.164867
  H 4.920945 -2.195388 -3.239027
  H 5.095008 -0.440437 -3.292082
  H 2.877708 -0.313951 -4.524013
  H 2.718086 -2.027719 -4.455039
  H 4.971848 -0.528308 -5.887082
  H 3.620194 -1.358593 -6.651708
  H 4.849277 -2.286713 -5.796605
  H 6.595126 -1.464945 -0.309809
 32
 43.318904
  C 0.468091 -0.162102 1.759602
  C 1.683102 -0.184992 0.930930
  C 2.949840 0.445568 1.359028
  C 2.937020 1.260674 2.647411
  C 4.315948 1.852422 2.932739
  C 1.609385 -0.833375 -0.291935
  C 2.607089 -0.920699 -1.235428
  C 3.413563 -1.067705 -2.150120
  C 4.261993 -1.207619 -3.279160
  C 3.506972 -1.461802 -4.573906
  C 4.401386 -1.671015 -5.779871
  O 5.814573 -0.768518 -0.889154
  H 0.593805 0.361033 2.698596
  H 0.136550 -1.184539 1.955560
  H -0.351617 0.292695 1.198519
  H 3.310786 1.074659 0.536082
  H 3.695642 -0.353172 1.457497
  H 2.651068 0.624312 3.488248
  H 2.206078 2.067454 2.572332
  H 5.055978 1.065327 3.057366
  H 4.288614 2.434038 3.851380
  H 4.633822 2.502124 2.120667
  H 0.674506 -1.304046 -0.573175
  H 5.121412 -0.580111 -0.251946
  H 4.925637 -2.057104 -3.071989
  H 4.903820 -0.324762 -3.358317
  H 2.792751 -0.648860 -4.764102
  H 2.786114 -2.285977 -4.470947
  H 5.000938 -0.782852 -5.971093
  H 3.803434 -1.874393 -6.663947
  H 5.075186 -2.510603 -5.622761
  H 6.657894 -0.762929 -0.424952
