 20
 0.000000
  C 1.024479 0.113606 0.333342
  C 2.501144 0.119006 0.347114
  C 3.223989 0.598212 1.539782
  H 2.555910 0.915952 2.330669
  C 3.155867 -0.338126 -0.790770
  C 4.538444 -0.402873 -0.952860
  C 5.198142 -0.858769 -2.089183
  C 4.553142 -1.353497 -3.322155
  H 3.473922 -1.345068 -3.301696
  O 6.509493 -0.880295 -2.144038
  H 0.599491 0.485993 1.260300
  H 0.652592 -0.897135 0.157926
  H 0.652836 0.722434 -0.492423
  H 3.876653 1.431513 1.273927
  H 3.876770 -0.187237 1.924370
  H 2.530682 -0.666349 -1.607668
  H 5.151574 -0.070696 -0.125407
  H 4.908414 -2.366501 -3.516536
  H 4.908762 -0.756029 -4.162872
  H 6.955562 -0.557407 -1.339990
 20
 0.490950
  C 1.029778 0.106492 0.337084
  C 2.503196 0.047096 0.359168
  C 3.235012 0.631872 1.498745
  H 2.559669 0.929488 2.294765
  C 3.148919 -0.545432 -0.717711
  C 4.533320 -0.587029 -0.882358
  C 5.202080 -0.906154 -2.061884
  C 4.555243 -1.267575 -3.340512
  H 3.475357 -1.228741 -3.297667
  O 6.511803 -0.886339 -2.120891
  H 0.622076 0.596319 1.215380
  H 0.613546 -0.899711 0.261834
  H 0.685913 0.634203 -0.554336
  H 3.787693 1.515958 1.175977
  H 3.968276 -0.068604 1.896737
  H 2.521857 -0.939507 -1.503739
  H 5.148135 -0.286055 -0.044147
  H 4.875950 -2.268642 -3.630017
  H 4.916012 -0.600434 -4.122868
  H 6.959871 -0.661363 -1.284596
 20
 1.705915
  C 1.029903 0.100427 0.326863
  C 2.510348 0.013789 0.362494
  C 3.238978 0.696924 1.448384
  H 2.613240 0.809527 2.331472
  C 3.149536 -0.628608 -0.688439
  C 4.536294 -0.722000 -0.833338
  C 5.202471 -0.936963 -2.032004
  C 4.549163 -1.160183 -3.343195
  H 3.476092 -1.037479 -3.302130
  O 6.513935 -0.922387 -2.092181
  H 0.635279 0.709401 1.132983
  H 0.599991 -0.901377 0.382546
  H 0.687115 0.515243 -0.623680
  H 3.518282 1.696475 1.118907
  H 4.157540 0.180016 1.721764
  H 2.520099 -1.057313 -1.460829
  H 5.155890 -0.504026 0.022765
  H 4.798043 -2.161909 -3.693619
  H 4.969332 -0.475202 -4.081016
  H 6.968199 -0.811482 -1.245681
 20
 6.548885
  C 1.086916 0.138526 0.201801
  C 2.555546 -0.006342 0.321468
  C 3.243243 0.727573 1.397745
  H 2.568715 0.888321 2.235134
  C 3.184556 -0.875379 -0.546122
  C 4.579188 -0.833769 -0.764218
  C 5.193087 -0.920221 -2.001238
  C 4.463748 -1.012484 -3.285682
  H 3.392642 -0.923311 -3.162119
  O 6.498416 -0.877565 -2.129717
  H 0.688100 0.854577 0.912611
  H 0.606973 -0.828687 0.353820
  H 0.814525 0.456005 -0.804410
  H 3.545968 1.716650 1.046540
  H 4.137710 0.214641 1.738410
  H 2.573277 -1.498583 -1.184061
  H 5.220467 -0.704754 0.100159
  H 4.703593 -1.965001 -3.759318
  H 4.823333 -0.239865 -3.963509
  H 6.995707 -0.830470 -1.292006
 20
 13.691266
  C 1.150888 0.130219 0.094607
  C 2.605083 -0.079245 0.290937
  C 3.272168 0.788198 1.284914
  H 2.601466 0.974480 2.112287
  C 3.191416 -1.103795 -0.408895
  C 4.585917 -1.008702 -0.682379
  C 5.154439 -0.908528 -1.931372
  C 4.371345 -0.825493 -3.187954
  H 3.307143 -0.764815 -2.997329
  O 6.455764 -0.817163 -2.106127
  H 0.773208 0.956610 0.679519
  H 0.608867 -0.783381 0.365904
  H 0.927721 0.310996 -0.958079
  H 3.506339 1.757682 0.841047
  H 4.205628 0.357161 1.645175
  H 2.573962 -1.746259 -1.035699
  H 5.245744 -0.955684 0.173782
  H 4.587968 -1.703611 -3.797203
  H 4.700638 0.033505 -3.764610
  H 6.988244 -0.900984 -1.285790
 20
 29.752454
  C 1.305985 0.211974 -0.139160
  C 2.740570 -0.083791 0.222384
  C 3.258424 0.743023 1.325898
  H 2.463591 0.901685 2.048829
  C 3.208475 -1.263631 -0.292822
  C 4.597494 -1.054119 -0.642005
  C 5.095843 -0.862462 -1.900508
  C 4.234550 -0.732287 -3.103247
  H 3.184565 -0.675844 -2.843300
  O 6.389632 -0.757379 -2.148049
  H 0.938716 1.085243 0.389116
  H 0.699809 -0.657517 0.107231
  H 1.214247 0.391270 -1.208451
  H 3.576497 1.724698 0.970958
  H 4.107909 0.275041 1.818377
  H 2.607069 -2.079352 -0.654865
  H 5.294111 -1.142528 0.187163
  H 4.403233 -1.593639 -3.749715
  H 4.528670 0.144784 -3.676499
  H 6.962414 -0.859652 -1.367893
 20
 49.264090
  C 1.472336 0.230461 -0.293221
  C 2.905990 -0.158062 0.192812
  C 3.279318 0.737359 1.305491
  H 2.404335 0.957135 1.906528
  C 3.146613 -1.440340 -0.210226
  C 4.527432 -1.121366 -0.590052
  C 5.008521 -0.836928 -1.841544
  C 4.139572 -0.616105 -3.025885
  H 3.092476 -0.557267 -2.755670
  O 6.303530 -0.734386 -2.095555
  H 1.144367 1.147025 0.180596
  H 0.818745 -0.595244 -0.034254
  H 1.484082 0.367238 -1.370232
  H 3.684607 1.678084 0.932911
  H 4.038141 0.278370 1.940404
  H 2.524149 -2.263738 -0.492006
  H 5.239375 -1.313065 0.209315
  H 4.282860 -1.439269 -3.726032
  H 4.449316 0.287931 -3.546915
  H 6.883491 -0.887419 -1.329141
 20
 69.559937
  C 1.532512 0.169148 -0.368956
  C 3.063149 -0.287226 0.178454
  C 3.355251 0.769015 1.179680
  H 2.455650 1.091850 1.687425
  C 3.052811 -1.602528 -0.173217
  C 4.429969 -1.181705 -0.518032
  C 4.933815 -0.817091 -1.762316
  C 4.102445 -0.429037 -2.924807
  H 3.057098 -0.327241 -2.667068
  O 6.229138 -0.789170 -1.997151
  H 1.277611 1.132416 0.043914
  H 0.894152 -0.620246 -0.004198
  H 1.571254 0.204412 -1.448573
  H 3.818301 1.627421 0.697433
  H 4.053773 0.391576 1.931178
  H 2.416288 -2.412060 -0.440241
  H 5.142438 -1.472480 0.250711
  H 4.204358 -1.187671 -3.702066
  H 4.483217 0.497102 -3.351686
  H 6.793435 -1.032534 -1.241354
 20
 87.480039
  C 1.270599 0.243487 -0.361070
  C 3.177442 -0.349297 0.195609
  C 3.441846 0.733864 1.143933
  H 2.539387 1.096636 1.618970
  C 3.073312 -1.588211 -0.237129
  C 4.494720 -1.216140 -0.501183
  C 4.989184 -0.825635 -1.744661
  C 4.131391 -0.413879 -2.877618
  H 3.095494 -0.304425 -2.583948
  O 6.275559 -0.804701 -2.002403
  H 1.077112 1.182330 0.119768
  H 0.749979 -0.604655 0.036968
  H 1.360417 0.291763 -1.429945
  H 3.934013 1.564992 0.642515
  H 4.112328 0.364181 1.923931
  H 2.423144 -2.360968 -0.565612
  H 5.207596 -1.552291 0.245692
  H 4.204775 -1.161346 -3.668043
  H 4.508581 0.514963 -3.302206
  H 6.853587 -1.079881 -1.267373
 20
 93.798054
  C 1.007914 0.288712 -0.331632
  C 3.281151 -0.401778 0.206602
  C 3.547367 0.732973 1.067138
  H 2.635441 1.131456 1.499047
  C 3.099807 -1.590553 -0.254802
  C 4.553327 -1.253629 -0.484476
  C 5.039233 -0.847910 -1.729084
  C 4.169432 -0.363176 -2.819878
  H 3.148481 -0.214193 -2.490381
  O 6.309461 -0.877857 -2.017503
  H 0.854750 1.227500 0.159064
  H 0.595352 -0.586798 0.123078
  H 1.120534 0.306188 -1.395967
  H 4.050930 1.522922 0.513723
  H 4.199875 0.410360 1.880809
  H 2.437822 -2.342600 -0.605592
  H 5.266516 -1.637846 0.237148
  H 4.185827 -1.089120 -3.633152
  H 4.578091 0.558677 -3.229696
  H 6.897587 -1.201380 -1.308972
 20
 94.119836
  C 0.718098 0.341226 -0.242831
  C 3.369299 -0.420017 0.187917
  C 3.622995 0.735802 1.014459
  H 2.690842 1.160850 1.378985
  C 3.153601 -1.588616 -0.285810
  C 4.623352 -1.252353 -0.489936
  C 5.108875 -0.861003 -1.741881
  C 4.235695 -0.354420 -2.817934
  H 3.223111 -0.178736 -2.474495
  O 6.368769 -0.926404 -2.043587
  H 0.507247 1.270533 0.242283
  H 0.442989 -0.568350 0.244537
  H 0.891460 0.345288 -1.297131
  H 4.164356 1.496123 0.455907
  H 4.227290 0.433670 1.870330
  H 2.497885 -2.340054 -0.647497
  H 5.331740 -1.654480 0.226313
  H 4.222733 -1.079166 -3.632390
  H 4.662460 0.556173 -3.234940
  H 6.960985 -1.263318 -1.343376
 20
 93.149106
  C 0.538075 0.380409 -0.150409
  C 3.457946 -0.433178 0.138884
  C 3.644399 0.737408 0.960356
  H 2.676189 1.162506 1.222012
  C 3.215866 -1.600617 -0.320703
  C 4.694796 -1.265865 -0.517520
  C 5.186352 -0.878373 -1.771562
  C 4.321658 -0.338907 -2.836785
  H 3.315567 -0.138574 -2.487530
  O 6.439910 -0.974879 -2.077775
  H 0.275404 1.321772 0.282060
  H 0.349813 -0.516569 0.397117
  H 0.753917 0.332601 -1.195020
  H 4.234257 1.487774 0.439331
  H 4.164194 0.454487 1.875487
  H 2.565854 -2.360388 -0.674133
  H 5.397793 -1.689979 0.191658
  H 4.285499 -1.055406 -3.657863
  H 4.771585 0.562735 -3.249076
  H 7.028200 -1.334133 -1.384670
 20
 92.011467
  C 0.427968 0.397292 -0.047448
  C 3.513958 -0.409496 0.114096
  C 3.602436 0.760021 0.954229
  H 2.598670 1.150832 1.126322
  C 3.223561 -1.566029 -0.345810
  C 4.719085 -1.241590 -0.529176
  C 5.217491 -0.893305 -1.796017
  C 4.366915 -0.331718 -2.859681
  H 3.364825 -0.110164 -2.511618
  O 6.461225 -1.048332 -2.108443
  H 0.115795 1.343464 0.338918
  H 0.287635 -0.481955 0.541601
  H 0.686387 0.312972 -1.079647
  H 4.216871 1.528770 0.491806
  H 4.047438 0.486927 1.910406
  H 2.576793 -2.327295 -0.699555
  H 5.412574 -1.681728 0.180477
  H 4.319032 -1.039818 -3.687485
  H 4.837480 0.563304 -3.264387
  H 7.043538 -1.408088 -1.410001
 20
 91.538746
  C 0.439703 0.336262 -0.039989
  C 3.580587 -0.354143 0.138301
  C 3.552986 0.826460 0.969249
  H 2.512827 1.122703 1.113072
  C 3.232651 -1.490186 -0.335073
  C 4.743714 -1.173900 -0.525158
  C 5.209419 -0.893206 -1.825052
  C 4.346844 -0.320213 -2.871901
  H 3.359647 -0.071606 -2.501245
  O 6.427350 -1.128150 -2.178802
  H 0.079726 1.269934 0.335790
  H 0.303939 -0.547837 0.543039
  H 0.751159 0.262527 -1.057599
  H 4.109785 1.640730 0.510954
  H 4.003354 0.606269 1.936244
  H 2.587478 -2.247741 -0.696716
  H 5.451452 -1.605033 0.177278
  H 4.265494 -1.025317 -3.699899
  H 4.828187 0.564305 -3.286782
  H 7.026565 -1.468189 -1.484365
 20
 70.433932
  C 0.385105 0.870388 0.684079
  C 3.510366 -0.568822 -0.027245
  C 3.402251 0.588350 0.637829
  H 1.478818 0.806710 0.671210
  C 3.508053 -1.733506 -0.583856
  C 4.960934 -1.440289 -0.724422
  C 5.518664 -0.966432 -1.908655
  C 4.708502 -0.494491 -3.050929
  H 3.652106 -0.450426 -2.813332
  O 6.813276 -0.913692 -2.092009
  H 0.087077 1.783860 1.181282
  H -0.016068 0.016363 1.213065
  H 0.021228 0.876034 -0.335289
  H 3.589182 1.528348 0.141456
  H 3.417980 0.599834 1.717075
  H 2.863988 -2.504471 -0.933327
  H 5.621318 -1.770077 0.068045
  H 4.865011 -1.166299 -3.895673
  H 5.066099 0.481189 -3.376225
  H 7.358977 -1.238903 -1.351735
