 19
 0.000000
  H 1.425983 0.165357 0.464820
  C 2.503849 0.141225 0.403805
  C 3.249758 0.611077 1.570355
  H 2.590297 0.931242 2.366750
  C 3.051057 -0.329648 -0.767638
  C 4.436476 -0.420169 -0.993491
  C 5.087188 -0.871215 -2.118989
  C 4.610920 -1.383675 -3.398291
  C 3.131101 -1.507628 -3.708511
  H 3.009943 -1.908542 -4.709582
  H 6.167713 -0.848074 -2.060906
  H 3.912492 1.436827 1.298971
  H 3.913456 -0.171813 1.946358
  H 2.367762 -0.640897 -1.542196
  H 5.076634 -0.095168 -0.182542
  H 5.097674 -2.361597 -3.537396
  H 5.098209 -0.772737 -4.174237
  H 2.636725 -0.538979 -3.679611
  H 2.636406 -2.188377 -3.019029
 19
 8.784950
  H 1.377071 0.181685 0.505154
  C 2.455270 0.149424 0.423956
  C 3.227927 0.614049 1.577984
  H 2.585342 0.939886 2.388750
  C 2.970666 -0.321646 -0.748199
  C 4.509701 -0.429302 -1.016601
  C 5.132763 -0.880703 -2.142864
  C 4.629726 -1.391183 -3.416993
  C 3.145344 -1.502774 -3.696220
  H 2.999214 -1.903382 -4.696325
  H 6.216231 -0.864330 -2.101660
  H 3.891281 1.433978 1.293728
  H 3.892175 -0.173700 1.940424
  H 2.285364 -0.629569 -1.514630
  H 5.150165 -0.106813 -0.211775
  H 5.105954 -2.372800 -3.565750
  H 5.106434 -0.784369 -4.202524
  H 2.660532 -0.530182 -3.656038
  H 2.660233 -2.178516 -2.995749
 19
 26.701066
  H 1.335139 0.205123 0.562870
  C 2.412808 0.158336 0.445460
  C 3.225636 0.612630 1.574967
  H 2.610075 0.946829 2.407649
  C 2.871128 -0.316107 -0.735715
  C 4.566593 -0.435236 -1.032240
  C 5.162219 -0.885477 -2.155305
  C 4.648238 -1.396638 -3.430438
  C 3.160919 -1.500823 -3.690811
  H 2.995680 -1.901967 -4.691671
  H 6.249540 -0.872213 -2.121915
  H 3.887697 1.424454 1.269030
  H 3.888512 -0.184647 1.915408
  H 2.217070 -0.627364 -1.510749
  H 5.161076 -0.104741 -0.207121
  H 5.119152 -2.379097 -3.585994
  H 5.119500 -0.794180 -4.221656
  H 2.684117 -0.525346 -3.639861
  H 2.683915 -2.170948 -2.980339
 19
 47.277155
  H 1.289309 0.222731 0.606602
  C 2.363405 0.167324 0.467733
  C 3.203653 0.616620 1.584941
  H 2.608644 0.954179 2.426139
  C 2.788172 -0.308009 -0.715739
  C 4.636454 -0.445443 -1.057673
  C 5.208547 -0.898901 -2.188788
  C 4.670055 -1.404686 -3.450475
  C 3.178474 -1.494493 -3.674914
  H 2.985362 -1.892215 -4.667222
  H 6.295674 -0.892935 -2.173658
  H 3.865842 1.424162 1.265937
  H 3.866672 -0.186682 1.912881
  H 2.128395 -0.623206 -1.500713
  H 5.227574 -0.111903 -0.224818
  H 5.129336 -2.391840 -3.616055
  H 5.129669 -0.805706 -4.252234
  H 2.712740 -0.513420 -3.611031
  H 2.712500 -2.159778 -2.951156
 19
 67.458490
  H 1.242438 0.243392 0.658410
  C 2.315181 0.178101 0.494693
  C 3.182732 0.620998 1.595487
  H 2.607155 0.963875 2.449877
  C 2.704607 -0.299819 -0.695119
  C 4.705576 -0.455560 -1.082220
  C 5.254207 -0.909828 -2.215721
  C 4.691774 -1.414174 -3.474209
  C 3.194582 -1.490763 -3.665564
  H 2.973641 -1.887138 -4.654930
  H 6.344320 -0.909758 -2.215578
  H 3.843353 1.422956 1.261783
  H 3.844272 -0.188288 1.909016
  H 2.056153 -0.613932 -1.477597
  H 5.281345 -0.120439 -0.244988
  H 5.139911 -2.405082 -3.649333
  H 5.140096 -0.818752 -4.285221
  H 2.740329 -0.505263 -3.588726
  H 2.740146 -2.150531 -2.929608
 19
 73.187647
  H 1.261687 0.278241 0.720095
  C 2.340402 0.182933 0.503070
  C 3.227143 0.624961 1.625437
  H 2.652355 0.973214 2.490314
  C 2.576278 -0.287678 -0.666635
  C 4.729479 -0.450017 -1.105013
  C 5.208154 -0.899632 -2.202378
  C 4.713524 -1.432587 -3.501541
  C 3.210268 -1.502969 -3.699926
  H 3.002714 -1.906020 -4.695748
  H 6.317495 -0.897631 -2.185515
  H 3.875473 1.430632 1.281741
  H 3.868297 -0.200476 1.932091
  H 2.049494 -0.632102 -1.509529
  H 5.121535 -0.077010 -0.204844
  H 5.162223 -2.424464 -3.668971
  H 5.165924 -0.841020 -4.312808
  H 2.764979 -0.514170 -3.632921
  H 2.755849 -2.159022 -2.963464
 19
 80.408434
  H 1.237733 0.286260 0.776892
  C 2.300048 0.193434 0.526975
  C 3.215601 0.631963 1.624963
  H 2.663191 0.972535 2.491109
  C 2.487079 -0.274363 -0.647930
  C 4.792142 -0.471306 -1.127818
  C 5.250906 -0.917539 -2.235796
  C 4.743651 -1.441084 -3.533039
  C 3.229642 -1.498111 -3.682932
  H 2.987349 -1.891929 -4.661901
  H 6.346299 -0.916316 -2.229385
  H 3.849494 1.447026 1.271642
  H 3.857749 -0.198592 1.922612
  H 1.992200 -0.623532 -1.518108
  H 5.129910 -0.100444 -0.197363
  H 5.169714 -2.435837 -3.690225
  H 5.171065 -0.832308 -4.334839
  H 2.796802 -0.503397 -3.601250
  H 2.793709 -2.156990 -2.935164
 19
 86.716315
  H 1.194053 0.308544 0.841324
  C 2.255065 0.206929 0.561235
  C 3.197363 0.637373 1.633668
  H 2.663252 0.983556 2.516006
  C 2.403185 -0.261173 -0.615532
  C 4.856963 -0.485270 -1.153601
  C 5.293678 -0.930611 -2.264922
  C 4.765443 -1.449920 -3.557365
  C 3.248087 -1.495981 -3.677272
  H 2.979693 -1.889858 -4.658578
  H 6.400084 -0.934290 -2.273664
  H 3.824290 1.446224 1.266820
  H 3.835356 -0.195911 1.916743
  H 1.920675 -0.610618 -1.489399
  H 5.172209 -0.113002 -0.211711
  H 5.181088 -2.450590 -3.719271
  H 5.181486 -0.837828 -4.365154
  H 2.826434 -0.499168 -3.585795
  H 2.824533 -2.151371 -2.921863
 19
 91.471372
  H 1.153219 0.327730 0.894246
  C 2.205894 0.217812 0.589476
  C 3.177078 0.642957 1.643962
  H 2.664163 0.992697 2.534360
  C 2.319354 -0.251248 -0.588842
  C 4.922983 -0.498750 -1.180268
  C 5.341053 -0.944893 -2.297755
  C 4.788479 -1.458795 -3.581340
  C 3.268135 -1.490342 -3.663627
  H 2.971214 -1.878934 -4.633540
  H 6.445004 -0.954261 -2.322875
  H 3.802123 1.449868 1.262935
  H 3.814433 -0.197481 1.916248
  H 1.851611 -0.603131 -1.469981
  H 5.209327 -0.127129 -0.235428
  H 5.190226 -2.461988 -3.749182
  H 5.190295 -0.847222 -4.394058
  H 2.859513 -0.488584 -3.560439
  H 2.858157 -2.142495 -2.897158
 19
 94.977032
  H 1.113571 0.349311 0.949997
  C 2.158066 0.229050 0.618188
  C 3.156721 0.645734 1.648701
  H 2.665321 1.001094 2.551389
  C 2.236402 -0.240687 -0.560775
  C 4.989449 -0.511309 -1.206814
  C 5.388917 -0.957813 -2.328214
  C 4.809994 -1.466933 -3.603154
  C 3.287490 -1.483747 -3.647374
  H 2.959612 -1.869634 -4.611898
  H 6.493889 -0.973491 -2.370965
  H 3.777723 1.446333 1.253133
  H 3.790069 -0.199730 1.907222
  H 1.785036 -0.594127 -1.446660
  H 5.247446 -0.137282 -0.253413
  H 5.198615 -2.475223 -3.777581
  H 5.198303 -0.854996 -4.423234
  H 2.892928 -0.477812 -3.532373
  H 2.892107 -2.131720 -2.870075
 19
 97.480274
  H 1.072437 0.370557 1.002817
  C 2.107719 0.240053 0.645821
  C 3.133859 0.648314 1.654012
  H 2.665626 1.008134 2.565801
  C 2.154768 -0.230169 -0.533579
  C 5.057013 -0.523709 -1.234587
  C 5.439271 -0.971334 -2.361007
  C 4.830955 -1.474816 -3.624133
  C 3.308155 -1.475574 -3.626826
  H 2.949064 -1.856562 -4.579896
  H 6.543113 -0.994324 -2.423577
  H 3.752846 1.444049 1.243515
  H 3.764518 -0.204092 1.899462
  H 1.716163 -0.585807 -1.425739
  H 5.289456 -0.148959 -0.278078
  H 5.204683 -2.486079 -3.805550
  H 5.204110 -0.864570 -4.450841
  H 2.928718 -0.465375 -3.499754
  H 2.928365 -2.119127 -2.838098
 19
 99.242664
  H 1.031762 0.391792 1.056177
  C 2.056795 0.251330 0.674293
  C 3.109229 0.650609 1.658303
  H 2.664584 1.015306 2.580444
  C 2.074735 -0.219153 -0.505046
  C 5.125471 -0.536375 -1.263006
  C 5.490864 -0.984815 -2.393601
  C 4.851275 -1.482435 -3.644427
  C 3.328808 -1.466882 -3.605307
  H 2.937796 -1.843642 -4.548806
  H 6.592993 -1.015739 -2.477295
  H 3.725000 1.439862 1.232865
  H 3.736359 -0.207336 1.889494
  H 1.646805 -0.575733 -1.399836
  H 5.337387 -0.159993 -0.301140
  H 5.210352 -2.498025 -3.833363
  H 5.209588 -0.873310 -4.478852
  H 2.964772 -0.452386 -3.466237
  H 2.964874 -2.106034 -2.805472
 19
 100.439012
  H 0.990450 0.412441 1.110257
  C 2.004744 0.262618 0.703812
  C 3.083502 0.653590 1.663331
  H 2.663592 1.022642 2.594521
  C 1.995111 -0.208119 -0.474937
  C 5.193690 -0.549223 -1.291740
  C 5.542642 -0.998733 -2.426738
  C 4.870956 -1.489841 -3.663917
  C 3.350752 -1.457251 -3.582929
  H 2.928992 -1.828583 -4.514253
  H 6.642280 -1.038263 -2.532364
  H 3.695935 1.437150 1.222226
  H 3.708041 -0.210283 1.880340
  H 1.574596 -0.566592 -1.373590
  H 5.387487 -0.172473 -0.327925
  H 5.214393 -2.508605 -3.860129
  H 5.214172 -0.882732 -4.505159
  H 3.002945 -0.438909 -3.432436
  H 3.002544 -2.091807 -2.772682
 19
 101.197622
  H 0.949922 0.433093 1.164222
  C 1.952744 0.274435 0.734291
  C 3.056239 0.656960 1.669446
  H 2.660355 1.030033 2.609602
  C 1.917026 -0.196203 -0.443501
  C 5.262597 -0.562135 -1.321427
  C 5.594708 -1.012630 -2.460380
  C 4.890084 -1.497105 -3.683143
  C 3.372853 -1.447699 -3.560566
  H 2.920579 -1.813837 -4.480087
  H 6.691036 -1.061106 -2.588760
  H 3.664700 1.434556 1.213559
  H 3.677732 -0.212083 1.872236
  H 1.503053 -0.555417 -1.343337
  H 5.441585 -0.184344 -0.354143
  H 5.218055 -2.519652 -3.886606
  H 5.218237 -0.891661 -4.531659
  H 3.041185 -0.425403 -3.399107
  H 3.040425 -2.078001 -2.740146
