 6
 0.000000
  H 3.422308 -0.361014 -0.845774
  C 4.505458 -0.425731 -1.009812
  C 5.127277 -0.841569 -2.046664
  H 4.718401 -1.220040 -2.991682
  H 6.218257 -0.894433 -2.175577
  H 4.955539 -0.052473 -0.081317
 6
 0.706465
  H 3.396792 -0.376394 -0.815570
  C 4.467291 -0.430264 -1.018844
  C 5.115947 -0.837494 -2.039411
  H 4.736528 -1.197298 -3.006925
  H 6.204968 -0.907690 -2.126113
  H 5.012795 -0.047233 -0.146611
 6
 3.751873
  H 3.344488 -0.380271 -0.779938
  C 4.393994 -0.435677 -1.022347
  C 5.112252 -0.826617 -2.010364
  H 4.772354 -1.173146 -3.001329
  H 6.202996 -0.915701 -2.073033
  H 5.111650 -0.067660 -0.273046
 6
 6.155756
  H 3.340031 -0.370393 -0.778604
  C 4.388977 -0.448616 -1.018981
  C 5.111233 -0.833095 -2.009123
  H 4.775884 -1.169937 -3.002207
  H 6.203296 -0.912309 -2.052677
  H 5.135894 -0.067654 -0.305820
 6
 9.607546
  H 3.323059 -0.387884 -0.751395
  C 4.360828 -0.445412 -1.022000
  C 5.119969 -0.828109 -1.999005
  H 4.793847 -1.145015 -3.003972
  H 6.208002 -0.943849 -2.009092
  H 5.175204 -0.056404 -0.393662
 6
 12.370824
  H 3.315167 -0.392292 -0.765213
  C 4.361621 -0.466134 -1.007048
  C 5.128339 -0.836769 -1.981801
  H 4.794379 -1.121055 -2.997197
  H 6.214268 -0.969257 -1.993709
  H 5.199911 -0.027650 -0.450442
 6
 13.114869
  H 3.318853 -0.415636 -0.768142
  C 4.365881 -0.485508 -0.987094
  C 5.136195 -0.848517 -1.978059
  H 4.801429 -1.078510 -3.003156
  H 6.212159 -1.031826 -1.959749
  H 5.216066 0.037917 -0.521507
 6
 15.052708
  H 3.327898 -0.416171 -0.808631
  C 4.388938 -0.522830 -0.958563
  C 5.155625 -0.864619 -1.967905
  H 4.775992 -1.042212 -2.988848
  H 6.225489 -1.075271 -1.941156
  H 5.215473 0.094638 -0.583597
 6
 20.567875
  H 3.322500 -0.393543 -0.771902
  C 4.362480 -0.573268 -0.959663
  C 5.190051 -0.864206 -1.951793
  H 4.803458 -0.997832 -2.978334
  H 6.245954 -1.120648 -1.898399
  H 5.206485 0.113617 -0.724798
 6
 23.528608
  H 3.320419 -0.420741 -0.735614
  C 4.359246 -0.572890 -0.953760
  C 5.189467 -0.875418 -1.943159
  H 4.861630 -0.943675 -2.993704
  H 6.229222 -1.186933 -1.844078
  H 5.217772 0.157307 -0.858236
 6
 26.577951
  H 3.334131 -0.412599 -0.703826
  C 4.357833 -0.617700 -0.944663
  C 5.197639 -0.881040 -1.936296
  H 4.919586 -0.881800 -3.002796
  H 6.217939 -1.245024 -1.796211
  H 5.195500 0.193538 -0.994438
 6
 28.170828
  H 3.325405 -0.430368 -0.682334
  C 4.342993 -0.646580 -0.940515
  C 5.215861 -0.855381 -1.920125
  H 4.971483 -0.807792 -2.993761
  H 6.199775 -1.305241 -1.757593
  H 5.213280 0.212428 -1.141894
 6
 28.673976
  H 3.281030 -0.467505 -0.683061
  C 4.296120 -0.676952 -0.946798
  C 5.224443 -0.809183 -1.892024
  H 4.986113 -0.751151 -2.965848
  H 6.184540 -1.310827 -1.720269
  H 5.350982 0.227599 -1.294568
 6
 28.292607
  H 3.274873 -0.489115 -0.686808
  C 4.289520 -0.708992 -0.949199
  C 5.238322 -0.743893 -1.890803
  H 5.012181 -0.648977 -2.964905
  H 6.156367 -1.321892 -1.726161
  H 5.418592 0.290007 -1.403871
