 23
 0.000000
  H 1.429137 0.151289 0.430260
  C 2.508832 0.142680 0.407629
  C 3.250259 0.614672 1.579237
  H 2.602485 0.938883 2.385826
  C 3.088156 -0.325132 -0.756323
  C 4.463707 -0.415910 -0.984035
  C 5.130762 -0.872720 -2.123286
  C 4.609320 -1.390452 -3.414337
  C 3.116081 -1.501904 -3.693739
  C 2.893320 -2.064102 -5.095842
  O 6.444341 -0.872755 -2.124284
  H 3.906961 1.441202 1.298751
  H 3.908037 -0.174906 1.949248
  H 2.415029 -0.638591 -1.535170
  H 5.113201 -0.091976 -0.178489
  H 5.065280 -2.378886 -3.547518
  H 5.066059 -0.768443 -4.193617
  H 2.643675 -0.520590 -3.639398
  H 2.642954 -2.173419 -2.976564
  H 3.333545 -1.416963 -5.850690
  H 1.829515 -2.146709 -5.302987
  H 3.332908 -3.053778 -5.194277
  H 6.858063 -0.543838 -1.302647
 23
 -0.079636
  H 1.474732 0.530659 0.353309
  C 2.526358 0.280256 0.341143
  C 3.245500 0.391506 1.612760
  H 2.567118 0.582752 2.436183
  C 3.078243 -0.104952 -0.861755
  C 4.446182 -0.327453 -1.034409
  C 5.129701 -0.776403 -2.166469
  C 4.607677 -1.330755 -3.442409
  C 3.119253 -1.489144 -3.687322
  C 2.888926 -2.215971 -5.011011
  O 6.441923 -0.779429 -2.154425
  H 3.961951 1.216699 1.565291
  H 3.831659 -0.507467 1.823635
  H 2.413196 -0.201077 -1.702184
  H 5.075334 -0.079418 -0.184417
  H 5.088371 -2.314470 -3.555128
  H 5.043266 -0.726573 -4.248850
  H 2.636591 -0.511301 -3.747671
  H 2.661564 -2.072563 -2.884482
  H 3.322066 -1.661813 -5.840644
  H 1.825733 -2.326637 -5.199874
  H 3.333968 -3.212162 -4.993968
  H 6.855510 -0.431880 -1.340703
 23
 1.748698
  H 1.545403 0.813645 0.379539
  C 2.532759 0.397834 0.242377
  C 3.216467 0.144029 1.526679
  H 2.534904 0.271949 2.362344
  C 3.097655 0.143825 -0.981820
  C 4.444941 -0.223524 -1.080860
  C 5.160947 -0.656876 -2.200874
  C 4.637178 -1.297444 -3.433179
  C 3.137835 -1.493392 -3.617738
  C 2.871598 -2.327001 -4.868424
  O 6.469535 -0.619861 -2.186741
  H 4.035670 0.854062 1.665335
  H 3.644441 -0.856452 1.572333
  H 2.506500 0.292253 -1.868993
  H 5.018018 -0.114950 -0.159766
  H 5.132020 -2.275928 -3.479603
  H 5.041783 -0.747752 -4.290759
  H 2.638679 -0.532783 -3.738770
  H 2.713321 -2.005114 -2.753263
  H 3.265571 -1.835195 -5.754756
  H 1.802848 -2.467308 -5.008435
  H 3.332183 -3.309059 -4.789351
  H 6.870233 -0.215255 -1.392901
 23
 7.053081
  H 1.563301 0.943287 0.418157
  C 2.553583 0.508503 0.164934
  C 3.196590 -0.001983 1.411608
  H 2.502166 0.091944 2.251589
  C 3.136744 0.371748 -1.061865
  C 4.436801 -0.156237 -1.126382
  C 5.187815 -0.592391 -2.225809
  C 4.663359 -1.297285 -3.422506
  C 3.163056 -1.554306 -3.521446
  C 2.854639 -2.374613 -4.770670
  O 6.490869 -0.510691 -2.212946
  H 4.063390 0.603803 1.683914
  H 3.475242 -1.053551 1.345518
  H 2.634353 0.724842 -1.947079
  H 4.909121 -0.263813 -0.129497
  H 5.201000 -2.252417 -3.457673
  H 5.001190 -0.749045 -4.310544
  H 2.618420 -0.614081 -3.586252
  H 2.813702 -2.096264 -2.640893
  H 3.169109 -1.847541 -5.669449
  H 1.786035 -2.561098 -4.846590
  H 3.364110 -3.335642 -4.742583
  H 6.876126 -0.039710 -1.447955
 23
 25.416699
  H 1.525898 0.916389 0.462882
  C 2.584569 0.593957 0.108954
  C 3.229801 -0.190138 1.210215
  H 2.526674 -0.170710 2.065695
  C 3.164216 0.655348 -1.104043
  C 4.408312 -0.016073 -1.224751
  C 5.222309 -0.493900 -2.259989
  C 4.711823 -1.311701 -3.392635
  C 3.207029 -1.561311 -3.425077
  C 2.838724 -2.436182 -4.622101
  O 6.517810 -0.374967 -2.235381
  H 4.092369 0.314995 1.657531
  H 3.310747 -1.265899 1.016325
  H 2.727675 1.211368 -1.919231
  H 4.671659 -0.412870 -0.166585
  H 5.253943 -2.261972 -3.360771
  H 5.026876 -0.819283 -4.324367
  H 2.670327 -0.614053 -3.498744
  H 2.892056 -2.061165 -2.506448
  H 3.117942 -1.950533 -5.558556
  H 1.766577 -2.621816 -4.644414
  H 3.349233 -3.395827 -4.574918
  H 6.873287 0.206292 -1.530473
 23
 47.452943
  H 1.778058 1.164822 0.635826
  C 2.640688 0.667237 0.234108
  C 3.308435 -0.365890 1.056212
  H 2.708484 -0.410544 1.996352
  C 3.122305 0.883514 -1.029120
  C 4.274277 0.177642 -1.380566
  C 5.151141 -0.373038 -2.284652
  C 4.722283 -1.351887 -3.343934
  C 3.211651 -1.577402 -3.454215
  C 2.888680 -2.552498 -4.591640
  O 6.452879 -0.243342 -2.211479
  H 4.223315 -0.048035 1.568527
  H 3.111871 -1.399625 0.751550
  H 2.679911 1.628820 -1.697366
  H 4.382667 -0.442775 -0.224328
  H 5.226693 -2.287835 -3.143995
  H 5.124810 -0.983781 -4.303483
  H 2.707517 -0.625104 -3.640659
  H 2.822574 -1.985067 -2.517595
  H 3.246867 -2.162315 -5.547162
  H 1.813128 -2.709452 -4.672451
  H 3.364684 -3.518557 -4.425720
  H 6.753899 0.453404 -1.580832
 23
 63.030963
  H 1.816121 1.195772 0.648891
  C 2.645753 0.673248 0.209991
  C 3.345968 -0.464015 0.919404
  H 2.787620 -0.606143 1.868418
  C 3.159805 0.999084 -1.021841
  C 4.229121 0.275591 -1.470506
  C 5.103098 -0.303580 -2.286574
  C 4.713239 -1.341154 -3.308922
  C 3.211080 -1.560407 -3.448868
  C 2.913053 -2.606914 -4.508145
  O 6.434553 -0.131720 -2.226536
  H 4.265123 -0.190227 1.478068
  H 3.096101 -1.476870 0.562669
  H 2.761722 1.814289 -1.607039
  H 4.198014 -0.530652 -0.067024
  H 5.218501 -2.278786 -3.053579
  H 5.131840 -1.010307 -4.261211
  H 2.730185 -0.626842 -3.721383
  H 2.792304 -1.891078 -2.500787
  H 3.286158 -2.293206 -5.481053
  H 1.836492 -2.767856 -4.594640
  H 3.381664 -3.553382 -4.255744
  H 6.693230 0.604942 -1.651992
 23
 63.395635
  H 1.933163 1.311297 0.660677
  C 2.710074 0.712315 0.223633
  C 3.281769 -0.490114 0.937402
  H 2.759401 -0.604431 1.917598
  C 3.224088 1.054600 -1.012839
  C 4.221106 0.361901 -1.609709
  C 5.089901 -0.238585 -2.370569
  C 4.731929 -1.328655 -3.352909
  C 3.236300 -1.608991 -3.452071
  C 2.946822 -2.664635 -4.514166
  O 6.447901 -0.037399 -2.317791
  H 4.189699 -0.258774 1.561689
  H 2.814757 -1.459635 0.624185
  H 2.832085 1.925846 -1.525387
  H 4.099058 -0.798047 0.207235
  H 5.277185 -2.233980 -3.073741
  H 5.118199 -1.015505 -4.325936
  H 2.710574 -0.686841 -3.704507
  H 2.858308 -1.959780 -2.491965
  H 3.292815 -2.334029 -5.491190
  H 1.880083 -2.857268 -4.581575
  H 3.449140 -3.600015 -4.276217
  H 6.670704 0.738117 -1.781669
 23
 63.812194
  H 1.974923 1.351850 0.623058
  C 2.746248 0.731772 0.202367
  C 3.248415 -0.476004 0.955590
  H 2.567690 -0.650894 1.825928
  C 3.270888 1.056764 -1.031735
  C 4.254350 0.361769 -1.644919
  C 5.107658 -0.252584 -2.409687
  C 4.728309 -1.343077 -3.386284
  C 3.230926 -1.626242 -3.448671
  C 2.918217 -2.690923 -4.491209
  O 6.470167 -0.062501 -2.374249
  H 3.968202 -0.237408 1.807514
  H 2.957484 -1.439349 0.476314
  H 2.887707 1.933392 -1.539407
  H 4.285792 -0.641064 0.519810
  H 5.280632 -2.247079 -3.117455
  H 5.090612 -1.030446 -4.368589
  H 2.697080 -0.705788 -3.697700
  H 2.877570 -1.967207 -2.475564
  H 3.239856 -2.369454 -5.477641
  H 1.848160 -2.886316 -4.531100
  H 3.428073 -3.622263 -4.256288
  H 6.702091 0.714429 -1.846589
 23
 67.364848
  H 2.015415 1.387523 0.576525
  C 2.779996 0.752190 0.167221
  C 3.188981 -0.509048 0.904956
  H 2.399734 -0.662485 1.662680
  C 3.339897 1.068284 -1.053356
  C 4.332895 0.368277 -1.648190
  C 5.162290 -0.243658 -2.441039
  C 4.746836 -1.331664 -3.405568
  C 3.251601 -1.628209 -3.404999
  C 2.905836 -2.696219 -4.435503
  O 6.524676 -0.066261 -2.444672
  H 3.889424 -0.541940 1.837537
  H 3.122135 -1.403881 0.270269
  H 2.969427 1.947685 -1.569087
  H 4.319828 -0.317398 0.751150
  H 5.317758 -2.231654 -3.163820
  H 5.064247 -1.011236 -4.401306
  H 2.699270 -0.714355 -3.630164
  H 2.943844 -1.973792 -2.418032
  H 3.184482 -2.370780 -5.435867
  H 1.838092 -2.901384 -4.431519
  H 3.433213 -3.623221 -4.221987
  H 6.781913 0.702274 -1.915773
 23
 71.099320
  H 2.105622 1.412487 0.622621
  C 2.838018 0.763712 0.180809
  C 3.156205 -0.593986 0.916654
  H 2.284137 -0.662689 1.578279
  C 3.376976 1.076536 -1.052646
  C 4.354505 0.380736 -1.672949
  C 5.177716 -0.245261 -2.461325
  C 4.742383 -1.345235 -3.403910
  C 3.246406 -1.636402 -3.378974
  C 2.884692 -2.720404 -4.387083
  O 6.536401 -0.072668 -2.485429
  H 3.859308 -0.857769 1.773708
  H 3.129298 -1.414683 0.195777
  H 2.988765 1.957419 -1.552610
  H 4.119327 0.009876 0.781880
  H 5.313544 -2.243141 -3.154740
  H 5.047906 -1.041150 -4.408489
  H 2.693527 -0.725032 -3.612717
  H 2.950264 -1.965501 -2.382675
  H 3.151067 -2.412917 -5.396092
  H 1.816632 -2.921890 -4.365650
  H 3.412098 -3.645474 -4.164827
  H 6.808385 0.697120 -1.965343
 23
 60.548667
  H 2.367099 1.485421 0.795006
  C 3.004310 0.787693 0.283062
  C 2.996929 -0.699056 0.869074
  H 2.075640 -0.716143 1.460704
  C 3.498398 1.135270 -1.002182
  C 4.366316 0.406837 -1.713404
  C 5.189514 -0.226965 -2.498930
  C 4.737320 -1.351634 -3.401214
  C 3.245510 -1.657875 -3.329462
  C 2.872116 -2.767984 -4.304491
  O 6.531062 -0.029786 -2.562782
  H 3.695348 -1.067314 1.636338
  H 2.920795 -1.413554 0.054497
  H 3.148323 2.072205 -1.424091
  H 3.976842 0.299759 0.735105
  H 5.324970 -2.236497 -3.145471
  H 5.013291 -1.067653 -4.419951
  H 2.674775 -0.758945 -3.568547
  H 2.979992 -1.969947 -2.318864
  H 3.107701 -2.479156 -5.326463
  H 1.807810 -2.982151 -4.250412
  H 3.416568 -3.681529 -4.076310
  H 6.812870 0.752979 -2.065990
 23
 30.240995
  H 2.794465 1.491881 1.080486
  C 3.267962 0.728463 0.485484
  C 2.610853 -0.673457 0.632199
  H 1.657231 -0.556031 1.146981
  C 3.768574 1.120812 -0.857002
  C 4.439041 0.423499 -1.708920
  C 5.226684 -0.197908 -2.610009
  C 4.735186 -1.333260 -3.441530
  C 3.289827 -1.748718 -3.186017
  C 2.877137 -2.871526 -4.132008
  O 6.495228 0.103472 -2.800146
  H 3.171325 -1.362343 1.255254
  H 2.404129 -1.121633 -0.333162
  H 3.510930 2.144960 -1.142924
  H 4.220596 0.356535 0.900200
  H 5.408212 -2.182846 -3.286518
  H 4.862235 -1.030402 -4.486022
  H 2.626841 -0.894045 -3.331213
  H 3.182063 -2.095222 -2.156674
  H 2.955767 -2.552848 -5.169528
  H 1.848596 -3.165925 -3.947036
  H 3.509561 -3.745486 -3.995338
  H 6.809046 0.893572 -2.320802
 23
 20.740983
  H 2.737130 1.487918 0.979224
  C 3.403250 0.709455 0.615250
  C 2.794722 -0.674369 0.868732
  H 1.744443 -0.593428 1.135187
  C 3.694563 0.939321 -0.850697
  C 4.455326 0.296227 -1.648870
  C 5.236602 -0.337176 -2.568977
  C 4.686422 -1.379300 -3.466088
  C 3.195806 -1.658196 -3.324239
  C 2.754645 -2.732590 -4.313258
  O 6.510496 -0.073801 -2.718018
  H 3.314198 -1.166764 1.686830
  H 2.869416 -1.314276 -0.003730
  H 3.154389 1.800081 -1.252551
  H 4.355162 0.803373 1.139371
  H 5.258515 -2.297228 -3.299504
  H 4.921364 -1.089904 -4.494564
  H 2.626734 -0.747041 -3.509455
  H 2.973817 -1.994961 -2.313054
  H 2.942140 -2.418024 -5.338970
  H 1.689235 -2.928021 -4.210282
  H 3.285994 -3.664123 -4.138530
  H 6.874524 0.615700 -2.129801
 23
 22.375081
  H 2.360830 1.495381 0.699777
  C 3.209605 0.840646 0.531116
  C 2.972697 -0.540288 1.167393
  H 1.937881 -0.639513 1.481157
  C 3.486093 0.721864 -0.942070
  C 4.444696 0.099771 -1.528786
  C 5.248741 -0.492244 -2.448380
  C 4.689632 -1.461839 -3.431312
  C 3.174566 -1.627842 -3.431265
  C 2.751725 -2.665327 -4.466282
  O 6.540509 -0.306893 -2.522173
  H 3.608349 -0.671187 2.038061
  H 3.186541 -1.346825 0.472707
  H 2.842254 1.351407 -1.559877
  H 4.103695 1.298035 0.953365
  H 5.170281 -2.426951 -3.227888
  H 5.040871 -1.163997 -4.423928
  H 2.695224 -0.677379 -3.666833
  H 2.830321 -1.944208 -2.445923
  H 3.061863 -2.366985 -5.464686
  H 1.671021 -2.777639 -4.469086
  H 3.190222 -3.635825 -4.247419
  H 6.921253 0.306099 -1.864164
