 23
 0.000000
  H 1.409653 0.150220 0.428438
  C 2.488306 0.139963 0.400973
  C 3.237877 0.611232 1.570471
  H 2.609363 0.939816 2.388359
  C 3.067172 -0.327844 -0.763002
  C 4.445299 -0.414427 -0.979874
  C 5.124691 -0.868325 -2.112070
  C 4.616430 -1.387882 -3.408126
  C 3.125470 -1.503776 -3.698572
  C 2.910966 -2.066257 -5.101660
  O 6.439963 -0.864490 -2.102942
  H 3.892749 1.436361 1.279900
  H 3.894169 -0.184131 1.932065
  H 2.396331 -0.641833 -1.543455
  H 5.068101 -0.083283 -0.154963
  H 5.074913 -2.375537 -3.537354
  H 5.075631 -0.763525 -4.183846
  H 2.650108 -0.523668 -3.646688
  H 2.649466 -2.176272 -2.984110
  H 3.353324 -1.418134 -5.854472
  H 1.848163 -2.150719 -5.313342
  H 3.352784 -3.055201 -5.198110
  H 6.822674 -0.530408 -1.268461
 23
 2.259163
  H 1.407796 0.144188 0.488252
  C 2.486296 0.120571 0.423862
  C 3.239647 0.624642 1.575670
  H 2.580457 0.958824 2.369398
  C 3.032059 -0.372432 -0.742585
  C 4.407876 -0.458958 -0.965845
  C 5.104907 -0.925256 -2.082012
  C 4.614444 -1.435477 -3.384980
  C 3.125690 -1.517986 -3.693685
  C 2.918321 -2.046353 -5.110989
  O 6.417851 -0.991104 -2.008669
  H 3.887193 1.452746 1.280943
  H 3.904789 -0.147062 1.968306
  H 2.349637 -0.710649 -1.502128
  H 5.057741 -0.153298 -0.156033
  H 5.063295 -2.427211 -3.522522
  H 5.101812 -0.811749 -4.144624
  H 2.669658 -0.530045 -3.623461
  H 2.631107 -2.196832 -2.998400
  H 3.385987 -1.392657 -5.843293
  H 1.857540 -2.104347 -5.340928
  H 3.341342 -3.041970 -5.222134
  H 6.886203 -0.344653 -1.449864
 23
 6.205906
  H 1.433018 0.497315 0.333220
  C 2.495299 0.283118 0.342166
  C 3.187109 0.372859 1.631546
  H 2.506758 0.646996 2.433430
  C 3.076623 -0.049011 -0.865095
  C 4.434925 -0.341048 -1.006402
  C 5.128972 -0.786247 -2.129808
  C 4.622565 -1.368105 -3.394170
  C 3.133076 -1.493921 -3.673105
  C 2.911309 -2.220701 -4.997359
  O 6.451067 -0.902691 -2.028106
  H 3.994345 1.107616 1.583803
  H 3.668082 -0.574124 1.881511
  H 2.443192 -0.061178 -1.728407
  H 5.043130 -0.296554 -0.108596
  H 5.088321 -2.361200 -3.473572
  H 5.093092 -0.796473 -4.203235
  H 2.676930 -0.507167 -3.747109
  H 2.643621 -2.058522 -2.876657
  H 3.378048 -1.682759 -5.818869
  H 1.848997 -2.301706 -5.209865
  H 3.324834 -3.224489 -4.967249
  H 6.936335 -0.103827 -1.753760
 23
 10.674798
  H 1.379460 0.202828 0.459976
  C 2.458138 0.140854 0.418330
  C 3.199874 0.570173 1.603659
  H 2.535412 0.904881 2.392927
  C 3.012162 -0.335922 -0.751986
  C 4.391076 -0.474538 -0.942869
  C 5.097139 -0.931961 -2.051918
  C 4.622914 -1.436553 -3.357411
  C 3.139605 -1.511205 -3.690823
  C 2.947646 -2.067273 -5.100142
  O 6.423424 -1.020649 -1.886692
  H 3.894345 1.375460 1.355676
  H 3.823397 -0.242755 1.982259
  H 2.335857 -0.609258 -1.542846
  H 5.037551 -0.205360 -0.116186
  H 5.066074 -2.435616 -3.471472
  H 5.125582 -0.837648 -4.127894
  H 2.692639 -0.517396 -3.648398
  H 2.626541 -2.169048 -2.988517
  H 3.431281 -1.433694 -5.839900
  H 1.889824 -2.120129 -5.344069
  H 3.361730 -3.069264 -5.184314
  H 6.999829 -0.278796 -2.120445
 23
 7.067288
  H 1.362241 0.068434 0.528083
  C 2.440860 0.090008 0.455917
  C 3.174334 0.708064 1.561100
  H 2.504245 1.080112 2.328573
  C 3.003882 -0.467242 -0.674159
  C 4.383778 -0.523011 -0.889873
  C 5.101940 -0.981007 -1.994002
  C 4.642698 -1.432800 -3.327656
  C 3.159421 -1.481537 -3.671607
  C 2.972867 -1.944879 -5.114680
  O 6.413986 -1.028073 -1.791072
  H 3.798595 1.528535 1.201846
  H 3.867616 -0.007440 2.008661
  H 2.333288 -0.881410 -1.407204
  H 5.032376 -0.134967 -0.112243
  H 5.073255 -2.432359 -3.473915
  H 5.146078 -0.806023 -4.075230
  H 2.713515 -0.492221 -3.563610
  H 2.642919 -2.183870 -3.017168
  H 3.457671 -1.263968 -5.810466
  H 1.915946 -1.983190 -5.364815
  H 3.388571 -2.938933 -5.262155
  H 7.019351 -0.547853 -2.379368
 23
 1.290874
  H 1.358589 -0.060586 0.565777
  C 2.431294 0.035951 0.467487
  C 3.135204 0.794319 1.505772
  H 2.449797 1.182709 2.251737
  C 3.016740 -0.560750 -0.630489
  C 4.390738 -0.537589 -0.867116
  C 5.124209 -0.998851 -1.964794
  C 4.670623 -1.427191 -3.310926
  C 3.183599 -1.479715 -3.642955
  C 2.989516 -1.865569 -5.106397
  O 6.425076 -1.000068 -1.751689
  H 3.697215 1.621555 1.070085
  H 3.879493 0.165077 2.000262
  H 2.368701 -1.081777 -1.311834
  H 5.025768 -0.078795 -0.120615
  H 5.101019 -2.420289 -3.490633
  H 5.151673 -0.764007 -4.040915
  H 2.721655 -0.507084 -3.471310
  H 2.683706 -2.226221 -3.023410
  H 3.453514 -1.138096 -5.768127
  H 1.930156 -1.908547 -5.347294
  H 3.420401 -2.842245 -5.313143
  H 6.975640 -0.961173 -2.553277
 23
 1.111139
  H 1.357081 -0.081707 0.599365
  C 2.427521 0.010212 0.482993
  C 3.149230 0.807062 1.479088
  H 2.473716 1.250911 2.202334
  C 3.001170 -0.619441 -0.599555
  C 4.370359 -0.589054 -0.859760
  C 5.105757 -0.989282 -1.984570
  C 4.677814 -1.381585 -3.345172
  C 3.187148 -1.499197 -3.647495
  C 2.976306 -1.866362 -5.113475
  O 6.388249 -0.907524 -1.736791
  H 3.734549 1.594616 1.003545
  H 3.872118 0.181264 2.007011
  H 2.352265 -1.172243 -1.257955
  H 5.069561 -0.241431 -0.100338
  H 5.153351 -2.342766 -3.576642
  H 5.115189 -0.656545 -4.043012
  H 2.685976 -0.552177 -3.444867
  H 2.739998 -2.277702 -3.029401
  H 3.395849 -1.107516 -5.770057
  H 1.915162 -1.946715 -5.333536
  H 3.442775 -2.820279 -5.348831
  H 7.051454 -1.086692 -2.431188
 23
 3.684736
  H 1.355462 -0.164140 0.579736
  C 2.419321 -0.034458 0.440161
  C 3.102932 0.949315 1.288442
  H 2.403009 1.486655 1.920595
  C 3.029910 -0.789767 -0.532759
  C 4.393227 -0.712081 -0.813459
  C 5.131687 -1.068208 -1.946255
  C 4.702943 -1.364157 -3.327868
  C 3.201865 -1.469458 -3.596177
  C 2.943530 -1.749371 -5.074502
  O 6.412464 -0.965573 -1.677753
  H 3.668602 1.666071 0.692505
  H 3.834535 0.443103 1.923626
  H 2.424738 -1.494399 -1.083279
  H 5.126295 -0.418648 -0.060593
  H 5.169267 -2.311097 -3.627686
  H 5.128175 -0.590658 -3.978473
  H 2.702439 -0.542989 -3.313510
  H 2.777810 -2.284814 -3.010253
  H 3.336737 -0.948033 -5.696244
  H 1.875071 -1.817129 -5.264882
  H 3.404562 -2.683011 -5.384006
  H 7.097076 -1.205086 -2.334954
 23
 14.084558
  H 1.381595 -0.308040 0.651716
  C 2.424443 -0.127843 0.430251
  C 3.054201 1.065021 1.009245
  H 2.349434 1.642816 1.599413
  C 3.060880 -1.002827 -0.406819
  C 4.407211 -0.877516 -0.765105
  C 5.147413 -1.164275 -1.915654
  C 4.736728 -1.393599 -3.312624
  C 3.224585 -1.458001 -3.536816
  C 2.896753 -1.569278 -5.020385
  O 6.416210 -0.989712 -1.606321
  H 3.491247 1.699526 0.240512
  H 3.879530 0.757826 1.656592
  H 2.506226 -1.849639 -0.789404
  H 5.255545 -0.663721 -0.095007
  H 5.196562 -2.320568 -3.676544
  H 5.146658 -0.574328 -3.914411
  H 2.771497 -0.540449 -3.149355
  H 2.788000 -2.295897 -2.992980
  H 3.283954 -0.712871 -5.568914
  H 1.819931 -1.598137 -5.168585
  H 3.319919 -2.476320 -5.449467
  H 7.169789 -1.325942 -2.136471
 23
 40.660325
  H 1.384253 -0.219928 0.891860
  C 2.406380 -0.071916 0.574995
  C 3.122899 1.105418 1.079870
  H 2.470278 1.763786 1.642749
  C 2.944441 -0.985944 -0.289937
  C 4.230009 -0.885906 -0.808504
  C 4.994280 -1.132851 -1.930997
  C 4.700053 -1.306067 -3.362512
  C 3.203731 -1.446991 -3.652100
  C 2.958588 -1.642919 -5.143999
  O 6.253377 -1.002863 -1.498761
  H 3.591277 1.652103 0.262735
  H 3.941060 0.784316 1.726912
  H 2.362165 -1.862777 -0.544674
  H 5.335515 -0.721580 -0.245899
  H 5.203678 -2.219171 -3.699081
  H 5.117494 -0.476008 -3.939220
  H 2.681883 -0.547527 -3.322407
  H 2.800350 -2.300111 -3.107000
  H 3.336162 -0.792739 -5.709140
  H 1.892422 -1.711343 -5.346851
  H 3.439741 -2.545573 -5.510827
  H 7.050012 -1.414968 -1.891227
 23
 62.065454
  H 1.416438 -0.212947 1.039455
  C 2.407744 -0.073539 0.635326
  C 3.145346 1.144597 1.018625
  H 2.522864 1.820705 1.595705
  C 2.900565 -1.029751 -0.211820
  C 4.127223 -0.957781 -0.834785
  C 4.893468 -1.161361 -1.886248
  C 4.676953 -1.318368 -3.341806
  C 3.195052 -1.438284 -3.697513
  C 3.006489 -1.613432 -5.199612
  O 6.221370 -1.018215 -1.391005
  H 3.516202 1.658545 0.131751
  H 4.019327 0.888657 1.618529
  H 2.323744 -1.938596 -0.352688
  H 5.607139 -0.810523 -0.336278
  H 5.196847 -2.223208 -3.671240
  H 5.114452 -0.471120 -3.877816
  H 2.665987 -0.543086 -3.367487
  H 2.762974 -2.294508 -3.177927
  H 3.423366 -0.768932 -5.743793
  H 1.950034 -1.685227 -5.444717
  H 3.495208 -2.520357 -5.548858
  H 7.000655 -1.464993 -1.792676
 23
 51.320659
  H 1.440940 -0.226128 1.126942
  C 2.406522 -0.080416 0.667350
  C 3.129801 1.178309 0.960887
  H 2.512208 1.864000 1.537476
  C 2.883373 -1.060735 -0.162244
  C 4.061694 -1.010435 -0.847861
  C 4.858387 -1.183589 -1.855885
  C 4.677861 -1.307757 -3.324194
  C 3.203965 -1.428477 -3.711750
  C 3.046223 -1.568447 -5.222402
  O 6.253730 -1.050203 -1.381055
  H 3.441572 1.663793 0.034657
  H 4.037576 0.975282 1.532439
  H 2.320536 -1.986400 -0.232690
  H 5.953372 -0.869630 -0.438949
  H 5.205606 -2.203711 -3.662954
  H 5.120756 -0.446695 -3.832161
  H 2.660942 -0.544501 -3.369133
  H 2.766089 -2.299678 -3.219305
  H 3.469462 -0.708558 -5.738833
  H 1.994604 -1.642996 -5.490450
  H 3.548240 -2.464550 -5.582736
  H 7.013772 -1.498631 -1.814427
 23
 43.232692
  H 1.416473 -0.257451 1.164674
  C 2.360845 -0.111721 0.665149
  C 3.050581 1.186413 0.846681
  H 2.441381 1.876767 1.421727
  C 2.848806 -1.126992 -0.111752
  C 4.003384 -1.091276 -0.819187
  C 4.842833 -1.229371 -1.781292
  C 4.660944 -1.326729 -3.259746
  C 3.186121 -1.396832 -3.653992
  C 3.032450 -1.508799 -5.166357
  O 6.263415 -1.125441 -1.399037
  H 3.282960 1.634798 -0.119421
  H 3.995564 1.048568 1.372547
  H 2.306830 -2.067055 -0.122132
  H 6.274835 -0.951471 -0.437039
  H 5.162093 -2.229746 -3.616652
  H 5.120285 -0.462151 -3.745804
  H 2.669208 -0.503282 -3.301070
  H 2.720731 -2.260765 -3.177782
  H 3.481017 -0.653089 -5.666030
  H 1.981026 -1.544990 -5.440040
  H 3.508620 -2.412840 -5.539154
  H 6.980157 -1.542358 -1.922046
 23
 41.982392
  H 1.379401 -0.269296 1.007298
  C 2.337016 -0.142772 0.531145
  C 2.984651 1.179457 0.678097
  H 2.336211 1.881943 1.191688
  C 2.895152 -1.196333 -0.129571
  C 4.073486 -1.162134 -0.780263
  C 4.900165 -1.298089 -1.753015
  C 4.683413 -1.342552 -3.207661
  C 3.192710 -1.338003 -3.548968
  C 3.010888 -1.420407 -5.062782
  O 6.336154 -1.347216 -1.398452
  H 3.269005 1.604396 -0.276018
  H 3.894079 1.054716 1.275220
  H 2.398307 -2.155504 -0.062076
  H 6.500166 -0.997956 -0.511758
  H 5.134944 -2.277972 -3.591724
  H 5.163146 -0.504693 -3.695152
  H 2.729359 -0.429912 -3.163928
  H 2.685496 -2.197150 -3.066561
  H 3.492374 -0.571407 -5.542640
  H 1.956945 -1.410994 -5.332305
  H 3.446225 -2.335952 -5.460439
  H 7.042848 -1.429239 -2.073028
 23
 42.839896
  H 1.319313 -0.086319 0.987947
  C 2.322992 -0.027933 0.597060
  C 3.150787 1.137364 0.994358
  H 2.592621 1.811385 1.636722
  C 2.752477 -1.018741 -0.238125
  C 3.983254 -1.089135 -0.823093
  C 4.844964 -1.305910 -1.758259
  C 4.676453 -1.448930 -3.240868
  C 3.210198 -1.393608 -3.666988
  C 3.075991 -1.549830 -5.177562
  O 6.277589 -1.365131 -1.383743
  H 3.481580 1.686617 0.112966
  H 4.040128 0.809965 1.531685
  H 2.088887 -1.861054 -0.413363
  H 6.420243 -0.826052 -0.573687
  H 5.092615 -2.415627 -3.536128
  H 5.221107 -0.657931 -3.762938
  H 2.774277 -0.441656 -3.359821
  H 2.653914 -2.189920 -3.171133
  H 3.602779 -0.753968 -5.699262
  H 2.030324 -1.509540 -5.471785
  H 3.481329 -2.504116 -5.506432
  H 6.884439 -1.135533 -2.123373
