 20
 0.000000
  C 0.966881 0.140951 0.402175
  C 2.445261 0.138532 0.395784
  C 3.234973 0.607589 1.562934
  H 2.692888 0.951487 2.418959
  C 3.056527 -0.326240 -0.761266
  C 4.434557 -0.412807 -0.977341
  C 5.116634 -0.862171 -2.097644
  C 4.626711 -1.386353 -3.404443
  H 3.580501 -1.469732 -3.612753
  O 6.441363 -0.854110 -2.077903
  H 0.534203 0.511600 1.324625
  H 0.594015 -0.871193 0.237377
  H 0.593750 0.757524 -0.417125
  H 3.890881 1.419250 1.227711
  H 3.891049 -0.210235 1.882449
  H 2.395882 -0.642369 -1.548407
  H 5.050449 -0.080233 -0.149165
  H 5.083529 -2.374996 -3.529298
  H 5.083826 -0.758265 -4.177923
  H 6.799446 -0.516763 -1.236311
 20
 0.000000
  C 1.031230 0.115047 0.337627
  C 2.509211 0.128301 0.370273
  C 3.262816 0.605534 1.557809
  H 2.694701 0.943543 2.399179
  C 3.155709 -0.329798 -0.770175
  C 4.439836 -0.407663 -0.964541
  C 5.063091 -0.847175 -2.060276
  C 4.562438 -1.369954 -3.363566
  H 3.514546 -1.450361 -3.564459
  O 6.290418 -0.833603 -2.026774
  H 0.570440 0.480955 1.248284
  H 0.673594 -0.900970 0.163175
  H 0.673345 0.727748 -0.491324
  H 3.918707 1.424152 1.239913
  H 3.918862 -0.205335 1.894645
  H 2.549472 -0.652720 -1.574258
  H 5.065906 -0.077736 -0.142963
  H 5.015551 -2.359889 -3.491642
  H 5.015845 -0.743160 -4.140272
  H 6.587609 -0.485451 -1.158220
 20
 0.000000
  C 1.097295 0.089104 0.272983
  C 2.573618 0.118455 0.345723
  C 3.289479 0.603690 1.553208
  H 2.695091 0.935361 2.378806
  C 3.255781 -0.332399 -0.776700
  C 4.444780 -0.402184 -0.950905
  C 5.012201 -0.832923 -2.024762
  C 4.499664 -1.354108 -3.324066
  H 3.449976 -1.431207 -3.516708
  O 6.140511 -0.815048 -1.980512
  H 0.608002 0.449832 1.170752
  H 0.755615 -0.930722 0.089033
  H 0.755381 0.697997 -0.565463
  H 3.944800 1.429453 1.253111
  H 3.944941 -0.200036 1.907838
  H 2.703602 -0.662762 -1.599340
  H 5.081731 -0.075159 -0.136562
  H 4.948632 -2.345465 -3.455688
  H 4.948921 -0.728739 -4.104324
  H 6.372117 -0.454860 -1.081923
 20
 0.000000
  C 1.164816 0.063330 0.208758
  C 2.638114 0.109227 0.322711
  C 3.314476 0.602266 1.549656
  H 2.693568 0.927116 2.358279
  C 3.356386 -0.333767 -0.780152
  C 4.449753 -0.396138 -0.935857
  C 4.964664 -0.819819 -1.992110
  C 4.438907 -1.339180 -3.286854
  H 3.387302 -1.412582 -3.470271
  O 5.992829 -0.798869 -1.940171
  H 0.646615 0.418402 1.092456
  H 0.839867 -0.960235 0.015486
  H 0.839651 0.668485 -0.639007
  H 3.968624 1.435377 1.267860
  H 3.968750 -0.194115 1.922581
  H 2.858491 -0.672459 -1.623562
  H 5.098379 -0.072312 -0.129488
  H 4.883210 -2.332110 -3.422395
  H 4.883494 -0.715386 -4.071038
  H 6.152028 -0.425450 -1.008565
 20
 0.000000
  C 1.233359 0.038019 0.145684
  C 2.702139 0.100934 0.302030
  C 3.337125 0.601553 1.547877
  H 2.689461 0.919061 2.338227
  C 3.456965 -0.333534 -0.779615
  C 4.455293 -0.389209 -0.918605
  C 4.921353 -0.808410 -1.963680
  C 4.380868 -1.325675 -3.253189
  H 3.327231 -1.394935 -3.426270
  O 5.848976 -0.785591 -1.907060
  H 0.685839 0.386922 1.014032
  H 0.925973 -0.989204 -0.056707
  H 0.925774 0.639518 -0.711196
  H 3.989443 1.442223 1.284911
  H 3.989554 -0.187271 1.939626
  H 3.014370 -0.681680 -1.646596
  H 5.116490 -0.068930 -0.121078
  H 4.819907 -2.320345 -3.393064
  H 4.820186 -0.703624 -4.041715
  H 5.926289 -0.397983 -0.940048
 20
 0.000000
  C 1.302205 0.013607 0.084852
  C 2.764837 0.094022 0.284790
  C 3.356481 0.601959 1.548886
  H 2.681856 0.911570 2.319578
  C 3.556627 -0.331209 -0.773862
  C 4.462171 -0.380969 -0.898086
  C 4.883378 -0.799449 -1.941355
  C 4.326549 -1.314312 -3.224858
  H 3.270788 -1.378945 -3.386397
  O 5.711143 -0.775883 -1.882848
  H 0.724979 0.355793 0.936479
  H 1.013255 -1.017176 -0.126415
  H 1.013075 0.611548 -0.780901
  H 4.006250 1.450404 1.305288
  H 4.006345 -0.179093 1.959997
  H 3.171346 -0.690159 -1.667779
  H 5.136933 -0.064638 -0.110403
  H 4.759664 -2.310895 -3.369503
  H 4.759937 -0.694178 -4.018162
  H 5.693862 -0.373665 -0.879375
 20
 0.000000
  C 1.370125 -0.009217 0.027972
  C 2.824854 0.089138 0.272608
  C 3.371208 0.604070 1.554147
  H 2.669532 0.905214 2.303758
  C 3.653874 -0.326120 -0.761220
  C 4.471470 -0.370853 -0.872890
  C 4.852197 -0.794009 -1.927805
  C 4.277492 -1.306149 -3.204501
  H 3.219563 -1.365686 -3.353325
  O 5.582465 -0.770647 -1.869783
  H 0.762916 0.325680 0.861458
  H 1.100480 -1.043436 -0.191862
  H 1.100319 0.585289 -0.846344
  H 4.017655 1.460489 1.330413
  H 4.017733 -0.169011 1.985116
  H 3.329046 -0.697471 -1.686052
  H 5.160847 -0.058924 -0.096182
  H 4.704024 -2.304806 -3.354313
  H 4.704290 -0.688092 -4.002981
  H 5.453999 -0.354333 -0.831133
 20
 0.000000
  C 1.433407 -0.028854 -0.020966
  C 2.878683 0.087271 0.267942
  C 3.379318 0.608615 1.565473
  H 2.651447 0.900997 2.293265
  C 3.743902 -0.317602 -0.740028
  C 4.484360 -0.358489 -0.842085
  C 4.830436 -0.793688 -1.927008
  C 4.237316 -1.302916 -3.196428
  H 3.177330 -1.357162 -3.332057
  O 5.470487 -0.771157 -1.871036
  H 0.796979 0.298420 0.793540
  H 1.183288 -1.066258 -0.248742
  H 1.183149 0.562469 -0.903221
  H 4.021754 1.472933 1.361419
  H 4.021813 -0.156569 2.016116
  H 3.481976 -0.703065 -1.700033
  H 5.188981 -0.051321 -0.077248
  H 4.656955 -2.303687 -3.351508
  H 4.657216 -0.686977 -4.000186
  H 5.212954 -0.342861 -0.802487
 20
 0.000000
  C 1.481344 -0.041915 -0.053516
  C 2.917501 0.088992 0.272221
  C 3.379439 0.615272 1.582060
  H 2.630243 0.900075 2.290977
  C 3.812309 -0.306850 -0.713259
  C 4.499923 -0.345662 -0.810122
  C 4.821972 -0.799426 -1.941313
  C 4.213798 -1.306193 -3.204580
  H 3.152265 -1.356083 -3.329347
  O 5.393509 -0.777706 -1.887339
  H 0.820982 0.278706 0.744420
  H 1.247782 -1.081799 -0.287478
  H 1.247662 0.546928 -0.941955
  H 4.017982 1.486161 1.394381
  H 4.018024 -0.143341 2.049074
  H 3.606101 -0.706994 -1.709844
  H 5.217933 -0.042826 -0.056083
  H 4.627713 -2.308677 -3.363924
  H 4.627972 -0.691970 -4.012612
  H 5.006503 -0.341441 -0.798908
 20
 0.000000
  C 1.514419 -0.048852 -0.070807
  C 2.942395 0.093948 0.284565
  C 3.372747 0.623932 1.603639
  H 2.606703 0.902442 2.296880
  C 3.860659 -0.294365 -0.682158
  C 4.517593 -0.332683 -0.777773
  C 4.824787 -0.810506 -1.968927
  C 4.205864 -1.315471 -3.227688
  H 3.143300 -1.362233 -3.344656
  O 5.347252 -0.789159 -1.915869
  H 0.835048 0.266205 0.713270
  H 1.294390 -1.090620 -0.309464
  H 1.294287 0.538107 -0.963942
  H 4.007784 1.500110 1.429138
  H 4.007812 -0.129393 2.083831
  H 3.702935 -0.710779 -1.719282
  H 5.247040 -0.033663 -0.033247
  H 4.615643 -2.319168 -3.390053
  H 4.615900 -0.702465 -4.038748
  H 4.829852 -0.348164 -0.815639
 20
 0.000000
  C 1.532574 -0.049864 -0.073331
  C 2.953863 0.101919 0.304425
  C 3.360088 0.634541 1.630073
  H 2.581506 0.908182 2.311180
  C 3.889633 -0.280549 -0.647733
  C 4.536399 -0.319926 -0.745973
  C 4.837843 -0.826352 -2.008416
  C 4.213409 -1.330379 -3.264828
  H 3.150342 -1.375533 -3.377785
  O 5.328913 -0.804672 -1.954518
  H 0.838994 0.260865 0.699960
  H 1.322895 -1.092987 -0.315365
  H 1.322805 0.535740 -0.969844
  H 3.992252 1.514715 1.465528
  H 3.992268 -0.114788 2.120221
  H 3.772622 -0.716457 -1.733416
  H 5.275233 -0.024120 -0.009461
  H 4.621053 -2.334696 -3.428732
  H 4.621310 -0.717996 -4.077434
  H 4.678000 -0.361033 -0.847694
 20
 0.000000
  C 1.535390 -0.045101 -0.061464
  C 2.952031 0.112601 0.331042
  C 3.342231 0.646886 1.660828
  H 2.555476 0.917263 2.333800
  C 3.899235 -0.265941 -0.611330
  C 4.554744 -0.307965 -0.716158
  C 4.860522 -0.846190 -2.057854
  C 4.236767 -1.350339 -3.314555
  H 3.173761 -1.395691 -3.428007
  O 5.336455 -0.823262 -2.000841
  H 0.832520 0.262717 0.704569
  H 1.332591 -1.089084 -0.305641
  H 1.332510 0.539641 -0.960123
  H 3.972394 1.529692 1.502843
  H 3.972402 -0.099810 2.157538
  H 3.813981 -0.726351 -1.758041
  H 5.300714 -0.014654 0.014132
  H 4.644674 -2.354581 -3.478265
  H 4.644932 -0.737883 -4.126974
  H 4.546422 -0.377929 -0.889787
 20
 0.000000
  C 1.523510 -0.035469 -0.037463
  C 2.937824 0.125108 0.362205
  C 3.320205 0.660179 1.693945
  H 2.529508 0.928957 2.362925
  C 3.890550 -0.251508 -0.575360
  C 4.570182 -0.297599 -0.690318
  C 4.891051 -0.868337 -2.113044
  C 4.274650 -1.373743 -3.372865
  H 3.212322 -1.421243 -3.491667
  O 5.365605 -0.843143 -2.050382
  H 0.816150 0.270919 0.725002
  H 1.324068 -1.079861 -0.282655
  H 1.323993 0.548863 -0.937141
  H 3.949367 1.544264 1.539144
  H 3.949369 -0.085238 2.193841
  H 3.826862 -0.741988 -1.796961
  H 5.320767 -0.005924 0.035888
  H 4.685404 -2.377159 -3.534510
  H 4.685662 -0.760464 -4.183224
  H 4.431047 -0.396589 -0.936277
 20
 0.000000
  C 1.499661 -0.022990 -0.006367
  C 2.913548 0.138109 0.394600
  C 3.294507 0.673325 1.726689
  H 2.503096 0.941813 2.394942
  C 3.867275 -0.238158 -0.542087
  C 4.580287 -0.289213 -0.669411
  C 4.925881 -0.890542 -2.168377
  C 4.322939 -1.398200 -3.433794
  H 3.261929 -1.449611 -3.562343
  O 5.408053 -0.862130 -2.097697
  H 0.791488 0.283139 0.755446
  H 1.300830 -1.067456 -0.251739
  H 1.300756 0.561265 -0.906230
  H 3.923485 1.557641 1.572464
  H 3.923486 -0.071858 2.227167
  H 3.815788 -0.762805 -1.848780
  H 5.332966 0.001717 0.054926
  H 4.738853 -2.400094 -3.591639
  H 4.739112 -0.783400 -4.240358
  H 4.325648 -0.415698 -0.983884
