 17
 0.000000
  H 1.480461 0.169814 0.470228
  C 2.562572 0.159906 0.445469
  C 3.247719 0.641562 1.646033
  C 2.309207 1.086219 2.756219
  H 2.874110 1.431319 3.618157
  C 3.170401 -0.302075 -0.704225
  C 4.554245 -0.381186 -0.901220
  C 5.093539 -0.855636 -2.079347
  H 4.446540 -1.181787 -2.887667
  O 6.353039 -0.962555 -2.345533
  H 3.917469 1.468987 1.374984
  H 3.917622 -0.143858 2.021480
  H 1.669874 0.267035 3.077074
  H 1.669873 1.900364 2.423041
  H 2.537102 -0.629223 -1.517527
  H 5.227913 -0.065115 -0.116899
  H 6.955806 -0.671698 -1.625429
 17
 19.101953
  H 1.458810 0.166545 0.461380
  C 2.541219 0.150012 0.419490
  C 3.274597 0.627256 1.609104
  C 2.372486 1.085610 2.755833
  H 2.969473 1.423647 3.599736
  C 3.130546 -0.323153 -0.758280
  C 4.571989 -0.416534 -0.989781
  C 5.044581 -0.878844 -2.136228
  H 4.528149 -1.233673 -3.015829
  O 6.290225 -0.855564 -2.077844
  H 3.948671 1.447912 1.317873
  H 3.949805 -0.166351 1.964965
  H 1.733816 0.274120 3.097158
  H 1.732597 1.907763 2.443490
  H 2.484796 -0.643178 -1.553359
  H 5.216585 -0.095524 -0.194225
  H 6.715785 -0.530257 -1.269460
 17
 67.340100
  H 1.434424 0.175663 0.484370
  C 2.515692 0.151913 0.425876
  C 3.289187 0.617518 1.584378
  C 2.429391 1.083264 2.750708
  H 3.052794 1.415350 3.574048
  C 3.078308 -0.339725 -0.799347
  C 4.600449 -0.450645 -1.072492
  C 5.040545 -0.899230 -2.190252
  H 4.681872 -1.274738 -3.128947
  O 6.229359 -0.780381 -1.888709
  H 3.957575 1.431823 1.272600
  H 3.962989 -0.181180 1.921558
  H 1.795768 0.279615 3.109959
  H 1.790152 1.909244 2.456609
  H 2.406620 -0.651997 -1.578266
  H 5.150200 -0.108113 -0.218239
  H 6.537691 -0.436601 -1.024762
 17
 133.406036
  H 1.388747 0.202576 0.518976
  C 2.465564 0.159742 0.448772
  C 3.265603 0.609153 1.586021
  C 2.436340 1.092077 2.767666
  H 3.078255 1.414780 3.574451
  C 3.014764 -0.348366 -0.808138
  C 4.728648 -0.470710 -1.125177
  C 5.055945 -0.924686 -2.260954
  H 4.751075 -1.308549 -3.208111
  O 6.235069 -0.759974 -1.842541
  H 3.941167 1.417838 1.257738
  H 3.933426 -0.201054 1.925229
  H 1.800636 0.302810 3.138344
  H 1.805551 1.923234 2.486761
  H 2.340365 -0.659455 -1.571418
  H 5.156702 -0.098194 -0.215864
  H 6.552836 -0.410433 -0.995546
 17
 154.156363
  H 1.258498 0.247724 0.666115
  C 2.327596 0.167834 0.467171
  C 3.211237 0.642072 1.594188
  C 2.407170 1.103417 2.797874
  H 3.080531 1.422677 3.592047
  C 2.660517 -0.314791 -0.711039
  C 5.017092 -0.501839 -1.184951
  C 5.152829 -0.951724 -2.350572
  H 4.813210 -1.327934 -3.288766
  O 6.461048 -0.806786 -1.914633
  H 3.864030 1.446973 1.255622
  H 3.845568 -0.189538 1.903470
  H 1.780068 0.291402 3.191589
  H 1.787782 1.953180 2.547846
  H 2.111724 -0.652675 -1.545369
  H 5.217867 -0.107162 -0.215253
  H 6.948100 -0.480226 -1.127801
 17
 159.929168
  H 1.042051 0.352057 0.858537
  C 2.092052 0.227801 0.552310
  C 3.079297 0.642273 1.623935
  C 2.370659 1.124189 2.884823
  H 3.096742 1.416214 3.640349
  C 2.374148 -0.240243 -0.622854
  C 5.315689 -0.490172 -1.297229
  C 5.365812 -1.022247 -2.448604
  H 5.003109 -1.487150 -3.345173
  O 6.721441 -0.833546 -2.087154
  H 3.703138 1.448071 1.231038
  H 3.684903 -0.228192 1.878278
  H 1.740215 0.341666 3.304294
  H 1.753944 1.994915 2.672844
  H 1.867627 -0.588214 -1.488921
  H 5.373219 -0.218471 -0.257619
  H 7.334199 -0.488153 -1.403643
 17
 161.789254
  H 0.872632 0.410130 0.993872
  C 1.905529 0.263838 0.656678
  C 2.929260 0.649374 1.700311
  C 2.283519 1.168615 2.976750
  H 3.046062 1.440501 3.708067
  C 2.158699 -0.207678 -0.522502
  C 5.602887 -0.557119 -1.442436
  C 5.568455 -1.085740 -2.589848
  H 5.208194 -1.530848 -3.494936
  O 6.966953 -0.900359 -2.259221
  H 3.586008 1.417285 1.289505
  H 3.533970 -0.225351 1.944973
  H 1.640874 0.414128 3.420236
  H 1.683625 2.053090 2.775916
  H 1.617968 -0.532982 -1.379671
  H 5.627298 -0.288713 -0.413060
  H 7.623947 -0.539972 -1.620683
 17
 162.090623
  H 0.747730 0.451228 1.105644
  C 1.775432 0.267526 0.770533
  C 2.810482 0.641853 1.811613
  C 2.184591 1.241231 3.057768
  H 2.951696 1.510935 3.781973
  C 2.009322 -0.214897 -0.400823
  C 5.852398 -0.645879 -1.589783
  C 5.715653 -1.111601 -2.755336
  H 5.337005 -1.481004 -3.687708
  O 7.156400 -0.968413 -2.410122
  H 3.508709 1.358665 1.367154
  H 3.375006 -0.249594 2.080114
  H 1.513996 0.531977 3.529424
  H 1.608728 2.135060 2.812442
  H 1.460972 -0.521507 -1.257334
  H 5.871319 -0.357954 -0.561369
  H 7.869132 -0.620803 -1.825715
 17
 162.373356
  H 0.632211 0.516367 1.207062
  C 1.657911 0.317867 0.870782
  C 2.694136 0.665667 1.915548
  C 2.068951 1.288302 3.162997
  H 2.836779 1.542809 3.886960
  C 1.887518 -0.181371 -0.309206
  C 6.079284 -0.706702 -1.758923
  C 5.856678 -1.181945 -2.899835
  H 5.468831 -1.558319 -3.817240
  O 7.333965 -1.035723 -2.571082
  H 3.405770 1.363644 1.486301
  H 3.235096 -0.243236 2.197287
  H 1.376931 0.592998 3.639119
  H 1.524159 2.197798 2.910979
  H 1.332783 -0.492029 -1.167203
  H 6.115284 -0.410412 -0.745089
  H 8.086349 -0.653619 -2.065155
 17
 161.590788
  H 0.513903 0.564592 1.296676
  C 1.546202 0.350740 0.992257
  C 2.560814 0.712494 2.053580
  C 1.909052 1.340725 3.282800
  H 2.660570 1.602599 4.018358
  C 1.792981 -0.147068 -0.176549
  C 6.347896 -0.783959 -1.939350
  C 6.005169 -1.236799 -3.064129
  H 5.572296 -1.589081 -3.973684
  O 7.522964 -1.144536 -2.804179
  H 3.282327 1.408943 1.637935
  H 3.094874 -0.192200 2.356224
  H 1.206446 0.652618 3.746062
  H 1.370758 2.252656 3.013124
  H 1.234746 -0.443629 -1.032901
  H 6.442521 -0.509122 -0.914202
  H 8.317070 -0.736531 -2.384432
 17
 160.358717
  H 0.393607 0.648154 1.379456
  C 1.429101 0.408599 1.109266
  C 2.427315 0.753779 2.191224
  C 1.762665 1.395857 3.405331
  H 2.500919 1.627733 4.163599
  C 1.692194 -0.120129 -0.047735
  C 6.591886 -0.853001 -2.104177
  C 6.170918 -1.337122 -3.190976
  H 5.674572 -1.623335 -4.086579
  O 7.685634 -1.253594 -3.020933
  H 3.179838 1.424941 1.783622
  H 2.925375 -0.167760 2.497854
  H 1.024903 0.727287 3.839566
  H 1.264975 2.327093 3.128916
  H 1.134326 -0.417922 -0.905534
  H 6.742757 -0.543299 -1.094718
  H 8.482749 -0.767249 -2.705942
 17
 156.087757
  H 0.284743 0.780058 1.452117
  C 1.315936 0.476321 1.229086
  C 2.289622 0.786370 2.344745
  C 1.614393 1.452174 3.536705
  H 2.339144 1.641846 4.321565
  C 1.596000 -0.066745 0.083448
  C 6.794983 -0.925171 -2.283990
  C 6.351867 -1.438844 -3.354631
  H 5.819514 -1.741128 -4.224428
  O 7.857254 -1.344907 -3.184815
  H 3.075361 1.440667 1.951709
  H 2.764124 -0.148317 2.639410
  H 0.840064 0.807038 3.945459
  H 1.169335 2.405109 3.251777
  H 1.039134 -0.394852 -0.764803
  H 6.927746 -0.574559 -1.282752
  H 8.607725 -0.724248 -3.014093
 17
 138.396029
  H 0.224986 0.928227 1.486875
  C 1.235675 0.531540 1.310152
  C 2.192404 0.831015 2.440544
  C 1.499524 1.487277 3.622895
  H 2.206658 1.642294 4.440009
  C 1.524445 -0.093832 0.216929
  C 6.937559 -0.989139 -2.267893
  C 6.470725 -1.398117 -3.372958
  H 5.938936 -1.623558 -4.268755
  O 7.964496 -1.496728 -3.196814
  H 2.988546 1.488849 2.070249
  H 2.659925 -0.101164 2.759073
  H 0.691023 0.862939 3.989374
  H 1.089430 2.453796 3.340401
  H 1.028682 -0.428788 -0.666396
  H 6.997153 -0.614191 -1.274296
  H 8.499710 -0.765330 -3.601119
