 32
 0.000000
  C 0.977160 0.133900 0.390824
  C 2.455161 0.140974 0.392878
  C 3.235089 0.612055 1.565363
  C 2.453314 1.098242 2.783071
  C 3.398391 1.545300 3.893800
  C 3.079739 -0.320812 -0.757117
  C 4.459191 -0.410027 -0.970630
  C 5.123610 -0.865372 -2.099632
  C 4.619688 -1.387093 -3.401578
  C 3.127746 -1.500235 -3.693821
  C 2.899027 -2.062108 -5.094211
  O 6.449759 -0.867745 -2.096804
  H 0.539411 0.495543 1.314463
  H 0.613329 -0.880573 0.221048
  H 0.594850 0.751966 -0.423466
  H 3.889645 1.426484 1.234244
  H 3.893158 -0.203239 1.887088
  H 1.816822 0.298857 3.167805
  H 1.813217 1.939692 2.510312
  H 4.036126 0.725376 4.218088
  H 2.829415 1.888968 4.754746
  H 4.032539 2.364712 3.561275
  H 2.425163 -0.639879 -1.550464
  H 5.082671 -0.079297 -0.148289
  H 5.071153 -2.377876 -3.528246
  H 5.075780 -0.761618 -4.177674
  H 2.655554 -0.518219 -3.640453
  H 2.650836 -2.170116 -2.976907
  H 3.338193 -1.416549 -5.851745
  H 1.832979 -2.139670 -5.294926
  H 3.333528 -3.054473 -5.193792
  H 6.828476 -0.533919 -1.262128
 32
 0.421322
  C 0.994477 0.739271 0.219163
  C 2.431699 0.415128 0.281818
  C 3.205911 0.531517 1.538964
  C 2.450123 0.959392 2.793853
  C 3.385747 0.981584 3.999224
  C 3.034294 -0.013161 -0.896770
  C 4.407592 -0.051742 -1.126609
  C 5.086719 -0.489535 -2.258891
  C 4.601826 -1.262500 -3.434802
  C 3.139942 -1.671624 -3.563673
  C 2.957467 -2.558495 -4.793231
  O 6.383334 -0.268474 -2.354242
  H 0.652742 1.295659 1.083324
  H 0.406519 -0.178499 0.154835
  H 0.786069 1.304558 -0.688604
  H 4.031431 1.234754 1.379243
  H 3.683084 -0.435317 1.735219
  H 1.632942 0.265350 2.995872
  H 2.029476 1.957734 2.661792
  H 3.807221 -0.004187 4.183426
  H 2.845926 1.287559 4.892000
  H 4.203407 1.682407 3.845322
  H 2.368330 -0.260112 -1.706778
  H 5.034891 0.405187 -0.369911
  H 5.221842 -2.167011 -3.464168
  H 4.898253 -0.697806 -4.325914
  H 2.508624 -0.791292 -3.685243
  H 2.823993 -2.229269 -2.681725
  H 3.251263 -2.032983 -5.698925
  H 1.916118 -2.852286 -4.896572
  H 3.556361 -3.462814 -4.714090
  H 6.770529 0.222525 -1.606251
 32
 5.278586
  C 1.100419 0.994779 0.167412
  C 2.437518 0.390571 0.313471
  C 3.154754 0.320501 1.602082
  C 2.496481 0.981721 2.809321
  C 3.349340 0.782657 4.058615
  C 3.015000 -0.105647 -0.858399
  C 4.349954 0.045070 -1.194608
  C 5.017897 -0.339755 -2.351874
  C 4.579072 -1.217518 -3.471906
  C 3.191751 -1.847005 -3.476762
  C 3.035921 -2.747110 -4.700126
  O 6.250753 0.089339 -2.555692
  H 0.825536 1.608032 1.016658
  H 0.331911 0.231989 0.031710
  H 1.120480 1.592064 -0.743069
  H 4.164999 0.727073 1.478763
  H 3.312554 -0.741536 1.826849
  H 1.510588 0.549514 2.985154
  H 2.377392 2.052161 2.632624
  H 3.467342 -0.274746 4.284817
  H 2.881505 1.259208 4.916472
  H 4.337541 1.218700 3.930104
  H 2.333285 -0.525960 -1.580808
  H 4.946229 0.629465 -0.502150
  H 5.328594 -2.015796 -3.530262
  H 4.714932 -0.641814 -4.394234
  H 2.425060 -1.074010 -3.526789
  H 3.047524 -2.450103 -2.579873
  H 3.159066 -2.178581 -5.619005
  H 2.048256 -3.200717 -4.713453
  H 3.773716 -3.546087 -4.692304
  H 6.605642 0.659149 -1.848821
 32
 14.301434
  C 1.295938 1.462736 0.139474
  C 2.461583 0.568376 0.267010
  C 3.079583 0.219395 1.561601
  C 2.527295 0.902498 2.809964
  C 3.242408 0.393268 4.058110
  C 2.989723 0.011667 -0.918488
  C 4.256217 0.295907 -1.378556
  C 4.922584 -0.137407 -2.520568
  C 4.554824 -1.197257 -3.501442
  C 3.262291 -1.985620 -3.334228
  C 3.145749 -3.032689 -4.437899
  O 6.075670 0.426099 -2.849337
  H 1.228311 2.144994 0.980745
  H 0.358683 0.899814 0.105647
  H 1.384786 2.018419 -0.789836
  H 4.163726 0.386898 1.499303
  H 2.983495 -0.866889 1.679513
  H 1.459885 0.700362 2.908157
  H 2.668448 1.982782 2.741515
  H 3.099574 -0.677960 4.178793
  H 2.852615 0.885766 4.945269
  H 4.310186 0.592856 4.004634
  H 2.317026 -0.604450 -1.496691
  H 4.796684 1.037323 -0.797980
  H 5.399326 -1.896436 -3.516083
  H 4.562686 -0.728919 -4.492118
  H 2.402708 -1.320187 -3.406448
  H 3.254249 -2.494145 -2.369801
  H 3.136842 -2.563513 -5.418298
  H 2.225912 -3.600363 -4.326738
  H 3.979226 -3.730028 -4.401699
  H 6.371974 1.117448 -2.238505
 32
 26.357761
  C 1.604652 1.738269 0.125700
  C 2.581669 0.661046 0.290864
  C 3.035485 0.160112 1.595870
  C 2.507267 0.871579 2.838957
  C 3.047051 0.208845 4.103562
  C 3.099757 0.020782 -0.902779
  C 4.225829 0.453264 -1.540068
  C 4.843177 -0.036847 -2.700344
  C 4.492685 -1.195137 -3.569410
  C 3.287296 -2.068717 -3.247032
  C 3.161486 -3.183414 -4.281706
  O 5.923762 0.582485 -3.160221
  H 1.603001 2.419413 0.968079
  H 0.596429 1.311474 0.059585
  H 1.779461 2.272567 -0.804183
  H 4.135639 0.159581 1.606851
  H 2.771316 -0.903241 1.655728
  H 1.417671 0.835351 2.858150
  H 2.816878 1.918446 2.832941
  H 2.733627 -0.831391 4.162782
  H 2.676498 0.721898 4.987828
  H 4.134280 0.241184 4.127000
  H 2.525443 -0.813438 -1.277150
  H 4.715201 1.314228 -1.097323
  H 5.388098 -1.826508 -3.611302
  H 4.383000 -0.798555 -4.585345
  H 2.374437 -1.474399 -3.272772
  H 3.405131 -2.523528 -2.263239
  H 3.029597 -2.773279 -5.279984
  H 2.304103 -3.812792 -4.059131
  H 4.049093 -3.811086 -4.286133
  H 6.206583 1.341738 -2.624133
 32
 13.670263
  C 1.985065 1.937902 0.135265
  C 2.788311 0.718610 0.288168
  C 3.026313 0.095665 1.606573
  C 2.467505 0.820363 2.827212
  C 2.782615 0.041608 4.100616
  C 3.295557 0.060930 -0.859300
  C 4.241879 0.601071 -1.711457
  C 4.757949 0.056426 -2.881630
  C 4.394898 -1.184621 -3.622762
  C 3.300815 -2.114513 -3.114295
  C 3.125768 -3.283958 -4.079484
  O 5.735464 0.696270 -3.510556
  H 2.051488 2.602293 0.992847
  H 0.940950 1.618095 0.062210
  H 2.197809 2.466821 -0.791066
  H 4.106376 -0.041674 1.724023
  H 2.622935 -0.926025 1.589799
  H 1.385802 0.929396 2.737466
  H 2.907893 1.815286 2.909751
  H 2.333790 -0.948500 4.073045
  H 2.391599 0.563453 4.970273
  H 3.856197 -0.072510 4.231649
  H 2.919221 -0.935182 -1.038703
  H 4.660691 1.555483 -1.412241
  H 5.322091 -1.757063 -3.736952
  H 4.139941 -0.860685 -4.638464
  H 2.352920 -1.579607 -3.045715
  H 3.570216 -2.517527 -2.137984
  H 2.843315 -2.932360 -5.068686
  H 2.348013 -3.954926 -3.725061
  H 4.047469 -3.853521 -4.170829
  H 6.023878 1.517254 -3.074093
 32
 3.860393
  C 2.396081 2.066221 0.156686
  C 3.027480 0.747321 0.299156
  C 3.027826 0.045956 1.604076
  C 2.430029 0.791340 2.791375
  C 2.485456 -0.070266 4.049019
  C 3.549041 0.076273 -0.805749
  C 4.280111 0.670541 -1.832876
  C 4.693610 0.094820 -3.025943
  C 4.300139 -1.193839 -3.660985
  C 3.331512 -2.148146 -2.973672
  C 3.027259 -3.327825 -3.893711
  O 5.530963 0.757599 -3.807824
  H 2.566062 2.707930 1.016708
  H 1.316577 1.896792 0.108803
  H 2.666196 2.564752 -0.769130
  H 4.059833 -0.235434 1.838035
  H 2.499986 -0.907696 1.487682
  H 1.390993 1.052504 2.586787
  H 2.983903 1.712958 2.977120
  H 1.916037 -0.988029 3.918008
  H 2.066007 0.467322 4.896128
  H 3.511759 -0.335983 4.294131
  H 3.422924 -0.996029 -0.819220
  H 4.611708 1.687993 -1.661414
  H 5.228559 -1.727795 -3.891450
  H 3.887452 -0.920317 -4.639560
  H 2.397010 -1.635721 -2.742169
  H 3.770754 -2.540686 -2.056314
  H 2.570520 -2.990629 -4.821076
  H 2.340225 -4.017296 -3.410920
  H 3.935240 -3.872867 -4.139645
  H 5.823925 1.614929 -3.454133
 32
 0.475143
  C 2.783887 2.128580 0.171113
  C 3.295026 0.754843 0.296048
  C 3.066367 -0.005642 1.550650
  C 2.368286 0.727933 2.684398
  C 2.152594 -0.195459 3.873420
  C 3.918304 0.099456 -0.752855
  C 4.413959 0.707067 -1.913742
  C 4.685784 0.104442 -3.132758
  C 4.225284 -1.214900 -3.648331
  C 3.377740 -2.131884 -2.774523
  C 2.815597 -3.277604 -3.611459
  O 5.343759 0.772877 -4.064250
  H 3.102102 2.745248 1.010007
  H 1.692637 2.099013 0.219360
  H 3.058409 2.586424 -0.771321
  H 4.032203 -0.381029 1.907230
  H 2.490538 -0.904949 1.308216
  H 1.400887 1.105702 2.351196
  H 2.969069 1.578726 3.007461
  H 1.530994 -1.043597 3.599485
  H 1.658671 0.335621 4.680915
  H 3.099094 -0.572691 4.249327
  H 4.074125 -0.962922 -0.638006
  H 4.673114 1.759015 -1.848666
  H 5.114254 -1.754249 -3.991686
  H 3.667726 -0.989616 -4.565259
  H 2.547464 -1.572982 -2.336333
  H 3.981177 -2.560012 -1.974832
  H 2.182418 -2.902303 -4.409836
  H 2.219830 -3.940596 -2.993147
  H 3.616065 -3.861680 -4.057440
  H 5.669451 1.646938 -3.786306
 32
 4.754310
  C 2.792655 1.893724 -0.052206
  C 3.444076 0.618743 0.289778
  C 3.215922 -0.029552 1.603386
  C 2.290631 0.700759 2.572551
  C 2.062145 -0.126969 3.835394
  C 4.194714 -0.027470 -0.665497
  C 4.730902 0.592645 -1.820423
  C 4.860697 0.035754 -3.078396
  C 4.168817 -1.169971 -3.612349
  C 3.262483 -1.980107 -2.695982
  C 2.497013 -3.024600 -3.502155
  O 5.560980 0.647422 -4.016273
  H 2.795063 2.598298 0.774328
  H 1.746870 1.699982 -0.301541
  H 3.246524 2.298247 -0.951219
  H 4.187932 -0.193576 2.083621
  H 2.814532 -1.034811 1.426198
  H 1.327536 0.895492 2.096538
  H 2.726880 1.660368 2.858839
  H 1.601826 -1.084152 3.596196
  H 1.403307 0.400562 4.522233
  H 3.001749 -0.318624 4.350799
  H 4.455985 -1.063563 -0.491615
  H 5.208851 1.555189 -1.669296
  H 4.936955 -1.824364 -4.036402
  H 3.590329 -0.823738 -4.476384
  H 2.548717 -1.321858 -2.199376
  H 3.849051 -2.494325 -1.937487
  H 1.872309 -2.553487 -4.257103
  H 1.854752 -3.610975 -2.850393
  H 3.181196 -3.705556 -4.002990
  H 6.054741 1.429632 -3.709192
 32
 13.892003
  C 2.794972 1.621454 -0.220673
  C 3.455071 0.410785 0.296335
  C 3.225541 -0.099356 1.667973
  C 2.263961 0.714631 2.525248
  C 2.050987 0.054010 3.882169
  C 4.315744 -0.213961 -0.566238
  C 4.835514 0.485234 -1.709875
  C 4.944379 0.002832 -2.994104
  C 4.139716 -1.097123 -3.600983
  C 3.202780 -1.897779 -2.700636
  C 2.349782 -2.852240 -3.534992
  O 5.701580 0.614086 -3.889801
  H 2.699269 2.420385 0.501904
  H 1.811301 1.393193 -0.642610
  H 3.358387 1.842305 -1.146881
  H 4.185161 -0.192235 2.180153
  H 2.836255 -1.122965 1.582630
  H 1.302216 0.808427 2.019304
  H 2.662666 1.717162 2.685733
  H 1.622725 -0.938547 3.768215
  H 1.371922 0.644780 4.490819
  H 2.990983 -0.040302 4.420011
  H 4.728502 -1.187573 -0.330203
  H 5.506794 1.298588 -1.449715
  H 4.845564 -1.778558 -4.088117
  H 3.567795 -0.652289 -4.420922
  H 2.540773 -1.220125 -2.153576
  H 3.774952 -2.480866 -1.978069
  H 1.742040 -2.304630 -4.252844
  H 1.682622 -3.425487 -2.894388
  H 2.975958 -3.553602 -4.084353
  H 6.256485 1.329168 -3.534070
 32
 29.640954
  C 2.891532 1.447789 -0.281970
  C 3.549413 0.293888 0.344530
  C 3.272290 -0.137587 1.749312
  C 2.274149 0.727975 2.510084
  C 1.972818 0.130031 3.880776
  C 4.406299 -0.357590 -0.488804
  C 4.851801 0.442792 -1.635294
  C 4.944262 -0.012534 -2.945319
  C 4.115345 -1.072228 -3.569326
  C 3.118950 -1.815680 -2.686530
  C 2.246053 -2.741004 -3.541451
  O 5.747029 0.584493 -3.813530
  H 2.703580 2.308152 0.336306
  H 2.053298 1.213321 -0.937961
  H 3.657315 1.478516 -1.245072
  H 4.221301 -0.176400 2.315199
  H 2.901079 -1.153404 1.702436
  H 1.347242 0.797368 1.943145
  H 2.665943 1.737394 2.648047
  H 1.553880 -0.867926 3.779881
  H 1.241588 0.741919 4.412398
  H 2.868919 0.062603 4.483595
  H 4.836613 -1.314573 -0.291651
  H 5.628436 1.140280 -1.347972
  H 4.790742 -1.784857 -4.042580
  H 3.578679 -0.600384 -4.407741
  H 2.467733 -1.107724 -2.170857
  H 3.635070 -2.413597 -1.938053
  H 1.690006 -2.177159 -4.280744
  H 1.528776 -3.273229 -2.911925
  H 2.853001 -3.477281 -4.058622
  H 6.332580 1.267592 -3.439299
 32
 39.489422
  C 2.885645 1.370917 -0.292835
  C 3.543970 0.259229 0.336582
  C 3.281885 -0.154811 1.755224
  C 2.218812 0.664378 2.483181
  C 1.945757 0.088897 3.868278
  C 4.469838 -0.347352 -0.447227
  C 4.871243 0.486876 -1.614289
  C 4.977544 -0.033270 -2.938119
  C 4.119458 -1.091870 -3.520617
  C 3.045642 -1.719175 -2.637931
  C 2.187551 -2.678615 -3.457465
  O 5.810243 0.486340 -3.801887
  H 2.604934 2.221359 0.308247
  H 2.202328 1.181988 -1.109391
  H 3.962542 1.308706 -1.434695
  H 4.214247 -0.119902 2.323797
  H 2.966613 -1.202229 1.733215
  H 1.291644 0.663931 1.906133
  H 2.553012 1.697152 2.595035
  H 1.581152 -0.933755 3.798172
  H 1.195146 0.680686 4.386802
  H 2.851456 0.087684 4.471092
  H 4.978059 -1.264153 -0.208533
  H 5.715433 1.128377 -1.343166
  H 4.778438 -1.874757 -3.911756
  H 3.648469 -0.659299 -4.411372
  H 2.402277 -0.948243 -2.216889
  H 3.500973 -2.272208 -1.818465
  H 1.687851 -2.157125 -4.270529
  H 1.425795 -3.135192 -2.831071
  H 2.793277 -3.474298 -3.884672
  H 6.380682 1.203194 -3.463427
 32
 36.749688
  C 2.753208 1.404070 -0.263666
  C 3.488188 0.341253 0.306404
  C 3.272649 -0.116886 1.726923
  C 2.174137 0.617739 2.492427
  C 1.960063 -0.009231 3.864752
  C 4.453608 -0.240631 -0.461728
  C 4.891303 0.545224 -1.654832
  C 5.041467 -0.102201 -2.940772
  C 4.173502 -1.176411 -3.460727
  C 3.016476 -1.660469 -2.592518
  C 2.168438 -2.670993 -3.363249
  O 5.941140 0.294520 -3.785013
  H 2.388853 2.200219 0.363018
  H 2.184153 1.259886 -1.167432
  H 4.075412 1.340572 -1.639862
  H 4.209849 -0.037608 2.284952
  H 3.019518 -1.181013 1.680301
  H 1.240540 0.576369 1.930373
  H 2.446432 1.664314 2.626348
  H 1.657165 -1.049548 3.771794
  H 1.183811 0.521944 4.410433
  H 2.874465 0.029104 4.453247
  H 4.980143 -1.135755 -0.177690
  H 5.771525 1.143379 -1.393169
  H 4.816079 -2.022797 -3.725215
  H 3.781008 -0.823928 -4.421506
  H 2.383576 -0.821152 -2.301777
  H 3.392165 -2.136660 -1.686760
  H 1.746521 -2.222757 -4.260914
  H 1.346551 -3.025334 -2.745515
  H 2.762510 -3.532972 -3.659429
  H 6.527270 1.020222 -3.484438
 32
 31.359494
  C 2.605387 1.427630 -0.246115
  C 3.419990 0.428839 0.269840
  C 3.261755 -0.079062 1.686441
  C 2.127642 0.548634 2.490933
  C 1.988666 -0.130557 3.849644
  C 4.433771 -0.114294 -0.487470
  C 4.902691 0.606554 -1.706300
  C 5.101093 -0.180949 -2.920151
  C 4.221872 -1.274737 -3.365971
  C 2.968920 -1.575334 -2.552359
  C 2.137668 -2.650183 -3.244260
  O 6.077879 0.073643 -3.724426
  H 2.107188 2.120243 0.408774
  H 2.222719 1.394868 -1.249133
  H 4.141299 1.397072 -1.848383
  H 4.199007 0.056967 2.232461
  H 3.086210 -1.156210 1.616018
  H 1.186407 0.451358 1.943372
  H 2.323868 1.611805 2.649793
  H 1.762959 -1.187791 3.732245
  H 1.186083 0.325245 4.423690
  H 2.908787 -0.039140 4.422521
  H 4.992235 -0.970317 -0.146530
  H 5.810775 1.169066 -1.452179
  H 4.834082 -2.180915 -3.454587
  H 3.934592 -1.044819 -4.399687
  H 2.363337 -0.677454 -2.446947
  H 3.236520 -1.924053 -1.556199
  H 1.821415 -2.323474 -4.231485
  H 1.247646 -2.871804 -2.662779
  H 2.704869 -3.570660 -3.354696
  H 6.676973 0.804988 -3.471588
 32
 28.439499
  C 2.401263 1.343820 -0.226332
  C 3.298463 0.434275 0.272560
  C 3.273818 -0.006845 1.725409
  C 2.099877 0.502384 2.557289
  C 2.131913 -0.097354 3.959167
  C 4.333399 -0.093607 -0.504640
  C 4.786443 0.607400 -1.743389
  C 5.153846 -0.285485 -2.843658
  C 4.294912 -1.378066 -3.312264
  C 2.920793 -1.520213 -2.670087
  C 2.125615 -2.625525 -3.357247
  O 6.275627 -0.171093 -3.462775
  H 1.794152 1.934808 0.433987
  H 2.138635 1.398350 -1.267062
  H 3.956442 1.282363 -2.013532
  H 4.205743 0.296941 2.209999
  H 3.253440 -1.099950 1.729379
  H 1.159385 0.233236 2.073834
  H 2.142707 1.588966 2.642526
  H 2.062669 -1.182382 3.917608
  H 1.298185 0.272822 4.551689
  H 3.055425 0.167321 4.471015
  H 4.907877 -0.934191 -0.153470
  H 5.616846 1.278044 -1.477904
  H 4.854408 -2.316964 -3.221016
  H 4.175259 -1.244984 -4.395206
  H 2.367446 -0.585082 -2.753335
  H 3.020627 -1.760739 -1.609394
  H 1.974378 -2.400763 -4.410028
  H 1.149432 -2.732720 -2.893326
  H 2.639804 -3.580148 -3.282124
  H 6.863486 0.557794 -3.176026
