17

H 1.4336628897617543 -0.07527348067847875 0.04059926939298024
C 2.503543 -0.082506 0.026308
C 3.219934 -0.594857 -0.980192
C 4.65796 -0.605048 -1.000293
C 5.377938 -1.120243 -2.011993
C 6.816377 -1.130053 -2.03112
C 7.533707 -1.642326 -3.036007
C 9.023536 -1.662183 -3.07463
H 3.003 0.35307 0.881905
H 2.709183 -1.02832 -1.831631
H 5.163075 -0.17055 -0.146403
H 4.873567 -1.555208 -2.866028
H 7.323702 -0.695528 -1.17827
H 7.034267 -2.078855 -3.892197
H 9.458795 -1.20866 -2.18553
H 9.382267 -1.116657 -3.949018
H 9.382123 -2.690167 -3.14639
