 17
 0.000000
  H 1.433409 -0.076967 0.037385
  C 2.505754 -0.083350 0.024787
  C 3.220469 -0.593982 -0.978510
  C 4.657964 -0.604540 -0.999302
  C 5.378621 -1.119621 -2.010949
  C 6.816350 -1.129994 -2.031245
  C 7.533579 -1.641907 -3.035271
  C 9.022756 -1.662349 -3.074930
  H 3.002579 0.351909 0.879936
  H 2.710716 -1.027396 -1.830030
  H 5.162860 -0.170341 -0.145775
  H 4.874286 -1.554364 -2.864612
  H 7.323333 -0.695635 -1.178778
  H 7.034015 -2.078267 -3.890896
  H 9.457320 -1.208861 -2.186240
  H 9.381435 -1.117682 -3.949407
  H 9.381191 -2.690019 -3.147053
 17
 2.539637
  H 1.488019 -0.151976 0.102677
  C 2.563720 -0.141056 0.071881
  C 3.251420 -0.641855 -0.954396
  C 4.688880 -0.643851 -1.033983
  C 5.362198 -1.044883 -2.115599
  C 6.793844 -0.986215 -2.160644
  C 7.527460 -1.528163 -3.128589
  C 8.991635 -1.674553 -3.003072
  H 3.063628 0.299429 0.920345
  H 2.726279 -1.079239 -1.793572
  H 5.213091 -0.231341 -0.184755
  H 4.843843 -1.460557 -2.967308
  H 7.285612 -0.559063 -1.297187
  H 7.059154 -2.025346 -3.964536
  H 9.378372 -1.121587 -2.155546
  H 9.523376 -1.381606 -3.900056
  H 9.135752 -2.731712 -2.816906
 17
 5.501054
  H 1.541034 -0.358156 0.172585
  C 2.617461 -0.276738 0.111800
  C 3.302436 -0.691389 -0.952342
  C 4.726858 -0.594779 -1.074837
  C 5.371241 -0.850023 -2.217960
  C 6.789677 -0.805290 -2.281304
  C 7.508037 -1.450872 -3.190305
  C 8.929236 -1.755752 -2.921899
  H 3.113320 0.162995 0.960737
  H 2.781605 -1.130419 -1.791971
  H 5.260137 -0.234919 -0.210547
  H 4.834741 -1.221364 -3.078609
  H 7.288932 -0.366508 -1.429252
  H 7.033190 -1.972131 -4.005925
  H 9.356645 -1.046634 -2.218630
  H 9.548739 -1.813522 -3.810489
  H 8.886449 -2.723136 -2.411576
 17
 8.733852
  H 1.640955 -0.635612 0.253389
  C 2.701789 -0.476269 0.154047
  C 3.347619 -0.702377 -0.986476
  C 4.770220 -0.505258 -1.163506
  C 5.376473 -0.612694 -2.344170
  C 6.797161 -0.617267 -2.401186
  C 7.473035 -1.442249 -3.178285
  C 8.836470 -1.850387 -2.790712
  H 3.217677 -0.123432 1.031090
  H 2.804512 -1.060835 -1.851056
  H 5.333841 -0.224629 -0.284866
  H 4.821537 -0.912555 -3.222257
  H 7.311922 -0.114918 -1.594500
  H 6.977780 -2.008727 -3.952737
  H 9.387775 -1.032934 -2.333615
  H 9.414888 -2.271624 -3.606003
  H 8.659071 -2.599534 -2.016090
 17
 13.790800
  H 1.777145 -0.842804 0.309746
  C 2.823886 -0.632319 0.172037
  C 3.414846 -0.723320 -1.016419
  C 4.818258 -0.468083 -1.242203
  C 5.366186 -0.452254 -2.456265
  C 6.794366 -0.472619 -2.522576
  C 7.427292 -1.434663 -3.173831
  C 8.724297 -1.907242 -2.650461
  H 3.375746 -0.349673 1.051858
  H 2.837857 -1.014533 -1.885229
  H 5.421913 -0.255634 -0.371071
  H 4.783121 -0.689464 -3.336694
  H 7.322699 0.083778 -1.756780
  H 6.916793 -2.049394 -3.894165
  H 9.358314 -1.086003 -2.326952
  H 9.270286 -2.546112 -3.332667
  H 8.411980 -2.454041 -1.756965
 17
 19.401321
  H 1.914396 -0.964109 0.358747
  C 2.950865 -0.764539 0.185989
  C 3.472450 -0.732824 -1.038630
  C 4.863582 -0.473142 -1.314891
  C 5.349170 -0.365662 -2.549734
  C 6.779026 -0.401655 -2.633341
  C 7.392577 -1.434197 -3.183979
  C 8.613212 -1.922994 -2.506414
  H 3.550473 -0.575137 1.054360
  H 2.841945 -0.919663 -1.900539
  H 5.513294 -0.336272 -0.456692
  H 4.733763 -0.528916 -3.420879
  H 7.313220 0.181584 -1.891131
  H 6.889977 -2.083545 -3.878695
  H 9.328496 -1.123234 -2.299827
  H 9.106977 -2.731440 -3.017770
  H 8.189768 -2.250329 -1.557200
 17
 26.086355
  H 2.062128 -1.082231 0.408522
  C 3.097413 -0.893821 0.187124
  C 3.538592 -0.739230 -1.058487
  C 4.923632 -0.499736 -1.401986
  C 5.336513 -0.288495 -2.653397
  C 6.773920 -0.317860 -2.767773
  C 7.349165 -1.444814 -3.157478
  C 8.482221 -1.927920 -2.338934
  H 3.763360 -0.824961 1.032721
  H 2.847095 -0.804601 -1.890390
  H 5.624807 -0.455880 -0.581654
  H 4.676724 -0.358470 -3.506150
  H 7.320507 0.338338 -2.100658
  H 6.822196 -2.157976 -3.774029
  H 9.245372 -1.172986 -2.179314
  H 8.936259 -2.841234 -2.704639
  H 7.947796 -2.095772 -1.384752
 17
 33.804567
  H 2.229414 -1.171622 0.448297
  C 3.249596 -0.983135 0.181721
  C 3.627936 -0.785494 -1.079422
  C 4.994629 -0.550355 -1.483552
  C 5.334292 -0.231967 -2.735912
  C 6.781228 -0.243452 -2.892222
  C 7.295310 -1.447020 -3.120610
  C 8.325311 -1.932020 -2.176092
  H 3.959972 -0.963635 0.991665
  H 2.897852 -0.812128 -1.874796
  H 5.739863 -0.570211 -0.701226
  H 4.632987 -0.207589 -3.550085
  H 7.347800 0.480798 -2.321238
  H 6.716535 -2.195796 -3.640270
  H 9.097240 -1.198077 -1.967593
  H 8.773257 -2.884972 -2.439655
  H 7.666158 -2.021692 -1.281535
 17
 43.003046
  H 2.380664 -1.241364 0.495057
  C 3.391969 -1.063925 0.181576
  C 3.715203 -0.830731 -1.089520
  C 5.063636 -0.594374 -1.552060
  C 5.345177 -0.222026 -2.804569
  C 6.791251 -0.199338 -2.992258
  C 7.259134 -1.446181 -3.090466
  C 8.158908 -1.923378 -2.026721
  H 4.141370 -1.057234 0.960293
  H 2.943932 -0.825708 -1.850309
  H 5.841299 -0.636779 -0.797929
  H 4.610335 -0.151267 -3.586796
  H 7.366226 0.566743 -2.487940
  H 6.646455 -2.202815 -3.558658
  H 8.937524 -1.211010 -1.764447
  H 8.580052 -2.908140 -2.182013
  H 7.383386 -1.921679 -1.215028
 17
 54.782231
  H 2.527179 -1.313303 0.544323
  C 3.513868 -1.076017 0.208672
  C 3.793414 -0.860892 -1.074757
  C 5.123393 -0.589668 -1.573578
  C 5.368623 -0.265509 -2.850733
  C 6.814826 -0.163988 -3.051160
  C 7.267052 -1.425217 -3.111276
  C 7.979186 -1.920219 -1.916095
  H 4.284032 -1.063880 0.960597
  H 3.009325 -0.918468 -1.817156
  H 5.893462 -0.532741 -0.820592
  H 4.628927 -0.291905 -3.631291
  H 7.361060 0.598393 -2.511757
  H 6.659616 -2.164429 -3.619135
  H 8.756884 -1.258259 -1.560184
  H 8.341651 -2.942211 -1.979041
  H 7.074776 -1.819132 -1.225807
 17
 67.342472
  H 2.620297 -1.364828 0.592002
  C 3.593225 -1.077592 0.244365
  C 3.863204 -0.918108 -1.049761
  C 5.177453 -0.593531 -1.565273
  C 5.411765 -0.326158 -2.865967
  C 6.841799 -0.128790 -3.073703
  C 7.288733 -1.412140 -3.128124
  C 7.801376 -1.926900 -1.849459
  H 4.354560 -0.955561 1.000696
  H 3.083452 -1.065281 -1.787153
  H 5.907473 -0.380358 -0.797821
  H 4.697563 -0.491728 -3.650690
  H 7.353784 0.615651 -2.486502
  H 6.707111 -2.123460 -3.705220
  H 8.573559 -1.312029 -1.397063
  H 8.089198 -2.972069 -1.849572
  H 6.807036 -1.724513 -1.283215
 17
 78.677832
  H 2.654178 -1.340114 0.633819
  C 3.629305 -1.069624 0.277023
  C 3.904420 -0.978557 -1.022659
  C 5.210845 -0.616484 -1.550689
  C 5.440303 -0.374855 -2.868217
  C 6.852091 -0.117070 -3.072067
  C 7.305978 -1.410198 -3.121763
  C 7.664796 -1.927036 -1.803701
  H 4.372866 -0.858053 1.029374
  H 3.139728 -1.197933 -1.751631
  H 5.899048 -0.279457 -0.775544
  H 4.771114 -0.661835 -3.655776
  H 7.334979 0.616904 -2.432524
  H 6.780387 -2.107328 -3.767897
  H 8.414534 -1.353086 -1.268965
  H 7.891140 -2.985001 -1.773680
  H 6.596709 -1.639684 -1.321641
 17
 87.867821
  H 2.667364 -1.361737 0.659417
  C 3.616379 -1.023221 0.299192
  C 3.913357 -1.006420 -0.995041
  C 5.224422 -0.623599 -1.530931
  C 5.449256 -0.392721 -2.866628
  C 6.854564 -0.131901 -3.044941
  C 7.331857 -1.429126 -3.101572
  C 7.584206 -1.941929 -1.776305
  H 4.345240 -0.750676 1.049128
  H 3.173901 -1.314917 -1.721194
  H 5.861645 -0.161231 -0.771754
  H 4.825881 -0.778089 -3.653963
  H 7.312698 0.573760 -2.358156
  H 6.845606 -2.112438 -3.790558
  H 8.293882 -1.394203 -1.165359
  H 7.760048 -3.007670 -1.727334
  H 6.414730 -1.559419 -1.324106
 17
 91.463660
  H 2.571798 -1.275772 0.669718
  C 3.541465 -0.970326 0.324776
  C 3.882344 -1.028143 -0.953674
  C 5.184390 -0.632909 -1.469882
  C 5.454032 -0.422618 -2.839499
  C 6.828950 -0.152949 -2.995047
  C 7.384719 -1.449517 -3.077704
  C 7.628812 -1.996288 -1.816453
  H 4.230884 -0.615088 1.078230
  H 3.177615 -1.399186 -1.683582
  H 5.764525 -0.062579 -0.724679
  H 4.883971 -0.890064 -3.628626
  H 7.250901 0.539549 -2.266674
  H 6.949976 -2.117564 -3.814924
  H 8.243688 -1.463462 -1.102543
  H 7.819871 -3.061624 -1.808927
  H 6.206397 -1.528307 -1.264493
