 31
 0.000000
  C 0.970892 0.141603 0.404082
  C 2.445037 0.142866 0.406681
  C 3.226736 0.610809 1.570908
  C 2.453958 1.101209 2.791659
  C 3.411769 1.544031 3.893514
  C 3.059419 -0.323002 -0.753167
  C 4.439109 -0.413481 -0.979224
  C 5.093622 -0.863107 -2.100054
  C 4.611100 -1.381462 -3.392251
  C 3.125502 -1.506104 -3.703932
  C 2.921431 -2.069608 -5.108674
  H 6.174329 -0.853812 -2.077059
  H 0.534913 0.511467 1.324713
  H 0.601940 -0.870589 0.232531
  H 0.601538 0.753544 -0.420063
  H 3.886022 1.419914 1.235658
  H 3.886280 -0.205117 1.888634
  H 1.817252 0.305095 3.181877
  H 1.817064 1.945872 2.522647
  H 4.047672 0.721144 4.212371
  H 2.853960 1.891856 4.759468
  H 4.047450 2.358922 3.554317
  H 2.395253 -0.639512 -1.540692
  H 5.076845 -0.087825 -0.168386
  H 5.076527 -2.368191 -3.517070
  H 5.077046 -0.754944 -4.164423
  H 2.645789 -0.527424 -3.655925
  H 2.645310 -2.180007 -2.992933
  H 3.366663 -1.420438 -5.859168
  H 1.859997 -2.156938 -5.327115
  H 3.366248 -3.057689 -5.202334
 31
 -0.217724
  C 0.938156 -0.025637 0.500610
  C 2.408525 0.025864 0.450393
  C 3.208534 0.582237 1.561493
  C 2.459197 1.155550 2.760229
  C 3.441865 1.698929 3.793404
  C 3.016173 -0.475769 -0.698581
  C 4.399487 -0.588529 -0.897485
  C 5.060067 -1.029638 -2.018324
  C 4.603962 -1.441157 -3.350430
  C 3.127876 -1.463236 -3.721236
  C 2.950992 -1.883856 -5.178241
  H 6.139603 -1.071177 -1.930586
  H 0.525423 0.338869 1.432699
  H 0.597081 -1.048094 0.330726
  H 0.521445 0.558870 -0.322112
  H 3.864705 1.362510 1.158855
  H 3.884190 -0.202939 1.922227
  H 1.849710 0.383119 3.232260
  H 1.802097 1.966655 2.441972
  H 4.100077 0.912951 4.156938
  H 2.906364 2.108374 4.646298
  H 4.054398 2.491898 3.370158
  H 2.354921 -0.819983 -1.476470
  H 5.033113 -0.313134 -0.065122
  H 5.034903 -2.435160 -3.535582
  H 5.138672 -0.800119 -4.066392
  H 2.693953 -0.470606 -3.592005
  H 2.593331 -2.175706 -3.091147
  H 3.453135 -1.190179 -5.848929
  H 1.896633 -1.901641 -5.442246
  H 3.356630 -2.878467 -5.349542
 31
 -0.036508
  C 0.919517 -0.145943 0.586106
  C 2.383545 -0.061984 0.470090
  C 3.200047 0.576396 1.526852
  C 2.471387 1.221353 2.702088
  C 3.471714 1.854274 3.665215
  C 2.982527 -0.602046 -0.663964
  C 4.367918 -0.733403 -0.840315
  C 5.046454 -1.161345 -1.954819
  C 4.613879 -1.467360 -3.322337
  C 3.149092 -1.390173 -3.728315
  C 2.991733 -1.681167 -5.218614
  H 6.118562 -1.262652 -1.832108
  H 0.544142 0.190988 1.543440
  H 0.587629 -1.168610 0.401056
  H 0.455203 0.452122 -0.201625
  H 3.839195 1.335334 1.061903
  H 3.889976 -0.176468 1.927349
  H 1.890450 0.475609 3.247300
  H 1.790996 1.996260 2.345181
  H 4.153268 1.107489 4.066407
  H 2.951977 2.316380 4.500791
  H 4.058476 2.623892 3.168745
  H 2.322168 -0.977529 -1.428201
  H 4.982606 -0.497828 0.019691
  H 5.003852 -2.465835 -3.564252
  H 5.198689 -0.806758 -3.979311
  H 2.756195 -0.392989 -3.523863
  H 2.566891 -2.126198 -3.171974
  H 3.541765 -0.959063 -5.817952
  H 1.944972 -1.628154 -5.506991
  H 3.357114 -2.676202 -5.462684
 31
 0.790857
  C 0.875338 -0.238245 0.690622
  C 2.329003 -0.177574 0.484271
  C 3.176896 0.547417 1.464831
  C 2.489856 1.266668 2.622829
  C 3.523802 1.978626 3.491016
  C 2.913013 -0.782017 -0.620646
  C 4.302871 -0.918959 -0.768831
  C 5.014560 -1.334785 -1.865489
  C 4.627023 -1.515149 -3.268474
  C 3.184791 -1.312864 -3.710643
  C 3.061313 -1.466260 -5.224150
  H 6.070317 -1.512343 -1.697594
  H 0.567340 0.101644 1.669767
  H 0.510932 -1.252015 0.517517
  H 0.374510 0.375989 -0.062469
  H 3.781970 1.283207 0.923974
  H 3.892674 -0.162691 1.895423
  H 1.946403 0.555963 3.247712
  H 1.783325 2.007014 2.244346
  H 4.230986 1.270184 3.916681
  H 3.035091 2.497487 4.311894
  H 4.079100 2.714111 2.913358
  H 2.255512 -1.214632 -1.357020
  H 4.887024 -0.695946 0.120540
  H 4.964643 -2.515014 -3.573784
  H 5.275389 -0.842790 -3.849144
  H 2.844345 -0.315056 -3.428637
  H 2.540446 -2.054116 -3.236888
  H 3.674286 -0.732343 -5.742622
  H 2.030240 -1.323258 -5.537325
  H 3.374372 -2.458185 -5.542311
 31
 3.447749
  C 0.817238 -0.302780 0.789597
  C 2.255489 -0.321773 0.493176
  C 3.141156 0.505987 1.365122
  C 2.514230 1.295729 2.513565
  C 3.590692 2.080996 3.258619
  C 2.822495 -1.020988 -0.558145
  C 4.217793 -1.126437 -0.693356
  C 4.973006 -1.524876 -1.764808
  C 4.646574 -1.558028 -3.194719
  C 3.237968 -1.205001 -3.652562
  C 3.147393 -1.220602 -5.175718
  H 5.999761 -1.796759 -1.550637
  H 0.585361 0.118756 1.756461
  H 0.400835 -1.309055 0.712955
  H 0.294550 0.278228 0.024664
  H 3.678310 1.220706 0.732640
  H 3.906187 -0.138847 1.810855
  H 2.026815 0.622991 3.221266
  H 1.772864 2.000858 2.134657
  H 4.332249 1.414103 3.692938
  H 3.146197 2.657193 4.066342
  H 4.098988 2.774865 2.593011
  H 2.172852 -1.552801 -1.234697
  H 4.769140 -0.857605 0.212655
  H 4.918220 -2.551746 -3.575362
  H 5.364592 -0.886290 -3.685964
  H 2.966957 -0.211466 -3.290597
  H 2.523778 -1.925808 -3.256559
  H 3.831672 -0.498178 -5.615256
  H 2.140507 -0.969088 -5.499033
  H 3.391017 -2.204613 -5.570055
 31
 8.608867
  C 0.765305 -0.329226 0.819212
  C 2.192279 -0.480628 0.505168
  C 3.106223 0.449887 1.250487
  C 2.542270 1.305555 2.389006
  C 3.656551 2.147105 3.008148
  C 2.748882 -1.285769 -0.469579
  C 4.147825 -1.352549 -0.606348
  C 4.949329 -1.684660 -1.668384
  C 4.671562 -1.562010 -3.108122
  C 3.289580 -1.081939 -3.541117
  C 3.205244 -0.984397 -5.064240
  H 5.934213 -2.072741 -1.436652
  H 0.583151 0.229919 1.725222
  H 0.283906 -1.307478 0.883264
  H 0.261337 0.178775 -0.007129
  H 3.564386 1.136184 0.528581
  H 3.927794 -0.120100 1.697681
  H 2.114479 0.669922 3.168178
  H 1.767876 1.982376 2.022861
  H 4.426734 1.517616 3.447496
  H 3.256258 2.780956 3.795098
  H 4.119410 2.790424 2.263486
  H 2.112840 -1.925193 -1.060394
  H 4.667725 -1.024834 0.308377
  H 4.891026 -2.531328 -3.576561
  H 5.436419 -0.885450 -3.515104
  H 3.084378 -0.099732 -3.108563
  H 2.525180 -1.775639 -3.192442
  H 3.931726 -0.270798 -5.451583
  H 2.214309 -0.655210 -5.370186
  H 3.396819 -1.950975 -5.527040
 31
 16.724983
  C 0.702903 -0.362336 0.885669
  C 2.106029 -0.580957 0.504519
  C 3.070880 0.365921 1.169943
  C 2.588434 1.293582 2.293335
  C 3.722720 2.212810 2.733681
  C 2.627344 -1.473567 -0.409372
  C 4.019175 -1.549627 -0.575064
  C 4.869133 -1.877412 -1.593508
  C 4.692822 -1.598008 -3.024356
  C 3.374240 -0.956469 -3.436320
  C 3.320828 -0.756257 -4.949286
  H 5.802238 -2.363581 -1.336344
  H 0.584820 0.298988 1.726950
  H 0.221304 -1.316429 1.102995
  H 0.147743 0.044848 0.038992
  H 3.479264 1.028214 0.394995
  H 3.923195 -0.167634 1.603658
  H 2.223036 0.722272 3.150883
  H 1.778050 1.929522 1.931407
  H 4.546253 1.648944 3.162519
  H 3.369122 2.905963 3.492234
  H 4.097907 2.794943 1.896221
  H 1.980673 -2.145619 -0.947766
  H 4.524805 -1.099563 0.318243
  H 4.844303 -2.537618 -3.569777
  H 5.522844 -0.946960 -3.326361
  H 3.275126 0.014994 -2.950365
  H 2.536124 -1.579033 -3.123423
  H 4.157037 -0.146705 -5.292278
  H 2.397172 -0.257872 -5.234919
  H 3.359921 -1.710576 -5.468520
 31
 32.539822
  C 0.624766 -0.450176 1.067421
  C 1.966947 -0.740533 0.557980
  C 3.016256 0.284091 0.924743
  C 2.668838 1.371184 1.957246
  C 3.902233 2.199224 2.281773
  C 2.402348 -1.768546 -0.259447
  C 3.781582 -1.813778 -0.530491
  C 4.747248 -2.007853 -1.455379
  C 4.707944 -1.538759 -2.873694
  C 3.419114 -0.837156 -3.280818
  C 3.481239 -0.379694 -4.726110
  H 5.635540 -2.561615 -1.169948
  H 0.621543 0.337432 1.798686
  H 0.195088 -1.349187 1.512985
  H -0.049993 -0.186215 0.249446
  H 3.424007 0.770630 0.038863
  H 3.833400 -0.229634 1.437077
  H 2.280404 0.927710 2.870034
  H 1.915782 2.032435 1.547889
  H 4.666321 1.599566 2.767931
  H 3.642976 3.001437 2.954508
  H 4.321295 2.633775 1.390622
  H 1.721982 -2.505158 -0.653367
  H 4.269895 -1.351359 0.457849
  H 4.886197 -2.417726 -3.516398
  H 5.554097 -0.860890 -3.031406
  H 3.247084 0.024017 -2.648942
  H 2.580060 -1.516046 -3.151169
  H 4.295489 0.321759 -4.878509
  H 2.551447 0.103897 -5.011585
  H 3.633679 -1.223651 -5.391261
 31
 59.840521
  C 0.571351 -0.552186 1.265087
  C 1.899833 -0.714031 0.637995
  C 2.981797 0.266181 0.896888
  C 2.733276 1.356084 1.951294
  C 3.964031 2.225737 2.153838
  C 2.226332 -1.736507 -0.230759
  C 3.501161 -1.881698 -0.695563
  C 4.543166 -2.076594 -1.461240
  C 4.708676 -1.553903 -2.855246
  C 3.480035 -0.818765 -3.388903
  C 3.709631 -0.325859 -4.811227
  H 5.393967 -2.644060 -1.095797
  H 0.535561 0.275286 1.967699
  H 0.293773 -1.469432 1.788387
  H -0.198148 -0.393107 0.506215
  H 3.291771 0.761656 -0.025609
  H 3.952277 -0.184272 1.394395
  H 2.433250 0.917219 2.904957
  H 1.917332 1.988748 1.589961
  H 4.794205 1.660657 2.565779
  H 3.739463 3.030162 2.850925
  H 4.281521 2.681533 1.213596
  H 1.479560 -2.476751 -0.509594
  H 4.111245 -1.034236 0.698281
  H 4.939723 -2.404599 -3.503016
  H 5.581627 -0.892490 -2.877625
  H 3.249400 0.034084 -2.747461
  H 2.620524 -1.490869 -3.371839
  H 4.562546 0.350581 -4.851616
  H 2.835709 0.202791 -5.178032
  H 3.905098 -1.158624 -5.484034
 31
 69.158174
  C 0.602219 -0.634451 1.332773
  C 1.927447 -0.726640 0.668472
  C 3.023328 0.265653 0.908868
  C 2.743153 1.344156 1.973825
  C 3.923887 2.297888 2.139205
  C 2.214444 -1.759827 -0.218684
  C 3.428361 -1.938527 -0.778483
  C 4.479714 -2.135498 -1.510802
  C 4.696211 -1.585763 -2.896114
  C 3.505340 -0.800052 -3.434299
  C 3.773516 -0.286129 -4.843292
  H 5.314772 -2.718592 -1.135926
  H 0.535150 0.186255 2.034573
  H 0.384310 -1.562290 1.863410
  H -0.190731 -0.512521 0.592556
  H 3.284893 0.772075 -0.027476
  H 4.084887 -0.031400 1.444330
  H 2.508284 0.887746 2.934952
  H 1.875402 1.914584 1.641947
  H 4.804729 1.790273 2.528627
  H 3.667725 3.085803 2.842186
  H 4.181896 2.771510 1.195336
  H 1.444827 -2.487991 -0.437220
  H 3.990933 -0.816225 0.823543
  H 4.911480 -2.427514 -3.560106
  H 5.586778 -0.952050 -2.886670
  H 3.294716 0.046099 -2.778809
  H 2.622867 -1.441986 -3.444033
  H 4.640633 0.370767 -4.856655
  H 2.918106 0.271070 -5.217465
  H 3.963323 -1.112187 -5.526016
 31
 70.322601
  C 0.672771 -0.693577 1.432945
  C 1.968407 -0.763677 0.709795
  C 3.111348 0.244072 0.928150
  C 2.790120 1.327704 1.981493
  C 3.917875 2.352305 2.088714
  C 2.189321 -1.785465 -0.213883
  C 3.343840 -2.005998 -0.863593
  C 4.390792 -2.223378 -1.589368
  C 4.648739 -1.636256 -2.954523
  C 3.501174 -0.774843 -3.472524
  C 3.804840 -0.221875 -4.859602
  H 5.192272 -2.862006 -1.229737
  H 0.622096 0.120738 2.144067
  H 0.489195 -1.626702 1.968673
  H -0.151188 -0.576665 0.726639
  H 3.319364 0.725143 -0.036304
  H 4.236662 0.115741 1.419640
  H 2.617589 0.876330 2.957720
  H 1.879739 1.840300 1.673978
  H 4.841166 1.904000 2.453272
  H 3.642522 3.136847 2.788236
  H 4.113071 2.824514 1.128931
  H 1.376874 -2.475546 -0.403166
  H 3.812992 -0.754822 1.014078
  H 4.828384 -2.462608 -3.647949
  H 5.569111 -1.046606 -2.915765
  H 3.324804 0.055633 -2.786975
  H 2.589317 -1.374028 -3.511707
  H 4.701929 0.393659 -4.842417
  H 2.979340 0.388154 -5.218669
  H 3.961990 -1.030182 -5.571212
 31
 66.099802
  C 0.821111 -0.778534 1.657649
  C 2.023078 -0.850964 0.793129
  C 3.208038 0.276195 0.928567
  C 2.830976 1.368662 1.948928
  C 3.893952 2.464108 1.966977
  C 2.095943 -1.841654 -0.210971
  C 3.165134 -2.082542 -0.974031
  C 4.237410 -2.298158 -1.656613
  C 4.588725 -1.657473 -2.972947
  C 3.506756 -0.718501 -3.497484
  C 3.904379 -0.109608 -4.836064
  H 4.983794 -2.997777 -1.294667
  H 0.868589 0.002488 2.403880
  H 0.661025 -1.729121 2.171582
  H -0.060941 -0.605240 1.040015
  H 3.311221 0.707808 -0.071150
  H 4.280411 0.130175 1.261640
  H 2.735320 0.947492 2.948891
  H 1.877024 1.817170 1.668709
  H 4.856972 2.085776 2.305189
  H 3.596373 3.257245 2.647692
  H 4.019318 2.905881 0.981339
  H 1.222476 -2.463947 -0.353668
  H 3.351356 -0.931308 1.068330
  H 4.768387 -2.452564 -3.701618
  H 5.530088 -1.113916 -2.855028
  H 3.332912 0.082655 -2.777182
  H 2.572600 -1.272044 -3.613065
  H 4.825284 0.461999 -4.742495
  H 3.125848 0.555612 -5.200804
  H 4.061600 -0.886123 -5.581476
 31
 41.795792
  C 1.033947 -0.981203 1.918056
  C 2.166169 -1.008032 0.947810
  C 3.146177 0.257733 0.877462
  C 2.759641 1.400954 1.812421
  C 3.720101 2.568696 1.619832
  C 2.092279 -1.915908 -0.180057
  C 3.090813 -2.150249 -1.021581
  C 4.097895 -2.417852 -1.776573
  C 4.526029 -1.677769 -3.012979
  C 3.603019 -0.519293 -3.371208
  C 4.075592 0.184764 -4.639819
  H 4.724828 -3.268332 -1.534595
  H 1.184810 -0.276748 2.719810
  H 0.886753 -1.971512 2.348889
  H 0.106574 -0.722710 1.406353
  H 3.092605 0.613844 -0.158524
  H 4.211082 0.092242 1.062385
  H 2.801799 1.085336 2.854297
  H 1.747057 1.738303 1.593255
  H 4.735934 2.295017 1.891723
  H 3.419881 3.402162 2.248805
  H 3.716984 2.910853 0.589476
  H 1.160568 -2.446588 -0.326018
  H 3.191547 -1.339611 1.312024
  H 4.563695 -2.389579 -3.840158
  H 5.543609 -1.310079 -2.860706
  H 3.579502 0.197398 -2.549170
  H 2.589334 -0.894742 -3.519319
  H 5.079698 0.583026 -4.510326
  H 3.411823 1.009425 -4.888818
  H 4.089058 -0.503630 -5.482713
 31
 24.982162
  C 1.294220 -1.062945 2.137288
  C 2.436248 -1.096408 1.147023
  C 3.172141 0.244776 0.853150
  C 2.703178 1.442143 1.672658
  C 3.461444 2.694398 1.248215
  C 2.165886 -1.920551 -0.057235
  C 3.026746 -2.185862 -1.009521
  C 3.851784 -2.555178 -1.940974
  C 4.322077 -1.768260 -3.114792
  C 3.718297 -0.368307 -3.203640
  C 4.226012 0.359972 -4.440685
  H 4.270494 -3.557637 -1.881648
  H 1.523020 -0.430274 2.984659
  H 1.086232 -2.065692 2.502503
  H 0.384485 -0.687973 1.673131
  H 3.026510 0.486301 -0.202734
  H 4.248595 0.137555 0.999847
  H 2.877295 1.279125 2.735752
  H 1.636197 1.601894 1.521033
  H 4.526003 2.588161 1.433889
  H 3.107022 3.552970 1.810570
  H 3.314987 2.899115 0.192052
  H 1.181010 -2.371255 -0.119400
  H 3.273400 -1.663509 1.603777
  H 4.084236 -2.345116 -4.015119
  H 5.414409 -1.697773 -3.074896
  H 3.983376 0.203605 -2.313521
  H 2.629967 -0.444991 -3.247945
  H 5.307701 0.469159 -4.411909
  H 3.788042 1.352876 -4.501273
  H 3.960173 -0.180863 -5.346552
 31
 23.397323
  C 1.074015 -1.016994 1.931119
  C 2.430880 -1.172768 1.266684
  C 3.349010 0.102701 1.244228
  C 2.626221 1.401172 1.604930
  C 3.593886 2.572752 1.459281
  C 2.295594 -1.706012 -0.121235
  C 3.296935 -1.970590 -0.926225
  C 4.295800 -2.175282 -1.729507
  C 4.553763 -1.494274 -3.016352
  C 3.485094 -0.489107 -3.423039
  C 3.864291 0.206764 -4.725366
  H 5.036888 -2.918917 -1.454537
  H 1.178526 -0.566614 2.912043
  H 0.614584 -1.993455 2.069775
  H 0.402791 -0.408041 1.333027
  H 3.765263 0.227683 0.244324
  H 4.182490 -0.044625 1.931082
  H 2.266218 1.366762 2.631893
  H 1.773795 1.561009 0.945372
  H 4.448995 2.454644 2.120748
  H 3.088587 3.500182 1.719775
  H 3.956875 2.659772 0.437759
  H 1.284685 -1.926647 -0.461828
  H 2.998157 -1.912408 1.841613
  H 4.668420 -2.246214 -3.802699
  H 5.532755 -1.011296 -2.925174
  H 3.365674 0.254514 -2.632044
  H 2.527380 -0.994891 -3.551661
  H 4.804273 0.744261 -4.621625
  H 3.095777 0.922024 -5.007776
  H 3.967327 -0.510937 -5.536046
