 9
 0.000000
  C 1.012361 0.126097 0.405675
  C 2.453737 0.114260 0.385678
  H 3.017522 0.468295 1.238746
  C 3.104232 -0.345950 -0.737381
  H 4.170743 -0.377005 -0.881839
  H 0.585281 0.509543 1.327435
  H 0.610706 -0.874673 0.179386
  H 0.625530 0.689704 -0.462314
  H 2.499552 -0.696956 -1.564043
 9
 -1.212004
  C 0.991220 0.176506 0.388503
  C 2.430418 0.042711 0.352037
  H 2.989062 0.242676 1.262316
  C 3.106807 -0.318335 -0.774937
  H 4.170377 -0.174480 -0.893803
  H 0.614425 0.646122 1.291617
  H 0.574333 -0.846121 0.330800
  H 0.583917 0.631146 -0.520292
  H 2.591045 -0.779732 -1.608053
 9
 -1.726409
  C 0.983725 0.169801 0.378453
  C 2.419494 -0.041280 0.349651
  H 2.951867 0.034632 1.296884
  C 3.116249 -0.276349 -0.785394
  H 4.161343 -0.018241 -0.896100
  H 0.658706 0.794236 1.208520
  H 0.528710 -0.818620 0.561246
  H 0.603257 0.524704 -0.577073
  H 2.661572 -0.754332 -1.645823
 9
 0.262402
  C 0.985998 0.121891 0.369189
  C 2.421640 -0.132545 0.378674
  H 2.937860 -0.132238 1.336862
  C 3.098958 -0.220825 -0.784719
  H 4.091625 0.183335 -0.947617
  H 0.723309 0.911532 1.074837
  H 0.451164 -0.771223 0.715498
  H 0.677069 0.394322 -0.637346
  H 2.700108 -0.773948 -1.629054
 9
 6.706030
  C 1.016035 0.092189 0.358645
  C 2.446415 -0.236318 0.447860
  H 2.973025 -0.045296 1.376034
  C 3.049413 -0.231789 -0.760790
  H 3.935270 0.361462 -0.989383
  H 0.804615 0.919268 1.041207
  H 0.375217 -0.755884 0.648219
  H 0.786913 0.386915 -0.667735
  H 2.712021 -0.872750 -1.576955
 9
 19.369375
  C 1.089408 0.078378 0.318145
  C 2.518951 -0.261861 0.570815
  H 3.043367 -0.087662 1.497548
  C 2.933311 -0.205695 -0.723041
  H 3.652252 0.522886 -1.091715
  H 0.840157 0.951464 0.925781
  H 0.417768 -0.756533 0.527331
  H 0.952753 0.367351 -0.736755
  H 2.673058 -0.985275 -1.433873
 9
 29.697291
  C 1.202395 0.063677 0.251289
  C 2.591553 -0.343749 0.701051
  H 3.107845 -0.115088 1.605365
  C 2.776047 -0.183866 -0.661454
  H 3.330207 0.655258 -1.084045
  H 0.953097 1.001087 0.750203
  H 0.487074 -0.742321 0.439748
  H 1.091387 0.307889 -0.835789
  H 2.609793 -1.009145 -1.347041
 9
 28.076182
  C 1.232709 0.066763 0.299373
  C 2.577914 -0.354040 0.738850
  H 3.157362 -0.157432 1.607529
  C 2.664190 -0.153075 -0.672374
  H 3.205740 0.700332 -1.078883
  H 0.930150 1.047140 0.671420
  H 0.463192 -0.702941 0.400800
  H 1.328177 0.228994 -0.863501
  H 2.626826 -1.024987 -1.328728
 9
 27.376620
  C 1.223768 0.080819 0.363067
  C 2.568636 -0.296457 0.749717
  H 3.208586 -0.286448 1.593540
  C 2.598530 -0.128851 -0.693568
  H 3.147981 0.723938 -1.094993
  H 0.879111 1.085252 0.614753
  H 0.448959 -0.683449 0.418194
  H 1.412361 0.194723 -0.889205
  H 2.698327 -1.038775 -1.287020
