 23
 0.000000
  C 0.979483 0.183742 0.501496
  C 2.435544 0.125620 0.356629
  H 3.071073 0.449043 1.167858
  C 2.995431 -0.344401 -0.810269
  C 4.376987 -0.419294 -0.996732
  C 5.095930 -0.865496 -2.106489
  C 4.625557 -1.390869 -3.413853
  C 3.142241 -1.519372 -3.735348
  C 2.963572 -2.084849 -5.142365
  O 6.409275 -0.846480 -2.058890
  H 0.666905 0.572197 1.466256
  H 0.545235 -0.809883 0.362774
  H 0.549026 0.805950 -0.286076
  H 2.327407 -0.659664 -1.593230
  H 4.975995 -0.081218 -0.157197
  H 5.097380 -2.373708 -3.531659
  H 5.098242 -0.763580 -4.179057
  H 2.658703 -0.543010 -3.694765
  H 2.657880 -2.195615 -3.030486
  H 3.417250 -1.433661 -5.885753
  H 1.906778 -2.179142 -5.378327
  H 3.416468 -3.069731 -5.228113
  H 6.784748 -0.511296 -1.222203
 23
 3.335232
  C 0.994917 0.226176 0.522905
  C 2.412681 0.121054 0.340278
  H 3.071851 0.434291 1.141916
  C 2.968424 -0.352582 -0.825168
  C 4.346290 -0.425976 -0.998264
  C 5.077494 -0.867931 -2.097421
  C 4.619929 -1.392609 -3.409920
  C 3.139702 -1.522532 -3.743207
  C 2.974640 -2.086048 -5.152642
  O 6.390384 -0.846336 -2.035947
  H 0.681933 0.585845 1.497558
  H 0.747091 -0.796865 0.362565
  H 0.503442 0.810054 -0.258241
  H 2.303601 -0.667473 -1.610064
  H 4.936541 -0.087463 -0.153536
  H 5.096102 -2.373654 -3.525737
  H 5.099992 -0.764677 -4.170040
  H 2.655323 -0.546586 -3.705479
  H 2.651430 -2.201209 -3.043634
  H 3.434505 -1.432850 -5.890422
  H 1.920512 -2.182225 -5.399463
  H 3.430620 -3.069774 -5.235594
  H 6.760820 -0.512255 -1.197408
 23
 8.496532
  C 0.976984 0.274991 0.549113
  C 2.401126 0.145819 0.346479
  H 3.082953 0.458521 1.130261
  C 2.946308 -0.346155 -0.814676
  C 4.325604 -0.432648 -0.985107
  C 5.068872 -0.880028 -2.093636
  C 4.618000 -1.400840 -3.417650
  C 3.140025 -1.525574 -3.764585
  C 2.986731 -2.080982 -5.178403
  O 6.395803 -0.866842 -2.025087
  H 0.666170 0.665754 1.523361
  H 0.947086 -0.808893 0.461490
  H 0.398575 0.713130 -0.283970
  H 2.281813 -0.658382 -1.596243
  H 4.916104 -0.097937 -0.137873
  H 5.093184 -2.382146 -3.534068
  H 5.106807 -0.771955 -4.171225
  H 2.658741 -0.548013 -3.726691
  H 2.645223 -2.208312 -3.073380
  H 3.455767 -1.424844 -5.907737
  H 1.934887 -2.173719 -5.436543
  H 3.442118 -3.064965 -5.262161
  H 6.765421 -0.536658 -1.182030
 23
 14.773258
  C 0.969493 0.291840 0.520051
  C 2.394382 0.138382 0.325088
  H 3.072115 0.454494 1.113215
  C 2.955459 -0.358621 -0.840186
  C 4.332413 -0.445461 -0.996578
  C 5.067808 -0.883767 -2.082156
  C 4.618023 -1.398320 -3.405537
  C 3.136903 -1.513929 -3.745147
  C 2.971898 -2.063192 -5.160156
  O 6.400749 -0.875085 -2.009292
  H 0.645965 0.707396 1.459453
  H 1.110876 -0.803604 0.500023
  H 0.363895 0.611624 -0.328983
  H 2.297676 -0.671051 -1.634111
  H 4.917381 -0.114041 -0.146128
  H 5.088146 -2.381486 -3.524413
  H 5.107149 -0.767954 -4.157299
  H 2.661593 -0.533582 -3.700205
  H 2.642627 -2.196442 -3.053057
  H 3.440715 -1.406828 -5.889716
  H 1.918037 -2.149099 -5.412622
  H 3.421611 -3.049397 -5.250123
  H 6.767455 -0.545728 -1.158514
 23
 20.087919
  C 0.962473 0.322534 0.527269
  C 2.377886 0.135936 0.327128
  H 3.060787 0.454711 1.116222
  C 2.941951 -0.363122 -0.839737
  C 4.327468 -0.453112 -0.993799
  C 5.066440 -0.890636 -2.080862
  C 4.623641 -1.401199 -3.409195
  C 3.142459 -1.513846 -3.753840
  C 2.980710 -2.057556 -5.171554
  O 6.394634 -0.885818 -2.006714
  H 0.636353 0.771066 1.440089
  H 1.238286 -0.775719 0.588492
  H 0.321379 0.526693 -0.330349
  H 2.284999 -0.671954 -1.634773
  H 4.912354 -0.124348 -0.140463
  H 5.093048 -2.384848 -3.528706
  H 5.115727 -0.767845 -4.156841
  H 2.668542 -0.532777 -3.706627
  H 2.645521 -2.198745 -3.065486
  H 3.452958 -1.398976 -5.896989
  H 1.927377 -2.141229 -5.427764
  H 3.429893 -3.043922 -5.263798
  H 6.750582 -0.562715 -1.163084
 23
 23.892119
  C 0.964542 0.355418 0.551103
  C 2.368157 0.136321 0.341148
  H 3.050780 0.452850 1.122553
  C 2.929313 -0.365220 -0.835478
  C 4.308888 -0.459417 -0.992039
  C 5.051327 -0.896359 -2.081740
  C 4.622249 -1.405490 -3.418104
  C 3.147561 -1.521736 -3.779956
  C 3.004081 -2.061748 -5.200158
  O 6.370104 -0.891670 -2.000844
  H 0.641573 0.834757 1.454234
  H 1.345353 -0.738011 0.678594
  H 0.304318 0.467409 -0.289226
  H 2.270007 -0.665527 -1.625521
  H 4.894486 -0.133494 -0.138370
  H 5.094643 -2.387690 -3.534150
  H 5.119502 -0.768173 -4.158327
  H 2.670805 -0.543077 -3.735472
  H 2.645711 -2.209295 -3.099959
  H 3.482893 -1.399859 -5.917826
  H 1.954540 -2.148021 -5.468969
  H 3.457576 -3.045974 -5.289616
  H 6.719872 -0.566791 -1.146691
 23
 26.184935
  C 0.967481 0.375008 0.553204
  C 2.363657 0.129823 0.347467
  H 3.042041 0.447586 1.128311
  C 2.929918 -0.370712 -0.837106
  C 4.303121 -0.465186 -0.989306
  C 5.047978 -0.897961 -2.074910
  C 4.623693 -1.406757 -3.421868
  C 3.148589 -1.523145 -3.790434
  C 3.010462 -2.059394 -5.211176
  O 6.370921 -0.893098 -1.988031
  H 0.649512 0.874511 1.432015
  H 1.432071 -0.703317 0.748001
  H 0.281603 0.404956 -0.292345
  H 2.271578 -0.665688 -1.626760
  H 4.887168 -0.141567 -0.132103
  H 5.097047 -2.388570 -3.538755
  H 5.123230 -0.767409 -4.158817
  H 2.671653 -0.545202 -3.745653
  H 2.644453 -2.212843 -3.113590
  H 3.491809 -1.395704 -5.925130
  H 1.961528 -2.145518 -5.484281
  H 3.464937 -3.043120 -5.301048
  H 6.713869 -0.570095 -1.132873
 23
 27.551523
  C 0.953149 0.386909 0.533740
  C 2.363111 0.120757 0.343992
  H 3.035547 0.445897 1.107995
  C 2.927729 -0.373687 -0.841896
  C 4.314072 -0.474923 -0.994835
  C 5.054860 -0.905168 -2.077524
  C 4.630355 -1.406367 -3.419076
  C 3.156430 -1.515122 -3.783112
  C 3.011725 -2.048708 -5.205895
  O 6.384059 -0.905555 -1.992199
  H 0.619169 0.927465 1.398105
  H 1.501247 -0.670741 0.817720
  H 0.261232 0.302407 -0.294871
  H 2.262068 -0.664686 -1.637291
  H 4.901806 -0.156163 -0.136248
  H 5.098903 -2.389748 -3.537769
  H 5.130263 -0.765790 -4.153973
  H 2.683974 -0.533633 -3.734515
  H 2.651373 -2.203503 -3.105236
  H 3.494421 -1.385824 -5.920109
  H 1.961927 -2.129580 -5.476367
  H 3.461738 -3.034444 -5.298909
  H 6.726484 -0.585583 -1.138315
 23
 29.664950
  C 0.961000 0.402277 0.538506
  C 2.360125 0.119410 0.358962
  H 3.050782 0.465228 1.124952
  C 2.917022 -0.378912 -0.835948
  C 4.291613 -0.481915 -0.996267
  C 5.036006 -0.911768 -2.085051
  C 4.627078 -1.404341 -3.412360
  C 3.162546 -1.517837 -3.790977
  C 3.036026 -2.050816 -5.222423
  O 6.369244 -0.911661 -2.001166
  H 0.622414 0.961969 1.404542
  H 1.565014 -0.652272 0.853779
  H 0.275161 0.270048 -0.263875
  H 2.238730 -0.669789 -1.630667
  H 4.879621 -0.165384 -0.142740
  H 5.099072 -2.383482 -3.526896
  H 5.129784 -0.760058 -4.137875
  H 2.684155 -0.533822 -3.744788
  H 2.652130 -2.212119 -3.117779
  H 3.524571 -1.383279 -5.931088
  H 1.989573 -2.135687 -5.505443
  H 3.491906 -3.035806 -5.313371
  H 6.709669 -0.594656 -1.152581
 23
 31.356282
  C 0.968098 0.415641 0.536942
  C 2.361226 0.115844 0.370662
  H 3.047722 0.467803 1.123181
  C 2.924586 -0.382323 -0.830935
  C 4.292841 -0.482842 -0.988891
  C 5.039097 -0.911381 -2.080314
  C 4.627545 -1.405318 -3.416381
  C 3.168494 -1.518235 -3.791991
  C 3.040715 -2.049393 -5.223605
  O 6.368042 -0.909746 -1.995853
  H 0.630835 0.958273 1.387423
  H 1.614848 -0.647217 0.863227
  H 0.270029 0.259061 -0.280101
  H 2.248946 -0.671722 -1.623672
  H 4.881321 -0.166207 -0.132586
  H 5.095656 -2.376016 -3.532477
  H 5.124914 -0.765778 -4.135832
  H 2.691052 -0.533250 -3.743438
  H 2.659590 -2.214734 -3.117270
  H 3.529296 -1.379337 -5.933299
  H 1.991119 -2.134350 -5.506088
  H 3.497881 -3.036500 -5.316224
  H 6.708724 -0.591136 -1.141355
 23
 32.804288
  C 0.952089 0.406125 0.456392
  C 2.357365 0.093931 0.341253
  H 3.030124 0.465784 1.108790
  C 2.956983 -0.396291 -0.847206
  C 4.336928 -0.485232 -0.977438
  C 5.090585 -0.908457 -2.063039
  C 4.657737 -1.403265 -3.410635
  C 3.165109 -1.503403 -3.750314
  C 2.986950 -2.029349 -5.181873
  O 6.416344 -0.904419 -1.980000
  H 0.579134 0.942359 1.309896
  H 1.641359 -0.673597 0.814893
  H 0.283307 0.221257 -0.368635
  H 2.311873 -0.688632 -1.645898
  H 4.909659 -0.166548 -0.117299
  H 5.126081 -2.395358 -3.541785
  H 5.153536 -0.752087 -4.153024
  H 2.696767 -0.512966 -3.682488
  H 2.668275 -2.196335 -3.061524
  H 3.456754 -1.366568 -5.899865
  H 1.934917 -2.102793 -5.431285
  H 3.427973 -3.013791 -5.291592
  H 6.757060 -0.585471 -1.121030
 23
 33.967115
  C 0.963378 0.435464 0.483634
  C 2.363864 0.094639 0.373766
  H 3.046620 0.475069 1.132712
  C 2.944847 -0.393994 -0.827612
  C 4.322567 -0.488304 -0.974786
  C 5.067996 -0.907907 -2.060927
  C 4.641924 -1.404136 -3.416883
  C 3.170428 -1.516367 -3.776368
  C 3.021269 -2.040726 -5.210736
  O 6.394874 -0.897546 -1.974963
  H 0.594590 0.965755 1.343624
  H 1.686743 -0.671724 0.846810
  H 0.287700 0.238394 -0.332431
  H 2.277283 -0.684379 -1.627959
  H 4.903655 -0.171831 -0.122397
  H 5.110812 -2.377840 -3.544138
  H 5.132280 -0.758797 -4.142760
  H 2.693000 -0.534132 -3.715356
  H 2.669977 -2.214308 -3.099210
  H 3.499692 -1.367509 -5.923499
  H 1.968659 -2.124012 -5.478545
  H 3.476670 -3.026889 -5.315004
  H 6.732140 -0.579388 -1.118342
 23
 34.816681
  C 0.958209 0.454030 0.463217
  C 2.366772 0.079596 0.378452
  H 3.040994 0.477232 1.128113
  C 2.955119 -0.399625 -0.832053
  C 4.326414 -0.493044 -0.976477
  C 5.075497 -0.911803 -2.068607
  C 4.651160 -1.400682 -3.410779
  C 3.172822 -1.514389 -3.766297
  C 3.020793 -2.035286 -5.197342
  O 6.402268 -0.899560 -1.989452
  H 0.580577 0.970324 1.322461
  H 1.722503 -0.700933 0.849148
  H 0.281909 0.241654 -0.351288
  H 2.292798 -0.685637 -1.628837
  H 4.908579 -0.176664 -0.120224
  H 5.125972 -2.380896 -3.542296
  H 5.143733 -0.748784 -4.142502
  H 2.692684 -0.531046 -3.703698
  H 2.674149 -2.215544 -3.088980
  H 3.493256 -1.364637 -5.905998
  H 1.973888 -2.119068 -5.460683
  H 3.474191 -3.014364 -5.303930
  H 6.744263 -0.582760 -1.133418
 23
 35.550762
  C 0.967548 0.468300 0.450473
  C 2.366765 0.072795 0.392094
  H 3.038711 0.481213 1.140844
  C 2.958014 -0.402437 -0.822922
  C 4.326934 -0.493737 -0.968781
  C 5.076697 -0.910383 -2.064440
  C 4.651091 -1.398985 -3.410188
  C 3.178040 -1.514070 -3.762616
  C 3.024377 -2.035833 -5.200169
  O 6.400408 -0.895631 -1.986639
  H 0.580776 0.979388 1.309254
  H 1.769470 -0.719883 0.854148
  H 0.296634 0.243176 -0.364889
  H 2.289402 -0.689070 -1.622682
  H 4.908345 -0.179566 -0.115694
  H 5.130383 -2.387501 -3.543858
  H 5.144858 -0.738317 -4.147696
  H 2.701595 -0.540488 -3.697751
  H 2.686169 -2.210401 -3.090171
  H 3.497903 -1.359269 -5.913421
  H 1.968227 -2.121679 -5.464502
  H 3.481954 -3.020340 -5.309140
  H 6.743981 -0.579223 -1.129663
