 26
 0.000000
  C 0.925173 0.049828 0.294747
  C 2.411938 0.058170 0.058155
  C 3.233379 -0.013703 1.325860
  H 2.585240 -0.067250 2.197605
  C 3.002999 0.127904 -1.148223
  C 2.359455 0.206080 -2.518249
  C 0.845108 0.214730 -2.708261
  C 0.511729 0.299992 -4.195520
  C 4.460770 0.132712 -1.228708
  C 5.206762 0.196398 -2.330843
  O 6.565678 0.197252 -2.335969
  H 0.710740 -0.014049 1.359020
  H 0.449220 -0.800518 -0.187139
  H 0.461551 0.959135 -0.079727
  H 3.867099 0.866110 1.437739
  H 3.873350 -0.896051 1.334472
  H 2.751223 -0.640742 -3.092037
  H 2.749013 1.114264 -2.990865
  H 0.400195 1.071962 -2.204839
  H 0.403260 -0.696284 -2.306895
  H 0.922769 1.209109 -4.629788
  H -0.565692 0.306814 -4.344715
  H 0.925698 -0.551777 -4.731423
  H 5.000009 0.079260 -0.293413
  H 4.832260 0.254402 -3.339177
  H 6.893924 0.145110 -1.428912
 26
 5.999622
  C 0.944856 0.030620 0.287199
  C 2.387923 0.053669 0.063488
  C 3.218872 -0.034863 1.320382
  H 2.574406 -0.053493 2.200472
  C 2.987754 0.124741 -1.138202
  C 2.342335 0.205370 -2.504164
  C 0.831992 0.196512 -2.697766
  C 0.503771 0.286437 -4.185220
  C 4.449435 0.145138 -1.216472
  C 5.200845 0.217022 -2.322511
  O 6.563639 0.221463 -2.323771
  H 0.674522 0.010251 1.326715
  H 0.419953 -0.742328 -0.224619
  H 0.767506 1.004935 -0.151109
  H 3.886450 0.818408 1.419953
  H 3.820052 -0.942417 1.333026
  H 2.741574 -0.632561 -3.082005
  H 2.721656 1.119104 -2.970673
  H 0.369815 1.043564 -2.192113
  H 0.401779 -0.723755 -2.304180
  H 0.903713 1.204213 -4.612040
  H -0.572726 0.278727 -4.338406
  H 0.932501 -0.555820 -4.724791
  H 4.986045 0.090292 -0.287023
  H 4.827492 0.276212 -3.335434
  H 6.889310 0.166873 -1.413365
 26
 18.465643
  C 0.941530 0.042670 0.307471
  C 2.376968 0.046989 0.082211
  C 3.224485 -0.049896 1.336010
  H 2.591293 -0.036001 2.213499
  C 2.987844 0.120954 -1.142072
  C 2.329687 0.210045 -2.521535
  C 0.809637 0.167329 -2.717849
  C 0.478822 0.278799 -4.202922
  C 4.452372 0.146761 -1.210364
  C 5.211887 0.231257 -2.305473
  O 6.570583 0.238946 -2.292032
  H 0.645671 0.078982 1.347638
  H 0.359603 -0.687777 -0.235670
  H 1.012120 0.997217 -0.156895
  H 3.924615 0.782757 1.421104
  H 3.794183 -0.982741 1.354227
  H 2.747867 -0.613796 -3.115990
  H 2.691422 1.142376 -2.979190
  H 0.321611 0.987153 -2.196301
  H 0.405875 -0.769636 -2.348071
  H 0.852876 1.215422 -4.609788
  H -0.597080 0.244484 -4.357085
  H 0.930600 -0.539245 -4.759245
  H 4.984273 0.080881 -0.272781
  H 4.851658 0.301506 -3.318945
  H 6.881238 0.174447 -1.389143
 26
 31.948755
  C 0.912573 0.038470 0.320721
  C 2.358974 0.053596 0.081549
  C 3.202157 -0.039527 1.338196
  H 2.568040 -0.007330 2.215812
  C 2.981992 0.121078 -1.143515
  C 2.340890 0.210947 -2.506773
  C 0.830479 0.143962 -2.709406
  C 0.503806 0.271194 -4.196490
  C 4.442314 0.143981 -1.220639
  C 5.185355 0.244199 -2.327352
  O 6.544708 0.244282 -2.336685
  H 0.613488 0.052559 1.355378
  H 0.291046 -0.606041 -0.279694
  H 1.191556 0.992946 -0.098109
  H 3.916610 0.778038 1.418009
  H 3.751076 -0.982051 1.362494
  H 2.774679 -0.598184 -3.104880
  H 2.689441 1.152046 -2.951205
  H 0.323370 0.948872 -2.174487
  H 0.443641 -0.813024 -2.353300
  H 0.861787 1.221810 -4.588154
  H -0.571394 0.218076 -4.356415
  H 0.974629 -0.529982 -4.763069
  H 4.985046 0.059073 -0.294712
  H 4.807599 0.335303 -3.330658
  H 6.871416 0.158187 -1.431882
 26
 43.546938
  C 0.899038 0.015060 0.330911
  C 2.356663 0.054230 0.074254
  C 3.192454 -0.011747 1.336043
  H 2.560840 0.036239 2.205773
  C 2.996725 0.111502 -1.157942
  C 2.349467 0.204716 -2.532768
  C 0.834530 0.130334 -2.715889
  C 0.482090 0.274008 -4.197362
  C 4.441103 0.135269 -1.219591
  C 5.193491 0.248384 -2.316141
  O 6.567088 0.243369 -2.312841
  H 0.604432 -0.014770 1.368998
  H 0.249490 -0.540576 -0.323044
  H 1.330616 0.968635 -0.023538
  H 3.906284 0.803493 1.402730
  H 3.735901 -0.953155 1.376664
  H 2.781284 -0.592311 -3.137709
  H 2.685858 1.145260 -2.972159
  H 0.332583 0.926400 -2.162119
  H 0.461194 -0.834007 -2.366632
  H 0.828245 1.233195 -4.583143
  H -0.596384 0.215672 -4.341282
  H 0.949763 -0.517991 -4.781888
  H 4.975592 0.035489 -0.289541
  H 4.824482 0.356861 -3.321800
  H 6.882299 0.141652 -1.413232
 26
 51.888577
  C 0.894105 -0.012810 0.349697
  C 2.351706 0.060554 0.073189
  C 3.185214 0.016494 1.334247
  H 2.548710 0.074866 2.211491
  C 2.991936 0.107995 -1.160495
  C 2.347054 0.199534 -2.538888
  C 0.834101 0.121580 -2.726265
  C 0.483702 0.275593 -4.205691
  C 4.439210 0.124679 -1.221000
  C 5.192197 0.251552 -2.320132
  O 6.561903 0.243501 -2.317910
  H 0.610931 -0.103278 1.382237
  H 0.219056 -0.463674 -0.347382
  H 1.436724 0.946498 0.068019
  H 3.896976 0.835200 1.387000
  H 3.729196 -0.920872 1.386243
  H 2.785362 -0.595964 -3.146544
  H 2.681048 1.145441 -2.978837
  H 0.330425 0.913179 -2.167613
  H 0.463870 -0.846950 -2.385469
  H 0.827117 1.237321 -4.582923
  H -0.593103 0.215148 -4.351747
  H 0.954381 -0.509588 -4.794706
  H 4.979061 0.003764 -0.288017
  H 4.824096 0.381868 -3.317815
  H 6.878955 0.121589 -1.411343
 26
 58.674306
  C 0.890475 -0.039181 0.321902
  C 2.347981 0.070538 0.054444
  C 3.164836 0.033084 1.331538
  H 2.513047 0.097034 2.202880
  C 3.000786 0.112332 -1.164391
  C 2.360536 0.202033 -2.538366
  C 0.839229 0.123619 -2.711536
  C 0.471713 0.275078 -4.183297
  C 4.445846 0.125698 -1.220653
  C 5.203700 0.253941 -2.317118
  O 6.575589 0.236424 -2.310054
  H 0.598695 -0.145021 1.356337
  H 0.219018 -0.446439 -0.395822
  H 1.516415 0.928938 0.066922
  H 3.884101 0.863691 1.387792
  H 3.716240 -0.919391 1.396394
  H 2.798009 -0.594418 -3.147809
  H 2.692647 1.144596 -2.981438
  H 0.343404 0.915113 -2.149758
  H 0.473546 -0.841960 -2.366062
  H 0.810649 1.236032 -4.565873
  H -0.605999 0.214398 -4.316377
  H 0.934913 -0.510142 -4.775212
  H 4.976883 -0.001147 -0.298304
  H 4.834205 0.392231 -3.328843
  H 6.885434 0.108149 -1.410300
 26
 63.595249
  C 0.891809 -0.073342 0.337560
  C 2.342841 0.077168 0.055820
  C 3.171607 0.049805 1.315469
  H 2.537186 0.117363 2.185440
  C 2.995153 0.112114 -1.175170
  C 2.348330 0.200993 -2.546775
  C 0.842078 0.126304 -2.711820
  C 0.470459 0.280249 -4.183709
  C 4.445507 0.125119 -1.221507
  C 5.214683 0.253951 -2.308934
  O 6.573337 0.230330 -2.284012
  H 0.611534 -0.179911 1.354530
  H 0.202786 -0.444776 -0.394914
  H 1.568689 0.913626 0.091139
  H 3.872525 0.863437 1.354759
  H 3.713449 -0.874979 1.379456
  H 2.778458 -0.594062 -3.154865
  H 2.677480 1.143733 -2.993374
  H 0.353413 0.916935 -2.148364
  H 0.476913 -0.837982 -2.365188
  H 0.811063 1.242196 -4.566957
  H -0.609220 0.222137 -4.313490
  H 0.931705 -0.508409 -4.779959
  H 4.974080 -0.005844 -0.286023
  H 4.861332 0.394726 -3.318570
  H 6.870535 0.096913 -1.374879
 26
 67.282389
  C 0.889273 -0.116569 0.371150
  C 2.333650 0.082185 0.071557
  C 3.192274 0.068462 1.331238
  H 2.561778 0.144207 2.222945
  C 2.983843 0.106659 -1.177821
  C 2.344175 0.196773 -2.549198
  C 0.837201 0.128125 -2.734670
  C 0.483503 0.292006 -4.220449
  C 4.421704 0.123512 -1.222003
  C 5.192216 0.252000 -2.309869
  O 6.564060 0.225820 -2.286365
  H 0.611899 -0.213605 1.407619
  H 0.191023 -0.454298 -0.359860
  H 1.603845 0.909119 0.117132
  H 3.905445 0.902399 1.350607
  H 3.752196 -0.876815 1.397884
  H 2.777266 -0.599564 -3.153957
  H 2.680175 1.140963 -2.993623
  H 0.341619 0.925067 -2.168975
  H 0.461672 -0.844857 -2.395091
  H 0.832622 1.254678 -4.594983
  H -0.595587 0.238666 -4.365832
  H 0.949433 -0.495087 -4.814851
  H 4.948294 -0.005912 -0.292040
  H 4.842248 0.388531 -3.304919
  H 6.862833 0.092510 -1.376507
 26
 69.393957
  C 0.894160 -0.191639 0.347734
  C 2.329764 0.100439 0.071587
  C 3.174150 0.097224 1.342850
  H 2.535315 0.177365 2.219209
  C 3.003848 0.099117 -1.190855
  C 2.354589 0.190040 -2.560231
  C 0.848470 0.132769 -2.720481
  C 0.472879 0.306673 -4.190246
  C 4.437315 0.118155 -1.228869
  C 5.213737 0.241643 -2.319047
  O 6.585936 0.216415 -2.288687
  H 0.585970 -0.257048 1.369541
  H 0.200317 -0.484147 -0.404844
  H 1.629042 0.935258 0.101665
  H 3.876964 0.927996 1.363993
  H 3.729806 -0.835340 1.425067
  H 2.777926 -0.615218 -3.171909
  H 2.692843 1.133589 -3.013533
  H 0.369282 0.926351 -2.144683
  H 0.472631 -0.835262 -2.381714
  H 0.820177 1.264366 -4.563229
  H -0.603594 0.260927 -4.316708
  H 0.921496 -0.475818 -4.793321
  H 4.965253 -0.007187 -0.291809
  H 4.863354 0.375576 -3.327407
  H 6.879408 0.089294 -1.379874
 26
 71.415901
  C 0.910953 -0.239905 0.343835
  C 2.333720 0.109557 0.074521
  C 3.178363 0.115156 1.355353
  H 2.533323 0.200046 2.230550
  C 3.011277 0.098411 -1.184077
  C 2.368025 0.188615 -2.554700
  C 0.837857 0.139778 -2.721222
  C 0.460152 0.317343 -4.201343
  C 4.433732 0.115624 -1.219949
  C 5.209488 0.233895 -2.312818
  O 6.579656 0.211194 -2.282669
  H 0.594571 -0.275296 1.355315
  H 0.225009 -0.522670 -0.418305
  H 1.670018 0.944004 0.086151
  H 3.880269 0.950791 1.372991
  H 3.735470 -0.815414 1.446231
  H 2.790499 -0.622076 -3.163148
  H 2.718634 1.139412 -3.014173
  H 0.360312 0.940643 -2.141063
  H 0.457203 -0.822328 -2.384331
  H 0.815894 1.281909 -4.577568
  H -0.628276 0.277315 -4.329682
  H 0.908686 -0.475240 -4.810609
  H 4.962571 -0.006203 -0.281487
  H 4.852742 0.365746 -3.332865
  H 6.874220 0.088925 -1.371341
 26
 71.497670
  C 0.929727 -0.324274 0.350399
  C 2.320622 0.121829 0.074612
  C 3.175614 0.156078 1.341886
  H 2.536677 0.248814 2.221462
  C 3.007047 0.091676 -1.198278
  C 2.359018 0.184663 -2.564539
  C 0.842719 0.146494 -2.723463
  C 0.465222 0.345945 -4.188099
  C 4.431061 0.117280 -1.223896
  C 5.220165 0.226327 -2.310566
  O 6.589777 0.187435 -2.266405
  H 0.593302 -0.309694 1.363149
  H 0.239794 -0.603210 -0.413278
  H 1.676615 0.967202 0.062580
  H 3.866734 0.999297 1.336771
  H 3.743534 -0.767359 1.442202
  H 2.772483 -0.623142 -3.174139
  H 2.706540 1.120050 -3.017951
  H 0.373577 0.939193 -2.132149
  H 0.455210 -0.824732 -2.397337
  H 0.821739 1.306009 -4.548845
  H -0.611958 0.313409 -4.311601
  H 0.903480 -0.432453 -4.803389
  H 4.951429 0.003108 -0.281849
  H 4.878379 0.344415 -3.324776
  H 6.873745 0.069726 -1.352410
 26
 69.435718
  C 0.971597 -0.450229 0.354272
  C 2.308081 0.129237 0.075239
  C 3.160392 0.223061 1.340045
  H 2.519528 0.330712 2.210150
  C 3.015064 0.071124 -1.207562
  C 2.362764 0.170237 -2.570201
  C 0.847831 0.162060 -2.716720
  C 0.461803 0.395382 -4.173459
  C 4.429898 0.098054 -1.225265
  C 5.226666 0.198771 -2.312557
  O 6.593414 0.172425 -2.259473
  H 0.588164 -0.358485 1.353565
  H 0.296612 -0.749402 -0.411583
  H 1.676157 0.994594 0.010830
  H 3.831280 1.080175 1.306487
  H 3.746522 -0.684201 1.472057
  H 2.762559 -0.653164 -3.188779
  H 2.721543 1.097595 -3.025188
  H 0.398595 0.948457 -2.105952
  H 0.445548 -0.805824 -2.405435
  H 0.831865 1.357370 -4.519640
  H -0.619176 0.383076 -4.288419
  H 0.882807 -0.380345 -4.808042
  H 4.946928 -0.003426 -0.278902
  H 4.888166 0.309564 -3.329087
  H 6.874341 0.068172 -1.340825
 26
 67.166157
  C 1.029922 -0.581255 0.355181
  C 2.295053 0.137467 0.066473
  C 3.139955 0.305121 1.331834
  H 2.487850 0.426904 2.195854
  C 3.021037 0.062906 -1.214175
  C 2.367287 0.162642 -2.573138
  C 0.846933 0.190156 -2.706551
  C 0.451524 0.450439 -4.153304
  C 4.429822 0.085114 -1.223162
  C 5.235384 0.169728 -2.309870
  O 6.601366 0.146552 -2.248377
  H 0.590058 -0.423019 1.320065
  H 0.385596 -0.932806 -0.420689
  H 1.670493 1.009158 -0.052099
  H 3.785218 1.180542 1.266273
  H 3.751589 -0.579537 1.501936
  H 2.744913 -0.671359 -3.188163
  H 2.743841 1.080645 -3.037490
  H 0.423438 0.973577 -2.082915
  H 0.426760 -0.763025 -2.405395
  H 0.838809 1.409640 -4.491340
  H -0.632691 0.462668 -4.256694
  H 0.849966 -0.328010 -4.803586
  H 4.939305 -0.007676 -0.275949
  H 4.900925 0.269863 -3.326845
  H 6.878206 0.057178 -1.328400
