 20
 0.000000
  H 1.417458 0.160529 0.451032
  C 2.491329 0.136205 0.390341
  H 3.075984 0.472842 1.228752
  C 3.049582 -0.328196 -0.766619
  C 4.433913 -0.410667 -0.972524
  C 5.123757 -0.866410 -2.108925
  C 4.604932 -1.383422 -3.397466
  C 3.116540 -1.501629 -3.693344
  C 2.912721 -2.065581 -5.097833
  O 6.430879 -0.862515 -2.099607
  H 2.382035 -0.642811 -1.550343
  H 5.052195 -0.078303 -0.144561
  H 5.068332 -2.369490 -3.530923
  H 5.069277 -0.763945 -4.175651
  H 2.638420 -0.522680 -3.645994
  H 2.637795 -2.175683 -2.982297
  H 3.357753 -1.417242 -5.848652
  H 1.851956 -2.153264 -5.317113
  H 3.357301 -3.053373 -5.191566
  H 6.835421 -0.531479 -1.273025
 20
 -0.381696
  H 1.454426 0.266460 0.531832
  C 2.512055 0.118910 0.400796
  H 3.144529 0.296200 1.255241
  C 3.019392 -0.279378 -0.800139
  C 4.400956 -0.446860 -0.978908
  C 5.112891 -0.855333 -2.118554
  C 4.610251 -1.339920 -3.423323
  C 3.122655 -1.496065 -3.705029
  C 2.918875 -2.113169 -5.086670
  O 6.417873 -0.846689 -2.079648
  H 2.340095 -0.450003 -1.617335
  H 5.007712 -0.209024 -0.110622
  H 5.106070 -2.304023 -3.595466
  H 5.053273 -0.686759 -4.187078
  H 2.627143 -0.523400 -3.691080
  H 2.661686 -2.148671 -2.964942
  H 3.353028 -1.487500 -5.862745
  H 1.857775 -2.221302 -5.297872
  H 3.374078 -3.098079 -5.146600
  H 6.820690 -0.531827 -1.246249
 20
 -0.365625
  H 1.469801 0.349900 0.504525
  C 2.510371 0.101012 0.392560
  H 3.120011 0.127368 1.281197
  C 3.029806 -0.233980 -0.822268
  C 4.399966 -0.494123 -0.971588
  C 5.116448 -0.856865 -2.123621
  C 4.609764 -1.290096 -3.444867
  C 3.123248 -1.495128 -3.701336
  C 2.917196 -2.149820 -5.064985
  O 6.420970 -0.861892 -2.079294
  H 2.375046 -0.265862 -1.675894
  H 4.994590 -0.360204 -0.073053
  H 5.140943 -2.223201 -3.674760
  H 5.008656 -0.581989 -4.182280
  H 2.599361 -0.537884 -3.704877
  H 2.690194 -2.139817 -2.935997
  H 3.324710 -1.531605 -5.860970
  H 1.855979 -2.290195 -5.258850
  H 3.396919 -3.123846 -5.108372
  H 6.824650 -0.570105 -1.237749
 20
 -0.140616
  H 1.506369 0.457747 0.485289
  C 2.510984 0.100842 0.387491
  H 3.085753 0.004323 1.293094
  C 3.040814 -0.205087 -0.830737
  C 4.394443 -0.548648 -0.961087
  C 5.118894 -0.855570 -2.123931
  C 4.611415 -1.262011 -3.453388
  C 3.124273 -1.499466 -3.693317
  C 2.915322 -2.152799 -5.058396
  O 6.423065 -0.836837 -2.080849
  H 2.417507 -0.128898 -1.703163
  H 4.975645 -0.502391 -0.042716
  H 5.162297 -2.177770 -3.709253
  H 4.984587 -0.527319 -4.179585
  H 2.576096 -0.553659 -3.686675
  H 2.713836 -2.155096 -2.922419
  H 3.290457 -1.520409 -5.854053
  H 1.860663 -2.322506 -5.235648
  H 3.421001 -3.109370 -5.115930
  H 6.822668 -0.558883 -1.232308
 20
 0.410598
  H 1.546913 0.545033 0.490499
  C 2.524935 0.106422 0.394790
  H 3.081568 -0.047335 1.305500
  C 3.048283 -0.214496 -0.822759
  C 4.386651 -0.613525 -0.947534
  C 5.117722 -0.865788 -2.122456
  C 4.615135 -1.277714 -3.451256
  C 3.129787 -1.510568 -3.691877
  C 2.917185 -2.118143 -5.076409
  O 6.419120 -0.793784 -2.085486
  H 2.440627 -0.088333 -1.702415
  H 4.959547 -0.617810 -0.026051
  H 5.158705 -2.201807 -3.688851
  H 4.997063 -0.558649 -4.186056
  H 2.578904 -0.571841 -3.650975
  H 2.725266 -2.190491 -2.941378
  H 3.274978 -1.448566 -5.854935
  H 1.859696 -2.300077 -5.249467
  H 3.440557 -3.066453 -5.173718
  H 6.811965 -0.515927 -1.233637
 20
 0.733623
  H 1.558229 0.530467 0.506388
  C 2.532381 0.084460 0.409653
  H 3.096223 -0.054881 1.317729
  C 3.045407 -0.256642 -0.807907
  C 4.388961 -0.639914 -0.937961
  C 5.121968 -0.882555 -2.114464
  C 4.628837 -1.342173 -3.430812
  C 3.138718 -1.475025 -3.711729
  C 2.923856 -2.051214 -5.109530
  O 6.420088 -0.762681 -2.085570
  H 2.429057 -0.148260 -1.683522
  H 4.968318 -0.621210 -0.020130
  H 5.100103 -2.323969 -3.580760
  H 5.094070 -0.712649 -4.198211
  H 2.652257 -0.501188 -3.671715
  H 2.670253 -2.136425 -2.981778
  H 3.327093 -1.387706 -5.870585
  H 1.862616 -2.180540 -5.304516
  H 3.404135 -3.021461 -5.212614
  H 6.807713 -0.464550 -1.238445
 20
 0.616651
  H 1.527370 0.449970 0.503400
  C 2.517860 0.042776 0.413515
  H 3.075626 -0.096644 1.329448
  C 3.047528 -0.272042 -0.801956
  C 4.397911 -0.637211 -0.927624
  C 5.131900 -0.915766 -2.093101
  C 4.639245 -1.419841 -3.395664
  C 3.151538 -1.452545 -3.720530
  C 2.940162 -2.007263 -5.125956
  O 6.430202 -0.791878 -2.070224
  H 2.435584 -0.162091 -1.679907
  H 4.975812 -0.601696 -0.008733
  H 5.032511 -2.441859 -3.466081
  H 5.176932 -0.878921 -4.183049
  H 2.735332 -0.443967 -3.688724
  H 2.616489 -2.083219 -3.010226
  H 3.399625 -1.367038 -5.870278
  H 1.878116 -2.075112 -5.349017
  H 3.364546 -3.001872 -5.222578
  H 6.823521 -0.484669 -1.229887
 20
 0.737915
  H 1.525242 0.486837 0.483719
  C 2.508876 0.062106 0.401655
  H 3.054611 -0.094093 1.314739
  C 3.044805 -0.261829 -0.812799
  C 4.390036 -0.650495 -0.923896
  C 5.135426 -0.933102 -2.083550
  C 4.651035 -1.397748 -3.404610
  C 3.168643 -1.390324 -3.746962
  C 2.952094 -1.980336 -5.138456
  O 6.430063 -0.847427 -2.038372
  H 2.447362 -0.140920 -1.697761
  H 4.957940 -0.629753 0.000943
  H 5.015405 -2.430476 -3.498659
  H 5.213463 -0.853498 -4.169308
  H 2.788943 -0.370264 -3.756657
  H 2.605760 -1.979010 -3.021877
  H 3.430554 -1.367906 -5.898774
  H 1.891139 -2.025162 -5.365591
  H 3.355305 -2.988602 -5.207493
  H 6.815617 -0.556165 -1.190599
 20
 1.184168
  H 1.621743 0.707115 0.446028
  C 2.547857 0.162784 0.374016
  H 3.062322 -0.049344 1.297016
  C 3.066691 -0.211390 -0.830349
  C 4.369752 -0.720856 -0.920832
  C 5.136732 -0.967507 -2.074070
  C 4.666771 -1.342077 -3.425703
  C 3.179433 -1.461917 -3.732618
  C 2.984030 -1.984511 -5.153456
  O 6.438164 -0.926688 -1.989620
  H 2.499569 -0.022889 -1.727117
  H 4.908932 -0.779729 0.020145
  H 5.145504 -2.309435 -3.631795
  H 5.138472 -0.662303 -4.145442
  H 2.687752 -0.492467 -3.661973
  H 2.701868 -2.149574 -3.033236
  H 3.388378 -1.287172 -5.883659
  H 1.926089 -2.116133 -5.364251
  H 3.474511 -2.944421 -5.289730
  H 6.805962 -0.666093 -1.120408
 20
 1.372029
  H 1.709807 0.930194 0.395236
  C 2.561076 0.275657 0.334092
  H 2.994025 -0.047774 1.267045
  C 3.096300 -0.097019 -0.861383
  C 4.322156 -0.772106 -0.917748
  C 5.110753 -1.011406 -2.058756
  C 4.648050 -1.274883 -3.438831
  C 3.177778 -1.586803 -3.701617
  C 2.989490 -2.005097 -5.157221
  O 6.405232 -1.049496 -1.939257
  H 2.619714 0.221893 -1.773938
  H 4.793945 -0.972444 0.038981
  H 5.254756 -2.117357 -3.793421
  H 4.966976 -0.435033 -4.068675
  H 2.546123 -0.721503 -3.516436
  H 2.847605 -2.398519 -3.052297
  H 3.267992 -1.199837 -5.832617
  H 1.949280 -2.257399 -5.345136
  H 3.594330 -2.876446 -5.396812
  H 6.763490 -0.869502 -1.046720
 20
 1.350135
  H 1.805608 1.116690 0.341768
  C 2.587590 0.380576 0.289721
  H 2.955414 -0.000655 1.228392
  C 3.132556 -0.025541 -0.892582
  C 4.286015 -0.822784 -0.917376
  C 5.094647 -1.055755 -2.043103
  C 4.623449 -1.206962 -3.440273
  C 3.199458 -1.702331 -3.672749
  C 2.993412 -2.012014 -5.151809
  O 6.383210 -1.159321 -1.906631
  H 2.737030 0.363159 -1.820465
  H 4.691456 -1.110676 0.043041
  H 5.324044 -1.894291 -3.929076
  H 4.771210 -0.249770 -3.953735
  H 2.460320 -0.965597 -3.371179
  H 3.028657 -2.610253 -3.091025
  H 3.136860 -1.120136 -5.760798
  H 1.983289 -2.378640 -5.322975
  H 3.689030 -2.775247 -5.493035
  H 6.735621 -1.035333 -1.001623
