 13
 0.000000
  C 0.983843 0.150841 0.426593
  C 2.423710 0.099430 0.298518
  H 3.038144 0.431870 1.126396
  C 3.051393 -0.360776 -0.847817
  C 4.455778 -0.404930 -0.958627
  C 5.141673 -0.843053 -2.050142
  H 4.703303 -1.210061 -2.963726
  H 6.220623 -0.833865 -2.027646
  H 0.658539 0.536741 1.387760
  H 0.550040 -0.842030 0.263356
  H 0.550010 0.755194 -0.377860
  H 2.436473 -0.692335 -1.673325
  H 5.025327 -0.061378 -0.103451
 13
 -0.385636
  C 0.990601 0.147784 0.419872
  C 2.431727 0.114231 0.306626
  H 3.032893 0.482315 1.129544
  C 3.079507 -0.356543 -0.818032
  C 4.484476 -0.389456 -0.922553
  C 5.130586 -0.818295 -2.042841
  H 4.599806 -1.076507 -2.948393
  H 6.204014 -0.922071 -2.059134
  H 0.643608 0.547479 1.367339
  H 0.572124 -0.851814 0.247963
  H 0.555302 0.715759 -0.412241
  H 2.492199 -0.741354 -1.643624
  H 5.064742 -0.072464 -0.062190
 13
 1.115532
  C 0.983737 0.122545 0.415707
  C 2.425801 0.142399 0.294127
  H 3.013511 0.571801 1.096059
  C 3.086545 -0.336336 -0.820036
  C 4.491008 -0.363165 -0.925535
  C 5.120191 -0.824909 -2.039075
  H 4.611672 -0.864551 -2.991615
  H 6.147619 -1.150126 -2.037084
  H 0.630967 0.516493 1.361726
  H 0.602300 -0.890959 0.251927
  H 0.524576 0.679578 -0.409891
  H 2.525768 -0.802391 -1.621249
  H 5.074973 -0.069128 -0.061002
 13
 6.909729
  C 0.979862 0.090415 0.408836
  C 2.421608 0.180886 0.285086
  H 2.984995 0.652915 1.079607
  C 3.107924 -0.305387 -0.803204
  C 4.506605 -0.283721 -0.931492
  C 5.079133 -0.836175 -2.041384
  H 4.701074 -0.629313 -3.032808
  H 5.970333 -1.437420 -1.998955
  H 0.623658 0.416079 1.380113
  H 0.641190 -0.928107 0.198820
  H 0.494922 0.692986 -0.369407
  H 2.595747 -0.832727 -1.597151
  H 5.117253 0.008011 -0.082700
 13
 16.117319
  C 0.984098 0.037446 0.378947
  C 2.426884 0.199210 0.299616
  H 2.954382 0.650751 1.128846
  C 3.163684 -0.204051 -0.780895
  C 4.566825 -0.223101 -0.882259
  C 4.990849 -0.853372 -2.025425
  H 4.686058 -0.500294 -3.000365
  H 5.712744 -1.659055 -2.029510
  H 0.581089 0.382931 1.326618
  H 0.695218 -1.000436 0.205483
  H 0.511749 0.597474 -0.428636
  H 2.734095 -0.727179 -1.626111
  H 5.224175 0.022466 -0.063139
 13
 31.301532
  C 1.007862 -0.011839 0.309545
  C 2.455246 0.178135 0.329935
  H 2.908197 0.667282 1.179821
  C 3.268432 -0.142212 -0.722839
  C 4.663117 -0.138100 -0.823950
  C 4.811150 -0.880147 -1.995080
  H 4.656266 -0.418288 -2.964016
  H 5.323412 -1.831354 -2.008252
  H 0.558473 0.249879 1.264785
  H 0.748053 -1.041727 0.065275
  H 0.557933 0.601786 -0.471640
  H 2.861609 -0.642831 -1.609909
  H 5.400954 0.113323 -0.085095
 13
 44.313429
  C 1.058057 -0.058962 0.186010
  C 2.501959 0.186140 0.341784
  H 2.875961 0.580609 1.276023
  C 3.436963 -0.055868 -0.619768
  C 4.802310 -0.036244 -0.754628
  C 4.561348 -0.851955 -1.908965
  H 4.391129 -0.397216 -2.878533
  H 4.865746 -1.896718 -1.922810
  H 0.525627 0.159841 1.106749
  H 0.854992 -1.091936 -0.101358
  H 0.645675 0.567780 -0.607676
  H 3.050914 -0.599062 -1.570495
  H 5.640222 0.175092 -0.131576
 13
 36.832901
  C 1.101751 -0.082745 0.096844
  C 2.521822 0.209328 0.386294
  H 2.793077 0.602899 1.356596
  C 3.561870 0.002779 -0.439985
  C 4.870701 -0.024171 -0.723067
  C 4.333742 -0.826302 -1.850090
  H 4.276559 -0.334230 -2.822071
  H 4.576388 -1.886944 -1.869401
  H 0.484548 0.082998 0.973648
  H 0.965345 -1.112914 -0.235691
  H 0.734362 0.559435 -0.708766
  H 3.175876 -0.686744 -1.554094
  H 5.814624 0.145253 -0.259295
 13
 31.185024
  C 1.121363 -0.110618 0.103316
  C 2.511203 0.241456 0.463495
  H 2.697383 0.762923 1.399590
  C 3.624301 0.045202 -0.234218
  C 4.854635 -0.059253 -0.670948
  C 4.223497 -0.769252 -1.849176
  H 4.350576 -0.215266 -2.782778
  H 4.504828 -1.823337 -1.904328
  H 0.435807 0.158172 0.895521
  H 1.023967 -1.180744 -0.094869
  H 0.820467 0.412982 -0.807960
  H 3.118125 -0.713517 -1.676583
  H 5.860217 0.013101 -0.332679
 13
 27.237754
  C 1.092633 -0.102749 0.145500
  C 2.486251 0.258896 0.472675
  H 2.673861 0.817440 1.389691
  C 3.604426 0.016901 -0.176813
  C 4.805490 -0.186817 -0.664183
  C 4.268718 -0.747559 -1.965395
  H 4.443571 -0.065818 -2.800320
  H 4.661192 -1.744880 -2.141913
  H 0.414540 0.190533 0.939416
  H 0.997307 -1.176717 -0.024171
  H 0.787766 0.395189 -0.776066
  H 3.176037 -0.821177 -1.848398
  H 5.797402 -0.231639 -0.271250
 13
 18.917054
  C 1.018532 -0.076860 0.255957
  C 2.413052 0.357009 0.449790
  H 2.604672 1.083680 1.244144
  C 3.501068 0.024468 -0.204147
  C 4.686978 -0.271054 -0.690893
  C 4.418153 -0.817136 -2.067193
  H 4.616453 -0.060245 -2.830776
  H 4.997456 -1.716626 -2.245792
  H 0.363650 0.347130 1.008575
  H 0.944689 -1.166250 0.282906
  H 0.673055 0.240355 -0.728465
  H 3.341122 -1.038147 -2.105475
  H 5.629395 -0.362436 -0.175462
 13
 11.703063
  C 0.966552 -0.022402 0.332740
  C 2.374771 0.408741 0.436945
  H 2.585394 1.218481 1.140538
  C 3.424793 -0.018106 -0.217279
  C 4.581301 -0.368470 -0.739067
  C 4.525956 -0.876648 -2.135476
  H 4.682172 -0.056456 -2.847151
  H 5.268703 -1.652961 -2.301871
  H 0.339255 0.488201 1.055140
  H 0.888685 -1.102918 0.479932
  H 0.595305 0.180531 -0.673246
  H 3.503969 -1.233714 -2.297716
  H 5.482164 -0.485434 -0.142815
 13
 6.886725
  C 0.942912 -0.001109 0.420041
  C 2.347375 0.453748 0.424404
  H 2.564544 1.341827 1.018843
  C 3.357543 -0.063527 -0.224021
  C 4.453113 -0.538614 -0.762976
  C 4.609394 -0.833749 -2.201920
  H 4.814252 0.107834 -2.720204
  H 5.431760 -1.515984 -2.382362
  H 0.335828 0.586170 1.099175
  H 0.909924 -1.054392 0.706267
  H 0.519849 0.050711 -0.583272
  H 3.674389 -1.212383 -2.605442
  H 5.258139 -0.841687 -0.097858
 13
 6.177317
  C 0.944301 -0.009881 0.434591
  C 2.339043 0.473893 0.424835
  H 2.538183 1.383655 0.990726
  C 3.359016 -0.059399 -0.197224
  C 4.420246 -0.570511 -0.766986
  C 4.602963 -0.839172 -2.206877
  H 4.909392 0.101442 -2.674964
  H 5.390089 -1.565902 -2.379140
  H 0.325753 0.575381 1.107160
  H 0.935066 -1.061387 0.730806
  H 0.516148 0.019181 -0.568768
  H 3.676796 -1.152010 -2.682142
  H 5.262024 -0.816446 -0.121344
