 20
 0.000000
  C 0.958437 -0.016578 -0.005211
  C 2.454855 -0.000310 0.010516
  C 3.169406 0.813275 0.796845
  C 4.606928 0.829288 0.812319
  C 5.326962 1.645993 1.601673
  C 6.765588 1.660240 1.615437
  C 7.483994 2.471812 2.399820
  C 8.974042 2.501478 2.428494
  H 0.596766 -0.755381 -0.719261
  H 0.563016 0.955120 -0.299915
  H 0.563014 -0.278017 0.975959
  H 2.954262 -0.692488 -0.658481
  H 2.658215 1.501834 1.462343
  H 5.111058 0.140465 0.146575
  H 4.823359 2.334979 2.267575
  H 7.272204 0.972119 0.950368
  H 6.985735 3.162955 3.067813
  H 9.408369 1.783853 1.734905
  H 9.333154 2.268834 3.432116
  H 9.333156 3.496599 2.161802
 20
 10.923758
  C 0.915307 -0.009501 0.001629
  C 2.422796 0.023876 0.033890
  C 3.206172 0.780220 0.764895
  C 4.641308 0.812172 0.795780
  C 5.349083 1.625072 1.581442
  C 6.784193 1.656895 1.612206
  C 7.492779 2.466136 2.394338
  C 8.976906 2.512062 2.438725
  H 0.560732 -0.740624 -0.705001
  H 0.518225 0.958897 -0.276545
  H 0.518218 -0.254528 0.978951
  H 3.030132 -0.565860 -0.536089
  H 2.590976 1.376201 1.340907
  H 5.152856 0.126068 0.132658
  H 4.829326 2.310787 2.244196
  H 7.296794 0.971037 0.949322
  H 6.982080 3.152432 3.057652
  H 9.411626 1.797605 1.748198
  H 9.331132 2.289857 3.442910
  H 9.331140 3.508119 2.182448
 20
 47.121924
  C 0.910588 -0.001158 0.009610
  C 2.388473 0.039499 0.048955
  C 3.229848 0.770321 0.755441
  C 4.642561 0.805194 0.789227
  C 5.355478 1.625177 1.581798
  C 6.781732 1.655871 1.611294
  C 7.493082 2.466905 2.395031
  C 8.979943 2.512116 2.438714
  H 0.563142 -0.740124 -0.704724
  H 0.511111 0.972441 -0.272767
  H 0.511069 -0.250353 0.992212
  H 3.114808 -0.436671 -0.411310
  H 2.503227 1.242497 1.211838
  H 5.154308 0.116601 0.123520
  H 4.835033 2.307659 2.241318
  H 7.292647 0.969486 0.947833
  H 6.981764 3.152965 3.057995
  H 9.414128 1.795539 1.746257
  H 9.335556 2.289529 3.444640
  H 9.335536 3.509827 2.181819
 20
 104.773600
  C 0.882221 -0.016742 -0.005739
  C 2.348394 0.031109 0.040846
  C 3.234798 0.789563 0.774388
  C 4.636973 0.818535 0.802859
  C 5.358617 1.638418 1.595279
  C 6.795752 1.663208 1.618581
  C 7.517305 2.471258 2.398982
  C 9.007567 2.508214 2.434824
  H 0.539989 -0.756671 -0.721280
  H 0.472323 0.957327 -0.291448
  H 0.472056 -0.269469 0.977274
  H 3.186446 -0.296651 -0.275901
  H 2.387212 1.101602 1.075761
  H 5.155416 0.132045 0.138754
  H 4.844767 2.321236 2.254848
  H 7.302017 0.975544 0.953712
  H 7.012829 3.163321 3.067321
  H 9.435579 1.787961 1.739270
  H 9.368238 2.283593 3.440555
  H 9.368372 3.505627 2.175268
 20
 154.893098
  C 0.813087 -0.055524 -0.049513
  C 2.283146 0.051317 0.004168
  C 3.231033 0.873556 0.878236
  C 4.630648 0.890849 0.837150
  C 5.385192 1.662565 1.661072
  C 6.827768 1.689935 1.629309
  C 7.582786 2.450576 2.438089
  C 9.068777 2.486310 2.416349
  H 0.513296 -0.764457 -0.826057
  H 0.340534 0.922655 -0.279218
  H 0.395087 -0.407756 0.917087
  H 3.198473 -0.131290 -0.241195
  H 2.239469 0.922554 0.972980
  H 5.149652 0.260804 0.118638
  H 4.890120 2.299574 2.384984
  H 7.309660 1.052062 0.902553
  H 7.104645 3.097082 3.171146
  H 9.469087 1.813196 1.657720
  H 9.467276 2.196659 3.391025
  H 9.419496 3.499433 2.210376
 20
 172.151249
  C 0.679754 -0.047350 -0.042682
  C 2.152875 0.048402 0.012476
  C 3.321698 0.895650 0.853057
  C 4.709203 0.870778 0.806154
  C 5.450137 1.674707 1.618360
  C 6.880153 1.683985 1.631515
  C 7.617395 2.467648 2.430463
  C 9.105817 2.501875 2.445420
  H 0.372432 -0.791283 -0.792505
  H 0.224905 0.909320 -0.306760
  H 0.261509 -0.345004 0.920425
  H 3.065855 -0.170462 -0.237180
  H 2.320426 0.833861 0.940559
  H 5.262820 0.208626 0.134336
  H 4.930236 2.333041 2.301058
  H 7.369488 1.015857 0.951931
  H 7.117421 3.135837 3.124857
  H 9.518802 1.807874 1.724925
  H 9.480787 2.250023 3.434600
  H 9.461770 3.500859 2.216060
 20
 162.288116
  C 0.689839 -0.311467 -0.255218
  C 2.061295 0.100654 0.002528
  C 3.175298 1.460724 1.339327
  C 4.506257 1.206002 1.127562
  C 5.427983 1.920343 1.875004
  C 6.831706 1.788478 1.720521
  C 7.731395 2.502678 2.424972
  C 9.205049 2.329476 2.320072
  H 0.675382 -1.062969 -1.037148
  H 0.055401 0.532178 -0.562890
  H 0.214746 -0.735030 0.646280
  H 3.019677 -0.069065 -0.299895
  H 2.365176 0.786541 0.812839
  H 4.908602 0.477885 0.421171
  H 5.058152 2.653651 2.580495
  H 7.185091 1.054644 1.005182
  H 7.397038 3.246857 3.124982
  H 9.462438 1.539508 1.607403
  H 9.622433 2.068747 3.294174
  H 9.674253 3.257072 2.001832
 20
 138.509499
  C 0.952776 -0.143293 -0.262568
  C 2.346113 0.214159 0.126199
  C 3.061844 1.323716 1.386499
  C 4.410570 1.059189 1.173122
  C 5.319180 1.826442 1.851053
  C 6.732482 1.691175 1.708585
  C 7.633688 2.461814 2.355592
  C 9.109521 2.337004 2.211859
  H 0.974958 -0.899804 -1.045333
  H 0.395253 0.721860 -0.637855
  H 0.379920 -0.538089 0.581217
  H 3.212518 -0.233517 -0.317534
  H 2.142689 0.718549 1.147317
  H 4.822191 0.280555 0.536179
  H 4.947932 2.595540 2.514089
  H 7.088887 0.919026 1.032982
  H 7.286423 3.228714 3.035834
  H 9.373176 1.537333 1.523297
  H 9.566720 2.130541 3.181214
  H 9.535960 3.271598 1.847144
