 15
 0.000000
  C 0.881853 0.043430 0.344230
  C 2.351721 0.059391 0.045119
  H 2.996873 0.012582 0.911557
  C 2.931680 0.128006 -1.146132
  C 2.375777 0.207618 -2.540110
  C 0.866869 0.219130 -2.750206
  H 0.656223 0.279886 -3.815080
  H 4.015905 0.129034 -1.167546
  H 0.707373 -0.018843 1.417029
  H 0.396000 -0.815412 -0.113147
  H 0.400849 0.951144 -0.013829
  H 2.792585 -0.637763 -3.099865
  H 2.792137 1.111564 -2.999653
  H 0.407868 1.076519 -2.266971
  H 0.408590 -0.688064 -2.367688
 15
 5.911740
  C 0.874210 0.006150 0.374946
  C 2.307471 0.054250 0.040141
  H 3.009261 -0.002811 0.924362
  C 2.902884 0.137430 -1.141015
  C 2.368774 0.220706 -2.545597
  C 0.860048 0.202580 -2.761846
  H 0.651356 0.266808 -3.828993
  H 3.988348 0.161320 -1.138404
  H 0.684739 -0.020232 1.446120
  H 0.315264 -0.795089 -0.104223
  H 0.652215 0.972906 -0.053386
  H 2.809666 -0.611409 -3.106357
  H 2.775193 1.136495 -2.990646
  H 0.377861 1.046354 -2.276917
  H 0.422002 -0.717759 -2.389480
 15
 18.334816
  C 0.867308 0.012906 0.369255
  C 2.286066 0.031087 0.044262
  H 2.995880 -0.063480 0.922357
  C 2.892668 0.138148 -1.132068
  C 2.359079 0.238128 -2.532832
  C 0.852644 0.163527 -2.749156
  H 0.642660 0.244738 -3.811839
  H 3.971639 0.192547 -1.124654
  H 0.648008 0.002520 1.423016
  H 0.251572 -0.690295 -0.171640
  H 0.915930 0.990308 -0.062501
  H 2.830516 -0.563958 -3.113713
  H 2.730418 1.180772 -2.955532
  H 0.332351 0.972116 -2.245261
  H 0.455169 -0.785756 -2.402468
 15
 32.692637
  C 0.849994 0.007181 0.387670
  C 2.271229 0.036874 0.042044
  H 2.980262 -0.056873 0.920023
  C 2.888564 0.146375 -1.131202
  C 2.357857 0.246110 -2.539721
  C 0.852028 0.144476 -2.760287
  H 0.639974 0.229608 -3.824367
  H 3.965879 0.208040 -1.113472
  H 0.630712 -0.025449 1.439795
  H 0.190224 -0.613705 -0.194388
  H 1.103452 0.976320 -0.014893
  H 2.845330 -0.541856 -3.125413
  H 2.710688 1.197771 -2.954912
  H 0.315927 0.937648 -2.248830
  H 0.474445 -0.816504 -2.421733
 15
 44.942830
  C 0.829701 -0.004933 0.397531
  C 2.253130 0.051054 0.027205
  H 2.941124 -0.027172 0.910842
  C 2.891476 0.156956 -1.141356
  C 2.366211 0.248851 -2.552110
  C 0.858190 0.131565 -2.756784
  H 0.632737 0.211237 -3.809871
  H 3.976531 0.219736 -1.106570
  H 0.626375 -0.069257 1.444014
  H 0.131811 -0.549855 -0.215846
  H 1.236374 0.953890 0.039433
  H 2.859852 -0.540136 -3.143527
  H 2.709520 1.211677 -2.976182
  H 0.320235 0.922047 -2.238794
  H 0.498338 -0.825564 -2.414190
 15
 54.738908
  C 0.818501 -0.021043 0.409230
  C 2.240321 0.066726 0.021873
  H 2.913119 0.004707 0.910741
  C 2.891309 0.168494 -1.148412
  C 2.371895 0.252621 -2.561608
  C 0.865714 0.129151 -2.759049
  H 0.634108 0.201850 -3.811323
  H 3.977101 0.227341 -1.102797
  H 0.629706 -0.102017 1.457545
  H 0.098196 -0.515201 -0.220365
  H 1.335126 0.930973 0.073870
  H 2.868906 -0.538988 -3.153306
  H 2.706641 1.206323 -2.988069
  H 0.332181 0.916612 -2.245327
  H 0.512235 -0.822898 -2.410343
 15
 61.523984
  C 0.809352 -0.036155 0.404119
  C 2.239127 0.081495 0.023845
  H 2.909545 0.024399 0.919833
  C 2.901402 0.180396 -1.150382
  C 2.378727 0.253783 -2.566174
  C 0.869153 0.120500 -2.753438
  H 0.627460 0.185660 -3.812145
  H 3.986981 0.231946 -1.099919
  H 0.611045 -0.145172 1.447203
  H 0.081015 -0.454134 -0.260420
  H 1.424938 0.923982 0.109653
  H 2.873738 -0.532214 -3.153833
  H 2.704443 1.206845 -2.999281
  H 0.329394 0.919068 -2.233804
  H 0.519748 -0.842981 -2.390105
 15
 67.488221
  C 0.804581 -0.045717 0.415303
  C 2.235189 0.093586 0.030235
  H 2.910833 0.014982 0.920144
  C 2.896428 0.189990 -1.154988
  C 2.376658 0.256015 -2.567590
  C 0.877732 0.111851 -2.759904
  H 0.642079 0.177804 -3.815346
  H 3.985403 0.249148 -1.103276
  H 0.603771 -0.174894 1.458024
  H 0.064381 -0.386532 -0.274462
  H 1.502938 0.925684 0.150024
  H 2.881825 -0.529045 -3.157925
  H 2.691303 1.204037 -2.995762
  H 0.334804 0.899882 -2.244786
  H 0.532724 -0.856559 -2.399895
 15
 72.134852
  C 0.812540 -0.078918 0.431536
  C 2.238136 0.115006 0.044054
  H 2.929766 0.042807 0.932081
  C 2.896614 0.192298 -1.152956
  C 2.381313 0.249219 -2.563732
  C 0.877755 0.109926 -2.774153
  H 0.651275 0.168557 -3.848188
  H 3.974835 0.245775 -1.103867
  H 0.606095 -0.207398 1.468664
  H 0.061265 -0.369479 -0.275486
  H 1.554208 0.933210 0.173823
  H 2.878005 -0.528753 -3.130265
  H 2.706972 1.198120 -3.004734
  H 0.326334 0.913437 -2.266661
  H 0.529538 -0.841181 -2.415737
 15
 74.989300
  C 0.820527 -0.132517 0.429021
  C 2.236162 0.142014 0.050900
  H 2.940956 0.054366 0.941147
  C 2.899320 0.193676 -1.155831
  C 2.384049 0.248388 -2.564696
  C 0.883193 0.112984 -2.773548
  H 0.658768 0.170293 -3.839951
  H 3.976098 0.255525 -1.106455
  H 0.589286 -0.241723 1.472179
  H 0.056792 -0.326422 -0.287894
  H 1.597762 0.969948 0.194498
  H 2.886002 -0.546731 -3.137099
  H 2.712534 1.196766 -3.014213
  H 0.342088 0.910114 -2.275389
  H 0.529229 -0.844157 -2.409368
 15
 76.650010
  C 0.834012 -0.194651 0.421968
  C 2.235677 0.162089 0.061790
  H 2.935501 0.062739 0.946772
  C 2.907544 0.190029 -1.155674
  C 2.390433 0.246780 -2.562477
  C 0.885644 0.113541 -2.768756
  H 0.659456 0.172132 -3.833882
  H 3.984797 0.266950 -1.103328
  H 0.576432 -0.243988 1.460805
  H 0.062107 -0.309965 -0.302508
  H 1.647820 1.013250 0.190311
  H 2.890081 -0.548819 -3.135808
  H 2.719127 1.192388 -3.014053
  H 0.346937 0.914234 -2.269597
  H 0.530207 -0.842672 -2.402601
 15
 76.903363
  C 0.847549 -0.257025 0.415917
  C 2.229917 0.182193 0.075880
  H 2.926791 0.069935 0.952708
  C 2.914231 0.189333 -1.153432
  C 2.395460 0.247311 -2.559573
  C 0.887565 0.118132 -2.763729
  H 0.659067 0.178989 -3.829639
  H 3.989572 0.274683 -1.097743
  H 0.563707 -0.236089 1.447043
  H 0.073630 -0.315526 -0.315546
  H 1.708491 1.075750 0.174389
  H 2.894503 -0.549585 -3.134179
  H 2.727790 1.193194 -3.013441
  H 0.351559 0.919753 -2.261785
  H 0.529396 -0.838546 -2.397909
 15
 76.638401
  C 0.868967 -0.313944 0.431390
  C 2.218323 0.205643 0.091437
  H 2.915472 0.104210 0.953245
  C 2.908462 0.190696 -1.152196
  C 2.397484 0.247915 -2.555882
  C 0.891551 0.134693 -2.775672
  H 0.674755 0.198849 -3.845749
  H 3.985078 0.276543 -1.092275
  H 0.572616 -0.230868 1.460570
  H 0.091125 -0.357390 -0.298465
  H 1.757856 1.128818 0.146097
  H 2.894060 -0.554111 -3.123233
  H 2.744348 1.189766 -3.011636
  H 0.359483 0.942125 -2.278234
  H 0.518831 -0.818248 -2.413979
 15
 75.849640
  C 0.877592 -0.341648 0.426275
  C 2.208096 0.226931 0.097639
  H 2.910544 0.104236 0.956222
  C 2.912828 0.200093 -1.155035
  C 2.402769 0.256655 -2.555469
  C 0.897429 0.139289 -2.772185
  H 0.677530 0.207773 -3.839999
  H 3.986507 0.298138 -1.090159
  H 0.565364 -0.226704 1.449237
  H 0.098330 -0.365258 -0.307960
  H 1.835815 1.192466 0.120052
  H 2.901085 -0.542076 -3.121942
  H 2.746162 1.196388 -3.011442
  H 0.365794 0.940329 -2.269432
  H 0.529786 -0.813894 -2.413688
