 17
 0.000000
  H 1.433147 -0.076807 0.037155
  C 2.505495 -0.083285 0.024535
  C 3.220129 -0.594349 -0.978576
  C 4.657629 -0.605025 -0.999390
  C 5.378851 -1.120210 -2.010590
  C 6.816691 -1.130078 -2.029870
  C 7.533731 -1.641528 -3.034617
  C 9.023056 -1.662293 -3.075702
  H 3.002377 0.352257 0.879513
  H 2.710304 -1.028048 -1.829925
  H 5.161559 -0.170109 -0.145651
  H 4.875135 -1.555199 -2.864458
  H 7.324289 -0.695446 -1.177956
  H 7.033555 -2.077331 -3.890183
  H 9.458249 -1.209871 -2.186758
  H 9.381995 -1.117028 -3.949881
  H 9.381154 -2.690118 -3.148849
 17
 0.150205
  H 1.426824 -0.070031 0.011888
  C 2.502418 -0.049011 0.012139
  C 3.221178 -0.601210 -0.963252
  C 4.659568 -0.595521 -1.000990
  C 5.383825 -1.152256 -1.986272
  C 6.820523 -1.146575 -2.028978
  C 7.540290 -1.685037 -3.016067
  C 9.027117 -1.663008 -3.081863
  H 2.970819 0.443030 0.844319
  H 2.722372 -1.091514 -1.791501
  H 5.163789 -0.107078 -0.175821
  H 4.876770 -1.640123 -2.810710
  H 7.325849 -0.668121 -1.198550
  H 7.036497 -2.159441 -3.847532
  H 9.458688 -1.453211 -2.106592
  H 9.358427 -0.884807 -3.776612
  H 9.411745 -2.616145 -3.446484
 17
 0.685468
  H 1.430585 -0.055718 0.012869
  C 2.506106 -0.019864 -0.001878
  C 3.221001 -0.607866 -0.959423
  C 4.657589 -0.584530 -1.015230
  C 5.378146 -1.177584 -1.982430
  C 6.812178 -1.152849 -2.043557
  C 7.539254 -1.722799 -3.007246
  C 9.029180 -1.653344 -3.077412
  H 2.979327 0.518476 0.803055
  H 2.719778 -1.143211 -1.756323
  H 5.164381 -0.051128 -0.220863
  H 4.868549 -1.710831 -2.775862
  H 7.316191 -0.622041 -1.244330
  H 7.042253 -2.248082 -3.812396
  H 9.472197 -1.699533 -2.084543
  H 9.333022 -0.709455 -3.533856
  H 9.427234 -2.464309 -3.682188
 17
 1.085519
  H 1.432707 -0.046606 0.013648
  C 2.507213 0.005764 -0.017567
  C 3.219676 -0.617778 -0.954247
  C 4.654823 -0.574746 -1.029957
  C 5.372824 -1.201360 -1.977779
  C 6.804824 -1.155142 -2.059380
  C 7.540654 -1.748130 -3.002304
  C 9.030889 -1.642591 -3.067933
  H 2.981698 0.590036 0.753947
  H 2.717384 -1.200024 -1.716876
  H 5.162842 0.003679 -0.268543
  H 4.861868 -1.779692 -2.738220
  H 7.303540 -0.577620 -1.289075
  H 7.055019 -2.323909 -3.778796
  H 9.485131 -1.953559 -2.128026
  H 9.324075 -0.606650 -3.247319
  H 9.430072 -2.257785 -3.869449
 17
 1.066254
  H 1.431412 -0.034905 0.007596
  C 2.504819 0.029248 -0.036635
  C 3.216078 -0.623978 -0.953797
  C 4.649800 -0.566956 -1.045368
  C 5.366169 -1.219650 -1.976568
  C 6.796358 -1.156505 -2.074970
  C 7.545750 -1.767906 -2.994513
  C 9.033557 -1.628084 -3.049664
  H 2.979256 0.650333 0.705594
  H 2.713842 -1.243137 -1.686814
  H 5.158042 0.045798 -0.311434
  H 4.854835 -1.831595 -2.710162
  H 7.286130 -0.541840 -1.327313
  H 7.079710 -2.392089 -3.744891
  H 9.503707 -2.182448 -2.237060
  H 9.317677 -0.579735 -2.944431
  H 9.424615 -2.003715 -3.991462
 17
 0.728979
  H 1.425490 -0.013946 -0.013946
  C 2.498474 0.054866 -0.061203
  C 3.212112 -0.619954 -0.960733
  C 4.645338 -0.556950 -1.056680
  C 5.363903 -1.230721 -1.970853
  C 6.793441 -1.157310 -2.076133
  C 7.552781 -1.793360 -2.969802
  C 9.034351 -1.620035 -3.031188
  H 2.970112 0.700224 0.661819
  H 2.712374 -1.262331 -1.675227
  H 5.151223 0.078168 -0.340301
  H 4.854733 -1.864000 -2.687729
  H 7.275411 -0.514543 -1.347168
  H 7.103584 -2.463984 -3.689769
  H 9.538688 -2.367721 -2.418182
  H 9.308571 -0.629888 -2.666410
  H 9.391950 -1.726991 -4.053349
 17
 0.646212
  H 1.419751 0.011140 -0.045221
  C 2.493086 0.079554 -0.087269
  C 3.213406 -0.614173 -0.970175
  C 4.647419 -0.551522 -1.060096
  C 5.372186 -1.251435 -1.948873
  C 6.801496 -1.168444 -2.057283
  C 7.561727 -1.839366 -2.923688
  C 9.030415 -1.612740 -3.032377
  H 2.959939 0.741003 0.624388
  H 2.718259 -1.272619 -1.673277
  H 5.148363 0.103660 -0.358431
  H 4.867387 -1.902629 -2.652514
  H 7.280853 -0.511144 -1.340395
  H 7.124353 -2.573742 -3.586434
  H 9.598291 -2.471364 -2.676997
  H 9.295326 -0.724447 -2.461447
  H 9.305282 -1.440153 -4.073293
 17
 4.272422
  H 1.418538 0.104783 -0.128619
  C 2.494774 0.126979 -0.130871
  C 3.217074 -0.573920 -1.009255
  C 4.654464 -0.567800 -1.051209
  C 5.380559 -1.288834 -1.922158
  C 6.812180 -1.222628 -2.016851
  C 7.574837 -1.923408 -2.869032
  C 9.009634 -1.572709 -3.053919
  H 2.963399 0.753633 0.610657
  H 2.719852 -1.201412 -1.738961
  H 5.157455 0.065828 -0.331447
  H 4.872299 -1.912472 -2.647973
  H 7.294448 -0.644939 -1.236169
  H 7.175202 -2.759422 -3.426283
  H 9.686083 -2.413941 -2.939366
  H 9.215986 -0.748602 -2.372770
  H 9.147497 -1.159848 -4.056944
 17
 16.790632
  H 1.452405 0.239607 -0.222363
  C 2.524933 0.171746 -0.164363
  C 3.239714 -0.518787 -1.053201
  C 4.671064 -0.621126 -1.024145
  C 5.393033 -1.307021 -1.930224
  C 6.824526 -1.306028 -1.979004
  C 7.584660 -2.027930 -2.828073
  C 8.961500 -1.517523 -3.070060
  H 2.997329 0.711518 0.640121
  H 2.738772 -1.042284 -1.858153
  H 5.180944 -0.075496 -0.239768
  H 4.877653 -1.852310 -2.712770
  H 7.295082 -0.872111 -1.103791
  H 7.259409 -2.962443 -3.259205
  H 9.756306 -2.251095 -3.057123
  H 9.005594 -0.671685 -2.381083
  H 8.981095 -0.988157 -4.030379
 17
 35.112867
  H 1.494139 0.256134 -0.195887
  C 2.570282 0.219411 -0.180284
  C 3.272173 -0.470001 -1.091426
  C 4.690778 -0.588904 -1.077702
  C 5.383595 -1.346077 -1.940713
  C 6.830250 -1.404635 -1.968349
  C 7.580619 -2.097111 -2.838974
  C 8.912858 -1.457868 -3.052670
  H 3.056906 0.736831 0.630943
  H 2.755478 -1.007096 -1.873777
  H 5.215096 -0.073022 -0.283726
  H 4.853378 -1.818046 -2.766698
  H 7.280461 -1.183641 -0.998106
  H 7.323566 -3.072847 -3.230519
  H 9.771445 -2.103989 -3.107823
  H 8.800929 -0.657707 -2.306697
  H 8.888480 -0.794878 -3.924601
 17
 64.901233
  H 1.537588 0.344590 -0.274512
  C 2.603395 0.220244 -0.191674
  C 3.314248 -0.438107 -1.110840
  C 4.732515 -0.638057 -1.035729
  C 5.447524 -1.315978 -1.959623
  C 6.864932 -1.458352 -1.926283
  C 7.631879 -2.220445 -2.792458
  C 8.827668 -1.455088 -3.096913
  H 3.071640 0.655967 0.676070
  H 2.817644 -0.856513 -1.978210
  H 5.239455 -0.207798 -0.180354
  H 4.938530 -1.730806 -2.822310
  H 7.284480 -1.255358 -0.947248
  H 7.406277 -3.217710 -3.130682
  H 9.765782 -1.981123 -3.220500
  H 8.373300 -0.627802 -2.327199
  H 8.741190 -0.641625 -3.828691
 17
 81.321070
  H 1.525776 0.294304 -0.293421
  C 2.593722 0.190428 -0.200392
  C 3.326605 -0.433725 -1.120521
  C 4.751425 -0.602757 -1.033472
  C 5.485985 -1.260316 -1.948666
  C 6.926401 -1.391518 -1.900505
  C 7.665258 -2.239159 -2.778153
  C 8.800171 -1.516726 -3.158513
  H 3.042427 0.617586 0.681618
  H 2.848666 -0.854335 -1.996070
  H 5.237642 -0.177311 -0.163256
  H 4.999057 -1.660091 -2.830865
  H 7.329039 -1.265854 -0.898867
  H 7.407097 -3.246087 -3.066957
  H 9.748810 -2.025864 -3.337455
  H 8.111680 -0.551494 -2.223354
  H 8.696955 -0.661928 -3.812287
 17
 64.751279
  H 1.514335 0.280649 -0.361859
  C 2.575189 0.159814 -0.225634
  C 3.342549 -0.428180 -1.137796
  C 4.763644 -0.617456 -0.993282
  C 5.538104 -1.187075 -1.920773
  C 7.013467 -1.320107 -1.832963
  C 7.712346 -2.247529 -2.739514
  C 8.771130 -1.575386 -3.266862
  H 2.983819 0.525752 0.701841
  H 2.905831 -0.786847 -2.061142
  H 5.210571 -0.242423 -0.080674
  H 5.090929 -1.537082 -2.842569
  H 7.393407 -1.253927 -0.800963
  H 7.391018 -3.247656 -2.988704
  H 9.698508 -2.070740 -3.541064
  H 7.850502 -0.515442 -2.101117
  H 8.619973 -0.672007 -3.832257
 17
 43.378598
  H 1.511128 0.159030 -0.311365
  C 2.581250 0.109574 -0.211126
  C 3.347801 -0.449282 -1.134338
  C 4.781056 -0.528151 -1.044861
  C 5.534327 -1.151425 -1.929273
  C 7.010581 -1.254026 -1.846326
  C 7.699916 -2.203873 -2.766012
  C 8.799248 -1.650449 -3.271899
  H 3.004252 0.598014 0.650291
  H 2.899310 -0.890830 -2.015608
  H 5.232013 -0.111686 -0.151238
  H 5.079442 -1.548180 -2.826812
  H 7.377746 -1.393806 -0.812866
  H 7.313047 -3.171956 -3.002161
  H 9.671635 -2.192014 -3.612545
  H 7.730557 -0.402354 -2.051644
  H 8.802014 -0.654230 -3.687549
 17
 9.810912
  H 1.469829 0.011166 -0.388972
  C 2.531161 -0.058284 -0.223672
  C 3.368152 -0.462761 -1.173354
  C 4.799391 -0.549809 -0.999402
  C 5.643007 -0.912812 -1.964339
  C 7.129918 -0.982880 -1.809446
  C 7.745926 -2.075530 -2.626934
  C 8.723757 -1.885826 -3.491923
  H 2.882706 0.222238 0.755856
  H 2.990602 -0.738061 -2.149950
  H 5.183121 -0.289465 -0.020473
  H 5.266986 -1.176489 -2.944990
  H 7.381421 -1.157605 -0.756960
  H 7.330521 -3.063001 -2.471623
  H 9.225887 -2.693392 -3.996727
  H 7.588221 -0.025231 -2.081047
  H 9.114715 -0.897902 -3.681378
