 23
 0.000000
  H 1.467194 0.167425 0.468604
  C 2.546977 0.150168 0.425053
  C 3.289358 0.622567 1.599649
  C 2.396069 1.081888 2.743394
  H 2.997526 1.419137 3.582034
  C 3.101869 -0.320880 -0.747402
  C 4.476138 -0.415907 -0.984397
  C 5.137344 -0.873387 -2.125569
  C 4.603152 -1.389796 -3.413263
  C 3.108386 -1.491596 -3.668063
  H 2.956838 -1.892040 -4.666547
  O 6.451470 -0.877996 -2.137719
  H 3.951826 1.444367 1.302994
  H 3.952491 -0.175387 1.954072
  H 1.756992 0.271540 3.085759
  H 1.756390 1.903400 2.429966
  H 2.416720 -0.629857 -1.516678
  H 5.122642 -0.091944 -0.177038
  H 5.056192 -2.378860 -3.548307
  H 5.056722 -0.768562 -4.194387
  H 2.629529 -0.517204 -3.626583
  H 2.629037 -2.166999 -2.964864
  H 6.875402 -0.550738 -1.321013
 23
 0.595899
  H 1.469773 -0.034494 0.569581
  C 2.547041 -0.024224 0.474970
  C 3.281312 0.719281 1.506827
  C 2.410377 1.154698 2.677348
  H 2.999154 1.708593 3.403328
  C 3.093120 -0.641330 -0.627462
  C 4.470079 -0.725267 -0.865233
  C 5.139071 -1.030014 -2.050303
  C 4.603708 -1.265335 -3.416472
  C 3.110235 -1.403580 -3.657502
  H 2.950506 -1.581350 -4.718151
  O 6.452535 -1.046284 -2.053723
  H 3.731802 1.608496 1.047148
  H 4.126638 0.126102 1.872011
  H 1.978086 0.291708 3.178137
  H 1.597855 1.795060 2.342679
  H 2.408992 -1.078813 -1.333683
  H 5.111968 -0.486190 -0.024691
  H 5.118548 -2.155756 -3.794237
  H 4.991430 -0.445013 -4.032825
  H 2.575657 -0.495783 -3.393734
  H 2.695632 -2.251058 -3.118909
  H 6.874619 -0.911026 -1.183836
 23
 3.108723
  H 1.469623 -0.287669 0.622356
  C 2.538692 -0.222054 0.475107
  C 3.247814 0.783159 1.280972
  C 2.438880 1.281134 2.471550
  H 2.999997 2.029564 3.024276
  C 3.109222 -0.984970 -0.506153
  C 4.497752 -1.035812 -0.746017
  C 5.161395 -1.110829 -1.963342
  C 4.590383 -1.042308 -3.333870
  C 3.093448 -1.187580 -3.541823
  H 2.885056 -1.120186 -4.606462
  O 6.475662 -1.119377 -1.991975
  H 3.493534 1.638939 0.639882
  H 4.212883 0.386462 1.612546
  H 2.205088 0.461582 3.146805
  H 1.503627 1.732166 2.148686
  H 2.455526 -1.584079 -1.120808
  H 5.131196 -0.941830 0.130381
  H 5.120337 -1.795334 -3.927134
  H 4.921341 -0.083489 -3.751113
  H 2.542039 -0.394797 -3.044474
  H 2.736083 -2.153955 -3.198302
  H 6.911580 -1.179362 -1.121002
 23
 7.475985
  H 1.484799 -0.521520 0.651980
  C 2.535436 -0.399994 0.433490
  C 3.201954 0.792611 0.990579
  C 2.457418 1.392077 2.175133
  H 2.979867 2.272305 2.543652
  C 3.145289 -1.273447 -0.403303
  C 4.549288 -1.295682 -0.664405
  C 5.194398 -1.131497 -1.875031
  C 4.567510 -0.776619 -3.175228
  C 3.066614 -0.940751 -3.323239
  H 2.783557 -0.674850 -4.337844
  O 6.508293 -1.167002 -1.946952
  H 3.287292 1.554437 0.208244
  H 4.231752 0.535234 1.260766
  H 2.382189 0.671251 2.986129
  H 1.450759 1.692777 1.893559
  H 2.540196 -2.032130 -0.886667
  H 5.179719 -1.420405 0.211172
  H 5.084164 -1.361103 -3.944107
  H 4.848258 0.261750 -3.386338
  H 2.523726 -0.290342 -2.642262
  H 2.762803 -1.969309 -3.151159
  H 6.963435 -1.397313 -1.115922
 23
 13.727830
  H 1.523455 -0.695917 0.636214
  C 2.565695 -0.563912 0.387390
  C 3.196326 0.728143 0.769754
  C 2.430804 1.441233 1.873488
  H 2.917628 2.380919 2.122624
  C 3.211738 -1.515667 -0.295173
  C 4.619588 -1.520641 -0.619121
  C 5.216727 -1.089310 -1.786746
  C 4.525327 -0.558699 -2.987967
  C 3.027076 -0.764576 -3.097156
  H 2.690090 -0.394101 -4.061650
  O 6.528212 -1.081674 -1.907381
  H 3.247757 1.386174 -0.104203
  H 4.233101 0.536306 1.067575
  H 2.385819 0.827756 2.770345
  H 1.412680 1.664490 1.562079
  H 2.664787 -2.403979 -0.601721
  H 5.267561 -1.905951 0.163103
  H 5.023628 -1.007769 -3.854777
  H 4.766626 0.508601 -3.060931
  H 2.486078 -0.224472 -2.324847
  H 2.768228 -1.817134 -3.031637
  H 7.019981 -1.415605 -1.134283
 23
 10.502499
  H 1.574575 -0.809332 0.634061
  C 2.613682 -0.651734 0.362419
  C 3.170362 0.686917 0.662059
  C 2.347469 1.461912 1.679207
  H 2.774937 2.446598 1.840629
  C 3.313679 -1.660359 -0.196106
  C 4.679155 -1.652949 -0.620077
  C 5.243271 -1.061795 -1.732636
  C 4.514055 -0.433097 -2.874331
  C 3.011358 -0.624121 -2.973582
  H 2.664932 -0.194053 -3.911360
  O 6.544288 -1.057705 -1.918240
  H 3.189336 1.248836 -0.282602
  H 4.208935 0.614204 0.995972
  H 2.330305 0.942492 2.636325
  H 1.320855 1.587055 1.339535
  H 2.848858 -2.645063 -0.224154
  H 5.331770 -2.262829 -0.001315
  H 4.995271 -0.809685 -3.785597
  H 4.750375 0.637059 -2.851408
  H 2.480001 -0.134690 -2.168922
  H 2.753102 -1.679783 -2.977109
  H 7.073730 -1.434464 -1.189314
 23
 6.046653
  H 1.604330 -0.842378 0.645609
  C 2.628080 -0.696305 0.331657
  C 3.166992 0.666929 0.506003
  C 2.354225 1.510965 1.477535
  H 2.767518 2.512547 1.544535
  C 3.334295 -1.777196 -0.110563
  C 4.648609 -1.806302 -0.630099
  C 5.220106 -1.037889 -1.632855
  C 4.497755 -0.267390 -2.686260
  C 3.024162 -0.572833 -2.918017
  H 2.693507 -0.039811 -3.804397
  O 6.519521 -1.031543 -1.821092
  H 3.150262 1.162207 -0.472341
  H 4.216523 0.637888 0.812593
  H 2.370876 1.073656 2.473007
  H 1.317486 1.590385 1.156199
  H 2.899586 -2.750898 0.070906
  H 5.271288 -2.596613 -0.225577
  H 5.049056 -0.453514 -3.613179
  H 4.640712 0.797720 -2.476627
  H 2.395553 -0.270855 -2.097191
  H 2.877281 -1.633447 -3.093757
  H 7.045611 -1.496113 -1.144041
 23
 4.157476
  H 1.594198 -0.823109 0.663719
  C 2.605785 -0.679315 0.299130
  C 3.098461 0.706937 0.345321
  C 2.420463 1.534838 1.434008
  H 2.779057 2.559278 1.403961
  C 3.320089 -1.796751 -0.050494
  C 4.588747 -1.876995 -0.639142
  C 5.194748 -1.029499 -1.565627
  C 4.498414 -0.156876 -2.552030
  C 3.110463 -0.610569 -2.992194
  H 2.776804 0.020133 -3.817059
  O 6.492132 -1.041382 -1.732301
  H 2.859044 1.180333 -0.615074
  H 4.183946 0.739945 0.459588
  H 2.641818 1.127269 2.418868
  H 1.342804 1.547321 1.302722
  H 2.904641 -2.743012 0.263042
  H 5.166036 -2.758044 -0.363766
  H 5.157337 -0.109088 -3.425560
  H 4.460887 0.863390 -2.155107
  H 2.378168 -0.546023 -2.199432
  H 3.141398 -1.635470 -3.346074
  H 6.996108 -1.592025 -1.103325
 23
 5.551976
  H 1.517634 -0.696569 0.377099
  C 2.573745 -0.643231 0.159703
  C 3.157656 0.698307 0.317583
  C 2.491614 1.484081 1.456188
  H 2.926164 2.480088 1.526546
  C 3.270760 -1.795577 -0.113910
  C 4.563383 -1.871016 -0.641085
  C 5.172915 -0.959451 -1.511542
  C 4.480497 -0.201964 -2.589942
  C 3.070732 -0.641107 -2.968136
  H 2.768464 -0.111635 -3.868631
  O 6.469639 -0.801646 -1.549190
  H 2.981121 1.266344 -0.605019
  H 4.231607 0.645849 0.473119
  H 2.642224 0.979534 2.408360
  H 1.422475 1.589424 1.287421
  H 2.813469 -2.736064 0.182471
  H 5.143820 -2.748515 -0.375366
  H 5.130697 -0.301676 -3.464508
  H 4.500797 0.864518 -2.343955
  H 2.342868 -0.427468 -2.194848
  H 3.043427 -1.705265 -3.178469
  H 6.978179 -1.313669 -0.891064
 23
 10.048465
  H 1.534568 -0.518673 0.120452
  C 2.613630 -0.577306 0.060209
  C 3.294932 0.686763 0.397534
  C 2.525154 1.468952 1.467803
  H 3.039602 2.402115 1.687358
  C 3.253877 -1.780446 -0.151656
  C 4.532813 -1.885606 -0.684159
  C 5.121983 -0.902264 -1.500738
  C 4.426461 -0.237240 -2.639745
  C 3.031854 -0.712845 -3.000229
  H 2.730249 -0.242871 -3.931864
  O 6.388301 -0.584468 -1.437515
  H 3.341260 1.330003 -0.494838
  H 4.319897 0.504059 0.727676
  H 2.457088 0.893232 2.387606
  H 1.518427 1.704949 1.133160
  H 2.756597 -2.685300 0.166029
  H 5.096303 -2.792044 -0.506337
  H 5.093873 -0.392911 -3.490878
  H 4.428202 0.844704 -2.483450
  H 2.302017 -0.447303 -2.240909
  H 3.009040 -1.790494 -3.138302
  H 6.916098 -1.066763 -0.776205
 23
 19.514961
  H 1.627988 -0.254208 -0.114462
  C 2.691211 -0.430917 0.004235
  C 3.435031 0.705107 0.584451
  C 2.567287 1.469284 1.591902
  H 3.128254 2.301894 2.002320
  C 3.220200 -1.712112 -0.156620
  C 4.459411 -1.883951 -0.723871
  C 5.015842 -0.826277 -1.500812
  C 4.347226 -0.283004 -2.711372
  C 3.036232 -0.922795 -3.135238
  H 2.742478 -0.519529 -4.101102
  O 6.214449 -0.362084 -1.323786
  H 3.714771 1.421919 -0.196786
  H 4.351587 0.361313 1.063105
  H 2.269950 0.819733 2.412520
  H 1.670779 1.861399 1.119034
  H 2.655224 -2.561429 0.203700
  H 5.003071 -2.814553 -0.644742
  H 5.089553 -0.407242 -3.508692
  H 4.226312 0.800683 -2.615211
  H 2.238298 -0.715036 -2.430003
  H 3.139317 -2.000139 -3.232549
  H 6.737732 -0.786852 -0.615175
 23
 28.977724
  H 1.846314 -0.034465 -0.369579
  C 2.852968 -0.320137 -0.077038
  C 3.580718 0.694041 0.715918
  C 2.610273 1.471892 1.619904
  H 3.160408 2.216813 2.192395
  C 3.236523 -1.687554 -0.158906
  C 4.410509 -1.917691 -0.781921
  C 4.899127 -0.756780 -1.506334
  C 4.261677 -0.291404 -2.765335
  C 3.040869 -1.067744 -3.244147
  H 2.758143 -0.711213 -4.228767
  O 6.025962 -0.181813 -1.236527
  H 4.057679 1.433453 0.062710
  H 4.362816 0.226480 1.319630
  H 2.116678 0.803755 2.314571
  H 1.852071 1.982422 1.033608
  H 2.606729 -2.462669 0.257679
  H 4.946635 -2.852990 -0.801640
  H 5.057056 -0.364388 -3.522695
  H 4.039741 0.779929 -2.701604
  H 2.192459 -0.937301 -2.587014
  H 3.257362 -2.128478 -3.317284
  H 6.545843 -0.572538 -0.502622
 23
 31.086865
  H 2.130881 0.080479 -0.608517
  C 3.049898 -0.290371 -0.168318
  C 3.706142 0.641302 0.774662
  C 2.658552 1.471738 1.530785
  H 3.161086 2.155313 2.208927
  C 3.276872 -1.730852 -0.143398
  C 4.392691 -1.978876 -0.825357
  C 4.769232 -0.698982 -1.455625
  C 4.153332 -0.254316 -2.740386
  C 3.021226 -1.116995 -3.278895
  H 2.751462 -0.767355 -4.271242
  O 5.848448 -0.051248 -1.122323
  H 4.337205 1.356699 0.234436
  H 4.338064 0.101905 1.481704
  H 2.005683 0.827150 2.113182
  H 2.049200 2.055306 0.846028
  H 2.600937 -2.436983 0.312442
  H 4.943696 -2.896270 -0.938498
  H 4.977255 -0.260577 -3.466483
  H 3.853059 0.794024 -2.670637
  H 2.133393 -1.070949 -2.657228
  H 3.328441 -2.155892 -3.358186
  H 6.369634 -0.447881 -0.397531
 23
 24.561304
  H 2.578903 0.130783 -0.865819
  C 3.405262 -0.244016 -0.263015
  C 3.793872 0.703345 0.828050
  C 2.525423 1.305647 1.447332
  H 2.811084 1.996153 2.237064
  C 3.404192 -1.705372 -0.004686
  C 4.357281 -2.037458 -0.877747
  C 4.646834 -0.661981 -1.397455
  C 4.165159 -0.261471 -2.784605
  C 2.918419 -0.966893 -3.276073
  H 2.757923 -0.707411 -4.319706
  O 5.828413 -0.092887 -1.115078
  H 4.388794 1.520086 0.416212
  H 4.379864 0.199889 1.596765
  H 1.901315 0.524633 1.872772
  H 1.945005 1.853980 0.709816
  H 2.865535 -2.265715 0.736121
  H 4.868426 -2.957697 -1.097675
  H 5.007360 -0.517081 -3.438790
  H 4.055097 0.822478 -2.837790
  H 2.023532 -0.664742 -2.735202
  H 3.017391 -2.045907 -3.192240
  H 6.380284 -0.600720 -0.495617
 23
 28.945766
  H 2.570122 0.203366 -0.803838
  C 3.416812 -0.272097 -0.301675
  C 3.808592 0.502796 0.940993
  C 2.634332 1.373114 1.399783
  H 2.921713 1.922487 2.292151
  C 3.337198 -1.756021 -0.137750
  C 4.445130 -1.939954 -0.867280
  C 4.613642 -0.520323 -1.396323
  C 4.103411 -0.288686 -2.812261
  C 2.863640 -1.064473 -3.214070
  H 2.617392 -0.826769 -4.244918
  O 5.807335 0.093322 -1.252334
  H 4.650256 1.160796 0.719006
  H 4.097188 -0.173024 1.746279
  H 1.768512 0.761022 1.637017
  H 2.355754 2.095599 0.636441
  H 2.569568 -2.386598 0.260667
  H 5.243130 -2.663276 -0.837266
  H 4.933956 -0.549175 -3.475566
  H 3.941202 0.783309 -2.950626
  H 1.997939 -0.815820 -2.604633
  H 3.032886 -2.136334 -3.135026
  H 6.295659 -0.175619 -0.456138
