 26
 0.000000
  C 0.999910 0.147532 0.418747
  C 2.474771 0.139206 0.397210
  C 3.243808 0.608002 1.563289
  H 2.631566 0.940855 2.392149
  C 3.083537 -0.327065 -0.763644
  C 4.458464 -0.415255 -0.984161
  C 5.125180 -0.869948 -2.117133
  C 4.614782 -1.390567 -3.414673
  C 3.122730 -1.505054 -3.701472
  C 2.903098 -2.067667 -5.103619
  O 6.445883 -0.869885 -2.117181
  H 0.594614 0.523055 1.353541
  H 0.616777 -0.860534 0.255330
  H 0.616284 0.762122 -0.396626
  H 3.897743 1.428927 1.262031
  H 3.898266 -0.192706 1.913705
  H 2.418514 -0.642772 -1.548922
  H 5.091225 -0.087266 -0.167677
  H 5.071135 -2.378905 -3.543311
  H 5.071890 -0.765836 -4.190833
  H 2.649231 -0.524192 -3.648831
  H 2.648517 -2.177068 -2.985514
  H 3.344362 -1.420315 -5.857802
  H 1.839497 -2.150873 -5.312097
  H 3.343715 -3.057115 -5.200930
  H 6.843587 -0.538631 -1.290086
 26
 12.270047
  C 1.037395 0.221706 0.603968
  C 2.510094 0.120362 0.350727
  C 3.391405 0.567351 1.461408
  H 2.799747 0.905441 2.303125
  C 2.858693 -0.376261 -0.884898
  C 4.206323 -0.401203 -0.948767
  C 5.019962 -0.854482 -2.078306
  C 4.607783 -1.389386 -3.411136
  C 3.136107 -1.541036 -3.790816
  C 3.022716 -2.108257 -5.205550
  O 6.358532 -0.813175 -1.976228
  H 0.794985 0.615822 1.584512
  H 0.574356 -0.757911 0.496687
  H 0.574062 0.854476 -0.151408
  H 4.030897 1.391741 1.151713
  H 4.031840 -0.241276 1.808351
  H 2.151496 -0.676892 -1.631981
  H 4.800368 -0.067119 -0.117968
  H 5.099657 -2.365587 -3.511975
  H 5.100222 -0.754057 -4.158726
  H 2.636831 -0.572406 -3.769189
  H 2.636051 -2.225790 -3.105885
  H 3.496594 -1.448949 -5.928861
  H 1.978112 -2.219875 -5.485490
  H 3.495665 -3.085177 -5.272883
  H 6.702595 -0.468276 -1.114693
 26
 45.093505
  C 1.146800 0.242006 0.653830
  C 2.583052 0.083497 0.259072
  C 3.474710 0.525053 1.356753
  H 2.878944 0.861201 2.194850
  C 2.712062 -0.420062 -0.994264
  C 4.030602 -0.406428 -0.962027
  C 4.929367 -0.840951 -2.045257
  C 4.604509 -1.371806 -3.367284
  C 3.151780 -1.541424 -3.792084
  C 3.088246 -2.110718 -5.210666
  O 6.219108 -0.764210 -1.856564
  H 0.993880 0.643032 1.652476
  H 0.641894 -0.722298 0.587952
  H 0.642122 0.893331 -0.060618
  H 4.104371 1.360126 1.065053
  H 4.106698 -0.280189 1.723733
  H 1.953318 -0.698287 -1.686165
  H 4.630933 -0.088212 -0.169333
  H 5.114608 -2.340682 -3.450676
  H 5.115251 -0.730170 -4.097373
  H 2.643427 -0.572656 -3.783397
  H 2.641834 -2.234718 -3.116733
  H 3.576538 -1.445808 -5.919803
  H 2.053597 -2.235043 -5.523152
  H 3.574791 -3.082342 -5.262939
  H 6.495106 -0.410287 -0.974615
 26
 87.619067
  C 1.146299 0.263721 0.710873
  C 2.630858 0.071294 0.231020
  C 3.535272 0.523246 1.351104
  H 2.946208 0.859952 2.192388
  C 2.629004 -0.439082 -1.037958
  C 3.931284 -0.382848 -0.901559
  C 4.911895 -0.836267 -2.032058
  C 4.611993 -1.379378 -3.383523
  C 3.158054 -1.558609 -3.839572
  C 3.121733 -2.127987 -5.255785
  O 6.197304 -0.739228 -1.795182
  H 1.013960 0.664056 1.707111
  H 0.627129 -0.687486 0.662857
  H 0.626808 0.917231 0.018102
  H 4.161486 1.363041 1.059417
  H 4.166670 -0.281044 1.720935
  H 1.865123 -0.707347 -1.703613
  H 4.605468 -0.076194 -0.137211
  H 5.132244 -2.345463 -3.455238
  H 5.133545 -0.732969 -4.104617
  H 2.647276 -0.598826 -3.840087
  H 2.640151 -2.249790 -3.179160
  H 3.619492 -1.463719 -5.956764
  H 2.095345 -2.257684 -5.587272
  H 3.613527 -3.096501 -5.296243
  H 6.438619 -0.385834 -0.916272
 26
 130.310070
  C 1.184789 0.278278 0.739823
  C 2.651412 0.067273 0.226945
  C 3.531314 0.529220 1.358663
  H 2.933821 0.869482 2.196345
  C 2.556406 -0.459129 -1.061674
  C 3.843620 -0.367533 -0.839956
  C 4.911840 -0.851276 -2.063734
  C 4.630838 -1.385787 -3.402650
  C 3.188902 -1.564283 -3.849621
  C 3.146944 -2.130022 -5.268637
  O 6.190261 -0.742514 -1.805050
  H 1.081167 0.685286 1.738508
  H 0.657483 -0.675336 0.708320
  H 0.660118 0.939751 0.050541
  H 4.157284 1.366160 1.061947
  H 4.160765 -0.274748 1.730753
  H 1.772841 -0.724415 -1.717881
  H 4.595713 -0.087531 -0.146059
  H 5.154596 -2.348363 -3.474285
  H 5.152587 -0.735556 -4.117882
  H 2.675924 -0.599695 -3.843422
  H 2.674188 -2.260983 -3.183964
  H 3.642038 -1.461477 -5.969998
  H 2.117931 -2.260112 -5.596533
  H 3.640733 -3.098809 -5.315220
  H 6.411809 -0.388494 -0.916700
 26
 164.739978
  C 1.157171 0.297405 0.755972
  C 2.638026 0.083197 0.293663
  C 3.514590 0.568757 1.430807
  H 2.921061 0.932479 2.265648
  C 2.512286 -0.492311 -1.029625
  C 3.774397 -0.361073 -0.724647
  C 4.986589 -0.886051 -2.130313
  C 4.704182 -1.410616 -3.482033
  C 3.237806 -1.580116 -3.879135
  C 3.132600 -2.130530 -5.300704
  O 6.254145 -0.759479 -1.855377
  H 1.042851 0.726384 1.749462
  H 0.631169 -0.659968 0.737677
  H 0.645899 0.950466 0.045171
  H 4.155404 1.395772 1.106302
  H 4.147404 -0.239764 1.812978
  H 1.731112 -0.763363 -1.687086
  H 4.596049 -0.107467 -0.108033
  H 5.226606 -2.375121 -3.577271
  H 5.207752 -0.750300 -4.204668
  H 2.736868 -0.610033 -3.834862
  H 2.751370 -2.279463 -3.195151
  H 3.602853 -1.457341 -6.014059
  H 2.090820 -2.251396 -5.588153
  H 3.618164 -3.100695 -5.378114
  H 6.442898 -0.412610 -0.959357
 26
 173.221726
  C 1.049200 0.348743 0.880895
  C 2.524895 0.201037 0.590103
  C 3.391276 0.703108 1.718902
  H 2.777832 1.088049 2.523615
  C 2.482924 -0.465349 -0.881214
  C 3.654142 -0.313892 -0.486053
  C 5.170212 -0.989561 -2.355190
  C 4.844791 -1.492682 -3.716551
  C 3.352909 -1.621141 -4.015092
  C 3.133160 -2.166730 -5.421689
  O 6.469502 -0.902024 -2.181155
  H 0.873358 0.792765 1.852528
  H 0.545618 -0.622732 0.846855
  H 0.559757 0.965329 0.121140
  H 4.050385 1.510178 1.391150
  H 4.017391 -0.091611 2.128253
  H 1.710398 -0.729394 -1.558663
  H 4.573006 -0.116429 0.011576
  H 5.339680 -2.465893 -3.854643
  H 5.330022 -0.851172 -4.465129
  H 2.874961 -0.643803 -3.931835
  H 2.911524 -2.320371 -3.303746
  H 3.562641 -1.501628 -6.167412
  H 2.071315 -2.269048 -5.632281
  H 3.594168 -3.145820 -5.533623
  H 6.720589 -0.554744 -1.305633
 26
 171.510979
  C 1.018142 0.355596 0.939147
  C 2.495326 0.244925 0.697426
  C 3.363239 0.790209 1.804991
  H 2.742395 1.196611 2.595896
  C 2.441712 -0.503734 -0.843465
  C 3.565349 -0.273854 -0.361623
  C 5.233637 -1.030953 -2.426360
  C 4.896627 -1.517250 -3.799055
  C 3.400825 -1.617622 -4.077429
  C 3.142048 -2.162450 -5.478512
  O 6.548549 -0.971419 -2.283823
  H 0.821002 0.819928 1.897835
  H 0.537286 -0.626781 0.926493
  H 0.527131 0.946691 0.160995
  H 4.020741 1.587087 1.447446
  H 4.002130 0.014845 2.235799
  H 1.667517 -0.819253 -1.494836
  H 4.527917 -0.185212 0.073722
  H 5.366853 -2.500853 -3.941362
  H 5.395221 -0.893101 -4.551771
  H 2.947933 -0.631790 -3.982650
  H 2.961251 -2.302600 -3.352297
  H 3.572100 -1.508712 -6.235322
  H 2.074482 -2.244419 -5.669120
  H 3.582192 -3.151096 -5.595545
  H 6.816733 -0.631532 -1.410461
 26
 161.568436
  C 0.928459 0.145281 0.836610
  C 2.403348 0.242233 0.648494
  C 3.251802 0.901071 1.671914
  H 2.612014 1.276182 2.465676
  C 2.558347 -0.398948 -0.876647
  C 3.693304 -0.343801 -0.392535
  C 5.460522 -1.122669 -2.413474
  C 4.965493 -1.568503 -3.757875
  C 3.447316 -1.537061 -3.895288
  C 3.007159 -2.005008 -5.277783
  O 6.781498 -1.160406 -2.403658
  H 0.663072 0.616727 1.778826
  H 0.576244 -0.888277 0.865819
  H 0.381831 0.650880 0.040516
  H 3.817489 1.742125 1.265866
  H 3.968766 0.211366 2.118298
  H 1.713160 -0.558082 -1.490929
  H 4.707264 -0.338626 -0.129584
  H 5.340511 -2.582042 -3.943438
  H 5.429767 -0.942857 -4.529244
  H 3.100554 -0.516331 -3.733645
  H 3.012153 -2.189126 -3.137942
  H 3.427191 -1.367228 -6.053417
  H 1.924140 -1.979319 -5.368295
  H 3.338757 -3.024850 -5.464139
  H 7.158177 -0.879470 -1.548005
