 18
 0.000000
  C 0.946019 0.143409 0.397564
  C 2.419393 0.143011 0.400086
  C 3.210267 0.607700 1.554181
  C 2.468718 1.093558 2.782176
  C 3.422924 1.536690 3.882290
  C 3.063181 -0.312535 -0.724642
  H 4.133230 -0.354137 -0.824304
  H 0.509879 0.522789 1.314458
  H 0.566443 -0.866993 0.229996
  H 0.577278 0.743329 -0.436622
  H 3.876924 1.408801 1.204458
  H 3.885361 -0.208172 1.849214
  H 1.829032 0.297370 3.174896
  H 1.821147 1.936438 2.522101
  H 4.065064 0.718413 4.200238
  H 2.864886 1.879534 4.749596
  H 4.057024 2.354771 3.548115
  H 2.468151 -0.649027 -1.558142
 18
 4.376154
  C 0.917596 0.213606 0.387879
  C 2.357742 0.144470 0.400541
  C 3.182598 0.598650 1.553447
  C 2.468003 1.089838 2.797064
  C 3.438848 1.529604 3.884082
  C 3.038342 -0.328666 -0.712514
  H 4.117398 -0.355081 -0.744949
  H 0.443815 0.563591 1.285712
  H 0.788920 -0.843874 0.217655
  H 0.503489 0.728410 -0.471917
  H 3.851446 1.390431 1.177091
  H 3.884349 -0.204982 1.827356
  H 1.832151 0.294958 3.198649
  H 1.811727 1.929248 2.550469
  H 4.087524 0.712088 4.190715
  H 2.895557 1.871055 4.761348
  H 4.068808 2.347784 3.542698
  H 2.505795 -0.687851 -1.582972
 18
 11.736484
  C 0.910481 0.283488 0.374704
  C 2.335439 0.167614 0.402810
  C 3.170419 0.589270 1.556388
  C 2.457743 1.082815 2.801509
  C 3.447025 1.511515 3.884892
  C 3.021626 -0.330882 -0.707433
  H 4.102020 -0.347647 -0.736546
  H 0.416150 0.641096 1.256890
  H 0.997771 -0.808557 0.301344
  H 0.451195 0.650493 -0.546975
  H 3.810074 1.388212 1.160958
  H 3.881376 -0.199314 1.827200
  H 1.827346 0.286794 3.205053
  H 1.806590 1.925739 2.560480
  H 4.093595 0.686099 4.179339
  H 2.915176 1.851492 4.771262
  H 4.077503 2.328879 3.538703
  H 2.503038 -0.721465 -1.574640
 18
 18.635426
  C 0.910627 0.328095 0.377403
  C 2.335620 0.167865 0.391330
  C 3.169104 0.586358 1.555075
  C 2.445737 1.080257 2.790338
  C 3.438957 1.488511 3.879172
  C 3.022340 -0.335697 -0.729411
  H 4.093090 -0.326138 -0.774621
  H 0.420185 0.729875 1.250862
  H 1.169763 -0.770972 0.441222
  H 0.409286 0.555380 -0.557529
  H 3.802747 1.395049 1.159153
  H 3.871032 -0.202701 1.834334
  H 1.801968 0.289372 3.189067
  H 1.812970 1.940338 2.545968
  H 4.071471 0.648818 4.171289
  H 2.908573 1.833278 4.767025
  H 4.083960 2.298502 3.537453
  H 2.500366 -0.738840 -1.579429
 18
 23.430549
  C 0.918355 0.356087 0.373383
  C 2.334945 0.164295 0.386645
  C 3.172275 0.586491 1.545984
  C 2.439283 1.080636 2.785124
  C 3.429971 1.467915 3.877581
  C 3.013727 -0.332712 -0.743967
  H 4.083411 -0.306302 -0.799887
  H 0.429188 0.813609 1.219385
  H 1.307855 -0.717058 0.577671
  H 0.391605 0.433402 -0.560951
  H 3.800916 1.393513 1.159180
  H 3.859516 -0.206683 1.826749
  H 1.786477 0.297985 3.174285
  H 1.826810 1.951600 2.543033
  H 4.049797 0.615995 4.167049
  H 2.900460 1.815332 4.766094
  H 4.087980 2.271587 3.542248
  H 2.485269 -0.740102 -1.589011
 18
 27.125030
  C 0.917480 0.377904 0.365322
  C 2.328783 0.156111 0.386018
  C 3.175340 0.589129 1.543029
  C 2.438331 1.081202 2.783052
  C 3.428221 1.454818 3.880897
  C 3.008651 -0.335076 -0.758021
  H 4.081807 -0.303711 -0.817330
  H 0.428059 0.873142 1.186688
  H 1.409199 -0.677636 0.669254
  H 0.370957 0.338097 -0.561669
  H 3.809680 1.397730 1.163627
  H 3.854734 -0.212102 1.822860
  H 1.776156 0.301387 3.167227
  H 1.838650 1.958221 2.545528
  H 4.036299 0.599788 4.167230
  H 2.901155 1.802563 4.765968
  H 4.092514 2.250351 3.552323
  H 2.478392 -0.731205 -1.601005
 18
 30.528565
  C 0.913468 0.392451 0.353445
  C 2.324059 0.144690 0.389441
  C 3.180332 0.589277 1.543275
  C 2.440717 1.082010 2.782561
  C 3.431947 1.449558 3.887930
  C 3.005066 -0.337215 -0.764007
  H 4.078375 -0.309030 -0.819674
  H 0.417407 0.894684 1.165405
  H 1.486365 -0.654593 0.709937
  H 0.359585 0.282127 -0.566413
  H 3.816752 1.397927 1.167226
  H 3.854653 -0.217422 1.824231
  H 1.770270 0.304628 3.163589
  H 1.850706 1.960438 2.545044
  H 4.032587 0.591215 4.175618
  H 2.904184 1.801115 4.772489
  H 4.103013 2.239796 3.562557
  H 2.468699 -0.718093 -1.614684
 18
 33.941726
  C 0.913315 0.408167 0.352697
  C 2.321742 0.133899 0.397093
  C 3.182553 0.586656 1.545884
  C 2.441577 1.076975 2.779508
  C 3.427810 1.443892 3.881678
  C 2.999566 -0.341786 -0.759154
  H 4.075566 -0.313086 -0.818123
  H 0.422026 0.905810 1.168835
  H 1.550741 -0.646401 0.727609
  H 0.355357 0.274965 -0.560078
  H 3.826066 1.409117 1.165277
  H 3.862319 -0.227667 1.831945
  H 1.774329 0.305612 3.157018
  H 1.849716 1.959043 2.538694
  H 4.034199 0.577261 4.174539
  H 2.900655 1.796123 4.762256
  H 4.098378 2.232160 3.556733
  H 2.471919 -0.715828 -1.603985
 18
 36.959995
  C 0.912179 0.419573 0.329697
  C 2.319768 0.122399 0.396446
  C 3.188498 0.583686 1.548982
  C 2.447562 1.077583 2.792797
  C 3.442632 1.445164 3.900884
  C 3.002416 -0.347184 -0.766225
  H 4.070141 -0.318941 -0.819342
  H 0.408503 0.908628 1.147511
  H 1.602082 -0.653827 0.725343
  H 0.359135 0.261574 -0.580254
  H 3.811898 1.384839 1.177374
  H 3.858881 -0.217828 1.828106
  H 1.771810 0.295972 3.177156
  H 1.853471 1.967311 2.553171
  H 4.034991 0.594411 4.186966
  H 2.920581 1.795168 4.778002
  H 4.122151 2.241087 3.573010
  H 2.460270 -0.722350 -1.630221
 18
 39.404634
  C 0.913140 0.440513 0.330659
  C 2.320082 0.115736 0.410168
  C 3.194455 0.585213 1.553392
  C 2.453079 1.076735 2.790392
  C 3.437416 1.443359 3.884988
  C 3.000620 -0.352770 -0.767116
  H 4.075011 -0.327991 -0.820820
  H 0.408072 0.922494 1.147441
  H 1.649780 -0.664894 0.743763
  H 0.356626 0.261343 -0.575149
  H 3.820078 1.397673 1.173605
  H 3.880347 -0.228151 1.840248
  H 1.782280 0.297420 3.175676
  H 1.863019 1.957799 2.551937
  H 4.047143 0.571435 4.177508
  H 2.903980 1.802832 4.778815
  H 4.100378 2.223402 3.558220
  H 2.460558 -0.713409 -1.612643
 18
 40.831494
  C 0.914983 0.459659 0.314993
  C 2.312261 0.099815 0.417926
  C 3.194622 0.583358 1.557146
  C 2.455156 1.075009 2.799031
  C 3.447694 1.443028 3.896460
  C 3.005990 -0.359246 -0.772997
  H 4.078702 -0.346236 -0.813173
  H 0.399984 0.928676 1.134533
  H 1.692635 -0.706261 0.753581
  H 0.358982 0.260338 -0.586124
  H 3.809381 1.394123 1.174120
  H 3.879148 -0.220725 1.842204
  H 1.786471 0.297299 3.184259
  H 1.863725 1.958983 2.561873
  H 4.053151 0.576144 4.186882
  H 2.922811 1.799247 4.782385
  H 4.116625 2.229163 3.565943
  H 2.460932 -0.698863 -1.633401
 18
 43.180703
  C 0.917850 0.474017 0.312401
  C 2.315917 0.090323 0.422932
  C 3.201874 0.578234 1.558689
  C 2.462075 1.066317 2.798811
  C 3.450555 1.435938 3.893464
  C 3.004167 -0.363041 -0.766091
  H 4.078062 -0.356476 -0.804017
  H 0.404639 0.939609 1.135591
  H 1.735790 -0.714172 0.758143
  H 0.358686 0.268836 -0.585617
  H 3.817252 1.397886 1.172307
  H 3.891973 -0.226000 1.844122
  H 1.792056 0.283174 3.185768
  H 1.867764 1.950929 2.561839
  H 4.046028 0.586107 4.177539
  H 2.919185 1.793723 4.788088
  H 4.124198 2.229459 3.560117
  H 2.460441 -0.698733 -1.624781
 18
 43.689606
  C 0.924011 0.497690 0.297975
  C 2.308370 0.078719 0.430141
  C 3.200643 0.582284 1.561155
  C 2.463478 1.064687 2.807957
  C 3.459319 1.437520 3.901650
  C 3.006347 -0.376179 -0.772501
  H 4.078416 -0.386554 -0.800906
  H 0.407496 0.958233 1.121681
  H 1.791768 -0.766603 0.773898
  H 0.368026 0.287306 -0.599479
  H 3.799970 1.403750 1.170869
  H 3.896942 -0.211130 1.842970
  H 1.801495 0.278857 3.194834
  H 1.862160 1.946293 2.576881
  H 4.065169 0.584461 4.183047
  H 2.935707 1.789439 4.793955
  H 4.122483 2.229437 3.568568
  H 2.457864 -0.695126 -1.639582
 18
 45.072729
  C 0.927646 0.512001 0.286269
  C 2.307561 0.067825 0.432162
  C 3.201327 0.581163 1.565509
  C 2.464679 1.057081 2.812493
  C 3.464776 1.434801 3.909496
  C 3.002381 -0.387447 -0.767113
  H 4.077459 -0.404330 -0.794615
  H 0.412048 0.972302 1.107618
  H 1.841620 -0.788987 0.778353
  H 0.374399 0.303776 -0.612375
  H 3.796350 1.412603 1.172655
  H 3.902018 -0.205561 1.846206
  H 1.817156 0.278894 3.192539
  H 1.860111 1.932347 2.585089
  H 4.083954 0.572072 4.194192
  H 2.948428 1.776931 4.788798
  H 4.132173 2.242086 3.573050
  H 2.455549 -0.698459 -1.632016
