19
 0
 C -0.32523966 -1.59016843 -2.01786672
 C -0.22323067 -1.42604513 -0.50633792
 C 0.87366526 -2.33378755 0.04771130
 C 0.00000000 0.00000000 0.00000000
 C 0.25391809 1.13818862 -0.95501103
 O -0.00458182 0.22871829 1.21508166
 H -0.55383015 -2.62927612 -2.27900494
 H 0.61240689 -1.32211457 -2.51677796
 H -1.12484661 -0.96538695 -2.42938433
 H -1.18551193 -1.74166668 -0.08222158
 H 1.86017056 -2.03255212 -0.32134902
 H 0.70238491 -3.37619992 -0.24132185
 H 0.90482178 -2.29348412 1.14199559
 H 0.17399281 0.85235807 -2.00218390
 H 1.26077719 1.52772724 -0.78251795
 H -0.48348538 1.92379548 -0.76607131
 O 3.00000000 0.00000000 0.00000000
 H 3.56165789 -0.45890637 -0.64258244
 H 3.61189510 0.25197749 0.70784698
