17

C -1.239941 0.340864 2.446295
C -2.048855 0.510742 1.16308
H -2.4538642592866737 1.4993889312014683 1.1043880472468386
C -1.208123 0.214811 -0.059687
O -0.010043 0.005414 0.00549
C -1.912329 0.1793 -1.385925
H -1.865685 0.508737 3.319484
H -0.411831 1.044684 2.482634
H -0.828113 -0.664669 2.514534
H -2.867201 -0.217972 1.174665
H -2.990054 0.249077 -1.26384
H -1.683454 -0.758896 -1.885818
H -1.567751 1.011375 -1.994672
O 3.359291 0.174136 0.039409
H 3.577813 0.852148 0.713228
H 2.393171 0.004581 0.003832
H 3.860932 -0.655132 0.189434
