 32
 0.000000
  C 0.972361 0.138633 0.396512
  C 2.450335 0.139045 0.396879
  C 3.234786 0.609172 1.566735
  C 2.456271 1.098588 2.785284
  C 3.404352 1.544144 3.893980
  C 3.068214 -0.324133 -0.756518
  C 4.446946 -0.412833 -0.977760
  C 5.124050 -0.863790 -2.101707
  C 4.625289 -1.386921 -3.405720
  C 3.133418 -1.503376 -3.697010
  C 2.904009 -2.065128 -5.097312
  O 6.450733 -0.860921 -2.094467
  H 0.535204 0.508436 1.317130
  H 0.602133 -0.874103 0.229961
  H 0.601748 0.754488 -0.424349
  H 3.890820 1.421554 1.233645
  H 3.891122 -0.207638 1.888172
  H 1.818200 0.301265 3.171760
  H 1.817955 1.941509 2.512830
  H 4.040455 0.722810 4.217988
  H 2.837736 1.890163 4.755577
  H 4.040173 2.361553 3.559619
  H 2.411711 -0.642293 -1.548707
  H 5.066573 -0.081244 -0.151806
  H 5.079716 -2.376394 -3.532695
  H 5.080183 -0.759926 -4.181368
  H 2.659380 -0.522347 -3.642241
  H 2.658893 -2.174250 -2.979458
  H 3.340927 -1.418338 -5.855144
  H 1.837832 -2.144835 -5.296788
  H 3.340444 -3.056569 -5.197863
  H 6.808750 -0.523069 -1.252038
 32
 0.049497
  C 0.979204 -0.351688 0.617150
  C 2.436392 -0.149555 0.504900
  C 3.210485 0.582583 1.535857
  C 2.443910 1.140011 2.732467
  C 3.393767 1.860257 3.685297
  C 3.056630 -0.668415 -0.628152
  C 4.427071 -0.661221 -0.875681
  C 5.101355 -1.178450 -1.980471
  C 4.597049 -1.532506 -3.336070
  C 3.126163 -1.368649 -3.699350
  C 2.928300 -1.633667 -5.189825
  O 6.406153 -1.351169 -1.908779
  H 0.558222 0.056225 1.527454
  H 0.747696 -1.416478 0.564636
  H 0.476306 0.103729 -0.237582
  H 3.733470 1.412609 1.047404
  H 3.994919 -0.082364 1.914981
  H 1.950690 0.332264 3.275789
  H 1.682256 1.846247 2.398021
  H 4.153795 1.181162 4.065371
  H 2.846212 2.259787 4.535307
  H 3.890857 2.689538 3.186792
  H 2.416738 -1.162133 -1.338481
  H 5.063314 -0.264932 -0.093380
  H 4.906733 -2.564104 -3.537054
  H 5.194563 -0.925421 -4.027397
  H 2.792773 -0.354755 -3.476028
  H 2.513542 -2.079935 -3.146241
  H 3.499024 -0.929440 -5.790710
  H 1.879534 -1.530495 -5.455965
  H 3.245107 -2.640636 -5.451089
  H 6.795673 -1.123389 -1.044018
 32
 2.411984
  C 1.060375 -0.685619 0.786541
  C 2.468979 -0.309287 0.558329
  C 3.191568 0.625533 1.454679
  C 2.423120 1.200854 2.641683
  C 3.315976 2.137098 3.450886
  C 3.098921 -0.863353 -0.550880
  C 4.445569 -0.752693 -0.866011
  C 5.088685 -1.369065 -1.945263
  C 4.576766 -1.568431 -3.325724
  C 3.176270 -1.085820 -3.688245
  C 2.946572 -1.236855 -5.189265
  O 6.329071 -1.775184 -1.810821
  H 0.640292 -0.244259 1.681442
  H 0.970733 -1.770889 0.848593
  H 0.454943 -0.386248 -0.070592
  H 3.564305 1.460178 0.850405
  H 4.081769 0.116523 1.840895
  H 2.078092 0.396992 3.294117
  H 1.553805 1.760880 2.293411
  H 4.181163 1.607441 3.843604
  H 2.766365 2.551759 4.292294
  H 3.667512 2.964882 2.838951
  H 2.495654 -1.505296 -1.172798
  H 5.094320 -0.243512 -0.163378
  H 4.683549 -2.627913 -3.582418
  H 5.301491 -1.054453 -3.969161
  H 3.059567 -0.036950 -3.413583
  H 2.419452 -1.669349 -3.168725
  H 3.656035 -0.637577 -5.755307
  H 1.944240 -0.910274 -5.453603
  H 3.055332 -2.274522 -5.495816
  H 6.706332 -1.645238 -0.919780
 32
 7.017709
  C 1.166408 -0.930547 0.949558
  C 2.510957 -0.425484 0.603511
  C 3.172235 0.661435 1.368699
  C 2.410176 1.251582 2.552873
  C 3.231940 2.349148 3.222429
  C 3.147501 -1.010252 -0.485451
  C 4.451079 -0.795227 -0.890721
  C 5.067351 -1.493270 -1.951112
  C 4.566808 -1.557410 -3.343605
  C 3.270646 -0.819127 -3.665111
  C 2.971628 -0.908472 -5.158153
  O 6.204245 -2.105440 -1.762401
  H 0.748093 -0.456277 1.828454
  H 1.202088 -2.008395 1.111666
  H 0.486136 -0.774815 0.110833
  H 3.407918 1.474744 0.673418
  H 4.136079 0.291130 1.735180
  H 2.197736 0.475196 3.289842
  H 1.463524 1.678400 2.217661
  H 4.172562 1.955007 3.600882
  H 2.685048 2.774928 4.060113
  H 3.451992 3.151825 2.522028
  H 2.590411 -1.769942 -1.015107
  H 5.093456 -0.151063 -0.302821
  H 4.490616 -2.607312 -3.647375
  H 5.375467 -1.149084 -3.961564
  H 3.360917 0.229493 -3.379209
  H 2.435430 -1.250010 -3.117600
  H 3.762433 -0.444627 -5.743211
  H 2.039739 -0.399138 -5.388988
  H 2.876732 -1.944894 -5.473274
  H 6.544666 -2.066176 -0.847172
 32
 13.732185
  C 1.340592 -1.245325 1.174299
  C 2.585199 -0.606935 0.690794
  C 3.149470 0.618820 1.315404
  C 2.392076 1.211970 2.501232
  C 3.102408 2.459048 3.019140
  C 3.226486 -1.201204 -0.391863
  C 4.439223 -0.836095 -0.928646
  C 5.048834 -1.552589 -2.003713
  C 4.557085 -1.488158 -3.393801
  C 3.326210 -0.616674 -3.629207
  C 2.959554 -0.601670 -5.109133
  O 6.096140 -2.287584 -1.808493
  H 0.923181 -0.751251 2.042823
  H 1.524587 -2.291830 1.419813
  H 0.591883 -1.245349 0.380712
  H 3.232073 1.391016 0.542748
  H 4.173841 0.403615 1.639834
  H 2.329122 0.483403 3.311495
  H 1.378533 1.484771 2.202478
  H 4.107994 2.220637 3.358784
  H 2.556943 2.886304 3.857097
  H 3.172302 3.216795 2.241728
  H 2.746273 -2.073125 -0.815958
  H 5.013003 -0.025764 -0.498456
  H 4.378096 -2.506388 -3.758535
  H 5.393815 -1.123627 -4.001092
  H 3.526351 0.403104 -3.297944
  H 2.480038 -0.995363 -3.057667
  H 3.766929 -0.185083 -5.706737
  H 2.072572 0.004306 -5.273585
  H 2.751939 -1.606915 -5.467891
  H 6.411766 -2.333305 -0.882778
 32
 20.425012
  C 1.493454 -1.441980 1.449361
  C 2.646548 -0.754424 0.816435
  C 3.142114 0.574232 1.275341
  C 2.406802 1.223949 2.444540
  C 3.030569 2.573896 2.786612
  C 3.263607 -1.397161 -0.251724
  C 4.355964 -0.944146 -0.952743
  C 4.960379 -1.667529 -2.049613
  C 4.519361 -1.454641 -3.434001
  C 3.370937 -0.465016 -3.620317
  C 3.011907 -0.334295 -5.096459
  O 5.902453 -2.509735 -1.871930
  H 1.098571 -0.898556 2.298548
  H 1.782304 -2.440228 1.779558
  H 0.690246 -1.574667 0.722967
  H 3.108447 1.266971 0.426885
  H 4.197608 0.477021 1.552737
  H 2.457797 0.581600 3.325683
  H 1.356363 1.376758 2.189899
  H 4.072432 2.456820 3.077845
  H 2.499744 3.039439 3.613821
  H 2.985073 3.248780 1.934317
  H 2.845192 -2.351461 -0.544992
  H 4.812483 0.007141 -0.720293
  H 4.256913 -2.430346 -3.860017
  H 5.391771 -1.138772 -4.020513
  H 3.656286 0.513045 -3.232803
  H 2.495447 -0.801607 -3.065438
  H 3.856432 0.037503 -5.671692
  H 2.186544 0.360526 -5.225031
  H 2.710504 -1.293645 -5.510458
  H 6.210609 -2.646160 -0.948003
 32
 14.744405
  C 1.619951 -1.507244 1.653302
  C 2.700005 -0.802907 0.925157
  C 3.156942 0.562017 1.298126
  C 2.460162 1.233874 2.479195
  C 3.042900 2.622657 2.723427
  C 3.275063 -1.464984 -0.156419
  C 4.215453 -0.936216 -1.016154
  C 4.785801 -1.704625 -2.082002
  C 4.429349 -1.468907 -3.492579
  C 3.404043 -0.362717 -3.728378
  C 3.098108 -0.222276 -5.215279
  O 5.622087 -2.665065 -1.851626
  H 1.244448 -0.943754 2.498360
  H 1.974020 -2.476143 2.006980
  H 0.789232 -1.713841 0.976663
  H 3.045381 1.211547 0.422213
  H 4.230172 0.524490 1.513807
  H 2.589536 0.636538 3.383474
  H 1.391575 1.332221 2.280181
  H 4.102938 2.562765 2.960384
  H 2.538494 3.104845 3.557305
  H 2.921555 3.254290 1.846098
  H 2.910755 -2.460868 -0.370382
  H 4.562310 0.080251 -0.902108
  H 4.067557 -2.420323 -3.897441
  H 5.344204 -1.260953 -4.061085
  H 3.787540 0.585729 -3.352046
  H 2.482407 -0.590079 -3.191346
  H 3.992267 0.046418 -5.772609
  H 2.354625 0.553469 -5.377919
  H 2.708056 -1.152464 -5.621466
  H 5.888974 -2.775844 -0.916244
 32
 7.722680
  C 1.684624 -1.482472 1.868373
  C 2.692610 -0.810844 1.021085
  C 3.160186 0.572865 1.286382
  C 2.564947 1.296135 2.492168
  C 3.153736 2.698231 2.616705
  C 3.189784 -1.524109 -0.064093
  C 4.015672 -1.022491 -1.058013
  C 4.523609 -1.844462 -2.092193
  C 4.320838 -1.536915 -3.523655
  C 3.514748 -0.274131 -3.815013
  C 3.335779 -0.087065 -5.317492
  O 5.156771 -2.954731 -1.836382
  H 1.370332 -0.879710 2.711211
  H 2.075064 -2.430794 2.239041
  H 0.806902 -1.730374 1.269408
  H 2.962181 1.177005 0.393534
  H 4.249316 0.556297 1.401311
  H 2.780685 0.743845 3.408430
  H 1.482050 1.379495 2.385591
  H 4.231694 2.656047 2.756634
  H 2.723937 3.215838 3.470803
  H 2.945143 3.287736 1.726593
  H 2.829601 -2.537432 -0.186647
  H 4.301091 0.018358 -1.061599
  H 3.831686 -2.410871 -3.967061
  H 5.295851 -1.482432 -4.021867
  H 4.027748 0.597651 -3.408499
  H 2.534268 -0.342232 -3.341841
  H 4.297357 0.030383 -5.811481
  H 2.741791 0.799845 -5.521716
  H 2.827292 -0.941645 -5.757524
  H 5.375153 -3.096230 -0.894893
 32
 2.005923
  C 1.794111 -1.519560 2.094001
  C 2.664491 -0.844430 1.111003
  C 3.077823 0.571447 1.259235
  C 2.590617 1.322391 2.495728
  C 3.113308 2.755880 2.488420
  C 3.091605 -1.590903 0.019264
  C 3.785741 -1.106793 -1.085381
  C 4.247638 -1.945964 -2.109202
  C 4.216878 -1.562956 -3.540429
  C 3.617419 -0.195954 -3.857199
  C 3.595984 0.041218 -5.363386
  O 4.698376 -3.152357 -1.875192
  H 1.541030 -0.892599 2.939667
  H 2.270494 -2.430391 2.458201
  H 0.871651 -1.838641 1.605710
  H 2.742477 1.119798 0.371325
  H 4.172115 0.616987 1.238219
  H 2.942897 0.826958 3.402092
  H 1.499852 1.347867 2.517201
  H 4.200940 2.773159 2.494057
  H 2.764464 3.291334 3.367992
  H 2.765249 3.292416 1.608527
  H 2.776527 -2.626744 -0.007223
  H 3.970178 -0.049471 -1.186657
  H 3.656548 -2.346565 -4.061629
  H 5.232667 -1.628710 -3.945879
  H 4.208333 0.590406 -3.386607
  H 2.598991 -0.137693 -3.471187
  H 4.603933 0.037068 -5.771539
  H 3.144793 1.003590 -5.590362
  H 3.019344 -0.729558 -5.869272
  H 4.854457 -3.357490 -0.934000
 32
 -0.171546
  C 1.939052 -1.516617 2.258673
  C 2.660827 -0.843766 1.162391
  C 3.028792 0.589478 1.221628
  C 2.709537 1.349230 2.506036
  C 3.166093 2.800819 2.393699
  C 2.997893 -1.609950 0.053511
  C 3.565173 -1.142293 -1.132572
  C 4.009581 -1.995928 -2.140271
  C 4.174149 -1.577602 -3.553771
  C 3.758235 -0.152402 -3.904378
  C 3.953236 0.107045 -5.394636
  O 4.290408 -3.262687 -1.923224
  H 1.791084 -0.883227 3.124186
  H 2.466813 -2.420670 2.563471
  H 0.964049 -1.850366 1.897767
  H 2.530761 1.100405 0.388585
  H 4.101049 0.683668 1.019790
  H 3.218938 0.887316 3.353619
  H 1.635590 1.334779 2.698691
  H 4.239739 2.859535 2.229292
  H 2.936661 3.342226 3.308159
  H 2.663913 3.304274 1.570584
  H 2.731093 -2.658949 0.096529
  H 3.629131 -0.082436 -1.312178
  H 3.606655 -2.289113 -4.163962
  H 5.220030 -1.740882 -3.835984
  H 4.361175 0.563590 -3.344635
  H 2.709116 0.003547 -3.650332
  H 5.000067 0.008048 -5.672097
  H 3.630378 1.112733 -5.650942
  H 3.374349 -0.595282 -5.989806
  H 4.493784 -3.489381 -0.997996
 32
 2.962854
  C 1.618129 -1.261089 2.204083
  C 2.451655 -0.710166 1.120494
  C 3.072868 0.630649 1.207734
  C 2.946127 1.385644 2.527682
  C 3.649229 2.736910 2.438931
  C 2.649343 -1.501955 -0.003140
  C 3.311859 -1.122770 -1.175032
  C 3.703161 -2.042153 -2.139692
  C 4.074795 -1.679469 -3.526808
  C 3.931613 -0.214477 -3.925721
  C 4.346898 -0.014202 -5.379737
  O 3.725399 -3.347221 -1.893387
  H 1.612456 -0.645122 3.094465
  H 1.946571 -2.267288 2.464927
  H 0.592065 -1.371469 1.846520
  H 2.635111 1.250627 0.414869
  H 4.134180 0.547411 0.953286
  H 3.399183 0.807715 3.335249
  H 1.896073 1.554332 2.771202
  H 4.709858 2.611581 2.232828
  H 3.551555 3.277092 3.377349
  H 3.215912 3.350361 1.652167
  H 2.209124 -2.491488 0.011139
  H 3.490701 -0.079018 -1.372797
  H 3.469706 -2.305774 -4.193184
  H 5.104564 -2.013637 -3.696313
  H 4.564991 0.410071 -3.294521
  H 2.896263 0.106140 -3.804437
  H 5.392631 -0.275374 -5.524208
  H 4.215063 1.024093 -5.672945
  H 3.745868 -0.630852 -6.043932
  H 4.131559 -3.595694 -1.046219
 32
 7.260526
  C 1.468891 -1.099288 2.164465
  C 2.350049 -0.623375 1.084349
  C 3.096026 0.650832 1.180339
  C 3.059373 1.396038 2.511241
  C 3.871921 2.684586 2.424110
  C 2.471473 -1.422945 -0.045020
  C 3.200161 -1.095428 -1.197122
  C 3.609262 -2.039190 -2.121854
  C 4.082647 -1.716404 -3.486183
  C 4.038428 -0.252897 -3.912253
  C 4.560253 -0.094002 -5.336924
  O 3.530098 -3.348470 -1.841686
  H 1.528461 -0.497390 3.062530
  H 1.692986 -2.137394 2.410375
  H 0.436085 -1.101415 1.808783
  H 2.703451 1.319180 0.402708
  H 4.140571 0.475799 0.905297
  H 3.478070 0.770319 3.301602
  H 2.032821 1.649316 2.779728
  H 4.914838 2.473615 2.198668
  H 3.835083 3.220019 3.369529
  H 3.478792 3.341405 1.651439
  H 1.951679 -2.372750 -0.048228
  H 3.433161 -0.062395 -1.399730
  H 3.480414 -2.321794 -4.175276
  H 5.101074 -2.104761 -3.600426
  H 4.657720 0.350261 -3.246918
  H 3.014289 0.119028 -3.864976
  H 5.599865 -0.405470 -5.406656
  H 4.497601 0.944744 -5.650759
  H 3.976965 -0.691798 -6.033439
  H 4.164226 -3.652426 -1.175123
 32
 8.912025
  C 1.430040 -1.129977 2.191801
  C 2.279128 -0.659295 1.084786
  C 3.035756 0.609698 1.156855
  C 3.065716 1.344645 2.493522
  C 3.862205 2.640493 2.372960
  C 2.360385 -1.459143 -0.047808
  C 3.052641 -1.132460 -1.225015
  C 3.520103 -2.074134 -2.119460
  C 4.053547 -1.751055 -3.462917
  C 3.990219 -0.293173 -3.905731
  C 4.584522 -0.130256 -5.301480
  O 3.457816 -3.383487 -1.803315
  H 1.530140 -0.536254 3.091754
  H 1.646707 -2.173496 2.420769
  H 0.385420 -1.115151 1.872340
  H 2.606957 1.285603 0.404841
  H 4.064606 0.434686 0.828540
  H 3.532021 0.715518 3.253992
  H 2.054010 1.587534 2.820802
  H 4.894230 2.439870 2.094521
  H 3.868255 3.170559 3.322021
  H 3.425424 3.298074 1.624891
  H 1.837366 -2.407002 -0.037966
  H 3.241920 -0.095150 -1.452953
  H 3.489761 -2.376621 -4.166836
  H 5.085742 -2.111113 -3.540900
  H 4.554715 0.333994 -3.214175
  H 2.954683 0.048749 -3.917579
  H 5.634993 -0.411472 -5.311658
  H 4.508731 0.903630 -5.628098
  H 4.057631 -0.750286 -6.023181
  H 4.279150 -3.728880 -1.424667
 32
 6.700633
  C 1.543862 -1.129989 2.275343
  C 2.278041 -0.636218 1.097066
  C 3.010094 0.650575 1.110250
  C 3.123298 1.388686 2.440731
  C 3.926695 2.674766 2.271337
  C 2.271610 -1.428190 -0.042796
  C 2.884998 -1.090872 -1.261135
  C 3.425819 -2.030458 -2.116103
  C 4.063103 -1.701770 -3.415831
  C 4.067034 -0.233758 -3.831133
  C 4.734097 -0.064323 -5.192897
  O 3.386367 -3.321320 -1.762095
  H 1.698721 -0.526742 3.160879
  H 1.818729 -2.163149 2.488469
  H 0.475856 -1.157004 2.047563
  H 2.513428 1.313935 0.389752
  H 4.016427 0.497304 0.709379
  H 3.622997 0.757316 3.177641
  H 2.133079 1.643926 2.820948
  H 4.936606 2.461608 1.928380
  H 3.998897 3.203474 3.218514
  H 3.451844 3.338537 1.552384
  H 1.795337 -2.398012 0.020208
  H 3.033497 -0.051155 -1.504405
  H 3.522255 -2.290275 -4.168100
  H 5.088491 -2.085763 -3.437056
  H 4.615987 0.360277 -3.099138
  H 3.044974 0.142128 -3.887935
  H 5.775550 -0.375567 -5.157077
  H 4.703745 0.976778 -5.503350
  H 4.226151 -0.656233 -5.950882
  H 4.269142 -3.712963 -1.666319
