20
 0
 C -1.07896907 -0.19025119 -0.02499082
 C -1.86030776 1.08042412 -0.35568693
 C -1.60291169 2.14851681 0.70254707
 C -1.50018250 1.60188338 -1.74572943
 O -0.59309183 1.11172156 -2.42048514
 C -2.30584621 2.75451307 -2.29054899
 H -1.37589646 -0.58832087 0.95093075
 H 0.00000000 0.00000000 0.00000000
 H -1.26093315 -0.96749121 -0.77517472
 H -2.92748701 0.82790296 -0.37078010
 H -0.55630275 2.47188720 0.69299941
 H -1.83617640 1.77024640 1.70349988
 H -2.22145925 3.03571753 0.53321342
 H -3.15302567 2.98283484 -1.63949272
 H -2.69674466 2.48538985 -3.27524971
 H -1.66505370 3.63647612 -2.36659342
 O 2.97448175 0.17182727 0.05419364
 H 3.16860763 1.14219312 0.10707899
 H 2.00000000 0.00000000 0.00000000
 H 3.38777450 -0.32165329 0.80766988
