 32
 0.000000
  C 0.988818 0.132608 0.382180
  C 2.467384 0.140558 0.400858
  C 3.241229 0.612510 1.574859
  C 2.450321 1.099078 2.786362
  C 3.386501 1.548301 3.903693
  C 3.087655 -0.321972 -0.750776
  C 4.463248 -0.413755 -0.979594
  C 5.128540 -0.866789 -2.108814
  C 4.620956 -1.388202 -3.408898
  C 3.127211 -1.500994 -3.691390
  C 2.888613 -2.062111 -5.090423
  O 6.453880 -0.866468 -2.107886
  H 0.531349 0.498579 1.293440
  H 0.627681 -0.882415 0.209902
  H 0.627040 0.746053 -0.444367
  H 3.897420 1.426747 1.246443
  H 3.897904 -0.202240 1.900992
  H 1.811722 0.299349 3.166738
  H 1.811264 1.939362 2.507798
  H 4.022683 0.729451 4.233571
  H 2.810719 1.892160 4.759962
  H 4.022178 2.368071 3.575145
  H 2.421780 -0.637739 -1.536705
  H 5.089707 -0.083988 -0.158057
  H 5.072121 -2.378736 -3.538346
  H 5.072679 -0.762089 -4.186968
  H 2.655827 -0.518903 -3.633958
  H 2.655186 -2.170828 -2.971276
  H 3.322714 -1.416324 -5.850624
  H 1.821238 -2.139262 -5.283793
  H 3.322081 -3.054510 -5.193480
  H 6.833072 -0.532250 -1.273466
 32
 66.260718
  C 0.979895 0.280736 0.471341
  C 2.523382 0.328578 0.250100
  C 3.326883 0.865086 1.513577
  C 2.644495 0.633952 2.915147
  C 3.220894 1.473179 4.033514
  C 3.030851 0.051216 -0.948376
  C 4.404555 -0.280444 -1.012206
  C 5.077141 -0.945686 -2.034140
  C 4.606275 -1.525263 -3.348829
  C 3.140764 -1.424753 -3.771739
  C 2.936464 -2.122613 -5.128917
  O 6.416374 -1.165168 -1.914455
  H 1.038273 1.137270 -0.152817
  H 0.760471 -0.680628 -0.018133
  H 0.061480 0.644086 0.837847
  H 3.537453 1.903863 1.358868
  H 4.250352 0.351835 1.594581
  H 2.660739 -0.422097 3.158846
  H 1.588259 0.846090 2.749342
  H 4.270755 1.214268 4.188003
  H 2.694444 1.294607 4.966505
  H 3.163413 2.535179 3.805267
  H 2.409251 -0.112137 -1.805543
  H 5.021236 0.003214 -0.172578
  H 4.901100 -2.577850 -3.332205
  H 5.232268 -1.064405 -4.116105
  H 2.852073 -0.392741 -3.869574
  H 2.501271 -1.918619 -3.034190
  H 3.541894 -1.654941 -5.901732
  H 1.898705 -2.064448 -5.434712
  H 3.213361 -3.163765 -5.070009
  H 6.782059 -0.821416 -1.061869
 32
 84.949067
  C 0.646547 0.460210 1.189216
  C 3.224951 0.360922 0.285594
  C 3.536072 1.003932 1.530560
  C 2.681741 0.643041 2.693789
  C 2.629961 1.558753 3.847571
  C 3.600390 -0.051207 -0.893047
  C 4.936560 -0.533793 -1.174579
  C 5.380678 -1.173913 -2.266634
  C 4.699893 -1.629112 -3.515714
  C 3.211628 -1.388853 -3.725225
  C 2.768909 -1.975848 -5.059196
  O 6.685782 -1.527657 -2.345230
  H 0.989248 0.903060 0.275476
  H 0.410603 -0.588932 1.102105
  H -0.206066 1.011172 1.553974
  H 3.576331 2.083589 1.401134
  H 4.545687 0.658440 1.762262
  H 2.692790 -0.406851 2.955137
  H 1.368380 0.678975 1.992443
  H 3.582313 1.509899 4.387184
  H 1.850355 1.268278 4.548170
  H 2.470878 2.594412 3.546327
  H 2.872181 -0.181292 -1.673590
  H 5.654280 -0.341252 -0.388179
  H 4.897256 -2.701864 -3.586526
  H 5.249537 -1.177572 -4.338350
  H 3.001116 -0.322675 -3.733407
  H 2.639935 -1.874035 -2.931076
  H 3.306330 -1.507445 -5.886957
  H 1.707701 -1.822411 -5.206895
  H 2.962989 -3.044725 -5.093134
  H 7.181861 -1.266584 -1.559088
 32
 83.096524
  C 0.138278 0.607708 1.660009
  C 3.262010 0.380569 0.126284
  C 3.458549 1.015744 1.398329
  C 2.633287 0.615405 2.562760
  C 2.666237 1.464720 3.773459
  C 3.727089 0.060248 -1.045884
  C 5.058824 -0.461631 -1.263137
  C 5.520763 -1.164928 -2.311358
  C 4.850588 -1.682769 -3.552552
  C 3.378986 -1.405305 -3.814591
  C 2.937557 -2.059237 -5.120708
  O 6.824963 -1.529777 -2.346137
  H 0.142834 0.519855 0.588119
  H -0.161124 -0.321315 2.119118
  H -0.502698 1.423031 1.974765
  H 3.494815 2.104549 1.282286
  H 4.475400 0.678820 1.663634
  H 2.601298 -0.451871 2.752243
  H 1.219492 0.754047 2.045744
  H 3.635677 1.346207 4.266781
  H 1.900518 1.159500 4.481692
  H 2.540226 2.519889 3.541658
  H 3.047089 -0.007463 -1.876148
  H 5.758829 -0.249003 -0.465499
  H 5.009163 -2.767268 -3.553909
  H 5.441284 -1.309974 -4.396168
  H 3.205154 -0.331446 -3.896957
  H 2.772119 -1.804371 -3.004767
  H 3.503373 -1.663896 -5.958054
  H 1.882267 -1.873375 -5.303724
  H 3.095101 -3.132205 -5.083360
  H 7.313912 -1.222770 -1.569236
 32
 187.765175
  C 0.073190 0.580431 1.687882
  C 3.369409 0.474776 0.120159
  C 3.735647 1.046889 1.392266
  C 2.444644 0.682358 2.352512
  C 2.521425 1.382509 3.793743
  C 4.009567 0.283703 -1.056390
  C 5.310527 -0.324284 -1.298218
  C 5.629724 -1.109049 -2.371267
  C 4.830527 -1.664967 -3.519683
  C 3.294828 -1.405878 -3.788176
  C 2.820914 -2.152165 -5.027459
  O 6.942774 -1.567487 -2.476840
  H -0.535642 0.067415 0.736332
  H -0.026019 -0.184514 2.480537
  H -0.699871 1.472567 1.833077
  H 3.971329 2.270111 1.467369
  H 4.800483 0.588037 1.678754
  H 2.327513 -0.501050 2.343111
  H 1.168229 1.112175 1.845121
  H 3.566323 0.965867 4.354752
  H 1.577551 1.084475 4.382182
  H 2.580452 2.561216 3.802534
  H 3.255984 0.177246 -1.863239
  H 6.116089 -0.094014 -0.567362
  H 5.018622 -2.760111 -3.503751
  H 5.393954 -1.418324 -4.435619
  H 3.105579 -0.317417 -3.878553
  H 2.704648 -1.689586 -2.905523
  H 3.371186 -1.830981 -5.947185
  H 1.709452 -2.018581 -5.235437
  H 3.001429 -3.245402 -4.979825
  H 7.534081 -1.241854 -1.772926
 32
 694.529261
  C -0.318142 0.137008 0.607469
  C 2.724230 0.408014 0.286221
  C 3.571392 1.034538 1.694902
  C 2.423748 1.007303 3.242575
  C 3.453417 1.861569 4.645500
  C 3.594143 0.293295 -0.978859
  C 5.104513 -0.247809 -1.114779
  C 5.693032 -1.107348 -2.307691
  C 4.935105 -1.756902 -3.697616
  C 3.156520 -1.556684 -4.099639
  C 2.720030 -2.387701 -5.642773
  O 7.199163 -1.420793 -2.241957
  H -1.185341 -0.741305 -0.434708
  H -0.619557 -0.533780 1.545503
  H -1.247186 1.280747 0.469251
  H 4.094834 2.411379 1.632421
  H 4.788210 0.237800 1.688886
  H 1.985168 -0.342177 3.420343
  H 1.204796 1.737195 3.250244
  H 4.694498 1.146130 4.733286
  H 2.634647 1.868669 5.748862
  H 3.834246 3.228629 4.429312
  H 2.905733 0.110169 -1.896807
  H 5.953540 0.026428 -0.167032
  H 5.243882 -2.897420 -3.779594
  H 5.586756 -1.469332 -4.625785
  H 2.829813 -0.425728 -4.181604
  H 2.483360 -1.889879 -3.216029
  H 3.389521 -1.992473 -6.545340
  H 1.443357 -2.258043 -5.919038
  H 3.018305 -3.516602 -5.604218
  H 7.662603 -0.994308 -1.331248
 32
 187.200958
  C -0.170751 0.013313 0.400482
  C 2.906486 0.378545 0.084968
  C 3.329155 1.187197 1.258801
  C 2.270186 1.255475 2.441132
  C 2.833321 2.287530 3.515716
  C 3.703033 0.124377 -0.951005
  C 5.082024 -0.285288 -1.004826
  C 5.645635 -1.113934 -1.946469
  C 5.015611 -1.850369 -3.092471
  C 3.513670 -1.790178 -3.408527
  C 3.186998 -2.671208 -4.633362
  O 6.963442 -1.288122 -1.920939
  H -0.914796 -0.906876 -0.298657
  H -0.322134 -0.402420 1.418100
  H -0.890776 0.910600 0.142879
  H 3.552587 2.292923 1.024081
  H 4.335562 0.713325 1.484126
  H 2.067481 0.204101 2.814781
  H 1.243227 1.644744 2.176220
  H 3.858874 1.895609 3.829209
  H 2.088646 2.363282 4.357987
  H 3.006899 3.342180 3.113964
  H 3.112476 -0.225916 -1.795540
  H 5.779252 0.099037 -0.234025
  H 5.343570 -2.914365 -3.040310
  H 5.609369 -1.640372 -3.984764
  H 3.129179 -0.791017 -3.610203
  H 2.885115 -2.057068 -2.553122
  H 3.761345 -2.347236 -5.498631
  H 2.101523 -2.668444 -4.839741
  H 3.554376 -3.698860 -4.482479
  H 7.368464 -0.808550 -1.185150
 32
 70.239608
  C 0.731764 0.095600 0.416210
  C 2.631490 0.308813 0.196576
  C 3.195616 0.837477 1.451108
  C 2.424607 0.683677 2.757537
  C 3.171634 1.399384 3.892846
  C 3.421235 0.294578 -0.961374
  C 4.763979 -0.020343 -1.187610
  C 5.323417 -0.699394 -2.248239
  C 4.698647 -1.389467 -3.404166
  C 3.191448 -1.444647 -3.622503
  C 2.878150 -2.341835 -4.812559
  O 6.639814 -0.819876 -2.288760
  H -0.099413 -0.449883 -0.210529
  H 0.700300 -0.490577 1.319392
  H 0.318339 1.095136 0.511121
  H 3.395665 1.912617 1.354292
  H 4.192816 0.373919 1.503203
  H 2.262204 -0.372277 2.960450
  H 1.431234 1.148017 2.722041
  H 4.180357 0.994563 4.009996
  H 2.589165 1.309906 4.810128
  H 3.270567 2.470134 3.696291
  H 2.793979 0.106215 -1.820543
  H 5.465837 0.235884 -0.395659
  H 5.090064 -2.422455 -3.388289
  H 5.222193 -1.064696 -4.311729
  H 2.745590 -0.453460 -3.745895
  H 2.706893 -1.852500 -2.723865
  H 3.359395 -1.982269 -5.721950
  H 1.806099 -2.410807 -5.006017
  H 3.268662 -3.355223 -4.651526
  H 7.109380 -0.455223 -1.513541
 32
 0.591274
  C 0.952713 0.090821 0.418149
  C 2.467175 0.130411 0.424165
  C 3.231535 0.635944 1.633376
  C 2.391689 1.004923 2.886072
  C 3.303701 1.545859 4.019634
  C 3.135856 -0.356195 -0.723387
  C 4.523426 -0.360028 -1.002030
  C 5.196974 -0.745460 -2.202687
  C 4.669639 -1.305600 -3.513881
  C 3.160025 -1.558537 -3.755318
  C 2.951590 -2.177783 -5.160188
  O 6.540618 -0.619592 -2.260680
  H 0.581009 -0.742074 -0.286328
  H 0.490595 -0.039998 1.429931
  H 0.581932 1.028678 -0.028998
  H 3.805014 1.532803 1.317144
  H 3.999388 -0.093475 1.925657
  H 1.845400 0.124149 3.263274
  H 1.644566 1.760863 2.623462
  H 4.032040 0.799332 4.339914
  H 2.699037 1.819959 4.901615
  H 3.864371 2.429274 3.686414
  H 2.489033 -0.677599 -1.530317
  H 5.186105 -0.018216 -0.194507
  H 5.213985 -2.248411 -3.670712
  H 5.059541 -0.639684 -4.313296
  H 2.601902 -0.619913 -3.716898
  H 2.753419 -2.253397 -3.000526
  H 3.315901 -1.509668 -5.951174
  H 1.881458 -2.375181 -5.339399
  H 3.491401 -3.118400 -5.253096
  H 6.961993 -0.273746 -1.443198
