 26
 0.000000
  H 1.365650 0.141294 0.403454
  C 2.435627 0.138812 0.396949
  C 3.229471 0.606512 1.560312
  C 2.462344 1.098650 2.784948
  H 3.137579 1.408205 3.555100
  C 3.047724 -0.326485 -0.761128
  C 4.427680 -0.410350 -0.970580
  C 5.111749 -0.860636 -2.093538
  C 4.622398 -1.384411 -3.399794
  C 3.132979 -1.504809 -3.700598
  C 2.922534 -2.067455 -5.103799
  O 6.434575 -0.852273 -2.073085
  H 3.886571 1.416144 1.222870
  H 3.886751 -0.211308 1.877002
  H 1.825548 0.303651 3.177702
  H 1.825480 1.944269 2.518350
  H 2.388559 -0.643775 -1.550690
  H 5.047217 -0.079018 -0.145404
  H 5.082172 -2.371786 -3.523346
  H 5.082493 -0.756172 -4.171309
  H 2.655388 -0.525521 -3.650229
  H 2.655156 -2.177872 -2.987664
  H 3.365851 -1.418585 -5.855871
  H 1.859660 -2.152844 -5.317123
  H 3.365674 -3.056276 -5.199167
  H 6.800018 -0.516405 -1.234749
 26
 0.000000
  H 1.353541 0.165977 0.465006
  C 2.423489 0.162177 0.455207
  C 3.221486 0.628904 1.616117
  C 2.458739 1.121991 2.843105
  H 3.136722 1.430718 3.611172
  C 3.031445 -0.303877 -0.704745
  C 4.410645 -0.389442 -0.918444
  C 5.153429 -0.882185 -2.147270
  C 4.659415 -1.405359 -3.452011
  C 3.168929 -1.523920 -3.748229
  C 2.953473 -2.086309 -5.150772
  O 6.330809 -0.889670 -2.166334
  H 3.878540 1.437726 1.276647
  H 3.878731 -0.189723 1.930788
  H 1.822177 0.327778 3.237824
  H 1.822099 1.968392 2.578462
  H 2.369462 -0.620359 -1.492272
  H 5.033127 -0.058869 -0.095182
  H 5.117588 -2.393301 -3.576971
  H 5.117908 -0.777690 -4.224942
  H 2.692704 -0.544043 -3.696397
  H 2.692473 -2.196391 -3.033824
  H 3.395274 -1.437989 -5.904209
  H 1.889843 -2.170387 -5.360824
  H 3.395097 -3.075677 -5.247497
  H 6.649703 -0.556917 -1.335792
 26
 0.000000
  H 1.338074 0.193016 0.532433
  C 2.407973 0.187652 0.518723
  C 3.210889 0.653216 1.676705
  C 2.453354 1.147422 2.906468
  H 3.134590 1.455160 3.672049
  C 3.011003 -0.279295 -0.643439
  C 4.389286 -0.366877 -0.862177
  C 5.195064 -0.906377 -2.207590
  C 4.695520 -1.428829 -3.510513
  C 3.203790 -1.545205 -3.801283
  C 2.982387 -2.107281 -5.203026
  O 6.250197 -0.927832 -2.261483
  H 3.867880 1.461075 1.334829
  H 3.868082 -0.166370 1.988979
  H 1.817078 0.354142 3.303518
  H 1.816989 1.994753 2.644147
  H 2.345684 -0.594811 -1.428538
  H 5.015256 -0.037212 -0.041198
  H 5.151784 -2.417441 -3.637139
  H 5.152106 -0.801834 -4.285119
  H 2.729194 -0.564631 -3.747718
  H 2.728961 -2.216976 -3.085137
  H 3.422382 -1.459611 -5.958076
  H 1.917874 -2.189801 -5.409189
  H 3.422204 -3.097295 -5.301356
  H 6.536948 -0.594462 -1.429426
 26
 0.000000
  H 1.319451 0.222450 0.605828
  C 2.389273 0.215294 0.587638
  C 3.197810 0.679515 1.742243
  C 2.446259 1.174993 2.975163
  H 3.131211 1.481592 3.737882
  C 2.986648 -0.252667 -0.577034
  C 4.363855 -0.342560 -0.801540
  C 5.236644 -0.933186 -2.274431
  C 4.730774 -1.454800 -3.575248
  C 3.237647 -1.568670 -3.859771
  C 3.009435 -2.130376 -5.260570
  O 6.192279 -0.966873 -2.358817
  H 3.854717 1.486270 1.397611
  H 3.854930 -0.141171 2.051772
  H 1.810323 0.382782 3.374881
  H 1.810222 2.023388 2.715500
  H 2.317520 -0.567070 -1.359337
  H 4.993808 -0.013942 0.016808
  H 5.184843 -2.444178 -3.703774
  H 5.185167 -0.828574 -4.351763
  H 2.764928 -0.587301 -3.804229
  H 2.764692 -2.239641 -3.141638
  H 3.447353 -1.483446 -6.017461
  H 1.943931 -2.211106 -5.462276
  H 3.447173 -3.121127 -5.360732
  H 6.458368 -0.629321 -1.516353
 26
 0.000000
  H 1.298275 0.253878 0.684190
  C 2.367987 0.244756 0.661092
  C 3.182667 0.707493 1.811969
  C 2.437694 1.204355 3.048319
  H 3.126701 1.509696 3.807883
  C 2.959150 -0.224305 -0.506305
  C 4.335145 -0.316729 -0.737128
  C 5.277749 -0.962138 -2.346612
  C 4.764956 -1.482820 -3.645090
  C 3.270331 -1.593940 -3.922759
  C 3.034661 -2.155225 -5.322491
  O 6.155246 -1.006513 -2.457643
  H 3.839466 1.513039 1.464316
  H 3.839691 -0.114398 2.118487
  H 1.802145 0.413315 3.450961
  H 1.802032 2.053917 2.791568
  H 2.285862 -0.537480 -1.285526
  H 4.969450 0.010733 0.078316
  H 5.216607 -2.473033 -3.775689
  H 5.216934 -0.857433 -4.423687
  H 2.799680 -0.611701 -3.865057
  H 2.799441 -2.264038 -3.202457
  H 3.470293 -1.509104 -6.081389
  H 1.968096 -2.233993 -5.519306
  H 3.470109 -3.146781 -5.424651
  H 6.409675 -0.661478 -1.596537
 26
 0.000000
  H 1.275444 0.286621 0.765828
  C 2.345013 0.275439 0.737588
  C 3.166104 0.736610 1.884530
  C 2.428041 1.234908 3.124442
  H 3.121278 1.538924 3.880682
  C 2.929654 -0.194761 -0.432632
  C 4.304343 -0.289834 -0.670065
  C 5.317861 -0.992448 -2.422176
  C 4.797831 -1.512140 -3.718170
  C 3.301678 -1.620376 -3.988653
  C 3.058202 -2.181205 -5.387232
  O 6.135418 -1.046243 -2.556687
  H 3.822775 1.540889 1.533716
  H 3.823012 -0.086543 2.187896
  H 1.792913 0.445093 3.530143
  H 1.792789 2.085691 2.870740
  H 2.252026 -0.506641 -1.208604
  H 4.943190 0.036408 0.142317
  H 5.246938 -2.503222 -3.850928
  H 5.247269 -0.887626 -4.498936
  H 2.833206 -0.637230 -3.928700
  H 2.832961 -2.289564 -3.266091
  H 3.491429 -1.535926 -6.148221
  H 1.990554 -2.257915 -5.578919
  H 3.491240 -3.173600 -5.491474
  H 6.384623 -0.690981 -1.670097
 26
 0.000000
  H 1.251766 0.320109 0.849323
  C 2.321161 0.306845 0.815884
  C 3.148714 0.766419 1.958817
  C 2.417658 1.266155 3.202296
  H 3.115152 1.568822 3.955154
  C 2.899191 -0.164495 -0.357159
  C 4.272522 -0.262244 -0.601270
  C 5.356747 -1.023415 -2.499376
  C 4.829413 -1.542091 -3.792823
  C 3.331755 -1.647407 -4.056033
  C 3.080392 -2.207760 -5.453407
  O 6.128292 -1.085669 -2.654973
  H 3.805236 1.569418 1.604806
  H 3.805484 -0.058011 2.258995
  H 1.782972 0.477579 3.611088
  H 1.782837 2.118173 2.951675
  H 2.217193 -0.475056 -1.129824
  H 4.915944 0.062755 0.207993
  H 5.275935 -2.534048 -3.927753
  H 5.276270 -0.918456 -4.575770
  H 2.865499 -0.663349 -3.993814
  H 2.865249 -2.315679 -3.331196
  H 3.511175 -1.563328 -6.216498
  H 2.011678 -2.282387 -5.639903
  H 3.510981 -3.200998 -5.559742
  H 6.376174 -0.718187 -1.737927
 26
 0.000000
  H 1.227743 0.354055 0.933953
  C 2.296938 0.338729 0.895369
  C 3.130865 0.796708 2.034301
  C 2.406766 1.297855 3.281279
  H 3.108458 1.599177 4.030768
  C 2.868406 -0.133726 -0.280437
  C 4.240355 -0.234123 -0.531154
  C 5.394471 -1.054615 -2.577155
  C 4.859920 -1.572271 -3.868046
  C 3.360812 -1.674693 -4.124047
  C 3.101648 -2.234560 -5.520190
  O 6.130029 -1.124644 -2.752134
  H 3.787223 1.598439 1.677126
  H 3.787482 -0.028986 2.331324
  H 1.772536 0.510504 3.693129
  H 1.772390 2.151094 3.033707
  H 2.182100 -0.442973 -1.049809
  H 4.888290 0.089637 0.275001
  H 5.303870 -2.565089 -4.005112
  H 5.304210 -0.949500 -4.653139
  H 2.896763 -0.689736 -4.059594
  H 2.896509 -2.342063 -3.396967
  H 3.529999 -1.590961 -6.285351
  H 2.031907 -2.307121 -5.701543
  H 3.529801 -3.228628 -5.628587
  H 6.378370 -0.743641 -1.801385
 26
 0.000000
  H 1.203618 0.388370 1.019506
  C 2.272588 0.371027 0.975885
  C 3.112736 0.827433 2.110871
  C 2.395466 1.329947 3.361241
  H 3.101249 1.629947 4.107413
  C 2.837618 -0.102508 -0.202596
  C 4.208179 -0.205494 -0.459772
  C 5.431219 -1.085834 -2.654981
  C 4.889616 -1.602478 -3.943335
  C 3.389128 -1.702064 -4.192273
  C 3.122333 -2.261439 -5.587176
  O 6.138006 -1.163181 -2.848199
  H 3.768915 1.627924 1.750599
  H 3.769185 0.000502 2.404806
  H 1.761699 0.543796 3.776083
  H 1.761542 2.184382 3.116651
  H 2.147113 -0.410461 -0.968722
  H 4.860514 0.117043 0.343318
  H 5.331036 -2.596135 -4.082483
  H 5.331381 -0.980549 -4.730518
  H 2.927251 -0.716231 -4.125644
  H 2.926992 -2.368554 -3.463009
  H 3.548293 -1.618652 -6.354350
  H 2.051614 -2.331977 -5.763488
  H 3.548089 -3.256316 -5.697579
  H 6.386984 -0.767864 -1.861771
 26
 0.000000
  H 1.179483 0.423065 1.106004
  C 2.248209 0.403759 1.057483
  C 3.094387 0.858624 2.188601
  C 2.383781 1.362457 3.442241
  H 3.093526 1.661161 4.185167
  C 2.806959 -0.070815 -0.123571
  C 4.176136 -0.176317 -0.387026
  C 5.467166 -1.116959 -2.732567
  C 4.918715 -1.632605 -4.018422
  C 3.416921 -1.729428 -4.260481
  C 3.142708 -2.288311 -5.654142
  O 6.150634 -1.201346 -2.943337
  H 3.750377 1.657908 1.825317
  H 3.750658 0.030489 2.479532
  H 1.750479 0.577471 3.859992
  H 1.750312 2.218054 3.200551
  H 2.112386 -0.377501 -0.886520
  H 4.832737 0.145023 0.413062
  H 5.357664 -2.627072 -4.159583
  H 5.358013 -1.011490 -4.807626
  H 2.957171 -0.742746 -4.191745
  H 2.956906 -2.395066 -3.529101
  H 3.566331 -1.646309 -6.423266
  H 2.071064 -2.356878 -5.825545
  H 3.566122 -3.283970 -5.766486
  H 6.399236 -0.791256 -1.920088
 26
 0.000000
  H 1.155352 0.458187 1.193562
  C 2.223815 0.436978 1.140293
  C 3.075820 0.890339 2.267636
  C 2.371689 1.395437 3.524416
  H 3.085259 1.692879 4.264179
  C 2.776467 -0.038591 -0.043227
  C 4.144270 -0.146531 -0.312763
  C 5.502440 -1.147898 -2.809693
  C 4.947364 -1.662565 -4.093095
  C 3.444339 -1.756708 -4.328480
  C 3.162942 -2.315102 -5.720905
  O 6.167023 -1.239213 -3.037731
  H 3.731610 1.688453 1.901433
  H 3.731902 0.061038 2.555656
  H 1.738854 0.611581 3.944985
  H 1.738676 2.252160 3.285536
  H 2.077965 -0.344042 -0.803080
  H 4.804991 0.173641 0.484397
  H 5.383905 -2.657814 -4.236195
  H 5.384260 -1.042236 -4.884247
  H 2.986660 -0.769208 -4.257711
  H 2.986389 -2.421524 -3.595059
  H 3.584289 -1.673857 -6.491909
  H 2.090426 -2.381755 -5.887547
  H 3.584074 -3.311514 -5.835121
  H 6.413335 -0.814090 -1.977011
 26
 0.000000
  H 1.131194 0.493797 1.282339
  C 2.199381 0.470751 1.224482
  C 3.056996 0.922648 2.348153
  C 2.359138 1.428959 3.607940
  H 3.076389 1.725175 4.344629
  C 2.746127 -0.005771 0.038605
  C 4.112573 -0.116064 -0.236801
  C 5.537104 -1.178551 -2.886102
  C 4.975637 -1.692260 -4.167106
  C 3.471456 -1.783811 -4.396038
  C 3.183122 -2.341719 -5.787238
  O 6.186706 -1.276836 -3.131516
  H 3.712580 1.719632 1.979129
  H 3.712882 0.092220 2.633361
  H 1.726767 0.646193 4.031229
  H 1.726580 2.286769 3.371771
  H 2.043845 -0.310021 -0.718239
  H 4.777260 0.202974 0.557511
  H 5.409843 -2.688261 -4.312071
  H 5.410203 -1.072686 -4.960131
  H 3.015789 -0.795522 -4.323313
  H 3.015512 -2.447835 -3.660653
  H 3.602263 -1.701202 -6.560048
  H 2.109788 -2.406522 -5.949274
  H 3.602042 -3.338856 -5.903252
  H 6.428103 -0.836520 -2.032929
 26
 0.000000
  H 1.106940 0.529981 1.372544
  C 2.174839 0.505165 1.310271
  C 3.037842 0.955643 2.430380
  C 2.346040 1.463113 3.693039
  H 3.066822 1.758142 4.426752
  C 2.715886 0.027736 0.122146
  C 4.080996 -0.084821 -0.158908
  C 5.571160 -1.208773 -2.961435
  C 5.003550 -1.721549 -4.240104
  C 3.498284 -1.810601 -4.462814
  C 3.203275 -2.368029 -5.852806
  O 6.209440 -1.314230 -3.224727
  H 3.693214 1.751540 2.058641
  H 3.693526 0.124131 2.712880
  H 1.714130 0.681396 4.118947
  H 1.713932 2.321968 3.459481
  H 2.009976 -0.275352 -0.631784
  H 4.749490 0.233117 0.632645
  H 5.435497 -2.718270 -4.386855
  H 5.435862 -1.102699 -5.034923
  H 3.044564 -0.821556 -4.388213
  H 3.044281 -2.473866 -3.725546
  H 3.620281 -1.728210 -6.627347
  H 2.129174 -2.431049 -6.010404
  H 3.620054 -3.365861 -5.970544
  H 6.442739 -0.858592 -2.087952
 26
 0.000000
  H 1.082462 0.566877 1.464521
  C 2.150065 0.540364 1.398011
  C 3.018222 0.989472 2.514683
  C 2.332243 1.498043 3.780073
  H 3.056398 1.791928 4.510917
  C 2.685633 0.062072 0.207752
  C 4.049437 -0.052654 -0.078716
  C 5.604537 -1.238338 -3.035128
  C 5.031043 -1.750209 -4.311532
  C 3.524766 -1.836860 -4.528270
  C 3.223358 -2.393819 -5.917077
  O 6.235073 -1.351331 -3.317209
  H 3.673377 1.784325 2.140339
  H 3.673699 0.156919 2.794586
  H 1.700786 0.717333 4.208492
  H 1.700579 2.357902 3.549018
  H 1.976256 -0.239895 -0.543368
  H 4.721571 0.264222 0.710175
  H 5.460815 -2.747618 -4.459989
  H 5.461186 -1.132049 -5.108064
  H 3.072923 -0.847094 -4.451877
  H 3.072634 -2.499400 -3.789202
  H 3.638308 -1.754666 -6.693271
  H 2.148540 -2.455126 -6.070413
  H 3.638075 -3.392315 -6.036460
  H 6.456641 -0.880223 -2.141878
