 17
 0.000000
  C 0.992706 0.128978 0.380265
  C 2.464047 0.136451 0.399553
  C 3.189745 0.614483 1.586501
  H 2.526943 0.936296 2.381888
  C 3.125533 -0.319900 -0.736826
  C 4.511006 -0.382768 -0.895385
  C 5.112761 -0.843430 -2.046166
  H 4.562750 -1.192197 -2.912155
  O 6.397255 -0.914183 -2.231109
  H 0.558328 0.495213 1.305246
  H 0.625277 -0.881180 0.192631
  H 0.623253 0.740681 -0.446148
  H 3.844312 1.444721 1.316226
  H 3.842040 -0.172388 1.968858
  H 2.512558 -0.651777 -1.563793
  H 5.145574 -0.056216 -0.082482
  H 6.933531 -0.606485 -1.472221
 17
 3.242751
  C 0.994584 0.095600 0.406955
  C 2.444088 0.134412 0.400733
  C 3.166819 0.625330 1.586858
  H 2.484966 0.955152 2.362432
  C 3.119103 -0.318137 -0.728288
  C 4.519441 -0.368584 -0.874262
  C 5.111466 -0.838996 -2.042670
  H 4.508285 -1.182849 -2.876378
  O 6.387471 -0.921770 -2.273294
  H 0.535547 0.480904 1.305147
  H 0.586799 -0.884160 0.170679
  H 0.835121 0.730998 -0.443459
  H 3.833189 1.448093 1.329355
  H 3.800557 -0.164794 1.990473
  H 2.522179 -0.660243 -1.564179
  H 5.154355 -0.036767 -0.062891
  H 6.956792 -0.615292 -1.537759
 17
 8.610524
  C 0.988239 0.055055 0.427391
  C 2.438441 0.122532 0.412367
  C 3.168641 0.637581 1.575446
  H 2.488748 0.999888 2.344724
  C 3.121190 -0.331048 -0.725026
  C 4.504470 -0.364306 -0.872957
  C 5.092488 -0.836011 -2.031690
  H 4.484100 -1.194525 -2.855968
  O 6.367774 -0.906410 -2.269774
  H 0.504720 0.433815 1.320050
  H 0.552359 -0.864483 0.088361
  H 1.023769 0.759761 -0.397299
  H 3.856583 1.437069 1.304140
  H 3.772023 -0.167514 2.000496
  H 2.530970 -0.690720 -1.556667
  H 5.134345 -0.019873 -0.067724
  H 6.932429 -0.587375 -1.542445
 17
 14.963967
  C 0.981521 0.027959 0.443411
  C 2.430147 0.114891 0.405661
  C 3.166173 0.654163 1.568432
  H 2.488372 1.034553 2.328479
  C 3.107808 -0.339647 -0.728368
  C 4.499319 -0.366080 -0.879895
  C 5.087006 -0.837748 -2.031025
  H 4.484086 -1.203780 -2.853537
  O 6.365296 -0.901101 -2.268876
  H 0.492155 0.375085 1.341407
  H 0.514591 -0.844649 0.013329
  H 1.162373 0.789953 -0.317670
  H 3.865374 1.442345 1.287361
  H 3.753145 -0.154054 2.010603
  H 2.516721 -0.712446 -1.554103
  H 5.130264 -0.013699 -0.076249
  H 6.927595 -0.573830 -1.537316
 17
 21.269665
  C 0.970516 0.009292 0.462234
  C 2.430775 0.117274 0.398219
  C 3.161052 0.665080 1.567194
  H 2.480681 1.050199 2.317202
  C 3.108699 -0.338728 -0.737019
  C 4.495219 -0.364953 -0.884966
  C 5.086875 -0.837793 -2.035366
  H 4.487487 -1.204835 -2.859784
  O 6.367036 -0.900805 -2.269957
  H 0.471394 0.346286 1.354008
  H 0.483273 -0.839659 0.002367
  H 1.279227 0.794916 -0.286997
  H 3.862635 1.447603 1.287979
  H 3.740054 -0.139218 2.018269
  H 2.518542 -0.713621 -1.562528
  H 5.123801 -0.011975 -0.079747
  H 6.923196 -0.574425 -1.540400
 17
 24.383044
  C 0.973775 -0.024586 0.483893
  C 2.417390 0.120931 0.393598
  C 3.157575 0.680131 1.543755
  H 2.484182 1.074241 2.295568
  C 3.102148 -0.348345 -0.741221
  C 4.489163 -0.364305 -0.890571
  C 5.087278 -0.848706 -2.031703
  H 4.497664 -1.232254 -2.854377
  O 6.374934 -0.905105 -2.261292
  H 0.476391 0.246261 1.404671
  H 0.460650 -0.768108 -0.118889
  H 1.355606 0.859348 -0.147002
  H 3.852248 1.457150 1.248082
  H 3.731344 -0.122772 1.998299
  H 2.514544 -0.746542 -1.555055
  H 5.116316 0.004407 -0.090134
  H 6.922017 -0.562920 -1.526293
 17
 27.501104
  C 0.977239 -0.040187 0.495338
  C 2.404340 0.120906 0.384858
  C 3.149326 0.684478 1.530041
  H 2.466399 1.094003 2.290906
  C 3.094411 -0.352492 -0.748151
  C 4.486588 -0.362243 -0.894363
  C 5.091274 -0.850001 -2.027251
  H 4.508115 -1.241618 -2.850527
  O 6.387494 -0.902053 -2.251297
  H 0.487629 0.207562 1.425622
  H 0.448579 -0.729980 -0.162138
  H 1.419986 0.877581 -0.077586
  H 3.850984 1.467171 1.218021
  H 3.732363 -0.127315 1.998533
  H 2.508504 -0.758658 -1.557601
  H 5.111852 0.015339 -0.092721
  H 6.915646 -0.560512 -1.529544
 17
 29.899515
  C 0.977177 -0.057313 0.501164
  C 2.401305 0.123154 0.376146
  C 3.151268 0.693874 1.535215
  H 2.473893 1.100217 2.286051
  C 3.100472 -0.354322 -0.758865
  C 4.479593 -0.361890 -0.901094
  C 5.088145 -0.854423 -2.034150
  H 4.506557 -1.248632 -2.856900
  O 6.374827 -0.905860 -2.252365
  H 0.492142 0.177007 1.425409
  H 0.444165 -0.707480 -0.181932
  H 1.473285 0.889500 -0.039228
  H 3.843119 1.470987 1.224336
  H 3.729748 -0.099562 2.003944
  H 2.513888 -0.764633 -1.571234
  H 5.102427 0.018155 -0.100811
  H 6.920235 -0.549294 -1.501881
 17
 31.836143
  C 0.969581 -0.074360 0.502681
  C 2.400599 0.131243 0.372384
  C 3.154429 0.698109 1.535920
  H 2.480453 1.103424 2.285863
  C 3.097036 -0.353349 -0.760659
  C 4.481665 -0.354459 -0.904328
  C 5.093873 -0.856991 -2.030419
  H 4.517076 -1.263471 -2.848087
  O 6.387808 -0.905809 -2.247822
  H 0.471238 0.152499 1.435499
  H 0.435802 -0.678506 -0.208304
  H 1.513932 0.902706 -0.007736
  H 3.847943 1.478451 1.225754
  H 3.730283 -0.094800 2.001312
  H 2.510490 -0.772933 -1.567895
  H 5.101174 0.037725 -0.108606
  H 6.918988 -0.545706 -1.514315
 17
 33.898328
  C 0.979536 -0.085792 0.506470
  C 2.395883 0.138567 0.368579
  C 3.153700 0.701051 1.535126
  H 2.470545 1.111412 2.297333
  C 3.094100 -0.350957 -0.766953
  C 4.475460 -0.351227 -0.908226
  C 5.092133 -0.857218 -2.031668
  H 4.524411 -1.264528 -2.844556
  O 6.387616 -0.907515 -2.244521
  H 0.481956 0.136491 1.439526
  H 0.442750 -0.667779 -0.226026
  H 1.555529 0.906731 0.011258
  H 3.855034 1.487421 1.222069
  H 3.724022 -0.084646 1.995880
  H 2.508535 -0.771441 -1.570001
  H 5.096630 0.046548 -0.105324
  H 6.914781 -0.545337 -1.510329
 17
 35.560557
  C 0.975457 -0.096411 0.517176
  C 2.395087 0.153040 0.367149
  C 3.154269 0.710725 1.533625
  H 2.488441 1.110656 2.276179
  C 3.096898 -0.343526 -0.768081
  C 4.482928 -0.344614 -0.908939
  C 5.096413 -0.851491 -2.023210
  H 4.519800 -1.268752 -2.851397
  O 6.393488 -0.903706 -2.231168
  H 0.478867 0.131796 1.441139
  H 0.438607 -0.665442 -0.221974
  H 1.585087 0.920566 0.015415
  H 3.840258 1.485009 1.226042
  H 3.737010 -0.091460 2.002636
  H 2.503708 -0.770686 -1.580198
  H 5.095574 0.049042 -0.118944
  H 6.918625 -0.540330 -1.495932
 17
 37.246800
  C 0.984083 -0.106079 0.516574
  C 2.392146 0.160154 0.361668
  C 3.160777 0.712513 1.533428
  H 2.491079 1.118061 2.288390
  C 3.096977 -0.342019 -0.770889
  C 4.475536 -0.344834 -0.904467
  C 5.094841 -0.853972 -2.022506
  H 4.525012 -1.261650 -2.846948
  O 6.390749 -0.900636 -2.230209
  H 0.481770 0.131672 1.442881
  H 0.447219 -0.664216 -0.229398
  H 1.616640 0.917309 0.017360
  H 3.850050 1.489330 1.224263
  H 3.734655 -0.082770 1.990959
  H 2.497703 -0.774357 -1.596742
  H 5.095043 0.057081 -0.101006
  H 6.915088 -0.536172 -1.493588
 17
 38.592649
  C 0.984775 -0.125397 0.525588
  C 2.394338 0.176039 0.360396
  C 3.160727 0.721174 1.535521
  H 2.491851 1.113571 2.290643
  C 3.101268 -0.326292 -0.774813
  C 4.481819 -0.326376 -0.912679
  C 5.099914 -0.837298 -2.028720
  H 4.525648 -1.262466 -2.850816
  O 6.394618 -0.916323 -2.221498
  H 0.482690 0.112238 1.444660
  H 0.447268 -0.678862 -0.229580
  H 1.637008 0.930457 0.021061
  H 3.849173 1.512622 1.229624
  H 3.739415 -0.073912 1.985107
  H 2.507323 -0.751450 -1.592509
  H 5.089174 0.054961 -0.123432
  H 6.921492 -0.562109 -1.477238
 17
 39.912514
  C 0.976378 -0.139034 0.528343
  C 2.394478 0.186588 0.355283
  C 3.160893 0.728186 1.535415
  H 2.488980 1.124861 2.288835
  C 3.104569 -0.329001 -0.778342
  C 4.487035 -0.337083 -0.913693
  C 5.102118 -0.848386 -2.028521
  H 4.528412 -1.257144 -2.852656
  O 6.398280 -0.911367 -2.231685
  H 0.472241 0.108487 1.441439
  H 0.442222 -0.680158 -0.226233
  H 1.663745 0.949193 0.010509
  H 3.846870 1.511078 1.233756
  H 3.741987 -0.078699 1.993817
  H 2.524123 -0.743808 -1.574635
  H 5.112119 0.061823 -0.105873
  H 6.924365 -0.554522 -1.494598
