 23
 0.000000
  C 0.976791 0.151440 0.428300
  C 2.450816 0.135221 0.387890
  C 3.230458 0.602091 1.549264
  H 2.624595 0.936730 2.382147
  C 3.054018 -0.331715 -0.774190
  C 4.431043 -0.414377 -0.980665
  C 5.118464 -0.864528 -2.103628
  C 4.629915 -1.387770 -3.408394
  C 3.141826 -1.505331 -3.701667
  H 3.005167 -1.905762 -4.700337
  O 6.439094 -0.856493 -2.084154
  H 0.584663 0.529023 1.367558
  H 0.586505 -0.854618 0.268536
  H 0.586390 0.767000 -0.383310
  H 3.883333 1.422377 1.244485
  H 3.883548 -0.200784 1.896896
  H 2.391309 -0.647781 -1.560859
  H 5.051014 -0.082930 -0.154781
  H 5.092454 -2.373630 -3.530686
  H 5.092569 -0.759687 -4.178024
  H 2.658800 -0.532301 -3.662173
  H 2.658782 -2.181534 -3.000893
  H 6.822012 -0.523027 -1.251039
 23
 -0.164167
  C 0.981502 0.089302 0.476479
  C 2.453215 0.127475 0.381868
  C 3.235239 0.722828 1.482289
  H 2.592931 1.074167 2.282582
  C 3.044475 -0.397758 -0.760465
  C 4.421570 -0.472449 -0.963418
  C 5.117485 -0.946866 -2.072378
  C 4.633430 -1.355684 -3.419677
  C 3.146194 -1.429933 -3.726324
  H 3.026984 -1.727389 -4.764408
  O 6.432443 -1.025684 -2.012510
  H 0.612771 0.535589 1.394555
  H 0.628406 -0.941591 0.415073
  H 0.532901 0.602730 -0.375590
  H 3.829377 1.562483 1.118815
  H 3.937154 -0.002617 1.894189
  H 2.377514 -0.783433 -1.513996
  H 5.046806 -0.128159 -0.148099
  H 5.099079 -2.324976 -3.631423
  H 5.107407 -0.661146 -4.122247
  H 2.664610 -0.463680 -3.605733
  H 2.649570 -2.177138 -3.114525
  H 6.821933 -0.752863 -1.160802
 23
 1.100516
  C 1.008199 -0.098870 0.586906
  C 2.448899 0.133207 0.373240
  C 3.197058 0.975010 1.323588
  H 2.584222 1.269316 2.168688
  C 3.043575 -0.426366 -0.752744
  C 4.415209 -0.597938 -0.917489
  C 5.105513 -1.101409 -2.017200
  C 4.648072 -1.341260 -3.413636
  C 3.175636 -1.231109 -3.776781
  H 3.073924 -1.400311 -4.845701
  O 6.395148 -1.353830 -1.902566
  H 0.629925 0.425614 1.458090
  H 0.822261 -1.167970 0.709066
  H 0.432703 0.200124 -0.290730
  H 3.550109 1.874163 0.817677
  H 4.087028 0.467808 1.693483
  H 2.377121 -0.788497 -1.516637
  H 5.039315 -0.340673 -0.068871
  H 5.026239 -2.327822 -3.701870
  H 5.217662 -0.633303 -4.026741
  H 2.784443 -0.240566 -3.562440
  H 2.582829 -1.987764 -3.270179
  H 6.768963 -1.186137 -1.017450
 23
 4.945290
  C 1.076495 -0.282916 0.723583
  C 2.437756 0.153087 0.362362
  C 3.125168 1.172432 1.172155
  H 2.573410 1.418171 2.074121
  C 3.035326 -0.388674 -0.777772
  C 4.384834 -0.692380 -0.886584
  C 5.075925 -1.213207 -1.977371
  C 4.671411 -1.338875 -3.405030
  C 3.236678 -1.062702 -3.825344
  H 3.167905 -1.175707 -4.905034
  O 6.325826 -1.608798 -1.815661
  H 0.691658 0.248058 1.588684
  H 1.085289 -1.351825 0.937161
  H 0.387067 -0.157435 -0.111845
  H 3.246187 2.077444 0.575561
  H 4.135903 0.861055 1.438211
  H 2.374458 -0.629454 -1.594025
  H 4.981405 -0.552691 0.008446
  H 4.961201 -2.344392 -3.725061
  H 5.338387 -0.664027 -3.955374
  H 2.938644 -0.047344 -3.582549
  H 2.547985 -1.774517 -3.379364
  H 6.662977 -1.529700 -0.904452
 23
 11.069922
  C 1.172595 -0.402410 0.835994
  C 2.427179 0.193077 0.347913
  C 3.027403 1.348285 1.030934
  H 2.537755 1.572761 1.973550
  C 3.032514 -0.340644 -0.806485
  C 4.340643 -0.785957 -0.859106
  C 5.037565 -1.326484 -1.933605
  C 4.691884 -1.375405 -3.382690
  C 3.316061 -0.940860 -3.861776
  H 3.281003 -1.048034 -4.942686
  O 6.244171 -1.831630 -1.729370
  H 0.779601 0.122403 1.699023
  H 1.353770 -1.445448 1.099694
  H 0.412593 -0.430542 0.052732
  H 2.944959 2.217524 0.375334
  H 4.097565 1.208836 1.191230
  H 2.396707 -0.438782 -1.672774
  H 4.893939 -0.744467 0.073758
  H 4.886136 -2.401365 -3.714094
  H 5.453055 -0.766831 -3.884103
  H 3.125108 0.103897 -3.630999
  H 2.534172 -1.570233 -3.447900
  H 6.537988 -1.810385 -0.800814
 23
 18.646627
  C 1.269471 -0.472483 0.903943
  C 2.413980 0.242376 0.328690
  C 2.900255 1.503305 0.902652
  H 2.435355 1.732978 1.854703
  C 3.046224 -0.294368 -0.830116
  C 4.291889 -0.871959 -0.822527
  C 5.012711 -1.411183 -1.887670
  C 4.732048 -1.401964 -3.352824
  C 3.399527 -0.889533 -3.878490
  H 3.405298 -0.974388 -4.962773
  O 6.169417 -2.009014 -1.641864
  H 0.850337 0.044076 1.759466
  H 1.589853 -1.471563 1.202171
  H 0.488124 -0.636626 0.158104
  H 2.683234 2.311157 0.198791
  H 3.986584 1.500178 1.008218
  H 2.463139 -0.263014 -1.737720
  H 4.795296 -0.918267 0.136054
  H 4.890421 -2.428160 -3.704139
  H 5.542188 -0.820481 -3.805323
  H 3.252962 0.159126 -3.633897
  H 2.568852 -1.485942 -3.510198
  H 6.407696 -2.047649 -0.698587
 23
 27.308273
  C 1.417875 -0.559724 1.019807
  C 2.389810 0.275774 0.314298
  C 2.686317 1.647719 0.728485
  H 2.238521 1.892810 1.686758
  C 3.054869 -0.260157 -0.857228
  C 4.227036 -0.957048 -0.801079
  C 4.979325 -1.510343 -1.846320
  C 4.793402 -1.428192 -3.321959
  C 3.535071 -0.797669 -3.898985
  H 3.583801 -0.865329 -4.983104
  O 6.075211 -2.199391 -1.550320
  H 0.959090 -0.040990 1.855090
  H 1.900163 -1.473860 1.377199
  H 0.643712 -0.906140 0.330930
  H 2.308493 2.349226 -0.021490
  H 3.764694 1.818319 0.755355
  H 2.548889 -0.091036 -1.795779
  H 4.650979 -1.102547 0.187185
  H 4.893885 -2.451230 -3.699309
  H 5.670375 -0.896417 -3.709991
  H 3.464520 0.255304 -3.643056
  H 2.643810 -1.327447 -3.578319
  H 6.245181 -2.287105 -0.595546
 23
 17.139673
  C 1.638961 -0.620428 1.137443
  C 2.393079 0.296810 0.271796
  C 2.415927 1.743277 0.533363
  H 1.949308 1.988753 1.482908
  C 3.081702 -0.204923 -0.863622
  C 4.158814 -1.058381 -0.782674
  C 4.926306 -1.608740 -1.804766
  C 4.846029 -1.426764 -3.281334
  C 3.670485 -0.686235 -3.903435
  H 3.792047 -0.698658 -4.984699
  O 5.941666 -2.400687 -1.489854
  H 1.135479 -0.099005 1.942009
  H 2.291008 -1.393706 1.561786
  H 0.909406 -1.164319 0.538216
  H 1.896824 2.291275 -0.257999
  H 3.441426 2.108096 0.507396
  H 2.686555 0.087726 -1.826715
  H 4.485509 -1.316231 0.222145
  H 4.913841 -2.431115 -3.713791
  H 5.776876 -0.930999 -3.571442
  H 3.643410 0.351706 -3.592639
  H 2.727346 -1.175864 -3.674286
  H 6.034668 -2.576930 -0.537161
 23
 8.548558
  C 1.878917 -0.615132 1.318825
  C 2.363769 0.265760 0.243129
  C 2.095879 1.714178 0.288812
  H 1.711184 2.022822 1.255250
  C 3.047719 -0.255590 -0.865637
  C 4.082967 -1.171289 -0.778491
  C 4.849950 -1.724090 -1.798118
  C 4.885898 -1.427401 -3.256927
  C 3.897963 -0.447822 -3.872737
  H 4.103281 -0.379706 -4.936176
  O 5.768283 -2.624806 -1.491000
  H 1.330251 -0.067354 2.077087
  H 2.699436 -1.150368 1.794010
  H 1.238480 -1.389169 0.892761
  H 1.374789 2.000516 -0.477214
  H 3.003389 2.269573 0.057093
  H 2.737440 0.109139 -1.831247
  H 4.353279 -1.487582 0.222694
  H 4.806280 -2.394021 -3.765141
  H 5.906232 -1.082084 -3.464064
  H 4.011625 0.545900 -3.456769
  H 2.873626 -0.791803 -3.759917
  H 5.818940 -2.842780 -0.542346
 23
 3.059063
  C 2.075810 -0.561736 1.412017
  C 2.368614 0.272871 0.231679
  C 1.867193 1.658552 0.170882
  H 1.412893 1.970413 1.105901
  C 3.070837 -0.223394 -0.864358
  C 4.029038 -1.227192 -0.790060
  C 4.786844 -1.789986 -1.811894
  C 4.927002 -1.401939 -3.244011
  C 4.032520 -0.334372 -3.852818
  H 4.307583 -0.215004 -4.898070
  O 5.591119 -2.798278 -1.529698
  H 1.474177 -0.030380 2.142082
  H 2.994388 -0.895107 1.896589
  H 1.552833 -1.467985 1.104577
  H 1.128591 1.761938 -0.627249
  H 2.676349 2.341614 -0.087259
  H 2.850513 0.228250 -1.817971
  H 4.231724 -1.623459 0.198297
  H 4.830885 -2.329402 -3.818507
  H 5.973979 -1.102518 -3.366106
  H 4.173065 0.628666 -3.368512
  H 2.986616 -0.624538 -3.821187
  H 5.576100 -3.084070 -0.597333
 23
 0.269411
  C 2.365556 -0.403163 1.529875
  C 2.364658 0.274518 0.218108
  C 1.594683 1.520085 0.045579
  H 1.161793 1.870861 0.977999
  C 3.046065 -0.227932 -0.884215
  C 3.909735 -1.318484 -0.838236
  C 4.668775 -1.880378 -1.860569
  C 4.958500 -1.380405 -3.233210
  C 4.243638 -0.159032 -3.786795
  H 4.625006 0.035229 -4.787347
  O 5.330464 -2.995890 -1.626227
  H 1.744291 0.119814 2.249269
  H 3.377319 -0.468318 1.931641
  H 2.003939 -1.425466 1.429843
  H 0.794055 1.367365 -0.679319
  H 2.225366 2.302825 -0.375067
  H 2.867440 0.263468 -1.824024
  H 4.027913 -1.796614 0.129151
  H 4.805573 -2.227928 -3.907243
  H 6.040042 -1.199022 -3.251849
  H 4.437763 0.724673 -3.185496
  H 3.174193 -0.327832 -3.871686
  H 5.210457 -3.365173 -0.731232
 23
 0.407329
  C 2.649613 -0.180536 1.567675
  C 2.356641 0.279018 0.196024
  C 1.399280 1.381426 -0.011656
  H 0.984997 1.751064 0.919880
  C 2.968314 -0.275909 -0.922941
  C 3.808646 -1.388414 -0.886337
  C 4.535819 -1.958716 -1.928835
  C 4.967549 -1.370189 -3.225201
  C 4.412031 -0.030529 -3.679058
  H 4.932909 0.269025 -4.585364
  O 5.071925 -3.150754 -1.756565
  H 2.096970 0.390736 2.307104
  H 3.713632 -0.092152 1.782310
  H 2.393755 -1.235418 1.683132
  H 0.583661 1.052486 -0.657743
  H 1.878187 2.206179 -0.540998
  H 2.727506 0.166352 -1.874584
  H 3.917964 -1.888897 0.070385
  H 4.785999 -2.127959 -3.995184
  H 6.058945 -1.297424 -3.153399
  H 4.574993 0.740902 -2.933041
  H 3.354755 -0.098809 -3.918807
  H 4.857111 -3.580244 -0.907308
 23
 1.656217
  C 2.701255 -0.119205 1.552565
  C 2.332979 0.280425 0.180239
  C 1.375727 1.383518 -0.025283
  H 0.994870 1.778388 0.908935
  C 2.879422 -0.332886 -0.941437
  C 3.768211 -1.404797 -0.899540
  C 4.473849 -1.978082 -1.955568
  C 4.977637 -1.342044 -3.202218
  C 4.379267 -0.022574 -3.660537
  H 4.962784 0.351120 -4.497223
  O 4.971905 -3.190044 -1.811206
  H 2.215371 0.508765 2.292314
  H 3.778077 -0.058597 1.696764
  H 2.415866 -1.156748 1.739472
  H 0.538832 1.047317 -0.642445
  H 1.846859 2.191887 -0.585741
  H 2.545864 0.023448 -1.903077
  H 3.986855 -1.846444 0.070371
  H 4.902498 -2.085332 -4.000961
  H 6.052722 -1.206393 -3.032625
  H 4.411917 0.723462 -2.872860
  H 3.356245 -0.149362 -4.004177
  H 4.687566 -3.660524 -1.005103
 23
 5.741054
  C 2.816762 -0.018479 1.513360
  C 2.302842 0.262281 0.156353
  C 1.294207 1.320910 -0.037097
  H 1.006038 1.790324 0.897054
  C 2.771672 -0.409023 -0.964180
  C 3.725932 -1.408571 -0.941243
  C 4.449561 -1.996376 -1.985449
  C 4.970037 -1.378674 -3.232876
  C 4.576232 0.061519 -3.518796
  H 5.103077 0.405545 -4.405048
  O 4.899880 -3.223756 -1.834777
  H 2.332733 0.602772 2.261021
  H 3.889834 0.158540 1.558300
  H 2.660168 -1.067521 1.773893
  H 0.403180 0.912251 -0.518631
  H 1.672900 2.085495 -0.714834
  H 2.330753 -0.154082 -1.915465
  H 4.213097 -1.708540 -0.013950
  H 4.660229 -2.017890 -4.068072
  H 6.057807 -1.471757 -3.181824
  H 4.840834 0.713812 -2.690171
  H 3.512528 0.150490 -3.714806
  H 4.626891 -3.678563 -1.014172
 23
 11.652016
  C 2.853993 0.067899 1.425429
  C 2.364872 0.436617 0.080169
  C 1.547585 1.655028 -0.094850
  H 1.386707 2.179978 0.842009
  C 2.669380 -0.312836 -1.038933
  C 3.433631 -1.460361 -1.033871
  C 4.166154 -2.122836 -2.028557
  C 4.950175 -1.533063 -3.149376
  C 4.830948 -0.025821 -3.337332
  H 5.485852 0.287722 -4.147053
  O 4.353143 -3.417757 -1.926172
  H 2.531322 0.782254 2.176653
  H 3.942086 0.018856 1.440032
  H 2.488578 -0.921897 1.701465
  H 0.577908 1.402540 -0.528646
  H 2.024127 2.337016 -0.801205
  H 2.241848 -0.011201 -1.983439
  H 3.890542 -1.873319 -0.135901
  H 4.647841 -2.051198 -4.067584
  H 5.992830 -1.814200 -2.986027
  H 5.123482 0.507188 -2.437002
  H 3.819621 0.258614 -3.603311
  H 3.915201 -3.860707 -1.173937
