 22
 0.000000
  C 0.976219 0.208139 0.569885
  C 2.414288 0.119574 0.348091
  H 3.079040 0.438919 1.141534
  C 2.964018 -0.351298 -0.823871
  C 4.356654 -0.422702 -1.002889
  C 5.046310 -0.866209 -2.107800
  C 4.612751 -1.385842 -3.402386
  C 3.144890 -1.531991 -3.767823
  C 2.997616 -2.097487 -5.178379
  H 6.127652 -0.832485 -2.024487
  H 0.729420 0.602068 1.549603
  H 0.513222 -0.773806 0.441700
  H 0.512528 0.827540 -0.202386
  H 2.306379 -0.669515 -1.615282
  H 4.958211 -0.086722 -0.166745
  H 5.110859 -2.359693 -3.523988
  H 5.111155 -0.766500 -4.163390
  H 2.650441 -0.559648 -3.733554
  H 2.649747 -2.210893 -3.071289
  H 3.459801 -1.442694 -5.913620
  H 1.946913 -2.200482 -5.436762
  H 3.458901 -3.079239 -5.257530
 22
 0.114763
  C 0.976902 0.216326 0.545445
  C 2.410843 0.009340 0.361809
  H 3.053666 0.047952 1.232194
  C 2.973808 -0.256014 -0.863503
  C 4.359681 -0.429044 -1.013013
  C 5.058480 -0.792339 -2.140337
  C 4.621735 -1.305288 -3.435526
  C 3.149708 -1.505734 -3.760651
  C 2.985004 -2.203945 -5.109861
  H 6.136273 -0.726579 -2.059474
  H 0.715266 0.431237 1.573303
  H 0.421168 -0.663436 0.204915
  H 0.624499 1.021433 -0.105739
  H 2.331492 -0.289005 -1.728121
  H 4.954752 -0.232721 -0.126306
  H 5.151748 -2.262229 -3.577224
  H 5.088507 -0.670559 -4.206537
  H 2.642491 -0.539801 -3.810358
  H 2.673830 -2.116698 -2.988140
  H 3.436176 -1.618937 -5.912387
  H 1.930815 -2.333610 -5.342537
  H 3.450072 -3.190809 -5.101790
 22
 1.408631
  C 0.972139 0.196844 0.459346
  C 2.379084 -0.164557 0.314023
  H 2.922075 -0.484662 1.194041
  C 3.023593 -0.174864 -0.896739
  C 4.410201 -0.379120 -1.034677
  C 5.101188 -0.700538 -2.175781
  C 4.633016 -1.260836 -3.442488
  C 3.151251 -1.484941 -3.696686
  C 2.934556 -2.276606 -4.983103
  H 6.178805 -0.595435 -2.128361
  H 0.644682 0.180068 1.493096
  H 0.343985 -0.481004 -0.125330
  H 0.788293 1.181490 0.023530
  H 2.475693 0.102896 -1.784959
  H 5.003152 -0.225395 -0.139490
  H 5.163619 -2.218999 -3.560106
  H 5.064061 -0.655635 -4.252733
  H 2.638004 -0.527426 -3.793527
  H 2.706554 -2.032811 -2.863237
  H 3.351835 -1.752073 -5.839600
  H 1.872676 -2.421311 -5.164198
  H 3.400048 -3.257750 -4.923747
 22
 4.294064
  C 0.970502 0.147642 0.329003
  C 2.357281 -0.295876 0.189932
  H 2.789570 -0.882415 0.990459
  C 3.092488 -0.092660 -0.943460
  C 4.491594 -0.281058 -1.064994
  C 5.166736 -0.653500 -2.191730
  C 4.646149 -1.274526 -3.412889
  C 3.149659 -1.453353 -3.601272
  C 2.848122 -2.295846 -4.836537
  H 6.245832 -0.561614 -2.183249
  H 0.581151 -0.031714 1.325472
  H 0.333468 -0.374929 -0.390223
  H 0.878637 1.203843 0.070340
  H 2.645196 0.427661 -1.782335
  H 5.083464 -0.082357 -0.178022
  H 5.140683 -2.254969 -3.491166
  H 5.066046 -0.728170 -4.269169
  H 2.664945 -0.483802 -3.717625
  H 2.720314 -1.941883 -2.722269
  H 3.245993 -1.828026 -5.734039
  H 1.774913 -2.408894 -4.965403
  H 3.281353 -3.289738 -4.750223
 22
 8.359680
  C 0.978472 0.155061 0.275910
  C 2.327117 -0.392491 0.068663
  H 2.661361 -1.179333 0.734781
  C 3.105872 -0.066738 -0.996797
  C 4.523529 -0.212135 -1.109584
  C 5.210727 -0.660853 -2.193664
  C 4.668460 -1.331627 -3.385094
  C 3.166021 -1.447608 -3.548843
  C 2.799656 -2.292529 -4.762675
  H 6.291051 -0.589970 -2.184808
  H 0.577817 -0.114502 1.249823
  H 0.294906 -0.231703 -0.487313
  H 0.975020 1.239229 0.150697
  H 2.722607 0.644099 -1.724666
  H 5.099134 0.073293 -0.234855
  H 5.127753 -2.329292 -3.428258
  H 5.093402 -0.831213 -4.266096
  H 2.718954 -0.461200 -3.660272
  H 2.735840 -1.906462 -2.653148
  H 3.165807 -1.834591 -5.679366
  H 1.719946 -2.390914 -4.845356
  H 3.223341 -3.291581 -4.689678
 22
 16.504392
  C 0.991742 0.283454 0.237647
  C 2.234650 -0.481259 -0.000417
  H 2.381470 -1.381503 0.590350
  C 3.122673 -0.188822 -0.964401
  C 4.545573 -0.223517 -1.126272
  C 5.220845 -0.648765 -2.225983
  C 4.673509 -1.354941 -3.391651
  C 3.170587 -1.538144 -3.491189
  C 2.785811 -2.311726 -4.748470
  H 6.291303 -0.506427 -2.250409
  H 0.492571 -0.051450 1.140402
  H 0.303211 0.145155 -0.596345
  H 1.195003 1.349922 0.305483
  H 2.905975 0.698998 -1.590327
  H 5.125067 0.093020 -0.263465
  H 5.173149 -2.331953 -3.437915
  H 5.040588 -0.849964 -4.294728
  H 2.670324 -0.568476 -3.508531
  H 2.811276 -2.086691 -2.615789
  H 3.146377 -1.806163 -5.642197
  H 1.704782 -2.398671 -4.825185
  H 3.203140 -3.318470 -4.735106
 22
 28.384304
  C 1.005003 0.374023 0.132072
  C 2.202862 -0.504605 0.028597
  H 2.187093 -1.403344 0.636276
  C 3.195685 -0.340889 -0.819429
  C 4.584681 -0.224398 -1.120394
  C 5.226904 -0.702723 -2.230349
  C 4.658502 -1.389803 -3.393918
  C 3.157987 -1.614652 -3.436323
  C 2.737695 -2.292427 -4.736695
  H 6.292308 -0.514520 -2.283615
  H 0.391340 0.085927 0.981228
  H 0.397624 0.287429 -0.768028
  H 1.296011 1.416018 0.240383
  H 3.138054 0.605712 -1.465187
  H 5.193582 0.215680 -0.335339
  H 5.179995 -2.352114 -3.490524
  H 4.975358 -0.847743 -4.295992
  H 2.631354 -0.664826 -3.355178
  H 2.856315 -2.239530 -2.595496
  H 3.026372 -1.694842 -5.601525
  H 1.656830 -2.424094 -4.765199
  H 3.197874 -3.274614 -4.832916
 22
 38.373118
  C 0.984711 0.305318 -0.021936
  C 2.187092 -0.584913 -0.019350
  H 2.087703 -1.512278 0.534093
  C 3.293504 -0.392649 -0.673929
  C 4.620799 -0.193472 -1.089319
  C 5.239564 -0.642986 -2.257985
  C 4.635298 -1.328308 -3.403785
  C 3.135120 -1.585181 -3.376772
  C 2.683428 -2.297663 -4.648219
  H 6.297629 -0.436405 -2.346078
  H 0.268491 -0.022208 0.723097
  H 0.501138 0.274815 -0.997747
  H 1.264357 1.336691 0.185271
  H 3.522877 0.671650 -1.303494
  H 5.275854 0.233775 -0.337642
  H 5.165353 -2.283075 -3.533477
  H 4.896989 -0.767618 -4.312988
  H 2.592306 -0.642002 -3.295809
  H 2.879961 -2.204377 -2.515415
  H 2.904347 -1.700314 -5.529722
  H 1.611160 -2.477507 -4.623868
  H 3.182560 -3.258986 -4.755351
 22
 41.692386
  C 0.993977 0.254935 -0.130662
  C 2.223863 -0.600231 -0.045467
  H 2.112482 -1.520948 0.522243
  C 3.372741 -0.390381 -0.578616
  C 4.657121 -0.119031 -1.088016
  C 5.248312 -0.655815 -2.269676
  C 4.591734 -1.358649 -3.378099
  C 3.077074 -1.527880 -3.331897
  C 2.580783 -2.274121 -4.566483
  H 6.309830 -0.496332 -2.382638
  H 0.226928 -0.113051 0.540778
  H 0.603371 0.234403 -1.146186
  H 1.223541 1.285911 0.125948
  H 3.923573 0.764518 -1.357686
  H 5.373104 0.244178 -0.351889
  H 5.058284 -2.350804 -3.464728
  H 4.875683 -0.857046 -4.313840
  H 2.590365 -0.551961 -3.297878
  H 2.792096 -2.091124 -2.443887
  H 2.838430 -1.737334 -5.476833
  H 1.500213 -2.385255 -4.536417
  H 3.019106 -3.267786 -4.622598
 22
 40.032053
  C 1.007492 0.200692 -0.186125
  C 2.249231 -0.633466 -0.027335
  H 2.124970 -1.522056 0.588980
  C 3.406356 -0.440246 -0.536303
  C 4.658208 -0.083135 -1.083159
  C 5.243140 -0.664295 -2.271140
  C 4.566606 -1.368341 -3.361908
  C 3.046108 -1.480788 -3.328776
  C 2.536829 -2.230227 -4.556160
  H 6.306457 -0.527839 -2.391883
  H 0.232023 -0.137873 0.490718
  H 0.642487 0.117211 -1.207827
  H 1.224222 1.246502 0.014012
  H 4.126196 0.852908 -1.426172
  H 5.392758 0.217167 -0.334618
  H 4.995747 -2.379800 -3.418886
  H 4.878144 -0.901998 -4.306917
  H 2.598051 -0.485979 -3.315040
  H 2.730062 -2.017026 -2.435039
  H 2.825700 -1.721751 -5.473419
  H 1.452475 -2.303626 -4.536305
  H 2.939021 -3.240670 -4.587721
 22
 38.718331
  C 0.997663 0.158976 -0.222200
  C 2.259242 -0.644355 -0.022843
  H 2.134512 -1.516407 0.615758
  C 3.418218 -0.427092 -0.513841
  C 4.648904 -0.049277 -1.077708
  C 5.228897 -0.650576 -2.270690
  C 4.552389 -1.373481 -3.343804
  C 3.029559 -1.474420 -3.311952
  C 2.516181 -2.213612 -4.542254
  H 6.286822 -0.485114 -2.407477
  H 0.223490 -0.178553 0.454788
  H 0.647896 0.034865 -1.245127
  H 1.190559 1.213565 -0.049112
  H 4.353807 0.955856 -1.496846
  H 5.401636 0.164095 -0.311044
  H 4.975195 -2.390819 -3.371850
  H 4.872313 -0.939336 -4.302477
  H 2.591068 -0.474778 -3.294712
  H 2.705957 -2.011311 -2.418676
  H 2.818839 -1.709484 -5.455108
  H 1.430581 -2.263742 -4.531238
  H 2.898555 -3.229637 -4.572608
 22
 37.184728
  C 0.972203 0.116848 -0.353756
  C 2.259461 -0.592441 -0.024841
  H 2.142957 -1.385353 0.712902
  C 3.412819 -0.402148 -0.538725
  C 4.675193 -0.056809 -1.061743
  C 5.228992 -0.621209 -2.284188
  C 4.542815 -1.347961 -3.346883
  C 3.030871 -1.525937 -3.246500
  C 2.480164 -2.158553 -4.519854
  H 6.282092 -0.442545 -2.440776
  H 0.329293 0.143305 0.517789
  H 0.461612 -0.433186 -1.142551
  H 1.161589 1.129927 -0.698689
  H 4.617517 1.037146 -1.237890
  H 5.425653 -0.090426 -0.255811
  H 5.019163 -2.336353 -3.445656
  H 4.789302 -0.855302 -4.299190
  H 2.551378 -0.557660 -3.098218
  H 2.786049 -2.167692 -2.400529
  H 2.681884 -1.531756 -5.386322
  H 1.403537 -2.291573 -4.445446
  H 2.927740 -3.134958 -4.694144
