 20
 0.000000
  C 0.995303 0.153402 0.432425
  C 2.458783 0.124114 0.359455
  H 3.039460 0.463473 1.204135
  C 3.059196 -0.337953 -0.790820
  C 4.438625 -0.415902 -0.985479
  C 5.129135 -0.868215 -2.113294
  C 4.631563 -1.389697 -3.413018
  C 3.144526 -1.507589 -3.707091
  H 3.017180 -1.909252 -4.708226
  O 6.443679 -0.861340 -2.096596
  H 0.627681 0.534175 1.380600
  H 0.591906 -0.848881 0.275839
  H 0.591771 0.769026 -0.373824
  H 2.401190 -0.655819 -1.581818
  H 5.052278 -0.082328 -0.154922
  H 5.096228 -2.374747 -3.536769
  H 5.096452 -0.763588 -4.183389
  H 2.658046 -0.536569 -3.675134
  H 2.657945 -2.187208 -3.012890
  H 6.838751 -0.529386 -1.267795
 20
 0.021166
  C 0.991862 0.194668 0.485502
  C 2.438853 0.132991 0.279137
  H 3.071275 0.714214 0.935808
  C 3.014701 -0.547581 -0.767745
  C 4.397924 -0.531729 -0.974476
  C 5.132527 -0.915952 -2.097183
  C 4.659144 -1.370976 -3.430945
  C 3.172933 -1.440807 -3.742990
  H 3.055303 -1.706568 -4.792392
  O 6.442133 -0.825987 -2.064516
  H 0.726627 0.717482 1.400214
  H 0.558596 -0.809196 0.486779
  H 0.517033 0.702764 -0.360489
  H 2.369056 -1.089559 -1.435326
  H 4.981220 -0.111445 -0.160850
  H 5.110612 -2.355645 -3.596489
  H 5.154290 -0.719629 -4.159726
  H 2.689949 -0.481442 -3.588814
  H 2.673837 -2.210351 -3.156497
  H 6.821498 -0.567940 -1.203587
 20
 2.073580
  C 0.989960 0.177051 0.380942
  C 2.440060 0.125129 0.190783
  H 3.030675 0.906946 0.651119
  C 3.060789 -0.740280 -0.671173
  C 4.444185 -0.658218 -0.903998
  C 5.154537 -0.938473 -2.067406
  C 4.638205 -1.329191 -3.406662
  C 3.143219 -1.324046 -3.677813
  H 2.984066 -1.529691 -4.733678
  O 6.456878 -0.768257 -2.090461
  H 0.715403 0.788015 1.235143
  H 0.564413 -0.822297 0.467230
  H 0.524295 0.621010 -0.503306
  H 2.463744 -1.474266 -1.186505
  H 5.024287 -0.219651 -0.096732
  H 5.035923 -2.330804 -3.612661
  H 5.147908 -0.676946 -4.123052
  H 2.704631 -0.355217 -3.453552
  H 2.627017 -2.097168 -3.118456
  H 6.869262 -0.577473 -1.227509
 20
 6.347633
  C 0.996688 0.151147 0.230673
  C 2.450466 0.098917 0.052437
  H 3.006916 0.993315 0.308121
  C 3.115668 -0.907384 -0.578818
  C 4.507867 -0.804627 -0.829007
  C 5.181178 -0.954321 -2.031190
  C 4.609568 -1.259715 -3.370149
  C 3.104810 -1.201547 -3.572256
  H 2.887853 -1.397872 -4.618940
  O 6.476299 -0.741136 -2.095728
  H 0.712796 0.904235 0.959528
  H 0.592070 -0.822725 0.501794
  H 0.521569 0.426874 -0.715149
  H 2.568448 -1.777523 -0.913009
  H 5.096515 -0.427577 0.001889
  H 4.967882 -2.263038 -3.635441
  H 5.108965 -0.586876 -4.075192
  H 2.716101 -0.217428 -3.326955
  H 2.584523 -1.950367 -2.986521
  H 6.921880 -0.603708 -1.238023
 20
 11.612095
  C 0.997252 0.136125 0.079724
  C 2.453335 0.078301 -0.109508
  H 2.987920 1.017244 -0.032539
  C 3.150022 -1.007666 -0.515477
  C 4.556449 -0.912201 -0.775390
  C 5.193299 -0.941614 -1.999408
  C 4.574621 -1.174437 -3.331724
  C 3.064192 -1.086220 -3.466772
  H 2.793858 -1.277645 -4.501934
  O 6.486253 -0.718648 -2.087561
  H 0.718738 0.992895 0.686555
  H 0.614104 -0.785331 0.514774
  H 0.500586 0.255835 -0.886438
  H 2.646697 -1.956331 -0.657510
  H 5.167233 -0.664430 0.088495
  H 4.904640 -2.172407 -3.647889
  H 5.057954 -0.483151 -4.028819
  H 2.709359 -0.092527 -3.205445
  H 2.556291 -1.819793 -2.852989
  H 6.952655 -0.617747 -1.236678
 20
 16.560641
  C 0.964489 0.091016 -0.080927
  C 2.431316 0.078684 -0.264029
  H 2.913321 1.048736 -0.298498
  C 3.185768 -1.007611 -0.471457
  C 4.609644 -0.979325 -0.724936
  C 5.227342 -0.930674 -1.961121
  C 4.568690 -1.110692 -3.281059
  C 3.060969 -0.968533 -3.371942
  H 2.752239 -1.149556 -4.398432
  O 6.526469 -0.759957 -2.067277
  H 0.644431 0.996906 0.423901
  H 0.616957 -0.779607 0.471442
  H 0.475748 0.066936 -1.056592
  H 2.733771 -1.995471 -0.411630
  H 5.241665 -0.948305 0.158159
  H 4.861073 -2.108301 -3.634413
  H 5.057022 -0.419717 -3.977404
  H 2.744100 0.032543 -3.093166
  H 2.547399 -1.689249 -2.742037
  H 7.009618 -0.683831 -1.223406
 20
 12.723184
  C 0.980135 0.099719 -0.158144
  C 2.431859 0.040408 -0.386457
  H 2.928630 0.989851 -0.546956
  C 3.191968 -1.072088 -0.425757
  C 4.602157 -1.055457 -0.699479
  C 5.215545 -0.895172 -1.923998
  C 4.553732 -1.042830 -3.249783
  C 3.044258 -0.926213 -3.325312
  H 2.731093 -1.101412 -4.351387
  O 6.515129 -0.711469 -2.034294
  H 0.682723 1.060735 0.247782
  H 0.632335 -0.702277 0.490382
  H 0.467633 -0.027245 -1.116151
  H 2.766428 -2.032210 -0.146008
  H 5.240197 -1.180655 0.169929
  H 4.865733 -2.020419 -3.637105
  H 5.022924 -0.316525 -3.921104
  H 2.708541 0.062822 -3.032452
  H 2.553921 -1.669407 -2.699338
  H 6.998496 -0.637374 -1.190757
 20
 8.964365
  C 1.003345 0.114202 -0.207922
  C 2.438846 -0.007480 -0.482076
  H 2.945100 0.904211 -0.775977
  C 3.200014 -1.124806 -0.360370
  C 4.591029 -1.138852 -0.669011
  C 5.192870 -0.866930 -1.884530
  C 4.543171 -0.972038 -3.221882
  C 3.030656 -0.916178 -3.323505
  H 2.747026 -1.081949 -4.359944
  O 6.487160 -0.656515 -1.985792
  H 0.742593 1.119842 0.108065
  H 0.658658 -0.614151 0.523190
  H 0.453997 -0.086820 -1.132223
  H 2.786551 -2.018145 0.094370
  H 5.243857 -1.399438 0.158710
  H 4.896924 -1.922108 -3.640675
  H 4.993477 -0.201891 -3.856206
  H 2.645552 0.051357 -3.020749
  H 2.562081 -1.693420 -2.724346
  H 6.968516 -0.603139 -1.139287
 20
 6.969699
  C 1.033279 0.143825 -0.265128
  C 2.449092 -0.065873 -0.573246
  H 2.975121 0.796599 -0.964972
  C 3.197008 -1.176810 -0.320235
  C 4.570987 -1.227721 -0.651129
  C 5.167090 -0.833882 -1.843626
  C 4.546075 -0.905172 -3.197805
  C 3.036383 -0.942661 -3.351405
  H 2.802796 -1.107094 -4.400570
  O 6.450559 -0.566122 -1.918235
  H 0.835228 1.178579 0.000030
  H 0.673520 -0.527676 0.511448
  H 0.444641 -0.068418 -1.162775
  H 2.779904 -1.998644 0.247378
  H 5.229691 -1.598208 0.127639
  H 4.964387 -1.818562 -3.639503
  H 4.968893 -0.088162 -3.790439
  H 2.577305 -0.007231 -3.052622
  H 2.597174 -1.758288 -2.782771
  H 6.921620 -0.538473 -1.064267
 20
 7.050534
  C 1.079770 0.200908 -0.274672
  C 2.466256 -0.100060 -0.633535
  H 3.025480 0.731642 -1.045685
  C 3.185508 -1.217711 -0.323230
  C 4.554276 -1.288624 -0.655524
  C 5.138526 -0.798616 -1.822608
  C 4.535324 -0.876357 -3.185858
  C 3.033587 -1.006363 -3.369092
  H 2.833227 -1.188102 -4.422311
  O 6.400739 -0.445346 -1.880905
  H 0.970804 1.239789 0.025695
  H 0.694750 -0.465782 0.493502
  H 0.447860 0.070248 -1.158341
  H 2.745609 -2.011991 0.263529
  H 5.216616 -1.694445 0.101084
  H 5.011639 -1.760126 -3.630391
  H 4.920363 -0.030403 -3.762926
  H 2.511009 -0.099628 -3.085906
  H 2.631705 -1.844699 -2.806228
  H 6.870145 -0.423698 -1.025343
