 25
 0.000000
  H 1.453346 0.169038 0.472987
  C 2.533647 0.151937 0.429363
  C 3.284298 0.621151 1.595943
  C 2.414882 1.086367 2.754999
  H 3.032676 1.419457 3.583098
  C 3.090916 -0.318531 -0.742205
  C 4.472672 -0.417703 -0.990153
  C 5.098752 -0.873724 -2.126355
  C 4.598867 -1.386396 -3.404092
  C 3.111602 -1.504373 -3.699927
  C 2.887864 -2.066905 -5.101832
  H 6.182089 -0.862876 -2.099161
  H 3.950767 1.437170 1.289485
  H 3.951717 -0.179267 1.939118
  H 1.775156 0.280254 3.107689
  H 1.774188 1.911758 2.452168
  H 2.406102 -0.628690 -1.513785
  H 5.126861 -0.096370 -0.190065
  H 5.066444 -2.372307 -3.540840
  H 5.067449 -0.769184 -4.184427
  H 2.636823 -0.523255 -3.643998
  H 2.635967 -2.174206 -2.981415
  H 3.327018 -1.420441 -5.858082
  H 1.824039 -2.149634 -5.309317
  H 3.326330 -3.057187 -5.201209
 25
 1.563674
  H 1.475693 0.187360 0.507330
  C 2.546593 0.090024 0.443494
  C 3.304136 0.621648 1.575879
  C 2.421883 1.165254 2.681144
  H 3.036506 1.547985 3.491417
  C 3.056294 -0.499895 -0.702411
  C 4.431765 -0.576633 -0.958419
  C 5.092667 -0.921151 -2.111742
  C 4.615656 -1.358452 -3.401621
  C 3.119293 -1.511528 -3.670839
  C 2.879609 -1.987732 -5.098607
  H 6.173388 -0.861099 -2.067730
  H 3.972356 1.402886 1.224040
  H 3.959196 -0.151592 1.975375
  H 1.773140 0.385510 3.081971
  H 1.789681 1.974364 2.318182
  H 2.347261 -0.825810 -1.428512
  H 5.088521 -0.292481 -0.144735
  H 5.124570 -2.308720 -3.617800
  H 5.059977 -0.687864 -4.154976
  H 2.619082 -0.551159 -3.533517
  H 2.700497 -2.242287 -2.987874
  H 3.275193 -1.277474 -5.820433
  H 1.815738 -2.095249 -5.288181
  H 3.350531 -2.948983 -5.271487
 25
 16.518404
  H 1.545708 0.295841 0.646993
  C 2.604022 0.074314 0.460775
  C 3.364489 0.620600 1.594700
  C 2.485944 1.208865 2.681793
  H 3.100765 1.613813 3.480843
  C 2.880389 -0.600766 -0.725581
  C 4.254867 -0.619233 -0.936336
  C 5.017406 -0.931356 -2.065918
  C 4.608615 -1.358598 -3.407752
  C 3.141131 -1.516964 -3.717278
  C 2.945232 -1.975961 -5.159560
  H 6.090687 -0.836585 -1.922062
  H 4.044396 1.370590 1.168004
  H 4.005809 -0.157538 2.030143
  H 1.829543 0.446105 3.095734
  H 1.859937 2.008098 2.291653
  H 2.083814 -0.902531 -1.363307
  H 4.971507 -0.397546 -0.163498
  H 5.135121 -2.306388 -3.605028
  H 5.077765 -0.661493 -4.116805
  H 2.638904 -0.558197 -3.590130
  H 2.711565 -2.265190 -3.054178
  H 3.358411 -1.249961 -5.855535
  H 1.889200 -2.087021 -5.383459
  H 3.430366 -2.931357 -5.333441
 25
 22.832353
  H 1.639327 0.374056 0.525676
  C 2.675515 0.015811 0.429799
  C 3.390853 0.588285 1.586237
  C 2.443107 1.277982 2.573000
  H 3.031447 1.704030 3.399233
  C 2.926529 -0.765560 -0.691342
  C 4.306612 -0.753246 -0.883712
  C 5.058659 -0.986731 -2.040445
  C 4.613675 -1.321833 -3.383538
  C 3.131848 -1.507470 -3.658972
  C 2.909012 -1.873217 -5.132317
  H 6.122942 -0.890337 -1.927709
  H 4.111416 1.344823 1.238517
  H 3.937657 -0.184472 2.128554
  H 1.707759 0.579177 2.978603
  H 1.918550 2.109871 2.096299
  H 2.115786 -1.081766 -1.295734
  H 5.039187 -0.650048 -0.090938
  H 5.128427 -2.243948 -3.674800
  H 5.044209 -0.593506 -4.083159
  H 2.582196 -0.575889 -3.474020
  H 2.735082 -2.314289 -3.043663
  H 3.297224 -1.112775 -5.792838
  H 1.858587 -2.035267 -5.334083
  H 3.431570 -2.811952 -5.374087
 25
 31.961116
  H 1.727751 0.333749 0.367300
  C 2.741622 -0.115078 0.423480
  C 3.427321 0.648238 1.498989
  C 2.432643 1.420478 2.384019
  H 2.981483 1.911799 3.170743
  C 2.943950 -1.087909 -0.507978
  C 4.339970 -0.927758 -0.731860
  C 5.047381 -1.127080 -1.934094
  C 4.604403 -1.376548 -3.294071
  C 3.122013 -1.489069 -3.631445
  C 2.892793 -1.656989 -5.122333
  H 6.125589 -1.050917 -1.846944
  H 4.150730 1.329846 1.070802
  H 3.895663 -0.087682 2.154281
  H 1.720669 0.735265 2.830864
  H 1.919622 2.175432 1.801377
  H 2.182252 -1.511309 -1.115850
  H 5.079660 -0.896300 0.047775
  H 5.137843 -2.260289 -3.646331
  H 5.033289 -0.555750 -3.897968
  H 2.554590 -0.610555 -3.309689
  H 2.689838 -2.358396 -3.115681
  H 3.275521 -0.806142 -5.681859
  H 1.835633 -1.756797 -5.330596
  H 3.396083 -2.551094 -5.491094
 25
 32.301623
  H 1.790889 0.224151 0.079660
  C 2.731404 -0.275739 0.378779
  C 3.423987 0.544364 1.376298
  C 2.462791 1.541381 2.058395
  H 3.011742 2.109271 2.797761
  C 2.988544 -1.409463 -0.351519
  C 4.360072 -1.144424 -0.612732
  C 5.047051 -1.184211 -1.798537
  C 4.592074 -1.299008 -3.190989
  C 3.109579 -1.435393 -3.499483
  C 2.871401 -1.436707 -5.003936
  H 6.126449 -1.069451 -1.715716
  H 4.229584 1.107586 0.894316
  H 3.867148 -0.104177 2.138264
  H 1.663013 1.013007 2.556440
  H 2.052628 2.227046 1.341061
  H 2.224976 -1.873331 -0.935923
  H 4.979252 -1.251332 0.267586
  H 5.132240 -2.139379 -3.643673
  H 4.976872 -0.409824 -3.720549
  H 2.554017 -0.608966 -3.065633
  H 2.736325 -2.376093 -3.100910
  H 3.217880 -0.510965 -5.459724
  H 1.809864 -1.540914 -5.218745
  H 3.391972 -2.266314 -5.480904
 25
 37.113368
  H 1.960647 0.096074 -0.266683
  C 2.813885 -0.382927 0.212055
  C 3.439032 0.494699 1.233902
  C 2.455459 1.563994 1.716863
  H 2.930616 2.174757 2.484110
  C 3.064641 -1.652186 -0.197326
  C 4.399463 -1.283044 -0.528863
  C 5.085112 -1.218256 -1.705365
  C 4.587294 -1.211006 -3.099029
  C 3.086091 -1.348815 -3.349052
  C 2.771475 -1.231236 -4.843033
  H 6.162061 -1.106579 -1.633384
  H 4.317349 1.012986 0.831499
  H 3.772261 -0.116398 2.074942
  H 1.570362 1.110866 2.148702
  H 2.153247 2.221431 0.901161
  H 2.374691 -2.243688 -0.773173
  H 4.988284 -1.267564 0.387862
  H 5.118124 -1.998360 -3.642696
  H 4.942524 -0.282510 -3.568236
  H 2.549576 -0.571941 -2.821535
  H 2.746215 -2.320652 -3.007331
  H 3.081269 -0.270951 -5.231908
  H 1.704788 -1.335071 -5.015260
  H 3.279081 -2.007296 -5.409502
 25
 40.861350
  H 2.342267 0.203841 -0.518231
  C 3.040112 -0.364770 0.113611
  C 3.471193 0.451145 1.301493
  C 2.458179 1.558841 1.597833
  H 2.769578 2.108769 2.482742
  C 3.074607 -1.726210 -0.222849
  C 4.397549 -1.200865 -0.516839
  C 5.064112 -1.068882 -1.723651
  C 4.540167 -1.111146 -3.093302
  C 3.048153 -1.330458 -3.310981
  C 2.704261 -1.246745 -4.795249
  H 6.131596 -0.908258 -1.655150
  H 4.447861 0.906657 1.135342
  H 3.553053 -0.206865 2.171504
  H 1.470677 1.145627 1.788095
  H 2.389645 2.262975 0.771728
  H 2.360275 -2.330374 -0.742595
  H 5.048864 -1.252598 0.352597
  H 5.104465 -1.886437 -3.628353
  H 4.854592 -0.182247 -3.594129
  H 2.473317 -0.575419 -2.778503
  H 2.762570 -2.315591 -2.943796
  H 2.959986 -0.271058 -5.199506
  H 1.640439 -1.405880 -4.948740
  H 3.242701 -2.003104 -5.362803
