 11
 0.000000
  H 2.592568 0.035406 0.520750
  C 3.268940 -0.014438 1.368462
  C 2.536544 -0.088603 2.700929
  C 3.515224 -0.154090 3.867573
  H 3.907666 0.867674 1.348546
  H 3.910489 -0.885591 1.245331
  H 1.896133 -0.973275 2.721177
  H 1.897048 0.788911 2.819090
  H 4.150421 -1.033522 3.785811
  H 2.979127 -0.206525 4.812782
  H 4.151285 0.728403 3.884037
 11
 0.059933
  H 2.571099 0.048756 0.543259
  C 3.277351 0.007047 1.369068
  C 2.543875 -0.107678 2.698917
  C 3.512749 -0.159095 3.874427
  H 3.886399 0.911235 1.346238
  H 3.931016 -0.849449 1.220430
  H 1.930618 -1.011867 2.695539
  H 1.873702 0.743845 2.817152
  H 4.077997 -1.091829 3.864597
  H 2.977348 -0.092356 4.818171
  H 4.217187 0.666337 3.821417
 11
 0.435146
  H 2.568444 0.041892 0.541426
  C 3.274537 0.030168 1.368850
  C 2.544034 -0.124377 2.697439
  C 3.514035 -0.169919 3.874179
  H 3.839022 0.960589 1.351276
  H 3.970046 -0.793403 1.220575
  H 1.955205 -1.043759 2.676524
  H 1.848669 0.707613 2.827048
  H 3.992843 -1.144429 3.940696
  H 2.995295 0.020042 4.810866
  H 4.290667 0.582955 3.755471
 11
 0.980519
  H 2.558418 0.107314 0.547192
  C 3.270667 0.047437 1.368516
  C 2.546855 -0.150764 2.695755
  C 3.514801 -0.164043 3.877713
  H 3.852703 0.966013 1.384610
  H 3.947169 -0.782916 1.175199
  H 2.000064 -1.095128 2.664281
  H 1.812868 0.647295 2.829314
  H 3.935545 -1.155991 4.023601
  H 3.010765 0.129165 4.795396
  H 4.335781 0.529000 3.705962
 11
 1.641113
  H 2.539537 0.175093 0.560245
  C 3.261922 0.060756 1.365579
  C 2.552205 -0.174986 2.695072
  C 3.518840 -0.156531 3.881063
  H 3.868681 0.962711 1.411685
  H 3.913239 -0.777447 1.124944
  H 2.044208 -1.140618 2.655461
  H 1.784574 0.589333 2.832790
  H 3.881439 -1.156408 4.107041
  H 3.035047 0.235548 4.772257
  H 4.380168 0.470589 3.662584
 11
 2.071534
  H 2.531297 0.144877 0.558014
  C 3.253738 0.086444 1.369053
  C 2.552600 -0.187297 2.694795
  C 3.524989 -0.168620 3.879545
  H 3.798337 1.027575 1.410604
  H 3.960580 -0.708414 1.139585
  H 2.063431 -1.161574 2.637427
  H 1.769722 0.558465 2.844672
  H 3.794017 -1.177501 4.182639
  H 3.087301 0.333843 4.738481
  H 4.440472 0.354831 3.615043
 11
 2.482020
  H 2.526131 0.150703 0.557294
  C 3.253790 0.109124 1.370640
  C 2.557897 -0.207855 2.690306
  C 3.522605 -0.174095 3.880846
  H 3.760182 1.071235 1.426267
  H 3.993089 -0.651372 1.133991
  H 2.098287 -1.195466 2.614904
  H 1.750756 0.509016 2.847201
  H 3.708659 -1.172610 4.266536
  H 3.124916 0.429653 4.693030
  H 4.478996 0.250346 3.587365
 11
 2.624864
  H 2.518441 0.151938 0.559603
  C 3.243632 0.128835 1.371048
  C 2.561085 -0.226948 2.687956
  C 3.528841 -0.174741 3.879478
  H 3.715518 1.107569 1.436512
  H 4.009475 -0.604428 1.125352
  H 2.132877 -1.228082 2.604865
  H 1.732151 0.462849 2.851828
  H 3.620543 -1.146878 4.356753
  H 3.193094 0.534300 4.632410
  H 4.520613 0.130145 3.556270
 11
 2.567479
  H 2.501324 0.193424 0.571512
  C 3.235105 0.143332 1.373410
  C 2.564950 -0.247413 2.686882
  C 3.534392 -0.171758 3.874218
  H 3.706981 1.118290 1.466745
  H 3.997678 -0.583595 1.101760
  H 2.171189 -1.261337 2.591310
  H 1.717252 0.417367 2.860358
  H 3.550811 -1.105123 4.431767
  H 3.253689 0.621626 4.561867
  H 4.546522 0.025680 3.530036
 11
 2.443905
  H 2.523115 0.120267 0.553144
  C 3.244101 0.113349 1.368489
  C 2.553529 -0.192224 2.692492
  C 3.528425 -0.170614 3.877683
  H 3.730868 1.085870 1.404012
  H 3.998255 -0.638495 1.145469
  H 2.077586 -1.172313 2.623799
  H 1.759209 0.538949 2.852209
  H 3.686314 -1.169027 4.277519
  H 3.155425 0.455210 4.684135
  H 4.495548 0.220085 3.570975
 11
 1.837420
  H 2.534922 0.191348 0.566583
  C 3.258827 0.069182 1.369063
  C 2.554382 -0.173505 2.698445
  C 3.522215 -0.146289 3.884857
  H 3.874265 0.964867 1.416865
  H 3.900421 -0.769278 1.106501
  H 2.050850 -1.141452 2.663829
  H 1.784276 0.588637 2.834175
  H 3.858890 -1.148820 4.138656
  H 3.047635 0.279160 4.765535
  H 4.400596 0.450268 3.650235
 11
 0.625454
  H 2.552646 0.148998 0.553812
  C 3.267754 0.024355 1.363730
  C 2.546095 -0.129780 2.697719
  C 3.516832 -0.138790 3.875368
  H 3.921393 0.893852 1.383315
  H 3.875587 -0.852977 1.152411
  H 1.978453 -1.062729 2.691874
  H 1.833217 0.688902 2.817798
  H 4.005294 -1.106519 3.965914
  H 2.995443 0.067663 4.807158
  H 4.287180 0.617516 3.740766
 11
 0.004192
  H 2.563609 0.118236 0.548549
  C 3.270892 -0.019808 1.363468
  C 2.540898 -0.088853 2.700829
  C 3.516086 -0.128729 3.870787
  H 3.964865 0.817844 1.360133
  H 3.838364 -0.932441 1.193318
  H 1.913841 -0.983118 2.722231
  H 1.887022 0.781189 2.799629
  H 4.150298 -1.009680 3.807262
  H 2.979614 -0.157285 4.817001
  H 4.154405 0.753138 3.866659
