 19
 0.000000
  H 1.508512 0.148254 0.420718
  C 2.591010 0.134385 0.385607
  C 3.285560 0.614496 1.578868
  C 2.359809 1.063361 2.697215
  H 2.935711 1.407959 3.554437
  C 3.180644 -0.330902 -0.772165
  C 4.570390 -0.413002 -0.976307
  C 5.178591 -0.872538 -2.122481
  C 4.532475 -1.358150 -3.335150
  H 3.445963 -1.343348 -3.299735
  H 6.262130 -0.877022 -2.133405
  H 3.959063 1.435700 1.302651
  H 3.960037 -0.168754 1.947556
  H 1.719770 0.246531 3.024575
  H 1.718848 1.879166 2.368720
  H 2.518679 -0.648295 -1.563091
  H 5.215327 -0.090428 -0.171148
  H 4.886676 -2.370354 -3.550691
  H 4.887567 -0.775238 -4.189787
 19
 0.172368
  H 1.515963 0.312327 0.344733
  C 2.595437 0.235169 0.341798
  C 3.279691 0.586186 1.584959
  C 2.350215 0.997023 2.714800
  H 2.920425 1.248438 3.605146
  C 3.196697 -0.200665 -0.818618
  C 4.585436 -0.318041 -1.006113
  C 5.177977 -0.824230 -2.139768
  C 4.515530 -1.462197 -3.269942
  H 3.437675 -1.535171 -3.180705
  H 6.256082 -0.748367 -2.227292
  H 4.000269 1.390511 1.387090
  H 3.908513 -0.254847 1.906728
  H 1.667126 0.192011 2.967277
  H 1.754829 1.867842 2.434122
  H 2.551938 -0.435456 -1.653527
  H 5.234415 0.032353 -0.218142
  H 4.935772 -2.459932 -3.409412
  H 4.786007 -0.937467 -4.187925
 19
 2.156134
  H 1.568887 0.591173 0.225759
  C 2.622573 0.350065 0.287837
  C 3.256099 0.473166 1.600204
  C 2.324057 0.935372 2.706944
  H 2.863511 1.023791 3.645644
  C 3.252548 -0.082438 -0.855366
  C 4.643639 -0.114694 -1.075022
  C 5.195238 -0.728328 -2.169318
  C 4.478596 -1.554308 -3.143386
  H 3.435113 -1.739415 -2.919359
  H 6.246142 -0.662463 -2.416708
  H 4.108201 1.162743 1.515084
  H 3.720792 -0.482809 1.872775
  H 1.511913 0.226896 2.852711
  H 1.888896 1.903397 2.470839
  H 2.629274 -0.391963 -1.691024
  H 5.291793 0.402761 -0.383797
  H 4.991631 -2.517340 -3.221893
  H 4.583946 -1.115086 -4.138519
 19
 6.324384
  H 1.632377 0.707097 0.168209
  C 2.663352 0.390718 0.272037
  C 3.237566 0.413346 1.618445
  C 2.284553 0.895313 2.698774
  H 2.780965 0.900962 3.665111
  C 3.322946 -0.043681 -0.850452
  C 4.706820 0.009889 -1.131571
  C 5.209466 -0.659829 -2.207851
  C 4.438006 -1.575952 -3.065491
  H 3.455408 -1.860642 -2.708492
  H 6.226234 -0.665438 -2.571038
  H 4.138008 1.044135 1.598194
  H 3.616644 -0.585385 1.865134
  H 1.417252 0.243990 2.772949
  H 1.936186 1.903755 2.489133
  H 2.727677 -0.487273 -1.661460
  H 5.352665 0.628121 -0.524889
  H 5.014421 -2.499666 -3.172131
  H 4.383914 -1.172109 -4.078306
 19
 13.422018
  H 1.814285 1.012951 0.100129
  C 2.774553 0.533964 0.259689
  C 3.207013 0.361922 1.650727
  C 2.202272 0.863348 2.675820
  H 2.580429 0.707455 3.682105
  C 3.465128 0.091342 -0.838226
  C 4.807562 0.127235 -1.231724
  C 5.214370 -0.661941 -2.270671
  C 4.370417 -1.636406 -2.990104
  H 3.493902 -2.022973 -2.480076
  H 6.212218 -0.658588 -2.674184
  H 4.170531 0.876493 1.775655
  H 3.424610 -0.696943 1.823903
  H 1.257435 0.333418 2.587783
  H 2.010452 1.925513 2.544287
  H 2.913842 -0.488479 -1.586840
  H 5.491396 0.812991 -0.754824
  H 4.980496 -2.534524 -3.143149
  H 4.148961 -1.277523 -3.994799
 19
 25.472064
  H 1.987929 1.161179 0.028251
  C 2.914346 0.634288 0.246571
  C 3.189298 0.342307 1.663463
  C 2.091911 0.809596 2.609046
  H 2.392346 0.637852 3.640084
  C 3.654907 0.193765 -0.817135
  C 4.971102 0.169770 -1.279730
  C 5.249406 -0.685601 -2.308740
  C 4.242058 -1.617461 -2.888704
  H 3.494990 -2.064913 -2.225439
  H 6.195480 -0.801795 -2.800944
  H 4.123409 0.870380 1.915749
  H 3.414642 -0.715533 1.804479
  H 1.165564 0.263677 2.435784
  H 1.901082 1.869454 2.491600
  H 3.096408 -0.453909 -1.574915
  H 5.713437 0.838246 -0.878259
  H 4.799409 -2.535938 -3.127966
  H 3.860063 -1.261505 -3.839688
 19
 46.186981
  H 2.126692 1.212069 -0.007005
  C 3.048408 0.692524 0.231401
  C 3.215181 0.322376 1.676144
  C 2.018478 0.762326 2.510857
  H 2.121075 0.407369 3.533928
  C 3.876459 0.347230 -0.765949
  C 5.102728 0.265729 -1.390552
  C 5.229812 -0.647943 -2.383341
  C 4.127366 -1.591336 -2.699209
  H 3.457643 -1.992708 -1.917615
  H 6.119175 -0.805992 -2.964374
  H 4.160204 0.706381 2.075231
  H 3.251772 -0.761885 1.706574
  H 1.099014 0.353362 2.102607
  H 1.923552 1.839093 2.527021
  H 3.308644 -0.497323 -1.539086
  H 5.891139 0.961876 -1.139273
  H 4.631501 -2.571421 -2.868152
  H 3.660992 -1.368859 -3.646240
 19
 60.692622
  H 2.281174 1.294991 -0.045948
  C 3.172413 0.740411 0.233998
  C 3.205847 0.299602 1.676665
  C 1.941125 0.697593 2.424710
  H 2.007287 0.387320 3.465390
  C 4.063019 0.440887 -0.669318
  C 5.205879 0.286517 -1.392697
  C 5.256303 -0.674538 -2.376451
  C 4.022824 -1.527160 -2.583120
  H 3.391136 -1.962432 -1.742597
  H 6.094265 -0.769781 -3.040534
  H 4.078707 0.756147 2.150712
  H 3.343018 -0.781749 1.734026
  H 1.063911 0.226403 1.987533
  H 1.801185 1.776343 2.404802
  H 3.426264 -0.739827 -1.729396
  H 6.023503 0.974879 -1.234311
  H 4.411580 -2.545780 -2.766745
  H 3.493029 -1.277939 -3.508439
 19
 59.591466
  H 2.329298 1.446657 0.035339
  C 3.191199 0.827155 0.266703
  C 3.193688 0.263356 1.672718
  C 1.938851 0.658497 2.440193
  H 1.974769 0.257078 3.450869
  C 4.087943 0.593460 -0.635602
  C 5.181955 0.335613 -1.392727
  C 5.222827 -0.642072 -2.361790
  C 4.007714 -1.528935 -2.597763
  H 3.271999 -1.949075 -1.807301
  H 6.082552 -0.756831 -2.996738
  H 4.079795 0.638202 2.191951
  H 3.276619 -0.825304 1.642269
  H 1.044466 0.271509 1.955751
  H 1.852670 1.741617 2.510565
  H 3.329485 -0.762624 -2.015581
  H 6.040032 0.982404 -1.260716
  H 4.435972 -2.552187 -2.547072
  H 3.627768 -1.452881 -3.623956
 19
 59.556150
  H 2.363056 1.486424 0.103127
  C 3.188698 0.814338 0.317462
  C 3.155646 0.210791 1.706679
  C 1.939539 0.679513 2.493897
  H 1.945137 0.244401 3.491040
  C 4.083918 0.577294 -0.581247
  C 5.118513 0.378390 -1.426041
  C 5.173343 -0.572633 -2.421865
  C 4.049592 -1.577543 -2.646854
  H 3.245044 -1.920623 -1.887583
  H 6.028632 -0.627370 -3.070087
  H 4.068995 0.496578 2.234549
  H 3.148741 -0.878894 1.640454
  H 1.016744 0.382307 1.999954
  H 1.940808 1.762684 2.600460
  H 3.270261 -0.796794 -2.309413
  H 5.959428 1.053490 -1.321012
  H 4.525684 -2.538292 -2.357483
  H 3.812006 -1.711739 -3.708059
 19
 55.176037
  H 2.440961 1.539979 0.114210
  C 3.242794 0.843051 0.348775
  C 3.169103 0.255591 1.743918
  C 1.894157 0.673336 2.463603
  H 1.869011 0.247752 3.464802
  C 4.161254 0.596060 -0.522745
  C 5.155695 0.369545 -1.404295
  C 5.159697 -0.596564 -2.389554
  C 3.998434 -1.541495 -2.595185
  H 3.702612 -2.024705 -1.619783
  H 6.011449 -0.664807 -3.042580
  H 4.039259 0.593143 2.313576
  H 3.219247 -0.834017 1.694321
  H 1.012992 0.329081 1.926396
  H 1.840099 1.756147 2.557413
  H 3.044518 -0.981352 -2.390757
  H 6.018693 1.023818 -1.327469
  H 4.383118 -2.572863 -2.810620
  H 3.670692 -1.549374 -3.666048
