 25
 0.000000
  H 1.491254 0.179096 0.497084
  C 2.570469 0.150285 0.425035
  C 3.328077 0.617250 1.586750
  C 2.465695 1.085891 2.753345
  C 3.322264 1.556414 3.924255
  C 3.100621 -0.322791 -0.752675
  C 4.478320 -0.424985 -1.007445
  C 5.099466 -0.881841 -2.146576
  C 4.585084 -1.392417 -3.419692
  C 3.096136 -1.502181 -3.693942
  H 2.946829 -1.902893 -4.693024
  H 6.183377 -0.876043 -2.132090
  H 3.997132 1.432137 1.280847
  H 3.997324 -0.182516 1.929655
  H 1.821311 0.270767 3.088448
  H 1.821170 1.906148 2.431426
  H 3.956695 0.752957 4.291135
  H 2.691820 1.886466 4.746068
  H 3.956508 2.390552 3.633209
  H 2.404165 -0.628278 -1.513385
  H 5.131263 -0.103855 -0.207024
  H 5.049752 -2.379292 -3.560786
  H 5.050140 -0.776907 -4.203688
  H 2.613055 -0.529040 -3.650965
  H 2.612800 -2.175724 -2.990523
 25
 -0.011753
  H 1.491461 0.070075 0.555575
  C 2.569342 0.058038 0.462987
  C 3.326338 0.591797 1.596620
  C 2.464762 1.095984 2.749041
  C 3.319762 1.636287 3.891158
  C 3.095933 -0.448923 -0.704078
  C 4.475030 -0.519846 -0.975509
  C 5.093205 -0.966194 -2.120740
  C 4.583566 -1.363887 -3.430650
  C 3.096185 -1.409801 -3.723743
  H 2.946475 -1.692225 -4.762747
  H 6.176684 -0.994156 -2.074691
  H 3.981807 1.402593 1.250904
  H 4.020656 -0.172971 1.968453
  H 1.839042 0.284023 3.123563
  H 1.798570 1.886881 2.393904
  H 3.973334 0.863179 4.288038
  H 2.688218 1.990369 4.703246
  H 3.935386 2.470293 3.557178
  H 2.400064 -0.821067 -1.435896
  H 5.137844 -0.179918 -0.190521
  H 5.035698 -2.339850 -3.661994
  H 5.076448 -0.700804 -4.158007
  H 2.631943 -0.438487 -3.575204
  H 2.594129 -2.150317 -3.106773
 25
 0.207182
  H 1.499728 -0.038706 0.600424
  C 2.573235 -0.033591 0.498794
  C 3.325564 0.563510 1.596032
  C 2.463145 1.101297 2.730408
  C 3.316171 1.712389 3.839676
  C 3.101426 -0.575722 -0.653236
  C 4.479022 -0.620293 -0.940863
  C 5.091600 -1.055713 -2.092392
  C 4.583121 -1.328652 -3.435261
  C 3.095877 -1.309142 -3.728108
  H 2.939155 -1.456637 -4.793729
  H 6.175026 -1.136071 -2.035591
  H 3.957970 1.370602 1.207927
  H 4.038948 -0.168879 1.995782
  H 1.858987 0.294167 3.147097
  H 1.779321 1.857539 2.346623
  H 3.989314 0.970538 4.267507
  H 2.682340 2.092213 4.641098
  H 3.913994 2.544357 3.460690
  H 2.412551 -1.007982 -1.353585
  H 5.149641 -0.266924 -0.166630
  H 5.016615 -2.285462 -3.759696
  H 5.089114 -0.605703 -4.092426
  H 2.648793 -0.355574 -3.455523
  H 2.582028 -2.111202 -3.206585
 25
 0.806356
  H 1.498591 -0.152294 0.635186
  C 2.575236 -0.135806 0.524682
  C 3.327029 0.552658 1.573670
  C 2.466790 1.087699 2.713412
  C 3.312965 1.799001 3.762576
  C 3.103804 -0.733948 -0.596332
  C 4.478592 -0.781479 -0.889359
  C 5.085680 -1.191506 -2.052380
  C 4.588880 -1.303982 -3.423739
  C 3.108354 -1.138401 -3.718062
  H 2.952844 -1.142849 -4.795183
  H 6.152752 -1.368405 -1.977826
  H 3.886915 1.385747 1.126641
  H 4.100315 -0.111909 1.978350
  H 1.929791 0.262185 3.185780
  H 1.723351 1.781914 2.321569
  H 4.046057 1.122424 4.195102
  H 2.684503 2.171424 4.568051
  H 3.839720 2.646924 3.329163
  H 2.418265 -1.232902 -1.263352
  H 5.153732 -0.402663 -0.129578
  H 4.952396 -2.255381 -3.835515
  H 5.158234 -0.557690 -3.998539
  H 2.727219 -0.196012 -3.327616
  H 2.530276 -1.958894 -3.298706
 25
 2.665934
  H 1.507838 -0.323593 0.701198
  C 2.579249 -0.265673 0.558162
  C 3.325306 0.528072 1.537429
  C 2.469377 1.066882 2.682423
  C 3.304404 1.886973 3.662410
  C 3.107722 -0.914885 -0.532498
  C 4.476467 -0.950833 -0.843307
  C 5.077150 -1.320457 -2.024822
  C 4.590551 -1.281340 -3.403894
  C 3.140854 -0.914956 -3.673138
  H 2.982306 -0.834315 -4.746296
  H 6.122045 -1.606809 -1.949763
  H 3.799381 1.373334 1.024090
  H 4.155171 -0.057942 1.946368
  H 2.008001 0.233436 3.215722
  H 1.664905 1.692506 2.283231
  H 4.091293 1.282389 4.101722
  H 2.682472 2.262774 4.468298
  H 3.761325 2.738353 3.166838
  H 2.431301 -1.491349 -1.146670
  H 5.153031 -0.502867 -0.121031
  H 4.830547 -2.245890 -3.874252
  H 5.254379 -0.576953 -3.926060
  H 2.881550 0.038859 -3.218931
  H 2.464125 -1.677552 -3.297372
 25
 5.470802
  H 1.481382 -0.441089 0.757022
  C 2.549171 -0.358631 0.569530
  C 3.306090 0.513088 1.474097
  C 2.493324 1.030223 2.656076
  C 3.315788 1.977735 3.522033
  C 3.064172 -1.063981 -0.490924
  C 4.431355 -1.164039 -0.787711
  C 5.046633 -1.462171 -1.983809
  C 4.615092 -1.219442 -3.359432
  C 3.200923 -0.716875 -3.592479
  H 3.048763 -0.545582 -4.652417
  H 6.034470 -1.904009 -1.906315
  H 3.688249 1.371904 0.907374
  H 4.197914 -0.009140 1.843878
  H 2.160689 0.189002 3.264342
  H 1.602696 1.553221 2.295520
  H 4.179433 1.467950 3.943752
  H 2.715847 2.357375 4.344724
  H 3.666618 2.827100 2.943348
  H 2.383401 -1.673707 -1.064526
  H 5.125145 -0.728369 -0.068842
  H 4.790238 -2.139601 -3.932810
  H 5.342900 -0.509986 -3.780893
  H 3.022632 0.219779 -3.071535
  H 2.464360 -1.442001 -3.264343
 25
 9.931819
  H 1.481200 -0.499740 0.801450
  C 2.552244 -0.450968 0.632268
  C 3.312356 0.450534 1.506254
  C 2.475649 1.078563 2.618898
  C 3.323632 1.988562 3.502160
  C 3.061256 -1.156974 -0.427071
  C 4.411287 -1.179470 -0.794325
  C 5.027187 -1.483487 -1.990417
  C 4.618101 -1.229625 -3.372778
  C 3.238019 -0.633723 -3.591870
  H 3.079226 -0.457616 -4.654082
  H 6.014417 -1.929251 -1.906097
  H 3.750046 1.252609 0.901446
  H 4.162873 -0.083724 1.948025
  H 2.036720 0.293027 3.233360
  H 1.658461 1.656953 2.186329
  H 4.133401 1.434379 3.963832
  H 2.717163 2.421698 4.297226
  H 3.753665 2.809162 2.919036
  H 2.391147 -1.810570 -0.973141
  H 5.114412 -0.568241 -0.225750
  H 4.710673 -2.180815 -3.919520
  H 5.388194 -0.590530 -3.815047
  H 3.134487 0.316509 -3.076091
  H 2.456811 -1.303099 -3.242514
 25
 19.779528
  H 1.434613 -0.665789 0.986666
  C 2.468053 -0.560988 0.710631
  C 3.258536 0.421895 1.473299
  C 2.485150 1.078032 2.626649
  C 3.371215 2.075769 3.380100
  C 2.944817 -1.320982 -0.337674
  C 4.252966 -1.369529 -0.798494
  C 4.973535 -1.579876 -1.959228
  C 4.677238 -1.171483 -3.351116
  C 3.371632 -0.447261 -3.577339
  H 3.268665 -0.187862 -4.628711
  H 5.911533 -2.124059 -1.854587
  H 3.610898 1.205908 0.796259
  H 4.160719 -0.056018 1.871435
  H 2.137624 0.310210 3.323714
  H 1.600196 1.596651 2.234504
  H 4.239427 1.583189 3.803626
  H 2.820506 2.539406 4.196007
  H 3.717532 2.869197 2.710061
  H 2.263282 -2.018214 -0.814016
  H 5.038452 -0.685350 -0.378351
  H 4.711983 -2.091019 -3.952424
  H 5.515618 -0.574848 -3.708348
  H 3.329791 0.476411 -3.003453
  H 2.522127 -1.061216 -3.297825
 25
 25.455592
  H 1.426072 -0.727048 0.969466
  C 2.457718 -0.638426 0.685549
  C 3.262344 0.380532 1.391030
  C 2.508220 1.070622 2.516570
  C 3.381271 2.116909 3.209936
  C 2.923249 -1.444175 -0.314953
  C 4.231583 -1.502466 -0.773901
  C 4.982763 -1.603715 -1.919396
  C 4.679848 -1.105540 -3.261827
  C 3.412723 -0.275895 -3.378291
  H 3.259585 0.024796 -4.415638
  H 5.865353 -2.245678 -1.858342
  H 3.596901 1.138866 0.683178
  H 4.171782 -0.083644 1.801297
  H 2.184774 0.333749 3.246148
  H 1.617931 1.555888 2.117211
  H 4.271124 1.653211 3.651177
  H 2.824534 2.609177 4.012299
  H 3.703029 2.880691 2.507184
  H 2.231832 -2.129718 -0.791603
  H 5.012736 -0.814492 -0.358968
  H 4.611669 -1.996904 -3.901003
  H 5.547121 -0.537367 -3.621497
  H 3.472212 0.615494 -2.767202
  H 2.543700 -0.847531 -3.066574
 25
 34.393438
  H 1.391423 -0.845588 1.174533
  C 2.385093 -0.708156 0.778079
  C 3.210826 0.373757 1.357468
  C 2.542851 1.068931 2.539565
  C 3.432100 2.166263 3.113841
  C 2.799501 -1.530101 -0.249587
  C 4.016552 -1.550899 -0.842147
  C 4.909859 -1.642152 -1.872779
  C 4.753936 -1.050574 -3.223450
  C 3.518927 -0.177280 -3.393114
  H 3.481592 0.219034 -4.404638
  H 5.783547 -2.281720 -1.758620
  H 3.428853 1.126784 0.588458
  H 4.178332 -0.028368 1.680546
  H 2.326564 0.337624 3.319348
  H 1.595430 1.504676 2.221497
  H 4.376585 1.754950 3.465873
  H 2.942097 2.652366 3.955824
  H 3.644513 2.926256 2.363144
  H 2.121841 -2.299375 -0.597893
  H 4.922380 -0.814532 -0.653435
  H 4.715384 -1.900976 -3.910250
  H 5.658298 -0.494021 -3.478496
  H 3.535008 0.663692 -2.704502
  H 2.611880 -0.747532 -3.220460
 25
 35.478204
  H 1.390495 -0.890069 1.255133
  C 2.360131 -0.731927 0.812906
  C 3.187831 0.376908 1.338060
  C 2.558542 1.075168 2.543710
  C 3.448412 2.198969 3.062032
  C 2.750749 -1.558354 -0.225641
  C 3.914285 -1.572559 -0.887564
  C 4.889123 -1.633241 -1.836877
  C 4.785221 -1.018827 -3.202329
  C 3.576924 -0.113012 -3.382442
  H 3.570660 0.298077 -4.388153
  H 5.744547 -2.293978 -1.699983
  H 3.351182 1.120354 0.550062
  H 4.178940 0.004106 1.620630
  H 2.394785 0.349350 3.342472
  H 1.586450 1.486592 2.264395
  H 4.417005 1.813011 3.376828
  H 2.986565 2.686444 3.917592
  H 3.609849 2.951154 2.293108
  H 2.076171 -2.349091 -0.535514
  H 4.937448 -0.790855 -0.861809
  H 4.734047 -1.857698 -3.902431
  H 5.707197 -0.478874 -3.427896
  H 3.599276 0.718291 -2.682213
  H 2.651892 -0.663319 -3.237151
 25
 32.902642
  H 1.398122 -0.926843 1.285918
  C 2.356945 -0.757788 0.826723
  C 3.176701 0.372006 1.312886
  C 2.556303 1.086756 2.511982
  C 3.437246 2.236327 2.987766
  C 2.752134 -1.594316 -0.205037
  C 3.865004 -1.638801 -0.912558
  C 4.915537 -1.587362 -1.790874
  C 4.772151 -0.984847 -3.185905
  C 3.613976 -0.005612 -3.305336
  H 3.578415 0.400200 -4.313727
  H 5.708248 -2.333668 -1.710497
  H 3.318263 1.099490 0.503815
  H 4.177447 0.018950 1.585412
  H 2.418365 0.377622 3.330065
  H 1.573781 1.476142 2.240066
  H 4.416664 1.873393 3.293491
  H 2.982868 2.736282 3.839928
  H 3.572959 2.972743 2.198773
  H 2.080083 -2.405146 -0.487795
  H 5.176053 -0.758525 -1.028835
  H 4.628737 -1.813650 -3.881662
  H 5.709404 -0.498064 -3.454632
  H 3.726738 0.827214 -2.614847
  H 2.665638 -0.495386 -3.106886
 25
 30.246002
  H 1.457780 -1.022020 1.380201
  C 2.388177 -0.784307 0.893858
  C 3.160410 0.382841 1.367332
  C 2.515735 1.076658 2.564998
  C 3.345291 2.270998 3.022816
  C 2.811155 -1.577606 -0.161936
  C 3.861024 -1.579327 -0.940223
  C 4.935326 -1.559089 -1.810432
  C 4.717305 -1.062356 -3.253038
  C 3.706353 0.073213 -3.342338
  H 3.605462 0.394971 -4.374978
  H 5.550952 -2.465300 -1.781062
  H 3.271834 1.105275 0.551928
  H 4.178066 0.071983 1.633269
  H 2.418926 0.370158 3.389761
  H 1.513714 1.416990 2.297736
  H 4.343054 1.957855 3.321742
  H 2.874636 2.756595 3.876115
  H 3.438622 3.005275 2.226980
  H 2.167592 -2.421704 -0.438311
  H 5.506285 -0.783754 -1.251223
  H 4.378759 -1.904692 -3.855867
  H 5.676390 -0.736008 -3.651225
  H 4.026331 0.932869 -2.755682
  H 2.728604 -0.242401 -2.992185
 25
 29.717252
  H 1.502403 -1.088147 1.408212
  C 2.421773 -0.829666 0.911726
  C 3.157628 0.371246 1.356262
  C 2.493960 1.071312 2.539577
  C 3.285036 2.303527 2.965728
  C 2.866963 -1.626441 -0.131644
  C 3.909680 -1.620008 -0.917310
  C 4.942735 -1.602989 -1.836656
  C 4.640825 -1.075770 -3.255561
  C 3.778698 0.179252 -3.242621
  H 3.615778 0.525206 -4.259996
  H 5.498766 -2.548610 -1.870194
  H 3.246369 1.078377 0.522066
  H 4.184738 0.098577 1.625169
  H 2.423226 0.381193 3.381995
  H 1.480754 1.371824 2.268157
  H 4.293666 2.030978 3.267701
  H 2.802008 2.792608 3.808083
  H 3.351223 3.021759 2.151901
  H 2.250933 -2.498093 -0.388333
  H 5.632650 -0.897275 -1.331219
  H 4.137717 -1.862601 -3.818089
  H 5.588584 -0.866558 -3.750066
  H 4.263853 0.981738 -2.692631
  H 2.807818 -0.014320 -2.794021
