 13
 0.000000
  C 0.984589 0.139909 0.414996
  C 2.426397 0.102973 0.312743
  H 3.025645 0.444215 1.149271
  C 3.082528 -0.352514 -0.819928
  C 4.488239 -0.389771 -0.921100
  C 5.118384 -0.840745 -2.041588
  H 4.558034 -1.187719 -2.896905
  H 6.193715 -0.866518 -2.112282
  H 0.633591 0.512400 1.371359
  H 0.558804 -0.850222 0.214183
  H 0.563158 0.741288 -0.400792
  H 2.501462 -0.696603 -1.668004
  H 5.072676 -0.047410 -0.076714
 13
 2.688467
  C 0.979839 0.107131 0.448141
  C 2.404567 0.105735 0.316647
  H 3.012398 0.465497 1.139633
  C 3.062232 -0.350600 -0.819622
  C 4.474451 -0.380283 -0.923977
  C 5.110771 -0.838077 -2.045025
  H 4.555884 -1.198381 -2.897069
  H 6.185289 -0.852278 -2.115087
  H 0.597990 0.505414 1.378773
  H 0.506157 -0.850881 0.207592
  H 0.769881 0.728603 -0.415542
  H 2.482279 -0.703995 -1.664643
  H 5.057402 -0.027061 -0.082470
 13
 6.756531
  C 0.976086 0.060408 0.467405
  C 2.401568 0.116467 0.315357
  H 3.018539 0.521052 1.111156
  C 3.054418 -0.350772 -0.815542
  C 4.456445 -0.362725 -0.929819
  C 5.088257 -0.845133 -2.033122
  H 4.534347 -1.247116 -2.866371
  H 6.161681 -0.838830 -2.113250
  H 0.576375 0.417088 1.400253
  H 0.465663 -0.828798 0.098481
  H 0.951087 0.785361 -0.359166
  H 2.477099 -0.737619 -1.644704
  H 5.039845 0.025349 -0.105900
 13
 11.958004
  C 0.969840 0.037803 0.486009
  C 2.387606 0.124657 0.304545
  H 3.002831 0.548869 1.093961
  C 3.046637 -0.352225 -0.823973
  C 4.444319 -0.354915 -0.935629
  C 5.083467 -0.845338 -2.031063
  H 4.535264 -1.261249 -2.862520
  H 6.158169 -0.832573 -2.107715
  H 0.559205 0.389384 1.411919
  H 0.439087 -0.820706 0.076219
  H 1.088930 0.795298 -0.329478
  H 2.474837 -0.753087 -1.649105
  H 5.022526 0.047112 -0.115666
 13
 15.540922
  C 0.962911 0.011057 0.504094
  C 2.373174 0.132589 0.286704
  H 2.990079 0.576952 1.065094
  C 3.035899 -0.356547 -0.834897
  C 4.440376 -0.344981 -0.947227
  C 5.087278 -0.849965 -2.027030
  H 4.548188 -1.289785 -2.848987
  H 6.159488 -0.826224 -2.100994
  H 0.552006 0.341125 1.436566
  H 0.407782 -0.790770 0.026926
  H 1.193975 0.829887 -0.264811
  H 2.466979 -0.781346 -1.650307
  H 5.014510 0.081340 -0.134623
 13
 17.611459
  C 0.959072 -0.013660 0.513401
  C 2.361440 0.141634 0.272705
  H 2.969177 0.604717 1.041885
  C 3.034665 -0.366629 -0.844677
  C 4.433529 -0.333737 -0.958487
  C 5.091395 -0.856824 -2.024913
  H 4.560507 -1.327876 -2.836972
  H 6.165062 -0.817143 -2.098419
  H 0.547400 0.285713 1.462560
  H 0.386948 -0.747434 -0.037959
  H 1.281139 0.878088 -0.176692
  H 2.469511 -0.822056 -1.647649
  H 5.000343 0.123000 -0.158298
 13
 19.415961
  C 0.961915 -0.031431 0.516144
  C 2.350656 0.149170 0.261630
  H 2.958494 0.628619 1.039600
  C 3.032942 -0.369661 -0.852624
  C 4.426204 -0.326728 -0.965189
  C 5.093450 -0.860642 -2.025309
  H 4.575941 -1.341005 -2.822376
  H 6.146356 -0.814431 -2.095210
  H 0.550385 0.254629 1.460339
  H 0.382756 -0.725476 -0.066985
  H 1.351996 0.894910 -0.131650
  H 2.477200 -0.834205 -1.637735
  H 4.985764 0.144162 -0.173544
 13
 20.950656
  C 0.957828 -0.045287 0.525487
  C 2.345845 0.160158 0.256509
  H 2.951806 0.635233 1.023846
  C 3.030839 -0.368720 -0.854991
  C 4.429247 -0.319720 -0.968937
  C 5.097399 -0.859890 -2.018090
  H 4.572646 -1.359244 -2.825118
  H 6.182754 -0.805568 -2.090947
  H 0.538141 0.238797 1.482011
  H 0.367539 -0.711814 -0.087026
  H 1.407289 0.915509 -0.101275
  H 2.464078 -0.852470 -1.646929
  H 4.989040 0.165200 -0.181332
 13
 22.542385
  C 0.963298 -0.062401 0.525383
  C 2.338823 0.172681 0.251790
  H 2.957388 0.652587 1.034767
  C 3.028878 -0.362630 -0.860563
  C 4.425053 -0.309847 -0.974381
  C 5.096975 -0.858344 -2.018717
  H 4.577626 -1.372815 -2.815097
  H 6.170124 -0.811330 -2.084445
  H 0.535833 0.218403 1.479956
  H 0.378578 -0.705548 -0.106004
  H 1.452028 0.921813 -0.086545
  H 2.472384 -0.844269 -1.638304
  H 4.982989 0.179079 -0.189296
 13
 23.902611
  C 0.964545 -0.075373 0.537336
  C 2.341364 0.187820 0.255003
  H 2.953072 0.650474 1.026985
  C 3.031420 -0.351273 -0.860512
  C 4.426232 -0.294684 -0.979089
  C 5.100182 -0.850361 -2.022063
  H 4.589278 -1.383636 -2.791460
  H 6.182081 -0.819882 -2.079328
  H 0.534103 0.202625 1.483896
  H 0.376558 -0.702817 -0.115575
  H 1.492479 0.936555 -0.071978
  H 2.464072 -0.844187 -1.648680
  H 4.977805 0.186344 -0.205099
 13
 25.105114
  C 0.962541 -0.087468 0.542022
  C 2.340585 0.196601 0.255264
  H 2.951458 0.647676 1.024373
  C 3.036632 -0.357665 -0.857295
  C 4.429120 -0.303422 -0.974644
  C 5.101744 -0.862740 -2.014052
  H 4.583288 -1.380490 -2.803179
  H 6.175562 -0.803071 -2.089935
  H 0.524887 0.200669 1.481122
  H 0.376727 -0.701490 -0.124488
  H 1.535045 0.951647 -0.079295
  H 2.477963 -0.851179 -1.628606
  H 4.994268 0.207187 -0.192001
 13
 26.112408
  C 0.964695 -0.103148 0.548731
  C 2.341769 0.209179 0.253737
  H 2.955713 0.640124 1.037912
  C 3.041419 -0.356072 -0.855479
  C 4.432861 -0.293573 -0.975927
  C 5.106918 -0.859648 -2.012725
  H 4.589923 -1.383091 -2.799027
  H 6.174555 -0.800659 -2.086849
  H 0.518984 0.194532 1.480364
  H 0.375999 -0.698662 -0.131457
  H 1.578984 0.978915 -0.084650
  H 2.480023 -0.863239 -1.626322
  H 4.990864 0.221559 -0.206238
 13
 27.139005
  C 0.967441 -0.117934 0.553996
  C 2.341453 0.220697 0.252825
  H 2.955942 0.635159 1.046020
  C 3.044534 -0.352188 -0.855679
  C 4.434779 -0.285731 -0.978273
  C 5.109007 -0.856099 -2.013017
  H 4.593615 -1.391682 -2.790478
  H 6.177500 -0.796341 -2.088003
  H 0.515845 0.186476 1.480311
  H 0.378625 -0.702784 -0.134785
  H 1.625749 1.005494 -0.095059
  H 2.482482 -0.863167 -1.624212
  H 4.992371 0.234331 -0.211930
 13
 28.176683
  C 0.972156 -0.130868 0.556387
  C 2.342581 0.234113 0.253271
  H 2.955767 0.643351 1.054759
  C 3.048408 -0.345425 -0.855466
  C 4.438829 -0.280803 -0.978528
  C 5.110536 -0.854113 -2.012371
  H 4.591036 -1.395336 -2.789620
  H 6.184788 -0.794651 -2.089540
  H 0.511673 0.177969 1.481234
  H 0.388207 -0.711503 -0.138951
  H 1.670245 1.023052 -0.106849
  H 2.484172 -0.863830 -1.620219
  H 4.998840 0.243962 -0.213898
