 25
 0.000000
  C 0.988066 0.160311 0.444231
  C 2.458640 0.138207 0.402541
  C 3.242065 0.602881 1.558081
  H 2.635194 0.938808 2.389399
  C 3.056824 -0.330658 -0.762868
  C 4.438124 -0.416590 -0.984359
  C 5.087620 -0.866112 -2.111377
  C 4.609010 -1.383823 -3.402021
  C 3.125031 -1.513396 -3.717832
  C 2.927627 -2.076647 -5.123444
  H 6.169280 -0.850247 -2.078710
  H 0.596672 0.545987 1.380312
  H 0.591296 -0.843918 0.287487
  H 0.601433 0.770875 -0.373377
  H 3.899437 1.419300 1.252032
  H 3.896896 -0.199379 1.904455
  H 2.388797 -0.645810 -1.547439
  H 5.076858 -0.091592 -0.173058
  H 5.081225 -2.367597 -3.529162
  H 5.077954 -0.758083 -4.173745
  H 2.642043 -0.536214 -3.670006
  H 2.645500 -2.189187 -3.008062
  H 3.373306 -1.425396 -5.871976
  H 1.867625 -2.168324 -5.346877
  H 3.376770 -3.062893 -5.216281
 25
 2.302260
  C 1.026115 0.083830 0.429370
  C 2.483184 0.209632 0.384662
  C 3.254802 0.703195 1.536593
  H 2.603135 0.996328 2.356952
  C 3.046532 -0.272745 -0.785785
  C 4.409313 -0.456480 -0.964151
  C 5.067121 -0.930729 -2.080508
  C 4.594036 -1.422176 -3.375316
  C 3.112242 -1.478800 -3.710396
  C 2.905732 -2.032693 -5.117650
  H 6.147276 -0.956665 -2.004098
  H 0.576918 0.319793 1.384218
  H 0.880773 -0.959405 0.143534
  H 0.548732 0.669386 -0.351700
  H 3.868166 1.560869 1.245453
  H 3.952912 -0.059649 1.891032
  H 2.370847 -0.567403 -1.573487
  H 5.051412 -0.177423 -0.137310
  H 5.028063 -2.423583 -3.503994
  H 5.111841 -0.828188 -4.141093
  H 2.680072 -0.477961 -3.666979
  H 2.592720 -2.128809 -3.004311
  H 3.394118 -1.404985 -5.859806
  H 1.846219 -2.072953 -5.357573
  H 3.307871 -3.039736 -5.204238
 25
 2.556924
  C 1.079831 -0.275813 0.791379
  C 2.435576 0.120097 0.381629
  C 3.153049 1.163650 1.124987
  H 2.584271 1.524339 1.976715
  C 2.999763 -0.504157 -0.728490
  C 4.368497 -0.728019 -0.893273
  C 5.020227 -1.325376 -1.945357
  C 4.586379 -1.648229 -3.308649
  C 3.164836 -1.350752 -3.767155
  C 3.008249 -1.651975 -5.255746
  H 6.060931 -1.571499 -1.769098
  H 0.859872 0.039151 1.806625
  H 0.966097 -1.354583 0.701118
  H 0.334311 0.175040 0.131142
  H 3.376409 2.001153 0.461718
  H 4.124588 0.803568 1.465246
  H 2.313821 -0.923740 -1.448565
  H 4.989459 -0.495652 -0.036576
  H 4.811249 -2.709375 -3.482707
  H 5.289731 -1.130058 -3.977189
  H 2.928957 -0.300244 -3.593560
  H 2.455668 -1.972555 -3.218924
  H 3.682190 -1.039914 -5.851129
  H 1.992552 -1.444359 -5.580205
  H 3.221395 -2.697975 -5.466454
 25
 10.980842
  C 1.268603 -0.473956 1.041615
  C 2.422482 0.156023 0.388949
  C 3.021178 1.382022 0.918037
  H 2.537418 1.723131 1.827302
  C 2.952931 -0.457257 -0.761111
  C 4.268382 -0.891345 -0.847996
  C 4.912276 -1.531362 -1.879405
  C 4.540719 -1.746007 -3.286304
  C 3.216418 -1.215166 -3.822185
  C 3.098427 -1.488568 -5.319327
  H 5.880354 -1.950071 -1.634114
  H 1.171678 -0.146344 2.072309
  H 1.392417 -1.554615 0.991848
  H 0.335287 -0.229093 0.529126
  H 2.964826 2.163273 0.157618
  H 4.091631 1.247480 1.092625
  H 2.258873 -0.674008 -1.560759
  H 4.843139 -0.803805 0.066819
  H 4.599991 -2.825096 -3.480406
  H 5.360367 -1.326197 -3.885642
  H 3.152604 -0.138547 -3.656408
  H 2.383794 -1.710083 -3.320980
  H 3.901244 -1.001451 -5.868619
  H 2.152886 -1.112353 -5.701856
  H 3.144357 -2.555895 -5.524517
 25
 23.847372
  C 1.562354 -0.615339 1.303314
  C 2.436692 0.143670 0.419633
  C 2.788224 1.527235 0.704978
  H 2.315143 1.902289 1.606953
  C 2.952660 -0.487555 -0.763800
  C 4.173300 -1.120062 -0.811210
  C 4.801794 -1.758861 -1.861288
  C 4.486229 -1.833114 -3.301278
  C 3.257879 -1.115210 -3.849722
  C 3.169070 -1.290277 -5.363384
  H 5.691458 -2.315936 -1.598133
  H 1.616856 -0.236358 2.321430
  H 1.807340 -1.674602 1.262532
  H 0.516206 -0.509724 0.996612
  H 2.526144 2.153029 -0.150284
  H 3.874538 1.635337 0.786919
  H 2.303015 -0.470559 -1.627053
  H 4.703737 -1.174677 0.132410
  H 4.425042 -2.895720 -3.570200
  H 5.375937 -1.470921 -3.834205
  H 3.320225 -0.048912 -3.626272
  H 2.353198 -1.531310 -3.405481
  H 4.048719 -0.879218 -5.854142
  H 2.293761 -0.778963 -5.756304
  H 3.092574 -2.342582 -5.628434
 25
 12.585761
  C 1.869476 -0.699580 1.428435
  C 2.525837 0.134014 0.421096
  C 2.562896 1.591181 0.590517
  H 2.067279 1.912452 1.501977
  C 3.072981 -0.437622 -0.745843
  C 4.146871 -1.322849 -0.771321
  C 4.713053 -1.923491 -1.872028
  C 4.400616 -1.883742 -3.309490
  C 3.249107 -1.040807 -3.843459
  C 3.158807 -1.168048 -5.363242
  H 5.562262 -2.561531 -1.658256
  H 1.926688 -0.268596 2.426926
  H 2.201617 -1.734515 1.417809
  H 0.807403 -0.724978 1.161429
  H 2.120278 2.101437 -0.268335
  H 3.603576 1.919209 0.604674
  H 2.629903 -0.122314 -1.677407
  H 4.609619 -1.539206 0.182523
  H 4.251557 -2.925393 -3.622191
  H 5.323222 -1.583676 -3.822603
  H 3.408799 0.010239 -3.598030
  H 2.305269 -1.380544 -3.412939
  H 4.077627 -0.826878 -5.837933
  H 2.337127 -0.566902 -5.748113
  H 2.986766 -2.202378 -5.657774
 25
 2.904867
  C 2.179096 -0.738411 1.508802
  C 2.613856 0.131436 0.411274
  C 2.315440 1.573235 0.492819
  H 1.784827 1.829833 1.402348
  C 3.215277 -0.371738 -0.737972
  C 4.114976 -1.442773 -0.776790
  C 4.632332 -2.052353 -1.893779
  C 4.324647 -1.930663 -3.321930
  C 3.282081 -0.941730 -3.829020
  C 3.120381 -1.067747 -5.342993
  H 5.394960 -2.799506 -1.700972
  H 2.302851 -0.261683 2.478368
  H 2.630081 -1.723759 1.487408
  H 1.101955 -0.888899 1.384996
  H 1.737722 1.901997 -0.371637
  H 3.245987 2.140112 0.451965
  H 3.020220 0.161335 -1.655493
  H 4.480823 -1.800296 0.177995
  H 4.045108 -2.941726 -3.656069
  H 5.276510 -1.748306 -3.840728
  H 3.592082 0.079471 -3.605458
  H 2.318596 -1.138853 -3.356690
  H 4.058623 -0.861951 -5.854023
  H 2.379461 -0.362235 -5.705363
  H 2.794301 -2.067735 -5.618695
 25
 0.385304
  C 2.401081 -0.737847 1.551888
  C 2.701022 0.104240 0.387478
  C 2.101668 1.453266 0.341935
  H 1.621469 1.720805 1.275595
  C 3.438165 -0.321278 -0.707281
  C 4.152500 -1.527011 -0.794085
  C 4.615441 -2.146373 -1.927990
  C 4.303113 -1.932906 -3.343399
  C 3.358074 -0.819933 -3.776686
  C 2.984480 -0.973067 -5.248441
  H 5.265721 -2.996993 -1.766992
  H 2.575285 -0.184096 2.472769
  H 2.949283 -1.673423 1.568769
  H 1.335514 -0.966317 1.548875
  H 1.359859 1.502619 -0.457002
  H 2.853388 2.199010 0.087611
  H 3.490528 0.357798 -1.544395
  H 4.391314 -2.023347 0.137850
  H 3.915121 -2.893374 -3.718284
  H 5.259647 -1.832608 -3.872839
  H 3.835174 0.151812 -3.643619
  H 2.445645 -0.850253 -3.174547
  H 3.870708 -0.938026 -5.882689
  H 2.320743 -0.171475 -5.556270
  H 2.475671 -1.915595 -5.425696
 25
 3.302815
  C 2.248976 -0.934504 1.149211
  C 2.747610 0.138916 0.277112
  C 2.208087 1.502890 0.422271
  H 1.598537 1.605963 1.310068
  C 3.646463 -0.141145 -0.734937
  C 4.450794 -1.306992 -0.800187
  C 4.838516 -1.992824 -1.912913
  C 4.301438 -1.933468 -3.279835
  C 3.303707 -0.849173 -3.646212
  C 2.702991 -1.099270 -5.025638
  H 5.559014 -2.787831 -1.767174
  H 2.040598 -0.583588 2.157818
  H 2.920929 -1.790794 1.138308
  H 1.301300 -1.298162 0.742561
  H 1.598991 1.756319 -0.447577
  H 3.014372 2.236193 0.441414
  H 3.790442 0.608496 -1.499042
  H 4.876715 -1.635165 0.140956
  H 3.855767 -2.917271 -3.484357
  H 5.156447 -1.895711 -3.965914
  H 3.795075 0.123885 -3.652189
  H 2.499936 -0.821460 -2.905367
  H 3.475780 -1.106221 -5.790900
  H 1.987694 -0.317801 -5.277634
  H 2.183387 -2.055504 -5.058888
 25
 12.111647
  C 2.232228 -1.022221 0.773707
  C 2.763477 0.181630 0.137256
  C 2.211154 1.530997 0.461035
  H 1.546670 1.497829 1.311389
  C 3.746212 0.016482 -0.788005
  C 4.552202 -1.199830 -0.780408
  C 4.912077 -1.941452 -1.848866
  C 4.278018 -1.965340 -3.184871
  C 3.246343 -0.892319 -3.503708
  C 2.550457 -1.149818 -4.826691
  H 5.682251 -2.702664 -1.701913
  H 1.870078 -0.899357 1.790105
  H 3.027468 -1.788730 0.623284
  H 1.428365 -1.450473 0.166036
  H 1.684468 1.900929 -0.413970
  H 3.009890 2.245443 0.668289
  H 3.996542 0.766875 -1.505850
  H 5.159516 -1.302352 0.133013
  H 3.836362 -2.961070 -3.323018
  H 5.081588 -1.932948 -3.931721
  H 3.730869 0.084973 -3.542113
  H 2.505498 -0.845060 -2.699976
  H 3.267667 -1.169224 -5.651612
  H 1.816342 -0.378343 -5.037195
  H 2.032796 -2.109596 -4.819270
 25
 31.529629
  C 2.282496 -1.045416 0.555389
  C 2.759499 0.240931 0.065400
  C 2.166743 1.529052 0.506737
  H 1.436027 1.377993 1.284443
  C 3.845444 0.159346 -0.762547
  C 4.510648 -1.131625 -0.723233
  C 4.865381 -1.895045 -1.813745
  C 4.237269 -1.930412 -3.129179
  C 3.214776 -0.888042 -3.457999
  C 2.512473 -1.239170 -4.737648
  H 5.557282 -2.681795 -1.645558
  H 1.816478 -1.051163 1.528946
  H 3.293532 -1.688571 0.240560
  H 1.742986 -1.657762 -0.142130
  H 1.675198 2.012927 -0.345115
  H 2.925112 2.213322 0.863613
  H 4.230608 0.987050 -1.358128
  H 5.176702 -1.195966 0.090056
  H 3.782156 -2.925705 -3.244880
  H 5.033842 -1.931141 -3.883339
  H 3.698441 0.076738 -3.595153
  H 2.493685 -0.789319 -2.648360
  H 3.205360 -1.297129 -5.556187
  H 1.774917 -0.481627 -4.980806
  H 2.006534 -2.201786 -4.647447
 25
 42.044721
  C 2.260949 -0.991875 0.625560
  C 2.699339 0.254164 0.110319
  C 2.127406 1.545935 0.594180
  H 1.455930 1.388414 1.432501
  C 3.721044 0.166532 -0.796610
  C 4.460423 -1.112185 -0.692924
  C 4.814339 -1.928529 -1.785072
  C 4.210180 -1.976538 -3.112854
  C 3.202592 -0.900741 -3.501147
  C 2.566683 -1.218773 -4.851217
  H 5.552531 -2.697706 -1.596916
  H 1.808418 -1.021484 1.605726
  H 3.656994 -1.637264 0.075075
  H 1.903954 -1.769267 -0.035405
  H 1.562750 2.012345 -0.211883
  H 2.913893 2.235922 0.889443
  H 4.051110 0.970981 -1.428292
  H 5.259663 -1.039279 0.052031
  H 3.742278 -2.968359 -3.209276
  H 5.016755 -2.011109 -3.856931
  H 3.699203 0.066374 -3.569569
  H 2.415856 -0.829835 -2.748608
  H 3.320660 -1.271063 -5.633483
  H 1.851869 -0.447303 -5.126109
  H 2.039584 -2.169812 -4.821286
 25
 39.013118
  C 2.098483 -0.948616 0.660572
  C 2.653479 0.209869 0.129489
  C 2.140383 1.560110 0.533937
  H 1.418891 1.479731 1.340827
  C 3.718965 0.090077 -0.739685
  C 4.481454 -1.175244 -0.664796
  C 4.881277 -1.907563 -1.825439
  C 4.274261 -1.910314 -3.145398
  C 3.162506 -0.914430 -3.456126
  C 2.545141 -1.206677 -4.820878
  H 5.683953 -2.621393 -1.691257
  H 1.530555 -0.900554 1.576071
  H 3.809584 -1.788044 0.018083
  H 1.901987 -1.820243 0.059486
  H 1.648521 2.021617 -0.320337
  H 2.951530 2.213367 0.845560
  H 4.064609 0.906511 -1.349202
  H 5.320276 -1.061450 0.035860
  H 3.899943 -2.934366 -3.303269
  H 5.069895 -1.825958 -3.898526
  H 3.561334 0.098925 -3.465836
  H 2.381839 -0.969484 -2.696824
  H 3.291530 -1.134986 -5.608853
  H 1.755733 -0.492778 -5.041459
  H 2.112764 -2.204384 -4.849568
 25
 34.337936
  C 1.921825 -0.889261 0.641101
  C 2.614654 0.176778 0.125661
  C 2.185336 1.583177 0.436069
  H 1.402065 1.595833 1.187248
  C 3.735222 -0.007447 -0.678378
  C 4.496383 -1.269751 -0.634379
  C 4.948725 -1.886442 -1.858772
  C 4.340748 -1.813658 -3.171996
  C 3.088302 -0.967714 -3.369554
  C 2.517057 -1.173307 -4.770115
  H 5.817905 -2.527033 -1.785829
  H 1.201609 -0.743662 1.427361
  H 3.896187 -1.982302 -0.031634
  H 1.916660 -1.861516 0.180775
  H 1.799115 2.048420 -0.468831
  H 3.021994 2.180617 0.789386
  H 4.135186 0.817117 -1.245283
  H 5.356184 -1.125906 0.037189
  H 4.118936 -2.855842 -3.454030
  H 5.108114 -1.531617 -3.907435
  H 3.321135 0.088479 -3.242902
  H 2.330025 -1.241801 -2.635836
  H 3.238843 -0.885834 -5.531292
  H 1.625047 -0.567859 -4.908485
  H 2.244055 -2.213512 -4.932825
 25
 32.420773
  C 1.776499 -0.774403 0.457616
  C 2.609995 0.208965 0.030668
  C 2.298114 1.651643 0.313391
  H 1.444049 1.742743 0.983733
  C 3.772811 -0.059367 -0.704104
  C 4.505367 -1.337284 -0.614751
  C 5.008733 -1.897572 -1.857688
  C 4.393640 -1.758988 -3.161173
  C 2.955527 -1.257141 -3.212918
  C 2.480497 -1.078210 -4.653287
  H 5.938435 -2.443653 -1.819599
  H 0.959328 -0.557365 1.121416
  H 3.891456 -2.067080 -0.060259
  H 1.830634 -1.783341 0.086038
  H 2.060626 2.164051 -0.616741
  H 3.148569 2.151193 0.761918
  H 4.266930 0.753408 -1.217298
  H 5.353307 -1.178880 0.065381
  H 4.468215 -2.729232 -3.669283
  H 5.037084 -1.115756 -3.782678
  H 2.873469 -0.303085 -2.688678
  H 2.304180 -1.968291 -2.706089
  H 3.093332 -0.350865 -5.180967
  H 1.451896 -0.728132 -4.673439
  H 2.523950 -2.018408 -5.195759
