 29
 0.000000
  C 0.932823 0.150713 0.426302
  C 2.434504 0.131160 0.377169
  C 3.252746 0.604156 1.554418
  C 2.481663 1.094477 2.775235
  H 3.175424 1.405983 3.550553
  C 3.019005 -0.321245 -0.749389
  C 4.429273 -0.417314 -0.989021
  C 5.081117 -0.853834 -2.077069
  C 4.618478 -1.385716 -3.402753
  C 3.134272 -1.511472 -3.716955
  C 2.939183 -2.075096 -5.121959
  O 6.453067 -0.855777 -2.082193
  H 0.543513 0.527488 1.364312
  H 0.539625 -0.855653 0.277156
  H 0.539392 0.774127 -0.377554
  H 3.907076 1.415096 1.215509
  H 3.907268 -0.215742 1.870633
  H 1.850792 0.304176 3.178247
  H 1.850658 1.943861 2.519600
  H 2.360124 -0.638724 -1.539851
  H 5.058863 -0.088046 -0.168726
  H 5.084489 -2.371634 -3.516246
  H 5.084823 -0.751898 -4.166173
  H 2.654726 -0.532993 -3.665476
  H 2.654368 -2.182907 -3.003553
  H 3.390833 -1.423224 -5.866601
  H 1.878876 -2.165508 -5.347903
  H 3.390480 -3.061025 -5.209538
  H 6.796969 -0.520391 -1.246043
 29
 1.076012
  C 0.926104 -0.058210 0.550429
  C 2.420440 0.056318 0.403013
  C 3.240410 0.738392 1.474170
  C 2.490503 1.260990 2.694219
  H 3.199109 1.725073 3.376336
  C 2.984310 -0.452397 -0.703477
  C 4.391614 -0.478193 -0.987990
  C 5.055363 -0.977683 -2.041810
  C 4.625761 -1.490209 -3.386830
  C 3.153900 -1.425938 -3.770635
  C 2.957111 -1.880864 -5.212557
  O 6.429091 -1.058488 -1.968271
  H 0.564576 0.378577 1.472458
  H 0.628280 -1.105599 0.529151
  H 0.430383 0.441564 -0.280796
  H 3.767752 1.581090 1.017401
  H 4.001945 0.034806 1.822559
  H 1.992155 0.454804 3.226297
  H 1.754143 2.010491 2.415200
  H 2.327577 -0.919227 -1.419319
  H 5.012596 -0.000169 -0.237088
  H 4.978595 -2.522634 -3.476488
  H 5.206486 -0.908991 -4.110884
  H 2.789599 -0.403515 -3.662989
  H 2.570178 -2.074001 -3.118103
  H 3.507548 -1.239408 -5.895228
  H 1.904801 -1.845065 -5.482447
  H 3.309204 -2.900811 -5.342050
  H 6.685046 -0.838190 -1.065450
 29
 2.994430
  C 0.971589 -0.307723 0.667340
  C 2.426407 -0.029189 0.426107
  C 3.195946 0.899741 1.339141
  C 2.435447 1.475220 2.527801
  H 3.096016 2.129714 3.095848
  C 3.020281 -0.609099 -0.629868
  C 4.412650 -0.532846 -0.966751
  C 5.056825 -1.070806 -2.018725
  C 4.585525 -1.560648 -3.355513
  C 3.160965 -1.221525 -3.778790
  C 2.947637 -1.561987 -5.251311
  O 6.428050 -1.199862 -1.930424
  H 0.608140 0.127644 1.591528
  H 0.794947 -1.383427 0.706137
  H 0.370913 0.090990 -0.152546
  H 3.575680 1.735574 0.739849
  H 4.070455 0.359940 1.721387
  H 2.092068 0.685986 3.194435
  H 1.581192 2.064293 2.200154
  H 2.418236 -1.262157 -1.242510
  H 5.024911 0.053884 -0.287751
  H 4.740161 -2.644116 -3.413214
  H 5.282923 -1.114088 -4.072972
  H 2.975513 -0.157553 -3.617000
  H 2.443703 -1.784448 -3.182058
  H 3.604006 -0.966054 -5.882565
  H 1.918530 -1.364388 -5.543773
  H 3.159261 -2.614067 -5.434469
  H 6.637421 -0.997879 -1.010640
 29
 9.399034
  C 1.027818 -0.453141 0.771574
  C 2.452304 -0.097216 0.446118
  C 3.202563 0.916177 1.282348
  C 2.424974 1.589797 2.406385
  H 3.067955 2.313709 2.903865
  C 3.046580 -0.718375 -0.598472
  C 4.429816 -0.637473 -0.953835
  C 5.059348 -1.248520 -1.978594
  C 4.602627 -1.667243 -3.338406
  C 3.188532 -1.264568 -3.735842
  C 2.980683 -1.429544 -5.236030
  O 6.407839 -1.485978 -1.789641
  H 0.682463 0.008960 1.687773
  H 0.923692 -1.531954 0.874100
  H 0.365758 -0.136733 -0.037621
  H 3.584855 1.698765 0.618434
  H 4.074387 0.418793 1.721693
  H 2.098971 0.867898 3.150358
  H 1.557706 2.121624 2.020344
  H 2.458899 -1.445501 -1.137932
  H 5.023113 0.068990 -0.388190
  H 4.728832 -2.749292 -3.456932
  H 5.317368 -1.200729 -4.025129
  H 3.015914 -0.224129 -3.452785
  H 2.462332 -1.879042 -3.209048
  H 3.664961 -0.794781 -5.789899
  H 1.965611 -1.158357 -5.511543
  H 3.152817 -2.461905 -5.534896
  H 6.489754 -1.296125 -0.843283
 29
 19.116436
  C 1.058924 -0.527368 0.784770
  C 2.476303 -0.155788 0.462895
  C 3.176739 0.940239 1.231901
  C 2.388719 1.599003 2.356141
  H 2.997420 2.376617 2.814122
  C 3.098769 -0.815765 -0.526576
  C 4.461413 -0.647268 -0.919528
  C 5.075875 -1.195637 -2.001485
  C 4.582651 -1.627573 -3.339673
  C 3.212120 -1.100751 -3.747083
  C 2.953335 -1.355868 -5.227594
  O 6.428391 -1.437800 -1.782151
  H 0.692708 -0.040789 1.681299
  H 0.971305 -1.604434 0.919314
  H 0.401251 -0.247599 -0.042686
  H 3.470389 1.725052 0.524764
  H 4.100246 0.532310 1.652613
  H 2.124482 0.880987 3.128583
  H 1.480864 2.064510 1.977506
  H 2.534402 -1.571658 -1.052606
  H 4.972474 0.200162 -0.479384
  H 4.597562 -2.723218 -3.414149
  H 5.337385 -1.275820 -4.051906
  H 3.160204 -0.028961 -3.541570
  H 2.434960 -1.588974 -3.163642
  H 3.682886 -0.834138 -5.841249
  H 1.960706 -1.011787 -5.506092
  H 3.022597 -2.419779 -5.448672
  H 6.405052 -1.215223 -0.844904
 29
 39.416143
  C 1.069013 -0.538291 0.857340
  C 2.479920 -0.181745 0.479866
  C 3.210307 0.937104 1.186784
  C 2.449134 1.655421 2.294936
  H 3.082193 2.431655 2.721419
  C 3.073399 -0.870665 -0.516278
  C 4.420712 -0.744240 -0.911729
  C 5.046079 -1.348664 -1.975729
  C 4.604646 -1.717525 -3.348273
  C 3.256069 -1.139074 -3.761565
  C 3.015967 -1.321510 -5.255320
  O 6.331315 -1.617864 -1.609451
  H 0.740515 -0.032222 1.757394
  H 0.982285 -1.611954 1.024616
  H 0.381773 -0.273833 0.052195
  H 3.512447 1.681363 0.442517
  H 4.126906 0.520697 1.621210
  H 2.185651 0.969895 3.097468
  H 1.544412 2.123603 1.914599
  H 2.521206 -1.694508 -0.948744
  H 4.917048 0.159547 -0.571928
  H 4.589907 -2.810890 -3.434818
  H 5.392994 -1.359021 -4.018561
  H 3.229629 -0.076328 -3.511426
  H 2.455159 -1.624686 -3.205473
  H 3.770548 -0.792386 -5.833267
  H 2.039371 -0.932087 -5.532617
  H 3.054343 -2.375183 -5.523171
  H 6.004310 -1.292551 -0.627044
 29
 54.483472
  C 1.060941 -0.516241 0.818247
  C 2.490060 -0.191092 0.478431
  C 3.221357 0.924129 1.191853
  C 2.445354 1.673557 2.268421
  H 3.079921 2.447729 2.696356
  C 3.101910 -0.898096 -0.484390
  C 4.489290 -0.784534 -0.881336
  C 5.112894 -1.393680 -1.993583
  C 4.618808 -1.732121 -3.354915
  C 3.266162 -1.136226 -3.734643
  C 2.995240 -1.304761 -5.224973
  O 6.334538 -1.680013 -1.673753
  H 0.709963 0.020950 1.691229
  H 0.951042 -1.583331 1.009094
  H 0.407388 -0.263910 -0.018167
  H 3.556244 1.652719 0.444510
  H 4.122635 0.503465 1.652220
  H 2.144145 1.007033 3.073392
  H 1.562041 2.154464 1.854274
  H 2.551309 -1.704005 -0.951221
  H 4.979044 0.138580 -0.579773
  H 4.598316 -2.821759 -3.460077
  H 5.388070 -1.377133 -4.050616
  H 3.254590 -0.075419 -3.477324
  H 2.472049 -1.623162 -3.169421
  H 3.741935 -0.776360 -5.813876
  H 2.015430 -0.908895 -5.480785
  H 3.022612 -2.356555 -5.502171
  H 5.841999 -1.270037 -0.458763
 29
 28.839266
  C 1.096575 -0.538942 0.699402
  C 2.524467 -0.179305 0.428067
  C 3.201092 0.932489 1.198608
  C 2.395979 1.634216 2.287105
  H 3.016718 2.373066 2.788321
  C 3.186567 -0.843257 -0.527241
  C 4.632996 -0.724023 -0.873640
  C 5.244999 -1.428116 -2.037516
  C 4.640494 -1.775960 -3.362917
  C 3.310846 -1.086717 -3.689358
  C 2.918720 -1.304085 -5.144247
  O 6.404858 -1.710609 -1.798468
  H 0.728881 -0.059649 1.597330
  H 0.985765 -1.613071 0.820078
  H 0.457695 -0.217039 -0.122430
  H 3.584826 1.680933 0.497208
  H 4.095346 0.506609 1.672576
  H 2.095707 0.915078 3.050264
  H 1.500237 2.102283 1.888672
  H 2.684730 -1.662617 -1.006396
  H 5.072739 0.264240 -0.664559
  H 4.528014 -2.867495 -3.394219
  H 5.388152 -1.498059 -4.115657
  H 3.377340 -0.020284 -3.464777
  H 2.523985 -1.490658 -3.049858
  H 3.659550 -0.868711 -5.813682
  H 1.954088 -0.849785 -5.351072
  H 2.859950 -2.367977 -5.367576
  H 5.558784 -1.181001 -0.285170
 29
 13.144186
  C 1.155854 -0.604875 0.672790
  C 2.600482 -0.264746 0.424850
  C 3.254779 0.892611 1.145325
  C 2.375197 1.687315 2.103876
  H 2.955356 2.508476 2.521985
  C 3.294535 -0.993466 -0.448783
  C 4.736269 -0.815474 -0.800281
  C 5.326496 -1.426115 -2.048420
  C 4.646135 -1.691275 -3.356514
  C 3.288775 -1.032059 -3.587727
  C 2.872318 -1.146770 -5.050113
  O 6.481642 -1.757447 -1.855933
  H 0.725293 -0.031073 1.483546
  H 1.056807 -1.664414 0.903027
  H 0.569215 -0.420295 -0.228203
  H 3.617916 1.590071 0.381126
  H 4.132400 0.527118 1.685562
  H 2.017736 1.072061 2.925653
  H 1.527082 2.125655 1.582075
  H 2.810286 -1.825641 -0.939559
  H 5.095005 0.210259 -0.638379
  H 4.590775 -2.771113 -3.514389
  H 5.344364 -1.317735 -4.115709
  H 3.326888 0.019024 -3.296824
  H 2.525483 -1.516551 -2.979828
  H 3.572781 -0.620679 -5.695538
  H 1.885126 -0.715369 -5.199420
  H 2.837361 -2.189978 -5.356344
  H 5.593537 -1.256094 -0.209606
 29
 1.071939
  C 1.197334 -0.687068 0.636308
  C 2.637400 -0.317754 0.401598
  C 3.247234 0.883743 1.086379
  C 2.342729 1.671380 2.026847
  H 2.901078 2.506669 2.445152
  C 3.360319 -1.055501 -0.438025
  C 4.798712 -0.840708 -0.780467
  C 5.383647 -1.456225 -2.031887
  C 4.634405 -1.672539 -3.324413
  C 3.280542 -0.992239 -3.509430
  C 2.826817 -1.087845 -4.962599
  O 6.541380 -1.800209 -1.936949
  H 0.740199 -0.095785 1.420140
  H 1.118085 -1.737844 0.911081
  H 0.621869 -0.543849 -0.278228
  H 3.614467 1.567976 0.313611
  H 4.121269 0.545760 1.651566
  H 1.997914 1.053256 2.852599
  H 1.481675 2.076076 1.499595
  H 2.912471 -1.931352 -0.883847
  H 5.103409 0.209106 -0.703172
  H 4.546920 -2.752722 -3.470248
  H 5.310821 -1.314690 -4.108845
  H 3.356898 0.057580 -3.219862
  H 2.525289 -1.456357 -2.878279
  H 3.526342 -0.576139 -5.620201
  H 1.847170 -0.632141 -5.086088
  H 2.761852 -2.128094 -5.274372
  H 5.516519 -1.290855 -0.070321
 29
 0.171640
  C 1.127200 -0.518578 0.598534
  C 2.592722 -0.238790 0.401453
  C 3.294351 0.817592 1.220035
  C 2.453476 1.564741 2.247973
  H 3.080762 2.286738 2.767074
  C 3.260728 -0.936105 -0.505592
  C 4.720288 -0.755274 -0.797741
  C 5.372361 -1.336322 -2.034019
  C 4.685567 -1.564027 -3.363623
  C 3.232019 -1.164822 -3.587645
  C 2.865141 -1.319937 -5.060883
  O 6.548229 -1.589886 -1.944822
  H 0.679450 0.126877 1.343897
  H 0.979189 -1.551841 0.910842
  H 0.591587 -0.378604 -0.339493
  H 3.730748 1.551865 0.533606
  H 4.131863 0.339715 1.738354
  H 2.043680 0.883910 2.990458
  H 1.639539 2.109090 1.774332
  H 2.740270 -1.711462 -1.042832
  H 4.954708 0.316014 -0.840873
  H 4.823252 -2.621886 -3.605888
  H 5.305121 -1.013591 -4.081742
  H 3.076944 -0.128572 -3.281989
  H 2.563949 -1.796652 -3.004326
  H 3.491932 -0.686065 -5.684822
  H 1.826808 -1.041984 -5.225597
  H 2.998127 -2.351424 -5.379716
  H 5.336045 -1.138464 0.005156
 29
 -6.692934
  C 1.368735 -1.123102 0.810077
  C 2.697331 -0.558278 0.385385
  C 3.083019 0.857436 0.743528
  C 2.090693 1.646493 1.587542
  H 2.502074 2.631895 1.796367
  C 3.535101 -1.328778 -0.304272
  C 4.905591 -0.926233 -0.770275
  C 5.363624 -1.737046 -1.961293
  C 4.464294 -1.728957 -3.179926
  C 3.652508 -0.459069 -3.414498
  C 2.824172 -0.571146 -4.689997
  O 6.382936 -2.382639 -1.940230
  H 0.724523 -0.373873 1.254626
  H 1.517150 -1.919054 1.539076
  H 0.852002 -1.554202 -0.045921
  H 3.262199 1.411194 -0.184446
  H 4.037569 0.821198 1.277190
  H 1.904077 1.152448 2.537988
  H 1.146660 1.784251 1.065339
  H 3.248832 -2.345089 -0.530387
  H 4.919096 0.131537 -1.048811
  H 3.781078 -2.576692 -3.064703
  H 5.087544 -1.944011 -4.051578
  H 4.329434 0.394810 -3.500636
  H 2.985516 -0.283385 -2.568450
  H 3.467348 -0.726411 -5.553458
  H 2.247958 0.337012 -4.851239
  H 2.132568 -1.408262 -4.623949
  H 5.632422 -1.069790 0.037062
