19

C 0.908957 0.051234 0.265899
C 2.403139 0.059608 0.08463
H 2.9921706240637382 0.008567567001011252 0.9764464721802972
C 2.999883 0.1263 -1.121835
C 2.353543 0.203969 -2.494463
C 0.84187 0.21614 -2.712854
H 0.6128628785907408 0.275250599836632 -3.756387265081089
C 4.458676 0.132433 -1.209544
C 5.197334 0.195405 -2.31725
H 6.267250958136231 0.1971261987362579 -2.330468932159085
H 0.600724 -0.010726 1.30474
H 0.466884 -0.814538 -0.221374
H 0.465268 0.968898 -0.116051
H 2.740336 -0.644759 -3.070024
H 2.740107 1.112369 -2.97048
H 0.389447 1.077095 -2.221927
H 0.389665 -0.694919 -2.322386
H 5.004679 0.080394 -0.277707
H 4.819702 0.251812 -3.325086
