 24
 0.000000
  C 0.821631 0.047052 0.301861
  C 2.315025 0.057412 0.118219
  C 3.206032 -0.012026 1.348894
  C 2.536878 -0.089344 2.719023
  C 3.586605 -0.151692 3.824012
  C 2.918983 0.124185 -1.065133
  C 2.369248 0.203251 -2.466356
  C 0.872219 0.219396 -2.752447
  H 0.721107 0.280087 -3.828025
  H 4.002310 0.125757 -1.092957
  H 0.525997 -0.011708 1.343164
  H 0.380082 -0.809852 -0.200887
  H 0.380084 0.955076 -0.101295
  H 3.855570 0.869063 1.348171
  H 3.855571 -0.887436 1.249056
  H 1.909091 -0.980731 2.783247
  H 1.909086 0.789155 2.883116
  H 4.219513 -1.028543 3.704200
  H 3.108551 -0.206755 4.799792
  H 4.219510 0.733076 3.803599
  H 2.798434 -0.644804 -3.015211
  H 2.798435 1.107674 -2.916328
  H 0.390730 1.079003 -2.296312
  H 0.390727 -0.686071 -2.395909
 24
 10.387183
  C 0.840303 0.052348 0.207991
  C 2.303297 0.056136 0.140827
  C 3.202522 -0.014023 1.384211
  C 2.537387 -0.091505 2.757266
  C 3.590345 -0.153641 3.858444
  C 2.858214 0.122859 -1.041641
  C 2.336073 0.203030 -2.462458
  C 0.841235 0.220553 -2.773010
  H 0.718567 0.281519 -3.853522
  H 3.957387 0.125940 -1.096279
  H 0.830640 -0.007017 1.260010
  H 0.376168 -0.823888 -0.268028
  H 0.376172 0.976578 -0.166429
  H 3.854458 0.864109 1.374481
  H 3.854450 -0.885467 1.275757
  H 1.910196 -0.984255 2.825116
  H 1.910176 0.787954 2.925125
  H 4.222763 -1.029904 3.733834
  H 3.117036 -0.208822 4.836234
  H 4.222783 0.731109 3.833207
  H 2.780222 -0.644115 -2.999467
  H 2.780229 1.105222 -2.900767
  H 0.346010 1.081871 -2.333807
  H 0.346021 -0.684696 -2.433494
 24
 40.800238
  C 0.830740 0.053689 0.184282
  C 2.308407 0.056026 0.142873
  C 3.196387 -0.012999 1.366168
  C 2.523968 -0.090279 2.735625
  C 3.572591 -0.152613 3.840269
  C 2.834539 0.121036 -1.009292
  C 2.328843 0.200836 -2.423501
  C 0.841586 0.219917 -2.761730
  H 0.736877 0.281008 -3.844415
  H 3.924707 0.124428 -1.069425
  H 1.135785 -0.000393 1.142392
  H 0.338924 -0.826261 -0.216271
  H 0.338922 0.973125 -0.114708
  H 3.846294 0.866123 1.353090
  H 3.846290 -0.885057 1.254271
  H 1.895523 -0.980902 2.803127
  H 1.895505 0.787105 2.902896
  H 4.205931 -1.029776 3.717774
  H 3.094620 -0.207690 4.816232
  H 4.205929 0.732768 3.817228
  H 2.783248 -0.651271 -2.953359
  H 2.783232 1.107110 -2.854124
  H 0.342198 1.082538 -2.332531
  H 0.342217 -0.685499 -2.432302
 24
 84.323469
  C 0.761954 0.055174 0.157125
  C 2.306407 0.056058 0.141881
  C 3.219424 -0.013000 1.366018
  C 2.527480 -0.090135 2.733361
  C 3.560028 -0.153670 3.859668
  C 2.824316 0.120615 -1.002803
  C 2.327266 0.201031 -2.427016
  C 0.839181 0.218871 -2.742367
  H 0.715569 0.279734 -3.820189
  H 3.923991 0.123208 -1.049648
  H 1.395662 0.009855 0.957670
  H 0.282562 -0.834530 -0.202492
  H 0.282522 0.979752 -0.099842
  H 3.869589 0.874742 1.347739
  H 3.869567 -0.893026 1.248015
  H 1.889502 -0.982764 2.785590
  H 1.889488 0.790975 2.885641
  H 4.196476 -1.033580 3.748288
  H 3.064197 -0.208439 4.830598
  H 4.196497 0.733204 3.847952
  H 2.782258 -0.652080 -2.958216
  H 2.782289 1.108470 -2.858813
  H 0.351621 1.073776 -2.302650
  H 0.351570 -0.680104 -2.401675
 24
 103.746232
  C 0.240124 0.040868 0.523910
  C 2.559497 0.059758 0.151849
  C 3.405019 -0.004886 1.379323
  C 2.589215 -0.097681 2.668963
  C 3.494697 -0.152455 3.888407
  C 2.978053 0.107639 -1.088684
  C 2.390184 0.183534 -2.472917
  C 0.883171 0.238651 -2.662736
  H 0.663729 0.296513 -3.731713
  H 4.064893 0.131725 -1.175734
  H 1.450040 0.051700 0.418549
  H -0.028682 -0.843030 -0.068215
  H -0.050196 0.910200 -0.077213
  H 4.038445 0.886673 1.416558
  H 4.060551 -0.870774 1.308838
  H 1.966655 -0.986175 2.639229
  H 1.933014 0.763751 2.741565
  H 4.149045 -1.020319 3.843285
  H 2.903427 -0.217374 4.796101
  H 4.115401 0.740148 3.946806
  H 2.785598 -0.672057 -3.027345
  H 2.830873 1.072908 -2.941089
  H 0.459637 1.115847 -2.188065
  H 0.400771 -0.649653 -2.270117
 24
 115.444771
  C 0.193690 0.098829 0.387832
  C 2.622254 0.093621 0.176996
  C 3.465201 -0.042082 1.400590
  C 2.635911 -0.211705 2.696877
  C 3.521858 -0.350494 3.935287
  C 2.924597 0.188589 -1.039301
  C 2.339663 0.316153 -2.423406
  C 0.830943 0.335563 -2.668794
  H 0.621424 0.441281 -3.729480
  H 4.018232 0.241627 -1.166027
  H 1.580604 0.088843 0.319293
  H -0.039767 -0.770835 -0.271490
  H -0.062759 0.993171 -0.208832
  H 4.122017 0.822096 1.495631
  H 4.117268 -0.904735 1.251247
  H 1.997991 -1.095133 2.600186
  H 1.987799 0.661523 2.802123
  H 4.151975 -1.233687 3.853918
  H 2.907343 -0.441192 4.827984
  H 4.144159 0.535700 4.050858
  H 2.776184 -0.494486 -3.002654
  H 2.747591 1.217095 -2.871617
  H 0.363067 1.169310 -2.171502
  H 0.357723 -0.567893 -2.316839
 24
 114.376238
  C 0.400736 0.038854 0.664189
  C 2.601787 0.078522 0.068999
  C 3.351828 -0.035890 1.347092
  C 2.530540 -0.200596 2.623461
  C 3.437176 -0.302315 3.845312
  C 3.080150 0.171639 -1.140283
  C 2.425901 0.307503 -2.491110
  C 0.906176 0.351464 -2.567869
  H 0.609575 0.463678 -3.597211
  H 4.163376 0.160140 -1.248624
  H 1.548549 0.120408 -0.161720
  H 0.010206 -0.836220 0.107095
  H -0.044871 0.919778 0.156801
  H 3.967343 0.862294 1.448576
  H 4.029006 -0.898588 1.256437
  H 1.913761 -1.103440 2.543314
  H 1.850941 0.648553 2.731277
  H 4.092399 -1.163630 3.764921
  H 2.841250 -0.407039 4.759045
  H 4.056076 0.587609 3.945414
  H 2.787962 -0.520444 -3.099575
  H 2.831559 1.213610 -2.942425
  H 0.512279 1.196937 -2.010353
  H 0.467719 -0.568061 -2.190013
 24
 128.071790
  C 0.525291 0.055535 0.674876
  C 2.515484 0.063646 0.079918
  C 3.285889 -0.022729 1.355089
  C 2.501895 -0.211251 2.652958
  C 3.455365 -0.291966 3.842406
  C 3.031297 0.160541 -1.120772
  C 2.418680 0.282401 -2.487815
  C 0.900504 0.337123 -2.590160
  H 0.621664 0.434663 -3.639066
  H 4.122574 0.116672 -1.197400
  H 1.581739 0.208598 -0.410002
  H 0.119446 -0.823436 0.142036
  H 0.045773 0.934061 0.210305
  H 3.880111 0.893279 1.439853
  H 3.985597 -0.854550 1.254595
  H 1.910169 -1.121830 2.591600
  H 1.809892 0.614410 2.783573
  H 4.126430 -1.144189 3.741820
  H 2.899124 -0.404212 4.765438
  H 4.061373 0.608221 3.916772
  H 2.783080 -0.564937 -3.081463
  H 2.844052 1.186630 -2.945187
  H 0.499412 1.196028 -2.056989
  H 0.444750 -0.569848 -2.205487
 24
 86.675734
  C 0.936464 0.273207 0.350122
  C 2.383352 0.169557 0.313254
  C 3.342512 -0.053589 1.465039
  C 2.578496 -0.279372 2.760711
  C 3.504379 -0.372174 3.954091
  C 2.778781 0.315285 -0.943523
  C 2.259293 0.287904 -2.406071
  C 0.790786 0.170794 -2.857388
  H 0.775462 0.165450 -3.967518
  H 3.870396 0.306389 -1.095972
  H 1.347282 0.455092 -0.838134
  H 0.280776 -0.579630 0.220537
  H 0.423533 1.227619 0.402011
  H 3.974982 0.831477 1.568252
  H 4.040578 -0.889515 1.257849
  H 2.002473 -1.206740 2.650125
  H 1.870988 0.543218 2.878682
  H 4.196855 -1.202922 3.868842
  H 2.956119 -0.510088 4.884851
  H 4.106629 0.540484 4.020704
  H 2.776201 -0.563855 -2.852691
  H 2.681643 1.188042 -2.914728
  H 0.182621 1.023932 -2.587805
  H 0.336357 -0.749239 -2.536267
 24
 85.018124
  C 0.971897 0.531358 0.199556
  C 2.420468 0.287883 0.272530
  C 3.315477 -0.059218 1.423736
  C 2.536062 -0.315588 2.706660
  C 3.459753 -0.471485 3.903171
  C 2.737347 0.560346 -1.015168
  C 2.254786 0.313167 -2.467213
  C 0.826453 -0.098770 -2.797801
  H 0.780418 -0.350109 -3.858762
  H 3.849039 0.645379 -1.183071
  H 1.459946 0.734491 -0.899586
  H 0.312339 -0.303238 0.416850
  H 0.672467 1.485185 0.591535
  H 4.017591 0.768079 1.581067
  H 3.911830 -0.928642 1.164130
  H 1.936343 -1.226025 2.585555
  H 1.847898 0.512958 2.883957
  H 4.066033 -1.375151 3.801772
  H 2.889304 -0.543382 4.826311
  H 4.136703 0.374063 3.977054
  H 2.921675 -0.461144 -2.857796
  H 2.483130 1.227055 -3.019574
  H 0.117286 0.712643 -2.622476
  H 0.523435 -0.965620 -2.230288
 24
 4.633360
  C 0.849062 0.390082 0.345608
  C 2.298541 0.175161 0.083137
  C 3.208160 -0.068287 1.307093
  C 2.488364 -0.270372 2.634373
  C 3.501052 -0.344793 3.789720
  C 2.915986 0.351587 -1.067615
  C 2.455447 0.260169 -2.507078
  C 0.978302 0.031851 -2.836813
  H 0.885951 -0.204937 -3.892682
  H 4.005399 0.352706 -1.040315
  H 0.400122 0.692402 -0.590621
  H 0.357545 -0.473910 0.785205
  H 0.749088 1.240025 1.014135
  H 3.907695 0.775255 1.408754
  H 3.817092 -0.962240 1.101930
  H 1.911056 -1.207674 2.598614
  H 1.789387 0.552246 2.817828
  H 4.099287 -1.242777 3.720177
  H 2.978596 -0.342186 4.748494
  H 4.180071 0.519709 3.763013
  H 3.023428 -0.572817 -2.940617
  H 2.793980 1.160244 -3.030741
  H 0.365546 0.914776 -2.640063
  H 0.566201 -0.806513 -2.268930
