 22
 0.000000
  C 1.002704 0.053235 0.192260
  C 2.505027 0.054613 0.167814
  C 3.295722 -0.017816 1.451442
  C 2.501272 -0.091270 2.753145
  C 3.439174 -0.158957 3.952789
  C 3.119048 0.121738 -1.021745
  H 2.513005 0.172195 -1.915940
  C 4.541588 0.135037 -1.257410
  C 5.076850 0.203689 -2.474149
  H 6.138005 0.212741 -2.634553
  H 0.601411 -0.003489 1.197462
  H 0.619737 -0.796628 -0.371174
  H 0.619740 0.961092 -0.271986
  H 3.946655 0.859787 1.505790
  H 3.946662 -0.895960 1.406720
  H 1.864129 -0.978246 2.753086
  H 1.864116 0.790084 2.852872
  H 4.075626 -1.039397 3.893087
  H 2.870642 -0.211197 4.878511
  H 4.075620 0.722616 3.992504
  H 5.194601 0.086439 -0.396143
  H 4.471139 0.253746 -3.361231
 22
 10.179826
  C 0.996887 0.057488 0.116897
  C 2.495451 0.059611 0.079251
  C 3.357716 -0.018892 1.470526
  C 2.486311 -0.098346 2.878545
  C 3.420348 -0.165954 4.076795
  C 3.108631 0.126397 -1.104299
  H 2.502142 0.176918 -1.999633
  C 4.532366 0.139574 -1.337796
  C 5.069715 0.208134 -2.552905
  H 6.133593 0.217064 -2.711213
  H 0.605474 0.000483 1.127063
  H 0.609544 -0.792772 -0.443392
  H 0.609546 0.965384 -0.344179
  H 4.003743 0.857032 1.525624
  H 4.003751 -0.895452 1.426738
  H 1.850774 -0.983997 2.871465
  H 1.850764 0.782478 2.971146
  H 4.056931 -1.046552 4.018586
  H 2.849052 -0.218095 5.000773
  H 4.056925 0.715606 4.118012
  H 5.182761 0.090910 -0.475368
  H 4.463900 0.258322 -3.442328
 22
 33.190458
  C 0.998582 0.059568 0.080026
  C 2.484194 0.064598 -0.009133
  C 3.432376 -0.019418 1.479852
  C 2.463537 -0.104187 2.982067
  C 3.390008 -0.171348 4.172392
  C 3.098054 0.130705 -1.180654
  H 2.491387 0.181353 -2.078242
  C 4.524846 0.143528 -1.407894
  C 5.069014 0.211887 -2.619419
  H 6.135653 0.220441 -2.771055
  H 0.646371 0.001627 1.106799
  H 0.594271 -0.792319 -0.466476
  H 0.594273 0.967530 -0.367167
  H 4.061391 0.854719 1.536938
  H 4.061394 -0.894420 1.438241
  H 1.833801 -0.986927 2.950016
  H 1.833795 0.776548 3.049527
  H 4.026915 -1.052361 4.117356
  H 2.812297 -0.223297 5.092966
  H 4.026914 0.710270 4.216812
  H 5.167752 0.094602 -0.540805
  H 4.466059 0.262299 -3.512836
