 19
 0.000000
  C 1.005497 0.121814 0.355960
  C 2.473532 0.119221 0.349323
  C 3.207576 0.594377 1.529172
  H 2.536313 0.911973 2.318948
  C 3.120288 -0.340188 -0.792752
  C 4.511360 -0.405169 -0.956220
  C 5.151856 -0.858051 -2.086298
  C 4.546297 -1.351535 -3.318998
  H 3.464715 -1.350026 -3.317214
  H 6.234090 -0.853232 -2.073729
  H 0.593561 0.496669 1.287258
  H 0.626413 -0.885756 0.175004
  H 0.626398 0.723213 -0.472424
  H 3.862515 1.425154 1.263849
  H 3.863277 -0.187940 1.913188
  H 2.489823 -0.668234 -1.607566
  H 5.133898 -0.076387 -0.136795
  H 4.913711 -2.359966 -3.519124
  H 4.914837 -0.760777 -4.159825
 19
 4.903090
  C 1.018855 0.100762 0.303551
  C 2.492863 0.117863 0.345700
  C 3.172460 0.608232 1.563697
  H 2.474973 0.918214 2.335315
  C 3.200192 -0.322750 -0.750081
  C 4.584972 -0.404529 -0.955025
  C 5.187512 -0.872195 -2.121450
  C 4.514353 -1.354759 -3.326797
  H 3.431176 -1.329711 -3.266828
  H 6.271696 -0.884089 -2.150019
  H 0.574920 0.469850 1.220987
  H 0.656119 -0.910219 0.112878
  H 0.655974 0.698075 -0.534031
  H 3.823710 1.447126 1.319631
  H 3.824819 -0.165254 1.968205
  H 2.421891 -0.594232 -1.424540
  H 5.228497 -0.080872 -0.148051
  H 4.852648 -2.372042 -3.544715
  H 4.854127 -0.770226 -4.186892
 19
 15.337876
  C 1.046004 0.081164 0.254065
  C 2.517973 0.114096 0.335064
  C 3.140726 0.612493 1.575863
  H 2.414322 0.912396 2.325497
  C 3.269511 -0.314558 -0.733157
  C 4.634757 -0.405891 -0.960994
  C 5.197139 -0.875236 -2.129936
  C 4.473572 -1.349724 -3.312152
  H 3.394141 -1.306550 -3.206036
  H 6.276939 -0.899003 -2.188441
  H 0.577288 0.446280 1.163903
  H 0.692012 -0.940480 0.059740
  H 0.691526 0.684787 -0.592684
  H 3.795222 1.464436 1.351652
  H 3.797151 -0.157026 2.002018
  H 2.396277 -0.532454 -1.275932
  H 5.292363 -0.087157 -0.166520
  H 4.788134 -2.372216 -3.542186
  H 4.788951 -0.770868 -4.185393
 19
 29.544237
  C 1.056998 0.070423 0.227341
  C 2.523592 0.110574 0.326007
  C 3.105915 0.616525 1.585528
  H 2.362960 0.909862 2.319277
  C 3.318555 -0.313019 -0.729162
  C 4.679590 -0.411800 -0.974769
  C 5.209883 -0.883746 -2.150696
  C 4.452432 -1.345071 -3.300648
  H 3.382209 -1.287035 -3.156685
  H 6.285485 -0.918354 -2.236423
  H 0.582029 0.431634 1.127530
  H 0.706662 -0.948858 0.034826
  H 0.705927 0.673418 -0.616520
  H 3.757841 1.472496 1.375810
  H 3.760191 -0.145616 2.024837
  H 2.367137 -0.483155 -1.153425
  H 5.354563 -0.097370 -0.190438
  H 4.746077 -2.368103 -3.539158
  H 4.746516 -0.771028 -4.180077
 19
 44.237351
  C 1.042046 0.064826 0.213791
  C 2.523350 0.107887 0.319228
  C 3.090773 0.621342 1.596617
  H 2.341931 0.912778 2.325718
  C 3.345387 -0.314615 -0.732327
  C 4.700035 -0.413804 -0.978244
  C 5.221526 -0.889060 -2.163085
  C 4.446651 -1.348030 -3.308678
  H 3.377235 -1.283541 -3.148706
  H 6.299343 -0.927870 -2.258940
  H 0.566455 0.425560 1.112438
  H 0.688970 -0.949855 0.025439
  H 0.687896 0.666875 -0.624084
  H 3.741497 1.476839 1.393319
  H 3.744296 -0.135498 2.040436
  H 2.343692 -0.441348 -1.048716
  H 5.382561 -0.102160 -0.199946
  H 4.731684 -2.373467 -3.550915
  H 4.732297 -0.773964 -4.191973
 19
 58.053476
  C 1.033524 0.065519 0.216765
  C 2.506495 0.104178 0.310350
  C 3.078269 0.620533 1.592072
  H 2.332729 0.912314 2.321582
  C 3.345558 -0.321414 -0.746503
  C 4.706470 -0.417884 -0.984790
  C 5.228386 -0.890677 -2.165363
  C 4.450400 -1.348171 -3.311225
  H 3.381143 -1.281351 -3.146345
  H 6.307508 -0.929900 -2.261212
  H 0.567450 0.431388 1.126606
  H 0.671689 -0.954266 0.033480
  H 0.670586 0.673588 -0.621546
  H 3.727785 1.472024 1.388080
  H 3.731051 -0.132867 2.032959
  H 2.302829 -0.410418 -0.969097
  H 5.390298 -0.107175 -0.206713
  H 4.732779 -2.375285 -3.554781
  H 4.734176 -0.772283 -4.195503
 19
 69.701790
  C 1.008565 0.069708 0.234592
  C 2.489222 0.101366 0.299398
  C 3.079689 0.618941 1.573733
  H 2.343671 0.913770 2.313169
  C 3.327251 -0.335034 -0.772780
  C 4.691303 -0.425246 -0.986341
  C 5.231304 -0.891863 -2.161349
  C 4.468907 -1.346787 -3.317178
  H 3.399259 -1.281733 -3.161683
  H 6.312077 -0.928100 -2.243395
  H 0.564561 0.441678 1.157418
  H 0.635353 -0.946892 0.062710
  H 0.630509 0.679064 -0.594581
  H 3.728694 1.468251 1.361182
  H 3.735857 -0.135997 2.005578
  H 2.258999 -0.385820 -0.907593
  H 5.365227 -0.118511 -0.198993
  H 4.755116 -2.372792 -3.560826
  H 4.760865 -0.766414 -4.195975
 19
 78.736334
  C 0.976549 0.053222 0.266972
  C 2.469309 0.108036 0.276638
  C 3.091683 0.658985 1.529388
  H 2.362118 0.953609 2.280731
  C 3.301270 -0.369817 -0.781437
  C 4.668554 -0.480769 -0.966341
  C 5.233253 -0.909542 -2.141363
  C 4.493018 -1.317429 -3.333186
  H 3.419937 -1.238194 -3.200512
  H 6.309791 -0.960338 -2.197107
  H 0.568974 0.442236 1.195341
  H 0.602912 -0.965904 0.134257
  H 0.565656 0.644011 -0.553183
  H 3.727050 1.519605 1.308563
  H 3.759973 -0.096826 1.943427
  H 2.215128 -0.371188 -0.861637
  H 5.328790 -0.233833 -0.142394
  H 4.763430 -2.341359 -3.605515
  H 4.819078 -0.710356 -4.183035
 19
 81.921675
  C 0.938288 0.016308 0.294647
  C 2.451329 0.105855 0.241389
  C 3.105824 0.737007 1.466840
  H 2.368773 1.030289 2.197939
  C 3.311940 -0.421146 -0.716290
  C 4.672046 -0.589452 -0.929619
  C 5.242077 -0.947679 -2.109972
  C 4.506792 -1.249332 -3.349396
  H 3.436102 -1.134830 -3.231198
  H 6.311250 -1.037687 -2.154103
  H 0.568937 0.456699 1.224176
  H 0.577051 -1.007119 0.245558
  H 0.489370 0.567029 -0.526018
  H 3.702980 1.616522 1.219412
  H 3.783241 -0.004518 1.890680
  H 2.190513 -0.393080 -0.829176
  H 5.316869 -0.460518 -0.066466
  H 4.728768 -2.260690 -3.684086
  H 4.870368 -0.597135 -4.140658
 19
 82.833288
  C 0.931131 -0.022686 0.304142
  C 2.451101 0.107335 0.228176
  C 3.092823 0.825165 1.424954
  H 2.338834 1.128996 2.142000
  C 3.348327 -0.474898 -0.639605
  C 4.687757 -0.709259 -0.886844
  C 5.239028 -1.007801 -2.091819
  C 4.493618 -1.159727 -3.349385
  H 3.427714 -0.983615 -3.220607
  H 6.306172 -1.162770 -2.146133
  H 0.569073 0.456967 1.206025
  H 0.605391 -1.064248 0.325241
  H 0.450212 0.470294 -0.541389
  H 3.649012 1.710224 1.118024
  H 3.790967 0.135146 1.889179
  H 2.198542 -0.421549 -0.791712
  H 5.331030 -0.695555 -0.010112
  H 4.648921 -2.160138 -3.756738
  H 4.898677 -0.469839 -4.091785
 19
 83.814133
  C 0.921099 -0.055435 0.324459
  C 2.440809 0.111208 0.218086
  C 3.084951 0.903665 1.364632
  H 2.336094 1.217502 2.083879
  C 3.354640 -0.532112 -0.591872
  C 4.676783 -0.819983 -0.847004
  C 5.226811 -1.059878 -2.068402
  C 4.491995 -1.070356 -3.342704
  H 3.439867 -0.844126 -3.213823
  H 6.284614 -1.270583 -2.122570
  H 0.563073 0.464015 1.205059
  H 0.628069 -1.103643 0.408615
  H 0.411638 0.377107 -0.536444
  H 3.603674 1.789967 1.002719
  H 3.815040 0.263332 1.846778
  H 2.194132 -0.439821 -0.759154
  H 5.308624 -0.911605 0.034538
  H 4.597467 -2.046549 -3.822439
  H 4.943906 -0.351218 -4.029055
 19
 84.128856
  C 0.904761 -0.079072 0.356519
  C 2.417415 0.116739 0.204595
  C 3.085559 0.970201 1.290676
  H 2.356111 1.284577 2.031511
  C 3.344482 -0.574911 -0.560802
  C 4.647604 -0.912954 -0.816091
  C 5.211613 -1.106769 -2.043612
  C 4.506791 -0.987476 -3.329244
  H 3.464122 -0.711908 -3.207018
  H 6.256730 -1.373603 -2.090032
  H 0.559566 0.467959 1.225516
  H 0.641771 -1.129882 0.489414
  H 0.361669 0.306601 -0.506005
  H 3.552771 1.860222 0.878508
  H 3.860396 0.375561 1.763611
  H 2.178308 -0.430945 -0.749281
  H 5.254734 -1.096468 0.067326
  H 4.571690 -1.931586 -3.873096
  H 5.010825 -0.250994 -3.955897
 19
 84.593162
  C 0.887293 -0.084104 0.377384
  C 2.393864 0.128401 0.195734
  C 3.086967 1.013597 1.242024
  H 2.378741 1.316002 2.009489
  C 3.336681 -0.580362 -0.539461
  C 4.622774 -0.962413 -0.800231
  C 5.198862 -1.137620 -2.028521
  C 4.520223 -0.936060 -3.318265
  H 3.488558 -0.621571 -3.200191
  H 6.230607 -1.447152 -2.068121
  H 0.551946 0.470522 1.247943
  H 0.642832 -1.136767 0.525764
  H 0.323559 0.282791 -0.476853
  H 3.507606 1.912681 0.801941
  H 3.899327 0.448806 1.693074
  H 2.168733 -0.382230 -0.758313
  H 5.209927 -1.196508 0.083747
  H 4.555400 -1.861525 -3.898614
  H 5.062200 -0.194687 -3.910733
 19
 83.320925
  C 0.883714 -0.091372 0.381150
  C 2.381972 0.150559 0.192687
  C 3.079237 1.065831 1.211122
  H 2.385811 1.342153 1.995325
  C 3.354602 -0.559824 -0.504435
  C 4.607091 -0.999664 -0.784820
  C 5.178178 -1.173133 -2.020243
  C 4.519481 -0.891760 -3.302625
  H 3.508810 -0.520006 -3.178605
  H 6.189677 -1.545156 -2.066406
  H 0.542719 0.454456 1.253888
  H 0.662962 -1.147962 0.526557
  H 0.308535 0.266535 -0.469636
  H 3.443992 1.979931 0.756417
  H 3.932530 0.536459 1.643963
  H 2.195424 -0.293466 -0.782323
  H 5.180395 -1.290418 0.093543
  H 4.501130 -1.800761 -3.912714
  H 5.108625 -0.162317 -3.872825
