20

H     -1.959474    1.007453    0.796719
C     -1.383346    0.458692   -0.507251
H     -2.507039    0.242350   -1.522988
C     -0.556432   -0.830422   -0.311296
H     -1.256711   -1.853625    0.583420
C      0.844405   -0.482507    0.230887
C      1.722264   -1.697585    0.535385
N      1.482620    0.355820   -0.717792
C      2.442064    0.523888   -1.408383
O      3.253513    0.827603   -2.171992
O      3.614887    1.883242    0.768554
C      2.623550    2.577642    0.760403
O      1.487554    2.524791    0.325051
H     -0.706821    1.211659   -0.917583
H     -0.411118   -1.280251   -1.302826
H      0.727118    0.110835    1.147600
H      1.312291   -2.264973    1.370686
H      1.792489   -2.340644   -0.333425
H      2.723333   -1.365443    0.804082
H      2.794052    3.596950    1.302726
