18

C -3.452988 1.021722 -0.137394
C -2.030069 0.566433 -0.015824
C -1.653845 -0.516936 0.650947
C -0.243575 -0.998565 0.813996
C 0.784508 -0.119984 0.106001
C 2.215434 -0.599043 0.345487
H 2.527782838220889 -0.3399702831283561 0.11704410314419772
H -4.080928 0.226382 -0.539309
H -3.530464 1.891497 -0.783692
H -3.852671 1.287545 0.842601
H -1.28151 1.173003 -0.507114
H -2.401958 -1.127481 1.144293
H -0.015422 -1.03862 1.885335
H -0.176008 -2.022973 0.432307
H 0.57527 -0.127258 -0.966994
H 0.667569 0.903073 0.473096
H 2.419003 -0.553121 1.41938
H 2.297275 -1.646077 0.04542
