 20
 0.000000
  C 1.041773 0.090429 0.306345
  C 2.516946 0.108859 0.371073
  C 3.216533 0.606982 1.569272
  H 2.543583 0.935238 2.350597
  C 3.189802 -0.357216 -0.747394
  C 4.567589 -0.426900 -0.939983
  C 5.198599 -0.870814 -2.096669
  C 4.537077 -1.348635 -3.329738
  H 3.458136 -1.346411 -3.312587
  O 6.509934 -0.895371 -2.177256
  H 0.575432 0.473805 1.208378
  H 0.686974 -0.927097 0.136595
  H 0.697214 0.680816 -0.546744
  H 3.870645 1.437681 1.297220
  H 3.865994 -0.173856 1.969905
  H 2.560570 -0.689484 -1.561022
  H 5.202589 -0.108995 -0.122598
  H 4.895089 -2.358381 -3.538678
  H 4.888404 -0.737787 -4.163313
  H 6.969020 -0.583364 -1.375177
 20
 -0.234070
  C 1.037981 0.146764 0.312071
  C 2.509559 0.069283 0.358536
  C 3.231168 0.559143 1.548011
  H 2.547920 0.858529 2.335803
  C 3.163791 -0.408829 -0.767191
  C 4.545288 -0.417397 -0.953492
  C 5.204316 -0.860852 -2.097625
  C 4.554589 -1.412146 -3.304995
  H 3.484655 -1.530060 -3.202826
  O 6.511892 -0.805842 -2.184753
  H 0.597687 0.383882 1.274431
  H 0.594504 -0.759374 -0.096616
  H 0.792909 0.948648 -0.390391
  H 3.857498 1.413860 1.289664
  H 3.898382 -0.211148 1.934690
  H 2.540013 -0.788517 -1.562744
  H 5.163363 -0.037870 -0.150569
  H 5.010379 -2.372298 -3.545271
  H 4.769450 -0.758993 -4.151368
  H 6.962938 -0.443487 -1.399203
 20
 -0.676156
  C 1.033400 0.141245 0.336280
  C 2.503113 0.074655 0.339237
  C 3.233809 0.590081 1.515340
  H 2.552511 0.937994 2.284855
  C 3.155716 -0.409785 -0.786294
  C 4.539616 -0.424125 -0.958205
  C 5.207519 -0.892929 -2.087142
  C 4.561533 -1.450178 -3.292436
  H 3.514560 -1.685906 -3.145062
  O 6.516387 -0.849431 -2.162964
  H 0.613407 0.127219 1.337501
  H 0.581509 -0.624353 -0.286479
  H 0.774449 1.106327 -0.117264
  H 3.885760 1.414155 1.232602
  H 3.872246 -0.183931 1.937433
  H 2.535978 -0.783085 -1.586646
  H 5.152102 -0.034601 -0.155003
  H 5.102532 -2.341052 -3.608096
  H 4.658009 -0.733885 -4.106965
  H 6.964235 -0.464094 -1.384269
 20
 5.048614
  C 1.039061 0.144983 0.341227
  C 2.501672 0.094279 0.336531
  C 3.228008 0.487884 1.561672
  H 2.549850 0.887298 2.313127
  C 3.148463 -0.420406 -0.776145
  C 4.526409 -0.347758 -0.995545
  C 5.189130 -0.837021 -2.113336
  C 4.554543 -1.542043 -3.253514
  H 3.530041 -1.827618 -3.063926
  O 6.490281 -0.706421 -2.235291
  H 0.543634 0.252156 1.296467
  H 0.528532 -0.463448 -0.392887
  H 1.066013 1.183865 -0.093387
  H 4.001619 1.230994 1.358125
  H 3.718829 -0.387657 1.981288
  H 2.524123 -0.828268 -1.563140
  H 5.136844 0.110580 -0.232227
  H 5.152592 -2.420596 -3.494849
  H 4.588464 -0.906273 -4.137334
  H 6.918476 -0.189586 -1.530403
 20
 17.914830
  C 1.028583 0.033438 0.428932
  C 2.466001 0.099832 0.302570
  C 3.240565 0.587226 1.488470
  H 2.579927 1.014005 2.241583
  C 3.114095 -0.415490 -0.816545
  C 4.488734 -0.391882 -0.980005
  C 5.170584 -0.832974 -2.105261
  C 4.558736 -1.471664 -3.302552
  H 3.525123 -1.747009 -3.147432
  O 6.473566 -0.727025 -2.178093
  H 0.564511 0.197972 1.385882
  H 0.472179 -0.526135 -0.307176
  H 1.238047 1.086406 -0.036408
  H 3.999155 1.328938 1.229366
  H 3.756080 -0.270874 1.935985
  H 2.506779 -0.881307 -1.586598
  H 5.081066 0.045079 -0.199491
  H 5.145367 -2.363767 -3.556784
  H 4.624680 -0.805027 -4.156221
  H 6.893715 -0.454305 -1.339492
 20
 35.233930
  C 1.003055 0.011297 0.455830
  C 2.417603 0.165406 0.296565
  C 3.227060 0.544163 1.505862
  H 2.581834 0.823649 2.338508
  C 3.091804 -0.380159 -0.833582
  C 4.471729 -0.355352 -1.008271
  C 5.155671 -0.869251 -2.095617
  C 4.544955 -1.540656 -3.272952
  H 3.492222 -1.741761 -3.140301
  O 6.474942 -0.743254 -2.194190
  H 0.509330 0.269093 1.378343
  H 0.426995 -0.469282 -0.315431
  H 1.593029 1.097708 -0.030425
  H 3.904855 1.367563 1.298952
  H 3.824648 -0.310676 1.810951
  H 2.481444 -0.784149 -1.624144
  H 5.078637 0.060095 -0.211165
  H 5.080271 -2.473081 -3.473167
  H 4.687620 -0.912964 -4.154207
  H 6.883938 -0.273949 -1.441194
 20
 40.823864
  C 1.000027 -0.087645 0.495959
  C 2.399988 0.209594 0.296733
  C 3.219279 0.588517 1.518119
  H 2.572627 0.920649 2.324414
  C 3.089666 -0.370357 -0.844450
  C 4.453915 -0.355399 -1.013831
  C 5.137830 -0.872756 -2.109877
  C 4.517748 -1.522613 -3.288254
  H 3.463395 -1.723602 -3.153767
  O 6.455087 -0.811553 -2.179400
  H 0.507365 0.185179 1.408362
  H 0.415493 -0.543771 -0.280542
  H 1.923728 1.156612 -0.141339
  H 3.924540 1.384264 1.297559
  H 3.774123 -0.278923 1.866789
  H 2.461962 -0.803201 -1.607763
  H 5.059235 0.083734 -0.232506
  H 5.045184 -2.450668 -3.501999
  H 4.654958 -0.883268 -4.160357
  H 6.875797 -0.374883 -1.417047
 20
 40.977589
  C 0.986466 -0.109325 0.534361
  C 2.370408 0.214940 0.319967
  C 3.189100 0.631396 1.531878
  H 2.534758 0.947818 2.337620
  C 3.074887 -0.399611 -0.818310
  C 4.434705 -0.370528 -0.992327
  C 5.117813 -0.881152 -2.095551
  C 4.491272 -1.490316 -3.289788
  H 3.434355 -1.683018 -3.165725
  O 6.429430 -0.846738 -2.152504
  H 0.512215 0.101182 1.473642
  H 0.391713 -0.547360 -0.245646
  H 2.175539 1.124995 -0.328393
  H 3.862549 1.451112 1.301799
  H 3.775074 -0.211567 1.888901
  H 2.446325 -0.861713 -1.563998
  H 5.039183 0.063787 -0.207494
  H 5.009314 -2.416979 -3.531661
  H 4.638629 -0.826612 -4.142146
  H 6.859209 -0.431442 -1.381886
 20
 43.884118
  C 0.986613 -0.082867 0.544856
  C 2.356211 0.172900 0.361490
  C 3.177597 0.635533 1.545147
  H 2.527948 0.941683 2.359343
  C 3.054951 -0.382575 -0.817441
  C 4.430645 -0.359197 -0.992036
  C 5.104141 -0.871464 -2.088357
  C 4.474518 -1.477079 -3.285533
  H 3.424026 -1.696423 -3.150944
  O 6.421191 -0.845270 -2.151933
  H 0.510375 0.101326 1.488532
  H 0.378368 -0.478070 -0.248652
  H 2.368831 0.955478 -0.521927
  H 3.819939 1.473273 1.292791
  H 3.799831 -0.181519 1.903873
  H 2.428479 -0.861225 -1.554657
  H 5.033787 0.071170 -0.204552
  H 5.009352 -2.388753 -3.545897
  H 4.594326 -0.797596 -4.129654
  H 6.852528 -0.432374 -1.382203
 20
 40.798274
  C 0.998250 -0.074688 0.562752
  C 2.337408 0.152104 0.391665
  C 3.174786 0.607454 1.553144
  H 2.542563 0.880167 2.392310
  C 3.021649 -0.319929 -0.837765
  C 4.422779 -0.315149 -1.010493
  C 5.093097 -0.855414 -2.086584
  C 4.463715 -1.486039 -3.272598
  H 3.406198 -1.674423 -3.146750
  O 6.414797 -0.841483 -2.148053
  H 0.521302 0.130995 1.502976
  H 0.373235 -0.456259 -0.224940
  H 2.538971 0.859337 -0.717934
  H 3.787934 1.469057 1.303244
  H 3.829565 -0.200283 1.872820
  H 2.398053 -0.824838 -1.561837
  H 5.022149 0.130065 -0.228863
  H 4.979257 -2.418564 -3.494863
  H 4.612523 -0.839437 -4.137549
  H 6.846488 -0.411386 -1.389080
 20
 28.918752
  C 1.026998 -0.094175 0.574633
  C 2.342038 0.137791 0.430577
  C 3.204790 0.554558 1.571404
  H 2.600512 0.766624 2.448147
  C 2.988485 -0.185415 -0.888413
  C 4.415253 -0.234988 -1.040963
  C 5.086980 -0.847489 -2.077048
  C 4.454644 -1.533938 -3.227777
  H 3.392136 -1.690885 -3.100614
  O 6.406380 -0.857152 -2.125888
  H 0.538983 0.061551 1.520536
  H 0.402296 -0.435333 -0.232049
  H 2.644615 0.901861 -0.988860
  H 3.782414 1.446391 1.338235
  H 3.898826 -0.247483 1.816803
  H 2.371971 -0.753489 -1.573881
  H 5.011301 0.240218 -0.274662
  H 4.950987 -2.489246 -3.389636
  H 4.626010 -0.944598 -4.128811
  H 6.842507 -0.393678 -1.388387
 20
 20.316260
  C 1.041960 -0.102745 0.592351
  C 2.357496 0.105089 0.451224
  C 3.236408 0.510001 1.577599
  H 2.657593 0.647597 2.485907
  C 2.952388 -0.094059 -0.914888
  C 4.397494 -0.178692 -1.048500
  C 5.073599 -0.829133 -2.061237
  C 4.442966 -1.542678 -3.194156
  H 3.370434 -1.640772 -3.095544
  O 6.390340 -0.851439 -2.096176
  H 0.552513 0.005554 1.544521
  H 0.413122 -0.399446 -0.229174
  H 2.640949 0.908631 -1.278661
  H 3.750997 1.444285 1.359491
  H 3.988419 -0.257793 1.754855
  H 2.387261 -0.801245 -1.517281
  H 4.990013 0.320861 -0.295027
  H 4.896638 -2.527679 -3.294648
  H 4.672960 -1.010436 -4.117619
  H 6.828833 -0.375834 -1.366965
 20
 19.175340
  C 1.030894 -0.018768 0.603665
  C 2.364217 0.068146 0.476199
  C 3.241120 0.520267 1.585823
  H 2.661348 0.707915 2.484406
  C 2.954401 -0.243653 -0.863173
  C 4.406331 -0.264271 -1.003373
  C 5.086756 -0.814119 -2.070960
  C 4.454324 -1.456949 -3.244751
  H 3.377560 -1.522949 -3.168055
  O 6.402458 -0.793815 -2.127389
  H 0.536295 0.222384 1.528266
  H 0.393510 -0.346578 -0.199329
  H 2.555984 0.608082 -1.445978
  H 3.759842 1.439701 1.317566
  H 3.990415 -0.239146 1.805521
  H 2.471105 -1.113700 -1.313627
  H 4.991682 0.201279 -0.223809
  H 4.877416 -2.451683 -3.380658
  H 4.720703 -0.895287 -4.140171
  H 6.839783 -0.368632 -1.367157
 20
 18.924798
  C 1.030502 -0.021080 0.610173
  C 2.368472 0.029917 0.497084
  C 3.226673 0.639319 1.544384
  H 2.628838 0.998398 2.376294
  C 2.971562 -0.437392 -0.785872
  C 4.427305 -0.437812 -0.919591
  C 5.095206 -0.821096 -2.064736
  C 4.438131 -1.263981 -3.315248
  H 3.360444 -1.308129 -3.236501
  O 6.410339 -0.816574 -2.129288
  H 0.520833 0.412042 1.452946
  H 0.402571 -0.491218 -0.126657
  H 2.526378 0.245546 -1.529211
  H 3.793629 1.474703 1.135361
  H 3.936265 -0.094691 1.924509
  H 2.552508 -1.412146 -1.065377
  H 5.018473 -0.112293 -0.076513
  H 4.829992 -2.240111 -3.599170
  H 4.717991 -0.586509 -4.121935
  H 6.860033 -0.518670 -1.317638
 20
 18.249093
  C 1.025553 -0.013430 0.625121
  C 2.357572 0.077234 0.473840
  C 3.230045 0.634386 1.540358
  H 2.637974 0.994795 2.376159
  C 2.959939 -0.390135 -0.808531
  C 4.418275 -0.410313 -0.928066
  C 5.092321 -0.821665 -2.060111
  C 4.443341 -1.283210 -3.309164
  H 3.370011 -1.374480 -3.222875
  O 6.407664 -0.825194 -2.113947
  H 0.538068 0.308788 1.526833
  H 0.386600 -0.413970 -0.144764
  H 2.539359 0.229269 -1.616293
  H 3.825537 1.460652 1.153455
  H 3.911930 -0.130554 1.910785
  H 2.549501 -1.382037 -1.043216
  H 5.008324 -0.083571 -0.083236
  H 4.875654 -2.238912 -3.605063
  H 4.685203 -0.586615 -4.113003
  H 6.853273 -0.512812 -1.305268
