18

C 0.911307 0.049183 0.267626
C 2.404679 0.061128 0.083961
C 3.242209 -0.011235 1.35478
H 2.73906643968495 -0.06553895432748402 2.297541181076107
C 2.997348 0.12829 -1.122973
C 2.35364 0.205091 -2.495882
C 0.842017 0.217719 -2.714016
H 0.6127501368440745 0.27598458155109085 -3.7575397551034264
H 4.06545101257446 0.13164588679564196 -1.1865708973958835
H 0.605812 -0.006168 1.307515
H 0.467573 -0.820031 -0.213072
H 0.467228 0.963648 -0.118326
H 3.887872 0.873049 1.387691
H 3.888794 -0.892795 1.286503
H 2.74072 -0.644166 -3.070336
H 2.741226 1.112757 -2.97233
H 0.39013 1.079273 -2.223565
H 0.389604 -0.69274 -2.322368
