 19
 0.000000
  H 1.498680 0.141720 0.405317
  C 2.580641 0.134454 0.386359
  C 3.279957 0.613298 1.576253
  C 2.363912 1.065655 2.702509
  H 2.946195 1.407546 3.552469
  C 3.181997 -0.327218 -0.762453
  C 4.568241 -0.408888 -0.965947
  C 5.165907 -0.870422 -2.117299
  C 4.528119 -1.357393 -3.333406
  H 3.444314 -1.353667 -3.325992
  H 6.249912 -0.883583 -2.149177
  H 3.948873 1.437543 1.293411
  H 3.949653 -0.176725 1.942521
  H 1.723389 0.251324 3.032350
  H 1.722672 1.881230 2.377200
  H 2.534164 -0.649227 -1.563931
  H 5.220964 -0.089118 -0.167805
  H 4.893088 -2.368316 -3.539012
  H 4.894229 -0.768681 -4.180096
 19
 4.945553
  H 1.448282 0.161291 0.454607
  C 2.530586 0.139738 0.399726
  C 3.264880 0.614014 1.577442
  C 2.382065 1.074180 2.723774
  H 2.987726 1.410911 3.560627
  C 3.102370 -0.331523 -0.772750
  C 4.475703 -0.421041 -0.995769
  C 5.156149 -0.859507 -2.089737
  C 4.580881 -1.360623 -3.341900
  H 3.498598 -1.365704 -3.357150
  H 6.237928 -0.850776 -2.066525
  H 3.942489 1.425672 1.278268
  H 3.943792 -0.177836 1.923011
  H 1.742049 0.265856 3.071234
  H 1.740858 1.897459 2.415500
  H 2.442487 -0.650232 -1.565812
  H 5.250827 -0.153992 -0.328572
  H 4.960534 -2.365426 -3.540355
  H 4.962053 -0.771477 -4.179018
 19
 15.517316
  H 1.413155 0.174333 0.485836
  C 2.492304 0.145117 0.412234
  C 3.250886 0.610328 1.568184
  C 2.397826 1.080209 2.739604
  H 3.027429 1.411000 3.562752
  C 3.041180 -0.327568 -0.764037
  C 4.408723 -0.423580 -1.003390
  C 5.140406 -0.851149 -2.069413
  C 4.623910 -1.361319 -3.342677
  H 3.535534 -1.380746 -3.393338
  H 6.215858 -0.828839 -2.012615
  H 3.931903 1.408822 1.253526
  H 3.933389 -0.182713 1.893167
  H 1.757703 0.277361 3.103323
  H 1.756846 1.911069 2.447486
  H 2.374747 -0.643163 -1.549508
  H 5.282299 -0.208168 -0.465925
  H 5.024077 -2.365983 -3.527432
  H 5.025423 -0.763485 -4.170191
 19
 29.464043
  H 1.385891 0.183654 0.509021
  C 2.462660 0.149490 0.423070
  C 3.239752 0.609084 1.564697
  C 2.412658 1.080699 2.740921
  H 3.058618 1.408015 3.555190
  C 2.994920 -0.323495 -0.753609
  C 4.360475 -0.421759 -0.998420
  C 5.134779 -0.842768 -2.048237
  C 4.653325 -1.359575 -3.338469
  H 3.571726 -1.388195 -3.412509
  H 6.214803 -0.818357 -1.985786
  H 3.927987 1.410889 1.235808
  H 3.929885 -0.196021 1.881500
  H 1.772623 0.279873 3.114468
  H 1.771373 1.916830 2.457430
  H 2.315816 -0.639486 -1.539802
  H 5.305985 -0.253013 -0.577135
  H 5.061944 -2.354680 -3.513628
  H 5.063664 -0.761895 -4.152515
 19
 44.518188
  H 1.368857 0.189223 0.523217
  C 2.445454 0.151588 0.428876
  C 3.235579 0.608631 1.564023
  C 2.420010 1.084720 2.750466
  H 3.074334 1.409342 3.557890
  C 2.965891 -0.321985 -0.748968
  C 4.326881 -0.419202 -0.991611
  C 5.134481 -0.838315 -2.037387
  C 4.678535 -1.359472 -3.338984
  H 3.603375 -1.392526 -3.424309
  H 6.217332 -0.818378 -1.985645
  H 3.918831 1.402375 1.229637
  H 3.920371 -0.194358 1.871694
  H 1.780860 0.287424 3.130424
  H 1.779828 1.922824 2.473697
  H 2.281908 -0.634698 -1.526513
  H 5.322264 -0.291856 -0.673755
  H 5.092756 -2.350228 -3.509218
  H 5.094485 -0.761761 -4.146463
 19
 57.025048
  H 1.369334 0.190078 0.533540
  C 2.444864 0.151580 0.439766
  C 3.231423 0.609949 1.572791
  C 2.410467 1.091055 2.754176
  H 3.057735 1.416562 3.558892
  C 2.969137 -0.326004 -0.736090
  C 4.331880 -0.420739 -0.982444
  C 5.152433 -0.835829 -2.035295
  C 4.681817 -1.352488 -3.342167
  H 3.596739 -1.377876 -3.420564
  H 6.237709 -0.831926 -2.002402
  H 3.913354 1.403087 1.236717
  H 3.911387 -0.193644 1.886870
  H 1.772878 0.299259 3.133003
  H 1.775709 1.924338 2.473141
  H 2.276137 -0.649786 -1.518963
  H 5.374783 -0.328149 -0.757197
  H 5.090945 -2.357503 -3.510916
  H 5.098362 -0.747813 -4.159003
 19
 63.302043
  H 1.373369 0.209924 0.523595
  C 2.449286 0.182212 0.414899
  C 3.249322 0.629578 1.572487
  C 2.404874 1.044727 2.767577
  H 3.041042 1.351692 3.592968
  C 2.969522 -0.246166 -0.764652
  C 4.323071 -0.367854 -1.059484
  C 5.173122 -0.811772 -2.027930
  C 4.684066 -1.447559 -3.307412
  H 3.609091 -1.521351 -3.324099
  H 6.257407 -0.729979 -2.059082
  H 3.905325 1.458033 1.284347
  H 3.927059 -0.187353 1.853381
  H 1.779018 0.222896 3.107108
  H 1.757576 1.881208 2.514621
  H 2.281432 -0.501725 -1.563209
  H 5.395645 -0.272419 -0.840688
  H 5.113678 -2.435424 -3.478880
  H 5.037751 -0.806964 -4.116398
 19
 66.428725
  H 1.380915 0.271810 0.509518
  C 2.449960 0.225116 0.392658
  C 3.259796 0.611991 1.558931
  C 2.413630 0.998080 2.776095
  H 3.053809 1.265402 3.615019
  C 2.952749 -0.168822 -0.797088
  C 4.295666 -0.307786 -1.117843
  C 5.182061 -0.768758 -2.021266
  C 4.696992 -1.507362 -3.259563
  H 3.603960 -1.631537 -3.242087
  H 6.283466 -0.645124 -2.096895
  H 3.917669 1.438365 1.298107
  H 3.913272 -0.223646 1.812335
  H 1.774975 0.172922 3.085984
  H 1.780601 1.853714 2.552738
  H 2.246047 -0.379297 -1.621263
  H 5.392223 -0.210043 -0.902687
  H 5.166169 -2.474259 -3.363328
  H 4.997790 -0.898475 -4.109839
 19
 68.950208
  H 1.354706 0.341880 0.503352
  C 2.437714 0.271515 0.380205
  C 3.261514 0.594434 1.561326
  C 2.424137 0.957185 2.791101
  H 3.077668 1.181831 3.647401
  C 2.930530 -0.096849 -0.836246
  C 4.264267 -0.247915 -1.168063
  C 5.184558 -0.741292 -2.025755
  C 4.712994 -1.570380 -3.229400
  H 3.663882 -1.737558 -3.188070
  H 6.277753 -0.572674 -2.135268
  H 3.938444 1.419863 1.326385
  H 3.897680 -0.269212 1.790614
  H 1.762595 0.128212 3.073572
  H 1.803288 1.844111 2.596580
  H 2.229649 -0.259961 -1.646494
  H 5.372632 -0.146016 -0.970424
  H 5.237427 -2.537437 -3.289262
  H 4.964079 -0.996780 -4.116344
 19
 70.824858
  H 1.363130 0.398867 0.469639
  C 2.432906 0.308728 0.350607
  C 3.266943 0.566467 1.554688
  C 2.444381 0.905800 2.783233
  H 3.096478 1.080607 3.640891
  C 2.912927 -0.027242 -0.867595
  C 4.244987 -0.183020 -1.203725
  C 5.197919 -0.710352 -2.028813
  C 4.726837 -1.620328 -3.156199
  H 3.669972 -1.834016 -3.066917
  H 6.260082 -0.501620 -2.175709
  H 3.963812 1.378126 1.352984
  H 3.873316 -0.312001 1.757202
  H 1.763674 0.089507 3.032992
  H 1.853069 1.808925 2.618739
  H 2.195644 -0.158621 -1.690239
  H 5.371156 -0.078782 -1.026485
  H 5.286699 -2.556862 -3.181703
  H 4.920119 -1.083507 -4.084946
 19
 71.502533
  H 1.367558 0.470277 0.445099
  C 2.438267 0.355199 0.327033
  C 3.268170 0.524574 1.539850
  C 2.445797 0.847040 2.781133
  H 3.095675 0.959294 3.649540
  C 2.920165 0.054179 -0.910883
  C 4.242845 -0.099483 -1.255018
  C 5.214532 -0.660969 -2.042543
  C 4.723568 -1.685224 -3.067432
  H 3.691314 -1.950705 -2.890181
  H 6.263971 -0.402651 -2.258311
  H 4.001450 1.319349 1.376445
  H 3.841427 -0.392952 1.709592
  H 1.732418 0.052124 2.991942
  H 1.893816 1.777346 2.650960
  H 2.211104 -0.042653 -1.726724
  H 5.389030 0.009971 -1.100976
  H 5.333417 -2.591572 -3.072652
  H 4.820492 -1.203644 -4.038152
 19
 70.640492
  H 1.375144 0.538525 0.420071
  C 2.436109 0.396722 0.301537
  C 3.268151 0.483276 1.519983
  C 2.455732 0.784367 2.775567
  H 3.104338 0.836413 3.643908
  C 2.916868 0.132714 -0.951442
  C 4.225761 -0.041415 -1.303864
  C 5.229058 -0.627352 -2.054100
  C 4.731614 -1.744312 -2.968193
  H 3.734525 -2.064804 -2.693769
  H 6.242003 -0.307624 -2.343431
  H 4.032567 1.258413 1.388902
  H 3.809429 -0.462728 1.653237
  H 1.715757 0.010715 2.953339
  H 1.940213 1.734847 2.684464
  H 2.213315 0.094867 -1.772289
  H 5.397966 0.045696 -1.138853
  H 5.396771 -2.607060 -2.973703
  H 4.717323 -1.315364 -3.971642
 19
 69.356458
  H 1.387800 0.565590 0.401303
  C 2.440544 0.411426 0.285688
  C 3.273505 0.458242 1.507273
  C 2.462705 0.731594 2.771372
  H 3.113109 0.756695 3.643168
  C 2.926700 0.175872 -0.974686
  C 4.219681 -0.030070 -1.335274
  C 5.242284 -0.612331 -2.059438
  C 4.731235 -1.780036 -2.896911
  H 3.770246 -2.129388 -2.549443
  H 6.213730 -0.247464 -2.395550
  H 4.042498 1.231481 1.394488
  H 3.807344 -0.489685 1.619037
  H 1.716579 -0.043607 2.928691
  H 1.950870 1.690140 2.704902
  H 2.225652 0.201679 -1.811402
  H 5.408920 0.008217 -1.136693
  H 5.431826 -2.619056 -2.923440
  H 4.629174 -1.392224 -3.901537
