 18
 0.000000
  C 0.890959 0.052463 0.205963
  C 2.391488 0.058544 0.098157
  C 3.250510 -0.012030 1.348903
  C 2.523416 -0.087535 2.686877
  H 3.254117 -0.132994 3.492504
  C 3.001108 0.125126 -1.081784
  C 2.355706 0.201191 -2.429811
  H 1.271102 0.198605 -2.383936
  H 4.084093 0.127023 -1.115380
  H 0.555151 -0.005570 1.234364
  H 0.476057 -0.801043 -0.329771
  H 0.476060 0.960823 -0.230350
  H 3.902536 0.867066 1.363281
  H 3.902529 -0.887144 1.264296
  H 1.899491 -0.977515 2.746067
  H 1.899471 0.790148 2.845812
  H 2.682828 -0.641662 -3.040988
  H 2.682819 1.107427 -2.942267
 18
 11.258329
  C 0.930462 0.058637 0.096515
  C 2.396538 0.057784 0.111610
  C 3.239133 -0.014400 1.390958
  C 2.502093 -0.089584 2.723357
  H 3.228818 -0.135085 3.529866
  C 2.963288 0.124101 -1.063703
  C 2.304176 0.200296 -2.414051
  H 1.222167 0.197521 -2.364880
  H 4.056027 0.128970 -1.150018
  H 0.871758 -0.000464 1.143883
  H 0.491880 -0.818267 -0.410121
  H 0.491880 0.986971 -0.308257
  H 3.891931 0.861962 1.410286
  H 3.891947 -0.887378 1.311582
  H 1.881000 -0.981157 2.786300
  H 1.881007 0.789222 2.886189
  H 2.625133 -0.643291 -3.023351
  H 2.625147 1.107107 -2.924614
 18
 42.616662
  C 0.919869 0.061067 0.053525
  C 2.403877 0.057478 0.117147
  C 3.230565 -0.014003 1.383828
  C 2.475818 -0.088775 2.708764
  H 3.198002 -0.134945 3.526967
  C 2.942746 0.122317 -1.031998
  C 2.290695 0.198667 -2.385189
  H 1.206733 0.195866 -2.335584
  H 4.039877 0.127762 -1.128518
  H 1.173824 0.005999 1.029054
  H 0.461426 -0.814100 -0.386319
  H 0.461419 0.980175 -0.285043
  H 3.884321 0.865070 1.403645
  H 3.884289 -0.889672 1.304612
  H 1.851483 -0.982461 2.767568
  H 1.851463 0.792643 2.867742
  H 2.613017 -0.643868 -2.990206
  H 2.613007 1.103901 -2.891579
 18
 86.018535
  C 0.842132 0.061834 0.039191
  C 2.409787 0.056411 0.136066
  C 3.252160 -0.014440 1.391940
  C 2.468943 -0.088326 2.701726
  H 3.160690 -0.135510 3.538184
  C 2.924483 0.121064 -1.010621
  C 2.285897 0.197093 -2.356719
  H 1.206882 0.193914 -2.299138
  H 4.021344 0.126451 -1.107573
  H 1.434192 0.014773 0.870573
  H 0.403622 -0.832410 -0.377607
  H 0.403547 0.997330 -0.274066
  H 3.902259 0.867399 1.409794
  H 3.902245 -0.892676 1.310505
  H 1.840614 -0.973563 2.736911
  H 1.840614 0.787337 2.836246
  H 2.612246 -0.649892 -2.959866
  H 2.612361 1.106534 -2.860705
 18
 102.046579
  C 0.334036 0.057057 0.248502
  C 2.643639 0.056778 0.189737
  C 3.402488 -0.019173 1.467943
  C 2.487030 -0.089456 2.691941
  H 3.083263 -0.143487 3.600675
  C 3.089563 0.130022 -1.041824
  C 2.330591 0.193494 -2.322766
  H 1.257019 0.176123 -2.165097
  H 4.163527 0.137732 -1.185373
  H 1.514012 0.039246 0.392098
  H 0.122604 -0.804098 -0.407490
  H 0.132206 0.976471 -0.323973
  H 4.049352 0.857684 1.549417
  H 4.046032 -0.901351 1.445677
  H 1.851905 -0.967371 2.641978
  H 1.854591 0.790028 2.744575
  H 2.607933 -0.651115 -2.954403
  H 2.592949 1.105566 -2.861471
 18
 215.151760
  C 0.710694 -0.153316 0.415181
  C 2.580221 -0.165320 0.057425
  C 3.237958 -0.747140 1.231533
  C 2.249052 -1.105406 2.378705
  H 2.830829 -1.511673 3.252708
  C 2.904487 0.251960 -1.131966
  C 2.148780 1.058703 -2.257274
  H 1.377463 1.692718 -1.833654
  H 3.845582 -0.118714 -1.383398
  H 2.552408 3.365204 1.623457
  H 1.040696 -0.851316 -0.311396
  H 0.599578 0.889077 0.045181
  H 3.972606 0.009070 1.617481
  H 3.785511 -1.670634 0.953409
  H 1.518574 -1.850592 2.054813
  H 1.692587 -0.221099 2.707104
  H 1.663914 0.368817 -2.973778
  H 2.871043 1.705749 -2.822143
 18
 123.082381
  C 0.968978 -0.056341 0.256997
  C 2.389249 -0.091287 0.133977
  C 3.200114 -0.699924 1.273870
  C 2.346891 -1.284505 2.389087
  H 2.980536 -1.692835 3.170122
  C 3.006829 0.377411 -0.956050
  C 2.317138 1.009943 -2.120546
  H 1.415713 1.533588 -1.799652
  H 4.061504 0.160450 -1.080161
  H 2.137421 4.003470 0.183948
  H 0.324740 -0.895766 0.019956
  H 0.424281 0.866645 0.224432
  H 3.830740 0.094834 1.685890
  H 3.868368 -1.483483 0.893341
  H 1.724110 -2.085924 2.016045
  H 1.705608 -0.516721 2.824527
  H 2.025077 0.262044 -2.860010
  H 2.982788 1.726434 -2.598891
 18
 107.344392
  C 0.901163 -0.143912 0.165471
  C 2.292933 -0.060731 0.096840
  C 3.149250 -0.527772 1.262153
  C 2.391422 -1.163724 2.417121
  H 3.085086 -1.434371 3.206648
  C 2.952394 0.448286 -0.983375
  C 2.320251 0.956074 -2.217075
  H 1.374014 1.432955 -2.009548
  H 4.033858 0.432210 -0.967023
  H 2.317489 3.507135 0.431224
  H 0.417379 -0.910835 0.734554
  H 0.280405 0.569084 -0.341069
  H 3.664062 0.371579 1.619644
  H 3.909277 -1.218744 0.905908
  H 1.873724 -2.075673 2.097200
  H 1.659231 -0.469305 2.821415
  H 2.137419 0.133285 -2.911234
  H 2.985924 1.658731 -2.709744
