 16
 0.000000
  C 1.007771 0.133545 0.384825
  C 2.473539 0.134526 0.387118
  C 3.210625 0.607121 1.561775
  H 2.545646 0.927668 2.359751
  C 3.131212 -0.326464 -0.759929
  C 4.524220 -0.393593 -0.928662
  C 5.079524 -0.855556 -2.080943
  H 4.469214 -1.187837 -2.909238
  H 6.148428 -0.907165 -2.210151
  H 0.583960 0.506348 1.312185
  H 0.631610 -0.875129 0.191376
  H 0.631599 0.727808 -0.452833
  H 3.872291 1.433737 1.292275
  H 3.873170 -0.175312 1.939307
  H 2.521034 -0.659950 -1.589558
  H 5.171083 -0.071340 -0.125552
 16
 9.374988
  C 0.977697 0.150682 0.427406
  C 2.430808 0.157304 0.443781
  C 3.175011 0.623069 1.601580
  H 2.518952 0.945339 2.404022
  C 3.166528 -0.355493 -0.832210
  C 4.552799 -0.414623 -0.981292
  C 5.125101 -0.874616 -2.128366
  H 4.527940 -1.209112 -2.961693
  H 6.193983 -0.920731 -2.244018
  H 0.546212 0.521998 1.351071
  H 0.607026 -0.858896 0.229770
  H 0.607048 0.742747 -0.413886
  H 3.838107 1.446462 1.325036
  H 3.839043 -0.161947 1.971665
  H 2.556021 -0.687282 -1.657469
  H 5.188081 -0.088769 -0.169539
 16
 27.938076
  C 0.942387 0.163694 0.459811
  C 2.372732 0.182979 0.507486
  C 3.175943 0.625826 1.608333
  H 2.572319 0.959576 2.440249
  C 3.169398 -0.385001 -0.905858
  C 4.554377 -0.425211 -1.007889
  C 5.163294 -0.874966 -2.129185
  H 4.599912 -1.213652 -2.972835
  H 6.230555 -0.907142 -2.209778
  H 0.492371 0.531066 1.373556
  H 0.585377 -0.844148 0.247019
  H 0.585384 0.744007 -0.391261
  H 3.845054 1.427106 1.293994
  H 3.846390 -0.169357 1.935398
  H 2.528466 -0.706126 -1.704322
  H 5.162012 -0.092735 -0.179567
 16
 48.724911
  C 0.903656 0.174995 0.487971
  C 2.330649 0.205824 0.564108
  C 3.179690 0.634676 1.630310
  H 2.604400 0.980520 2.493217
  C 3.192831 -0.416346 -0.984299
  C 4.551014 -0.438838 -1.041921
  C 5.202331 -0.881015 -2.144027
  H 4.665065 -1.229866 -3.012947
  H 6.277330 -0.898649 -2.188102
  H 0.434330 0.542345 1.401803
  H 0.554893 -0.841354 0.267139
  H 0.554773 0.755811 -0.374726
  H 3.852798 1.429394 1.288464
  H 3.854248 -0.174639 1.932334
  H 2.519589 -0.727583 -1.758093
  H 5.130689 -0.099749 -0.197129
 16
 68.987927
  C 0.866014 0.192917 0.532632
  C 2.282294 0.230518 0.625451
  C 3.157577 0.646906 1.660969
  H 2.614301 1.001245 2.545354
  C 3.207451 -0.446157 -1.059244
  C 4.571276 -0.457787 -1.089455
  C 5.265692 -0.897340 -2.184153
  H 4.754204 -1.253972 -3.071520
  H 6.344643 -0.902084 -2.196271
  H 0.378024 0.557372 1.439906
  H 0.528215 -0.827390 0.304226
  H 0.527898 0.771460 -0.338087
  H 3.831136 1.432644 1.294914
  H 3.832806 -0.172514 1.938831
  H 2.500243 -0.746243 -1.805693
  H 5.130855 -0.113034 -0.231206
 16
 87.797961
  C 0.829490 0.210025 0.575305
  C 2.241388 0.252747 0.680649
  C 3.127649 0.665521 1.707191
  H 2.599659 1.019827 2.591476
  C 3.242682 -0.476065 -1.134014
  C 4.599655 -0.480354 -1.145721
  C 5.316312 -0.917675 -2.234661
  H 4.826295 -1.273235 -3.119189
  H 6.388249 -0.915834 -2.230227
  H 0.332225 0.571501 1.475558
  H 0.499535 -0.806318 0.343748
  H 0.499039 0.783623 -0.294865
  H 3.798701 1.444386 1.335268
  H 3.800565 -0.153157 1.976077
  H 2.530847 -0.772744 -1.872170
  H 5.145455 -0.132623 -0.279977
 16
 103.844322
  C 0.796812 0.228261 0.620746
  C 2.200085 0.275485 0.737414
  C 3.097343 0.680911 1.745738
  H 2.584470 1.040659 2.643160
  C 3.273048 -0.506230 -1.209370
  C 4.627930 -0.502080 -1.200145
  C 5.366504 -0.933418 -2.273800
  H 4.892493 -1.294761 -3.172138
  H 6.441841 -0.922836 -2.247663
  H 0.286508 0.588582 1.518341
  H 0.473597 -0.791671 0.383944
  H 0.473116 0.800957 -0.255619
  H 3.769236 1.455685 1.360726
  H 3.770965 -0.143851 2.002568
  H 2.547419 -0.798628 -1.936743
  H 5.158831 -0.150921 -0.326267
 16
 117.038752
  C 0.759522 0.246723 0.666644
  C 2.160108 0.297515 0.792469
  C 3.066673 0.699535 1.792347
  H 2.569218 1.062180 2.696311
  C 3.307732 -0.536683 -1.284953
  C 4.655645 -0.525031 -1.257347
  C 5.418665 -0.952682 -2.321868
  H 4.965595 -1.315454 -3.223417
  H 6.489427 -0.933936 -2.275892
  H 0.236878 0.604639 1.558291
  H 0.443770 -0.772927 0.425440
  H 0.443413 0.816288 -0.212674
  H 3.737830 1.468667 1.398339
  H 3.739314 -0.127467 2.039160
  H 2.574158 -0.824968 -2.001822
  H 5.172050 -0.170475 -0.375514
 16
 127.518981
  C 0.723754 0.266498 0.715830
  C 2.120469 0.319382 0.847012
  C 3.033442 0.717612 1.837471
  H 2.550537 1.084046 2.750432
  C 3.341686 -0.567539 -1.361542
  C 4.684636 -0.548193 -1.314930
  C 5.471209 -0.970293 -2.365840
  H 5.036297 -1.337573 -3.278560
  H 6.543021 -0.942521 -2.297727
  H 0.189280 0.622834 1.603494
  H 0.414337 -0.754858 0.470325
  H 0.414031 0.834302 -0.167815
  H 3.704644 1.482258 1.433240
  H 3.705934 -0.113305 2.074023
  H 2.596786 -0.851929 -2.068641
  H 5.185935 -0.190401 -0.425241
 16
 135.470479
  C 0.684537 0.287006 0.767019
  C 2.081449 0.340903 0.900591
  C 2.996449 0.738952 1.890608
  H 2.523164 1.107395 2.808487
  C 3.380101 -0.597797 -1.437343
  C 4.718308 -0.572819 -1.376417
  C 5.525686 -0.991239 -2.417813
  H 5.108050 -1.360262 -3.334728
  H 6.594423 -0.956498 -2.332153
  H 0.140067 0.641495 1.650292
  H 0.380848 -0.734757 0.518079
  H 0.380454 0.852753 -0.119291
  H 3.667483 1.500225 1.480588
  H 3.668764 -0.093510 2.120687
  H 2.630527 -0.879567 -2.138019
  H 5.206832 -0.212267 -0.479944
 16
 141.254184
  C 0.644436 0.308686 0.821228
  C 2.042053 0.362845 0.955168
  C 2.954744 0.761912 1.947662
  H 2.486562 1.131414 2.868376
  C 3.420656 -0.627124 -1.510935
  C 4.757530 -0.598103 -1.439382
  C 5.580456 -1.012857 -2.471384
  H 5.174543 -1.384597 -3.395331
  H 6.649938 -0.972586 -2.371519
  H 0.092051 0.661667 1.701028
  H 0.345290 -0.714056 0.569733
  H 0.344678 0.873394 -0.067553
  H 3.625942 1.521643 1.534429
  H 3.627338 -0.071545 2.174236
  H 2.668766 -0.908448 -2.210798
  H 5.235391 -0.235449 -0.537420
 16
 145.399518
  C 0.602565 0.330962 0.876919
  C 2.001779 0.385227 1.010955
  C 2.909486 0.786776 2.009491
  H 2.441502 1.156413 2.930764
  C 3.464006 -0.655288 -1.581515
  C 4.800788 -0.623690 -1.503062
  C 5.634794 -1.035956 -2.528698
  H 5.237847 -1.408677 -3.455376
  H 6.702797 -0.992099 -2.419570
  H 0.044321 0.682789 1.753853
  H 0.306799 -0.692456 0.623803
  H 0.306168 0.894989 -0.013507
  H 3.581017 1.546341 1.596238
  H 3.582628 -0.046464 2.235817
  H 2.714906 -0.937390 -2.283611
  H 5.270575 -0.259456 -0.596907
 16
 148.306262
  C 0.560066 0.354089 0.934700
  C 1.960325 0.408457 1.068899
  C 2.860626 0.812843 2.074391
  H 2.390079 1.182095 2.994664
  C 3.508525 -0.682152 -1.648737
  C 4.846257 -0.648868 -1.565779
  C 5.687666 -1.059043 -2.586046
  H 5.296317 -1.433036 -3.516001
  H 6.755965 -1.012616 -2.470329
  H -0.003081 0.704885 1.809133
  H 0.267309 -0.669974 0.680313
  H 0.266623 0.917706 0.042929
  H 3.532646 1.572910 1.662836
  H 3.534227 -0.019520 2.302336
  H 2.763211 -0.966082 -2.355627
  H 5.309835 -0.283446 -0.656553
 16
 150.266189
  C 0.515784 0.378040 0.994487
  C 1.917068 0.432691 1.129375
  C 2.808764 0.840294 2.142806
  H 2.333473 1.208765 3.061100
  C 3.553384 -0.707578 -1.712306
  C 4.892427 -0.673337 -1.626799
  C 5.738807 -1.082091 -2.643301
  H 5.351441 -1.456671 -3.574645
  H 6.806586 -1.034051 -2.523482
  H -0.051615 0.727899 1.866590
  H 0.225711 -0.646605 0.739032
  H 0.225028 0.941362 0.101540
  H 3.481406 1.601525 1.734264
  H 3.483095 0.009187 2.373809
  H 2.813853 -0.993683 -2.424784
  H 5.351316 -0.306957 -0.715312
