20
 0
 C -0.75166017 -1.46729331 2.16486748
 C -1.55248935 -0.36443441 1.47433097
 C -1.07798232 -0.19007720 0.03510320
 C -3.04998937 -0.66387913 1.51500830
 O -3.49884215 -1.73169312 1.93533180
 C -3.99091608 0.40752918 1.02386806
 H 0.31615743 -1.22509205 2.17721185
 H -0.87566368 -2.42934979 1.65490201
 H -1.07938613 -1.59753998 3.20198866
 H -1.39333973 0.56815558 2.02914048
 H -1.28873071 -1.08349757 -0.56275547
 H 0.00000000 0.00000000 0.00000000
 H -1.57740893 0.65439039 -0.45053828
 H -3.45365042 1.33608099 0.81685288
 H -4.73704000 0.61148069 1.79624575
 H -4.47904696 0.06472860 0.10818655
 O 2.97448175 0.17182727 0.05419364
 H 3.16860763 1.14219312 0.10707899
 H 2.00000000 0.00000000 0.00000000
 H 3.38777450 -0.32165329 0.80766988
