 20
 0.000000
  C -0.762852 -1.479598 2.183571
  C -1.552102 -0.373370 1.486696
  C -1.083108 -0.191427 0.041347
  C -3.035981 -0.669608 1.513283
  O -3.478242 -1.726664 1.918757
  C -3.954062 0.414152 1.013569
  H 0.294998 -1.242739 2.210456
  H -0.891291 -2.431023 1.671574
  H -1.106341 -1.608730 3.207677
  H -1.401853 0.560334 2.040238
  H -1.292553 -1.082044 -0.547529
  H -0.015246 0.000640 0.001573
  H -1.587225 0.645719 -0.435475
  H -3.415478 1.337177 0.818041
  H -4.714163 0.608100 1.765747
  H -4.434390 0.077639 0.098660
  O 2.956924 0.188271 0.037789
  H 3.144015 1.150604 0.101430
  H 1.994613 0.013850 -0.011049
  H 3.375211 -0.309409 0.772334
 20
 0.885490
  C -0.724221 -1.490210 2.203264
  C -1.492001 -0.375382 1.494324
  C -1.026258 -0.198393 0.050481
  C -2.970300 -0.663074 1.494815
  O -3.420077 -1.726524 1.875095
  C -3.863880 0.442367 0.990779
  H 0.333809 -1.261102 2.264119
  H -0.860900 -2.434581 1.680309
  H -1.107340 -1.621523 3.214004
  H -1.360038 0.565847 2.039973
  H -1.233957 -1.095245 -0.517886
  H 0.052458 -0.012490 0.012330
  H -1.532410 0.629023 -0.424756
  H -3.329125 1.370703 0.826481
  H -4.662019 0.603432 1.712353
  H -4.333831 0.118497 0.064304
  O 2.731262 0.193650 0.037975
  H 2.916942 1.151019 0.138379
  H 1.755428 0.024340 -0.005012
  H 3.161493 -0.339608 0.740296
 20
 2.685656
  C -0.672897 -1.481023 2.210239
  C -1.436480 -0.365754 1.491484
  C -0.966152 -0.194311 0.044131
  C -2.927188 -0.659467 1.482673
  O -3.384816 -1.724083 1.853449
  C -3.822495 0.454498 0.977891
  H 0.386764 -1.239265 2.289887
  H -0.794503 -2.425131 1.682556
  H -1.066579 -1.619068 3.211173
  H -1.313256 0.573097 2.038164
  H -1.172692 -1.099368 -0.520317
  H 0.107249 -0.002391 0.014601
  H -1.484254 0.630092 -0.438369
  H -3.289903 1.385297 0.831272
  H -4.633574 0.601118 1.687010
  H -4.279690 0.137842 0.038654
  O 2.534932 0.171984 0.061521
  H 2.731621 1.124780 0.223036
  H 1.550888 0.023511 0.010594
  H 2.949861 -0.416117 0.714444
 20
 6.252862
  C -0.637033 -1.877695 1.620047
  C -1.368789 -0.550043 1.457821
  C -1.007833 0.148403 0.146104
  C -2.877926 -0.769514 1.454900
  O -3.372566 -1.884597 1.395848
  C -3.720450 0.472619 1.531205
  H 0.429847 -1.727605 1.737907
  H -0.823263 -2.521063 0.763767
  H -1.003862 -2.398011 2.502127
  H -1.172212 0.104804 2.312105
  H -1.230722 -0.487810 -0.706690
  H 0.077108 0.335316 0.116513
  H -1.505282 1.107400 0.048881
  H -3.142796 1.361145 1.757121
  H -4.490977 0.330893 2.286341
  H -4.242392 0.597702 0.583886
  O 2.340705 0.459802 0.016425
  H 2.640180 1.200235 0.579497
  H 1.311376 0.336471 0.044109
  H 2.789242 -0.369001 0.273392
 20
 19.819518
  C -0.625707 -1.813681 1.742216
  C -1.372758 -0.512935 1.460948
  C -1.025994 0.071475 0.104159
  C -2.882357 -0.744770 1.487402
  O -3.352734 -1.857394 1.527871
  C -3.734617 0.492308 1.472112
  H 0.439927 -1.642648 1.831950
  H -0.806381 -2.538426 0.951562
  H -0.978469 -2.249620 2.673112
  H -1.176183 0.212130 2.258021
  H -1.192499 -0.623542 -0.714194
  H 0.100174 0.286314 0.063198
  H -1.497548 1.032778 -0.075550
  H -3.161121 1.398325 1.615550
  H -4.498721 0.410678 2.241578
  H -4.261811 0.534204 0.516331
  O 2.367184 0.448667 0.021834
  H 2.674382 1.083754 0.694820
  H 1.132673 0.307716 0.001951
  H 2.822244 -0.395587 0.171892
 20
 33.675748
  C -0.633104 -1.785306 1.775711
  C -1.395015 -0.499884 1.456855
  C -1.063401 0.053461 0.090029
  C -2.911053 -0.748489 1.487223
  O -3.362018 -1.872403 1.559276
  C -3.772893 0.469734 1.445187
  H 0.430537 -1.592962 1.855301
  H -0.801736 -2.534323 1.003327
  H -0.973666 -2.202371 2.721350
  H -1.200028 0.236539 2.244423
  H -1.196442 -0.648394 -0.725981
  H 0.132713 0.276061 0.040472
  H -1.520749 1.021660 -0.103402
  H -3.206677 1.388890 1.557498
  H -4.533422 0.407475 2.220700
  H -4.311248 0.476927 0.491158
  O 2.497191 0.471928 0.064944
  H 2.758571 1.069182 0.776386
  H 1.069129 0.298723 -0.016548
  H 2.936335 -0.381880 0.207336
 20
 37.876515
  C -0.652040 -1.769585 1.826235
  C -1.415879 -0.492520 1.481827
  C -1.079471 0.017306 0.089812
  C -2.936370 -0.733873 1.492602
  O -3.383245 -1.858631 1.591998
  C -3.790569 0.491373 1.401917
  H 0.410954 -1.565294 1.911989
  H -0.804531 -2.530592 1.067646
  H -0.991331 -2.165324 2.778908
  H -1.223367 0.270248 2.247395
  H -1.175557 -0.727221 -0.693816
  H 0.109304 0.215231 0.047672
  H -1.510167 0.981753 -0.151783
  H -3.221653 1.411591 1.511676
  H -4.555322 0.450521 2.179232
  H -4.315727 0.482421 0.447661
  O 2.554103 0.474254 0.062239
  H 2.805518 1.109878 0.746454
  H 1.043033 0.206918 0.002815
  H 3.029762 -0.353502 0.218293
 20
 43.060292
  C -0.706638 -1.779905 1.898231
  C -1.436324 -0.512781 1.496385
  C -1.100953 -0.045568 0.107004
  C -2.967304 -0.729696 1.500606
  O -3.432625 -1.838525 1.635174
  C -3.790457 0.515080 1.359562
  H 0.356451 -1.579482 2.001925
  H -0.847349 -2.562711 1.161526
  H -1.069713 -2.139630 2.855175
  H -1.298447 0.284463 2.232334
  H -1.161282 -0.808862 -0.661518
  H 0.116435 0.176149 0.090349
  H -1.503752 0.920586 -0.176451
  H -3.205637 1.429748 1.436300
  H -4.575335 0.511062 2.116127
  H -4.300659 0.480490 0.395836
  O 2.648935 0.539149 0.021423
  H 2.918625 1.174440 0.694311
  H 1.033186 0.150568 0.069771
  H 3.178863 -0.260791 0.121273
 20
 45.202057
  C -0.775934 -1.790181 1.992748
  C -1.467547 -0.504677 1.541316
  C -1.048502 -0.090992 0.168227
  C -2.992759 -0.705153 1.508336
  O -3.500257 -1.791051 1.649634
  C -3.828079 0.525558 1.299945
  H 0.287657 -1.621690 2.119273
  H -0.941618 -2.578840 1.261769
  H -1.190680 -2.120885 2.942952
  H -1.314062 0.296922 2.273397
  H -1.145380 -0.877481 -0.572726
  H 0.167566 0.107160 0.142874
  H -1.425483 0.871151 -0.172681
  H -3.249796 1.443507 1.363784
  H -4.621049 0.529649 2.039895
  H -4.310947 0.454139 0.329176
  O 2.740216 0.573404 -0.094319
  H 3.022151 1.298366 0.470035
  H 1.075776 0.086584 0.126593
  H 3.337951 -0.174904 0.041645
 20
 45.842954
  C -0.767845 -1.734476 2.039136
  C -1.463441 -0.491199 1.512740
  C -1.079778 -0.150320 0.108778
  C -3.001110 -0.703566 1.485333
  O -3.476215 -1.806122 1.625476
  C -3.808309 0.540214 1.302460
  H 0.296303 -1.549612 2.157779
  H -0.908770 -2.574142 1.362369
  H -1.177098 -2.015196 3.008312
  H -1.325372 0.349547 2.198584
  H -1.085194 -0.993819 -0.578887
  H 0.076315 0.090305 0.114028
  H -1.475589 0.786328 -0.270562
  H -3.226265 1.448072 1.391008
  H -4.621477 0.546535 2.021484
  H -4.276606 0.498357 0.322591
  O 2.750378 0.506757 -0.065793
  H 3.039745 1.277837 0.436933
  H 1.015779 0.126677 0.133907
  H 3.319881 -0.224023 0.209009
 20
 49.083445
  C -0.792472 -1.695737 2.083773
  C -1.505993 -0.471217 1.526759
  C -1.145435 -0.148967 0.133275
  C -3.052159 -0.711136 1.492932
  O -3.492314 -1.805969 1.704839
  C -3.873846 0.505271 1.259672
  H 0.265911 -1.482452 2.209267
  H -0.910103 -2.553579 1.426209
  H -1.206267 -1.965900 3.053448
  H -1.399770 0.383509 2.200072
  H -1.120792 -0.985620 -0.555525
  H 0.094690 0.112227 0.126970
  H -1.513371 0.785265 -0.288150
  H -3.305690 1.425166 1.299369
  H -4.683103 0.531035 1.989683
  H -4.356411 0.406643 0.283663
  O 2.970471 0.488677 -0.096483
  H 3.279990 1.226066 0.429695
  H 1.055365 0.152528 0.148449
  H 3.499038 -0.282799 0.147932
 20
 53.283039
  C -0.830812 -1.652415 2.155396
  C -1.546557 -0.454388 1.555881
  C -1.188710 -0.183618 0.156281
  C -3.109513 -0.718991 1.496320
  O -3.533792 -1.819402 1.719669
  C -3.935103 0.484016 1.213536
  H 0.222917 -1.420239 2.282979
  H -0.922589 -2.525978 1.519526
  H -1.248865 -1.899289 3.125516
  H -1.478109 0.427875 2.206759
  H -1.100241 -1.035031 -0.508917
  H 0.093538 0.094738 0.153915
  H -1.545253 0.745416 -0.294562
  H -3.372025 1.408818 1.235962
  H -4.752234 0.527032 1.921156
  H -4.388006 0.359545 0.235381
  O 3.168160 0.472601 -0.146159
  H 3.519095 1.207756 0.367918
  H 1.057671 0.155481 0.189171
  H 3.719533 -0.284324 0.058429
 20
 58.685319
  C -0.888130 -1.621997 2.222345
  C -1.582802 -0.448595 1.557759
  C -1.237161 -0.219294 0.177614
  C -3.152446 -0.728327 1.458281
  O -3.557265 -1.844868 1.659189
  C -3.975750 0.478000 1.192230
  H 0.159556 -1.368719 2.369093
  H -0.949493 -2.523858 1.626401
  H -1.334858 -1.830020 3.188045
  H -1.542701 0.438208 2.186249
  H -1.115657 -1.083158 -0.462405
  H 0.205360 0.073178 0.180161
  H -1.571368 0.702678 -0.299694
  H -3.420177 1.404235 1.239406
  H -4.817941 0.504392 1.894941
  H -4.424103 0.364542 0.200748
  O 3.360995 0.452154 -0.200288
  H 3.724086 1.264408 0.191575
  H 1.102746 0.131941 0.221357
  H 3.926358 -0.272172 0.097621
 20
 64.468547
  C -0.987482 -1.625519 2.306717
  C -1.645386 -0.467861 1.587404
  C -1.319773 -0.299538 0.200504
  C -3.252009 -0.729034 1.451752
  O -3.640355 -1.827545 1.706270
  C -4.038394 0.486813 1.147644
  H 0.058460 -1.382267 2.474581
  H -1.042745 -2.544460 1.732590
  H -1.459936 -1.801125 3.269903
  H -1.631858 0.439317 2.192288
  H -1.120033 -1.169868 -0.414157
  H 0.380759 0.072256 0.205024
  H -1.624179 0.602968 -0.326528
  H -3.465779 1.408215 1.198896
  H -4.892211 0.534157 1.825839
  H -4.451640 0.372860 0.140447
  O 3.666012 0.526640 -0.280537
  H 4.038443 1.331841 0.117508
  H 1.212482 0.131710 0.262059
  H 4.256500 -0.205175 -0.033612
 20
 65.665597
  C -1.103465 -1.694915 2.400998
  C -1.637181 -0.497747 1.656758
  C -1.311398 -0.354696 0.295854
  C -3.305359 -0.721055 1.371024
  O -3.687530 -1.826404 1.511418
  C -4.019324 0.527542 1.110617
  H -0.063284 -1.504573 2.658875
  H -1.149325 -2.598584 1.796944
  H -1.656471 -1.864526 3.319865
  H -1.679936 0.403461 2.267042
  H -1.017976 -1.219442 -0.282737
  H 0.427876 0.055312 0.282072
  H -1.556220 0.547041 -0.246617
  H -3.437148 1.424182 1.278434
  H -4.926531 0.544637 1.714652
  H -4.349629 0.507824 0.067461
  O 3.733094 0.616293 -0.411084
  H 4.142138 1.435100 -0.114399
  H 1.255469 0.148246 0.342117
  H 4.383078 -0.073313 -0.254705
