20
 0
 C -0.67483325 -2.59512066 -0.69249663
 C -1.78392258 -1.60177390 -0.34949680
 C -2.59077228 -2.10322221 0.84401778
 C -1.21167351 -0.21365055 -0.06758780
 O 0.00000000 0.00000000 0.00000000
 C -2.18817615 0.91972673 0.12313745
 H -1.09267858 -3.57602355 -0.94206237
 H 0.01809726 -2.72481612 0.14656279
 H -0.09197868 -2.24863587 -1.55285568
 H -2.43960134 -1.51049779 -1.22392251
 H -1.97724711 -2.13775973 1.75090469
 H -2.98200080 -3.10866417 0.65577813
 H -3.44503960 -1.45072560 1.05108207
 H -3.20839642 0.60005596 -0.10198321
 H -1.92933454 1.73483066 -0.55764962
 H -2.14134815 1.26368825 1.15935858
 O 3.27448175 0.17182727 0.05419364
 H 3.46860763 1.14219312 0.10707899
 H 2.30000000 0.00000000 0.00000000
 H 3.68777450 -0.32165329 0.80766988
