 20
 0.000000
  C -0.670479 -2.594494 -0.697460
  C -1.772114 -1.595214 -0.352524
  C -2.583477 -2.084848 0.848714
  C -1.203915 -0.222791 -0.071122
  O -0.006171 -0.014179 -0.003501
  C -2.184838 0.897604 0.120904
  H -1.097295 -3.563911 -0.941882
  H 0.012473 -2.725108 0.138666
  H -0.093719 -2.253238 -1.554647
  H -2.433117 -1.497526 -1.221100
  H -1.966061 -2.124619 1.744123
  H -2.976385 -3.080539 0.659830
  H -3.426860 -1.429231 1.055711
  H -3.199721 0.581044 -0.102750
  H -1.923996 1.717341 -0.544370
  H -2.136711 1.240138 1.151656
  O 3.257137 0.171616 0.057972
  H 3.441414 1.133470 0.113729
  H 2.293242 -0.000820 0.002599
  H 3.662552 -0.314915 0.807179
 20
 -1.648179
  C -0.663957 -2.622707 -0.714901
  C -1.734737 -1.596019 -0.359231
  C -2.546736 -2.063350 0.855387
  C -1.141869 -0.234913 -0.076176
  O 0.058537 -0.046645 -0.011120
  C -2.113592 0.890292 0.120082
  H -1.126520 -3.575541 -0.952650
  H 0.012096 -2.769417 0.121304
  H -0.092691 -2.294812 -1.577606
  H -2.412119 -1.477487 -1.212774
  H -1.910616 -2.126920 1.734329
  H -2.960267 -3.048484 0.660034
  H -3.368055 -1.388755 1.073378
  H -3.132411 0.596573 -0.103905
  H -1.830523 1.723199 -0.518886
  H -2.056521 1.232829 1.150936
  O 3.107412 0.175367 0.069285
  H 3.269101 1.142316 0.088629
  H 2.141784 -0.002190 0.013834
  H 3.493267 -0.269776 0.853080
 20
 -2.307882
  C -0.599032 -2.567712 -0.609935
  C -1.701844 -1.561999 -0.273335
  C -2.483014 -2.010432 0.973146
  C -1.150810 -0.174614 -0.043809
  O 0.044354 0.041942 0.025580
  C -2.153661 0.928843 0.123575
  H -1.035712 -3.543139 -0.814761
  H 0.089382 -2.668195 0.225119
  H -0.047514 -2.248115 -1.490049
  H -2.400459 -1.494750 -1.117757
  H -1.829315 -2.031406 1.843215
  H -2.873356 -3.013985 0.815969
  H -3.319696 -1.350559 1.183555
  H -3.167109 0.604105 -0.086969
  H -1.891660 1.756303 -0.535211
  H -2.100386 1.304544 1.145630
  O 2.975550 0.319293 0.048238
  H 3.158097 0.794025 0.892977
  H 1.999502 0.188611 -0.058707
  H 3.439160 -0.550373 0.020178
 20
 -2.710580
  C -0.566479 -2.578009 -0.593286
  C -1.672236 -1.581367 -0.256898
  C -2.474842 -2.056234 0.962315
  C -1.131729 -0.198402 0.022894
  O 0.058896 0.020566 0.150324
  C -2.142138 0.895557 0.166457
  H -1.000740 -3.544914 -0.832380
  H 0.100169 -2.702100 0.255234
  H 0.003228 -2.237864 -1.453360
  H -2.354385 -1.495981 -1.109750
  H -1.836194 -2.101289 1.841650
  H -2.864849 -3.052994 0.773201
  H -3.312386 -1.398317 1.174290
  H -3.143470 0.572188 -0.094185
  H -1.853289 1.737561 -0.460126
  H -2.131954 1.250832 1.196068
  O 2.920860 0.361473 0.153579
  H 3.223275 -0.174963 0.916008
  H 1.938024 0.295647 0.071073
  H 3.345939 0.069393 -0.680332
 20
 -2.443868
  C -0.623796 -2.451047 -0.866462
  C -1.702008 -1.505801 -0.345020
  C -2.485266 -2.159205 0.801488
  C -1.123063 -0.192937 0.137545
  O 0.078398 -0.041672 0.265373
  C -2.102929 0.876646 0.495069
  H -1.081909 -3.358148 -1.250860
  H 0.059029 -2.721472 -0.066098
  H -0.063848 -1.982857 -1.671468
  H -2.403235 -1.273351 -1.154425
  H -1.826735 -2.357682 1.644317
  H -2.899540 -3.105819 0.463898
  H -3.304755 -1.531752 1.139205
  H -3.118024 0.616143 0.218770
  H -1.816375 1.807067 0.007738
  H -2.054351 1.053511 1.568778
  O 2.945215 0.276351 0.140692
  H 3.285573 -0.637883 0.234572
  H 1.957225 0.265862 0.152908
  H 3.255097 0.682742 -0.696982
 20
 -2.627066
  C -0.708210 -2.285365 -1.168649
  C -1.730489 -1.423242 -0.433173
  C -2.506126 -2.261690 0.592434
  C -1.084759 -0.256701 0.280505
  O 0.126234 -0.165249 0.404795
  C -2.011361 0.763249 0.863583
  H -1.214673 -3.082813 -1.705868
  H -0.015377 -2.732945 -0.460839
  H -0.153541 -1.688273 -1.887093
  H -2.444654 -1.011541 -1.154922
  H -1.831162 -2.646548 1.354010
  H -2.971523 -3.107148 0.091749
  H -3.286306 -1.683325 1.078807
  H -3.040937 0.602118 0.565889
  H -1.693035 1.759253 0.561429
  H -1.937152 0.724607 1.949638
  O 2.960165 0.197069 0.259436
  H 3.278994 -0.575280 -0.256269
  H 1.974003 0.158162 0.339356
  H 3.224514 1.042037 -0.167696
 20
 -2.852082
  C -0.717051 -2.356969 -1.126574
  C -1.731365 -1.450734 -0.435779
  C -2.537941 -2.237470 0.606241
  C -1.070842 -0.270276 0.244580
  O 0.146587 -0.217587 0.375435
  C -1.981277 0.782707 0.785297
  H -1.232262 -3.160816 -1.644993
  H -0.040908 -2.793440 -0.396283
  H -0.139599 -1.795499 -1.855527
  H -2.427957 -1.051199 -1.181444
  H -1.881315 -2.610406 1.389294
  H -3.013658 -3.089879 0.128125
  H -3.312903 -1.627644 1.061178
  H -3.010065 0.632960 0.479449
  H -1.638891 1.763080 0.458332
  H -1.922074 0.773186 1.873087
  O 2.960807 0.184830 0.248058
  H 3.244413 -0.316776 -0.543901
  H 1.971690 0.108774 0.347241
  H 3.210740 1.129907 0.173831
 20
 -3.580277
  C -0.744424 -2.428320 -1.112763
  C -1.732966 -1.478315 -0.442860
  C -2.541494 -2.211663 0.636491
  C -1.043897 -0.291805 0.189831
  O 0.167017 -0.240116 0.306374
  C -1.927787 0.800350 0.700213
  H -1.280834 -3.240226 -1.596188
  H -0.067596 -2.852500 -0.375763
  H -0.165191 -1.905117 -1.868263
  H -2.430562 -1.091568 -1.193787
  H -1.881911 -2.571908 1.422981
  H -3.041976 -3.069084 0.194196
  H -3.296216 -1.569349 1.080716
  H -2.960483 0.668295 0.399426
  H -1.561882 1.762211 0.346005
  H -1.867818 0.819982 1.787798
  O 2.912466 0.224442 0.271122
  H 3.210708 -0.135861 -0.588592
  H 1.931908 0.101484 0.359274
  H 3.135352 1.174647 0.353659
 20
 -4.136913
  C -0.752036 -2.471333 -1.104606
  C -1.729014 -1.496936 -0.452559
  C -2.538811 -2.196969 0.647981
  C -1.025622 -0.303769 0.147912
  O 0.187258 -0.256041 0.255341
  C -1.894365 0.810310 0.638431
  H -1.297456 -3.288917 -1.568001
  H -0.076108 -2.885434 -0.361009
  H -0.169994 -1.970912 -1.873482
  H -2.426714 -1.121481 -1.209015
  H -1.878306 -2.547187 1.438186
  H -3.051377 -3.058326 0.227858
  H -3.283352 -1.536304 1.082268
  H -2.928960 0.687232 0.340096
  H -1.515911 1.760910 0.267876
  H -1.834803 0.847721 1.725655
  O 2.854800 0.278467 0.312451
  H 3.186990 -0.065553 -0.540829
  H 1.872968 0.119895 0.375019
  H 3.045100 1.233870 0.408333
 20
 -4.504760
  C -0.781993 -2.533528 -1.096117
  C -1.732068 -1.521869 -0.460702
  C -2.543018 -2.173503 0.668457
  C -0.994071 -0.331549 0.099024
  O 0.220314 -0.314077 0.195635
  C -1.827127 0.819083 0.564925
  H -1.347525 -3.354831 -1.527652
  H -0.102836 -2.937124 -0.349544
  H -0.199792 -2.067223 -1.886360
  H -2.430480 -1.152037 -1.219024
  H -1.880032 -2.519479 1.458430
  H -3.081906 -3.032481 0.277616
  H -3.265166 -1.483558 1.094954
  H -2.865645 0.718546 0.271578
  H -1.424512 1.750259 0.171819
  H -1.765597 0.878704 1.651101
  O 2.788022 0.355941 0.354034
  H 3.150651 0.071584 -0.508064
  H 1.807668 0.147337 0.390826
  H 2.937594 1.310585 0.506506
 20
 -4.592942
  C -0.837837 -2.618121 -1.091334
  C -1.740001 -1.554553 -0.470896
  C -2.554754 -2.141594 0.690626
  C -0.943272 -0.382315 0.042226
  O 0.272901 -0.422557 0.119349
  C -1.715780 0.818443 0.483595
  H -1.437841 -3.433869 -1.484803
  H -0.156283 -3.019227 -0.345360
  H -0.254134 -2.197400 -1.906112
  H -2.436916 -1.179241 -1.227667
  H -1.890775 -2.494087 1.476898
  H -3.136141 -2.987358 0.333267
  H -3.239251 -1.410618 1.111158
  H -2.760681 0.756620 0.202263
  H -1.278832 1.720226 0.060487
  H -1.643746 0.903534 1.567365
  O 2.702354 0.477046 0.410304
  H 3.104004 0.293430 -0.461684
  H 1.734618 0.184810 0.401118
  H 2.781568 1.421293 0.650075
 20
 -4.202782
  C -0.900241 -2.704637 -1.083008
  C -1.739355 -1.581958 -0.478844
  C -2.565370 -2.097059 0.708796
  C -0.876121 -0.441729 -0.005917
  O 0.338048 -0.549540 0.054244
  C -1.574890 0.810028 0.411987
  H -1.544541 -3.501392 -1.443688
  H -0.225069 -3.117139 -0.337151
  H -0.309534 -2.335454 -1.917918
  H -2.427883 -1.190968 -1.235372
  H -1.908109 -2.465233 1.493316
  H -3.195057 -2.919401 0.380618
  H -3.204238 -1.321136 1.120778
  H -2.625310 0.797352 0.144098
  H -1.098230 1.676058 -0.040819
  H -1.487781 0.918346 1.492391
  O 2.574104 0.617436 0.462499
  H 3.022182 0.509071 -0.398545
  H 1.629397 0.220647 0.401741
  H 2.564476 1.551446 0.746681
 20
 -3.236676
  C -0.957933 -2.780172 -1.064268
  C -1.725117 -1.595927 -0.482874
  C -2.573891 -2.032978 0.721447
  C -0.796938 -0.498016 -0.040384
  O 0.413189 -0.682478 0.004410
  C -1.411927 0.798791 0.358555
  H -1.650891 -3.545926 -1.401386
  H -0.302380 -3.214632 -0.313398
  H -0.351567 -2.467800 -1.910963
  H -2.395553 -1.183309 -1.244139
  H -1.935316 -2.421216 1.511614
  H -3.251728 -2.824637 0.414503
  H -3.164826 -1.212165 1.116435
  H -2.465163 0.843489 0.106589
  H -0.893057 1.625996 -0.120277
  H -1.303323 0.925498 1.435496
  O 2.396123 0.737522 0.487013
  H 2.888612 0.717243 -0.353657
  H 1.487366 0.207146 0.374554
  H 2.287287 1.648582 0.813527
 20
 -0.606121
  C -0.967610 -2.809489 -1.024549
  C -1.715320 -1.595516 -0.480859
  C -2.591238 -1.984090 0.723488
  C -0.781615 -0.509236 -0.052364
  O 0.433210 -0.737779 -0.003540
  C -1.347137 0.802246 0.325354
  H -1.674336 -3.565524 -1.353836
  H -0.332890 -3.243770 -0.256166
  H -0.342954 -2.531749 -1.869707
  H -2.369984 -1.186824 -1.257714
  H -1.972912 -2.366920 1.531501
  H -3.279140 -2.768696 0.422786
  H -3.171522 -1.142771 1.088635
  H -2.398013 0.886770 0.073953
  H -0.792084 1.604932 -0.156268
  H -1.231537 0.940602 1.401134
  O 2.307029 0.819056 0.458817
  H 2.852772 0.809340 -0.338622
  H 1.264126 0.098084 0.323619
  H 2.222959 1.719181 0.800844
 20
 -1.363168
  C -0.974650 -2.822023 -1.019201
  C -1.717278 -1.602862 -0.483775
  C -2.607698 -1.981528 0.718327
  C -0.790703 -0.522502 -0.054743
  O 0.435513 -0.775784 -0.018751
  C -1.321760 0.785799 0.337630
  H -1.684222 -3.571293 -1.351736
  H -0.348574 -3.261990 -0.245542
  H -0.342526 -2.551824 -1.859297
  H -2.368570 -1.192610 -1.263455
  H -1.997843 -2.366433 1.533338
  H -3.295294 -2.762894 0.411744
  H -3.188047 -1.135678 1.074911
  H -2.373668 0.904002 0.095092
  H -0.742782 1.580258 -0.127232
  H -1.192862 0.910573 1.414754
  O 2.287153 0.928332 0.413626
  H 2.936136 0.888136 -0.295442
  H 1.083968 -0.019218 0.272838
  H 2.315511 1.807386 0.803418
