 29
 0.000000
  C 0.975382 0.135330 0.395693
  C 2.451959 0.141493 0.394423
  C 3.233968 0.611540 1.563352
  C 2.454403 1.097678 2.780699
  H 3.127428 1.413254 3.563907
  C 3.075737 -0.321472 -0.758150
  C 4.453885 -0.410024 -0.969922
  C 5.120801 -0.865738 -2.099934
  C 4.618381 -1.386894 -3.400935
  C 3.127361 -1.500621 -3.695191
  C 2.904439 -2.062713 -5.096561
  O 6.443581 -0.867815 -2.096030
  H 0.541041 0.497157 1.320583
  H 0.610719 -0.878406 0.225033
  H 0.591893 0.752549 -0.418515
  H 3.888589 1.424810 1.230559
  H 3.892458 -0.203691 1.883263
  H 1.820225 0.301241 3.168703
  H 1.816247 1.938899 2.512111
  H 2.420816 -0.640389 -1.550856
  H 5.078118 -0.079510 -0.148332
  H 5.071312 -2.376897 -3.527018
  H 5.076165 -0.761552 -4.175912
  H 2.654517 -0.519087 -3.643098
  H 2.649590 -2.171080 -2.979717
  H 3.345669 -1.416736 -5.852102
  H 1.839738 -2.141860 -5.301599
  H 3.340812 -3.054088 -5.194574
  H 6.825271 -0.534647 -1.262452
 29
 0.524232
  C 0.998915 0.480680 0.295234
  C 2.438957 0.187769 0.372812
  C 3.211002 0.364497 1.624877
  C 2.445491 0.859996 2.849004
  H 3.123035 0.921771 3.697173
  C 3.046281 -0.249897 -0.801389
  C 4.420645 -0.286212 -1.028237
  C 5.103104 -0.683730 -2.174577
  C 4.608964 -1.314464 -3.426843
  C 3.129532 -1.607665 -3.638432
  C 2.928064 -2.298783 -4.985252
  O 6.411785 -0.526087 -2.226970
  H 0.609684 0.945378 1.188752
  H 0.438552 -0.430999 0.100582
  H 0.826262 1.130089 -0.565774
  H 4.042154 1.054731 1.430998
  H 3.678228 -0.598286 1.868226
  H 1.642010 0.180436 3.116915
  H 2.031239 1.850535 2.684645
  H 2.380347 -0.519490 -1.607648
  H 5.052712 0.092158 -0.232014
  H 5.170687 -2.251396 -3.526126
  H 4.970714 -0.688291 -4.251123
  H 2.556092 -0.680220 -3.643272
  H 2.757740 -2.265889 -2.852933
  H 3.275371 -1.669460 -5.801387
  H 1.874528 -2.510848 -5.147657
  H 3.471333 -3.239999 -5.025375
  H 6.810303 -0.125436 -1.426691
 29
 4.168595
  C 1.105752 0.838806 0.224381
  C 2.426602 0.201421 0.371936
  C 3.124886 0.101209 1.670410
  C 2.434333 0.722630 2.875829
  H 3.031770 0.544140 3.765767
  C 3.019692 -0.252679 -0.806443
  C 4.373453 -0.175078 -1.086388
  C 5.047693 -0.493864 -2.262330
  C 4.583511 -1.219504 -3.477317
  C 3.148753 -1.719450 -3.596237
  C 2.974380 -2.487553 -4.904493
  O 6.314797 -0.147497 -2.388547
  H 0.776109 1.343209 1.125476
  H 0.348375 0.111169 -0.069093
  H 1.186735 1.549805 -0.598209
  H 4.127672 0.529252 1.572578
  H 3.293734 -0.965385 1.866723
  H 1.455091 0.284214 3.042327
  H 2.325325 1.796939 2.758536
  H 2.342832 -0.552670 -1.589932
  H 4.992450 0.278027 -0.320450
  H 5.262411 -2.075442 -3.581648
  H 4.813697 -0.578090 -4.335246
  H 2.453933 -0.880056 -3.602437
  H 2.911446 -2.386591 -2.767257
  H 3.190279 -1.852126 -5.760161
  H 1.952732 -2.846282 -4.999654
  H 3.638553 -3.347995 -4.942536
  H 6.690232 0.313508 -1.616256
 29
 10.288277
  C 1.256182 1.028111 0.192408
  C 2.429077 0.161410 0.403582
  C 3.040824 -0.089387 1.721277
  C 2.422401 0.625134 2.914650
  H 2.933432 0.319903 3.823954
  C 3.012594 -0.337865 -0.773645
  C 4.332741 -0.125590 -1.113971
  C 4.994887 -0.408021 -2.303719
  C 4.557497 -1.192142 -3.492439
  C 3.172818 -1.825330 -3.546120
  C 3.012232 -2.611200 -4.845209
  O 6.218320 0.062288 -2.485061
  H 0.971960 1.579272 1.079499
  H 0.393600 0.462551 -0.163143
  H 1.542808 1.703525 -0.614587
  H 4.111988 0.138182 1.668338
  H 3.000982 -1.172261 1.890394
  H 1.370921 0.374279 3.025430
  H 2.520727 1.703961 2.823225
  H 2.332304 -0.750693 -1.502565
  H 4.928577 0.412261 -0.383939
  H 5.309471 -1.980693 -3.616770
  H 4.689450 -0.542039 -4.364333
  H 2.402434 -1.054733 -3.519005
  H 3.038530 -2.509969 -2.708091
  H 3.127638 -1.961245 -5.709474
  H 2.026105 -3.065846 -4.893700
  H 3.753022 -3.404464 -4.914068
  H 6.570469 0.574089 -1.734268
 29
 18.926429
  C 1.474712 1.279352 0.189765
  C 2.452190 0.204077 0.409807
  C 2.925577 -0.237599 1.730119
  C 2.363664 0.493131 2.941336
  H 2.756424 0.043876 3.849617
  C 3.023227 -0.338011 -0.778013
  C 4.283156 -0.005239 -1.195431
  C 4.934909 -0.299938 -2.389202
  C 4.525209 -1.170075 -3.526529
  C 3.191800 -1.906428 -3.500482
  C 3.043120 -2.755171 -4.760603
  O 6.116533 0.250000 -2.627549
  H 1.253991 1.840976 1.089155
  H 0.537193 0.889557 -0.212567
  H 1.903361 1.917108 -0.585345
  H 4.022149 -0.198446 1.742730
  H 2.695176 -1.306855 1.811817
  H 1.279714 0.422989 2.977578
  H 2.650307 1.541707 2.938044
  H 2.359189 -0.900214 -1.416960
  H 4.848444 0.631719 -0.523070
  H 5.331418 -1.903587 -3.646357
  H 4.574826 -0.550319 -4.429006
  H 2.367225 -1.194295 -3.470227
  H 3.142498 -2.565240 -2.632935
  H 3.076738 -2.134714 -5.653018
  H 2.093513 -3.283734 -4.752139
  H 3.839311 -3.492735 -4.828459
  H 6.442480 0.825059 -1.912779
 29
 26.033124
  C 1.729598 1.530520 0.258588
  C 2.516777 0.308446 0.408186
  C 2.815020 -0.343581 1.695142
  C 2.253040 0.318433 2.944666
  H 2.520265 -0.270606 3.817712
  C 3.071316 -0.251571 -0.801370
  C 4.251280 0.186846 -1.319742
  C 4.890777 -0.200881 -2.508148
  C 4.491769 -1.182335 -3.560287
  C 3.189811 -1.964442 -3.448070
  C 3.046002 -2.907306 -4.639890
  O 6.067253 0.352723 -2.812473
  H 1.568252 2.051270 1.192585
  H 0.753433 1.267700 -0.163757
  H 2.187867 2.178078 -0.486189
  H 3.906417 -0.444092 1.773614
  H 2.459462 -1.378092 1.644291
  H 1.170464 0.382866 2.904957
  H 2.661426 1.316053 3.079628
  H 2.463271 -0.989065 -1.315641
  H 4.785265 0.924995 -0.731437
  H 5.321379 -1.892338 -3.646468
  H 4.495775 -0.632008 -4.507464
  H 2.339762 -1.281760 -3.447451
  H 3.186533 -2.561315 -2.535830
  H 3.035632 -2.352039 -5.575300
  H 2.117562 -3.468982 -4.569903
  H 3.869204 -3.617924 -4.674736
  H 6.380734 0.996537 -2.163039
 29
 14.942501
  C 2.102848 1.668541 0.306550
  C 2.662378 0.316083 0.419443
  C 2.705389 -0.441225 1.684957
  C 2.052579 0.210483 2.895797
  H 2.139129 -0.452781 3.752549
  C 3.219184 -0.256762 -0.750393
  C 4.288608 0.298370 -1.424563
  C 4.842405 -0.107991 -2.632504
  C 4.408959 -1.151195 -3.606545
  C 3.163882 -1.994735 -3.362240
  C 2.987288 -2.996221 -4.501588
  O 5.974368 0.457749 -3.043945
  H 1.938201 2.156713 1.259704
  H 1.132422 1.564419 -0.188477
  H 2.678175 2.288902 -0.378012
  H 3.761072 -0.644152 1.897380
  H 2.265348 -1.433776 1.524352
  H 0.995665 0.396164 2.722215
  H 2.538922 1.147173 3.154127
  H 2.735351 -1.138162 -1.137268
  H 4.792505 1.121832 -0.933798
  H 5.266064 -1.820756 -3.742077
  H 4.304586 -0.633784 -4.567563
  H 2.278509 -1.358767 -3.321255
  H 3.262268 -2.555793 -2.432952
  H 2.879719 -2.484983 -5.455355
  H 2.098372 -3.600928 -4.340749
  H 3.843165 -3.664115 -4.567789
  H 6.309544 1.160607 -2.455373
 29
 7.900865
  C 2.380857 1.673627 0.307360
  C 2.795489 0.270225 0.446334
  C 2.582986 -0.502831 1.690318
  C 1.902372 0.232943 2.835753
  H 1.777572 -0.443541 3.677229
  C 3.399525 -0.341037 -0.660693
  C 4.381203 0.279188 -1.436864
  C 4.854835 -0.092397 -2.687981
  C 4.373629 -1.138522 -3.633498
  C 3.192687 -2.033372 -3.280654
  C 2.887082 -2.970054 -4.446903
  O 5.877138 0.561123 -3.210321
  H 2.338523 2.214866 1.245702
  H 1.367755 1.664991 -0.106455
  H 2.985667 2.176861 -0.445868
  H 3.559697 -0.873902 2.018163
  H 2.008970 -1.406467 1.451598
  H 0.919074 0.592106 2.545400
  H 2.498976 1.074880 3.177150
  H 3.052121 -1.325545 -0.934854
  H 4.871751 1.135396 -0.988248
  H 5.238256 -1.764848 -3.874922
  H 4.146211 -0.607655 -4.565510
  H 2.308058 -1.428941 -3.078299
  H 3.428132 -2.646338 -2.410521
  H 2.636107 -2.406985 -5.342903
  H 2.044811 -3.613451 -4.205763
  H 3.742602 -3.603133 -4.670848
  H 6.244070 1.258794 -2.638503
 29
 4.760522
  C 2.503896 1.586324 0.213849
  C 2.923930 0.192102 0.426700
  C 2.527462 -0.570736 1.635823
  C 1.770078 0.212556 2.698731
  H 1.506267 -0.447997 3.520570
  C 3.678734 -0.416920 -0.565314
  C 4.532656 0.283859 -1.438174
  C 4.955304 -0.097498 -2.701867
  C 4.373543 -1.125926 -3.609948
  C 3.197575 -1.977767 -3.148714
  C 2.688468 -2.834511 -4.304836
  O 5.921738 0.570175 -3.303156
  H 2.496599 2.180306 1.121120
  H 1.478286 1.574248 -0.165214
  H 3.105032 2.015018 -0.585383
  H 3.425546 -1.019592 2.072093
  H 1.910647 -1.420107 1.316756
  H 0.852552 0.635344 2.299003
  H 2.378941 1.016623 3.105011
  H 3.623609 -1.491509 -0.654491
  H 5.014773 1.162996 -1.025842
  H 5.193753 -1.779519 -3.926084
  H 4.083801 -0.583960 -4.517828
  H 2.386308 -1.339221 -2.797108
  H 3.501365 -2.644060 -2.342651
  H 2.350898 -2.213264 -5.131254
  H 1.852605 -3.449457 -3.981593
  H 3.470698 -3.494681 -4.672493
  H 6.336297 1.261501 -2.758924
 29
 9.089695
  C 2.531297 1.379991 -0.008655
  C 3.061488 0.067088 0.388159
  C 2.590036 -0.648931 1.603964
  C 1.623325 0.124806 2.491181
  H 1.281341 -0.510839 3.303762
  C 4.006031 -0.489521 -0.442469
  C 4.744070 0.274507 -1.393789
  C 5.074758 -0.102009 -2.682185
  C 4.362737 -1.096985 -3.532716
  C 3.104074 -1.761004 -2.987829
  C 2.446810 -2.610401 -4.070824
  O 6.014675 0.532842 -3.356561
  H 2.327683 2.038472 0.822652
  H 1.602429 1.247178 -0.565481
  H 3.234976 1.769952 -0.751472
  H 3.459480 -0.968860 2.186928
  H 2.100399 -1.575160 1.277044
  H 0.752075 0.454319 1.932134
  H 2.106186 0.993786 2.932265
  H 4.237391 -1.543676 -0.353605
  H 5.305775 1.105058 -0.979367
  H 5.090147 -1.867146 -3.811126
  H 4.123935 -0.582155 -4.469442
  H 2.396874 -0.999896 -2.657439
  H 3.341302 -2.403493 -2.144385
  H 2.151393 -1.998863 -4.920217
  H 1.558112 -3.099756 -3.681980
  H 3.127734 -3.379973 -4.426145
  H 6.515290 1.189121 -2.840199
 29
 18.483703
  C 2.614818 1.244350 -0.116863
  C 3.103522 -0.044837 0.385746
  C 2.599616 -0.674308 1.639466
  C 1.554363 0.138107 2.397801
  H 1.226339 -0.412577 3.276852
  C 4.092257 -0.608363 -0.368670
  C 4.806930 0.204271 -1.319076
  C 5.103811 -0.121890 -2.628252
  C 4.346153 -1.073737 -3.490966
  C 3.047379 -1.655315 -2.947450
  C 2.351986 -2.487509 -4.020661
  O 6.028375 0.532249 -3.303911
  H 2.361164 1.973027 0.635765
  H 1.786364 1.127075 -0.821739
  H 3.420931 1.483358 -0.875367
  H 3.445740 -0.895913 2.295877
  H 2.165139 -1.645403 1.369533
  H 0.683437 0.333783 1.777579
  H 1.964495 1.085261 2.736362
  H 4.416886 -1.624797 -0.214528
  H 5.496037 0.899307 -0.849460
  H 5.030144 -1.887178 -3.755836
  H 4.145422 -0.555691 -4.433809
  H 2.380535 -0.850752 -2.639835
  H 3.242347 -2.292701 -2.087570
  H 2.127026 -1.883273 -4.896677
  H 1.417390 -2.893760 -3.640597
  H 2.978277 -3.318655 -4.332660
  H 6.564833 1.145144 -2.775915
 29
 31.785228
  C 2.591807 1.094776 -0.200530
  C 3.043709 -0.163137 0.398407
  C 2.566059 -0.670744 1.709607
  C 1.634056 0.275432 2.455895
  H 1.276369 -0.203595 3.363843
  C 4.013061 -0.757524 -0.337515
  C 4.721250 0.168279 -1.244184
  C 5.071126 -0.116354 -2.560768
  C 4.331119 -1.022973 -3.487473
  C 3.029325 -1.649303 -2.992230
  C 2.379555 -2.464254 -4.105366
  O 6.083916 0.491083 -3.143292
  H 2.303797 1.885101 0.474922
  H 1.913677 1.009751 -1.058037
  H 3.537893 1.195174 -0.945202
  H 3.426272 -0.913722 2.338020
  H 2.037811 -1.611551 1.520944
  H 0.771530 0.534601 1.849260
  H 2.150433 1.186653 2.746542
  H 4.397425 -1.744264 -0.158351
  H 5.496203 0.709691 -0.703416
  H 5.026848 -1.813872 -3.792169
  H 4.136024 -0.457281 -4.405544
  H 2.335928 -0.870088 -2.682267
  H 3.215285 -2.302107 -2.142188
  H 2.137802 -1.834732 -4.957121
  H 1.458620 -2.922173 -3.752951
  H 3.041293 -3.255182 -4.444154
  H 6.568223 1.123822 -2.582854
 29
 39.552781
  C 2.607386 1.090590 -0.174181
  C 3.067484 -0.144165 0.395859
  C 2.537732 -0.700230 1.686983
  C 1.530875 0.192293 2.401794
  H 1.168255 -0.309589 3.295553
  C 4.079167 -0.727517 -0.298085
  C 4.752540 0.216590 -1.232760
  C 5.103562 -0.139184 -2.568764
  C 4.337534 -1.058899 -3.443073
  C 3.006763 -1.597724 -2.926701
  C 2.321305 -2.428288 -4.007684
  O 6.121435 0.418066 -3.170861
  H 2.278819 1.881675 0.480057
  H 2.077156 1.066495 -1.115178
  H 3.880883 1.076308 -1.114970
  H 3.371585 -0.917051 2.357390
  H 2.062035 -1.657058 1.452332
  H 0.676085 0.406968 1.764294
  H 1.986328 1.129786 2.711638
  H 4.456194 -1.720161 -0.129801
  H 5.559661 0.740075 -0.712152
  H 4.997582 -1.894171 -3.703875
  H 4.171464 -0.532445 -4.390032
  H 2.350460 -0.773098 -2.651205
  H 3.159487 -2.222983 -2.049585
  H 2.125703 -1.829149 -4.894075
  H 1.371714 -2.813575 -3.644979
  H 2.939360 -3.274695 -4.298356
  H 6.649088 1.035758 -2.630111
 29
 37.979789
  C 2.520386 1.108514 -0.150944
  C 3.044249 -0.096674 0.379837
  C 2.543509 -0.702178 1.666973
  C 1.499394 0.123024 2.404254
  H 1.165570 -0.417205 3.287933
  C 4.081799 -0.661628 -0.305735
  C 4.772223 0.261917 -1.258311
  C 5.141272 -0.174639 -2.584678
  C 4.359643 -1.108049 -3.419551
  C 2.994631 -1.551104 -2.910895
  C 2.300681 -2.414131 -3.956049
  O 6.187631 0.306618 -3.181776
  H 2.130405 1.859510 0.515141
  H 2.071291 1.120007 -1.130014
  H 3.986319 1.106993 -1.229413
  H 3.387752 -0.892598 2.332010
  H 2.113816 -1.672836 1.410864
  H 0.633577 0.310546 1.775770
  H 1.909891 1.073003 2.733418
  H 4.471097 -1.642189 -0.108046
  H 5.600407 0.761279 -0.742192
  H 4.985393 -1.986307 -3.611547
  H 4.243584 -0.634874 -4.400658
  H 2.372894 -0.682230 -2.706171
  H 3.094463 -2.126260 -1.991077
  H 2.156959 -1.864066 -4.882908
  H 1.326526 -2.730854 -3.598517
  H 2.884199 -3.303762 -4.175001
  H 6.728496 0.933138 -2.662323
 29
 26.672201
  C 2.171369 1.062790 -0.135781
  C 2.951836 0.031190 0.310103
  C 2.646235 -0.708998 1.597810
  C 1.518449 -0.125133 2.438567
  H 1.369167 -0.741281 3.323013
  C 4.086201 -0.400624 -0.373132
  C 4.790581 0.451714 -1.372983
  C 5.231557 -0.259052 -2.580209
  C 4.403201 -1.234056 -3.307002
  C 2.922313 -1.302088 -2.954732
  C 2.210642 -2.322618 -3.835292
  O 6.408790 -0.081177 -3.067085
  H 1.440610 1.521561 0.499936
  H 2.177796 1.376444 -1.161860
  H 4.116107 1.280960 -1.621554
  H 3.552222 -0.754528 2.205823
  H 2.387562 -1.736036 1.327224
  H 0.583941 -0.103549 1.884055
  H 1.757724 0.883211 2.770443
  H 4.572179 -1.315826 -0.071762
  H 5.648532 0.917872 -0.874599
  H 4.858974 -2.222661 -3.175006
  H 4.520343 -1.026953 -4.376483
  H 2.459446 -0.325733 -3.099628
  H 2.797697 -1.583502 -1.909954
  H 2.290731 -2.054421 -4.885700
  H 1.155186 -2.370095 -3.580520
  H 2.633725 -3.315646 -3.702684
  H 6.983637 0.567538 -2.609559
