 28
 0.000000
  H 1.451256 0.162566 0.456752
  C 2.530727 0.146748 0.416778
  C 3.292405 0.613356 1.577368
  C 2.458487 1.088839 2.761111
  C 3.347957 1.551270 3.911138
  C 3.095614 -0.322211 -0.750900
  C 4.477595 -0.419948 -0.994646
  C 5.109401 -0.873884 -2.126421
  C 4.601465 -1.386442 -3.404585
  C 3.113079 -1.503687 -3.697815
  C 2.887707 -2.065997 -5.099926
  H 6.192061 -0.871820 -2.121424
  H 3.955565 1.428554 1.261509
  H 3.956042 -0.193358 1.913311
  H 1.815842 0.280235 3.114424
  H 1.815371 1.916764 2.456780
  H 3.983454 0.741992 4.263225
  H 2.739353 1.886938 4.746947
  H 3.982923 2.379498 3.605126
  H 2.416224 -0.633884 -1.527270
  H 5.126179 -0.097109 -0.190120
  H 5.062269 -2.375167 -3.539513
  H 5.062771 -0.765270 -4.185305
  H 2.638266 -0.522605 -3.642817
  H 2.637854 -2.174649 -2.980210
  H 3.325988 -1.419351 -5.856508
  H 1.823330 -2.147958 -5.304904
  H 3.325689 -3.056380 -5.199923
 28
 -0.243947
  H 1.529931 0.625103 0.328815
  C 2.598886 0.469330 0.290149
  C 3.330819 0.676659 1.534266
  C 2.463769 1.095969 2.711495
  C 3.295873 1.300324 3.972279
  C 3.137717 0.069121 -0.914896
  C 4.510039 -0.129120 -1.132461
  C 5.125282 -0.640216 -2.252108
  C 4.603195 -1.290380 -3.452540
  C 3.113734 -1.482205 -3.679293
  C 2.863056 -2.305288 -4.937969
  H 6.209822 -0.596375 -2.245378
  H 4.115717 1.425077 1.375194
  H 3.880660 -0.234670 1.794732
  H 1.706302 0.333361 2.901867
  H 1.941562 2.024021 2.471906
  H 3.802163 0.381080 4.258388
  H 2.660303 1.604626 4.801062
  H 4.045737 2.074647 3.823222
  H 2.455981 -0.063777 -1.744798
  H 5.170722 0.172395 -0.331125
  H 5.098589 -2.273008 -3.502419
  H 5.042161 -0.768785 -4.316289
  H 2.624771 -0.514429 -3.800080
  H 2.667001 -1.998621 -2.828508
  H 3.280463 -1.817433 -5.813504
  H 1.797375 -2.429806 -5.101298
  H 3.305611 -3.293769 -4.854143
 28
 0.704632
  H 1.611538 1.032447 0.137042
  C 2.651921 0.736348 0.133679
  C 3.317353 0.633800 1.434489
  C 2.448067 1.030026 2.621742
  C 3.210624 0.909101 3.936443
  C 3.230406 0.432516 -1.072499
  C 4.606038 0.203302 -1.283445
  C 5.185135 -0.408930 -2.365666
  C 4.614169 -1.257427 -3.411133
  C 3.115527 -1.491114 -3.508220
  C 2.798312 -2.531605 -4.578528
  H 6.264061 -0.327978 -2.433310
  H 4.227736 1.248359 1.419226
  H 3.689427 -0.388122 1.581136
  H 1.563632 0.391219 2.661766
  H 2.104807 2.059180 2.498379
  H 3.527604 -0.116633 4.110190
  H 2.580510 1.210593 4.769264
  H 4.092101 1.546199 3.935323
  H 2.616086 0.450030 -1.959184
  H 5.284103 0.595096 -0.534944
  H 5.117614 -2.231871 -3.306507
  H 4.997157 -0.898683 -4.376894
  H 2.605391 -0.563364 -3.772244
  H 2.725740 -1.838416 -2.549058
  H 3.158651 -2.211838 -5.553603
  H 1.724549 -2.683425 -4.651802
  H 3.256207 -3.489507 -4.342716
 28
 2.819759
  H 1.654176 1.255755 -0.015853
  C 2.678230 0.911268 -0.036507
  C 3.289763 0.547655 1.244058
  C 2.450480 0.900938 2.465609
  C 3.150214 0.496152 3.759599
  C 3.292740 0.756083 -1.245868
  C 4.683625 0.532330 -1.445360
  C 5.259547 -0.247579 -2.398591
  C 4.639329 -1.271112 -3.251037
  C 3.128367 -1.432050 -3.274956
  C 2.717172 -2.644772 -4.100808
  H 6.336014 -0.192528 -2.510719
  H 4.278972 1.019022 1.309855
  H 3.507935 -0.526957 1.259032
  H 1.482906 0.397092 2.409748
  H 2.260525 1.976653 2.479274
  H 3.311438 -0.579856 3.796242
  H 2.545700 0.774204 4.620338
  H 4.114822 0.992210 3.852224
  H 2.726621 0.950500 -2.148578
  H 5.353312 1.055155 -0.772318
  H 5.101720 -2.229432 -2.963097
  H 5.012254 -1.125048 -4.275353
  H 2.662210 -0.545404 -3.704590
  H 2.748494 -1.548624 -2.256473
  H 3.057407 -2.549955 -5.127622
  H 1.637043 -2.744079 -4.114658
  H 3.132044 -3.559353 -3.688570
 28
 7.575387
  H 1.823680 1.596357 -0.159832
  C 2.785380 1.107128 -0.192538
  C 3.277215 0.492034 1.054801
  C 2.445415 0.831490 2.281897
  C 3.012198 0.175617 3.535186
  C 3.440823 0.999226 -1.370848
  C 4.831945 0.748299 -1.609684
  C 5.355278 -0.196871 -2.431309
  C 4.651730 -1.314197 -3.079724
  C 3.137104 -1.377947 -2.998735
  C 2.594933 -2.632185 -3.675248
  H 6.422269 -0.190644 -2.609010
  H 4.320418 0.802057 1.195663
  H 3.321070 -0.596882 0.947047
  H 1.417519 0.494673 2.138300
  H 2.422736 1.913650 2.419249
  H 3.004931 -0.908488 3.445700
  H 2.417841 0.444641 4.404391
  H 4.035641 0.498908 3.713760
  H 2.995414 1.383386 -2.286231
  H 5.522082 1.400572 -1.085830
  H 5.087229 -2.241144 -2.677152
  H 4.960852 -1.336768 -4.134312
  H 2.695336 -0.503350 -3.475110
  H 2.821969 -1.377263 -1.949627
  H 2.864789 -2.653033 -4.727581
  H 1.511947 -2.660864 -3.607255
  H 2.985212 -3.532373 -3.206739
 28
 18.918278
  H 2.198858 1.832811 -0.226729
  C 3.066874 1.189603 -0.216180
  C 3.304853 0.429209 1.048257
  C 2.378559 0.864627 2.178606
  C 2.662808 0.073272 3.450714
  C 3.803055 1.044057 -1.305835
  C 5.121183 0.755737 -1.791802
  C 5.463688 -0.258209 -2.632381
  C 4.626937 -1.355684 -3.127260
  C 3.147420 -1.360953 -2.785904
  C 2.445071 -2.575340 -3.385240
  H 6.488585 -0.286206 -2.979612
  H 4.350151 0.570255 1.340230
  H 3.172310 -0.641751 0.871827
  H 1.338137 0.708735 1.887938
  H 2.517385 1.928847 2.378436
  H 2.491189 -0.989442 3.295949
  H 2.013299 0.408015 4.255761
  H 3.692486 0.214088 3.771608
  H 3.573992 1.567310 -2.268708
  H 5.904378 1.426605 -1.454547
  H 5.089554 -2.290034 -2.775720
  H 4.753180 -1.414673 -4.217296
  H 2.666868 -0.457866 -3.164793
  H 3.019964 -1.377545 -1.701185
  H 2.530154 -2.581322 -4.469389
  H 1.388137 -2.564434 -3.131958
  H 2.869636 -3.501616 -3.004508
 28
 31.736139
  H 2.510229 1.906994 -0.244232
  C 3.280875 1.151483 -0.172083
  C 3.321034 0.402347 1.130395
  C 2.353908 0.990506 2.157290
  C 2.402092 0.199918 3.463136
  C 4.080757 0.912259 -1.171723
  C 5.284732 0.612634 -1.865002
  C 5.522220 -0.417876 -2.739845
  C 4.591059 -1.443876 -3.217913
  C 3.147328 -1.377540 -2.746283
  C 2.325132 -2.500944 -3.362302
  H 6.521197 -0.471691 -3.153916
  H 4.342208 0.415449 1.524329
  H 3.052562 -0.640977 0.943619
  H 1.333840 0.963137 1.762342
  H 2.613316 2.032038 2.359032
  H 2.111773 -0.833247 3.295562
  H 1.716627 0.629218 4.198194
  H 3.410275 0.204599 3.884769
  H 4.085824 1.518588 -2.172676
  H 6.150921 1.201407 -1.554484
  H 5.018290 -2.418938 -2.941966
  H 4.622691 -1.453705 -4.315387
  H 2.698892 -0.423538 -3.026773
  H 3.112743 -1.472965 -1.661267
  H 2.324264 -2.431436 -4.443858
  H 1.294341 -2.449082 -3.023685
  H 2.724394 -3.473237 -3.087791
 28
 40.747578
  H 2.738772 1.878065 -0.299872
  C 3.490025 1.110726 -0.148450
  C 3.374051 0.376261 1.168447
  C 2.302320 0.986743 2.066521
  C 2.200796 0.222066 3.381571
  C 4.379631 0.855893 -1.041317
  C 5.441539 0.563679 -1.916260
  C 5.553674 -0.526971 -2.817556
  C 4.521897 -1.490790 -3.211627
  C 3.107459 -1.294499 -2.679092
  C 2.173624 -2.374023 -3.217750
  H 6.517572 -0.659813 -3.284926
  H 4.338846 0.395143 1.677726
  H 3.130832 -0.669554 0.968608
  H 1.334666 0.958078 1.561861
  H 2.545576 2.029704 2.278420
  H 1.918065 -0.813693 3.206460
  H 1.450742 0.673299 4.026407
  H 3.151616 0.232721 3.910056
  H 4.715813 1.430607 -2.322078
  H 6.388995 1.028346 -1.652901
  H 4.876263 -2.488829 -2.915820
  H 4.498265 -1.539665 -4.308395
  H 2.721136 -0.319774 -2.980113
  H 3.111145 -1.345531 -1.590323
  H 2.132026 -2.346617 -4.304561
  H 1.164924 -2.228788 -2.839465
  H 2.507034 -3.364389 -2.915368
 28
 38.917399
  H 2.814270 1.794439 -0.295831
  C 3.547881 1.018203 -0.103890
  C 3.369588 0.335783 1.237574
  C 2.302848 1.019973 2.087981
  C 2.140666 0.306192 3.425936
  C 4.442578 0.726447 -0.970086
  C 5.456947 0.542362 -1.930534
  C 5.542260 -0.557304 -2.866434
  C 4.493940 -1.502413 -3.249724
  C 3.086292 -1.287826 -2.705419
  C 2.133249 -2.347219 -3.247953
  H 6.494158 -0.691293 -3.347456
  H 4.323119 0.334749 1.768642
  H 3.088265 -0.705986 1.065109
  H 1.346890 1.011832 1.561999
  H 2.583417 2.059597 2.270098
  H 1.824168 -0.724395 3.279328
  H 1.391797 0.806979 4.035250
  H 3.077728 0.301115 3.978119
  H 4.936063 1.370009 -2.497907
  H 6.428998 0.935231 -1.624059
  H 4.836741 -2.507181 -2.958500
  H 4.460652 -1.551061 -4.346309
  H 2.716677 -0.304633 -2.995619
  H 3.094479 -1.347801 -1.617958
  H 2.085122 -2.308857 -4.334238
  H 1.129234 -2.189748 -2.861859
  H 2.453300 -3.345577 -2.956742
 28
 36.717943
  H 2.726754 1.666820 -0.337414
  C 3.517601 0.953588 -0.102971
  C 3.372416 0.333050 1.271833
  C 2.279068 1.007306 2.092053
  C 2.153515 0.353855 3.464913
  C 4.431176 0.701264 -0.958128
  C 5.438016 0.563772 -1.934463
  C 5.522520 -0.542233 -2.877951
  C 4.482252 -1.490581 -3.265251
  C 3.078943 -1.308654 -2.697153
  C 2.122935 -2.340680 -3.288695
  H 6.465766 -0.643304 -3.391299
  H 4.324530 0.401939 1.796928
  H 3.138400 -0.725535 1.150453
  H 1.320245 0.929284 1.570343
  H 2.511968 2.065747 2.221254
  H 1.891226 -0.697536 3.370755
  H 1.379647 0.844659 4.049902
  H 3.089432 0.425032 4.014716
  H 5.216766 1.426649 -2.602367
  H 6.423225 0.817743 -1.522187
  H 4.842959 -2.498056 -3.006514
  H 4.434430 -1.515678 -4.362708
  H 2.707326 -0.309306 -2.931177
  H 3.096222 -1.425583 -1.613714
  H 2.063970 -2.243283 -4.370786
  H 1.122501 -2.207668 -2.885291
  H 2.447517 -3.350993 -3.055559
 28
 35.328394
  H 2.576676 1.721640 -0.394202
  C 3.346106 0.981598 -0.180189
  C 3.126697 0.263975 1.134201
  C 2.410381 1.149203 2.148855
  C 2.195496 0.400988 3.460294
  C 4.283006 0.762799 -1.019324
  C 5.382268 0.601471 -1.883033
  C 5.480150 -0.423271 -2.911908
  C 4.493060 -1.411673 -3.332134
  C 3.136002 -1.427579 -2.636895
  C 2.238469 -2.504629 -3.235680
  H 6.414833 -0.436555 -3.453238
  H 4.084517 -0.067034 1.538104
  H 2.519974 -0.623008 0.931130
  H 1.441891 1.461279 1.752322
  H 3.003064 2.046001 2.341571
  H 1.588934 -0.488176 3.303091
  H 1.685138 1.036463 4.180467
  H 3.145989 0.095161 3.892605
  H 5.489967 1.570282 -2.412039
  H 6.310442 0.611923 -1.287396
  H 4.959446 -2.406006 -3.238872
  H 4.346860 -1.305363 -4.415980
  H 2.648104 -0.458974 -2.748800
  H 3.267153 -1.627972 -1.573846
  H 2.067278 -2.324388 -4.296258
  H 1.273971 -2.515926 -2.738006
  H 2.685454 -3.490612 -3.125321
