 22
 0.000000
  H 1.441193 0.172172 0.482061
  C 2.522963 0.149520 0.424582
  C 3.270705 0.618774 1.589783
  H 2.607903 0.939717 2.388484
  C 3.069655 -0.324175 -0.754366
  C 4.452211 -0.419467 -0.993425
  C 5.086143 -0.875301 -2.129918
  C 4.596779 -1.387311 -3.406571
  C 3.114339 -1.510778 -3.715988
  C 2.902796 -2.073651 -5.119517
  H 6.170768 -0.856271 -2.082649
  H 3.934728 1.442507 1.317445
  H 3.935780 -0.163196 1.963527
  H 2.384630 -0.634209 -1.524927
  H 5.110458 -0.099086 -0.196159
  H 5.076657 -2.367843 -3.548385
  H 5.077696 -0.777351 -4.186637
  H 2.635756 -0.531214 -3.661442
  H 2.635074 -2.180844 -2.999805
  H 3.345269 -1.425882 -5.872678
  H 1.841124 -2.160110 -5.335922
  H 3.344953 -3.062517 -5.216276
 22
 0.115385
  H 1.458735 -0.081400 0.614725
  C 2.523799 0.018681 0.456199
  C 3.269182 0.782898 1.456684
  H 2.613877 1.192843 2.217993
  C 3.063908 -0.577804 -0.662083
  C 4.444422 -0.587071 -0.932435
  C 5.094347 -1.026975 -2.063256
  C 4.606022 -1.453820 -3.371097
  C 3.121755 -1.533731 -3.685372
  C 2.898815 -1.923158 -5.144260
  H 6.176855 -1.025149 -2.002738
  H 3.833020 1.594544 0.993056
  H 4.016692 0.149603 1.941110
  H 2.389186 -1.081736 -1.333453
  H 5.078794 -0.199396 -0.145137
  H 5.079561 -2.423272 -3.588408
  H 5.092385 -0.793498 -4.106742
  H 2.646123 -0.567933 -3.504054
  H 2.644454 -2.284138 -3.052614
  H 3.333738 -1.188037 -5.817473
  H 1.835416 -1.985596 -5.360400
  H 3.341998 -2.891896 -5.363224
 22
 2.714258
  H 1.481900 -0.222445 0.662791
  C 2.528880 -0.103699 0.418815
  C 3.248820 0.939334 1.161675
  H 2.577873 1.454144 1.846175
  C 3.084079 -0.915731 -0.539791
  C 4.453547 -0.832164 -0.858709
  C 5.138395 -1.184020 -1.993542
  C 4.645578 -1.447800 -3.344813
  C 3.148647 -1.462321 -3.611751
  C 2.866278 -1.691191 -5.093887
  H 6.218148 -1.227491 -1.905616
  H 3.671318 1.689558 0.492940
  H 4.055502 0.512433 1.759033
  H 2.467275 -1.668758 -1.002618
  H 5.009344 -0.242919 -0.132669
  H 5.090715 -2.396597 -3.677280
  H 5.126036 -0.703843 -3.997308
  H 2.703651 -0.512073 -3.309001
  H 2.674515 -2.259395 -3.040252
  H 3.295231 -0.898065 -5.702018
  H 1.794903 -1.710680 -5.275968
  H 3.280259 -2.639792 -5.427865
 22
 7.238382
  H 1.502738 -0.256354 0.741054
  C 2.529517 -0.162151 0.406803
  C 3.263148 0.975542 0.994452
  H 2.599650 1.540503 1.651389
  C 3.070655 -1.049795 -0.480514
  C 4.435721 -0.962290 -0.824027
  C 5.156718 -1.244896 -1.953527
  C 4.667872 -1.450839 -3.321591
  C 3.164319 -1.428087 -3.573750
  C 2.858955 -1.596237 -5.062167
  H 6.232003 -1.304628 -1.842969
  H 3.605565 1.667080 0.224988
  H 4.085223 0.650126 1.629109
  H 2.477584 -1.880644 -0.834357
  H 4.936883 -0.290986 -0.111578
  H 5.085902 -2.408069 -3.671830
  H 5.154292 -0.697344 -3.951528
  H 2.755279 -0.471778 -3.240240
  H 2.668320 -2.222392 -3.019579
  H 3.289972 -0.783937 -5.643308
  H 1.784383 -1.603292 -5.229181
  H 3.255716 -2.535479 -5.440626
 22
 16.544866
  H 1.529661 -0.148937 0.810670
  C 2.521446 -0.193135 0.400861
  C 3.361244 0.970476 0.778114
  H 2.746780 1.640948 1.396905
  C 2.992309 -1.206837 -0.373774
  C 4.342347 -1.134716 -0.786068
  C 5.114648 -1.345322 -1.880816
  C 4.676679 -1.446787 -3.279571
  C 3.173957 -1.385617 -3.540350
  C 2.885665 -1.499035 -5.035763
  H 6.187401 -1.427615 -1.733508
  H 3.626367 1.605255 -0.072799
  H 4.156930 0.707182 1.461150
  H 2.381844 -2.072119 -0.578393
  H 4.770171 -0.292523 -0.142398
  H 5.083924 -2.387141 -3.677811
  H 5.190060 -0.650191 -3.839212
  H 2.766511 -0.445937 -3.172737
  H 2.671600 -2.202547 -3.010113
  H 3.342329 -0.672225 -5.584577
  H 1.811585 -1.482401 -5.220151
  H 3.276814 -2.432250 -5.438530
 22
 30.683564
  H 1.520802 -0.104499 0.843390
  C 2.504658 -0.228560 0.421625
  C 3.414071 0.945710 0.580711
  H 2.840503 1.705216 1.137016
  C 2.940969 -1.330853 -0.242705
  C 4.249231 -1.281895 -0.749932
  C 5.075427 -1.440245 -1.805086
  C 4.697109 -1.445237 -3.234344
  C 3.199533 -1.357562 -3.513324
  C 2.925203 -1.393032 -5.013474
  H 6.139387 -1.538164 -1.621997
  H 3.607363 1.498848 -0.336421
  H 4.201849 0.795431 1.320392
  H 2.349156 -2.231892 -0.313592
  H 4.603081 -0.251221 -0.233514
  H 5.101477 -2.364438 -3.674611
  H 5.223969 -0.618502 -3.723988
  H 2.792205 -0.433421 -3.097075
  H 2.691711 -2.196015 -3.037849
  H 3.387431 -0.546902 -5.514578
  H 1.855956 -1.358009 -5.205839
  H 3.317700 -2.307055 -5.457013
 22
 49.200380
  H 1.542218 -0.064107 1.005953
  C 2.493438 -0.188683 0.521950
  C 3.517378 0.919418 0.605602
  H 3.093217 1.694394 1.263253
  C 2.835901 -1.314700 -0.185595
  C 4.062164 -1.292112 -0.807446
  C 4.957853 -1.438233 -1.765579
  C 4.683982 -1.443618 -3.244710
  C 3.203756 -1.357175 -3.605890
  C 2.997837 -1.436994 -5.108135
  H 6.015840 -1.557622 -1.510554
  H 3.609341 1.542141 -0.292438
  H 4.364137 0.703514 1.281872
  H 2.225157 -2.214095 -0.198064
  H 4.437007 -0.081872 -0.176591
  H 5.112216 -2.368172 -3.659249
  H 5.233965 -0.602768 -3.701495
  H 2.789950 -0.422229 -3.243951
  H 2.659896 -2.160531 -3.123376
  H 3.542298 -0.643554 -5.614864
  H 1.939229 -1.334818 -5.356722
  H 3.347300 -2.395539 -5.499419
 22
 53.900832
  H 1.621457 -0.135987 1.159602
  C 2.520281 -0.227688 0.577131
  C 3.500066 0.912141 0.406840
  H 3.122945 1.763819 1.006840
  C 2.855073 -1.405628 -0.058873
  C 3.995702 -1.466969 -0.792250
  C 4.905434 -1.605118 -1.708086
  C 4.681807 -1.516409 -3.195886
  C 3.219205 -1.340148 -3.589335
  C 3.058550 -1.301795 -5.104192
  H 5.943430 -1.768891 -1.434355
  H 3.423035 1.454165 -0.559369
  H 4.400868 0.876746 1.081630
  H 2.266958 -2.302234 0.070560
  H 4.301803 0.229683 -0.169697
  H 5.074152 -2.434136 -3.639923
  H 5.278193 -0.692061 -3.593963
  H 2.828504 -0.414327 -3.166590
  H 2.632754 -2.165724 -3.184435
  H 3.619711 -0.474933 -5.531730
  H 2.013039 -1.179442 -5.375423
  H 3.417902 -2.224530 -5.554835
 22
 52.161025
  H 1.718735 -0.218288 1.278909
  C 2.577961 -0.257908 0.636337
  C 3.458079 0.951091 0.421484
  H 3.017780 1.800379 0.989895
  C 2.904442 -1.435760 -0.008126
  C 3.963778 -1.549004 -0.837316
  C 4.878423 -1.704520 -1.735112
  C 4.683329 -1.580931 -3.226367
  C 3.236868 -1.320610 -3.633244
  C 3.093200 -1.250635 -5.148159
  H 5.901388 -1.932849 -1.449508
  H 3.303742 1.453712 -0.559216
  H 4.305017 1.074819 1.171702
  H 2.322264 -2.327897 0.180888
  H 4.366462 0.440672 -0.051824
  H 5.030350 -2.511257 -3.684106
  H 5.327119 -0.781178 -3.602650
  H 2.892336 -0.381619 -3.199281
  H 2.603043 -2.120233 -3.245099
  H 3.702015 -0.447354 -5.557495
  H 2.058182 -1.069961 -5.427450
  H 3.408975 -2.184010 -5.609575
 22
 52.319218
  H 1.786540 -0.308340 1.351760
  C 2.624492 -0.312037 0.675150
  C 3.427106 0.949213 0.443186
  H 2.858882 1.791032 0.902870
  C 2.951671 -1.481090 0.012739
  C 3.960100 -1.600602 -0.873115
  C 4.874596 -1.747533 -1.771039
  C 4.683765 -1.592718 -3.259819
  C 3.244102 -1.282818 -3.657868
  C 3.096091 -1.184365 -5.171829
  H 5.892967 -2.006822 -1.487544
  H 3.371349 1.323055 -0.599005
  H 4.153035 1.257876 1.280839
  H 2.377853 -2.376168 0.222513
  H 4.464703 0.520698 0.232992
  H 5.003850 -2.523083 -3.738052
  H 5.348233 -0.803691 -3.620529
  H 2.931330 -0.341380 -3.206850
  H 2.587309 -2.069238 -3.278508
  H 3.725505 -0.391238 -5.571325
  H 2.065333 -0.971341 -5.443489
  H 3.384508 -2.118186 -5.648998
 22
 55.476327
  H 1.863760 -0.390471 1.399042
  C 2.682720 -0.361946 0.703833
  C 3.377384 0.959819 0.414791
  H 2.705145 1.725702 0.838602
  C 3.045081 -1.513591 0.033782
  C 4.037131 -1.598001 -0.876688
  C 4.923589 -1.719583 -1.804650
  C 4.679958 -1.559158 -3.285113
  C 3.222576 -1.271802 -3.632756
  C 3.022942 -1.165836 -5.139642
  H 5.955339 -1.952776 -1.556810
  H 3.418189 1.177523 -0.659984
  H 4.176007 1.492406 1.090817
  H 2.510789 -2.428209 0.260201
  H 4.432048 0.497859 0.548583
  H 4.999995 -2.480332 -3.780192
  H 5.318803 -0.755263 -3.661503
  H 2.908686 -0.337758 -3.164534
  H 2.592405 -2.071507 -3.237967
  H 3.622007 -0.356967 -5.553054
  H 1.979189 -0.972309 -5.375586
  H 3.314998 -2.090680 -5.633528
 22
 57.710353
  H 1.937537 -0.456837 1.478178
  C 2.728539 -0.410257 0.751739
  C 3.344452 0.973426 0.420178
  H 2.589330 1.666947 0.813523
  C 3.082640 -1.547752 0.054305
  C 4.045500 -1.626773 -0.884766
  C 4.927839 -1.722724 -1.819105
  C 4.676546 -1.537679 -3.296248
  C 3.216013 -1.249775 -3.632097
  C 3.009283 -1.115925 -5.136294
  H 5.961972 -1.951403 -1.579074
  H 3.416754 1.063148 -0.667500
  H 4.179990 1.663239 0.865395
  H 2.560147 -2.465098 0.295986
  H 4.296436 0.485839 0.848877
  H 4.998048 -2.447813 -3.809879
  H 5.310395 -0.724198 -3.660220
  H 2.900565 -0.325797 -3.144794
  H 2.590852 -2.059246 -3.249985
  H 3.603617 -0.297015 -5.536888
  H 1.963657 -0.921743 -5.363903
  H 3.302532 -2.030239 -5.648942
 22
 55.349177
  H 2.104683 -0.455573 1.594043
  C 2.832714 -0.418974 0.810493
  C 3.350634 1.040933 0.377488
  H 2.551105 1.666766 0.788210
  C 3.143049 -1.574031 0.100097
  C 4.038245 -1.658253 -0.897922
  C 4.925949 -1.704876 -1.828929
  C 4.679709 -1.497699 -3.300736
  C 3.213219 -1.243418 -3.639472
  C 3.013148 -1.082202 -5.142317
  H 5.963158 -1.914192 -1.584627
  H 3.358333 1.081100 -0.711080
  H 4.183717 1.706531 0.743190
  H 2.630852 -2.484671 0.387008
  H 4.089756 0.268507 0.880774
  H 5.029848 -2.386737 -3.832109
  H 5.293107 -0.659221 -3.641375
  H 2.868604 -0.339031 -3.134304
  H 2.608182 -2.078764 -3.279657
  H 3.586993 -0.237951 -5.520770
  H 1.963638 -0.912032 -5.373224
  H 3.335251 -1.976718 -5.673125
 22
 39.522949
  H 2.457142 -0.394753 1.824955
  C 3.059390 -0.367987 0.931470
  C 3.184042 1.061049 0.233431
  H 2.349865 1.632487 0.648333
  C 3.289243 -1.575858 0.209649
  C 4.050626 -1.681783 -0.889759
  C 4.899498 -1.752681 -1.846445
  C 4.641015 -1.517133 -3.307722
  C 3.183785 -1.184480 -3.611565
  C 2.965334 -1.015067 -5.107480
  H 5.922415 -2.043433 -1.627896
  H 3.059728 0.948583 -0.840712
  H 4.017041 1.746060 0.426778
  H 2.794449 -2.473269 0.567682
  H 4.110709 0.078915 0.980904
  H 4.935690 -2.416904 -3.855196
  H 5.290394 -0.706958 -3.649020
  H 2.900728 -0.262334 -3.101088
  H 2.542064 -1.984903 -3.238910
  H 3.576751 -0.205746 -5.498643
  H 1.924624 -0.787096 -5.316247
  H 3.224935 -1.925683 -5.641811
 22
 15.411839
  H 2.328165 -0.423348 1.744840
  C 3.192414 -0.287668 1.101147
  C 3.236703 1.133748 0.505633
  H 2.348705 1.676339 0.813691
  C 3.183284 -1.324488 0.028540
  C 4.067177 -1.408450 -0.926896
  C 4.914747 -1.531413 -1.914572
  C 4.616698 -1.458555 -3.359630
  C 3.141341 -1.325633 -3.707160
  C 2.950235 -1.170024 -5.211296
  H 5.961648 -1.694525 -1.667490
  H 3.251572 1.118181 -0.578589
  H 4.109464 1.676657 0.847867
  H 2.398220 -2.073176 0.076333
  H 4.092291 -0.438204 1.701746
  H 5.039041 -2.334955 -3.863837
  H 5.193214 -0.609260 -3.751926
  H 2.722493 -0.457782 -3.192350
  H 2.594609 -2.206197 -3.366253
  H 3.462952 -0.285299 -5.581140
  H 1.893855 -1.070901 -5.447530
  H 3.331358 -2.036623 -5.746471
