 14
 0.000000
  H 1.435020 0.139293 0.395966
  C 2.515985 0.136304 0.389181
  C 3.217040 0.613731 1.577775
  H 2.531648 0.927126 2.357665
  C 3.127667 -0.326223 -0.761639
  C 4.513782 -0.395067 -0.931863
  C 5.144899 -0.853252 -2.074720
  H 4.636703 -1.210007 -2.963588
  O 6.429965 -0.905081 -2.205876
  H 3.875807 1.447866 1.324803
  H 3.875126 -0.164079 1.972402
  H 2.498880 -0.653249 -1.577670
  H 5.144553 -0.067887 -0.114775
  H 6.944774 -0.592922 -1.431530
 14
 0.326739
  H 1.448310 0.137893 0.362574
  C 2.528652 0.096870 0.390678
  C 3.193132 0.686550 1.552750
  H 2.490724 0.890848 2.355681
  C 3.171724 -0.437073 -0.705108
  C 4.560674 -0.563514 -0.829821
  C 5.157078 -0.772820 -2.060715
  H 4.552010 -0.835023 -2.960609
  O 6.423466 -0.825796 -2.292132
  H 3.661040 1.635508 1.268941
  H 4.010229 0.058868 1.914684
  H 2.568763 -0.746091 -1.545103
  H 5.181882 -0.465184 0.048128
  H 6.997977 -0.789045 -1.500905
 14
 4.260123
  H 1.443432 0.139928 0.373125
  C 2.521046 0.057615 0.384148
  C 3.234329 0.755407 1.454050
  H 2.568223 1.015698 2.271024
  C 3.133631 -0.595265 -0.652616
  C 4.531294 -0.755447 -0.776481
  C 5.146257 -0.622023 -2.002727
  H 4.553466 -0.387149 -2.881761
  O 6.416432 -0.625631 -2.232362
  H 3.659357 1.688502 1.073312
  H 4.080991 0.173297 1.816458
  H 2.520356 -0.955834 -1.468767
  H 5.124221 -0.935941 0.110688
  H 6.983555 -0.857119 -1.466703
 14
 10.356793
  H 1.437839 0.097960 0.396407
  C 2.515301 0.021270 0.369593
  C 3.273626 0.820284 1.338459
  H 2.648425 1.120021 2.174486
  C 3.095086 -0.721548 -0.608332
  C 4.503116 -0.899293 -0.767723
  C 5.140581 -0.457999 -1.901674
  H 4.574630 0.043893 -2.680287
  O 6.414274 -0.475232 -2.126412
  H 3.639353 1.737998 0.870721
  H 4.158494 0.284574 1.680663
  H 2.461695 -1.172313 -1.365307
  H 5.065292 -1.365376 0.033006
  H 6.955130 -0.934760 -1.450400
 14
 17.751711
  H 1.435840 0.064672 0.406576
  C 2.512002 0.003680 0.343420
  C 3.298147 0.875874 1.236555
  H 2.691741 1.233886 2.063082
  C 3.069682 -0.815382 -0.566508
  C 4.483808 -0.994130 -0.787064
  C 5.150467 -0.313434 -1.776318
  H 4.613051 0.365883 -2.430511
  O 6.420760 -0.365335 -2.016228
  H 3.653009 1.755670 0.694462
  H 4.186713 0.359929 1.598861
  H 2.420922 -1.404615 -1.211071
  H 5.009727 -1.703448 -0.156394
  H 6.936847 -0.963506 -1.435457
 14
 14.249377
  H 1.425952 0.064155 0.363992
  C 2.502636 0.017388 0.291659
  C 3.280621 0.901077 1.178843
  H 2.669996 1.306535 1.978808
  C 3.073231 -0.865201 -0.555839
  C 4.472792 -1.026759 -0.826326
  C 5.190606 -0.205429 -1.657594
  H 4.683040 0.561944 -2.232738
  O 6.454501 -0.305464 -1.931515
  H 3.652212 1.735697 0.575683
  H 4.154467 0.408328 1.597276
  H 2.441882 -1.620595 -1.020468
  H 4.938964 -1.911787 -0.404426
  H 6.949759 -0.960776 -1.398531
 14
 8.251136
  H 1.444300 0.097123 0.321251
  C 2.519538 0.007423 0.256566
  C 3.311566 0.940105 1.069105
  H 2.702702 1.445306 1.811709
  C 3.066076 -0.975450 -0.513219
  C 4.438217 -1.118415 -0.849148
  C 5.189257 -0.122182 -1.432384
  H 4.706815 0.775553 -1.804422
  O 6.447579 -0.186266 -1.726163
  H 3.728518 1.705188 0.405999
  H 4.160382 0.456215 1.545727
  H 2.417703 -1.770764 -0.868965
  H 4.876067 -2.099326 -0.699261
  H 6.915872 -0.976315 -1.387134
 14
 3.650481
  H 1.458519 0.047926 0.290765
  C 2.536698 -0.014977 0.207451
  C 3.297015 1.009120 0.925672
  H 2.710109 1.440903 1.735059
  C 3.069351 -1.050698 -0.511470
  C 4.411643 -1.196716 -0.927091
  C 5.249161 -0.135455 -1.220807
  H 4.856355 0.871267 -1.289855
  O 6.502283 -0.202909 -1.533949
  H 3.515136 1.837717 0.241253
  H 4.248223 0.639603 1.295302
  H 2.409190 -1.874595 -0.759424
  H 4.765666 -2.206167 -1.101056
  H 6.901676 -1.088555 -1.473235
 14
 4.101258
  H 1.487632 0.202954 0.109328
  C 2.554595 0.026278 0.113920
  C 3.339538 0.978516 0.900576
  H 2.774241 1.312478 1.769620
  C 3.063465 -1.069882 -0.535859
  C 4.408263 -1.241069 -0.913125
  C 5.216272 -0.163782 -1.215811
  H 4.762600 0.811381 -1.364598
  O 6.481952 -0.157730 -1.477098
  H 3.500709 1.887923 0.312290
  H 4.305695 0.583925 1.202739
  H 2.388064 -1.883038 -0.766676
  H 4.776609 -2.247824 -1.047273
  H 6.941943 -1.014890 -1.361443
 14
 7.782744
  H 1.574902 0.402657 -0.121670
  C 2.602532 0.088603 0.012172
  C 3.388933 0.928154 0.916209
  H 2.784045 1.188241 1.786417
  C 3.054250 -1.089646 -0.538272
  C 4.388261 -1.279716 -0.926709
  C 5.150607 -0.180155 -1.277224
  H 4.635573 0.725856 -1.582466
  O 6.428696 -0.092659 -1.441158
  H 3.607431 1.893446 0.448457
  H 4.316402 0.459070 1.228935
  H 2.356781 -1.908111 -0.668169
  H 4.783101 -2.281025 -1.023373
  H 6.940323 -0.895693 -1.212218
 14
 16.652495
  H 1.750325 0.592450 -0.340556
  C 2.703653 0.149186 -0.075098
  C 3.448241 0.860468 0.963156
  H 2.757732 1.114372 1.770815
  C 3.055199 -1.114945 -0.538389
  C 4.352526 -1.320635 -0.989588
  C 5.058200 -0.185118 -1.377725
  H 4.501808 0.628884 -1.832473
  O 6.334275 0.001383 -1.432880
  H 3.802930 1.832437 0.607015
  H 4.281703 0.284783 1.352480
  H 2.326925 -1.915743 -0.536096
  H 4.780652 -2.307903 -1.078763
  H 6.885007 -0.732701 -1.090954
 14
 27.226767
  H 1.988826 0.726374 -0.519818
  C 2.849556 0.181752 -0.144203
  C 3.532102 0.790504 0.995783
  H 2.775826 1.070045 1.735275
  C 3.063526 -1.164593 -0.542777
  C 4.299911 -1.375166 -1.082275
  C 4.937307 -0.168501 -1.450146
  H 4.364646 0.571419 -2.000532
  O 6.190057 0.126484 -1.379727
  H 4.001810 1.741208 0.728917
  H 4.262103 0.128992 1.451664
  H 2.308145 -1.925857 -0.410871
  H 4.761824 -2.339912 -1.222918
  H 6.762701 -0.548664 -0.960279
 14
 32.041643
  H 2.258761 0.796616 -0.697763
  C 3.022459 0.183302 -0.227738
  C 3.638560 0.729901 0.981926
  H 2.840447 1.056921 1.657981
  C 3.073671 -1.235349 -0.554260
  C 4.244534 -1.444943 -1.176247
  C 4.796537 -0.139612 -1.459894
  H 4.237061 0.544171 -2.091870
  O 6.004421 0.263287 -1.239257
  H 4.198544 1.642787 0.769068
  H 4.267002 0.009398 1.497700
  H 2.297115 -1.946004 -0.318721
  H 4.738399 -2.378132 -1.383696
  H 6.583851 -0.367622 -0.764067
 14
 30.130178
  H 2.439213 0.834477 -0.802129
  C 3.156332 0.184876 -0.307680
  C 3.687789 0.698281 0.970645
  H 2.855003 1.081937 1.568942
  C 3.067508 -1.269050 -0.544408
  C 4.208472 -1.473115 -1.215786
  C 4.672756 -0.100937 -1.424916
  H 4.168996 0.511387 -2.174872
  O 5.867393 0.362310 -1.166406
  H 4.331874 1.563725 0.808295
  H 4.211029 -0.062063 1.542675
  H 2.276730 -1.938865 -0.260735
  H 4.750537 -2.380294 -1.418211
  H 6.449662 -0.243093 -0.666679
 14
 28.902343
  H 2.593322 0.884081 -0.837801
  C 3.283354 0.186235 -0.366542
  C 3.703215 0.634317 0.993523
  H 2.832064 1.012902 1.530778
  C 3.060206 -1.268735 -0.535884
  C 4.205307 -1.486024 -1.223937
  C 4.609255 -0.076886 -1.424102
  H 4.191507 0.377562 -2.332457
  O 5.817706 0.424030 -1.202341
  H 4.396337 1.470522 0.923241
  H 4.145356 -0.167063 1.580063
  H 2.237023 -1.889010 -0.248274
  H 4.825464 -2.362162 -1.307557
  H 6.436076 -0.182633 -0.756316
