 14
 0.000000
  H 1.420455 0.131193 0.375589
  C 2.501369 0.134578 0.385692
  C 3.180101 0.616648 1.585171
  H 2.484507 0.927194 2.357061
  C 3.135532 -0.323302 -0.752549
  C 4.521561 -0.390833 -0.920081
  C 5.129107 -0.852545 -2.072404
  H 4.584469 -1.201618 -2.942376
  O 6.410891 -0.910318 -2.219209
  H 3.837546 1.454048 1.339593
  H 3.836288 -0.158598 1.988016
  H 2.516709 -0.653370 -1.575485
  H 5.180972 -0.071439 -0.123312
  H 6.910495 -0.595246 -1.435633
 14
 3.254811
  H 1.414728 0.192175 0.334577
  C 2.498360 0.164194 0.373602
  C 3.141773 0.579424 1.617945
  H 2.415851 0.857649 2.375367
  C 3.158202 -0.266373 -0.759229
  C 4.550833 -0.379616 -0.871121
  C 5.147489 -0.919507 -1.995797
  H 4.538257 -1.392720 -2.763579
  O 6.421768 -1.066961 -2.178174
  H 3.816205 1.421487 1.440823
  H 3.781940 -0.216045 2.007248
  H 2.565033 -0.535428 -1.621805
  H 5.173510 -0.117949 -0.027585
  H 6.980353 -0.366918 -1.790600
 14
 11.510069
  H 1.394451 0.201740 0.327804
  C 2.475058 0.163196 0.387468
  C 3.100361 0.601518 1.627477
  H 2.366975 0.924094 2.362613
  C 3.149425 -0.300806 -0.725943
  C 4.541541 -0.425299 -0.813274
  C 5.155412 -0.897518 -1.956728
  H 4.552801 -1.184719 -2.819031
  O 6.439917 -1.125480 -2.064834
  H 3.810291 1.412426 1.436945
  H 3.713334 -0.198083 2.054048
  H 2.568240 -0.593465 -1.588018
  H 5.160328 -0.157726 0.028718
  H 7.079901 -0.395022 -2.093319
 14
 12.420082
  H 1.382590 0.212347 0.313301
  C 2.460288 0.165975 0.388834
  C 3.072917 0.618547 1.629954
  H 2.336128 0.965941 2.345855
  C 3.146318 -0.322789 -0.706020
  C 4.540076 -0.460093 -0.771684
  C 5.181816 -0.864674 -1.925043
  H 4.618213 -0.999499 -2.849101
  O 6.465539 -1.099071 -1.946174
  H 3.798442 1.413653 1.437028
  H 3.667316 -0.182122 2.079317
  H 2.574700 -0.626098 -1.572397
  H 5.161447 -0.178825 0.068381
  H 7.109021 -0.518655 -2.379929
 14
 4.344515
  H 1.380176 0.186517 0.310766
  C 2.457754 0.159888 0.396453
  C 3.048925 0.612121 1.652211
  H 2.296711 0.947012 2.357295
  C 3.165567 -0.301449 -0.694836
  C 4.559156 -0.411340 -0.744797
  C 5.228194 -0.811635 -1.889345
  H 4.685659 -0.967960 -2.819743
  O 6.511081 -0.981147 -1.852984
  H 3.768138 1.415190 1.476612
  H 3.636244 -0.189535 2.107322
  H 2.609327 -0.603109 -1.571784
  H 5.171813 -0.121966 0.101016
  H 7.068516 -0.780326 -2.629046
 14
 5.119308
  H 1.373421 0.126936 0.334748
  C 2.452715 0.106927 0.391458
  C 3.081410 0.706316 1.565780
  H 2.371327 1.265617 2.164842
  C 3.134073 -0.466576 -0.657013
  C 4.532242 -0.583122 -0.723049
  C 5.239218 -0.677025 -1.907027
  H 4.755732 -0.486790 -2.860931
  O 6.507230 -0.945566 -1.863448
  H 3.930845 1.334293 1.299393
  H 3.504053 -0.090658 2.186557
  H 2.562150 -0.853815 -1.489462
  H 5.131999 -0.665519 0.175328
  H 7.059888 -0.660510 -2.616982
 14
 16.529781
  H 1.389201 0.170012 0.354647
  C 2.461699 0.110788 0.375477
  C 3.146520 0.774767 1.468442
  H 2.483512 1.437633 1.995669
  C 3.070004 -0.587447 -0.619387
  C 4.461999 -0.719322 -0.744812
  C 5.184593 -0.584924 -1.908407
  H 4.816729 -0.080097 -2.771724
  O 6.437806 -1.014850 -1.881070
  H 4.054143 1.259642 1.143024
  H 3.487599 0.011909 2.177898
  H 2.462159 -1.091414 -1.329093
  H 5.066282 -1.146719 0.059260
  H 7.121261 -0.432538 -2.327328
 14
 29.007166
  H 1.348363 0.089694 0.490852
  C 2.423752 0.055068 0.421856
  C 3.202433 0.820971 1.398032
  H 2.578687 1.490149 1.979799
  C 2.973530 -0.651911 -0.604369
  C 4.366015 -0.774685 -0.848748
  C 5.203801 -0.417013 -1.868750
  H 5.006508 0.310696 -2.650709
  O 6.354429 -1.064033 -1.873467
  H 4.016454 1.374972 0.931956
  H 3.695738 0.121020 2.082953
  H 2.325526 -1.233844 -1.250813
  H 4.995279 -1.488838 -0.300823
  H 7.171436 -0.533306 -1.936751
 14
 47.631391
  H 1.327888 0.067019 0.597447
  C 2.411394 0.072814 0.431620
  C 3.247842 0.807127 1.371369
  H 2.670679 1.505182 1.971689
  C 2.919515 -0.688858 -0.589916
  C 4.255162 -0.684094 -1.012478
  C 5.170772 -0.316840 -1.919563
  H 5.174716 0.422714 -2.698676
  O 6.285650 -1.096455 -1.746180
  H 4.053526 1.328075 0.836267
  H 3.754639 0.122386 2.048049
  H 2.247242 -1.365403 -1.129557
  H 5.056435 -1.474360 -0.609317
  H 7.124906 -0.614345 -1.614842
 14
 61.888292
  H 1.343711 -0.087152 0.654154
  C 2.398333 -0.000635 0.441127
  C 3.232724 0.778428 1.368406
  H 2.629080 1.329067 2.082313
  C 2.877833 -0.603716 -0.694045
  C 4.185961 -0.561846 -1.118504
  C 5.180625 -0.229804 -1.898097
  H 5.335257 0.540610 -2.629983
  O 6.232639 -1.153828 -1.634133
  H 3.876852 1.465556 0.819168
  H 3.899087 0.117979 1.926734
  H 2.213461 -1.235611 -1.272627
  H 5.271723 -1.536342 -0.813433
  H 7.079421 -0.756412 -1.341396
 14
 53.365706
  H 1.351909 -0.149866 0.744930
  C 2.391629 -0.006883 0.475837
  C 3.234052 0.843728 1.344522
  H 2.643084 1.342299 2.103818
  C 2.850198 -0.631284 -0.664430
  C 4.125585 -0.561132 -1.132254
  C 5.105134 -0.275949 -1.920786
  H 5.244105 0.409066 -2.735727
  O 6.216030 -1.183893 -1.579245
  H 3.792993 1.571040 0.768662
  H 3.985877 0.228515 1.860693
  H 2.196100 -1.290894 -1.208577
  H 5.546602 -1.515300 -0.820173
  H 7.065640 -0.740258 -1.347576
 14
 42.999230
  H 1.364851 -0.179951 0.787146
  C 2.373639 -0.003478 0.485934
  C 3.206269 0.851616 1.330915
  H 2.603092 1.368751 2.068606
  C 2.822630 -0.615113 -0.653160
  C 4.085042 -0.559955 -1.131065
  C 5.104511 -0.291040 -1.885793
  H 5.274276 0.441990 -2.648412
  O 6.264479 -1.161839 -1.645061
  H 3.756180 1.586498 0.734505
  H 3.945567 0.254516 1.855344
  H 2.146107 -1.285588 -1.175421
  H 5.805902 -1.689104 -0.938976
  H 7.074642 -0.675628 -1.356049
 14
 38.719737
  H 1.342217 -0.218414 0.801126
  C 2.360173 -0.031234 0.490342
  C 3.198130 0.864046 1.323824
  H 2.593542 1.417161 2.036830
  C 2.815158 -0.637466 -0.663810
  C 4.057929 -0.523587 -1.166402
  C 5.113445 -0.275192 -1.861805
  H 5.300502 0.503651 -2.576397
  O 6.279772 -1.152816 -1.670459
  H 3.752823 1.564047 0.701242
  H 3.933211 0.284745 1.886946
  H 2.163715 -1.342439 -1.169646
  H 5.917129 -1.775529 -1.002743
  H 7.088008 -0.664973 -1.375037
 14
 36.895337
  H 1.316350 -0.198918 0.789870
  C 2.337273 -0.029641 0.488628
  C 3.179479 0.858104 1.322104
  H 2.601806 1.306563 2.124384
  C 2.786853 -0.634663 -0.667657
  C 4.024856 -0.516895 -1.181736
  C 5.116540 -0.314224 -1.829065
  H 5.308788 0.436983 -2.579432
  O 6.298360 -1.155008 -1.631984
  H 3.619355 1.650227 0.715136
  H 4.006069 0.301754 1.766029
  H 2.109547 -1.286315 -1.206234
  H 6.108384 -1.793580 -0.907105
  H 7.102093 -0.612387 -1.448929
 14
 37.233823
  H 1.266769 -0.127665 0.724877
  C 2.307666 -0.013234 0.469363
  C 3.154891 0.837825 1.335443
  H 2.589043 1.229470 2.173269
  C 2.772440 -0.636721 -0.670535
  C 4.039123 -0.593577 -1.127863
  C 5.121591 -0.342516 -1.774642
  H 5.269234 0.441534 -2.503373
  O 6.330117 -1.148028 -1.642649
  H 3.560600 1.674314 0.766670
  H 4.003715 0.275632 1.721329
  H 2.086000 -1.259572 -1.233078
  H 6.275235 -1.739874 -0.857235
  H 7.139328 -0.585588 -1.627566
