 17
 0.000000
  C 1.008159 -0.071483 0.047728
  C 2.504168 -0.082641 0.025825
  C 3.219628 -0.595067 -0.980158
  C 4.656666 -0.606379 -1.002359
  C 5.377191 -1.121693 -2.014007
  C 6.815469 -1.131201 -2.032673
  C 7.530913 -1.641655 -3.034787
  H 8.602978 -1.654499 -3.059994
  H 0.645461 0.394469 0.962463
  H 0.612864 -1.086056 0.008128
  H 0.612864 0.493015 -0.796236
  H 3.004884 0.352552 0.880184
  H 2.708604 -1.028374 -1.830799
  H 5.162552 -0.171916 -0.149440
  H 4.873733 -1.556614 -2.867829
  H 7.323969 -0.696827 -1.179923
  H 7.034098 -2.077565 -3.890535
 17
 0.431871
  C 1.012218 -0.120174 0.090774
  C 2.508138 -0.093245 0.037717
  C 3.223689 -0.497491 -1.014138
  C 4.659507 -0.513595 -1.048987
  C 5.374099 -1.042151 -2.057708
  C 6.805854 -1.148464 -2.044677
  C 7.523616 -1.698664 -3.023998
  H 8.591301 -1.784122 -2.969900
  H 0.641021 0.353309 0.995625
  H 0.648752 -1.145001 0.067965
  H 0.590835 0.392828 -0.767774
  H 3.021566 0.268738 0.921930
  H 2.712591 -0.867237 -1.900013
  H 5.168995 -0.073455 -0.204533
  H 4.864643 -1.435463 -2.928786
  H 7.287091 -0.823366 -1.136885
  H 7.060573 -2.054313 -3.930889
 17
 1.053296
  C 1.027840 -0.138353 0.137668
  C 2.515745 -0.067616 0.012828
  C 3.197127 -0.520345 -1.046597
  C 4.625643 -0.478315 -1.148815
  C 5.354730 -1.041162 -2.125222
  C 6.789253 -1.120429 -2.049114
  C 7.558366 -1.713338 -2.960010
  H 8.628616 -1.783601 -2.851033
  H 0.677833 0.446953 0.982635
  H 0.705605 -1.170631 0.282227
  H 0.545845 0.233964 -0.769237
  H 3.051740 0.375643 0.837668
  H 2.659385 -0.967716 -1.874818
  H 5.136135 0.045346 -0.342249
  H 4.873988 -1.469405 -2.994915
  H 7.215180 -0.751926 -1.123339
  H 7.139227 -2.147932 -3.852779
 17
 9.202055
  C 1.076093 -0.209836 0.207315
  C 2.544800 -0.045230 -0.006996
  C 3.190190 -0.470575 -1.098129
  C 4.613652 -0.363050 -1.271016
  C 5.329016 -0.946474 -2.257282
  C 6.745043 -1.107486 -2.061874
  C 7.560590 -1.828575 -2.829931
  H 8.613498 -1.893056 -2.637320
  H 0.763565 0.244560 1.148049
  H 0.811560 -1.265536 0.232736
  H 0.514982 0.248548 -0.602465
  H 3.104195 0.437343 0.785939
  H 2.639004 -0.980326 -1.877647
  H 5.100917 0.350462 -0.614605
  H 4.874255 -1.275360 -3.180539
  H 7.022568 -0.824278 -1.047570
  H 7.205788 -2.313477 -3.719742
 17
 28.917352
  C 1.182062 -0.302763 0.300359
  C 2.607892 -0.015974 -0.036142
  C 3.210140 -0.434166 -1.157917
  C 4.607918 -0.255504 -1.417216
  C 5.298633 -0.761334 -2.484769
  C 6.633121 -1.105999 -2.106665
  C 7.530615 -1.910744 -2.685340
  H 8.515025 -2.014105 -2.257775
  H 0.859290 0.256363 1.176032
  H 1.043840 -1.361688 0.497222
  H 0.532977 -0.040361 -0.534079
  H 3.173192 0.563985 0.682260
  H 2.645340 -1.017369 -1.873272
  H 5.064224 0.532261 -0.834734
  H 4.877607 -0.897326 -3.467250
  H 6.622375 -0.906444 -1.030258
  H 7.305813 -2.536192 -3.532169
 17
 53.446359
  C 1.246163 -0.338961 0.328790
  C 2.662396 -0.011109 -0.029390
  C 3.270216 -0.446467 -1.152774
  C 4.634900 -0.188150 -1.468863
  C 5.281850 -0.693819 -2.616920
  C 6.539825 -1.113058 -2.177338
  C 7.480040 -1.984214 -2.579029
  H 8.436987 -2.015166 -2.095273
  H 0.917904 0.232228 1.196366
  H 1.147208 -1.388141 0.558630
  H 0.573897 -0.125295 -0.513529
  H 3.209262 0.622465 0.659847
  H 2.720091 -1.084111 -1.832165
  H 5.040668 0.700918 -1.012282
  H 4.885483 -0.697156 -3.615459
  H 6.374645 -0.877440 -1.062841
  H 7.276611 -2.760826 -3.271456
 17
 72.398716
  C 1.353866 -0.420858 0.357618
  C 2.746061 -0.040024 -0.030896
  C 3.330806 -0.419489 -1.172445
  C 4.691935 -0.105601 -1.534128
  C 5.280199 -0.556877 -2.793381
  C 6.407352 -1.132019 -2.344962
  C 7.372850 -2.041385 -2.447936
  H 8.267776 -1.985332 -1.850633
  H 1.037836 0.109310 1.251120
  H 1.292877 -1.491829 0.556026
  H 0.653872 -0.198496 -0.447172
  H 3.297084 0.576220 0.667281
  H 2.791274 -1.060550 -1.859407
  H 5.085667 0.808824 -1.104460
  H 4.902303 -0.425479 -3.791783
  H 5.964649 -0.765657 -1.094920
  H 7.201523 -2.977102 -2.959685
 17
 57.530480
  C 1.395549 -0.469094 0.379599
  C 2.762501 -0.025266 -0.053751
  C 3.356969 -0.418352 -1.171745
  C 4.725642 -0.084345 -1.530383
  C 5.367454 -0.486642 -2.841643
  C 6.397993 -1.179822 -2.439315
  C 7.302128 -2.104032 -2.428581
  H 8.181874 -2.044098 -1.805162
  H 1.069296 0.052052 1.272658
  H 1.399949 -1.520179 0.592993
  H 0.661313 -0.307266 -0.417674
  H 3.294109 0.633623 0.628308
  H 2.847673 -1.118387 -1.817195
  H 5.054223 0.890387 -1.132147
  H 5.025853 -0.227337 -3.836401
  H 5.654079 -0.625783 -1.001672
  H 7.137051 -3.052942 -2.919425
 17
 36.945945
  C 1.323921 -0.412770 0.292183
  C 2.752558 -0.065660 0.026624
  C 3.427834 -0.478437 -1.035358
  C 4.815217 -0.102239 -1.345048
  C 5.332912 -0.509820 -2.716136
  C 6.391347 -1.239811 -2.597566
  C 7.377718 -2.074228 -2.627108
  H 8.358286 -1.870069 -2.218996
  H 0.926142 0.172413 1.115505
  H 1.228287 -1.464666 0.557180
  H 0.710361 -0.250108 -0.603707
  H 3.239793 0.563690 0.751797
  H 2.947632 -1.136702 -1.747415
  H 5.135895 0.890501 -1.003844
  H 4.805857 -0.306477 -3.635631
  H 5.615644 -0.655756 -0.813141
  H 7.180386 -3.110972 -2.848409
 17
 23.139113
  C 1.240627 -0.317220 0.265803
  C 2.688476 -0.025785 0.022577
  C 3.378955 -0.517483 -0.987162
  C 4.832721 -0.273638 -1.214299
  C 5.353528 -0.587430 -2.600695
  C 6.404711 -1.351179 -2.628943
  C 7.477880 -2.062846 -2.750318
  H 8.465689 -1.670433 -2.539310
  H 0.868270 0.249606 1.107597
  H 1.090074 -1.377064 0.464309
  H 0.645526 -0.056199 -0.604412
  H 3.181860 0.605878 0.741082
  H 2.885624 -1.142402 -1.722510
  H 5.145932 0.730396 -0.908853
  H 4.855641 -0.206407 -3.480217
  H 5.523385 -0.904308 -0.616035
  H 7.425555 -3.122235 -2.953242
 17
 17.174004
  C 1.232645 -0.377594 0.227303
  C 2.671589 -0.020830 0.012368
  C 3.399303 -0.459240 -1.002682
  C 4.861045 -0.177986 -1.179768
  C 5.388998 -0.587993 -2.525332
  C 6.396471 -1.392164 -2.646119
  C 7.450167 -2.140536 -2.738969
  H 8.438368 -1.727396 -2.713907
  H 0.814624 0.179606 1.058017
  H 1.131478 -1.439923 0.446387
  H 0.642855 -0.167029 -0.669598
  H 3.125174 0.629329 0.752494
  H 2.960766 -1.131398 -1.730291
  H 5.071625 0.885779 -1.000302
  H 4.898846 -0.170415 -3.398196
  H 5.460269 -0.712506 -0.434170
  H 7.383499 -3.211200 -2.819113
 17
 16.838366
  C 1.187690 -0.279800 0.205116
  C 2.669163 -0.095629 0.077461
  C 3.374727 -0.483568 -0.972326
  C 4.862811 -0.314884 -1.099662
  C 5.371223 -0.695025 -2.463783
  C 6.470354 -1.350909 -2.662528
  C 7.562200 -2.022972 -2.844159
  H 8.518576 -1.537725 -2.962080
  H 0.819283 0.157448 1.128751
  H 0.931112 -1.339070 0.200205
  H 0.668684 0.187550 -0.630146
  H 3.169286 0.384914 0.907841
  H 2.877004 -0.965439 -1.803604
  H 5.134461 0.726350 -0.891809
  H 4.773543 -0.369480 -3.305705
  H 5.375045 -0.922375 -0.345550
  H 7.562560 -3.100880 -2.899901
 17
 17.387849
  C 1.159705 -0.164363 0.199060
  C 2.654825 -0.123177 0.102770
  C 3.336531 -0.500948 -0.966333
  C 4.833149 -0.471606 -1.066128
  C 5.338406 -0.862245 -2.428361
  C 6.525674 -1.331304 -2.659027
  C 7.672949 -1.876182 -2.909803
  H 8.549862 -1.289449 -3.134417
  H 0.818250 0.265230 1.136658
  H 0.800272 -1.191690 0.141751
  H 0.704966 0.389300 -0.621447
  H 3.184873 0.237816 0.974643
  H 2.805084 -0.862560 -1.837526
  H 5.196572 0.534363 -0.821325
  H 4.665494 -0.688576 -3.259016
  H 5.274983 -1.139150 -0.319085
  H 7.806125 -2.946955 -2.894295
