 20
 0.000000
  C 1.007536 -0.071605 0.046749
  C 2.503489 -0.082828 0.026250
  C 3.219158 -0.595557 -0.980424
  C 4.657234 -0.605787 -1.001301
  C 5.377427 -1.121443 -2.012917
  C 6.816124 -1.130580 -2.031724
  C 7.534183 -1.642694 -3.036405
  C 9.024309 -1.661500 -3.074185
  H 0.645993 0.393701 0.963115
  H 0.611124 -1.086219 0.006975
  H 0.612074 0.496459 -0.795518
  H 3.003542 0.352132 0.881802
  H 2.708172 -1.029878 -1.831073
  H 5.161866 -0.170308 -0.147664
  H 4.873306 -1.557002 -2.866733
  H 7.322967 -0.695531 -1.178920
  H 7.035408 -2.079561 -3.892761
  H 9.458450 -1.207758 -2.184684
  H 9.383273 -1.115655 -3.948276
  H 9.383765 -2.689368 -3.145756
 20
 1.061084
  C 1.016184 -0.100267 -0.004519
  C 2.503438 -0.060963 0.107843
  C 3.243198 -0.557592 -0.886183
  C 4.674347 -0.589986 -0.937772
  C 5.380026 -1.096185 -1.966180
  C 6.817861 -1.128684 -2.017845
  C 7.528586 -1.636937 -3.050438
  C 9.016936 -1.678122 -3.119220
  H 0.520521 0.430908 0.799754
  H 0.663327 -1.130035 -0.008836
  H 0.746536 0.338098 -0.963550
  H 2.948325 0.396493 0.976217
  H 2.684404 -0.956713 -1.724702
  H 5.196331 -0.175735 -0.083345
  H 4.854724 -1.510075 -2.818271
  H 7.339252 -0.713339 -1.162600
  H 7.008561 -2.052397 -3.905889
  H 9.461463 -1.244166 -2.226657
  H 9.371293 -1.128560 -3.992010
  H 9.363277 -2.707266 -3.220450
 20
 3.490500
  C 1.042726 -0.128790 -0.052434
  C 2.517997 -0.056503 0.155869
  C 3.269003 -0.535981 -0.836498
  C 4.698278 -0.591714 -0.899392
  C 5.385361 -1.078335 -1.948734
  C 6.814103 -1.132526 -2.011447
  C 7.498018 -1.615503 -3.052843
  C 8.982056 -1.678860 -3.133848
  H 0.475149 0.530956 0.590714
  H 0.691692 -1.145295 0.103145
  H 0.890473 0.106803 -1.103294
  H 2.919101 0.415201 1.030447
  H 2.664424 -0.884831 -1.675908
  H 5.235312 -0.211885 -0.032810
  H 4.845294 -1.457074 -2.808304
  H 7.349885 -0.752147 -1.148315
  H 6.963037 -1.996013 -3.916164
  H 9.441888 -1.279542 -2.231904
  H 9.338467 -1.108914 -3.992705
  H 9.309556 -2.710296 -3.268971
 20
 8.270287
  C 1.060886 -0.152141 -0.095345
  C 2.518903 -0.045138 0.203205
  C 3.283455 -0.512544 -0.786264
  C 4.710585 -0.584618 -0.862714
  C 5.382193 -1.061036 -1.926529
  C 6.813118 -1.131704 -2.004387
  C 7.482583 -1.605557 -3.061870
  C 8.960897 -1.685464 -3.157922
  H 0.429359 0.571537 0.405486
  H 0.700371 -1.152491 0.150740
  H 1.050979 -0.056889 -1.200118
  H 2.879858 0.429700 1.097368
  H 2.637250 -0.827626 -1.617760
  H 5.260762 -0.226014 0.008349
  H 4.827713 -1.418945 -2.788853
  H 7.363201 -0.772068 -1.138163
  H 6.935590 -1.964945 -3.927184
  H 9.433225 -1.307815 -2.254649
  H 9.315692 -1.105874 -4.008801
  H 9.273786 -2.716729 -3.313385
 20
 14.876613
  C 1.079521 -0.170904 -0.133818
  C 2.516429 -0.041025 0.234185
  C 3.294505 -0.494124 -0.751308
  C 4.715801 -0.579187 -0.836003
  C 5.376854 -1.047775 -1.911832
  C 6.804996 -1.130591 -2.000368
  C 7.463678 -1.596731 -3.069033
  C 8.946774 -1.689400 -3.176948
  H 0.421724 0.602150 0.228635
  H 0.688470 -1.140429 0.191497
  H 1.204206 -0.199704 -1.240215
  H 2.844964 0.427700 1.146463
  H 2.612780 -0.782137 -1.567972
  H 5.271459 -0.239473 0.031281
  H 4.815483 -1.387409 -2.771289
  H 7.361345 -0.789234 -1.137459
  H 6.907466 -1.939215 -3.934342
  H 9.429575 -1.328009 -2.271684
  H 9.301754 -1.101585 -4.023360
  H 9.249575 -2.722199 -3.348543
 20
 23.768696
  C 1.089917 -0.186037 -0.163122
  C 2.512769 -0.041767 0.255654
  C 3.306439 -0.481407 -0.726597
  C 4.726739 -0.575493 -0.818158
  C 5.377047 -1.037471 -1.901886
  C 6.804783 -1.130025 -1.999799
  C 7.451912 -1.589428 -3.074397
  C 8.935020 -1.691875 -3.192491
  H 0.429056 0.633034 0.081839
  H 0.659186 -1.114993 0.227737
  H 1.319077 -0.320977 -1.256539
  H 2.815337 0.411345 1.180698
  H 2.569883 -0.753539 -1.541956
  H 5.288625 -0.249280 0.045454
  H 4.808194 -1.364025 -2.760205
  H 7.368411 -0.801722 -1.138273
  H 6.888820 -1.918661 -3.937533
  H 9.425987 -1.343044 -2.287320
  H 9.289312 -1.098060 -4.035795
  H 9.229430 -2.725734 -3.376057
 20
 35.305779
  C 1.098530 -0.197749 -0.180688
  C 2.504480 -0.046892 0.263781
  C 3.308172 -0.474910 -0.716441
  C 4.728672 -0.571975 -0.809905
  C 5.374198 -1.032600 -1.899176
  C 6.800925 -1.128955 -2.001154
  C 7.445489 -1.588451 -3.083239
  C 8.930725 -1.695285 -3.206902
  H 0.438311 0.647307 -0.004334
  H 0.638326 -1.090512 0.238055
  H 1.418528 -0.391021 -1.272879
  H 2.789298 0.392877 1.202104
  H 2.528975 -0.736413 -1.512521
  H 5.297487 -0.250086 0.057330
  H 4.801415 -1.354969 -2.757264
  H 7.369512 -0.804589 -1.138657
  H 6.881074 -1.911749 -3.941968
  H 9.426552 -1.352089 -2.305061
  H 9.281923 -1.103848 -4.043869
  H 9.219774 -2.722860 -3.393775
 20
 47.275009
  C 1.101298 -0.203891 -0.193974
  C 2.500389 -0.053221 0.267875
  C 3.317990 -0.470526 -0.710991
  C 4.737603 -0.569612 -0.806399
  C 5.380376 -1.029725 -1.898723
  C 6.807207 -1.128469 -2.003838
  C 7.448377 -1.587698 -3.088205
  C 8.915878 -1.694742 -3.212034
  H 0.454806 0.664876 -0.075367
  H 0.607419 -1.072838 0.251662
  H 1.486823 -0.445332 -1.282390
  H 2.771193 0.367239 1.215183
  H 2.484227 -0.726200 -1.495492
  H 5.306540 -0.252719 0.054748
  H 4.807567 -1.348950 -2.752860
  H 7.375565 -0.807778 -1.146293
  H 6.879310 -1.911523 -3.952752
  H 9.412218 -1.352324 -2.307965
  H 9.270178 -1.093677 -4.059627
  H 9.205635 -2.735742 -3.401959
 20
 58.479655
  C 1.099440 -0.205000 -0.194588
  C 2.499474 -0.062309 0.263215
  C 3.325066 -0.469070 -0.711211
  C 4.737136 -0.569107 -0.806937
  C 5.378480 -1.029213 -1.901919
  C 6.800202 -1.128560 -2.008241
  C 7.439801 -1.587181 -3.093102
  C 8.921174 -1.696761 -3.221496
  H 0.471467 0.685853 -0.118711
  H 0.581258 -1.051073 0.273188
  H 1.529540 -0.493501 -1.303826
  H 2.767794 0.337904 1.218224
  H 2.444210 -0.725826 -1.501201
  H 5.313178 -0.250313 0.060337
  H 4.802542 -1.348468 -2.759189
  H 7.372163 -0.807216 -1.146621
  H 6.871656 -1.907688 -3.951203
  H 9.418066 -1.357332 -2.322909
  H 9.272211 -1.101997 -4.060923
  H 9.208217 -2.727673 -3.411369
 20
 68.310221
  C 1.087771 -0.201850 -0.186892
  C 2.493582 -0.071965 0.257268
  C 3.324560 -0.469459 -0.714372
  C 4.741641 -0.570741 -0.812848
  C 5.380294 -1.029425 -1.906386
  C 6.809406 -1.130762 -2.015732
  C 7.446488 -1.588706 -3.099946
  C 8.921698 -1.698113 -3.228617
  H 0.484502 0.701927 -0.140876
  H 0.554075 -1.021008 0.296387
  H 1.540682 -0.533166 -1.325747
  H 2.765913 0.311676 1.222461
  H 2.396576 -0.730630 -1.517519
  H 5.319703 -0.253613 0.050518
  H 4.805460 -1.345989 -2.758105
  H 7.382073 -0.810954 -1.156726
  H 6.876612 -1.909159 -3.958959
  H 9.426454 -1.353953 -2.316520
  H 9.271367 -1.103581 -4.068691
  H 9.207086 -2.728879 -3.419646
 20
 78.048795
  C 1.078429 -0.193519 -0.172841
  C 2.491124 -0.078165 0.245502
  C 3.329867 -0.474051 -0.717644
  C 4.744727 -0.581997 -0.813387
  C 5.384609 -1.039838 -1.907610
  C 6.810086 -1.132426 -2.017601
  C 7.448790 -1.586449 -3.102704
  C 8.926824 -1.694673 -3.230739
  H 0.496053 0.724746 -0.150481
  H 0.532874 -0.991055 0.326429
  H 1.544967 -0.569605 -1.357474
  H 2.768342 0.291777 1.215002
  H 2.354298 -0.739068 -1.547258
  H 5.321616 -0.261856 0.044151
  H 4.805807 -1.356523 -2.769154
  H 7.381541 -0.811898 -1.157502
  H 6.877270 -1.907721 -3.966586
  H 9.423558 -1.356543 -2.328973
  H 9.278815 -1.094934 -4.072589
  H 9.215304 -2.729633 -3.424580
 20
 88.316960
  C 1.063663 -0.181756 -0.145952
  C 2.487072 -0.089436 0.229135
  C 3.334808 -0.475891 -0.724796
  C 4.747735 -0.585133 -0.820907
  C 5.387599 -1.042097 -1.914332
  C 6.815519 -1.133651 -2.024922
  C 7.453793 -1.586464 -3.108833
  C 8.932173 -1.696522 -3.236116
  H 0.504910 0.749005 -0.137496
  H 0.509664 -0.964004 0.367162
  H 1.529724 -0.607377 -1.408975
  H 2.774381 0.264251 1.204327
  H 2.298210 -0.754894 -1.601323
  H 5.328887 -0.263547 0.038961
  H 4.811176 -1.356343 -2.772625
  H 7.388231 -0.813045 -1.162867
  H 6.883928 -1.905461 -3.970543
  H 9.431475 -1.358005 -2.328236
  H 9.285091 -1.097567 -4.075562
  H 9.218729 -2.729729 -3.430463
 20
 98.404550
  C 1.047897 -0.169874 -0.108210
  C 2.480165 -0.101261 0.208994
  C 3.340995 -0.477542 -0.732294
  C 4.752226 -0.584807 -0.829147
  C 5.393003 -1.039843 -1.922325
  C 6.822114 -1.135743 -2.029926
  C 7.461022 -1.587982 -3.112433
  C 8.941356 -1.699651 -3.238941
  H 0.507974 0.768739 -0.092300
  H 0.496890 -0.945380 0.414725
  H 1.492668 -0.635365 -1.483639
  H 2.779065 0.247092 1.185219
  H 2.226631 -0.774981 -1.679959
  H 5.337545 -0.266192 0.035194
  H 4.818383 -1.352447 -2.779650
  H 7.394888 -0.817093 -1.165289
  H 6.893566 -1.903901 -3.972100
  H 9.437363 -1.364370 -2.335033
  H 9.296852 -1.098522 -4.079691
  H 9.228288 -2.736779 -3.434851
 20
 107.220605
  C 1.036045 -0.153955 -0.059016
  C 2.471429 -0.118405 0.178871
  C 3.346950 -0.479035 -0.740348
  C 4.756121 -0.583931 -0.837873
  C 5.397565 -1.036184 -1.930783
  C 6.828778 -1.139232 -2.034691
  C 7.468085 -1.590598 -3.115888
  C 8.948833 -1.702868 -3.241726
  H 0.517839 0.792739 -0.029660
  H 0.489816 -0.926495 0.470710
  H 1.437545 -0.663610 -1.577465
  H 2.784811 0.222174 1.156960
  H 2.145264 -0.798892 -1.781384
  H 5.346892 -0.269820 0.031038
  H 4.824909 -1.345952 -2.786700
  H 7.401110 -0.824183 -1.168126
  H 6.902429 -1.903464 -3.974438
  H 9.442879 -1.369724 -2.338734
  H 9.306447 -1.099416 -4.083247
  H 9.235869 -2.742469 -3.439066
