17

C -0.670479 -2.594494 -0.69746
C -1.772114 -1.595214 -0.352524
C -2.583477 -2.084848 0.848714
C -1.203915 -0.222791 -0.071122
O -0.006171 -0.014179 -0.003501
H -1.9029617255516795 0.5756493017101996 0.06572375294981035
H -1.097295 -3.563911 -0.941882
H 0.012473 -2.725108 0.138666
H -0.093719 -2.253238 -1.554647
H -2.433117 -1.497526 -1.2211
H -1.966061 -2.124619 1.744123
H -2.976385 -3.080539 0.65983
H -3.42686 -1.429231 1.055711
O 3.257137 0.171616 0.057972
H 3.441414 1.13347 0.113729
H 2.293242 -0.00082 0.002599
H 3.662552 -0.314915 0.807179
