 20
 0.000000
  C -1.536621 1.623143 1.616712
  C -2.224288 0.632384 0.680814
  C -3.129594 1.368641 -0.306662
  C -1.211134 -0.208698 -0.062596
  O -0.014607 0.003868 0.003661
  C -1.735136 -1.341984 -0.897632
  H -2.271431 2.191498 2.181827
  H -0.919924 2.325336 1.059228
  H -0.893631 1.104200 2.325566
  H -2.827876 -0.051325 1.288366
  H -2.546820 2.004306 -0.971055
  H -3.844170 1.993268 0.223551
  H -3.693940 0.673461 -0.925756
  H -2.801758 -1.484333 -0.746039
  H -1.223206 -2.258998 -0.615626
  H -1.549843 -1.126901 -1.946996
  O 3.353483 0.177124 -0.052597
  H 3.555540 1.125399 0.093023
  H 3.724442 -0.141661 -0.902455
  H 2.388773 0.006322 0.001666
 20
 -1.677766
  C -1.517750 1.640224 1.633989
  C -2.172637 0.634980 0.689588
  C -3.078258 1.354486 -0.327072
  C -1.141574 -0.185390 -0.046898
  O 0.051893 0.063202 0.029228
  C -1.646081 -1.322392 -0.880483
  H -2.277312 2.192389 2.180929
  H -0.911117 2.348302 1.074463
  H -0.879477 1.129323 2.351342
  H -2.783380 -0.060368 1.276172
  H -2.482549 2.002533 -0.965840
  H -3.806787 1.960691 0.203898
  H -3.612617 0.644930 -0.952912
  H -2.707728 -1.492596 -0.734464
  H -1.102812 -2.228203 -0.619395
  H -1.460129 -1.106045 -1.930475
  O 3.140439 0.128154 -0.072733
  H 3.393739 1.068952 0.064339
  H 3.445674 -0.206919 -0.943662
  H 2.149532 0.046992 0.015550
 20
 -3.266853
  C -1.470930 1.634948 1.640882
  C -2.114100 0.631823 0.683943
  C -3.014288 1.354397 -0.341811
  C -1.074197 -0.178428 -0.037369
  O 0.110519 0.066693 0.035058
  C -1.581262 -1.325108 -0.870201
  H -2.240477 2.178505 2.183234
  H -0.868363 2.351091 1.087378
  H -0.838032 1.123673 2.360731
  H -2.720757 -0.070263 1.260415
  H -2.428049 2.018037 -0.970223
  H -3.754488 1.956905 0.175438
  H -3.544140 0.661321 -0.984083
  H -2.636633 -1.500006 -0.723388
  H -1.021673 -2.222986 -0.617659
  H -1.389577 -1.108935 -1.919632
  O 2.904771 0.127418 -0.061427
  H 3.165371 1.062758 0.075636
  H 3.172494 -0.198515 -0.954572
  H 1.935576 0.038786 0.014939
 20
 -4.551427
  C -1.463119 1.644744 1.645610
  C -2.085485 0.638548 0.689655
  C -2.970651 1.348565 -0.345495
  C -1.037256 -0.173743 -0.029340
  O 0.151910 0.091240 0.052304
  C -1.521177 -1.319384 -0.866674
  H -2.242938 2.182584 2.178174
  H -0.862080 2.366467 1.097324
  H -0.833306 1.141428 2.374131
  H -2.704292 -0.063280 1.254028
  H -2.372367 2.014690 -0.959455
  H -3.720321 1.941507 0.167062
  H -3.480230 0.641692 -0.991709
  H -2.581115 -1.514817 -0.726680
  H -0.948913 -2.215357 -0.623237
  H -1.331914 -1.094949 -1.917736
  O 2.761684 0.092511 -0.090578
  H 3.072749 1.003549 0.100585
  H 2.983505 -0.174437 -1.007337
  H 1.757491 0.038816 0.023088
 20
 -3.373666
  C -1.465798 1.657187 1.654237
  C -2.067700 0.643416 0.693387
  C -2.954117 1.345498 -0.351191
  C -1.000842 -0.162386 -0.024656
  O 0.187099 0.125248 0.070076
  C -1.457207 -1.306450 -0.860459
  H -2.253828 2.182269 2.182249
  H -0.873176 2.387395 1.112370
  H -0.833521 1.163138 2.385389
  H -2.689831 -0.065860 1.251417
  H -2.359498 2.023283 -0.955504
  H -3.717154 1.923200 0.156808
  H -3.444693 0.632487 -1.003439
  H -2.509402 -1.521701 -0.722501
  H -0.870368 -2.192394 -0.623649
  H -1.274629 -1.075616 -1.909812
  O 2.654279 0.043401 -0.117926
  H 3.017561 0.918560 0.116054
  H 2.846842 -0.174328 -1.054093
  H 1.610531 0.030281 0.010117
 20
 -0.331100
  C -1.449861 1.654809 1.658942
  C -2.044026 0.637964 0.688585
  C -2.922506 1.332800 -0.359589
  C -0.987794 -0.145188 -0.010487
  O 0.191366 0.166634 0.101479
  C -1.427885 -1.296311 -0.858602
  H -2.247727 2.177710 2.185564
  H -0.853273 2.392831 1.122726
  H -0.818737 1.161540 2.396793
  H -2.665857 -0.071648 1.235289
  H -2.326186 2.018510 -0.956098
  H -3.696618 1.905182 0.146167
  H -3.403053 0.616169 -1.020057
  H -2.478291 -1.528150 -0.726163
  H -0.828732 -2.174128 -0.628335
  H -1.246220 -1.056550 -1.904983
  O 2.564554 0.026807 -0.136312
  H 2.934257 0.888234 0.131005
  H 2.755829 -0.145732 -1.071532
  H 1.459255 -0.003032 -0.002312
 20
 2.654143
  C -1.496918 1.686466 1.686121
  C -2.061873 0.649224 0.693421
  C -2.925141 1.327167 -0.358907
  C -0.970097 -0.131558 -0.004613
  O 0.197744 0.207023 0.127894
  C -1.365069 -1.270256 -0.850728
  H -2.294923 2.185900 2.192901
  H -0.917741 2.426382 1.173598
  H -0.870314 1.207137 2.431142
  H -2.678528 -0.081074 1.239824
  H -2.339427 2.015565 -0.933718
  H -3.701434 1.877613 0.126983
  H -3.385491 0.603746 -1.030066
  H -2.417899 -1.527085 -0.735706
  H -0.746233 -2.140782 -0.620571
  H -1.170590 -1.020372 -1.895367
  O 2.563592 -0.055007 -0.197072
  H 2.974897 0.777187 0.081584
  H 2.731236 -0.196310 -1.147197
  H 1.344334 -0.010651 -0.010883
 20
 2.501046
  C -1.530564 1.682155 1.689708
  C -2.063470 0.651794 0.701468
  C -2.930466 1.317547 -0.367229
  C -0.968216 -0.099864 0.031602
  O 0.195767 0.285801 0.207836
  C -1.311997 -1.245934 -0.834370
  H -2.359024 2.175203 2.193401
  H -0.944096 2.440387 1.175129
  H -0.902153 1.206163 2.445054
  H -2.674709 -0.082095 1.230592
  H -2.339604 2.025910 -0.939863
  H -3.734881 1.861162 0.118525
  H -3.365399 0.592865 -1.039025
  H -2.357182 -1.533007 -0.750777
  H -0.673462 -2.097525 -0.602083
  H -1.099196 -0.980971 -1.872032
  O 2.553280 -0.129924 -0.269269
  H 3.021511 0.660750 0.030201
  H 2.676773 -0.221354 -1.218186
  H 1.230661 -0.014184 0.012496
 20
 1.674459
  C -1.583690 1.696068 1.711294
  C -2.080716 0.660477 0.709649
  C -2.946469 1.311088 -0.373931
  C -0.959163 -0.071750 0.057281
  O 0.199436 0.339868 0.265522
  C -1.256040 -1.211408 -0.820992
  H -2.425439 2.163163 2.207804
  H -1.007531 2.466379 1.216945
  H -0.970725 1.236155 2.460527
  H -2.680853 -0.093958 1.231459
  H -2.361370 2.031991 -0.934275
  H -3.768744 1.832836 0.099407
  H -3.358912 0.564298 -1.069166
  H -2.288185 -1.514394 -0.761663
  H -0.608623 -2.061088 -0.582841
  H -1.039014 -0.929668 -1.853703
  O 2.581722 -0.213582 -0.346203
  H 3.109205 0.533258 -0.045195
  H 2.675228 -0.286815 -1.304082
  H 1.142820 -0.010108 0.029927
 20
 1.375229
  C -1.643080 1.709699 1.729407
  C -2.100885 0.662419 0.714335
  C -2.961340 1.296433 -0.383817
  C -0.962113 -0.043504 0.082604
  O 0.188478 0.391021 0.323086
  C -1.205895 -1.177836 -0.810608
  H -2.513572 2.162538 2.216810
  H -1.068251 2.504171 1.239490
  H -1.018966 1.253950 2.501223
  H -2.695674 -0.110716 1.227495
  H -2.387097 2.027222 -0.922389
  H -3.794654 1.794384 0.075490
  H -3.340849 0.553285 -1.079511
  H -2.228341 -1.512601 -0.781413
  H -0.529985 -2.013923 -0.567183
  H -0.969858 -0.876508 -1.840055
  O 2.607270 -0.297309 -0.428583
  H 3.201425 0.396968 -0.127292
  H 2.681183 -0.357044 -1.383337
  H 1.051965 0.010575 0.050623
 20
 2.732901
  C -1.705558 1.712669 1.743970
  C -2.119455 0.662570 0.727349
  C -2.983604 1.286362 -0.395563
  C -0.963169 -0.015820 0.113165
  O 0.180080 0.436183 0.389036
  C -1.159417 -1.147374 -0.794152
  H -2.582022 2.144044 2.205075
  H -1.145132 2.505756 1.271143
  H -1.088604 1.273831 2.524466
  H -2.714473 -0.113350 1.217742
  H -2.406249 2.038828 -0.928016
  H -3.844187 1.769971 0.061583
  H -3.334272 0.535699 -1.092534
  H -2.180480 -1.515010 -0.793885
  H -0.471604 -1.956024 -0.550103
  H -0.904292 -0.833384 -1.810459
  O 2.657746 -0.374705 -0.518962
  H 3.312411 0.259726 -0.213889
  H 2.726536 -0.418687 -1.476728
  H 0.973363 0.036582 0.082313
 20
 6.197843
  C -1.786863 1.720053 1.769553
  C -2.154952 0.663300 0.740687
  C -3.007642 1.274022 -0.406465
  C -0.975515 0.010731 0.141948
  O 0.162243 0.476851 0.446020
  C -1.125876 -1.111682 -0.779436
  H -2.690668 2.137813 2.210700
  H -1.226086 2.530047 1.308321
  H -1.181050 1.292238 2.565121
  H -2.756580 -0.122430 1.210650
  H -2.434249 2.031806 -0.918958
  H -3.881324 1.734822 0.032701
  H -3.326072 0.515545 -1.107715
  H -2.135323 -1.506769 -0.807697
  H -0.419414 -1.901259 -0.532758
  H -0.852110 -0.780852 -1.787415
  O 2.764934 -0.461103 -0.627646
  H 3.464310 0.124283 -0.329221
  H 2.832867 -0.511669 -1.584320
  H 0.905029 0.069920 0.118187
 20
 10.682736
  C -1.856354 1.719107 1.788555
  C -2.191487 0.658874 0.759854
  C -3.050685 1.265863 -0.428187
  C -0.999892 0.024010 0.170721
  O 0.136179 0.500029 0.487466
  C -1.123790 -1.089143 -0.765921
  H -2.768991 2.124110 2.208771
  H -1.308976 2.535211 1.332986
  H -1.254758 1.304363 2.596750
  H -2.792182 -0.143882 1.209505
  H -2.478075 2.041835 -0.923630
  H -3.938072 1.714860 0.004713
  H -3.344037 0.502654 -1.131541
  H -2.120004 -1.502184 -0.818436
  H -0.393768 -1.865195 -0.528907
  H -0.834093 -0.738650 -1.765499
  O 2.921017 -0.531168 -0.714679
  H 3.640598 0.033681 -0.421610
  H 2.988170 -0.596409 -1.672478
  H 0.857260 0.107098 0.153908
 20
 12.471945
  C -1.970521 1.727229 1.809076
  C -2.253736 0.649749 0.774673
  C -3.094450 1.248278 -0.424395
  C -1.042838 0.042413 0.192604
  O 0.082290 0.531658 0.532341
  C -1.130543 -1.060229 -0.755673
  H -2.901996 2.118972 2.200201
  H -1.420313 2.551817 1.364571
  H -1.390388 1.330092 2.634625
  H -2.868518 -0.147176 1.187186
  H -2.515323 2.029615 -0.905483
  H -3.986753 1.690375 0.001652
  H -3.368607 0.480924 -1.129391
  H -2.117840 -1.487389 -0.830755
  H -0.386118 -1.830189 -0.519196
  H -0.835240 -0.692896 -1.744640
  O 3.182842 -0.624733 -0.839264
  H 3.916944 -0.080962 -0.543678
  H 3.269676 -0.694488 -1.798406
  H 0.804243 0.157919 0.186423
