 23
 0.000000
  H 1.365650 0.141294 0.403454
  C 2.435627 0.138812 0.396949
  C 3.229471 0.606512 1.560312
  C 2.462344 1.098650 2.784948
  H 3.137579 1.408205 3.555100
  C 3.047724 -0.326485 -0.761128
  C 4.427680 -0.410350 -0.970580
  C 5.111749 -0.860636 -2.093538
  C 4.622398 -1.384411 -3.399794
  C 3.132979 -1.504809 -3.700598
  H 2.985456 -1.899227 -4.684250
  O 6.434575 -0.852273 -2.073085
  H 3.886571 1.416144 1.222870
  H 3.886751 -0.211308 1.877002
  H 1.825548 0.303651 3.177702
  H 1.825480 1.944269 2.518350
  H 2.388559 -0.643775 -1.550690
  H 5.047217 -0.079018 -0.145404
  H 5.082172 -2.371786 -3.523346
  H 5.082493 -0.756172 -4.171309
  H 2.655388 -0.525521 -3.650229
  H 2.655156 -2.177872 -2.987664
  H 6.800018 -0.516405 -1.234749
 23
 0.000000
  H 1.353895 0.161298 0.453337
  C 2.423867 0.158548 0.446159
  C 3.218560 0.626058 1.609018
  C 2.452328 1.118396 2.834134
  H 3.128124 1.427787 3.603858
  C 3.035119 -0.306909 -0.712300
  C 4.414922 -0.391120 -0.922621
  C 5.161193 -0.883134 -2.149624
  C 4.670889 -1.406792 -3.455570
  C 3.181251 -1.526816 -3.755437
  H 3.033010 -1.921202 -4.738994
  O 6.338622 -0.889463 -2.165802
  H 3.875650 1.435524 1.271157
  H 3.875835 -0.191924 1.925300
  H 1.815580 0.323558 3.227294
  H 1.815507 1.964172 2.567931
  H 2.375378 -0.624040 -1.501445
  H 5.035061 -0.059937 -0.097837
  H 5.130336 -2.394284 -3.579405
  H 5.130658 -0.778674 -4.227377
  H 2.703939 -0.547407 -3.704773
  H 2.703706 -2.199754 -3.042199
  H 6.655155 -0.556397 -1.334481
 23
 0.000000
  H 1.338348 0.183529 0.508774
  C 2.408308 0.180187 0.500109
  C 3.204875 0.647264 1.661860
  C 2.440618 1.140034 2.888035
  H 3.117655 1.449056 3.656817
  C 3.017691 -0.285617 -0.659195
  C 4.397154 -0.370595 -0.871431
  C 5.210278 -0.908569 -2.213030
  C 4.717870 -1.431960 -3.518290
  C 3.227750 -1.551153 -3.816089
  H 3.077924 -1.945462 -4.799437
  O 6.265690 -0.928029 -2.261943
  H 3.861943 1.456362 1.323080
  H 3.862135 -0.171081 1.977234
  H 1.803977 0.345553 3.282085
  H 1.803897 1.986162 2.622711
  H 2.356679 -0.602387 -1.447420
  H 5.018622 -0.039750 -0.047512
  H 5.176593 -2.419709 -3.642758
  H 5.176917 -0.804102 -4.290739
  H 2.751056 -0.571478 -3.764769
  H 2.750820 -2.223822 -3.102185
  H 6.547885 -0.594120 -1.428545
 23
 0.000000
  H 1.319223 0.208017 0.569832
  C 2.389159 0.203777 0.558924
  C 3.188551 0.670194 1.718998
  C 2.427280 1.163613 2.946769
  H 3.106187 1.472072 3.714127
  C 2.995719 -0.262545 -0.601651
  C 4.374662 -0.348680 -0.816779
  C 5.259052 -0.936916 -2.283695
  C 4.763469 -1.459899 -3.587917
  C 3.272629 -1.577838 -3.882593
  H 3.120411 -1.972025 -4.865622
  O 6.215325 -0.967994 -2.361569
  H 3.845586 1.478739 1.378835
  H 3.845785 -0.148699 2.033000
  H 1.790801 0.369668 3.342160
  H 1.790714 2.010272 2.682774
  H 2.332790 -0.578766 -1.388486
  H 4.998133 -0.018352 0.005832
  H 5.221098 -2.448034 -3.713339
  H 5.221426 -0.832431 -4.361330
  H 2.796869 -0.597761 -3.830280
  H 2.796629 -2.250101 -3.167687
  H 6.474753 -0.629723 -1.517317
 23
 0.000000
  H 1.297150 0.234410 0.635638
  C 2.367048 0.229025 0.621867
  C 3.170040 0.694592 1.779795
  C 2.412586 1.188833 3.009594
  H 3.093873 1.496570 3.775130
  C 2.970002 -0.237954 -0.540322
  C 4.348271 -0.325567 -0.759137
  C 5.307108 -0.967662 -2.360335
  C 4.807479 -1.490117 -3.663225
  C 3.315730 -1.606455 -3.953912
  H 3.160461 -2.000481 -4.936528
  O 6.185687 -1.008967 -2.463703
  H 3.827028 1.502431 1.437868
  H 3.827235 -0.125002 2.092045
  H 1.776317 0.395573 3.406693
  H 1.776222 2.036172 2.747295
  H 2.304632 -0.553470 -1.325378
  H 4.974294 0.004099 0.061800
  H 5.263708 -2.478744 -3.789862
  H 5.264041 -0.863145 -4.437863
  H 2.841165 -0.625866 -3.900335
  H 2.840921 -2.278202 -3.237731
  H 6.431392 -0.663055 -1.600418
 23
 0.000000
  H 1.273082 0.262111 0.704702
  C 2.342926 0.255414 0.687656
  C 3.150029 0.720003 1.843115
  C 2.396949 1.215180 3.075223
  H 3.080953 1.522085 3.838667
  C 2.941746 -0.212310 -0.476370
  C 4.319231 -0.301613 -0.699403
  C 5.353948 -0.999943 -2.440801
  C 4.849692 -1.521787 -3.742152
  C 3.356919 -1.636291 -4.028273
  H 3.198159 -2.030130 -5.010407
  O 6.173082 -1.050304 -2.566741
  H 3.806957 1.527035 1.499171
  H 3.807172 -0.100394 2.153360
  H 1.760928 0.422702 3.474276
  H 1.760825 2.063296 2.814865
  H 2.273589 -0.527014 -1.259382
  H 4.948168 0.027290 0.119611
  H 5.304315 -2.510976 -3.870177
  H 5.304653 -0.895381 -4.518188
  H 2.883727 -0.655119 -3.973251
  H 2.883477 -2.307451 -3.310638
  H 6.411505 -0.694016 -1.677601
 23
 0.000000
  H 1.247886 0.290611 0.775756
  C 2.317658 0.282517 0.755221
  C 3.129131 0.746058 1.908039
  C 2.380720 1.242223 3.142590
  H 3.067610 1.548240 3.903798
  C 2.912068 -0.185994 -0.410746
  C 4.288700 -0.277098 -0.638269
  C 5.399392 -1.032976 -2.523140
  C 4.890214 -1.554164 -3.822837
  C 3.396368 -1.666711 -4.104091
  H 3.233892 -2.060345 -5.085699
  O 6.173045 -1.091492 -2.669408
  H 3.785986 1.552229 1.561946
  H 3.786209 -0.075196 2.216146
  H 1.744968 0.450579 3.543723
  H 1.744858 2.091168 2.884301
  H 2.240951 -0.499830 -1.191573
  H 4.920734 0.050988 0.178687
  H 5.343121 -2.543947 -3.952336
  H 5.343464 -0.928356 -4.600357
  H 2.924644 -0.684920 -4.047535
  H 2.924388 -2.337248 -3.384912
  H 6.408068 -0.722839 -1.749450
 23
 0.000000
  H 1.222104 0.319645 0.848139
  C 2.291791 0.310126 0.824045
  C 3.107711 0.772590 1.974153
  C 2.364073 1.269758 3.211183
  H 3.053899 1.574862 3.970098
  C 2.881694 -0.159182 -0.343889
  C 4.257439 -0.252121 -0.575989
  C 5.443586 -1.066275 -2.606141
  C 4.929393 -1.586785 -3.904134
  C 3.434470 -1.697337 -4.180419
  H 3.268206 -2.090756 -5.161479
  O 6.181810 -1.132301 -2.771127
  H 3.764485 1.577884 1.625870
  H 3.764716 -0.049537 2.280080
  H 1.728605 0.478963 3.614435
  H 1.728487 2.119549 2.955002
  H 2.207566 -0.472127 -1.122476
  H 4.892623 0.075126 0.238856
  H 5.380543 -2.577174 -4.035131
  H 5.380892 -0.961587 -4.683162
  H 2.964250 -0.714916 -4.122302
  H 2.963988 -2.367240 -3.459670
  H 6.415176 -0.749986 -1.817117
 23
 0.000000
  H 1.196003 0.349132 0.921648
  C 2.265591 0.338193 0.894012
  C 3.085929 0.799580 2.041407
  C 2.347052 1.297740 3.280889
  H 3.039792 1.601932 4.037512
  C 2.850999 -0.131902 -0.275866
  C 4.225844 -0.226667 -0.512520
  C 5.486786 -1.099586 -2.689170
  C 4.967606 -1.619414 -3.985450
  C 3.471631 -1.727976 -4.256784
  H 3.301597 -2.121177 -5.237285
  O 6.196826 -1.172686 -2.871788
  H 3.742614 1.604000 1.690943
  H 3.742852 -0.023416 2.345164
  H 1.711875 0.507790 3.686250
  H 1.711749 2.148372 3.026807
  H 2.173881 -0.443956 -1.052212
  H 4.864157 0.099740 0.300214
  H 5.417001 -2.610403 -4.117932
  H 5.417356 -0.994820 -4.765972
  H 3.002914 -0.744930 -4.197117
  H 3.002646 -2.397251 -3.534476
  H 6.428660 -0.775924 -1.881770
 23
 0.000000
  H 1.169681 0.379082 0.996312
  C 2.239158 0.366751 0.965199
  C 3.063822 0.827074 2.109917
  C 2.329627 1.326201 3.351790
  H 3.025218 1.629495 4.106156
  C 2.820148 -0.104112 -0.206571
  C 4.194092 -0.200667 -0.447693
  C 5.529220 -1.132762 -2.771862
  C 5.005153 -1.651915 -4.066445
  C 3.508164 -1.758523 -4.332917
  H 3.334431 -2.151503 -5.312858
  O 6.216556 -1.212675 -2.971461
  H 3.720411 1.630638 1.757314
  H 3.720657 0.003225 2.411544
  H 1.694743 0.537081 3.759221
  H 1.694609 2.177658 3.099768
  H 2.140105 -0.415287 -0.980710
  H 4.835468 0.124913 0.362959
  H 5.452820 -2.643491 -4.200380
  H 5.453181 -1.027911 -4.848428
  H 3.040928 -0.774865 -4.271735
  H 3.040653 -2.427182 -3.609085
  H 6.445788 -0.801021 -1.944326
 23
 0.000000
  H 1.143147 0.409550 1.072262
  C 2.212503 0.395864 1.037769
  C 3.041363 0.855148 2.179871
  C 2.311730 1.355210 3.424055
  H 3.010085 1.657626 4.176215
  C 2.789190 -0.075739 -0.135828
  C 4.162242 -0.174035 -0.381290
  C 5.571039 -1.165688 -2.853928
  C 5.042226 -1.684178 -4.146846
  C 3.544268 -1.788884 -4.408587
  H 3.366942 -2.181646 -5.387972
  O 6.240142 -1.252306 -3.070241
  H 3.697851 1.657878 1.825188
  H 3.698105 0.030469 2.479427
  H 1.677138 0.566896 3.833497
  H 1.676997 2.207469 3.174033
  H 2.106310 -0.386056 -0.907811
  H 4.806589 0.150737 0.427328
  H 5.488207 -2.676322 -4.282188
  H 5.488574 -1.060746 -4.930245
  H 3.078479 -0.804633 -4.345936
  H 3.078197 -2.456946 -3.683278
  H 6.464791 -0.825520 -2.005392
 23
 0.000000
  H 1.116350 0.440613 1.149696
  C 2.185579 0.425620 1.111940
  C 3.018481 0.883896 2.251504
  C 2.293259 1.384854 3.497904
  H 2.994275 1.686419 4.247927
  C 2.758105 -0.046692 -0.063408
  C 4.130280 -0.146667 -0.313058
  C 5.612311 -1.198230 -2.935036
  C 5.078922 -1.716074 -4.226332
  C 3.580045 -1.818942 -4.483504
  H 3.399251 -2.211488 -5.462340
  O 6.267126 -1.291596 -3.168171
  H 3.674864 1.685821 1.894812
  H 3.675125 0.058416 2.549061
  H 1.658957 0.597318 3.909287
  H 1.658808 2.237887 3.249814
  H 2.072493 -0.356178 -0.833301
  H 4.777488 0.177320 0.493588
  H 5.523270 -2.708765 -4.363027
  H 5.523643 -1.093192 -5.011092
  H 3.115657 -0.834120 -4.419438
  H 3.115369 -2.486430 -3.756772
  H 6.484500 -0.849545 -2.065277
 23
 0.000000
  H 1.089187 0.472387 1.228899
  C 2.158282 0.456141 1.188015
  C 2.995052 0.913445 2.325133
  C 2.274069 1.415258 3.573646
  H 2.977630 1.716005 4.321613
  C 2.726813 -0.016847 0.011000
  C 4.098133 -0.118431 -0.242664
  C 5.653018 -1.230202 -3.014725
  C 5.115246 -1.747421 -4.304452
  C 3.615503 -1.848526 -4.557239
  H 3.431385 -2.240862 -5.535540
  O 6.297255 -1.330512 -3.265167
  H 3.651328 1.714599 1.966516
  H 3.651597 0.087197 2.620774
  H 1.640050 0.628468 3.986890
  H 1.639895 2.269033 3.327407
  H 2.038588 -0.325532 -0.756881
  H 4.748078 0.204800 0.562082
  H 5.558023 -2.740635 -4.442440
  H 5.558403 -1.125066 -5.090513
  H 3.152464 -0.863158 -4.491822
  H 3.152169 -2.515465 -3.829147
  H 6.504098 -0.873102 -2.123996
 23
 0.000000
  H 1.061462 0.505061 1.310345
  C 2.130421 0.487624 1.266485
  C 2.970863 0.943999 2.401266
  C 2.253917 1.446621 3.651778
  H 2.959893 1.746586 4.397781
  C 2.695146 0.013997 0.087896
  C 4.065640 -0.089117 -0.169584
  C 5.693039 -1.261316 -3.092271
  C 5.151102 -1.777936 -4.380495
  C 3.650550 -1.877361 -4.629108
  H 3.463272 -2.269493 -5.606891
  O 6.330338 -1.368920 -3.360896
  H 3.627031 1.744419 2.040817
  H 3.627306 0.117021 2.695084
  H 1.620175 0.660540 4.066790
  H 1.620013 2.301102 3.407299
  H 2.004443 -0.293924 -0.678065
  H 4.718183 0.233393 0.633347
  H 5.592382 -2.771645 -4.519708
  H 5.592768 -1.156079 -5.167789
  H 3.188798 -0.891475 -4.562409
  H 3.188496 -2.543778 -3.899726
  H 6.522937 -0.896045 -2.181185
