 22
 0.000000
  C 0.913744 0.045557 0.328315
  C 2.366213 0.065730 -0.029205
  H 3.021435 0.017070 0.833193
  C 2.975330 0.132956 -1.220558
  C 2.366313 0.210727 -2.598836
  C 0.848496 0.219210 -2.749147
  C 0.463548 0.302389 -4.223245
  C 4.438453 0.132101 -1.205368
  C 5.254372 0.191128 -2.251517
  H 6.323020 0.183714 -2.120107
  H 0.806097 -0.015357 1.407776
  H 0.406341 -0.811923 -0.108167
  H 0.406341 0.946702 -0.008931
  H 2.758060 -0.636845 -3.172236
  H 2.758062 1.117424 -3.073246
  H 0.423479 1.076100 -2.227770
  H 0.423491 -0.690870 -2.327487
  H 0.858680 1.211320 -4.672518
  H -0.618364 0.308730 -4.335610
  H 0.858688 -0.550246 -4.771928
  H 4.878271 0.076341 -0.217162
  H 4.912352 0.248607 -3.270186
 22
 12.617343
  C 0.871952 0.042313 0.385799
  C 2.323335 0.060972 0.055122
  H 2.977708 0.012595 0.912499
  C 3.010868 0.136021 -1.274867
  C 2.390582 0.213026 -2.639562
  C 0.870184 0.219945 -2.762164
  C 0.455514 0.302671 -4.228235
  C 4.458230 0.133901 -1.237280
  C 5.289840 0.192410 -2.274245
  H 6.356437 0.184153 -2.127881
  H 0.746655 -0.018539 1.464184
  H 0.369890 -0.814899 -0.060702
  H 0.369890 0.944318 0.038568
  H 2.774769 -0.634909 -3.218037
  H 2.774771 1.120654 -3.118976
  H 0.455247 1.076254 -2.231225
  H 0.455249 -0.690651 -2.330928
  H 0.840666 1.212008 -4.685382
  H -0.628448 0.307794 -4.319016
  H 0.840668 -0.549474 -4.784777
  H 4.884875 0.077780 -0.242652
  H 4.961472 0.250131 -3.297195
 22
 37.664903
  C 0.842813 0.042610 0.380558
  C 2.288043 0.058049 0.107022
  H 2.967013 0.011741 0.927775
  C 3.057738 0.140807 -1.359621
  C 2.409485 0.215423 -2.682015
  C 0.890620 0.219289 -2.750508
  C 0.420112 0.301013 -4.198786
  C 4.477757 0.134620 -1.249895
  C 5.340734 0.191519 -2.258379
  H 6.403417 0.181427 -2.079653
  H 0.684343 -0.018204 1.458303
  H 0.348928 -0.812651 -0.083634
  H 0.348934 0.944650 0.015536
  H 2.780881 -0.629125 -3.270001
  H 2.780885 1.120764 -3.171278
  H 0.497678 1.076545 -2.200612
  H 0.497618 -0.694472 -2.300477
  H 0.785936 1.211373 -4.670654
  H -0.666469 0.303802 -4.248146
  H 0.785902 -0.550457 -4.770027
  H 4.871578 0.077827 -0.243433
  H 5.037319 0.249638 -3.288515
 22
 65.562687
  C 0.803709 0.038346 0.456091
  C 2.249376 0.053173 0.193436
  H 2.971834 0.008769 0.980495
  C 3.090546 0.143950 -1.415419
  C 2.422238 0.218255 -2.732328
  C 0.899814 0.220883 -2.778714
  C 0.404115 0.302157 -4.219121
  C 4.492666 0.135147 -1.259393
  C 5.391928 0.191880 -2.264827
  H 6.450619 0.180665 -2.065911
  H 0.638511 -0.022468 1.533807
  H 0.309042 -0.815583 -0.010952
  H 0.309039 0.939376 0.088076
  H 2.783592 -0.628857 -3.330011
  H 2.783610 1.127232 -3.230941
  H 0.517888 1.076392 -2.220974
  H 0.517843 -0.691979 -2.320707
  H 0.760919 1.212653 -4.697376
  H -0.683164 0.303897 -4.249792
  H 0.760884 -0.548742 -4.796730
  H 4.866156 0.077940 -0.245438
  H 5.101472 0.250326 -3.300592
 22
 92.850315
  C 0.758382 0.035526 0.505965
  C 2.200551 0.048596 0.274498
  H 2.929342 0.004371 1.058384
  C 3.129219 0.146925 -1.468148
  C 2.446931 0.220694 -2.775533
  C 0.922165 0.221416 -2.788129
  C 0.392966 0.301950 -4.215427
  C 4.516586 0.136795 -1.288571
  C 5.427763 0.192906 -2.282989
  H 6.481841 0.181030 -2.072419
  H 0.571564 -0.025024 1.578941
  H 0.271517 -0.817616 0.028005
  H 0.271499 0.937014 0.127009
  H 2.798911 -0.626641 -3.379875
  H 2.798924 1.130627 -3.280735
  H 0.552682 1.076159 -2.221230
  H 0.552666 -0.691643 -2.320965
  H 0.737071 1.212643 -4.701738
  H -0.694623 0.302243 -4.220433
  H 0.737053 -0.548288 -4.801096
  H 4.878330 0.079327 -0.270047
  H 5.147131 0.251354 -3.318819
 22
 116.958319
  C 0.707905 0.032237 0.564249
  C 2.153048 0.044076 0.354670
  H 2.888977 0.000405 1.128761
  C 3.166723 0.150025 -1.522990
  C 2.470538 0.223102 -2.818159
  C 0.946289 0.222026 -2.798909
  C 0.384727 0.301895 -4.214406
  C 4.537072 0.138517 -1.318993
  C 5.464455 0.194072 -2.303644
  H 6.516497 0.181379 -2.078695
  H 0.502578 -0.028298 1.636926
  H 0.226512 -0.820354 0.077543
  H 0.226494 0.934152 0.176546
  H 2.812501 -0.624208 -3.428384
  H 2.812513 1.133666 -3.329216
  H 0.589376 1.076254 -2.223043
  H 0.589337 -0.691570 -2.322738
  H 0.716622 1.213261 -4.708532
  H -0.702859 0.300805 -4.194878
  H 0.716587 -0.548117 -4.807895
  H 4.885208 0.080820 -0.296423
  H 5.194159 0.252752 -3.343646
 22
 137.422707
  C 0.660217 0.028937 0.622664
  C 2.101832 0.039655 0.433007
  H 2.845521 -0.003705 1.201610
  C 3.202781 0.153150 -1.578370
  C 2.492017 0.225612 -2.862661
  C 0.966931 0.222718 -2.811170
  C 0.372893 0.301806 -4.212873
  C 4.559593 0.140182 -1.348493
  C 5.505422 0.195053 -2.321007
  H 6.552104 0.181421 -2.079462
  H 0.437109 -0.031404 1.691876
  H 0.185303 -0.822495 0.127842
  H 0.185280 0.930615 0.226764
  H 2.823652 -0.622599 -3.478959
  H 2.823662 1.137752 -3.379656
  H 0.623002 1.076294 -2.226370
  H 0.622976 -0.691198 -2.326060
  H 0.691979 1.213384 -4.714395
  H -0.713791 0.299298 -4.168216
  H 0.691946 -0.547593 -4.813733
  H 4.892817 0.082183 -0.320597
  H 5.248993 0.253833 -3.362828
 22
 154.104744
  C 0.606634 0.025364 0.685952
  C 2.050604 0.035315 0.509928
  H 2.799590 -0.007745 1.273222
  C 3.239206 0.156340 -1.634882
  C 2.513909 0.228120 -2.907094
  C 0.989626 0.223381 -2.822877
  C 0.362973 0.301661 -4.210271
  C 4.582212 0.142001 -1.380709
  C 5.546947 0.196172 -2.340830
  H 6.589874 0.181538 -2.081530
  H 0.366035 -0.034903 1.753855
  H 0.137146 -0.825654 0.183332
  H 0.137121 0.927507 0.282257
  H 2.834218 -0.620626 -3.528885
  H 2.834229 1.141401 -3.429486
  H 0.659163 1.076277 -2.229198
  H 0.659131 -0.690866 -2.328856
  H 0.669058 1.213796 -4.719167
  H -0.722489 0.297720 -4.140181
  H 0.669020 -0.547467 -4.818522
  H 4.900183 0.083746 -0.348280
  H 5.304352 0.255183 -3.386761
 22
 167.197099
  C 0.554709 0.021642 0.751876
  C 1.996165 0.031064 0.585248
  H 2.748665 -0.011938 1.347507
  C 3.274554 0.159547 -1.691735
  C 2.534085 0.230686 -2.952579
  C 1.010216 0.224104 -2.835685
  C 0.351658 0.301522 -4.207887
  C 4.605481 0.143818 -1.412907
  C 5.589864 0.197171 -2.358547
  H 6.626571 0.181460 -2.080165
  H 0.297870 -0.038443 1.816534
  H 0.091443 -0.827995 0.242501
  H 0.091416 0.923172 0.341314
  H 2.842698 -0.619104 -3.579799
  H 2.842709 1.145616 -3.480253
  H 0.693219 1.076285 -2.233507
  H 0.693195 -0.690363 -2.333148
  H 0.644574 1.213917 -4.723638
  H -0.731750 0.296158 -4.112562
  H 0.644537 -0.547094 -4.822973
  H 4.907268 0.085274 -0.375356
  H 5.363400 0.256320 -3.406912
 22
 176.873908
  C 0.496615 0.017227 0.830110
  C 1.939371 0.026817 0.660550
  H 2.690128 -0.016585 1.429874
  C 3.307560 0.162751 -1.748517
  C 2.554997 0.233265 -2.998266
  C 1.032805 0.224929 -2.850297
  C 0.344546 0.301511 -4.207668
  C 4.628357 0.145908 -1.449915
  C 5.631511 0.198461 -2.381393
  H 6.663566 0.181681 -2.084148
  H 0.222654 -0.042823 1.894137
  H 0.039766 -0.830916 0.313642
  H 0.039737 0.918070 0.412333
  H 2.852063 -0.617243 -3.629934
  H 2.852072 1.149404 -3.530275
  H 0.728763 1.076240 -2.240218
  H 0.728736 -0.689574 -2.339805
  H 0.624991 1.214366 -4.729721
  H -0.736586 0.294808 -4.088609
  H 0.624954 -0.546851 -4.829063
  H 4.914755 0.087115 -0.407934
  H 5.420851 0.257819 -3.433526
 22
 181.981727
  C 0.435102 0.011026 0.939986
  C 1.872743 0.022106 0.744066
  H 2.607728 -0.023009 1.543677
  C 3.330319 0.165499 -1.797252
  C 2.576580 0.235912 -3.045128
  C 1.054817 0.226344 -2.875373
  C 0.345647 0.302325 -4.222122
  C 4.652737 0.148372 -1.493530
  C 5.669056 0.200355 -2.415014
  H 6.697877 0.182863 -2.105259
  H 0.142006 -0.048984 2.003306
  H -0.011620 -0.832829 0.415359
  H -0.011651 0.908531 0.513620
  H 2.866339 -0.615696 -3.679544
  H 2.866346 1.153465 -3.579740
  H 0.760241 1.076195 -2.259205
  H 0.760227 -0.687392 -2.358685
  H 0.617161 1.215398 -4.748449
  H -0.733501 0.294688 -4.086572
  H 0.617139 -0.545775 -4.847806
  H 4.929376 0.089371 -0.447807
  H 5.470876 0.259839 -3.469477
 22
 182.618903
  C 0.370052 0.003688 1.070025
  C 1.804091 0.016787 0.838358
  H 2.512577 -0.030181 1.670744
  C 3.347950 0.167740 -1.836943
  C 2.598722 0.238348 -3.088146
  C 1.077256 0.228037 -2.905381
  C 0.355236 0.303629 -4.245252
  C 4.676956 0.150950 -1.539038
  C 5.698311 0.202704 -2.456736
  H 6.726785 0.184960 -2.142804
  H 0.064739 -0.056147 2.130210
  H -0.069983 -0.839035 0.536459
  H -0.070018 0.901073 0.634651
  H 2.884528 -0.613657 -3.723839
  H 2.884524 1.156447 -3.623972
  H 0.788659 1.076659 -2.284831
  H 0.788664 -0.684979 -2.384223
  H 0.621217 1.216890 -4.774197
  H -0.722652 0.295417 -4.099678
  H 0.621216 -0.544357 -4.873569
  H 4.950301 0.091854 -0.491511
  H 5.505363 0.262287 -3.513251
 22
 181.547785
  C 0.305661 -0.003873 1.203955
  C 1.734119 0.011029 0.940439
  H 2.416130 -0.037562 1.801538
  C 3.362537 0.169602 -1.869821
  C 2.619767 0.240500 -3.125907
  C 1.098329 0.229731 -2.935463
  C 0.368058 0.305065 -4.270805
  C 4.699895 0.153406 -1.582107
  C 5.720274 0.205147 -2.500297
  H 6.749663 0.187482 -2.188387
  H -0.004852 -0.063481 2.260097
  H -0.129815 -0.845043 0.663261
  H -0.129856 0.892769 0.761326
  H 2.903700 -0.611558 -3.762355
  H 2.903673 1.158758 -3.662470
  H 0.813600 1.077347 -2.311708
  H 0.813638 -0.682657 -2.411038
  H 0.630476 1.218452 -4.801408
  H -0.708939 0.296481 -4.118958
  H 0.630508 -0.542836 -4.900800
  H 4.974414 0.094300 -0.534079
  H 5.526911 0.264702 -3.557045
 22
 171.307011
  C 0.284322 -0.039083 1.227309
  C 1.712565 0.010289 0.948478
  H 2.313897 -0.044714 1.872128
  C 3.354658 0.173803 -1.801913
  C 2.639866 0.369638 -3.063574
  C 1.119705 0.248289 -2.919709
  C 0.416077 0.305107 -4.269637
  C 4.717929 0.314658 -1.618719
  C 5.656880 0.109969 -2.583193
  H 6.699900 -0.025957 -2.332757
  H -0.060311 -0.111912 2.263078
  H -0.101856 -0.878523 0.644271
  H -0.156458 0.834277 0.743494
  H 3.001307 -0.474464 -3.671272
  H 2.893820 1.288818 -3.607035
  H 0.761913 1.058251 -2.283713
  H 0.890598 -0.692213 -2.416589
  H 0.627805 1.246446 -4.773976
  H -0.660887 0.220875 -4.145697
  H 0.749882 -0.507952 -4.911619
  H 5.058376 0.405771 -0.593787
  H 5.377901 -0.093614 -3.607604
