 22
 0.000000
  C 0.956024 0.054285 0.173662
  C 2.458412 0.058808 0.093487
  C 3.258000 -0.013810 1.380489
  C 2.473440 -0.087498 2.686339
  H 3.172551 -0.134458 3.518619
  C 3.080129 0.126331 -1.103129
  C 2.325162 0.199658 -2.402678
  H 1.251391 0.191865 -2.264533
  C 4.531282 0.133252 -1.225753
  C 5.217957 0.197309 -2.361062
  H 6.295059 0.197340 -2.361587
  H 0.603325 -0.003409 1.196085
  H 0.546916 -0.800423 -0.364918
  H 0.546918 0.964159 -0.265345
  H 3.907553 0.865322 1.432480
  H 3.907560 -0.893211 1.333250
  H 1.847183 -0.976204 2.723446
  H 1.847179 0.791385 2.823188
  H 2.598165 -0.645032 -3.035046
  H 2.598165 1.110123 -2.936007
  H 5.092422 0.081258 -0.304281
  H 4.759601 0.252145 -3.332888
 22
 7.049197
  C 0.973229 0.054926 0.162297
  C 2.474464 0.060063 0.071251
  C 3.279380 -0.012016 1.348700
  C 2.416967 -0.093542 2.793432
  H 3.121277 -0.140084 3.618309
  C 3.088534 0.127630 -1.126165
  C 2.326537 0.200741 -2.421863
  H 1.253504 0.192601 -2.277588
  C 4.539196 0.134926 -1.255430
  C 5.222319 0.199263 -2.395704
  H 6.299664 0.199530 -2.400396
  H 0.629323 -0.002931 1.187614
  H 0.560300 -0.799803 -0.373331
  H 0.560302 0.964489 -0.273774
  H 3.925829 0.865915 1.403351
  H 3.925834 -0.890520 1.304240
  H 1.794160 -0.981651 2.828438
  H 1.794153 0.784987 2.928126
  H 2.595833 -0.644056 -3.055434
  H 2.595833 1.111448 -2.956377
  H 5.104443 0.083058 -0.336179
  H 4.759498 0.253982 -3.365461
