 29
 0.000000
  C 0.967587 0.141027 0.404036
  C 2.443508 0.138589 0.396680
  C 3.233315 0.606889 1.560836
  C 2.460444 1.097119 2.780895
  H 3.137885 1.410929 3.561006
  C 3.056402 -0.326589 -0.761066
  C 4.433768 -0.411762 -0.973822
  C 5.114680 -0.862348 -2.097327
  C 4.623023 -1.385182 -3.401468
  C 3.133200 -1.504093 -3.699412
  C 2.914827 -2.066176 -5.101470
  O 6.436919 -0.856368 -2.082273
  H 0.536829 0.511902 1.326800
  H 0.594922 -0.870545 0.238211
  H 0.594254 0.756010 -0.415772
  H 3.889289 1.417579 1.224597
  H 3.889852 -0.210543 1.879161
  H 1.824868 0.303446 3.172198
  H 1.824381 1.940474 2.514126
  H 2.397326 -0.644068 -1.550819
  H 5.051427 -0.079921 -0.147450
  H 5.080570 -2.373214 -3.526221
  H 5.081204 -0.757429 -4.174236
  H 2.657017 -0.524202 -3.647368
  H 2.656382 -2.176277 -2.984953
  H 3.355339 -1.418324 -5.855808
  H 1.850809 -2.148810 -5.308605
  H 3.354735 -3.056001 -5.199181
  H 6.809577 -0.521403 -1.245229
 29
 9.728063
  C 0.916238 0.152633 0.433331
  C 2.391568 0.141332 0.403694
  C 3.203304 0.604328 1.554241
  C 2.453288 1.099233 2.785809
  H 3.149869 1.408893 3.555316
  C 2.977912 -0.322881 -0.751479
  C 4.510079 -0.422959 -1.001438
  C 5.169155 -0.872766 -2.123093
  C 4.655984 -1.392263 -3.419087
  C 3.161585 -1.501016 -3.691882
  C 2.918188 -2.061660 -5.090536
  O 6.491336 -0.873161 -2.123942
  H 0.503386 0.526268 1.362783
  H 0.534823 -0.856413 0.272145
  H 0.534037 0.768810 -0.381463
  H 3.859324 1.409798 1.206686
  H 3.860011 -0.217024 1.860866
  H 1.820417 0.311253 3.190090
  H 1.819815 1.947349 2.532272
  H 2.313260 -0.637587 -1.534176
  H 5.132964 -0.094006 -0.182236
  H 5.106165 -2.382775 -3.550763
  H 5.106873 -0.767494 -4.198525
  H 2.693276 -0.518030 -3.631858
  H 2.692572 -2.169946 -2.969574
  H 3.351346 -1.416577 -5.851376
  H 1.850841 -2.137892 -5.281837
  H 3.350675 -3.053985 -5.194915
  H 6.879195 -0.540686 -1.292895
 29
 29.263343
  C 0.863500 0.155834 0.441327
  C 2.341975 0.134301 0.386075
  C 3.181338 0.591482 1.522088
  C 2.459191 1.091543 2.766670
  H 3.180419 1.394841 3.520404
  C 2.891636 -0.324359 -0.755256
  C 4.582102 -0.431856 -1.023517
  C 5.219426 -0.876090 -2.131362
  C 4.685469 -1.392631 -3.419980
  C 3.187075 -1.487589 -3.658454
  C 2.909861 -2.046191 -5.052000
  O 6.548090 -0.880642 -2.142737
  H 0.474264 0.532816 1.379069
  H 0.471161 -0.849897 0.284947
  H 0.470276 0.772855 -0.367706
  H 3.837720 1.389252 1.159978
  H 3.838502 -0.234369 1.812784
  H 1.830797 0.311108 3.189735
  H 1.830133 1.947231 2.532009
  H 2.240653 -0.640587 -1.541731
  H 5.187425 -0.101651 -0.200986
  H 5.127690 -2.385833 -3.559540
  H 5.128454 -0.771440 -4.207002
  H 2.730714 -0.500314 -3.586812
  H 2.729961 -2.151581 -2.924752
  H 3.333198 -1.404853 -5.821436
  H 1.838459 -2.114030 -5.222423
  H 3.332476 -3.041753 -5.165136
  H 6.951132 -0.550863 -1.318386
 29
 51.220397
  C 0.789901 0.187338 0.519411
  C 2.271343 0.150874 0.427204
  C 3.140711 0.601561 1.547386
  C 2.449449 1.107165 2.805905
  H 3.191335 1.402731 3.540794
  C 2.796530 -0.321487 -0.748254
  C 4.642424 -0.442535 -1.050184
  C 5.276788 -0.896682 -2.182866
  C 4.731676 -1.412702 -3.470006
  C 3.230997 -1.501021 -3.691715
  C 2.935716 -2.058404 -5.082155
  O 6.608938 -0.905748 -2.205900
  H 0.432301 0.568743 1.468181
  H 0.382829 -0.813593 0.372234
  H 0.382021 0.807356 -0.279619
  H 3.796952 1.392090 1.169714
  H 3.797609 -0.229981 1.821705
  H 1.824840 0.333025 3.246946
  H 1.824356 1.970887 2.588715
  H 2.150789 -0.639848 -1.540108
  H 5.237376 -0.108575 -0.218190
  H 5.170555 -2.406962 -3.613649
  H 5.171215 -0.793616 -4.260748
  H 2.781396 -0.511075 -3.613812
  H 2.780753 -2.162628 -2.951636
  H 3.353862 -1.419046 -5.856074
  H 1.862351 -2.121976 -5.241793
  H 3.353203 -3.055585 -5.199888
  H 7.023599 -0.578227 -1.387520
 29
 71.627713
  C 0.739374 0.211251 0.578005
  C 2.213579 0.150266 0.426232
  C 3.123975 0.587887 1.514361
  C 2.480490 1.101598 2.792175
  H 3.255093 1.385245 3.498090
  C 2.664960 -0.324507 -0.754593
  C 4.669636 -0.451713 -1.072348
  C 5.291766 -0.897730 -2.185838
  C 4.763140 -1.414640 -3.475057
  C 3.262335 -1.503598 -3.697611
  C 2.963271 -2.060278 -5.086523
  O 6.610712 -0.901584 -2.197424
  H 0.440938 0.599902 1.543801
  H 0.309218 -0.781181 0.447612
  H 0.309126 0.836728 -0.203435
  H 3.778690 1.366385 1.110706
  H 3.778744 -0.253339 1.761825
  H 1.864464 0.338194 3.262303
  H 1.864704 1.978148 2.603084
  H 2.063651 -0.653288 -1.572498
  H 5.202182 -0.104480 -0.207202
  H 5.209080 -2.405792 -3.615641
  H 5.209384 -0.795485 -4.261483
  H 2.817725 -0.511263 -3.615457
  H 2.817442 -2.164252 -2.952849
  H 3.381483 -1.421346 -5.860862
  H 1.890073 -2.124153 -5.246396
  H 3.381120 -3.057275 -5.205100
  H 7.018783 -0.573824 -1.379374
 29
 91.048273
  C 0.678992 0.212422 0.580196
  C 2.163614 0.146414 0.416299
  C 3.090650 0.581290 1.498262
  C 2.465781 1.098419 2.784898
  H 3.252470 1.378172 3.481607
  C 2.595517 -0.321293 -0.747171
  C 4.757279 -0.458532 -1.089713
  C 5.372514 -0.909799 -2.216401
  C 4.803002 -1.421526 -3.492410
  C 3.293883 -1.487987 -3.658422
  C 2.932897 -2.039580 -5.034331
  O 6.730928 -0.924165 -2.254364
  H 0.390327 0.601916 1.548193
  H 0.243513 -0.779500 0.453121
  H 0.243639 0.840022 -0.198433
  H 3.744778 1.356706 1.086633
  H 3.744685 -0.263464 1.737657
  H 1.852346 0.338233 3.263750
  H 1.852787 1.978848 2.604509
  H 2.004765 -0.652114 -1.570475
  H 5.280818 -0.110840 -0.223271
  H 5.231514 -2.418828 -3.647084
  H 5.231710 -0.807701 -4.293402
  H 2.868698 -0.489341 -3.558250
  H 2.868593 -2.140795 -2.896126
  H 3.330848 -1.406921 -5.824472
  H 1.853453 -2.087002 -5.152833
  H 3.330680 -3.042906 -5.168581
  H 7.163586 -0.597598 -1.439347
 29
 107.550795
  C 0.619530 0.232958 0.631291
  C 2.104699 0.154210 0.435643
  C 3.055335 0.583883 1.504690
  C 2.455260 1.104353 2.799799
  H 3.254834 1.378575 3.482740
  C 2.514863 -0.325873 -0.758643
  C 4.831769 -0.477313 -1.136388
  C 5.430542 -0.925109 -2.254484
  C 4.848786 -1.431440 -3.517060
  C 3.339120 -1.486041 -3.653420
  C 2.944904 -2.034461 -5.021530
  O 6.751205 -0.943520 -2.302642
  H 0.360971 0.625510 1.606904
  H 0.173183 -0.753579 0.515761
  H 0.173283 0.864663 -0.135300
  H 3.706941 1.354063 1.081569
  H 3.706863 -0.264993 1.732104
  H 1.845318 0.348348 3.289373
  H 1.845695 1.989173 2.630096
  H 1.933867 -0.659167 -1.588131
  H 5.347179 -0.127093 -0.263730
  H 5.269637 -2.430941 -3.678335
  H 5.269797 -0.820540 -4.324312
  H 2.925364 -0.483617 -3.542830
  H 2.925301 -2.134426 -2.881028
  H 3.331542 -1.405267 -5.819828
  H 1.863130 -2.072987 -5.117797
  H 3.331416 -3.040900 -5.164161
  H 7.182920 -0.621791 -1.499856
 29
 114.121800
  C 0.570586 0.252907 0.665713
  C 2.084819 0.143388 0.408386
  C 3.069447 0.568249 1.477695
  C 2.497895 1.094049 2.783203
  H 3.315456 1.357657 3.449672
  C 2.354889 -0.322053 -0.751440
  C 4.829906 -0.481000 -1.148678
  C 5.422041 -0.915713 -2.238341
  C 4.871849 -1.434863 -3.528827
  C 3.358125 -1.494076 -3.666314
  C 2.962791 -2.041830 -5.029669
  O 6.790418 -0.918192 -2.255291
  H 0.417360 0.653017 1.661582
  H 0.100551 -0.723654 0.588749
  H 0.107042 0.908935 -0.065942
  H 3.716161 1.334916 1.044814
  H 3.709611 -0.289574 1.696179
  H 1.890786 0.344078 3.284970
  H 1.897857 1.987420 2.626194
  H 1.880802 -0.672025 -1.630133
  H 5.188398 -0.109202 -0.220933
  H 5.299929 -2.430181 -3.678756
  H 5.295359 -0.816910 -4.325834
  H 2.944883 -0.491928 -3.549934
  H 2.949364 -2.140141 -2.889024
  H 3.347814 -1.410774 -5.827775
  H 1.880161 -2.082649 -5.124500
  H 3.352057 -3.047785 -5.171366
  H 7.198877 -0.591958 -1.450276
 29
 118.821116
  C 0.535671 0.270206 0.712937
  C 2.037828 0.151023 0.429049
  C 3.031593 0.567738 1.473465
  C 2.476101 1.095765 2.783435
  H 3.303594 1.356259 3.438749
  C 2.274066 -0.319881 -0.742543
  C 4.902961 -0.495999 -1.181315
  C 5.477809 -0.929222 -2.268195
  C 4.909239 -1.444445 -3.551713
  C 3.394150 -1.489410 -3.655457
  C 2.962521 -2.033873 -5.013857
  O 6.838163 -0.937784 -2.300183
  H 0.414056 0.672161 1.711468
  H 0.059435 -0.702129 0.647943
  H 0.064644 0.929598 -0.008030
  H 3.672202 1.331698 1.029780
  H 3.667356 -0.294128 1.683031
  H 1.873882 0.348108 3.294311
  H 1.879248 1.992440 2.633774
  H 1.814695 -0.674862 -1.631455
  H 5.236957 -0.119992 -0.242384
  H 5.326749 -2.443459 -3.707840
  H 5.322846 -0.827487 -4.354860
  H 2.992928 -0.482338 -3.530048
  H 2.996667 -2.133601 -2.869322
  H 3.336158 -1.405905 -5.819667
  H 1.877987 -2.065040 -5.085797
  H 3.339732 -3.042922 -5.164712
  H 7.261976 -0.607769 -1.485989
 29
 121.842955
  C 0.478204 0.278606 0.734999
  C 1.981968 0.152242 0.433181
  C 3.001239 0.566348 1.468998
  C 2.471002 1.100549 2.792880
  H 3.312919 1.355046 3.431948
  C 2.186924 -0.317667 -0.734550
  C 4.971823 -0.506600 -1.203525
  C 5.539861 -0.942006 -2.298133
  C 4.950175 -1.451544 -3.569486
  C 3.428564 -1.481312 -3.634323
  C 2.956470 -2.018697 -4.978266
  O 6.902795 -0.957508 -2.348503
  H 0.376700 0.682048 1.735607
  H -0.004186 -0.693640 0.678499
  H 0.000827 0.942846 0.019393
  H 3.639364 1.328502 1.012249
  H 3.634908 -0.302740 1.668729
  H 1.873995 0.357236 3.316931
  H 1.879025 2.002788 2.654922
  H 1.749401 -0.675586 -1.630357
  H 5.275501 -0.129483 -0.259960
  H 5.356280 -2.453807 -3.733018
  H 5.351908 -0.836051 -4.379387
  H 3.041680 -0.470487 -3.497575
  H 3.045861 -2.122027 -2.838597
  H 3.315610 -1.393729 -5.792410
  H 1.870485 -2.038872 -5.022052
  H 3.319681 -3.030926 -5.139281
  H 7.332234 -0.633076 -1.549496
 29
 123.994307
  C 0.433201 0.294461 0.775464
  C 1.930869 0.157299 0.446148
  C 2.963057 0.561983 1.456993
  C 2.455252 1.096543 2.781370
  H 3.308517 1.346130 3.407111
  C 2.103832 -0.315812 -0.728746
  C 5.044598 -0.517637 -1.228626
  C 5.601069 -0.951425 -2.320323
  C 4.984436 -1.458157 -3.585880
  C 3.464577 -1.471434 -3.609524
  C 2.947822 -2.003807 -4.942641
  O 6.965842 -0.974285 -2.389560
  H 0.360756 0.699220 1.778558
  H -0.055786 -0.671936 0.730695
  H -0.051171 0.961924 0.071932
  H 3.593774 1.318548 0.990076
  H 3.589930 -0.309582 1.645836
  H 1.863679 0.356695 3.314304
  H 1.868116 2.002021 2.651900
  H 1.687537 -0.677609 -1.633434
  H 5.319122 -0.137007 -0.275209
  H 5.376828 -2.464181 -3.757213
  H 5.372485 -0.844758 -4.403575
  H 3.094058 -0.456017 -3.461573
  H 3.098096 -2.108454 -2.803131
  H 3.291746 -1.382152 -5.766684
  H 1.860391 -2.012224 -4.957073
  H 3.295733 -3.020340 -5.114096
  H 7.409401 -0.649178 -1.589579
 29
 125.290076
  C 0.375613 0.304693 0.800716
  C 1.871492 0.158475 0.449157
  C 2.930470 0.558702 1.448548
  C 2.448683 1.099696 2.788323
  H 3.316556 1.342706 3.397542
  C 2.012623 -0.313384 -0.722072
  C 5.110176 -0.526308 -1.248146
  C 5.662259 -0.962576 -2.347663
  C 5.022149 -1.463501 -3.599596
  C 3.499130 -1.460715 -3.582200
  C 2.940732 -1.985886 -4.898585
  O 7.024642 -0.993560 -2.438218
  H 0.326040 0.709982 1.804700
  H -0.120587 -0.660820 0.765388
  H -0.115889 0.977843 0.104345
  H 3.558630 1.313809 0.967245
  H 3.554736 -0.321675 1.626353
  H 1.862496 0.363757 3.334720
  H 1.867015 2.011627 2.670933
  H 1.619654 -0.678671 -1.635133
  H 5.352685 -0.144526 -0.290480
  H 5.401772 -2.473007 -3.777987
  H 5.397059 -0.851760 -4.424350
  H 3.144501 -0.441042 -3.423441
  H 3.148810 -2.094158 -2.765720
  H 3.268955 -1.367818 -5.730767
  H 1.853971 -1.982855 -4.883790
  H 3.273212 -3.005209 -5.079392
  H 7.476427 -0.672693 -1.649734
 29
 126.062516
  C 0.329847 0.322417 0.845110
  C 1.816639 0.164133 0.463030
  C 2.889460 0.554054 1.436380
  C 2.432461 1.094861 2.775650
  H 3.311322 1.331997 3.369934
  C 1.925103 -0.310450 -0.714715
  C 5.178974 -0.535214 -1.269443
  C 5.720464 -0.969510 -2.364614
  C 5.052030 -1.467703 -3.610137
  C 3.531635 -1.449300 -3.553957
  C 2.932259 -1.969079 -4.857235
  O 7.085555 -1.008632 -2.475931
  H 0.310718 0.728380 1.850690
  H -0.173437 -0.637063 0.822219
  H -0.169036 0.999601 0.161755
  H 3.509511 1.303078 0.944759
  H 3.505852 -0.328903 1.602592
  H 1.852454 0.362849 3.330932
  H 1.856757 2.009984 2.667269
  H 1.554866 -0.679045 -1.635256
  H 5.390803 -0.150537 -0.303843
  H 5.417852 -2.480798 -3.795271
  H 5.413281 -0.857903 -4.442095
  H 3.193219 -0.425793 -3.385737
  H 3.197231 -2.079076 -2.728141
  H 3.245907 -1.354031 -5.698214
  H 1.845602 -1.954997 -4.815054
  H 3.249907 -2.992351 -5.046686
  H 7.551236 -0.688201 -1.688816
 29
 126.410277
  C 0.269193 0.334839 0.875806
  C 1.751858 0.166808 0.469018
  C 2.852686 0.551350 1.429082
  C 2.424314 1.098389 2.784322
  H 3.318249 1.328471 3.361024
  C 1.830936 -0.305868 -0.704193
  C 5.241658 -0.541675 -1.284768
  C 5.778493 -0.979443 -2.389365
  C 5.084630 -1.471086 -3.618670
  C 3.564291 -1.436783 -3.522514
  C 2.926154 -1.949174 -4.807743
  O 7.137378 -1.028049 -2.524804
  H 0.271945 0.740640 1.881002
  H -0.241334 -0.623233 0.862732
  H -0.237129 1.017636 0.200449
  H 3.469654 1.298807 0.922518
  H 3.466255 -0.340721 1.583288
  H 1.850315 0.370016 3.353487
  H 1.854473 2.020346 2.688615
  H 1.481380 -0.677600 -1.632324
  H 5.425467 -0.156439 -0.316952
  H 5.436869 -2.487481 -3.810254
  H 5.432210 -0.863150 -4.457358
  H 3.241896 -0.409416 -3.344749
  H 3.245840 -2.062999 -2.687392
  H 3.224426 -1.337618 -5.655850
  H 1.842002 -1.924019 -4.737822
  H 3.228355 -2.974831 -5.005110
  H 7.613763 -0.711634 -1.748206
