26

H 1.388734610904663 0.13608260284722568 0.390848013842382
C 2.458709 0.139076 0.397619
C 3.239141 0.609852 1.568419
C 2.455394 1.098204 2.783969
C 3.398405 1.545492 3.89631
C 3.07285 -0.324759 -0.756985
C 4.450298 -0.413051 -0.977376
C 5.123279 -0.864414 -2.102741
C 4.62314 -1.3867 -3.405263
C 3.130757 -1.501884 -3.69364
H 2.9677449487039316 -1.8954511819968975 -4.675185691441447
O 6.448664 -0.861152 -2.094623
H 3.895117 1.422998 1.23706
H 3.895552 -0.206124 1.891843
H 1.817127 0.299885 3.167905
H 1.81673 1.939921 2.508782
H 4.034558 0.725296 4.222911
H 2.827875 1.890661 4.755559
H 4.034128 2.363876 3.564334
H 2.402903 -0.638834 -1.538514
H 5.070703 -0.081812 -0.152336
H 5.076607 -2.376425 -3.532835
H 5.077108 -0.759701 -4.181316
H 2.657655 -0.520544 -3.637757
H 2.657095 -2.172415 -2.975299
H 6.822532 -0.526207 -1.258135
