 26
 0.000000
  H 1.414583 0.146843 0.424597
  C 2.494781 0.142276 0.411909
  C 3.264121 0.610730 1.572350
  C 2.455524 1.093555 2.770717
  C 3.373031 1.548849 3.901694
  C 3.081163 -0.323764 -0.749500
  C 4.456678 -0.414723 -0.978150
  C 5.126337 -0.868762 -2.113484
  C 4.614149 -1.386810 -3.408255
  C 3.121339 -1.495834 -3.680882
  H 2.961693 -1.894093 -4.676401
  O 6.442307 -0.867669 -2.111831
  H 3.926236 1.421827 1.241787
  H 3.922543 -0.202479 1.901172
  H 1.814368 0.290494 3.138591
  H 1.814647 1.927707 2.479351
  H 4.008370 0.733897 4.241130
  H 2.784384 1.890318 4.749390
  H 4.008643 2.371399 3.581623
  H 2.403942 -0.634550 -1.524809
  H 5.088492 -0.087037 -0.160713
  H 5.068016 -2.375714 -3.539699
  H 5.068120 -0.761605 -4.185622
  H 2.646650 -0.518956 -3.629613
  H 2.646564 -2.167763 -2.969995
  H 6.836129 -0.536265 -1.281805
 26
 0.250435
  H 1.523622 -0.289540 0.694137
  C 2.592742 -0.189372 0.571105
  C 3.332861 0.508576 1.628903
  C 2.458320 1.032855 2.762127
  C 3.289413 1.766510 3.809630
  C 3.120399 -0.588737 -0.637968
  C 4.489829 -0.693343 -0.892676
  C 5.140447 -1.024596 -2.081831
  C 4.592835 -1.307792 -3.433840
  C 3.098139 -1.258917 -3.701261
  H 2.932636 -1.475463 -4.753802
  O 6.451879 -1.102165 -2.085650
  H 3.876972 1.335660 1.157410
  H 4.103506 -0.149092 2.047785
  H 1.931911 0.201979 3.236856
  H 1.706500 1.715115 2.359765
  H 4.027480 1.103596 4.255420
  H 2.651365 2.141171 4.605875
  H 3.808661 2.614301 3.368641
  H 2.417420 -0.818149 -1.418181
  H 5.142876 -0.529302 -0.042934
  H 4.979832 -2.293474 -3.716812
  H 5.101765 -0.611131 -4.110412
  H 2.687843 -0.273362 -3.501010
  H 2.563789 -2.011809 -3.128678
  H 6.882804 -0.926560 -1.227127
 26
 2.882070
  H 1.578909 -0.518771 0.795142
  C 2.635782 -0.343273 0.646959
  C 3.338379 0.500185 1.620016
  C 2.454071 1.030192 2.743164
  C 3.240545 1.935367 3.685055
  C 3.148448 -0.694006 -0.586857
  C 4.509779 -0.831489 -0.855873
  C 5.145684 -1.083642 -2.071988
  C 4.586406 -1.207634 -3.444340
  C 3.096731 -1.050499 -3.699029
  H 2.920130 -1.158698 -4.766543
  O 6.452249 -1.229204 -2.087544
  H 3.771474 1.322950 1.039767
  H 4.189855 -0.034564 2.058721
  H 2.037569 0.195104 3.309183
  H 1.620541 1.592949 2.319678
  H 4.059959 1.393694 4.152008
  H 2.595656 2.313206 4.474301
  H 3.651518 2.788143 3.149666
  H 2.434553 -0.780618 -1.387855
  H 5.165619 -0.792723 0.007040
  H 4.918199 -2.182205 -3.819970
  H 5.134053 -0.478945 -4.053413
  H 2.742703 -0.065838 -3.407442
  H 2.520738 -1.822863 -3.197114
  H 6.889397 -1.154190 -1.218104
 26
 8.210718
  H 1.768909 -0.857563 0.958832
  C 2.706303 -0.397915 0.673750
  C 3.304298 0.592232 1.572444
  C 2.462594 0.941954 2.793743
  C 3.151072 1.998772 3.650446
  C 3.218369 -0.687225 -0.584700
  C 4.549472 -0.968036 -0.849304
  C 5.158548 -1.255290 -2.069163
  C 4.597709 -1.263917 -3.447405
  C 3.141956 -0.905608 -3.696838
  H 2.959706 -0.945191 -4.768746
  O 6.434003 -1.578948 -2.085024
  H 3.505576 1.478813 0.961394
  H 4.296557 0.251982 1.902198
  H 2.292271 0.046017 3.393468
  H 1.489785 1.319278 2.473653
  H 4.112330 1.641069 4.012722
  H 2.537947 2.245829 4.513092
  H 3.315300 2.911560 3.082203
  H 2.500586 -0.670854 -1.389523
  H 5.201128 -1.014527 0.016226
  H 4.800480 -2.261605 -3.852421
  H 5.239034 -0.592895 -4.031033
  H 2.916301 0.104089 -3.364766
  H 2.469133 -1.618450 -3.230211
  H 6.866981 -1.594248 -1.210942
 26
 17.555931
  H 2.015023 -1.073869 1.125126
  C 2.826827 -0.460448 0.754821
  C 3.282756 0.675158 1.558121
  C 2.468460 0.937494 2.820477
  C 3.004023 2.150096 3.573611
  C 3.311372 -0.700389 -0.544941
  C 4.585450 -1.120728 -0.845258
  C 5.153143 -1.378485 -2.095738
  C 4.585301 -1.216562 -3.461341
  C 3.176193 -0.680896 -3.657216
  H 2.979575 -0.620338 -4.725033
  O 6.382696 -1.843359 -2.152473
  H 3.280344 1.546314 0.894880
  H 4.339490 0.539602 1.833101
  H 2.505029 0.063225 3.472312
  H 1.424844 1.112894 2.554561
  H 4.035902 1.993716 3.879646
  H 2.412283 2.333180 4.466831
  H 2.960909 3.042105 2.952869
  H 2.597537 -0.508932 -1.333029
  H 5.235009 -1.305921 0.002905
  H 4.669938 -2.196419 -3.944318
  H 5.293160 -0.579555 -4.003721
  H 3.069658 0.320667 -3.249826
  H 2.432352 -1.347391 -3.230117
  H 6.814094 -1.974810 -1.287472
 26
 27.859212
  H 2.340216 -1.227107 1.290679
  C 2.993482 -0.495608 0.837838
  C 3.263718 0.759275 1.543942
  C 2.475915 0.935583 2.839270
  C 2.816807 2.261126 3.510842
  C 3.433462 -0.712080 -0.512474
  C 4.610872 -1.302425 -0.854040
  C 5.135042 -1.556983 -2.138085
  C 4.588463 -1.224048 -3.478279
  C 3.267422 -0.484896 -3.616351
  H 3.073267 -0.327483 -4.674625
  O 6.287757 -2.175100 -2.235222
  H 3.071843 1.595561 0.859380
  H 4.339473 0.824623 1.762320
  H 2.702563 0.116396 3.523483
  H 1.406370 0.906585 2.625090
  H 3.873608 2.308281 3.763722
  H 2.245409 2.379745 4.427980
  H 2.582058 3.098370 2.857420
  H 2.748739 -0.355466 -1.272559
  H 5.235897 -1.636159 -0.032800
  H 4.532479 -2.171399 -4.026851
  H 5.374927 -0.657395 -3.990241
  H 3.306091 0.492660 -3.144285
  H 2.440431 -1.067029 -3.219540
  H 6.699639 -2.423624 -1.385610
 26
 12.979643
  H 2.974486 -1.309736 1.453105
  C 3.300487 -0.452324 0.873166
  C 3.227948 0.868564 1.501621
  C 2.550761 0.869309 2.870445
  C 2.545036 2.266403 3.478425
  C 3.621032 -0.662542 -0.474744
  C 4.640130 -1.497125 -0.890785
  C 5.059762 -1.787035 -2.189236
  C 4.554241 -1.293854 -3.498781
  C 3.400375 -0.303800 -3.566568
  H 3.212085 -0.070708 -4.612224
  O 6.073005 -2.608615 -2.361833
  H 2.733823 1.589858 0.840998
  H 4.252029 1.251730 1.604049
  H 3.074165 0.187359 3.544200
  H 1.520194 0.517116 2.769487
  H 3.559658 2.633655 3.618533
  H 2.053818 2.256500 4.448116
  H 2.011745 2.965851 2.838828
  H 3.019860 -0.143655 -1.209760
  H 5.204237 -1.982331 -0.103123
  H 4.297319 -2.189258 -4.076419
  H 5.422065 -0.872242 -4.015201
  H 3.644947 0.628123 -3.066211
  H 2.487008 -0.726343 -3.160390
  H 6.454013 -2.970631 -1.540130
 26
 0.965967
  H 3.639588 -1.177474 1.568493
  C 3.579280 -0.327793 0.899866
  C 3.171933 0.954536 1.475105
  C 2.663837 0.859056 2.912639
  C 2.293803 2.231850 3.460096
  C 3.789744 -0.539155 -0.447822
  C 4.604812 -1.573561 -0.905974
  C 4.938255 -1.922732 -2.214396
  C 4.520502 -1.321111 -3.508232
  C 3.591297 -0.119790 -3.547527
  H 3.433015 0.154487 -4.587842
  O 5.753597 -2.934718 -2.413904
  H 2.424017 1.446308 0.840282
  H 4.037077 1.632495 1.450910
  H 3.430411 0.414171 3.550166
  H 1.784921 0.211193 2.944537
  H 3.157480 2.892394 3.469647
  H 1.924144 2.147287 4.478445
  H 1.514178 2.693783 2.856498
  H 3.305231 0.116257 -1.151620
  H 5.066199 -2.177012 -0.133506
  H 4.076664 -2.139096 -4.087557
  H 5.447230 -1.080323 -4.040163
  H 4.029172 0.740194 -3.047749
  H 2.619784 -0.352139 -3.121035
  H 6.067161 -3.380548 -1.604364
 26
 -2.478236
  H 4.290254 -0.845054 1.628938
  C 3.841259 -0.161357 0.917221
  C 3.167886 1.018083 1.458553
  C 2.694035 0.864844 2.902391
  C 2.068492 2.153760 3.421620
  C 3.943584 -0.422066 -0.428053
  C 4.597505 -1.562939 -0.898599
  C 4.805428 -1.987107 -2.212029
  C 4.451821 -1.329432 -3.498180
  C 3.808037 0.045324 -3.517119
  H 3.700109 0.357882 -4.554083
  O 5.413787 -3.133322 -2.422101
  H 2.345954 1.330342 0.808607
  H 3.891062 1.850735 1.427764
  H 3.534108 0.586606 3.544855
  H 1.955769 0.062527 2.952925
  H 2.791120 2.964059 3.422899
  H 1.713800 2.018684 4.439879
  H 1.219225 2.450323 2.805064
  H 3.496973 0.275333 -1.115627
  H 4.990981 -2.221786 -0.128677
  H 3.810062 -2.039093 -4.037826
  H 5.378880 -1.302976 -4.082276
  H 4.427617 0.782339 -3.013930
  H 2.814972 0.027700 -3.079460
  H 5.672956 -3.622280 -1.617841
 26
 -0.688951
  H 4.688472 -0.419151 1.530071
  C 3.972248 0.036758 0.858812
  C 3.134731 1.104487 1.409010
  C 2.712004 0.849087 2.862276
  C 1.893148 2.011096 3.409077
  C 3.878528 -0.412459 -0.434155
  C 4.643818 -1.479468 -0.905703
  C 4.648535 -2.032800 -2.191881
  C 4.403166 -1.342205 -3.484200
  C 4.198116 0.164995 -3.498529
  H 4.159239 0.499067 -4.532202
  O 4.993665 -3.284263 -2.357503
  H 2.260056 1.273782 0.779108
  H 3.719012 2.033802 1.402649
  H 3.594249 0.702440 3.486793
  H 2.115196 -0.063344 2.902935
  H 2.473521 2.930648 3.409414
  H 1.584432 1.806490 4.430664
  H 0.997841 2.170290 2.811562
  H 3.151267 0.050093 -1.080992
  H 5.279821 -1.972828 -0.178727
  H 3.556810 -1.836730 -3.975267
  H 5.269105 -1.597196 -4.105200
  H 5.019148 0.679824 -3.007707
  H 3.264665 0.456117 -3.032044
  H 5.181441 -3.780039 -1.538438
 26
 4.867511
  H 4.885912 0.001447 1.348421
  C 4.007171 0.229741 0.760505
  C 3.045436 1.171475 1.347754
  C 2.709094 0.804999 2.806238
  C 1.753015 1.820230 3.418503
  C 3.814439 -0.407906 -0.437183
  C 4.702063 -1.351787 -0.942181
  C 4.542424 -2.035373 -2.172994
  C 4.355036 -1.351511 -3.472333
  C 4.635245 0.144388 -3.496971
  H 4.465588 0.521469 -4.500966
  O 4.597382 -3.329589 -2.242661
  H 2.128594 1.211434 0.758525
  H 3.489225 2.173008 1.364880
  H 3.625117 0.765789 3.397523
  H 2.249673 -0.184306 2.827715
  H 2.197040 2.813144 3.432717
  H 1.513227 1.541486 4.441459
  H 0.824187 1.868201 2.854008
  H 2.910999 -0.195770 -0.993097
  H 5.586224 -1.589082 -0.362252
  H 3.330112 -1.544394 -3.813142
  H 4.991660 -1.873471 -4.191807
  H 5.668711 0.347664 -3.230669
  H 3.991377 0.693445 -2.818980
  H 4.720577 -3.800875 -1.394759
 26
 15.942315
  H 4.860052 0.466645 1.111383
  C 3.869807 0.422875 0.682505
  C 2.809305 1.182277 1.374535
  C 2.791855 0.861934 2.880588
  C 1.721555 1.668517 3.604342
  C 3.637358 -0.380620 -0.409619
  C 4.613909 -1.130141 -1.033040
  C 4.410534 -1.942722 -2.209496
  C 4.537334 -1.364810 -3.552669
  C 5.124479 0.038269 -3.613142
  H 5.123660 0.389499 -4.640268
  O 4.118133 -3.177623 -2.142468
  H 1.831246 0.946455 0.952234
  H 2.987452 2.257431 1.271201
  H 3.768520 1.084264 3.313876
  H 2.596780 -0.203043 3.018116
  H 1.907177 2.735632 3.503017
  H 1.714620 1.424143 4.664100
  H 0.735188 1.453238 3.199689
  H 2.627570 -0.428439 -0.795393
  H 5.637066 -1.067923 -0.685845
  H 3.526953 -1.364241 -3.983206
  H 5.097446 -2.063211 -4.183672
  H 6.150032 0.046279 -3.255396
  H 4.546112 0.735444 -3.014372
  H 3.998166 -3.567146 -1.246721
 26
 5.106840
  H 4.616017 0.927061 0.820694
  C 3.618840 0.568458 0.607469
  C 2.537110 1.062742 1.469304
  C 2.913373 0.962533 2.959129
  C 1.807131 1.522649 3.842886
  C 3.439650 -0.362738 -0.384374
  C 4.475345 -0.817980 -1.191029
  C 4.310070 -1.733467 -2.260739
  C 4.699211 -1.378379 -3.641715
  C 5.492012 -0.087465 -3.792573
  H 5.665216 0.109845 -4.846199
  O 3.788749 -2.908787 -2.107780
  H 1.612542 0.513088 1.287785
  H 2.356463 2.121511 1.254620
  H 3.838051 1.510740 3.144028
  H 3.085063 -0.084268 3.214325
  H 1.632372 2.574155 3.627001
  H 2.080950 1.432965 4.891173
  H 0.876162 0.982061 3.688742
  H 2.438307 -0.731624 -0.565043
  H 5.468584 -0.412451 -1.051065
  H 3.757767 -1.304966 -4.199383
  H 5.229971 -2.220739 -4.096979
  H 6.459530 -0.163228 -3.304313
  H 4.952945 0.757401 -3.372910
  H 3.487919 -3.131704 -1.203529
 26
 -2.723413
  H 4.279938 1.251991 0.590393
  C 3.411784 0.607393 0.590126
  C 2.420006 0.815245 1.647400
  C 3.049100 1.167040 3.002663
  C 1.979564 1.433067 4.053881
  C 3.313639 -0.383089 -0.353691
  C 4.252204 -0.543118 -1.377171
  C 4.177772 -1.523176 -2.375054
  C 4.801401 -1.351605 -3.709408
  C 5.647331 -0.102970 -3.911388
  H 6.005884 -0.076879 -4.936298
  O 3.539516 -2.650040 -2.224223
  H 1.767840 -0.055314 1.739778
  H 1.786754 1.664207 1.357540
  H 3.684124 2.048182 2.900564
  H 3.676959 0.336206 3.328910
  H 1.355989 2.277932 3.770669
  H 2.441186 1.660786 5.011533
  H 1.340075 0.563395 4.186145
  H 2.441721 -1.023874 -0.317682
  H 5.071359 0.156633 -1.430475
  H 3.978599 -1.360866 -4.433445
  H 5.383314 -2.251050 -3.934484
  H 6.515250 -0.104150 -3.257505
  H 5.069374 0.799823 -3.736338
  H 3.119736 -2.779688 -1.352198
 26
 -3.074687
  H 4.129856 1.324509 0.619477
  C 3.298051 0.637008 0.597552
  C 2.364583 0.599191 1.722821
  C 2.942894 1.107804 3.045110
  C 1.908351 1.036874 4.161435
  C 3.252428 -0.313823 -0.394659
  C 4.083263 -0.271400 -1.517881
  C 4.091233 -1.205071 -2.558392
  C 4.980777 -1.082233 -3.740284
  C 5.923540 0.112736 -3.780085
  H 6.509471 0.071772 -4.694614
  O 3.329044 -2.264638 -2.591516
  H 1.998332 -0.429916 1.804923
  H 1.495579 1.222932 1.478001
  H 3.282758 2.137633 2.930402
  H 3.806372 0.498402 3.314683
  H 1.047607 1.661576 3.935951
  H 2.339584 1.383427 5.097795
  H 1.563733 0.015864 4.306857
  H 2.507825 -1.090794 -0.276894
  H 4.772470 0.552752 -1.592157
  H 4.337568 -1.079577 -4.627112
  H 5.552418 -2.013276 -3.812098
  H 6.616431 0.099983 -2.943029
  H 5.376423 1.051042 -3.780433
  H 2.734737 -2.377166 -1.827867
