 19
 0.000000
  C 0.963128 0.190289 0.526002
  C 2.408618 0.111102 0.328848
  H 3.061255 0.433460 1.130927
  C 2.969499 -0.357647 -0.838246
  C 4.360563 -0.424662 -1.006007
  C 5.072634 -0.863238 -2.100073
  C 4.660322 -1.385383 -3.402451
  C 3.194953 -1.531721 -3.767501
  H 3.116085 -1.935219 -4.774358
  H 6.151858 -0.821988 -1.997630
  H 0.694415 0.582780 1.502735
  H 0.510219 -0.796491 0.395527
  H 0.510169 0.812435 -0.250972
  H 2.310273 -0.674916 -1.628056
  H 4.948901 -0.085854 -0.161805
  H 5.161685 -2.358392 -3.513795
  H 5.161715 -0.758808 -4.154988
  H 2.687582 -0.570477 -3.753708
  H 2.687626 -2.217442 -3.093682
 19
 14.052674
  C 0.909464 0.223116 0.607849
  C 2.346517 0.152067 0.431015
  H 2.994719 0.473618 1.231182
  C 2.971537 -0.358921 -0.841404
  C 4.342477 -0.415504 -0.983282
  C 5.127658 -0.894410 -2.177879
  C 4.707350 -1.411714 -3.468069
  C 3.235401 -1.550809 -3.815072
  H 3.141157 -1.953696 -4.820326
  H 6.201629 -0.849152 -2.065384
  H 0.629207 0.613979 1.580649
  H 0.462393 -0.765433 0.469868
  H 0.462416 0.841464 -0.175727
  H 2.316810 -0.676799 -1.632702
  H 4.930063 -0.077782 -0.141784
  H 5.205251 -2.386171 -3.584264
  H 5.205348 -0.787464 -4.225230
  H 2.733510 -0.586835 -3.794922
  H 2.733508 -2.234052 -3.134736
 19
 42.748061
  C 0.872090 0.237276 0.643424
  C 2.313556 0.184149 0.511910
  H 2.999511 0.492150 1.280137
  C 2.989778 -0.369549 -0.868668
  C 4.315690 -0.399227 -0.943466
  C 5.180585 -0.918099 -2.237818
  C 4.731356 -1.428053 -3.509094
  C 3.250110 -1.556778 -3.829219
  H 3.135555 -1.959565 -4.833383
  H 6.240055 -0.846686 -2.060047
  H 0.568906 0.627123 1.614511
  H 0.432266 -0.754816 0.494887
  H 0.433273 0.852633 -0.149589
  H 2.298032 -0.673102 -1.625131
  H 4.947546 -0.076414 -0.138543
  H 5.226102 -2.405053 -3.642787
  H 5.226061 -0.814441 -4.281097
  H 2.759247 -0.587896 -3.806433
  H 2.759593 -2.241375 -3.143027
 19
 77.174575
  C 0.810566 0.270937 0.727041
  C 2.242741 0.225913 0.616253
  H 2.933547 0.533273 1.382677
  C 2.982011 -0.370544 -0.870325
  C 4.306818 -0.392024 -0.925089
  C 5.243266 -0.951207 -2.320493
  C 4.780804 -1.456777 -3.580877
  C 3.294494 -1.574772 -3.874119
  H 3.156877 -1.976880 -4.876657
  H 6.302868 -0.874461 -2.129735
  H 0.491252 0.660138 1.696208
  H 0.377789 -0.725383 0.569569
  H 0.379070 0.883026 -0.075416
  H 2.284038 -0.672090 -1.621799
  H 4.951060 -0.071284 -0.125654
  H 5.269402 -2.438311 -3.721364
  H 5.269212 -0.844529 -4.360884
  H 2.812621 -0.602845 -3.839762
  H 2.813057 -2.253697 -3.177512
 19
 110.855085
  C 0.770889 0.280798 0.751640
  C 2.190078 0.256019 0.691729
  H 2.892406 0.557204 1.444210
  C 2.998597 -0.380244 -0.895790
  C 4.303697 -0.381663 -0.900161
  C 5.312266 -0.982503 -2.398933
  C 4.813004 -1.476550 -3.629926
  C 3.311572 -1.566435 -3.852988
  H 3.117072 -1.965482 -4.847149
  H 6.361144 -0.894180 -2.179263
  H 0.412704 0.665734 1.711767
  H 0.356508 -0.722729 0.574859
  H 0.357900 0.885726 -0.068987
  H 2.278301 -0.672355 -1.624298
  H 4.981209 -0.072717 -0.129748
  H 5.280134 -2.467404 -3.784942
  H 5.279885 -0.867954 -4.427158
  H 2.853016 -0.585004 -3.794832
  H 2.853402 -2.235485 -3.132402
 19
 141.309241
  C 0.713592 0.310651 0.825235
  C 2.141425 0.297403 0.795335
  H 2.857187 0.591488 1.531836
  C 2.997935 -0.379667 -0.894730
  C 4.279087 -0.368196 -0.865946
  C 5.365715 -1.011943 -2.472886
  C 4.856733 -1.502327 -3.694560
  C 3.354841 -1.587301 -3.903804
  H 3.146077 -1.984295 -4.892769
  H 6.399688 -0.913336 -2.228155
  H 0.329049 0.690528 1.774104
  H 0.311753 -0.694036 0.635503
  H 0.313306 0.908418 -0.005090
  H 2.249373 -0.658278 -1.590821
  H 4.986159 -0.073602 -0.130531
  H 5.315689 -2.491904 -3.855059
  H 5.314742 -0.897803 -4.494875
  H 2.903179 -0.600871 -3.835038
  H 2.904380 -2.252985 -3.172075
 19
 167.190008
  C 0.664964 0.332704 0.879583
  C 2.083786 0.335100 0.889538
  H 2.803043 0.626343 1.618748
  C 2.999802 -0.377180 -0.887210
  C 4.259488 -0.348599 -0.816318
  C 5.427695 -1.039068 -2.540552
  C 4.895709 -1.531018 -3.766460
  C 3.389172 -1.601036 -3.938074
  H 3.149086 -1.995125 -4.920233
  H 6.457288 -0.933914 -2.279975
  H 0.252339 0.706270 1.812062
  H 0.280172 -0.672318 0.681039
  H 0.281904 0.924343 0.042483
  H 2.225854 -0.646165 -1.558762
  H 4.999742 -0.067736 -0.115579
  H 5.340411 -2.526826 -3.937285
  H 5.339259 -0.928673 -4.578247
  H 2.952129 -0.610329 -3.852957
  H 2.953480 -2.259086 -3.191651
 19
 187.427655
  C 0.617657 0.356366 0.937915
  C 2.027738 0.371999 0.982264
  H 2.753273 0.660251 1.704817
  C 2.989927 -0.369512 -0.867287
  C 4.227704 -0.324952 -0.756741
  C 5.482209 -1.069361 -2.616770
  C 4.943243 -1.558601 -3.835660
  C 3.425155 -1.620205 -3.985279
  H 3.165022 -2.013102 -4.964208
  H 6.516324 -0.962727 -2.352988
  H 0.182497 0.728764 1.867505
  H 0.242108 -0.654924 0.735594
  H 0.244387 0.950490 0.093857
  H 2.192789 -0.628442 -1.513846
  H 5.005575 -0.058602 -0.092393
  H 5.379969 -2.560113 -4.012076
  H 5.378548 -0.955734 -4.655458
  H 2.996689 -0.627319 -3.890570
  H 2.998571 -2.273304 -3.230456
 19
 201.096073
  C 0.562578 0.386183 1.021076
  C 1.968289 0.412898 1.083110
  H 2.698422 0.705356 1.804833
  C 2.961637 -0.346606 -0.815998
  C 4.175540 -0.288290 -0.677986
  C 5.517730 -1.105563 -2.702927
  C 4.999280 -1.594543 -3.917790
  C 3.482681 -1.649261 -4.068195
  H 3.219581 -2.044133 -5.047179
  H 6.571949 -1.013352 -2.468773
  H 0.108447 0.756514 1.945737
  H 0.197479 -0.628477 0.817447
  H 0.195210 0.978307 0.173228
  H 2.143513 -0.600268 -1.440807
  H 4.996405 -0.035850 -0.051134
  H 5.435721 -2.592678 -4.091078
  H 5.442157 -1.000163 -4.734574
  H 3.058364 -0.652872 -3.973451
  H 3.051767 -2.296643 -3.308750
 19
 207.743357
  C 0.499513 0.426641 1.124959
  C 1.894308 0.456264 1.192829
  H 2.619708 0.754179 1.925001
  C 2.945937 -0.331891 -0.782333
  C 4.148880 -0.266085 -0.627266
  C 5.565483 -1.138943 -2.785137
  C 5.057824 -1.630379 -4.004970
  C 3.540582 -1.683678 -4.156260
  H 3.276338 -2.078476 -5.133402
  H 6.625334 -1.056334 -2.572577
  H 0.018540 0.795607 2.046201
  H 0.147069 -0.590439 0.910299
  H 0.144212 1.012614 0.267567
  H 2.124684 -0.579959 -1.391823
  H 4.980138 -0.025461 -0.030325
  H 5.497927 -2.628083 -4.177954
  H 5.506585 -1.038484 -4.821957
  H 3.117982 -0.688628 -4.060777
  H 3.109310 -2.327400 -3.396395
 19
 210.689375
  C 0.434053 0.468333 1.230174
  C 1.822728 0.498354 1.299540
  H 2.536948 0.800760 2.041735
  C 2.937925 -0.321157 -0.756550
  C 4.129942 -0.247370 -0.582189
  C 5.616037 -1.172316 -2.868191
  C 5.114318 -1.665617 -4.092231
  C 3.597348 -1.717141 -4.239922
  H 3.328682 -2.111915 -5.216356
  H 6.680383 -1.097910 -2.675267
  H -0.073168 0.832388 2.138548
  H 0.095017 -0.549943 1.000708
  H 0.092595 1.045176 0.361191
  H 2.104701 -0.565341 -1.356298
  H 4.983935 -0.014768 -0.005665
  H 5.555118 -2.661272 -4.265901
  H 5.564247 -1.076466 -4.908537
  H 3.176074 -0.720076 -4.141476
  H 3.167070 -2.359616 -3.476247
 19
 211.998014
  C 0.370130 0.508843 1.332054
  C 1.752900 0.539100 1.402396
  H 2.458267 0.845373 2.153096
  C 2.930438 -0.313801 -0.738058
  C 4.113807 -0.230618 -0.541061
  C 5.669609 -1.205944 -2.951810
  C 5.170183 -1.699805 -4.177155
  C 3.651400 -1.748948 -4.319474
  H 3.376447 -2.143049 -5.293991
  H 6.738983 -1.137680 -2.773735
  H -0.158788 0.868813 2.229312
  H 0.042326 -0.511297 1.088530
  H 0.040365 1.077293 0.451343
  H 2.089352 -0.551886 -1.322330
  H 4.980085 -0.008264 0.009065
  H 5.611295 -2.696186 -4.352271
  H 5.620722 -1.111620 -4.995156
  H 3.233139 -0.752411 -4.217530
  H 3.223953 -2.388337 -3.553481
 19
 212.657334
  C 0.305066 0.548474 1.431987
  C 1.686247 0.579173 1.503761
  H 2.384477 0.887415 2.259338
  C 2.923407 -0.307636 -0.724165
  C 4.097766 -0.215075 -0.503934
  C 5.724808 -1.240118 -3.036715
  C 5.225484 -1.734170 -4.262235
  C 3.706753 -1.781078 -4.399553
  H 3.426334 -2.174733 -5.372551
  H 6.795873 -1.176755 -2.870279
  H -0.238800 0.904581 2.319623
  H -0.014371 -0.471795 1.177228
  H -0.015893 1.109729 0.543189
  H 2.069511 -0.540453 -1.295501
  H 4.982196 -0.000544 0.026334
  H 5.665773 -2.730404 -4.438555
  H 5.675490 -1.147523 -5.081238
  H 3.290732 -0.783258 -4.294503
  H 3.281237 -2.418814 -3.630128
 19
 212.945212
  C 0.241759 0.587163 1.529232
  C 1.620076 0.618464 1.603390
  H 2.314474 0.927999 2.363019
  C 2.915709 -0.303207 -0.714627
  C 4.082540 -0.201218 -0.470692
  C 5.782442 -1.274629 -3.122516
  C 5.280999 -1.768293 -4.346858
  C 3.760771 -1.813372 -4.479446
  H 3.475013 -2.206526 -5.450970
  H 6.855501 -1.214202 -2.963207
  H -0.313909 0.940570 2.410445
  H -0.071429 -0.433739 1.264831
  H -0.072282 1.143144 0.633349
  H 2.053278 -0.529133 -1.269258
  H 4.976676 0.004284 0.036907
  H 5.720502 -2.765130 -4.524659
  H 5.730173 -1.182479 -5.167562
  H 3.346982 -0.815458 -4.371494
  H 3.337624 -2.449011 -3.707775
