 14
 0.000000
  H -1.336194 -0.480376 0.658024
  C -0.879189 0.285875 0.041922
  H -1.216192 0.154220 -0.993690
  C -1.170710 1.650570 0.552236
  C -2.477416 2.071160 1.117449
  O -0.378353 2.693979 0.095845
  H 0.203307 0.136355 0.048782
  H -3.000067 1.216648 1.536995
  H -3.119854 2.535306 0.358077
  H -2.325400 2.816453 1.899411
  H 0.354509 2.321385 -0.405566
  O 2.394435 -0.327898 -0.337883
  H 2.830600 0.240432 0.300910
  H 3.025958 -0.522849 -1.032506
 14
 -0.270829
  H -1.372446 -0.466561 0.634493
  C -0.882722 0.283030 0.019335
  H -1.234016 0.156930 -1.014954
  C -1.146332 1.648234 0.541648
  C -2.446486 2.067838 1.122991
  O -0.353080 2.686516 0.076682
  H 0.192010 0.093346 0.024983
  H -2.950074 1.213431 1.566200
  H -3.110696 2.508799 0.368377
  H -2.289182 2.828393 1.888382
  H 0.376299 2.305970 -0.426235
  O 2.364250 -0.278108 -0.338957
  H 2.784870 0.261744 0.339510
  H 3.026068 -0.478621 -0.999810
 14
 -0.382499
  H -1.408113 -0.481089 0.590540
  C -0.898904 0.262743 -0.015968
  H -1.247068 0.154722 -1.052806
  C -1.133275 1.629054 0.517063
  C -2.407685 2.064255 1.141777
  O -0.333720 2.657367 0.040437
  H 0.170949 0.047470 0.000904
  H -2.902920 1.217744 1.609124
  H -3.095589 2.505886 0.408769
  H -2.215431 2.828593 1.895290
  H 0.375352 2.267395 -0.481767
  O 2.322030 -0.221876 -0.311475
  H 2.701965 0.298387 0.400262
  H 3.022878 -0.415921 -0.937155
 14
 -0.382097
  H -1.458402 -0.472943 0.500044
  C -0.915642 0.261549 -0.088024
  H -1.239770 0.170107 -1.134069
  C -1.132735 1.627747 0.450168
  C -2.348757 2.048540 1.188774
  O -0.362219 2.662057 -0.059636
  H 0.147318 0.014399 -0.047974
  H -2.781930 1.199656 1.710740
  H -3.113188 2.467926 0.520949
  H -2.099015 2.825879 1.911378
  H 0.318579 2.277543 -0.621969
  O 2.284582 -0.185600 -0.241884
  H 2.606479 0.305639 0.517695
  H 3.039666 -0.386727 -0.798579
 14
 -0.030936
  H -1.515688 -0.451497 0.355800
  C -0.927732 0.274579 -0.197263
  H -1.188934 0.197020 -1.260910
  C -1.152505 1.640764 0.334227
  C -2.247724 2.016495 1.260151
  O -0.458634 2.698574 -0.233911
  H 0.126459 -0.002457 -0.105322
  H -2.549260 1.157067 1.853334
  H -3.132157 2.389107 0.725740
  H -1.919267 2.815963 1.924873
  H 0.172986 2.336980 -0.864266
  O 2.223545 -0.167640 -0.112447
  H 2.457818 0.291770 0.697729
  H 3.043004 -0.385764 -0.562360
 14
 0.562610
  H -1.573226 -0.423202 0.163907
  C -0.927306 0.301044 -0.320780
  H -1.083815 0.241020 -1.402796
  C -1.204465 1.663318 0.195561
  C -2.105153 1.973658 1.332051
  O -0.643030 2.758617 -0.444638
  H 0.109174 0.004797 -0.132783
  H -2.204238 1.107631 1.982017
  H -3.110883 2.262097 0.997646
  H -1.709684 2.812701 1.906347
  H -0.082697 2.434778 -1.158558
  O 2.145642 -0.175504 0.064901
  H 2.277839 0.238870 0.922846
  H 3.014901 -0.415510 -0.266057
 14
 0.797703
  H -1.590586 -0.439265 0.168791
  C -0.936188 0.275483 -0.324529
  H -1.032386 0.148698 -1.406475
  C -1.284072 1.657493 0.087019
  C -2.007730 2.007307 1.331399
  O -0.855956 2.731135 -0.679909
  H 0.096079 0.019531 -0.052578
  H -1.947219 1.188789 2.046070
  H -3.069999 2.217182 1.146505
  H -1.579518 2.906404 1.776126
  H -0.385931 2.388286 -1.445488
  O 2.172083 -0.165425 0.212502
  H 2.280794 0.255756 1.068654
  H 3.047812 -0.421632 -0.089010
 14
 1.859577
  H -1.544112 -0.408290 -0.098182
  C -0.885008 0.364965 -0.480804
  H -0.861309 0.343134 -1.572242
  C -1.282407 1.694328 0.038275
  C -1.898505 1.918139 1.369176
  O -0.931074 2.844078 -0.653365
  H 0.134095 0.090602 -0.170500
  H -1.737674 1.056786 2.012908
  H -2.978180 2.087890 1.291513
  H -1.473610 2.806760 1.839838
  H -0.536624 2.588223 -1.493800
  O 1.997298 -0.212918 0.346733
  H 2.009105 0.068953 1.266254
  H 2.898136 -0.491996 0.146220
 14
 9.451807
  H -1.381054 -0.475271 -0.066669
  C -0.835093 0.366060 -0.491683
  H -0.697059 0.298450 -1.565191
  C -1.285289 1.677802 -0.009835
  C -1.854844 1.903936 1.338931
  O -1.043424 2.838822 -0.743367
  H 0.222362 0.171704 -0.188360
  H -1.601422 1.081781 2.004535
  H -2.956041 1.975265 1.302251
  H -1.489622 2.854845 1.739237
  H -0.440283 2.626020 -1.469947
  O 1.781427 -0.195125 0.404863
  H 1.782577 0.089309 1.330668
  H 2.715858 -0.479795 0.263875
 14
 31.978266
  H -1.263423 -0.462927 -0.152964
  C -0.784405 0.424268 -0.538255
  H -0.652709 0.387375 -1.625715
  C -1.191368 1.668887 0.037919
  C -1.979239 1.730999 1.331756
  O -0.815867 2.864611 -0.471576
  H 0.299194 0.163076 -0.131326
  H -1.965367 0.737668 1.836993
  H -3.033048 2.026675 1.169327
  H -1.542904 2.468105 2.003674
  H -0.275055 2.713209 -1.262045
  O 1.689600 -0.006786 0.270083
  H 1.700143 0.289787 1.184751
  H 2.748046 -0.288462 0.206933
 14
 53.292653
  H -1.388643 -0.454918 0.019835
  C -0.904108 0.386204 -0.449460
  H -0.708524 0.263144 -1.508294
  C -1.242237 1.642147 0.005625
  C -1.867264 1.906914 1.332822
  O -0.904842 2.774130 -0.666917
  H 0.435203 0.104036 -0.045122
  H -1.764725 1.045863 1.985393
  H -2.929108 2.124284 1.209631
  H -1.405471 2.779370 1.793237
  H -0.468295 2.549663 -1.498074
  O 1.521938 -0.106047 0.294206
  H 1.578723 0.220451 1.196359
  H 3.008836 -0.538914 0.204262
 14
 46.608849
  H -1.495041 -0.427275 -0.014269
  C -1.045910 0.429910 -0.484218
  H -0.794989 0.308103 -1.530886
  C -1.286979 1.650883 0.014633
  C -1.884832 1.900916 1.360211
  O -0.908819 2.792909 -0.606558
  H 0.580208 0.057239 -0.010069
  H -1.834953 1.008157 1.979667
  H -2.928651 2.191384 1.248945
  H -1.362479 2.722217 1.845987
  H -0.501044 2.593855 -1.458623
  O 1.521630 -0.107831 0.269550
  H 1.605377 0.199588 1.174664
  H 3.337501 -0.644694 0.104029
 14
 43.390376
  H -1.725560 -0.435723 -0.019077
  C -1.271083 0.409594 -0.499970
  H -0.871457 0.247659 -1.488372
  C -1.354794 1.626662 0.032032
  C -1.977598 1.925827 1.359565
  O -0.838507 2.735863 -0.555625
  H 0.654352 -0.002555 0.019617
  H -2.071783 1.024187 1.956068
  H -2.967723 2.354216 1.210246
  H -1.374068 2.660548 1.887172
  H -0.435117 2.509486 -1.402818
  O 1.595106 -0.056222 0.253932
  H 1.693883 0.308254 1.135309
  H 3.700167 -0.617014 -0.104908
 14
 43.306021
  H -1.777668 -0.445309 0.013704
  C -1.305507 0.380131 -0.472871
  H -0.883569 0.192696 -1.446361
  C -1.331630 1.598001 0.059959
  C -1.969093 1.932054 1.371732
  O -0.763632 2.683190 -0.525699
  H 0.706773 0.005101 -0.008808
  H -2.140426 1.034676 1.959816
  H -2.921467 2.426768 1.197078
  H -1.330347 2.624748 1.923691
  H -0.363716 2.438659 -1.369946
  O 1.637671 -0.041950 0.261488
  H 1.709166 0.377606 1.121347
  H 3.785385 -0.550894 -0.166001
 14
 43.751967
  H -1.900370 -0.448264 0.033864
  C -1.343028 0.335919 -0.444005
  H -0.961108 0.123689 -1.429709
  C -1.299528 1.557384 0.083294
  C -1.935362 1.936129 1.384973
  O -0.652581 2.601516 -0.495752
  H 0.702558 -0.009260 -0.169505
  H -2.149793 1.056284 1.983407
  H -2.866014 2.471092 1.194280
  H -1.277976 2.604607 1.931316
  H -0.270098 2.334665 -1.340887
  O 1.599428 0.012897 0.192513
  H 1.549339 0.459654 1.039487
  H 3.856473 -0.380836 -0.044148
