 9
 0.000000
  H 5.749477 -1.124371 -2.023397
  C 6.824033 -1.131314 -2.034462
  C 7.531829 -1.639389 -3.028771
  C 9.022978 -1.662403 -3.073894
  H 7.325646 -0.699131 -1.182050
  H 7.031129 -2.074771 -3.884510
  H 9.456689 -1.209055 -2.185439
  H 9.379279 -1.117822 -3.948427
  H 9.384011 -2.688977 -3.148772
 9
 0.255951
  H 5.753333 -1.152817 -2.028265
  C 6.831763 -1.181323 -2.011843
  C 7.537842 -1.569799 -3.056138
  C 9.027910 -1.641389 -3.087809
  H 7.305548 -0.862620 -1.092747
  H 7.036351 -1.893877 -3.960493
  H 9.464308 -1.023193 -2.305912
  H 9.407900 -1.315572 -4.054473
  H 9.355053 -2.672339 -2.931458
 9
 0.906876
  H 5.751922 -1.182360 -2.009329
  C 6.826656 -1.239965 -2.001922
  C 7.534759 -1.519256 -3.079305
  C 9.027598 -1.631255 -3.089185
  H 7.303402 -1.055435 -1.052181
  H 7.037728 -1.709135 -4.021493
  H 9.480562 -0.871719 -2.455685
  H 9.418980 -1.531143 -4.098105
  H 9.322767 -2.607149 -2.703152
 9
 1.297237
  H 5.744102 -1.226557 -2.006524
  C 6.817111 -1.309113 -2.004106
  C 7.536784 -1.474593 -3.097060
  C 9.029547 -1.611225 -3.082767
  H 7.286589 -1.252812 -1.034157
  H 7.054659 -1.536036 -4.063314
  H 9.493187 -0.734679 -2.633130
  H 9.422172 -1.736595 -4.087708
  H 9.311543 -2.477625 -2.485289
 9
 1.107701
  H 5.732800 -1.297870 -2.007989
  C 6.805139 -1.390054 -2.012116
  C 7.541645 -1.436383 -3.104823
  C 9.032056 -1.582393 -3.068218
  H 7.262093 -1.447337 -1.035794
  H 7.081180 -1.379080 -4.081714
  H 9.503940 -0.628232 -2.835432
  H 9.415965 -1.930616 -4.023255
  H 9.307853 -2.294169 -2.291419
 9
 0.465743
  H 5.715512 -1.391122 -2.026927
  C 6.789334 -1.474699 -2.020082
  C 7.548427 -1.405193 -3.095681
  C 9.035489 -1.542920 -3.048340
  H 7.226648 -1.644586 -1.046493
  H 7.112529 -1.235246 -4.071032
  H 9.507168 -0.561139 -3.072954
  H 9.399389 -2.109087 -3.904137
  H 9.331723 -2.049271 -2.132135
 9
 2.185143
  H 5.724880 -1.603284 -2.033463
  C 6.798969 -1.573952 -2.041176
  C 7.546881 -1.352307 -3.102722
  C 9.032754 -1.492187 -3.034344
  H 7.244608 -1.651857 -1.060997
  H 7.113637 -1.074323 -4.053871
  H 9.551382 -0.560920 -3.249515
  H 9.363503 -2.242876 -3.752099
  H 9.267457 -1.874169 -2.042154
 9
 11.769691
  H 5.783039 -1.810958 -2.015376
  C 6.841746 -1.605070 -2.011882
  C 7.541684 -1.280142 -3.093847
  C 9.018216 -1.483936 -3.068275
  H 7.262285 -1.530644 -1.023708
  H 7.083644 -0.871836 -3.985709
  H 9.621217 -0.651951 -3.404230
  H 9.255209 -2.366347 -3.661504
  H 9.200543 -1.831912 -2.054590
 9
 29.731151
  H 5.832333 -1.913646 -2.009794
  C 6.887877 -1.683097 -2.045406
  C 7.532243 -1.350347 -3.166615
  C 9.015089 -1.436552 -3.035518
  H 7.270788 -1.401860 -1.085948
  H 7.076782 -0.886585 -4.019357
  H 9.531298 -0.582861 -3.421302
  H 9.420231 -2.361522 -3.475472
  H 8.988244 -1.820197 -2.004172
 9
 57.990387
  H 5.967797 -2.146169 -1.972723
  C 6.959226 -1.705467 -2.044317
  C 7.534102 -1.223557 -3.179944
  C 8.978718 -1.430413 -3.063922
  H 7.197670 -1.227734 -1.109885
  H 7.031719 -0.767007 -4.007637
  H 9.633478 -0.670931 -3.469340
  H 9.374467 -2.417937 -3.367529
  H 8.804804 -1.848883 -1.990525
 9
 81.188473
  H 6.095834 -2.202385 -1.995294
  C 7.075175 -1.721086 -2.014771
  C 7.592308 -1.195334 -3.213442
  C 8.985402 -1.392816 -3.135551
  H 7.246422 -1.170822 -1.099600
  H 7.040959 -0.725465 -4.015289
  H 9.666663 -0.649263 -3.553721
  H 9.377504 -2.389613 -3.280970
  H 8.506988 -1.976386 -1.877861
 9
 61.337843
  H 6.187488 -2.304440 -1.970249
  C 7.129434 -1.747093 -1.979936
  C 7.624636 -1.141150 -3.227131
  C 8.972683 -1.351305 -3.210021
  H 7.168643 -1.087767 -1.103061
  H 7.035610 -0.679815 -4.008734
  H 9.721489 -0.670158 -3.638302
  H 9.322780 -2.366813 -3.296499
  H 8.225731 -2.089309 -1.710755
 9
 33.075111
  H 6.145235 -2.233530 -2.037857
  C 7.127986 -1.782732 -1.944907
  C 7.667076 -1.159886 -3.176617
  C 8.989847 -1.337900 -3.275185
  H 7.127078 -1.051883 -1.119928
  H 7.063715 -0.618600 -3.887168
  H 9.631961 -0.705789 -3.886082
  H 9.435883 -2.307617 -3.152445
  H 8.082471 -2.233633 -1.602190
 9
 15.473843
  H 6.167575 -2.252019 -2.032579
  C 7.127697 -1.758737 -1.914880
  C 7.700783 -1.134040 -3.142896
  C 8.994521 -1.347689 -3.353224
  H 7.050831 -0.988612 -1.141962
  H 7.060368 -0.582895 -3.811881
  H 9.609013 -0.721851 -3.981215
  H 9.463591 -2.279730 -3.118152
  H 7.948839 -2.359903 -1.524029
 9
 0.074440
  H 6.170217 -2.250116 -2.156440
  C 7.110132 -1.774006 -1.883152
  C 7.765934 -1.152225 -3.070030
  C 9.003097 -1.398580 -3.457205
  H 6.883885 -0.998353 -1.149734
  H 7.160049 -0.434317 -3.608354
  H 9.437755 -0.880331 -4.295431
  H 9.623518 -2.129991 -2.966737
  H 7.769705 -2.499124 -1.414425
