10

H 1.474987625437247 -0.11779409458013332 -0.03864732939159448
C 2.544849 -0.135017 -0.038751
C 3.259053 -1.26625 -0.045532
C 4.696539 -1.289368 -0.045668
C 5.417839 -2.424341 -0.052473
H 6.487726620066662 -2.439848170152138 -0.052563010917605714
H 3.044426 0.826795 -0.032991
H 2.747224 -2.220492 -0.05125
H 5.200478 -0.331143 -0.03993
H 4.914358 -3.382769 -0.058217
