 19
 0.000000
  H 1.505719 0.145516 0.416294
  C 2.587338 0.133452 0.384546
  C 3.281415 0.614223 1.576886
  C 2.358370 1.063970 2.698181
  H 2.934866 1.407653 3.551329
  C 3.182048 -0.330490 -0.769097
  C 4.571658 -0.412609 -0.973253
  C 5.175098 -0.873238 -2.122395
  C 4.528283 -1.356611 -3.332334
  H 3.444637 -1.342940 -3.302293
  H 6.258206 -0.881048 -2.139047
  H 3.956817 1.436505 1.298797
  H 3.959088 -0.169784 1.945095
  H 1.719787 0.247859 3.027401
  H 1.717719 1.879458 2.371416
  H 2.527815 -0.651314 -1.566972
  H 5.218776 -0.090905 -0.169091
  H 4.882289 -2.370170 -3.546689
  H 4.884683 -0.771772 -4.186420
 19
 10.145031
  H 1.495798 0.156942 0.444970
  C 2.577584 0.146934 0.418309
  C 3.265611 0.630124 1.616354
  C 2.333387 1.077378 2.731423
  H 2.903550 1.422883 3.588848
  C 3.178206 -0.316732 -0.734499
  C 4.553839 -0.394719 -0.928280
  C 5.218384 -0.910171 -2.214295
  C 4.552826 -1.384585 -3.402330
  H 3.469148 -1.363228 -3.353420
  H 6.297668 -0.918357 -2.231606
  H 3.938759 1.453632 1.343015
  H 3.941182 -0.151344 1.988928
  H 1.695085 0.259112 3.056476
  H 1.692912 1.891408 2.400080
  H 2.528111 -0.639054 -1.536108
  H 5.208685 -0.077143 -0.134270
  H 4.897166 -2.400055 -3.622460
  H 4.899763 -0.802288 -4.261825
 19
 30.420911
  H 1.514791 0.151633 0.433091
  C 2.597300 0.149988 0.426937
  C 3.260058 0.638973 1.638076
  C 2.294580 1.076674 2.728849
  H 2.841242 1.428621 3.601012
  C 3.217638 -0.306065 -0.706373
  C 4.577361 -0.368073 -0.860350
  C 5.278640 -0.942445 -2.293716
  C 4.529288 -1.393463 -3.425575
  H 3.455644 -1.341762 -3.303080
  H 6.350944 -0.945249 -2.296415
  H 3.925206 1.469239 1.379205
  H 3.928181 -0.136751 2.026264
  H 1.658408 0.250589 3.039158
  H 1.655806 1.885536 2.380919
  H 2.586570 -0.632142 -1.516724
  H 5.275008 -0.067268 -0.107849
  H 4.825939 -2.417852 -3.665891
  H 4.829463 -0.817983 -4.305123
 19
 53.436105
  H 1.496477 0.166070 0.469552
  C 2.579191 0.166992 0.469688
  C 3.234964 0.659794 1.689712
  C 2.258714 1.095171 2.774532
  H 2.796921 1.448594 3.649842
  C 3.220915 -0.296873 -0.682731
  C 4.580059 -0.354643 -0.826085
  C 5.329672 -0.985836 -2.401450
  C 4.551639 -1.424305 -3.503055
  H 3.477085 -1.360970 -3.351926
  H 6.403365 -0.986900 -2.399273
  H 3.899524 1.494293 1.435367
  H 3.902645 -0.115558 2.084266
  H 1.623462 0.267314 3.080067
  H 1.620669 1.901771 2.421723
  H 2.593186 -0.626246 -1.501112
  H 5.300672 -0.060701 -0.090561
  H 4.834002 -2.453386 -3.753385
  H 4.837951 -0.852062 -4.392995
 19
 74.913830
  H 1.516381 0.157072 0.448772
  C 2.596598 0.169854 0.478255
  C 3.221391 0.668819 1.711434
  C 2.212881 1.094439 2.771440
  H 2.725124 1.453466 3.659273
  C 3.273432 -0.284529 -0.649268
  C 4.620706 -0.326208 -0.752630
  C 5.384538 -1.019166 -2.483276
  C 4.516512 -1.431386 -3.522808
  H 3.454054 -1.336655 -3.293824
  H 6.456419 -1.012626 -2.460686
  H 3.880275 1.511065 1.471364
  H 3.883644 -0.101730 2.122290
  H 1.579802 0.259780 3.061428
  H 1.576596 1.894622 2.402121
  H 2.668333 -0.620291 -1.483022
  H 5.401428 -0.055599 -0.075359
  H 4.751466 -2.468881 -3.799084
  H 4.756457 -0.870038 -4.436813
 19
 95.254519
  H 1.500562 0.169572 0.479717
  C 2.581461 0.184639 0.514825
  C 3.199111 0.683080 1.746806
  C 2.185697 1.106584 2.801738
  H 2.693965 1.466745 3.692379
  C 3.265383 -0.267467 -0.607075
  C 4.611886 -0.306840 -0.704609
  C 5.420322 -1.057220 -2.577989
  C 4.538328 -1.460552 -3.595680
  H 3.486978 -1.358440 -3.348620
  H 6.490862 -1.050679 -2.554944
  H 3.857555 1.526851 1.508982
  H 3.861003 -0.086934 2.160268
  H 1.552718 0.270275 3.089011
  H 1.549448 1.906013 2.429384
  H 2.666053 -0.603518 -1.441528
  H 5.405512 -0.042358 -0.042597
  H 4.760038 -2.499270 -3.876136
  H 4.765330 -0.901299 -4.513513
 19
 112.900553
  H 1.492444 0.178355 0.500740
  C 2.572125 0.198326 0.548257
  C 3.177764 0.700522 1.790201
  C 2.151440 1.119934 2.835238
  H 2.648874 1.481880 3.730785
  C 3.273848 -0.252233 -0.569934
  C 4.610726 -0.286502 -0.654592
  C 5.460826 -1.094831 -2.671604
  C 4.552136 -1.492201 -3.674309
  H 3.501505 -1.380535 -3.403379
  H 6.532409 -1.087738 -2.647009
  H 3.835019 1.547083 1.559202
  H 3.838379 -0.066967 2.210363
  H 1.519238 0.281160 3.115802
  H 1.516069 1.916676 2.456521
  H 2.682908 -0.591383 -1.412377
  H 5.419453 -0.028646 -0.009116
  H 4.758166 -2.534767 -3.960513
  H 4.763536 -0.934262 -4.599182
 19
 127.446405
  H 1.482988 0.188222 0.524940
  C 2.561587 0.212213 0.582716
  C 3.155061 0.714510 1.825076
  C 2.118842 1.130128 2.860472
  H 2.607657 1.493729 3.760218
  C 3.275886 -0.235170 -0.527409
  C 4.613243 -0.266052 -0.603544
  C 5.494631 -1.133419 -2.767853
  C 4.567654 -1.519487 -3.742423
  H 3.527898 -1.397964 -3.446621
  H 6.565415 -1.128419 -2.748458
  H 3.811160 1.563107 1.598998
  H 3.814396 -0.051087 2.250246
  H 1.487115 0.288960 3.135605
  H 1.484093 1.924913 2.476120
  H 2.692056 -0.575723 -1.373544
  H 5.438619 -0.016119 0.022106
  H 4.755532 -2.563255 -4.032993
  H 4.760891 -0.963610 -4.671346
 19
 139.066280
  H 1.475581 0.196042 0.543521
  C 2.553438 0.226024 0.616222
  C 3.132659 0.732806 1.870435
  C 2.080694 1.143213 2.893638
  H 2.556414 1.509072 3.799558
  C 3.288838 -0.219240 -0.488983
  C 4.616048 -0.244999 -0.552439
  C 5.531437 -1.171642 -2.862542
  C 4.579452 -1.552642 -3.824710
  H 3.543139 -1.422346 -3.507587
  H 6.603544 -1.168540 -2.847378
  H 3.787439 1.585244 1.652495
  H 3.790702 -0.030060 2.303834
  H 1.449973 0.298785 3.160645
  H 1.446906 1.934842 2.501522
  H 2.715239 -0.562751 -1.342498
  H 5.455602 -0.002431 0.054868
  H 4.751895 -2.599897 -4.120083
  H 4.757608 -0.997873 -4.759746
 19
 147.967851
  H 1.465422 0.206924 0.570736
  C 2.541122 0.240954 0.653521
  C 3.108181 0.747368 1.906534
  C 2.046802 1.153699 2.919676
  H 2.513738 1.521122 3.829215
  C 3.288563 -0.200848 -0.443024
  C 4.618022 -0.224133 -0.500691
  C 5.557999 -1.210811 -2.959686
  C 4.597683 -1.582623 -3.899682
  H 3.569883 -1.445351 -3.565500
  H 6.630335 -1.213081 -2.957639
  H 3.761362 1.601530 1.693288
  H 3.764789 -0.013333 2.344571
  H 1.416919 0.307001 3.181343
  H 1.413696 1.943123 2.522057
  H 2.720711 -0.545843 -1.300100
  H 5.472720 0.010881 0.087912
  H 4.757327 -2.629473 -4.197956
  H 4.763343 -1.030079 -4.836573
 19
 153.951095
  H 1.445637 0.221522 0.608019
  C 2.522337 0.258610 0.698557
  C 3.081580 0.767795 1.957203
  C 2.012216 1.172503 2.965732
  H 2.473257 1.541377 3.877890
  C 3.281799 -0.183191 -0.397412
  C 4.604379 -0.205942 -0.454339
  C 5.584623 -1.249975 -3.057069
  C 4.626633 -1.625305 -4.007039
  H 3.594174 -1.490011 -3.677908
  H 6.661979 -1.260083 -3.074508
  H 3.734607 1.623890 1.746892
  H 3.738271 0.008142 2.399057
  H 1.382772 0.324554 3.224382
  H 1.379370 1.960355 2.564604
  H 2.718252 -0.529428 -1.257375
  H 5.463040 0.026731 0.128626
  H 4.791945 -2.672135 -4.308751
  H 4.798104 -1.074830 -4.946108
 19
 157.344910
  H 1.422558 0.240325 0.655677
  C 2.498238 0.278007 0.748026
  C 3.052743 0.785371 2.000753
  C 1.983868 1.189841 3.007953
  H 2.444751 1.558953 3.919568
  C 3.259237 -0.163505 -0.346479
  C 4.586035 -0.188434 -0.409351
  C 5.605529 -1.289656 -3.156196
  C 4.665448 -1.667960 -4.114448
  H 3.631360 -1.537836 -3.798182
  H 6.682035 -1.310065 -3.199342
  H 3.705655 1.640458 1.789868
  H 3.709585 0.026478 2.441897
  H 1.354608 0.342144 3.266963
  H 1.351020 1.977347 2.606718
  H 2.694313 -0.509788 -1.206568
  H 5.446523 0.043484 0.172140
  H 4.841441 -2.711347 -4.416661
  H 4.847662 -1.120017 -5.051250
 19
 159.393910
  H 1.397747 0.257163 0.696981
  C 2.475036 0.296451 0.793919
  C 3.024552 0.805950 2.051678
  C 1.952522 1.210126 3.058344
  H 2.411753 1.579731 3.971024
  C 3.242080 -0.145980 -0.302653
  C 4.563568 -0.171754 -0.368030
  C 5.634230 -1.329246 -3.254896
  C 4.704867 -1.716976 -4.237081
  H 3.663653 -1.593441 -3.937376
  H 6.712541 -1.358151 -3.319054
  H 3.678529 1.661659 1.842129
  H 3.682646 0.047628 2.494123
  H 1.323263 0.362076 3.316689
  H 1.319535 1.997307 2.656393
  H 2.678803 -0.492606 -1.164090
  H 5.421825 0.060974 0.216340
  H 4.894130 -2.759229 -4.539087
  H 4.900414 -1.169807 -5.172903
 19
 160.642623
  H 1.374357 0.274866 0.740838
  C 2.450439 0.314317 0.838649
  C 2.995834 0.821497 2.089928
  C 1.926253 1.225503 3.096317
  H 2.386738 1.594869 4.007857
  C 3.215918 -0.127531 -0.256169
  C 4.543248 -0.155271 -0.327043
  C 5.657908 -1.369917 -3.356225
  C 4.748796 -1.761194 -4.347960
  H 3.705585 -1.643148 -4.062492
  H 6.735661 -1.407928 -3.442681
  H 3.650397 1.675762 1.879641
  H 3.654880 0.063998 2.530828
  H 1.297172 0.377963 3.355641
  H 1.293140 2.012677 2.695329
  H 2.650856 -0.473918 -1.117246
  H 5.401744 0.077646 0.258854
  H 4.948801 -2.800288 -4.647532
  H 4.955418 -1.214696 -5.279715
