 16
 0.000000
  C 0.960332 0.052010 0.214054
  C 2.460253 0.056561 0.133278
  C 3.209504 -0.016809 1.433556
  H 2.531074 -0.064436 2.277759
  C 3.090148 0.123137 -1.046563
  H 2.547205 0.175805 -1.979895
  C 4.525873 0.132371 -1.210192
  C 5.122602 0.199285 -2.396079
  H 6.192495 0.205295 -2.502589
  H 0.632445 -0.006509 1.250856
  H 0.545185 -0.802717 -0.318028
  H 0.545179 0.961162 -0.218501
  H 3.848410 0.856876 1.560244
  H 3.848428 -0.899196 1.461167
  H 5.136794 0.082121 -0.319703
  H 4.567441 0.251236 -3.316713
 16
 -0.521258
  C 0.969853 0.028852 0.206350
  C 2.471193 0.039696 0.154733
  C 3.202675 0.020161 1.466458
  H 2.506923 0.026582 2.301047
  C 3.103945 0.083917 -1.024584
  H 2.517078 0.099639 -1.935223
  C 4.534266 0.118028 -1.214457
  C 5.111075 0.181734 -2.411485
  H 6.180370 0.206713 -2.530549
  H 0.609525 -0.265287 1.188537
  H 0.560754 -0.655587 -0.533700
  H 0.578921 1.023364 -0.011978
  H 3.854397 0.888263 1.560166
  H 3.823127 -0.872386 1.546594
  H 5.151270 0.088479 -0.327480
  H 4.528645 0.211948 -3.318484
 16
 -1.054627
  C 0.963477 0.011560 0.214665
  C 2.462902 0.033068 0.152128
  C 3.184222 0.067700 1.469301
  H 2.480352 0.143426 2.291883
  C 3.097727 0.061741 -1.026270
  H 2.512401 0.041158 -1.933762
  C 4.527159 0.119542 -1.214727
  C 5.104819 0.171434 -2.411662
  H 6.174997 0.217367 -2.529445
  H 0.616301 -0.506189 1.105262
  H 0.539868 -0.473088 -0.661263
  H 0.578735 1.034750 0.252284
  H 3.862414 0.917979 1.520898
  H 3.774656 -0.840235 1.607060
  H 5.143837 0.117491 -0.323052
  H 4.523829 0.171944 -3.318000
 16
 1.279849
  C 0.959809 0.038295 0.215782
  C 2.466737 -0.003480 0.158106
  C 3.178159 0.084199 1.476671
  H 2.467343 0.125309 2.297260
  C 3.090621 0.016165 -1.023793
  H 2.503610 -0.024580 -1.931553
  C 4.518811 0.113038 -1.219458
  C 5.090724 0.173252 -2.414472
  H 6.159370 0.243142 -2.534730
  H 0.712807 -0.668997 1.001684
  H 0.547807 -0.356356 -0.711512
  H 0.622922 1.051980 0.333239
  H 3.801877 0.982097 1.522029
  H 3.820658 -0.776873 1.626179
  H 5.132943 0.165395 -0.325586
  H 4.509442 0.130677 -3.316171
 16
 12.520344
  C 0.964841 0.052074 0.228379
  C 2.482387 -0.095812 0.165111
  C 3.170507 0.060555 1.492089
  H 2.449497 0.138324 2.290980
  C 3.102339 0.011972 -1.014397
  H 2.503595 -0.087143 -1.915006
  C 4.515987 0.187449 -1.229492
  C 5.087166 0.168036 -2.428659
  H 6.139067 0.343391 -2.562717
  H 0.766984 -0.796225 0.857694
  H 0.551796 -0.252976 -0.738561
  H 0.767110 1.105605 0.333545
  H 3.808215 0.945234 1.504660
  H 3.802566 -0.808455 1.692544
  H 5.115319 0.332137 -0.339831
  H 4.502521 0.002407 -3.320466
 16
 41.414969
  C 0.912047 0.129735 0.249074
  C 2.466228 -0.123458 0.143851
  C 3.157227 0.038553 1.461572
  H 2.447212 0.059474 2.277532
  C 3.080374 -0.052052 -1.031221
  H 2.542725 -0.221299 -1.955984
  C 4.490148 0.153512 -1.193494
  C 5.079385 0.188001 -2.383721
  H 6.118035 0.443315 -2.503584
  H 0.990852 -0.746416 0.852587
  H 0.466512 -0.315704 -0.631859
  H 0.793500 1.201901 0.182369
  H 3.725357 0.952124 1.492350
  H 3.855395 -0.785420 1.627790
  H 5.076306 0.277392 -0.295870
  H 4.502612 0.107862 -3.292254
 16
 83.743264
  C 0.760388 0.113933 0.223421
  C 2.508440 -0.152468 0.202892
  C 3.127004 0.027075 1.544569
  H 2.353250 0.139593 2.309724
  C 3.112332 -0.096708 -0.979812
  H 2.495616 -0.163539 -1.885331
  C 4.516948 0.135305 -1.202512
  C 5.041631 0.288078 -2.416311
  H 6.091113 0.504719 -2.564954
  H 1.253953 -0.691036 0.694644
  H 0.389878 -0.380758 -0.682990
  H 0.953025 1.136303 -0.003367
  H 3.770158 0.899651 1.571675
  H 3.723433 -0.847165 1.792593
  H 5.142945 0.221496 -0.327183
  H 4.451901 0.174341 -3.300943
 16
 103.695072
  C 0.638414 0.190212 0.275717
  C 2.535475 -0.207148 0.212101
  C 3.161633 -0.030640 1.556229
  H 2.387446 0.082100 2.310884
  C 3.126785 -0.088746 -0.975075
  H 2.543889 -0.247263 -1.873602
  C 4.524933 0.213849 -1.188825
  C 5.072684 0.282607 -2.398397
  H 6.114553 0.519895 -2.539549
  H 1.416239 -0.672847 0.444457
  H 0.115513 -0.352943 -0.545563
  H 0.871886 1.165085 -0.135317
  H 3.796186 0.852769 1.582138
  H 3.776602 -0.896823 1.811006
  H 5.129066 0.387497 -0.307778
  H 4.494597 0.113360 -3.290463
 16
 107.843443
  C 0.636723 0.296916 0.308610
  C 2.550658 -0.228871 0.214490
  C 3.174609 -0.037058 1.553777
  H 2.398419 0.069987 2.305004
  C 3.141047 -0.101628 -0.980716
  H 2.564483 -0.261555 -1.882252
  C 4.533061 0.221992 -1.185772
  C 5.093133 0.279534 -2.391288
  H 6.133544 0.522057 -2.524514
  H 1.502430 -0.662702 0.273236
  H -0.068485 -0.360046 -0.247066
  H 0.829549 1.115660 -0.397330
  H 3.795931 0.856917 1.570686
  H 3.800597 -0.894035 1.811952
  H 5.126577 0.413992 -0.303564
  H 4.526842 0.085661 -3.287817
 16
 98.438077
  C 0.898521 0.349346 0.191865
  C 2.450690 -0.260052 0.261467
  C 3.128626 -0.004097 1.588364
  H 2.379384 0.287531 2.325449
  C 3.081071 -0.196126 -0.986872
  H 2.471331 -0.281706 -1.873753
  C 4.447693 0.168760 -1.171142
  C 4.991304 0.371699 -2.382043
  H 6.028669 0.636009 -2.503768
  H 1.718066 -1.082432 0.279682
  H 0.104830 -0.235707 -0.280530
  H 1.096793 1.163106 -0.548322
  H 3.863708 0.795776 1.506961
  H 3.635248 -0.890606 1.947827
  H 5.057938 0.268985 -0.287660
  H 4.411381 0.273893 -3.279741
 16
 71.946816
  C 1.081613 0.475184 0.072782
  C 2.390706 -0.278829 0.311397
  C 3.093068 -0.052758 1.640150
  H 2.358076 0.181287 2.401154
  C 3.063454 -0.241806 -0.971095
  H 2.492509 -0.525465 -1.844008
  C 4.371518 0.243534 -1.174208
  C 4.953330 0.334018 -2.388837
  H 5.956183 0.692671 -2.509639
  H 1.888642 -1.241983 0.355044
  H 0.219982 -0.091174 -0.258669
  H 1.283395 1.255341 -0.663689
  H 3.783425 0.779838 1.581865
  H 3.647539 -0.939040 1.947573
  H 4.927124 0.552541 -0.300895
  H 4.440891 0.024253 -3.278391
 16
 52.634160
  C 1.332307 0.507678 -0.137688
  C 2.390992 -0.393830 0.363612
  C 3.043869 -0.127548 1.711516
  H 2.280351 0.254737 2.398386
  C 3.000085 -0.298040 -0.941896
  H 2.427323 -0.607871 -1.799317
  C 4.250260 0.319401 -1.194726
  C 4.766105 0.478994 -2.421104
  H 5.768081 0.842831 -2.573332
  H 1.904892 -1.377518 0.484590
  H 0.454542 0.053206 -0.582346
  H 1.662975 1.397145 -0.685459
  H 3.832905 0.610811 1.645395
  H 3.459649 -1.038426 2.117826
  H 4.836038 0.607791 -0.337079
  H 4.208411 0.213208 -3.305036
 16
 28.976375
  C 1.551737 0.494516 -0.261782
  C 2.413118 -0.474762 0.429117
  C 3.028266 -0.159053 1.778622
  H 2.253718 0.237852 2.428829
  C 2.951077 -0.355061 -0.913339
  H 2.462144 -0.844084 -1.741934
  C 4.156067 0.379639 -1.227835
  C 4.674492 0.469050 -2.450911
  H 5.600054 0.983674 -2.640737
  H 1.839747 -1.404930 0.559758
  H 0.687997 0.155735 -0.806706
  H 1.923098 1.464781 -0.546358
  H 3.824007 0.580963 1.709792
  H 3.438539 -1.061074 2.225672
  H 4.667653 0.847175 -0.396701
  H 4.197798 0.006792 -3.300298
 16
 9.199156
  C 1.693979 0.538787 -0.368243
  C 2.363341 -0.526995 0.407874
  C 3.001782 -0.285788 1.747542
  H 2.273666 0.166913 2.409047
  C 2.904808 -0.328909 -0.952699
  H 2.535260 -0.932321 -1.761164
  C 4.114298 0.444949 -1.238678
  C 4.665570 0.534825 -2.430763
  H 5.553732 1.116355 -2.606047
  H 1.731282 -1.398478 0.494331
  H 0.745313 0.365969 -0.823998
  H 2.012151 1.556698 -0.326015
  H 3.860987 0.377056 1.679297
  H 3.332829 -1.228989 2.186797
  H 4.562151 0.961336 -0.401853
  H 4.249990 0.026718 -3.283303
 16
 0.181040
  C 1.649497 0.609019 -0.358237
  C 2.260560 -0.549085 0.359180
  C 3.053988 -0.343249 1.626284
  H 2.383629 -0.346224 2.484952
  C 2.781987 -0.158745 -1.002598
  H 2.501631 -0.806263 -1.825247
  C 4.084854 0.494320 -1.195671
  C 4.759215 0.464715 -2.332969
  H 5.706797 0.961845 -2.446897
  H 1.671269 -1.459861 0.374490
  H 0.660727 0.510998 -0.780629
  H 1.876957 1.601808 -0.003920
  H 3.582137 0.605670 1.615490
  H 3.781140 -1.143426 1.757190
  H 4.483506 1.036764 -0.350927
  H 4.391170 -0.065278 -3.196473
