 28
 0.000000
  C 0.964287 0.148074 0.421625
  C 2.438625 0.141344 0.403509
  C 3.236602 0.606133 1.558757
  C 2.472642 1.097759 2.782352
  H 3.164325 1.408528 3.554838
  C 3.039626 -0.326735 -0.761371
  C 4.420840 -0.414601 -0.980954
  C 5.085429 -0.862287 -2.097062
  C 4.612545 -1.381644 -3.392478
  C 3.128788 -1.508949 -3.711568
  C 2.932463 -2.072516 -5.117334
  H 6.165832 -0.849512 -2.064988
  H 0.530554 0.518814 1.344008
  H 0.591197 -0.863080 0.251282
  H 0.590462 0.759542 -0.401185
  H 3.894833 1.412886 1.216610
  H 3.895472 -0.212472 1.870104
  H 1.840363 0.308956 3.185410
  H 1.839813 1.945699 2.527476
  H 2.372804 -0.642456 -1.546455
  H 5.048648 -0.085842 -0.162214
  H 5.080987 -2.367311 -3.515026
  H 5.081766 -0.754208 -4.162004
  H 2.647203 -0.531082 -3.665369
  H 2.646481 -2.183665 -3.002765
  H 3.380229 -1.422404 -5.865511
  H 1.872296 -2.161763 -5.341103
  H 3.379572 -3.059765 -5.209015
 28
 -0.494715
  C 0.960124 0.101112 0.454868
  C 2.430627 0.104276 0.416065
  C 3.230264 0.618422 1.548773
  C 2.466159 1.151266 2.752097
  H 3.172308 1.520762 3.491855
  C 3.035233 -0.366979 -0.747240
  C 4.418090 -0.441138 -0.966871
  C 5.071928 -0.884640 -2.090998
  C 4.607357 -1.392836 -3.386010
  C 3.126483 -1.515672 -3.717294
  C 2.940706 -2.051275 -5.134664
  H 6.154173 -0.858093 -2.031442
  H 0.557635 0.258147 1.448134
  H 0.560469 -0.816830 0.026395
  H 0.591510 0.910011 -0.182028
  H 3.886622 1.411120 1.172681
  H 3.903913 -0.179048 1.881815
  H 1.871677 0.372835 3.225504
  H 1.812829 1.974150 2.474802
  H 2.372530 -0.703073 -1.527612
  H 5.059278 -0.116746 -0.157992
  H 5.086271 -2.372598 -3.523415
  H 5.093186 -0.771924 -4.152995
  H 2.645470 -0.538942 -3.651595
  H 2.642722 -2.204350 -3.022848
  H 3.394024 -1.385486 -5.866276
  H 1.883787 -2.139270 -5.371124
  H 3.392000 -3.035602 -5.242700
 28
 -1.000881
  C 0.966571 0.073698 0.482637
  C 2.434488 0.078912 0.419702
  C 3.229474 0.627080 1.539843
  C 2.451971 1.189162 2.720856
  H 3.146805 1.599855 3.447990
  C 3.037337 -0.399238 -0.740403
  C 4.420554 -0.449528 -0.968710
  C 5.075610 -0.891467 -2.092315
  C 4.612417 -1.403196 -3.386319
  C 3.132269 -1.526329 -3.718469
  C 2.947629 -2.041795 -5.143197
  H 6.158016 -0.856082 -2.034404
  H 0.593527 -0.011356 1.498391
  H 0.534809 -0.697615 -0.149468
  H 0.603155 1.035824 0.108667
  H 3.885091 1.412735 1.146251
  H 3.904847 -0.158381 1.899428
  H 1.870858 0.418514 3.222039
  H 1.780819 1.985622 2.410659
  H 2.376731 -0.764637 -1.508296
  H 5.060427 -0.107629 -0.166210
  H 5.092128 -2.382647 -3.521551
  H 5.098810 -0.783395 -4.154377
  H 2.647969 -0.552466 -3.637417
  H 2.651297 -2.226824 -3.034228
  H 3.397989 -1.363698 -5.865213
  H 1.890756 -2.130262 -5.380359
  H 3.402565 -3.023042 -5.265733
 28
 -1.490551
  C 0.973994 0.056497 0.503450
  C 2.438107 0.075165 0.412394
  C 3.226876 0.663857 1.516159
  C 2.436925 1.232811 2.685342
  H 3.121646 1.662915 3.411069
  C 3.042558 -0.432248 -0.733831
  C 4.425912 -0.471590 -0.964550
  C 5.082894 -0.925297 -2.082292
  C 4.619379 -1.432581 -3.377790
  C 3.139938 -1.540395 -3.713680
  C 2.953832 -2.015187 -5.153229
  H 6.165013 -0.895793 -2.021303
  H 0.646561 -0.284085 1.484902
  H 0.514908 -0.544669 -0.274376
  H 0.599678 1.080319 0.417856
  H 3.863982 1.453336 1.104036
  H 3.919273 -0.097205 1.891665
  H 1.860253 0.462942 3.191539
  H 1.755719 2.015825 2.361315
  H 2.385436 -0.833715 -1.486421
  H 5.064278 -0.111401 -0.167091
  H 5.092205 -2.415142 -3.515713
  H 5.111160 -0.813914 -4.142266
  H 2.659343 -0.567875 -3.604272
  H 2.655623 -2.258944 -3.049166
  H 3.402029 -1.317116 -5.855490
  H 1.896301 -2.098127 -5.391807
  H 3.409907 -2.991476 -5.304107
 28
 -0.692942
  C 0.992309 -0.147577 0.609449
  C 2.441002 0.003131 0.431672
  C 3.206442 0.809759 1.408288
  C 2.414267 1.396741 2.568671
  H 3.081543 1.960420 3.215591
  C 3.053189 -0.605775 -0.658335
  C 4.425263 -0.566212 -0.939309
  C 5.084013 -1.137046 -2.002936
  C 4.625713 -1.549390 -3.333365
  C 3.159821 -1.430326 -3.727058
  C 2.968205 -1.813370 -5.192743
  H 6.155680 -1.246223 -1.877941
  H 0.784545 -0.588930 1.585627
  H 0.536501 -0.752864 -0.167575
  H 0.513747 0.832414 0.634419
  H 3.696298 1.628782 0.867328
  H 4.021975 0.196170 1.809442
  H 1.950768 0.617809 3.166888
  H 1.637030 2.071747 2.222986
  H 2.418690 -1.183888 -1.309629
  H 5.059426 -0.065330 -0.218700
  H 4.967591 -2.577564 -3.504521
  H 5.231203 -0.963224 -4.042588
  H 2.815888 -0.404089 -3.579887
  H 2.549333 -2.095445 -3.119146
  H 3.545129 -1.161077 -5.847065
  H 1.921515 -1.729248 -5.472960
  H 3.281391 -2.837431 -5.370432
 28
 4.030815
  C 1.042879 -0.435602 0.782616
  C 2.439614 -0.114335 0.465526
  C 3.145573 0.927854 1.258081
  C 2.354217 1.557101 2.397141
  H 2.982841 2.283001 2.913166
  C 3.071131 -0.789622 -0.571076
  C 4.414282 -0.672155 -0.926534
  C 5.077379 -1.357030 -1.947382
  C 4.636657 -1.658998 -3.305282
  C 3.258723 -1.171401 -3.744452
  C 2.977194 -1.584681 -5.187532
  H 6.098681 -1.663602 -1.714926
  H 0.984622 -0.789038 1.811825
  H 0.623538 -1.188025 0.117230
  H 0.427220 0.462725 0.744065
  H 3.472235 1.727066 0.574304
  H 4.060102 0.492618 1.663076
  H 2.038258 0.810514 3.119173
  H 1.470346 2.080488 2.036185
  H 2.482100 -1.522231 -1.120129
  H 5.035762 -0.000583 -0.341389
  H 4.720597 -2.748343 -3.469946
  H 5.402086 -1.247317 -3.964828
  H 3.221113 -0.085273 -3.668769
  H 2.480042 -1.579554 -3.104199
  H 3.716493 -1.160398 -5.865102
  H 1.992113 -1.240922 -5.491931
  H 2.998109 -2.666366 -5.292091
 28
 14.125194
  C 1.108749 -0.659479 1.057723
  C 2.428385 -0.233801 0.544211
  C 3.057877 1.001510 1.097216
  C 2.296568 1.705129 2.212162
  H 2.869453 2.564035 2.538621
  C 3.084662 -1.011790 -0.434360
  C 4.348414 -0.785039 -0.940642
  C 5.014125 -1.573449 -1.901540
  C 4.626927 -1.748230 -3.306242
  C 3.384147 -0.984593 -3.779219
  C 3.059533 -1.333902 -5.222474
  H 5.912972 -2.078507 -1.588111
  H 1.180450 -0.838613 2.120286
  H 0.742655 -1.556928 0.553127
  H 0.367762 0.137137 0.950437
  H 3.205397 1.706306 0.269241
  H 4.045750 0.766794 1.469194
  H 2.137485 1.066233 3.064125
  H 1.336274 2.058161 1.875316
  H 2.567801 -1.894161 -0.786224
  H 4.916614 0.072096 -0.582926
  H 4.507605 -2.806322 -3.506100
  H 5.503874 -1.477910 -3.916218
  H 3.569103 0.086645 -3.699701
  H 2.539370 -1.215853 -3.161431
  H 3.872434 -1.098738 -5.886279
  H 2.191072 -0.784367 -5.554682
  H 2.841585 -2.413135 -5.310309
 28
 24.869387
  C 1.238858 -0.823196 1.361233
  C 2.444529 -0.351115 0.670784
  C 2.954795 1.014248 0.936130
  C 2.211566 1.813660 1.999447
  H 2.693039 2.778788 2.129222
  C 3.082205 -1.205442 -0.241642
  C 4.210118 -0.908617 -0.952627
  C 4.861528 -1.781667 -1.880769
  C 4.579097 -1.822233 -3.310624
  C 3.494636 -0.866617 -3.797551
  C 3.243102 -1.040551 -5.289138
  H 5.642810 -2.431202 -1.505639
  H 1.395770 -0.800475 2.441123
  H 0.954059 -1.826903 1.062261
  H 0.408180 -0.139938 1.177169
  H 2.930004 1.577132 -0.002974
  H 4.010354 0.948457 1.220816
  H 2.223546 1.304164 2.960403
  H 1.177144 1.993276 1.715570
  H 2.639458 -2.180970 -0.388148
  H 4.680279 0.063596 -0.825910
  H 4.317516 -2.856846 -3.579784
  H 5.513663 -1.648512 -3.860454
  H 3.799767 0.164248 -3.602714
  H 2.567340 -1.050703 -3.251682
  H 4.150646 -0.858610 -5.860139
  H 2.484537 -0.340466 -5.631502
  H 2.895634 -2.048262 -5.510748
 28
 16.061120
  C 1.361651 -0.932465 1.612018
  C 2.457980 -0.436325 0.770456
  C 2.849949 0.993606 0.843979
  C 2.116310 1.840671 1.876324
  H 2.523770 2.847692 1.872064
  C 3.085210 -1.316659 -0.105925
  C 4.094312 -0.987859 -0.984519
  C 4.712114 -1.883043 -1.882588
  C 4.537037 -1.831757 -3.330345
  C 3.581759 -0.759449 -3.842398
  C 3.422288 -0.843460 -5.354831
  H 5.397236 -2.627444 -1.493809
  H 1.615688 -0.769042 2.658824
  H 1.157712 -1.986412 1.450138
  H 0.452994 -0.355489 1.439288
  H 2.694290 1.438073 -0.145545
  H 3.925197 1.056839 1.038290
  H 2.235188 1.435345 2.878576
  H 1.055220 1.913100 1.656529
  H 2.743379 -2.342963 -0.103983
  H 4.450296 0.037687 -1.027336
  H 4.196356 -2.828268 -3.643699
  H 5.514690 -1.733598 -3.825973
  H 3.963482 0.227207 -3.579013
  H 2.606197 -0.879889 -3.369199
  H 4.380787 -0.728004 -5.855700
  H 2.760525 -0.057687 -5.711693
  H 2.995696 -1.800063 -5.647684
 28
 7.621339
  C 1.506614 -0.971619 1.849341
  C 2.449943 -0.471878 0.843664
  C 2.683388 0.989552 0.731489
  C 2.046390 1.855589 1.809855
  H 2.278101 2.899989 1.618365
  C 3.066848 -1.375539 -0.008284
  C 3.961526 -1.050446 -1.017558
  C 4.532708 -1.972488 -1.891334
  C 4.482854 -1.861390 -3.346726
  C 3.718863 -0.664013 -3.901153
  C 3.619275 -0.732950 -5.421402
  H 5.083741 -2.813445 -1.487280
  H 1.870471 -0.709152 2.846477
  H 1.373539 -2.048337 1.795345
  H 0.539214 -0.479870 1.751343
  H 2.313722 1.320625 -0.244929
  H 3.761533 1.178074 0.720958
  H 2.426670 1.603651 2.798016
  H 0.966475 1.753231 1.819088
  H 2.816198 -2.420864 0.107864
  H 4.214991 -0.008686 -1.182226
  H 4.040754 -2.797120 -3.715810
  H 5.498328 -1.883445 -3.762280
  H 4.228838 0.259195 -3.620315
  H 2.713754 -0.638355 -3.475377
  H 4.606758 -0.748641 -5.875020
  H 3.087375 0.131426 -5.807538
  H 3.085108 -1.625272 -5.736449
 28
 1.590719
  C 1.688378 -0.977148 2.063855
  C 2.454948 -0.480283 0.917160
  C 2.573789 0.983163 0.703108
  C 1.947965 1.872594 1.768525
  H 2.089338 2.915663 1.501201
  C 3.062066 -1.389389 0.060589
  C 3.810590 -1.063722 -1.070042
  C 4.355659 -2.006244 -1.923454
  C 4.401536 -1.890504 -3.378836
  C 3.798205 -0.627834 -3.980205
  C 3.808038 -0.688775 -5.503190
  H 4.806972 -2.896830 -1.500336
  H 2.149321 -0.623030 2.988124
  H 1.635856 -2.061062 2.086811
  H 0.679353 -0.561064 2.062608
  H 2.117382 1.225661 -0.264794
  H 3.633728 1.239676 0.603426
  H 2.407534 1.710775 2.738471
  H 0.877360 1.695656 1.859091
  H 2.911275 -2.440281 0.261304
  H 3.957904 -0.020261 -1.320682
  H 3.893464 -2.778630 -3.779313
  H 5.435920 -2.014757 -3.726023
  H 4.371463 0.244580 -3.657837
  H 2.772647 -0.507929 -3.632912
  H 4.823028 -0.795698 -5.881329
  H 3.387296 0.223151 -5.923690
  H 3.219597 -1.528395 -5.863463
 28
 -3.505133
  C 1.933237 -0.948798 2.272622
  C 2.463679 -0.477201 0.988557
  C 2.421399 0.970590 0.676402
  C 1.895231 1.882970 1.773889
  H 1.906593 2.912175 1.427871
  C 3.019926 -1.390545 0.100949
  C 3.579326 -1.085776 -1.145933
  C 4.084778 -2.053738 -1.979322
  C 4.281768 -1.923081 -3.422460
  C 3.900747 -0.592484 -4.059777
  C 4.047484 -0.653635 -5.577413
  H 4.375755 -3.006307 -1.550064
  H 2.492824 -0.489633 3.089279
  H 1.979485 -2.030101 2.369808
  H 0.905504 -0.611804 2.406439
  H 1.808246 1.110443 -0.220695
  H 3.429337 1.298318 0.394883
  H 2.510929 1.823548 2.668324
  H 0.872458 1.634874 2.045344
  H 2.991057 -2.434920 0.379041
  H 3.586500 -0.057524 -1.484743
  H 3.709010 -2.733404 -3.893853
  H 5.324998 -2.172174 -3.664644
  H 4.546917 0.199153 -3.676032
  H 2.867651 -0.343316 -3.811692
  H 5.068009 -0.884242 -5.858570
  H 3.784161 0.300042 -6.023322
  H 3.395062 -1.415887 -6.002846
 28
 -5.467269
  C 2.150212 -0.923496 2.379099
  C 2.516886 -0.470086 1.033929
  C 2.323230 0.952112 0.668444
  C 1.816253 1.868639 1.768295
  H 1.712306 2.877334 1.381640
  C 3.027642 -1.387770 0.123241
  C 3.399443 -1.112227 -1.200702
  C 3.867917 -2.091617 -2.035919
  C 4.151014 -1.946575 -3.464004
  C 3.936667 -0.572929 -4.089895
  C 4.267386 -0.595959 -5.578326
  H 4.049934 -3.074994 -1.622349
  H 2.715102 -0.360823 3.126985
  H 2.320254 -1.983822 2.524126
  H 1.103035 -0.687621 2.583092
  H 1.625173 0.994980 -0.176188
  H 3.267995 1.348088 0.281078
  H 2.508895 1.901748 2.609130
  H 0.843611 1.551136 2.138116
  H 3.141585 -2.409936 0.458025
  H 3.302825 -0.106813 -1.577306
  H 3.544969 -2.690488 -3.994133
  H 5.180167 -2.280773 -3.643624
  H 4.576511 0.163931 -3.598679
  H 2.898944 -0.266138 -3.964356
  H 5.301796 -0.884993 -5.741798
  H 4.120330 0.388355 -6.016239
  H 3.627579 -1.299551 -6.109212
 28
 -5.533515
  C 1.946499 2.254560 1.049821
  C 2.470442 1.039400 0.418012
  C 2.750315 -0.148855 1.255847
  C 2.390725 -0.039532 2.727851
  H 2.619396 -0.977069 3.228789
  C 2.678858 1.017304 -0.956371
  C 3.106425 -0.086653 -1.711328
  C 3.295304 -0.000099 -3.064607
  C 3.743546 -1.079396 -3.946453
  C 4.034484 -2.434112 -3.312776
  C 4.486334 -3.442010 -4.367087
  H 3.101999 0.948622 -3.550358
  H 0.942479 2.039451 1.427311
  H 1.890152 3.091657 0.361315
  H 2.533447 2.526554 1.926670
  H 3.816915 -0.380505 1.166406
  H 2.234835 -1.011996 0.826967
  H 1.330034 0.163782 2.862579
  H 2.956751 0.746863 3.223800
  H 2.498208 1.936529 -1.499883
  H 3.287894 -1.026408 -1.217264
  H 4.631921 -0.724419 -4.485776
  H 2.993086 -1.194925 -4.740291
  H 3.137682 -2.815109 -2.821754
  H 4.821011 -2.331745 -2.563992
  H 3.716489 -3.586043 -5.123316
  H 4.692594 -4.405969 -3.909201
  H 5.393207 -3.104533 -4.864378
