 23
 0.000000
  C 0.978077 0.111705 0.368045
  C 2.452326 0.118454 0.371049
  C 3.223828 0.600540 1.543379
  C 2.428532 1.089098 2.747225
  H 3.112772 1.409632 3.526189
  C 3.097973 -0.345364 -0.772622
  C 4.481645 -0.409939 -0.935182
  C 5.157702 -0.859425 -2.064082
  C 4.551071 -1.351091 -3.317499
  H 3.467489 -1.348352 -3.321396
  O 6.468509 -0.868508 -2.084328
  H 0.545389 0.492059 1.284427
  H 0.613935 -0.902309 0.198099
  H 0.606682 0.701822 -0.471506
  H 3.880919 1.411721 1.211483
  H 3.887317 -0.206451 1.872842
  H 1.802138 0.299015 3.154488
  H 1.796230 1.934576 2.486902
  H 2.470811 -0.676465 -1.586991
  H 5.101151 -0.081269 -0.111672
  H 4.921696 -2.359582 -3.510611
  H 4.927965 -0.747314 -4.145257
  H 6.895380 -0.549289 -1.270007
 23
 1.453227
  C 1.063428 0.082714 0.290148
  C 2.523689 0.190125 0.391357
  C 3.227508 0.656787 1.599638
  C 2.348765 1.086684 2.773117
  H 2.977510 1.413948 3.597974
  C 3.195994 -0.254268 -0.739753
  C 4.563482 -0.374619 -0.906654
  C 5.140680 -0.879494 -2.063184
  C 4.438277 -1.367558 -3.262824
  H 3.360846 -1.326110 -3.187789
  O 6.440970 -0.936129 -2.181996
  H 0.530044 0.300903 1.200776
  H 0.873299 -0.943417 -0.053535
  H 0.692273 0.727661 -0.500230
  H 3.875445 1.497565 1.313277
  H 3.905852 -0.140193 1.934232
  H 1.735597 0.264132 3.130872
  H 1.701361 1.915141 2.499280
  H 2.570451 -0.566051 -1.561467
  H 5.222368 -0.066938 -0.107433
  H 4.751414 -2.393261 -3.458937
  H 4.768915 -0.785307 -4.123163
  H 6.932621 -0.635893 -1.404051
 23
 5.971208
  C 1.144217 0.052754 0.220651
  C 2.582504 0.269535 0.403334
  C 3.224532 0.718094 1.646159
  C 2.280939 1.063718 2.796291
  H 2.858403 1.392577 3.660168
  C 3.280691 -0.136619 -0.714265
  C 4.635651 -0.325809 -0.889960
  C 5.106879 -0.902437 -2.055574
  C 4.330889 -1.399884 -3.204162
  H 3.260913 -1.329895 -3.092166
  O 6.407489 -1.006454 -2.258740
  H 0.549209 0.088305 1.114527
  H 1.123508 -0.915436 -0.283457
  H 0.740440 0.768241 -0.495366
  H 3.845967 1.593484 1.411965
  H 3.927648 -0.059845 1.972437
  H 1.693435 0.197250 3.099297
  H 1.601658 1.869555 2.519477
  H 2.663626 -0.420311 -1.554628
  H 5.335987 -0.047023 -0.124202
  H 4.605565 -2.437625 -3.380623
  H 4.640717 -0.854134 -4.092493
  H 6.958214 -0.722004 -1.513636
 23
 14.106181
  C 1.242157 0.021198 0.141634
  C 2.647883 0.349607 0.415407
  C 3.221826 0.785093 1.704453
  C 2.214322 1.033654 2.815825
  H 2.730838 1.362095 3.716363
  C 3.378296 -0.011941 -0.691329
  C 4.705831 -0.288448 -0.877320
  C 5.056881 -0.925385 -2.046026
  C 4.211109 -1.436772 -3.151653
  H 3.142547 -1.345476 -3.005899
  O 6.358462 -1.063408 -2.313370
  H 0.599028 -0.091543 1.005105
  H 1.384658 -0.887369 -0.455089
  H 0.797089 0.764434 -0.533249
  H 3.803073 1.694187 1.529913
  H 3.949383 0.037538 2.029114
  H 1.663836 0.124484 3.058862
  H 1.502539 1.809156 2.532260
  H 2.779651 -0.243228 -1.561929
  H 5.457667 -0.065098 -0.139799
  H 4.457884 -2.486609 -3.306508
  H 4.499579 -0.924606 -4.068864
  H 6.944215 -0.782477 -1.609622
 23
 23.981889
  C 1.350583 -0.005658 0.065507
  C 2.708690 0.460585 0.408903
  C 3.213878 0.862779 1.730257
  C 2.155929 0.968726 2.824299
  H 2.615980 1.285148 3.753019
  C 3.459939 0.164455 -0.703430
  C 4.755848 -0.222269 -0.889349
  C 4.998555 -0.951687 -2.034015
  C 4.097069 -1.472207 -3.080680
  H 3.041025 -1.333720 -2.903142
  O 6.286982 -1.161453 -2.327163
  H 0.710717 -0.274468 0.890868
  H 1.658587 -0.843636 -0.587299
  H 0.837755 0.727526 -0.562214
  H 3.731649 1.825986 1.622261
  H 3.994336 0.152290 2.035494
  H 1.676426 0.011733 2.999885
  H 1.395117 1.695532 2.560721
  H 2.879760 0.007667 -1.594450
  H 5.543911 -0.061844 -0.170502
  H 4.296980 -2.538982 -3.191856
  H 4.373532 -1.016827 -4.032284
  H 6.907549 -0.897761 -1.628787
 23
 33.456361
  C 1.458281 -0.051415 -0.010477
  C 2.736680 0.636288 0.343959
  C 3.220192 0.973352 1.688249
  C 2.186650 0.828405 2.804135
  H 2.630902 1.114203 3.759961
  C 3.473770 0.472085 -0.815072
  C 4.732957 -0.067392 -0.929217
  C 4.913022 -0.961519 -1.970166
  C 4.000762 -1.481446 -3.002345
  H 2.961690 -1.223794 -2.874755
  O 6.183129 -1.368087 -2.144250
  H 0.871924 -0.438703 0.814180
  H 1.928299 -0.840730 -0.646238
  H 0.843363 0.583095 -0.635954
  H 3.601501 2.002605 1.667863
  H 4.095562 0.353632 1.913421
  H 1.842833 -0.195821 2.890285
  H 1.330211 1.469482 2.625981
  H 2.900270 0.327620 -1.706814
  H 5.502276 0.052773 -0.189448
  H 4.098631 -2.568617 -3.019352
  H 4.346462 -1.134798 -3.980066
  H 6.775588 -1.176251 -1.398722
 23
 37.504338
  C 1.638457 -0.182586 -0.075186
  C 2.794084 0.687729 0.302649
  C 3.200223 1.084061 1.653812
  C 2.205935 0.741679 2.758318
  H 2.566239 1.112732 3.696933
  C 3.531948 0.690079 -0.872922
  C 4.731832 -0.002483 -0.930769
  C 4.834640 -0.996111 -1.883694
  C 3.882243 -1.416481 -2.934573
  H 2.888714 -1.005955 -2.843431
  O 6.009855 -1.644596 -1.976137
  H 1.147233 -0.658507 0.755940
  H 2.197359 -0.921180 -0.698750
  H 0.913396 0.352138 -0.685718
  H 3.379116 2.168393 1.640643
  H 4.177202 0.643144 1.889335
  H 2.077016 -0.334744 2.853846
  H 1.235981 1.195045 2.566007
  H 2.964498 0.693453 -1.794705
  H 5.464522 0.045971 -0.134957
  H 3.825249 -2.504118 -2.924683
  H 4.296112 -1.148552 -3.906139
  H 6.644726 -1.429926 -1.279005
 23
 42.587277
  C 1.798430 -0.269060 -0.146843
  C 2.814585 0.744649 0.234840
  C 3.156489 1.181041 1.588295
  C 2.295769 0.612646 2.710095
  H 2.587200 1.056770 3.652273
  C 3.571849 0.869620 -0.929192
  C 4.740238 0.102559 -0.952976
  C 4.730779 -0.998241 -1.776835
  C 3.802090 -1.340853 -2.890004
  H 2.899312 -0.745965 -2.942508
  O 5.721655 -1.901241 -1.688528
  H 1.382296 -0.777041 0.713004
  H 2.414709 -0.965531 -0.775623
  H 0.990497 0.134603 -0.745996
  H 3.085957 2.277470 1.593346
  H 4.216051 0.979575 1.790218
  H 2.422625 -0.465771 2.796835
  H 1.242133 0.832789 2.548051
  H 3.011094 0.908258 -1.855098
  H 5.437811 0.128860 -0.127097
  H 3.544008 -2.396335 -2.817101
  H 4.350370 -1.228161 -3.826106
  H 6.390661 -1.692989 -1.015997
 23
 52.374338
  C 1.941371 -0.349067 -0.196441
  C 2.841528 0.764522 0.189962
  C 3.124775 1.236019 1.542140
  C 2.371497 0.543945 2.671009
  H 2.603605 1.026906 3.613198
  C 3.596426 0.987295 -0.974432
  C 4.730468 0.150864 -0.961504
  C 4.613825 -1.009859 -1.690692
  C 3.740465 -1.301992 -2.861378
  H 2.920588 -0.611227 -3.008457
  O 5.487566 -2.014828 -1.489299
  H 1.547977 -0.872204 0.669820
  H 2.646609 -0.995869 -0.795876
  H 1.110912 -0.046870 -0.828180
  H 2.880809 2.306907 1.546538
  H 4.201443 1.212189 1.730918
  H 2.660882 -0.503360 2.752112
  H 1.294869 0.603350 2.522295
  H 3.045969 1.056858 -1.902651
  H 5.415865 0.166882 -0.125878
  H 3.359781 -2.318392 -2.779372
  H 4.371898 -1.285165 -3.753770
  H 6.173170 -1.819850 -0.829879
 23
 63.369757
  C 2.044674 -0.397605 -0.238278
  C 2.854245 0.778241 0.144515
  C 3.110309 1.261808 1.497209
  C 2.442654 0.494347 2.635002
  H 2.646850 0.989300 3.575707
  C 3.597774 1.065442 -1.018954
  C 4.711636 0.195192 -0.968936
  C 4.519509 -1.008207 -1.622697
  C 3.708016 -1.290010 -2.842989
  H 2.942198 -0.553071 -3.060919
  O 5.321907 -2.061288 -1.330756
  H 1.666185 -0.933494 0.628842
  H 2.836885 -0.999874 -0.818218
  H 1.215140 -0.177862 -0.901034
  H 2.760931 2.298719 1.508966
  H 4.186650 1.349099 1.669666
  H 2.828289 -0.523369 2.701638
  H 1.361307 0.456196 2.506794
  H 3.054743 1.134332 -1.949759
  H 5.381198 0.210588 -0.120268
  H 3.260464 -2.273766 -2.760748
  H 4.398654 -1.337958 -3.690711
  H 5.993610 -1.874218 -0.655810
 23
 74.143016
  C 2.120792 -0.450691 -0.252481
  C 2.855711 0.773079 0.107357
  C 3.099579 1.278547 1.453660
  C 2.517296 0.467967 2.611436
  H 2.709521 0.979492 3.543304
  C 3.590129 1.099699 -1.058238
  C 4.705049 0.232980 -0.990942
  C 4.435608 -1.008042 -1.568876
  C 3.713839 -1.278016 -2.856883
  H 3.010164 -0.504892 -3.138488
  O 5.166830 -2.083980 -1.198290
  H 1.753351 -0.990944 0.620780
  H 2.987307 -1.014245 -0.831171
  H 1.300441 -0.309997 -0.951862
  H 2.662997 2.288723 1.468370
  H 4.167450 1.456424 1.601073
  H 2.976035 -0.520008 2.670910
  H 1.438821 0.352696 2.512550
  H 3.049275 1.155023 -1.990540
  H 5.345288 0.249205 -0.125828
  H 3.205880 -2.237001 -2.799931
  H 4.469121 -1.371825 -3.643168
  H 5.812778 -1.907846 -0.494555
 23
 84.636993
  C 2.172480 -0.484947 -0.242258
  C 2.856520 0.763549 0.092947
  C 3.094481 1.296496 1.432435
  C 2.563031 0.476588 2.603352
  H 2.753135 1.004672 3.530439
  C 3.579184 1.096229 -1.083484
  C 4.700698 0.250046 -1.024676
  C 4.373118 -1.026663 -1.547815
  C 3.744188 -1.290127 -2.891453
  H 3.074787 -0.503421 -3.215706
  O 5.082012 -2.100938 -1.133984
  H 1.817319 -1.028457 0.628430
  H 3.114500 -1.044373 -0.854805
  H 1.376490 -0.410201 -0.975332
  H 2.609465 2.290576 1.444332
  H 4.151243 1.522422 1.562218
  H 3.056687 -0.494034 2.663052
  H 1.489957 0.322991 2.523669
  H 3.024155 1.129942 -2.010821
  H 5.324030 0.262378 -0.140750
  H 3.217139 -2.235360 -2.870556
  H 4.551494 -1.391624 -3.622085
  H 5.722322 -1.913598 -0.428006
 23
 93.723676
  C 2.181769 -0.497178 -0.218036
  C 2.847914 0.753954 0.081183
  C 3.100642 1.309851 1.410500
  C 2.597890 0.501248 2.601743
  H 2.803602 1.042371 3.518666
  C 3.560030 1.076540 -1.109826
  C 4.687841 0.255159 -1.045446
  C 4.342984 -1.059576 -1.541218
  C 3.798616 -1.309926 -2.930625
  H 3.139727 -0.523348 -3.271660
  O 5.075373 -2.115005 -1.114515
  H 1.835086 -1.042986 0.654173
  H 3.223939 -1.090616 -0.891601
  H 1.420820 -0.484206 -0.989711
  H 2.605972 2.296919 1.417652
  H 4.157437 1.546895 1.518297
  H 3.098061 -0.465428 2.663524
  H 1.524967 0.340598 2.545804
  H 2.991672 1.073360 -2.031091
  H 5.292283 0.269297 -0.149657
  H 3.280030 -2.259934 -2.953165
  H 4.644572 -1.386768 -3.616594
  H 5.699892 -1.907982 -0.399915
 23
 98.282602
  C 2.135901 -0.463324 -0.172939
  C 2.832631 0.753492 0.082982
  C 3.117002 1.323092 1.404782
  C 2.625139 0.533722 2.608274
  H 2.858783 1.078335 3.516839
  C 3.534866 1.065001 -1.128369
  C 4.659010 0.256107 -1.066779
  C 4.340834 -1.124513 -1.555640
  C 3.880439 -1.364666 -2.982073
  H 3.200237 -0.600365 -3.326393
  O 5.147224 -2.131432 -1.142494
  H 1.776950 -0.998084 0.699511
  H 3.320494 -1.190287 -0.935677
  H 1.438420 -0.515737 -0.998487
  H 2.635988 2.316102 1.408887
  H 4.177527 1.544293 1.495227
  H 3.107847 -0.440792 2.666382
  H 1.547778 0.393576 2.575453
  H 2.948047 1.040737 -2.042794
  H 5.274537 0.283501 -0.178318
  H 3.409434 -2.333399 -3.051485
  H 4.761933 -1.380950 -3.633579
  H 5.752010 -1.889064 -0.421634
