 13
 0.000000
  C 1.020724 0.126677 0.373095
  C 2.467625 0.082270 0.346078
  H 3.034514 0.446259 1.192514
  C 3.136666 -0.397707 -0.763218
  C 4.538829 -0.427570 -0.912273
  C 5.129226 -0.835637 -2.067963
  H 4.543783 -1.151133 -2.917168
  H 6.200527 -0.851754 -2.176137
  H 0.615333 0.555464 1.282975
  H 0.607081 -0.876703 0.209306
  H 0.651769 0.666711 -0.506556
  H 2.540884 -0.747650 -1.598264
  H 5.151478 -0.110439 -0.078814
 13
 -0.315771
  C 1.016617 0.113920 0.399403
  C 2.458165 0.095417 0.298176
  H 3.047789 0.503337 1.109969
  C 3.118342 -0.408010 -0.808340
  C 4.522155 -0.402500 -0.932337
  C 5.150221 -0.868851 -2.046864
  H 4.592119 -1.264572 -2.880685
  H 6.223290 -0.855317 -2.133732
  H 0.659875 0.387356 1.386575
  H 0.578138 -0.826584 0.053372
  H 0.616849 0.836794 -0.326930
  H 2.538029 -0.814641 -1.627744
  H 5.107107 -0.011232 -0.110318
 13
 -0.555990
  C 1.013679 0.092621 0.401548
  C 2.453003 0.092995 0.282335
  H 3.038806 0.555754 1.067989
  C 3.115527 -0.442881 -0.807735
  C 4.517435 -0.398319 -0.948140
  C 5.150757 -0.913997 -2.037708
  H 4.599191 -1.387805 -2.834121
  H 6.221489 -0.866020 -2.139729
  H 0.674398 0.189130 1.430111
  H 0.547208 -0.740610 -0.123700
  H 0.639995 0.989860 -0.118756
  H 2.538839 -0.910480 -1.596742
  H 5.096286 0.065386 -0.159931
 13
 2.301783
  C 1.005159 0.018954 0.441681
  C 2.436084 0.067749 0.274855
  H 3.029976 0.554044 1.048587
  C 3.092672 -0.429796 -0.832276
  C 4.489705 -0.323073 -0.998597
  C 5.146353 -0.943603 -2.018568
  H 4.606157 -1.473021 -2.795329
  H 6.219257 -0.908511 -2.102463
  H 0.635681 0.071968 1.455677
  H 0.470720 -0.643144 -0.230850
  H 0.874779 1.062503 0.049885
  H 2.528057 -0.970336 -1.574569
  H 5.048939 0.231589 -0.264695
 13
 12.262549
  C 0.994780 -0.001317 0.484701
  C 2.406353 0.084607 0.257509
  H 3.031753 0.474818 1.056721
  C 3.074049 -0.485426 -0.824853
  C 4.467406 -0.361341 -0.982007
  C 5.130360 -0.883459 -2.049191
  H 4.624357 -1.490826 -2.780066
  H 6.182262 -0.701363 -2.204952
  H 0.570216 0.252338 1.445395
  H 0.401454 -0.618770 -0.175251
  H 1.205545 1.034593 -0.035695
  H 2.524828 -1.024681 -1.577463
  H 5.016369 0.210911 -0.246212
 13
 22.357530
  C 0.993789 -0.070149 0.534892
  C 2.364175 0.131691 0.242769
  H 3.004190 0.526682 1.025914
  C 3.050930 -0.457422 -0.848187
  C 4.432431 -0.323496 -1.014648
  C 5.106733 -0.891659 -2.050345
  H 4.593678 -1.452640 -2.812526
  H 6.170481 -0.797527 -2.146820
  H 0.555679 0.260754 1.464591
  H 0.381323 -0.658884 -0.130104
  H 1.501970 1.011592 -0.059926
  H 2.499827 -1.015840 -1.589470
  H 4.985928 0.231776 -0.270861
 13
 26.513801
  C 0.984867 -0.116654 0.560150
  C 2.341563 0.176443 0.246561
  H 2.982673 0.532049 1.052446
  C 3.035780 -0.436854 -0.854379
  C 4.415512 -0.323490 -1.023147
  C 5.078941 -0.909485 -2.055999
  H 4.558790 -1.489364 -2.799314
  H 6.144505 -0.818519 -2.164317
  H 0.541155 0.233118 1.476887
  H 0.370789 -0.694215 -0.113126
  H 1.761730 1.101139 -0.137591
  H 2.468945 -0.998036 -1.584319
  H 4.978166 0.244422 -0.294166
 13
 26.537119
  C 0.976865 -0.130634 0.580031
  C 2.319769 0.220170 0.247144
  H 2.953876 0.541041 1.075936
  C 3.021087 -0.428798 -0.849104
  C 4.396168 -0.310371 -1.035922
  C 5.046592 -0.930029 -2.057619
  H 4.516117 -1.527178 -2.780133
  H 6.113307 -0.854837 -2.172930
  H 0.538828 0.185794 1.509910
  H 0.365618 -0.699491 -0.101658
  H 2.033816 1.179268 -0.270526
  H 2.447817 -1.011267 -1.556990
  H 4.966519 0.275986 -0.327303
 13
 28.519191
  C 0.969963 -0.116891 0.612883
  C 2.304895 0.220314 0.281592
  H 2.934978 0.582303 1.091142
  C 2.997869 -0.401152 -0.847191
  C 4.378753 -0.296805 -1.036153
  C 5.015153 -0.930253 -2.052762
  H 4.474819 -1.517189 -2.776372
  H 6.083486 -0.881988 -2.162652
  H 0.567820 0.105339 1.584526
  H 0.328416 -0.610479 -0.097000
  H 2.176954 1.071944 -0.465627
  H 2.415724 -0.973608 -1.557169
  H 4.956629 0.278284 -0.324858
 13
 29.735882
  C 0.968226 -0.111366 0.636010
  C 2.290146 0.194705 0.323499
  H 2.917851 0.581666 1.123463
  C 2.972623 -0.361950 -0.847723
  C 4.365955 -0.264491 -1.038497
  C 4.999454 -0.915235 -2.040604
  H 4.459302 -1.514401 -2.755459
  H 6.068232 -0.869813 -2.152634
  H 0.567282 0.094997 1.611832
  H 0.312781 -0.574969 -0.082147
  H 2.336656 0.933834 -0.604898
  H 2.391762 -0.942899 -1.552437
  H 4.941595 0.320147 -0.334885
 13
 26.270890
  C 0.989828 -0.130594 0.666018
  C 2.286194 0.159000 0.360711
  H 2.924130 0.569461 1.135680
  C 2.947524 -0.299076 -0.871095
  C 4.366377 -0.238692 -1.048536
  C 4.997333 -0.914568 -2.028239
  H 4.455729 -1.514068 -2.741105
  H 6.067260 -0.887147 -2.131363
  H 0.595751 0.073814 1.645742
  H 0.317312 -0.572626 -0.050263
  H 2.483690 0.836242 -0.832688
  H 2.369701 -0.904202 -1.561216
  H 4.941284 0.346670 -0.344330
 13
 19.008412
  C 1.013859 -0.160995 0.687147
  C 2.297751 0.131619 0.401456
  H 2.944278 0.549043 1.162066
  C 2.917145 -0.209510 -0.895854
  C 4.357864 -0.211248 -1.046366
  C 4.981860 -0.917418 -2.009941
  H 4.431402 -1.494174 -2.735244
  H 6.054638 -0.938045 -2.087559
  H 0.616157 -0.005248 1.675566
  H 0.336914 -0.564133 -0.048668
  H 2.563063 0.861965 -1.086443
  H 2.349681 -0.862518 -1.554273
  H 4.937494 0.360241 -0.334283
 13
 14.253838
  C 1.022073 -0.153081 0.706918
  C 2.312692 0.113024 0.429941
  H 2.963237 0.530668 1.186199
  C 2.895075 -0.162556 -0.893948
  C 4.349872 -0.204086 -1.022274
  C 4.967581 -0.894364 -2.002265
  H 4.412396 -1.414326 -2.766560
  H 6.040573 -0.964319 -2.051375
  H 0.616588 -0.011952 1.694435
  H 0.343564 -0.529457 -0.042244
  H 2.581924 0.813357 -1.343973
  H 2.363747 -0.914418 -1.482269
  H 4.932786 0.331087 -0.284983
 13
 13.290864
  C 1.008795 -0.084824 0.715895
  C 2.319744 0.090757 0.449226
  H 2.979890 0.478944 1.211026
  C 2.891393 -0.212552 -0.866762
  C 4.350808 -0.238442 -0.986668
  C 4.974795 -0.814605 -2.034894
  H 4.425646 -1.236588 -2.863010
  H 6.049956 -0.890353 -2.078806
  H 0.593448 0.129483 1.686599
  H 0.323600 -0.454193 -0.030401
  H 2.548654 0.623339 -1.518462
  H 2.406395 -1.065489 -1.361152
  H 4.928982 0.214101 -0.194986
 13
 13.130971
  C 1.008009 -0.078583 0.717023
  C 2.315071 0.111807 0.440485
  H 2.975754 0.506956 1.200021
  C 2.890213 -0.210011 -0.867057
  C 4.350860 -0.251821 -0.976588
  C 4.976252 -0.803837 -2.037442
  H 4.429642 -1.198580 -2.878369
  H 6.048805 -0.883737 -2.078748
  H 0.608332 0.108954 1.698567
  H 0.314829 -0.437705 -0.025988
  H 2.544751 0.589016 -1.562177
  H 2.408957 -1.082130 -1.335243
  H 4.930631 0.169248 -0.166880
