19
 0
 C -1.07677103 0.18986362 0.05988223
 C -1.87408376 -1.07875885 -0.21751828
 C -3.37037950 -0.79659105 -0.09250661
 C -1.60111050 -1.76290335 -1.55813255
 C -0.70964840 -1.12653984 -2.59366653
 O -2.13500682 -2.84827558 -1.81441037
 H -1.28778061 0.56624218 1.06686073
 H -1.32594575 0.98605689 -0.65000128
 H 0.00000000 0.00000000 0.00000000
 H -1.59123592 -1.81141141 0.54974582
 H -3.70637141 -0.09526985 -0.86412764
 H -3.60763470 -0.36873507 0.88736578
 H -3.95654917 -1.71525087 -0.20441039
 H -0.23506556 -0.20826387 -2.25278746
 H -1.30570804 -0.89490266 -3.48041145
 H 0.08219786 -1.83442526 -2.85542588
 O 2.30000000 0.00000000 0.00000000
 H 2.86165789 -0.45890637 -0.64258244
 H 2.91189510 0.25197749 0.70784698
