 32
 0.000000
  C 0.944241 0.151537 0.424019
  C 2.414266 0.148504 0.398742
  C 3.220895 0.609881 1.556921
  C 2.467625 1.099599 2.794055
  C 3.450620 1.532814 3.879095
  C 3.020711 -0.316680 -0.769823
  C 4.395990 -0.400827 -0.970587
  C 5.094922 -0.855350 -2.084438
  C 4.616028 -1.385549 -3.394387
  C 3.128885 -1.509424 -3.715174
  C 2.951422 -2.079966 -5.121638
  O 6.409568 -0.847746 -2.049143
  H 0.533296 0.511745 1.357423
  H 0.570437 -0.856741 0.242059
  H 0.557094 0.766125 -0.388545
  H 3.878379 1.419594 1.216726
  H 3.882033 -0.209907 1.863963
  H 1.834733 0.305414 3.192163
  H 1.830898 1.947925 2.539526
  H 4.087425 0.704614 4.180997
  H 2.915083 1.880856 4.758453
  H 4.083773 2.344920 3.529427
  H 2.356775 -0.631656 -1.556284
  H 5.022829 -0.071576 -0.149617
  H 5.084327 -2.371767 -3.508059
  H 5.091452 -0.761561 -4.162244
  H 2.648497 -0.532022 -3.677721
  H 2.641516 -2.180352 -3.008243
  H 3.409340 -1.432651 -5.865520
  H 1.895336 -2.172872 -5.361477
  H 3.402513 -3.065981 -5.202030
  H 6.789812 -0.507651 -1.215519
 32
 2.755271
  C 1.029234 0.241084 0.304091
  C 2.487876 0.116578 0.420478
  C 3.260481 0.545949 1.619764
  C 2.461962 1.102269 2.793333
  C 3.391296 1.490578 3.937569
  C 3.093611 -0.381973 -0.719933
  C 4.453223 -0.434632 -0.943421
  C 5.090400 -0.806280 -2.111281
  C 4.576479 -1.336147 -3.410190
  C 3.096200 -1.581893 -3.662567
  C 2.901227 -2.134657 -5.071466
  O 6.372720 -0.674852 -2.160850
  H 0.537838 0.695795 1.161308
  H 0.575776 -0.738444 0.110892
  H 0.855828 0.827905 -0.594400
  H 3.990706 1.300686 1.312604
  H 3.847271 -0.307192 1.974505
  H 1.753292 0.354569 3.154289
  H 1.900988 1.985521 2.482490
  H 3.951609 0.628806 4.293747
  H 2.819127 1.886747 4.772824
  H 4.098133 2.255202 3.622689
  H 2.431134 -0.681576 -1.515829
  H 5.103786 -0.090770 -0.144439
  H 5.118755 -2.272283 -3.578936
  H 4.955020 -0.656824 -4.180430
  H 2.536032 -0.649987 -3.583097
  H 2.704520 -2.309230 -2.950675
  H 3.266113 -1.433752 -5.818781
  H 1.846830 -2.314209 -5.264450
  H 3.431811 -3.075622 -5.197780
  H 6.778228 -0.331281 -1.346034
 32
 4.555248
  C 1.132070 0.598799 0.151589
  C 2.517704 0.160748 0.404724
  C 3.246598 0.417637 1.669693
  C 2.455802 1.081617 2.800656
  C 3.331779 1.260815 4.036391
  C 3.121604 -0.391660 -0.706525
  C 4.487741 -0.420338 -0.955259
  C 5.061911 -0.637001 -2.197133
  C 4.521371 -1.228297 -3.451261
  C 3.095810 -1.757336 -3.570189
  C 2.903359 -2.398814 -4.941443
  O 6.307479 -0.249654 -2.379787
  H 0.690217 1.181506 0.947291
  H 0.494608 -0.258272 -0.060217
  H 1.181465 1.184555 -0.788735
  H 4.128027 1.037548 1.450540
  H 3.647339 -0.538962 2.033871
  H 1.595761 0.468443 3.064991
  H 2.096108 2.058422 2.484098
  H 3.692374 0.302528 4.399895
  H 2.767287 1.731510 4.836090
  H 4.189770 1.889732 3.816835
  H 2.466682 -0.646027 -1.519091
  H 5.156067 -0.073091 -0.177177
  H 5.211754 -2.053200 -3.682984
  H 4.697256 -0.491865 -4.246328
  H 2.374365 -0.948636 -3.480672
  H 2.902459 -2.506468 -2.807466
  H 3.072403 -1.676910 -5.735366
  H 1.890636 -2.778921 -5.041124
  H 3.589656 -3.229017 -5.083726
  H 6.762756 0.108454 -1.593982
 32
 8.438501
  C 1.260856 0.912533 0.070934
  C 2.534650 0.244879 0.368096
  C 3.222754 0.340492 1.673652
  C 2.479789 1.062428 2.795645
  C 3.301592 1.042538 4.083381
  C 3.103079 -0.367657 -0.733103
  C 4.458260 -0.435879 -0.970840
  C 4.986787 -0.504885 -2.256637
  C 4.453601 -1.140736 -3.492904
  C 3.136724 -1.911228 -3.500582
  C 2.973801 -2.635709 -4.837402
  O 6.120720 0.096353 -2.495410
  H 0.899986 1.546318 0.869414
  H 0.491184 0.174796 -0.166249
  H 1.412904 1.500756 -0.843401
  H 4.191097 0.831141 1.531108
  H 3.461782 -0.676291 2.004862
  H 1.518682 0.576740 2.982084
  H 2.291290 2.102163 2.516541
  H 3.490647 0.020833 4.409079
  H 2.769496 1.556260 4.881439
  H 4.259163 1.541474 3.942651
  H 2.444875 -0.554959 -1.565049
  H 5.133706 -0.119762 -0.186854
  H 5.249409 -1.833356 -3.797891
  H 4.439434 -0.376391 -4.277070
  H 2.286385 -1.237525 -3.386896
  H 3.122312 -2.648501 -2.694952
  H 2.968094 -1.928304 -5.664104
  H 2.035981 -3.185930 -4.856916
  H 3.783028 -3.344900 -5.000468
  H 6.594264 0.454968 -1.719166
 32
 12.502567
  C 1.372690 1.140892 0.012408
  C 2.548219 0.310874 0.333877
  C 3.203128 0.281199 1.655683
  C 2.506286 1.037748 2.788777
  C 3.278003 0.865704 4.101703
  C 3.067949 -0.324597 -0.773464
  C 4.423120 -0.474157 -1.013668
  C 4.915073 -0.410700 -2.310673
  C 4.385948 -1.052948 -3.541937
  C 3.199660 -2.020065 -3.426615
  C 3.042700 -2.820022 -4.724215
  O 5.954857 0.335817 -2.532808
  H 1.076050 1.800696 0.813114
  H 0.514367 0.525002 -0.262098
  H 1.647940 1.712811 -0.883245
  H 4.224835 0.670767 1.564804
  H 3.320330 -0.769187 1.949698
  H 1.488474 0.659018 2.923996
  H 2.448358 2.104785 2.554515
  H 3.337323 -0.184320 4.383949
  H 2.781423 1.402346 4.907631
  H 4.290584 1.255170 4.012881
  H 2.411313 -0.412307 -1.617801
  H 5.109175 -0.229711 -0.218373
  H 5.243101 -1.612142 -3.945043
  H 4.187031 -0.280335 -4.294714
  H 2.264728 -1.480601 -3.255805
  H 3.361724 -2.713053 -2.595203
  H 2.867297 -2.156664 -5.569413
  H 2.198413 -3.502442 -4.648854
  H 3.934322 -3.410383 -4.932448
  H 6.401890 0.683505 -1.733925
 32
 16.783611
  C 1.525054 1.323200 -0.030581
  C 2.575003 0.353879 0.315984
  C 3.178499 0.216116 1.658349
  C 2.530002 1.013650 2.787674
  C 3.223478 0.720032 4.117984
  C 3.061505 -0.290019 -0.799874
  C 4.402451 -0.465814 -1.045476
  C 4.830702 -0.332157 -2.367733
  C 4.286581 -1.009504 -3.568481
  C 3.271591 -2.127491 -3.351125
  C 3.112187 -2.949798 -4.628834
  O 5.786033 0.510451 -2.613381
  H 1.278978 1.999820 0.771556
  H 0.609295 0.821296 -0.355923
  H 1.915137 1.874230 -0.908180
  H 4.238274 0.486962 1.612967
  H 3.165066 -0.846466 1.923319
  H 1.471928 0.749487 2.874006
  H 2.602106 2.086186 2.584920
  H 3.152861 -0.337708 4.368841
  H 2.758954 1.287833 4.921966
  H 4.277099 0.993983 4.077616
  H 2.406407 -0.309299 -1.657736
  H 5.110773 -0.254604 -0.255953
  H 5.165950 -1.435754 -4.065754
  H 3.909417 -0.267286 -4.277849
  H 2.292927 -1.727981 -3.084478
  H 3.607745 -2.779570 -2.543699
  H 2.766712 -2.326030 -5.449936
  H 2.385755 -3.744459 -4.479089
  H 4.055389 -3.407593 -4.920960
  H 6.229097 0.876454 -1.816345
 32
 21.062590
  C 1.700895 1.449489 -0.074745
  C 2.603535 0.358056 0.322539
  C 3.156755 0.170818 1.677535
  C 2.556894 1.034901 2.784825
  C 3.158738 0.664771 4.138968
  C 3.035878 -0.341168 -0.782280
  C 4.368416 -0.526400 -1.039110
  C 4.751049 -0.328691 -2.369688
  C 4.138835 -0.956022 -3.565463
  C 3.383335 -2.263013 -3.318640
  C 3.192285 -3.021429 -4.629526
  O 5.653953 0.567534 -2.616381
  H 1.521024 2.165339 0.715808
  H 0.740113 1.070458 -0.427085
  H 2.201257 1.942544 -0.948156
  H 4.239905 0.337655 1.658854
  H 3.036764 -0.885030 1.945070
  H 1.473477 0.890446 2.826658
  H 2.756222 2.092709 2.591191
  H 2.961781 -0.377567 4.380349
  H 2.728328 1.278687 4.926105
  H 4.235314 0.819768 4.142387
  H 2.374686 -0.336473 -1.636564
  H 5.089297 -0.331886 -0.257073
  H 4.968364 -1.149422 -4.254394
  H 3.507014 -0.232247 -4.089629
  H 2.400158 -2.076667 -2.883236
  H 3.948078 -2.885757 -2.621063
  H 2.630851 -2.424543 -5.343536
  H 2.645730 -3.944179 -4.456691
  H 4.150249 -3.276929 -5.076555
  H 6.101472 0.934331 -1.823978
 32
 26.054992
  C 1.851593 1.465387 -0.120389
  C 2.615113 0.298468 0.354126
  C 3.132065 0.124371 1.724260
  C 2.596832 1.087528 2.781951
  C 3.125442 0.712813 4.163677
  C 2.997592 -0.476747 -0.727283
  C 4.332746 -0.619147 -1.004678
  C 4.676248 -0.352754 -2.333441
  C 4.018893 -0.926198 -3.533317
  C 3.502391 -2.357085 -3.349627
  C 3.244797 -3.008923 -4.704802
  O 5.533906 0.595448 -2.564270
  H 1.708748 2.218253 0.645247
  H 0.877979 1.181573 -0.520148
  H 2.449697 1.881565 -0.973480
  H 4.226638 0.188679 1.719238
  H 2.913629 -0.904382 2.034637
  H 1.504998 1.053358 2.799182
  H 2.906276 2.110441 2.555464
  H 2.818299 -0.294104 4.437728
  H 2.740754 1.397133 4.915519
  H 4.211590 0.758887 4.191226
  H 2.318068 -0.499333 -1.568590
  H 5.057040 -0.407188 -0.229877
  H 4.761931 -0.906315 -4.336409
  H 3.212343 -0.269679 -3.872213
  H 2.575368 -2.369038 -2.774273
  H 4.242084 -2.944422 -2.802053
  H 2.511819 -2.441205 -5.274498
  H 2.863380 -4.019136 -4.573108
  H 4.161314 -3.068166 -5.289831
  H 5.999542 0.933634 -1.773739
 32
 31.725603
  C 1.976531 1.432704 -0.160391
  C 2.621759 0.225860 0.390608
  C 3.109368 0.075858 1.772025
  C 2.648314 1.131447 2.774220
  C 3.120706 0.776311 4.182565
  C 2.970870 -0.608267 -0.669736
  C 4.306573 -0.702321 -0.974246
  C 4.600479 -0.363128 -2.297522
  C 3.930704 -0.911183 -3.504818
  C 3.591891 -2.399561 -3.396418
  C 3.290793 -2.979864 -4.772793
  O 5.393546 0.649773 -2.503697
  H 1.860642 2.221059 0.577056
  H 1.004640 1.216934 -0.599762
  H 2.646679 1.768915 -0.994154
  H 4.206717 0.041020 1.779926
  H 2.798938 -0.914852 2.127358
  H 1.557167 1.196023 2.772288
  H 3.052797 2.110978 2.506208
  H 2.718755 -0.185008 4.497152
  H 2.788912 1.528244 4.895296
  H 4.206475 0.724884 4.228683
  H 2.271810 -0.661619 -1.494708
  H 5.034512 -0.472431 -0.209457
  H 4.606427 -0.745447 -4.349223
  H 3.026353 -0.336538 -3.733310
  H 2.726923 -2.554167 -2.751307
  H 4.434316 -2.934035 -2.956539
  H 2.455042 -2.460291 -5.237886
  H 3.032374 -4.034543 -4.691441
  H 4.155343 -2.893853 -5.429400
  H 5.879822 0.963364 -1.716844
 32
 38.212328
  C 2.071439 1.373126 -0.201503
  C 2.623857 0.147658 0.414260
  C 3.090018 0.024664 1.804399
  C 2.715339 1.163122 2.751453
  C 3.147926 0.838234 4.177425
  C 2.952053 -0.728870 -0.621804
  C 4.287188 -0.779117 -0.938963
  C 4.529087 -0.361011 -2.253498
  C 3.871875 -0.894210 -3.472704
  C 3.661963 -2.413241 -3.432953
  C 3.331713 -2.944622 -4.822955
  O 5.232710 0.726404 -2.415476
  H 1.970307 2.186169 0.510711
  H 1.105094 1.200487 -0.676556
  H 2.796449 1.653549 -1.021881
  H 4.177997 -0.108256 1.826087
  H 2.692241 -0.917098 2.202379
  H 1.635104 1.320283 2.737231
  H 3.202932 2.089266 2.440650
  H 2.662781 -0.067614 4.534149
  H 2.879602 1.649214 4.849401
  H 4.224271 0.695318 4.235577
  H 2.244195 -0.809689 -1.435317
  H 5.014706 -0.532117 -0.177619
  H 4.503450 -0.626223 -4.323459
  H 2.917757 -0.393341 -3.642902
  H 2.849806 -2.672215 -2.752430
  H 4.569189 -2.897708 -3.067341
  H 2.430685 -2.474458 -5.213642
  H 3.166072 -4.019217 -4.788412
  H 4.147899 -2.750925 -5.518051
  H 5.731424 1.022368 -1.628161
 32
 45.528451
  C 2.156949 1.321873 -0.236861
  C 2.632712 0.086824 0.429499
  C 3.083937 -0.016620 1.826525
  C 2.788804 1.182936 2.729079
  C 3.197423 0.885677 4.165428
  C 2.933643 -0.827410 -0.587275
  C 4.268503 -0.854155 -0.914801
  C 4.449868 -0.356105 -2.214589
  C 3.821722 -0.884592 -3.450115
  C 3.716618 -2.415127 -3.463127
  C 3.391883 -2.918940 -4.864478
  O 5.035383 0.810371 -2.318747
  H 2.083405 2.156007 0.452923
  H 1.191350 1.185550 -0.723208
  H 2.906872 1.552648 -1.056005
  H 4.156630 -0.232974 1.863167
  H 2.613760 -0.908415 2.255517
  H 1.722891 1.413313 2.706351
  H 3.339327 2.060491 2.383966
  H 2.650166 0.030085 4.556282
  H 2.986277 1.739784 4.804588
  H 4.262599 0.670243 4.231524
  H 2.216035 -0.925195 -1.391288
  H 4.995311 -0.596882 -0.157856
  H 4.427601 -0.542021 -4.293122
  H 2.832549 -0.444933 -3.599841
  H 2.938961 -2.751826 -2.775470
  H 4.663730 -2.849357 -3.133035
  H 2.450721 -2.500293 -5.218987
  H 3.302996 -4.003614 -4.866369
  H 4.175412 -2.643449 -5.568007
  H 5.545901 1.093410 -1.535459
 32
 54.143988
  C 2.234142 1.262648 -0.275033
  C 2.660722 0.031373 0.438090
  C 3.105170 -0.045938 1.840039
  C 2.858207 1.192560 2.700819
  C 3.252653 0.926303 4.147427
  C 2.941306 -0.915245 -0.558864
  C 4.274185 -0.922059 -0.896274
  C 4.382553 -0.352892 -2.179584
  C 3.787321 -0.876209 -3.429579
  C 3.751884 -2.408957 -3.486300
  C 3.448708 -2.888383 -4.901967
  O 4.821875 0.887129 -2.213453
  H 2.189032 2.116272 0.392721
  H 1.261507 1.146914 -0.753059
  H 2.988702 1.450362 -1.106996
  H 4.167387 -0.310641 1.891120
  H 2.591181 -0.899491 2.295798
  H 1.802235 1.464186 2.667424
  H 3.443856 2.036381 2.329119
  H 2.670873 0.107237 4.564602
  H 3.075766 1.808255 4.757409
  H 4.308466 0.669784 4.223338
  H 2.214634 -1.035816 -1.350950
  H 5.004832 -0.651977 -0.144615
  H 4.380732 -0.482549 -4.256664
  H 2.779122 -0.475354 -3.577929
  H 2.991556 -2.798415 -2.809930
  H 4.717382 -2.809272 -3.167414
  H 2.488261 -2.505234 -5.244341
  H 3.411138 -3.976233 -4.934716
  H 4.216612 -2.556698 -5.597290
  H 5.347766 1.161873 -1.437301
 32
 63.540248
  C 2.308188 1.174025 -0.323163
  C 2.713100 -0.038268 0.443462
  C 3.145383 -0.072897 1.849727
  C 2.911192 1.201118 2.660217
  C 3.291939 0.984844 4.118364
  C 2.993554 -1.022505 -0.529421
  C 4.326860 -0.985490 -0.881147
  C 4.364129 -0.359954 -2.146524
  C 3.765205 -0.858825 -3.402632
  C 3.787984 -2.385437 -3.513081
  C 3.463032 -2.826907 -4.932862
  O 4.668815 0.933036 -2.102864
  H 2.240979 2.043814 0.322202
  H 1.344876 1.040910 -0.824300
  H 3.085157 1.342766 -1.139114
  H 4.208774 -0.356391 1.922408
  H 2.608731 -0.899987 2.332980
  H 1.858944 1.485908 2.608416
  H 3.511578 2.023025 2.260797
  H 2.696944 0.191232 4.561433
  H 3.122959 1.893098 4.694032
  H 4.344320 0.716554 4.211597
  H 2.256405 -1.204487 -1.299985
  H 5.058310 -0.705254 -0.135447
  H 4.327919 -0.411147 -4.227542
  H 2.741356 -0.492943 -3.520507
  H 3.061865 -2.828203 -2.828309
  H 4.777443 -2.757658 -3.235465
  H 2.474858 -2.471837 -5.234466
  H 3.469062 -3.910852 -5.003239
  H 4.196098 -2.439185 -5.637591
  H 5.219809 1.197107 -1.339551
 32
 74.957128
  C 2.349321 1.159585 -0.326575
  C 2.736991 -0.056348 0.450027
  C 3.179037 -0.089531 1.854685
  C 2.983662 1.199000 2.654037
  C 3.371981 0.988584 4.110686
  C 2.995655 -1.051610 -0.522609
  C 4.320948 -0.980331 -0.886271
  C 4.307853 -0.344143 -2.159388
  C 3.740701 -0.860959 -3.420739
  C 3.834313 -2.385140 -3.541226
  C 3.538208 -2.832483 -4.965951
  O 4.477061 0.984968 -2.063734
  H 2.304855 2.033164 0.315882
  H 1.379254 1.038500 -0.812186
  H 3.132996 1.310635 -1.169440
  H 4.235614 -0.400813 1.924552
  H 2.624356 -0.892486 2.347180
  H 1.938831 1.508741 2.608563
  H 3.600404 2.002101 2.240605
  H 2.758512 0.210148 4.569703
  H 3.230707 1.905164 4.677234
  H 4.416243 0.696099 4.197193
  H 2.246065 -1.263747 -1.271549
  H 5.060979 -0.684713 -0.151290
  H 4.289224 -0.383907 -4.237765
  H 2.702352 -0.539422 -3.547752
  H 3.123941 -2.866090 -2.862550
  H 4.836497 -2.712908 -3.260216
  H 2.545328 -2.525400 -5.267661
  H 3.596006 -3.921247 -5.044232
  H 4.257100 -2.404645 -5.665879
  H 5.100673 1.258469 -1.361420
