 26
 0.000000
  C 0.983501 0.148471 0.420673
  C 2.457621 0.137830 0.393569
  C 3.233656 0.605446 1.557129
  H 2.637918 0.941935 2.395119
  C 3.069802 -0.326955 -0.763928
  C 4.444871 -0.413034 -0.978406
  C 5.119416 -0.865996 -2.107392
  C 4.618606 -1.387912 -3.408265
  C 3.128029 -1.505662 -3.702531
  C 2.913733 -2.068478 -5.105288
  O 6.440149 -0.862925 -2.099936
  H 0.578352 0.523899 1.355266
  H 0.599500 -0.859564 0.258341
  H 0.599130 0.763883 -0.393877
  H 3.887068 1.424055 1.247291
  H 3.887468 -0.199685 1.899647
  H 2.411617 -0.644458 -1.554451
  H 5.071552 -0.083567 -0.157804
  H 5.076154 -2.375909 -3.534300
  H 5.076580 -0.761319 -4.182277
  H 2.652185 -0.525743 -3.651548
  H 2.651827 -2.178378 -2.988428
  H 3.356089 -1.420415 -5.858246
  H 1.850740 -2.152980 -5.316474
  H 3.355784 -3.057426 -5.201398
  H 6.828309 -0.530018 -1.268995
 26
 12.143022
  C 1.079588 0.070953 0.233792
  C 2.543059 0.108480 0.319972
  C 3.187359 0.602758 1.544854
  H 2.459802 0.900795 2.289350
  C 3.289475 -0.334189 -0.781767
  C 4.644853 -0.351219 -0.827232
  C 5.067385 -0.824216 -2.000825
  C 4.467044 -1.335103 -3.273849
  C 2.984758 -1.469818 -3.616111
  C 2.854982 -2.036876 -5.030491
  O 6.409264 -0.904401 -2.196314
  H 0.600606 0.433033 1.135335
  H 0.741404 -0.944564 0.033622
  H 0.738094 0.663018 -0.613860
  H 3.827079 1.454245 1.322042
  H 3.830584 -0.163242 1.973047
  H 2.696226 -0.677130 -1.632157
  H 5.297253 -0.029230 -0.029953
  H 4.928335 -2.323383 -3.406723
  H 4.930982 -0.714969 -4.052960
  H 2.486124 -0.499638 -3.602738
  H 2.483020 -2.160166 -2.936498
  H 3.324660 -1.380326 -5.759199
  H 1.807037 -2.142279 -5.298248
  H 3.321523 -3.016314 -5.103046
  H 6.930802 -0.599432 -1.432384
 26
 41.172421
  C 1.156916 -0.003068 0.049854
  C 2.598807 0.082082 0.254291
  C 3.121107 0.593268 1.520705
  H 2.326465 0.867108 2.205263
  C 3.464783 -0.336792 -0.788285
  C 4.825461 -0.303298 -0.709894
  C 5.022591 -0.793231 -1.923135
  C 4.368218 -1.294600 -3.171647
  C 2.895716 -1.431939 -3.522411
  C 2.787881 -1.999924 -4.938997
  O 6.392956 -0.942276 -2.288927
  H 0.595530 0.342112 0.908976
  H 0.869591 -1.028702 -0.176842
  H 0.866090 0.577286 -0.824345
  H 3.751853 1.462855 1.347113
  H 3.755723 -0.151150 1.997193
  H 2.945537 -0.680542 -1.639644
  H 5.491742 0.003384 0.049937
  H 4.822598 -2.278170 -3.305982
  H 4.826133 -0.679758 -3.948985
  H 2.389414 -0.470137 -3.520269
  H 2.385198 -2.123606 -2.857161
  H 3.264487 -1.340465 -5.661813
  H 1.744805 -2.109837 -5.219603
  H 3.260441 -2.978332 -5.005030
  H 6.987256 -0.661177 -1.587744
 26
 78.057536
  C 1.181747 -0.044421 -0.050061
  C 2.629275 0.060564 0.202644
  C 3.114101 0.581589 1.492904
  H 2.302975 0.847225 2.157194
  C 3.534506 -0.347439 -0.815083
  C 4.897692 -0.274237 -0.646326
  C 4.955758 -0.766272 -1.857639
  C 4.340201 -1.278217 -3.129309
  C 2.851352 -1.413245 -3.479162
  C 2.741569 -1.979911 -4.889678
  O 6.425948 -0.953031 -2.312682
  H 0.589303 0.292760 0.788675
  H 0.912332 -1.071688 -0.283374
  H 0.908862 0.532253 -0.930629
  H 3.741299 1.456398 1.337254
  H 3.745708 -0.153873 1.986278
  H 2.988587 -0.689212 -1.660898
  H 5.570749 0.034853 0.114955
  H 4.803345 -2.265468 -3.259887
  H 4.809273 -0.661578 -3.907746
  H 2.340973 -0.440721 -3.478730
  H 2.334251 -2.111490 -2.807398
  H 3.218423 -1.322702 -5.612939
  H 1.695237 -2.087765 -5.168534
  H 3.211613 -2.957994 -4.955322
  H 7.041532 -0.676067 -1.619789
 26
 112.876658
  C 1.177047 -0.043935 -0.048306
  C 2.627116 0.058925 0.200687
  C 3.116770 0.576030 1.486191
  H 2.307311 0.841533 2.152440
  C 3.528624 -0.349526 -0.823665
  C 4.916969 -0.254697 -0.611948
  C 4.841180 -0.748742 -1.820696
  C 4.322006 -1.271994 -3.113838
  C 2.845656 -1.411597 -3.480040
  C 2.742386 -1.991388 -4.914946
  O 6.485924 -0.969839 -2.352791
  H 0.591367 0.293632 0.794313
  H 0.899532 -1.076664 -0.281565
  H 0.896061 0.539128 -0.930825
  H 3.748665 1.455558 1.330526
  H 3.752390 -0.164249 1.980261
  H 2.933130 -0.681188 -1.650739
  H 5.600382 0.050122 0.137206
  H 4.803758 -2.248993 -3.226261
  H 4.813000 -0.656241 -3.874311
  H 2.340246 -0.445804 -3.484482
  H 2.330430 -2.104150 -2.814201
  H 3.222551 -1.337872 -5.636660
  H 1.701213 -2.101176 -5.201711
  H 3.212841 -2.967857 -4.977424
  H 7.088843 -0.692130 -1.656618
 26
 136.405668
  C 1.136967 -0.054939 -0.001347
  C 2.600587 0.054007 0.213283
  C 3.123439 0.601175 1.486935
  H 2.323036 0.875675 2.162567
  C 3.461691 -0.363982 -0.806594
  C 4.903217 -0.227105 -0.613191
  C 4.709784 -0.768244 -1.785083
  C 4.303614 -1.282863 -3.106237
  C 2.839462 -1.419855 -3.527153
  C 2.773996 -1.976971 -4.945982
  O 6.641112 -1.043433 -2.413334
  H 0.578194 0.299064 0.852554
  H 0.852497 -1.087113 -0.203266
  H 0.830009 0.511260 -0.880244
  H 3.744890 1.478748 1.306026
  H 3.768319 -0.124813 1.983356
  H 2.822728 -0.712948 -1.621257
  H 5.599165 0.104073 0.097921
  H 4.795360 -2.256481 -3.196339
  H 4.825878 -0.651186 -3.831290
  H 2.344260 -0.447816 -3.520817
  H 2.312591 -2.110980 -2.867269
  H 3.275513 -1.317514 -5.644664
  H 1.742398 -2.080645 -5.259532
  H 3.244063 -2.951810 -5.001296
  H 7.257037 -0.763160 -1.732026
 26
 137.373869
  C 1.073129 0.162108 0.042651
  C 2.550285 0.161242 0.208412
  C 3.144202 0.719544 1.445392
  H 2.382435 1.094445 2.120425
  C 3.327178 -0.361027 -0.803225
  C 4.839333 -0.291769 -0.632025
  C 4.568654 -0.841742 -1.744660
  C 4.278218 -1.362376 -3.053682
  C 2.848340 -1.483448 -3.572030
  C 2.866150 -2.057641 -4.986247
  O 6.800653 -1.317673 -2.396542
  H 0.577546 0.604901 0.899418
  H 0.696713 -0.854644 -0.077562
  H 0.778618 0.707127 -0.853853
  H 3.826195 1.536202 1.208943
  H 3.727068 -0.037276 1.970948
  H 2.641574 -0.693191 -1.586758
  H 5.567884 0.032221 0.068672
  H 4.769659 -2.343335 -3.095296
  H 4.864557 -0.746739 -3.748153
  H 2.366695 -0.502904 -3.617031
  H 2.260826 -2.158257 -2.943926
  H 3.426767 -1.414814 -5.659918
  H 1.852646 -2.145455 -5.367903
  H 3.323907 -3.043454 -5.001636
  H 7.423010 -1.075007 -1.707978
 26
 137.758890
  C 1.015124 0.204119 0.121056
  C 2.503088 0.177932 0.242045
  C 3.142306 0.692217 1.478539
  H 2.402261 1.055677 2.187322
  C 3.242711 -0.327384 -0.808193
  C 4.806042 -0.289602 -0.648566
  C 4.438991 -0.778649 -1.758770
  C 4.262837 -1.327305 -3.062915
  C 2.852963 -1.501626 -3.621309
  C 2.916103 -2.096749 -5.022983
  O 6.984186 -1.319132 -2.524168
  H 0.555467 0.634294 1.007915
  H 0.616809 -0.801203 -0.013914
  H 0.701758 0.785001 -0.745378
  H 3.825862 1.506961 1.248156
  H 3.729653 -0.088796 1.964029
  H 2.529866 -0.627077 -1.591505
  H 5.547856 -0.000287 0.056794
  H 4.807166 -2.286009 -3.045793
  H 4.863637 -0.694723 -3.732958
  H 2.346251 -0.532047 -3.686667
  H 2.273523 -2.180599 -2.988487
  H 3.471560 -1.450134 -5.695248
  H 1.913594 -2.220487 -5.424153
  H 3.401091 -3.070714 -5.012012
  H 7.633191 -1.105568 -1.841244
 26
 137.168275
  C 0.981725 0.193569 0.168771
  C 2.471179 0.177061 0.257999
  C 3.130592 0.693656 1.481412
  H 2.401584 1.051247 2.204138
  C 3.181882 -0.326456 -0.798047
  C 4.783775 -0.265818 -0.641974
  C 4.356288 -0.763773 -1.728666
  C 4.242589 -1.301958 -3.050511
  C 2.842662 -1.495758 -3.635246
  C 2.934019 -2.085763 -5.040477
  O 7.203813 -1.361509 -2.614604
  H 0.538963 0.622051 1.065025
  H 0.587975 -0.815116 0.043397
  H 0.646264 0.771073 -0.691848
  H 3.805517 1.512400 1.239447
  H 3.731438 -0.085315 1.953041
  H 2.464965 -0.636558 -1.575564
  H 5.498533 0.048495 0.080086
  H 4.788158 -2.261300 -3.042445
  H 4.871635 -0.677596 -3.705358
  H 2.328534 -0.531670 -3.712653
  H 2.263707 -2.189457 -3.018284
  H 3.491747 -1.430014 -5.701994
  H 1.940017 -2.221439 -5.458322
  H 3.430368 -3.053821 -5.025343
  H 7.884428 -1.156875 -1.968074
 26
 138.898769
  C 0.957491 0.186111 0.191228
  C 2.442021 0.164463 0.265589
  C 3.113676 0.679909 1.483159
  H 2.394991 1.034109 2.212647
  C 3.133255 -0.329376 -0.797377
  C 4.774624 -0.254242 -0.636069
  C 4.294406 -0.738256 -1.700384
  C 4.217122 -1.268018 -3.031959
  C 2.829439 -1.488085 -3.630910
  C 2.948808 -2.077309 -5.037106
  O 7.397516 -1.379392 -2.716421
  H 0.527012 0.611171 1.089349
  H 0.559715 -0.821068 0.066300
  H 0.615757 0.768143 -0.664188
  H 3.786418 1.501619 1.234800
  H 3.719808 -0.099246 1.945151
  H 2.415047 -0.635154 -1.574250
  H 5.466905 0.066155 0.097896
  H 4.771012 -2.218398 -3.019842
  H 4.849793 -0.642559 -3.673933
  H 2.301617 -0.535793 -3.715709
  H 2.261876 -2.194034 -3.020873
  H 3.502321 -1.409227 -5.693872
  H 1.962156 -2.232907 -5.466683
  H 3.463666 -3.034579 -5.016222
  H 8.103748 -1.191582 -2.095422
 26
 142.091470
  C 0.935138 0.161964 0.181495
  C 2.421548 0.144146 0.261079
  C 3.086566 0.665361 1.479961
  H 2.363285 1.015006 2.208846
  C 3.118552 -0.340902 -0.804750
  C 4.801747 -0.242282 -0.625357
  C 4.268722 -0.717322 -1.671817
  C 4.201918 -1.242709 -3.006945
  C 2.813421 -1.469143 -3.606474
  C 2.934068 -2.057930 -5.013486
  O 7.570443 -1.382135 -2.805006
  H 0.499209 0.586238 1.080162
  H 0.540009 -0.846810 0.054223
  H 0.594871 0.744208 -0.675099
  H 3.753132 1.491614 1.232181
  H 3.697727 -0.109345 1.943322
  H 2.407219 -0.646120 -1.588763
  H 5.492006 0.079979 0.113833
  H 4.759454 -2.191608 -2.993479
  H 4.835077 -0.613123 -3.648131
  H 2.281405 -0.519191 -3.690648
  H 2.249809 -2.178146 -2.995514
  H 3.483846 -1.388038 -5.669943
  H 1.948250 -2.217482 -5.442350
  H 3.452892 -3.012929 -4.993235
  H 8.291765 -1.199417 -2.201142
 26
 142.893880
  C 0.888767 0.163542 0.238925
  C 2.376328 0.145894 0.281765
  C 3.068130 0.658496 1.486628
  H 2.364470 1.004409 2.236347
  C 3.048404 -0.344011 -0.807069
  C 4.793281 -0.235237 -0.623246
  C 4.210973 -0.698762 -1.648960
  C 4.174746 -1.231424 -2.996316
  C 2.807054 -1.465813 -3.620358
  C 2.966996 -2.050644 -5.019157
  O 7.770091 -1.393907 -2.914201
  H 0.474506 0.585053 1.148367
  H 0.491239 -0.844154 0.118409
  H 0.528226 0.746813 -0.607269
  H 3.729306 1.484745 1.225570
  H 3.690859 -0.120007 1.928330
  H 2.321241 -0.648781 -1.583533
  H 5.465259 0.092086 0.127360
  H 4.740008 -2.173431 -2.977747
  H 4.809033 -0.600649 -3.624688
  H 2.271485 -0.519299 -3.719781
  H 2.240183 -2.182903 -3.025341
  H 3.526522 -1.375176 -5.660825
  H 1.993900 -2.218471 -5.471835
  H 3.494189 -3.000740 -4.986117
  H 8.504006 -1.213026 -2.336135
 26
 143.189043
  C 0.847663 0.154579 0.278590
  C 2.335648 0.130847 0.291455
  C 3.054896 0.654950 1.477561
  H 2.370817 1.008746 2.240881
  C 2.978754 -0.363926 -0.809911
  C 4.792325 -0.240272 -0.614622
  C 4.162359 -0.694321 -1.615700
  C 4.153935 -1.229856 -2.973286
  C 2.798629 -1.465991 -3.615733
  C 2.977066 -2.028837 -5.022402
  O 7.972248 -1.391697 -2.998333
  H 0.453948 0.583681 1.191668
  H 0.443813 -0.852026 0.172765
  H 0.472678 0.733334 -0.564752
  H 3.711439 1.478494 1.191749
  H 3.687129 -0.120780 1.910487
  H 2.240074 -0.673261 -1.578249
  H 5.448956 0.096995 0.141862
  H 4.733711 -2.157153 -2.958431
  H 4.774596 -0.571773 -3.587552
  H 2.255891 -0.524329 -3.705024
  H 2.229718 -2.195662 -3.037417
  H 3.537860 -1.339187 -5.648776
  H 2.010167 -2.197779 -5.487308
  H 3.511516 -2.974617 -4.998303
  H 8.716965 -1.207185 -2.430906
