 25
 0.000000
  C 0.998872 0.155046 0.417310
  C 2.470880 0.143410 0.396412
  C 3.240846 0.605498 1.561729
  H 2.628295 0.936952 2.390161
  C 3.080013 -0.320955 -0.764588
  C 4.460632 -0.409767 -0.982761
  C 5.102333 -0.863691 -2.110672
  C 4.602540 -1.382364 -3.395349
  C 3.116312 -1.509422 -3.701966
  C 2.910896 -2.076134 -5.105229
  H 6.183759 -0.855871 -2.104535
  H 0.589220 0.524418 1.352229
  H 0.615143 -0.851339 0.242603
  H 0.620158 0.773202 -0.398655
  H 3.898807 1.424644 1.263525
  H 3.894658 -0.197253 1.909458
  H 2.415808 -0.634810 -1.552353
  H 5.098856 -0.084016 -0.171215
  H 5.068345 -2.369008 -3.524339
  H 5.064811 -0.759237 -4.173251
  H 2.635271 -0.531277 -3.655618
  H 2.638905 -2.183143 -2.988827
  H 3.353933 -1.427769 -5.857763
  H 1.849570 -2.166239 -5.322769
  H 3.357588 -3.063503 -5.197725
 25
 0.367621
  C 1.027621 0.437647 0.379958
  C 2.465040 0.127470 0.407794
  C 3.239319 0.371504 1.631712
  H 2.615860 0.757280 2.432500
  C 3.042377 -0.351972 -0.765246
  C 4.422492 -0.435375 -0.991943
  C 5.057691 -0.724339 -2.176029
  C 4.571962 -1.205187 -3.475268
  C 3.128314 -1.647578 -3.676254
  C 2.953926 -2.285585 -5.050183
  H 6.131700 -0.573096 -2.172848
  H 0.635780 0.710170 1.356925
  H 0.451576 -0.391981 -0.034766
  H 0.873914 1.276632 -0.311068
  H 4.047634 1.077124 1.445144
  H 3.716531 -0.548856 1.966258
  H 2.370155 -0.593855 -1.570016
  H 5.067570 -0.151420 -0.173660
  H 5.237961 -2.032646 -3.761224
  H 4.817142 -0.427398 -4.214496
  H 2.456745 -0.790925 -3.614681
  H 2.851335 -2.375963 -2.912850
  H 3.207256 -1.586056 -5.838904
  H 1.925881 -2.595528 -5.195047
  H 3.584401 -3.161226 -5.156240
 25
 3.904073
  C 1.119773 0.590102 0.257656
  C 2.484981 0.069745 0.431830
  C 3.203090 0.298567 1.692610
  H 2.610131 0.873104 2.397172
  C 3.067494 -0.537193 -0.679385
  C 4.437851 -0.502244 -0.963077
  C 5.006231 -0.617562 -2.207694
  C 4.502482 -1.105472 -3.497465
  C 3.135787 -1.765344 -3.623019
  C 2.944161 -2.327108 -5.029784
  H 6.038821 -0.293370 -2.273166
  H 0.687909 0.966135 1.178944
  H 0.458045 -0.143951 -0.199512
  H 1.199289 1.413393 -0.459337
  H 4.154400 0.803634 1.527815
  H 3.456669 -0.661920 2.145841
  H 2.395825 -0.892174 -1.443529
  H 5.092701 -0.159499 -0.173757
  H 5.264356 -1.811154 -3.858095
  H 4.571048 -0.275955 -4.214199
  H 2.343687 -1.036757 -3.443117
  H 3.045333 -2.579780 -2.902321
  H 3.002720 -1.537926 -5.775691
  H 1.970827 -2.802827 -5.118599
  H 3.702742 -3.071736 -5.260404
 25
 9.525601
  C 1.237675 0.656615 0.093029
  C 2.517966 0.019968 0.439421
  C 3.172105 0.305954 1.721155
  H 2.600123 1.003846 2.323733
  C 3.118041 -0.713478 -0.586898
  C 4.472164 -0.576687 -0.921501
  C 4.952018 -0.552590 -2.203919
  C 4.433666 -1.057355 -3.485228
  C 3.125786 -1.832056 -3.566415
  C 2.887087 -2.321254 -4.991110
  H 5.932351 -0.106120 -2.320075
  H 0.776634 1.174974 0.928144
  H 0.533387 -0.044461 -0.356573
  H 1.493115 1.380193 -0.687209
  H 4.183231 0.694274 1.579273
  H 3.298661 -0.623839 2.276047
  H 2.457318 -1.159584 -1.314877
  H 5.128354 -0.189765 -0.154455
  H 5.239251 -1.697962 -3.881073
  H 4.400090 -0.220375 -4.188960
  H 2.286585 -1.190356 -3.287335
  H 3.158851 -2.693243 -2.899168
  H 2.837973 -1.484560 -5.687311
  H 1.950394 -2.866122 -5.052329
  H 3.683842 -2.987951 -5.314350
 25
 15.182049
  C 1.364268 0.736396 -0.059644
  C 2.543392 0.000439 0.432967
  C 3.137894 0.313555 1.737091
  H 2.651299 1.154347 2.218724
  C 3.156350 -0.811698 -0.527579
  C 4.503835 -0.636704 -0.893133
  C 4.904771 -0.522480 -2.193473
  C 4.360075 -1.010273 -3.470157
  C 3.124784 -1.902988 -3.517390
  C 2.828656 -2.323699 -4.956094
  H 5.861618 -0.034669 -2.333262
  H 0.920317 1.378123 0.692781
  H 0.611359 0.082466 -0.492960
  H 1.757911 1.345446 -0.883177
  H 4.210093 0.493563 1.665649
  H 3.041028 -0.561949 2.383007
  H 2.507371 -1.342804 -1.207688
  H 5.161985 -0.217227 -0.141338
  H 5.195910 -1.554909 -3.935425
  H 4.206203 -0.148936 -4.127849
  H 2.249443 -1.365026 -3.139688
  H 3.286468 -2.798827 -2.914937
  H 2.629194 -1.460320 -5.578730
  H 1.955540 -2.975226 -4.990536
  H 3.666600 -2.865025 -5.384347
 25
 22.967190
  C 1.543283 0.719549 -0.272009
  C 2.600743 -0.049723 0.411635
  C 3.076017 0.311265 1.746240
  H 2.516864 1.137315 2.177069
  C 3.256150 -0.955087 -0.439612
  C 4.574438 -0.669055 -0.863028
  C 4.863717 -0.461568 -2.178910
  C 4.283431 -0.958150 -3.445108
  C 3.041800 -1.836496 -3.454826
  C 2.734120 -2.300329 -4.874648
  H 5.774799 0.093422 -2.364254
  H 1.039164 1.422462 0.377746
  H 0.823850 0.089082 -0.790293
  H 2.104137 1.256369 -1.048054
  H 4.140994 0.534137 1.749150
  H 2.971322 -0.558176 2.395579
  H 2.634059 -1.548948 -1.090551
  H 5.257822 -0.268999 -0.123821
  H 5.104218 -1.527321 -3.918851
  H 4.124789 -0.100844 -4.107756
  H 2.175355 -1.277884 -3.091219
  H 3.199901 -2.714043 -2.826610
  H 2.554597 -1.452898 -5.526890
  H 1.845692 -2.930528 -4.884765
  H 3.558355 -2.876967 -5.285544
 25
 31.700854
  C 1.687235 0.701898 -0.455920
  C 2.621061 -0.081744 0.386184
  C 3.028670 0.361293 1.716621
  H 2.565287 1.300780 2.001124
  C 3.295862 -1.071603 -0.368601
  C 4.614431 -0.757292 -0.815974
  C 4.803345 -0.428053 -2.123561
  C 4.232599 -0.925855 -3.394548
  C 3.061054 -1.903300 -3.401230
  C 2.621854 -2.197927 -4.831559
  H 5.692904 0.160663 -2.312879
  H 1.158800 1.480983 0.079756
  H 1.000855 0.086612 -1.031679
  H 2.385593 1.136024 -1.187847
  H 4.114700 0.430530 1.804092
  H 2.741570 -0.403833 2.436939
  H 2.701371 -1.742366 -0.960984
  H 5.282870 -0.310131 -0.085305
  H 5.081317 -1.410849 -3.898039
  H 3.982054 -0.064487 -4.023168
  H 2.211190 -1.482720 -2.871829
  H 3.354315 -2.841363 -2.927360
  H 2.335614 -1.281522 -5.347366
  H 1.770499 -2.867920 -4.836700
  H 3.425792 -2.671349 -5.396933
 25
 42.910408
  C 1.949347 0.791488 -0.580532
  C 2.684957 -0.065699 0.362977
  C 2.933422 0.296009 1.749166
  H 2.502056 1.257039 2.013449
  C 3.331757 -1.124758 -0.322552
  C 4.624024 -0.776220 -0.821229
  C 4.683241 -0.333488 -2.101789
  C 4.084670 -0.812314 -3.376966
  C 3.023297 -1.910517 -3.367355
  C 2.607428 -2.261365 -4.796363
  H 5.569479 0.260205 -2.313758
  H 1.520218 1.682539 -0.139971
  H 1.226773 0.265057 -1.202499
  H 2.768896 1.027339 -1.301087
  H 4.001226 0.276508 1.978450
  H 2.497542 -0.473748 2.391422
  H 2.705281 -1.738159 -0.957816
  H 5.352032 -0.403350 -0.107821
  H 4.939331 -1.177204 -3.959827
  H 3.696964 0.048736 -3.927669
  H 2.131695 -1.582647 -2.832061
  H 3.420197 -2.806572 -2.890599
  H 2.196905 -1.391835 -5.305161
  H 1.850928 -3.040703 -4.792191
  H 3.457495 -2.622028 -5.371823
 25
 58.127371
  C 2.111513 0.762256 -0.672068
  C 2.675255 -0.090740 0.340810
  C 2.920447 0.311221 1.717532
  H 2.519128 1.296207 1.936638
  C 3.307176 -1.214769 -0.280455
  C 4.592180 -0.854762 -0.805446
  C 4.544277 -0.252913 -2.028650
  C 3.959306 -0.701777 -3.335424
  C 2.983610 -1.875249 -3.344548
  C 2.609618 -2.245947 -4.774948
  H 5.421179 0.362444 -2.220583
  H 1.755581 1.727017 -0.344438
  H 1.467726 0.302652 -1.424121
  H 3.055467 0.815335 -1.371453
  H 3.989695 0.272498 1.941842
  H 2.458769 -0.412683 2.389370
  H 2.673123 -1.865567 -0.869586
  H 5.349364 -0.528520 -0.096503
  H 4.824869 -0.983111 -3.949177
  H 3.496305 0.149773 -3.835218
  H 2.063643 -1.621012 -2.817236
  H 3.443519 -2.742435 -2.867943
  H 2.185322 -1.391081 -5.298834
  H 1.876192 -3.045431 -4.781769
  H 3.482205 -2.585349 -5.329072
 25
 73.369722
  C 2.150520 0.716615 -0.684204
  C 2.650035 -0.093719 0.335221
  C 2.891954 0.308739 1.717654
  H 2.470345 1.288438 1.930304
  C 3.319255 -1.238967 -0.272526
  C 4.578822 -0.852843 -0.807591
  C 4.485349 -0.170491 -2.013896
  C 3.926455 -0.647419 -3.339042
  C 2.946995 -1.814332 -3.330192
  C 2.591763 -2.225692 -4.757282
  H 5.361291 0.448988 -2.194796
  H 1.809673 1.704547 -0.418928
  H 1.639436 0.289734 -1.538053
  H 3.336366 0.668060 -1.491606
  H 3.959030 0.293771 1.935521
  H 2.433877 -0.419526 2.391883
  H 2.687850 -1.912965 -0.836344
  H 5.364151 -0.569384 -0.116584
  H 4.799750 -0.957893 -3.923871
  H 3.482213 0.195039 -3.871740
  H 2.016280 -1.540676 -2.825970
  H 3.394847 -2.668815 -2.821299
  H 2.164753 -1.389110 -5.306989
  H 1.863089 -3.037234 -4.752672
  H 3.471956 -2.567820 -5.290118
 25
 67.735274
  C 2.090790 0.747977 -0.590666
  C 2.617162 -0.045046 0.360895
  C 2.857868 0.286265 1.782165
  H 2.444153 1.258206 2.032010
  C 3.294489 -1.170365 -0.296505
  C 4.529337 -0.814642 -0.825990
  C 4.496802 -0.099325 -2.087008
  C 3.945307 -0.632755 -3.410337
  C 2.977167 -1.804719 -3.356292
  C 2.596814 -2.250036 -4.764816
  H 5.408812 0.469495 -2.264072
  H 1.756837 1.729349 -0.297716
  H 1.618325 0.369627 -1.480331
  H 3.646277 0.626223 -1.700146
  H 3.921736 0.256096 2.015849
  H 2.378704 -0.464650 2.407502
  H 2.640856 -1.845332 -0.846572
  H 5.339405 -0.568936 -0.136970
  H 4.818057 -0.954873 -3.991102
  H 3.491838 0.186432 -3.962170
  H 2.053215 -1.526000 -2.839042
  H 3.442468 -2.644134 -2.838090
  H 2.166709 -1.425483 -5.330406
  H 1.864885 -3.051732 -4.725689
  H 3.468831 -2.613786 -5.303774
 25
 56.470965
  C 1.880240 0.796885 -0.393513
  C 2.538508 -0.024287 0.434160
  C 2.915233 0.238694 1.843678
  H 2.439879 1.143465 2.206532
  C 3.208953 -1.060262 -0.364583
  C 4.456341 -0.727334 -0.881940
  C 4.516870 -0.033958 -2.174745
  C 4.026079 -0.658286 -3.493611
  C 2.986249 -1.768122 -3.407926
  C 2.665877 -2.309538 -4.798540
  H 5.489638 0.421894 -2.330655
  H 1.524006 1.741537 -0.019731
  H 1.454946 0.485183 -1.331996
  H 3.769543 0.747511 -1.869686
  H 3.991982 0.314557 1.969465
  H 2.579421 -0.597430 2.453035
  H 2.539634 -1.707595 -0.924290
  H 5.268256 -0.532447 -0.193416
  H 4.907287 -1.084429 -3.978750
  H 3.664496 0.141714 -4.141151
  H 2.048230 -1.394768 -2.981246
  H 3.367677 -2.580778 -2.791736
  H 2.329330 -1.513923 -5.456648
  H 1.878409 -3.058111 -4.743684
  H 3.542224 -2.771512 -5.242987
 25
 48.120484
  C 1.683075 0.682953 -0.293361
  C 2.520252 -0.048587 0.464792
  C 2.970940 0.266344 1.842302
  H 2.460740 1.146790 2.220471
  C 3.208884 -1.015332 -0.387420
  C 4.452772 -0.663772 -0.883358
  C 4.582959 -0.036129 -2.207295
  C 4.116230 -0.702890 -3.510185
  C 2.973093 -1.705675 -3.440241
  C 2.671774 -2.271467 -4.827064
  H 5.581048 0.372104 -2.354690
  H 1.217122 1.571876 0.093973
  H 1.326217 0.346815 -1.250828
  H 3.897228 0.806414 -1.966992
  H 4.044727 0.421426 1.893844
  H 2.734365 -0.578997 2.486378
  H 2.559128 -1.667384 -0.960074
  H 5.243824 -0.429616 -0.177548
  H 4.985171 -1.224960 -3.918679
  H 3.856525 0.087388 -4.214507
  H 2.064427 -1.223212 -3.071726
  H 3.240630 -2.535034 -2.784610
  H 2.471935 -1.472003 -5.537498
  H 1.800695 -2.919696 -4.792212
  H 3.511912 -2.854379 -5.197594
 25
 40.166193
  C 1.557920 0.856153 0.025151
  C 2.479523 0.030812 0.554151
  C 3.074092 0.156083 1.906981
  H 2.670415 1.021718 2.426943
  C 3.020985 -0.826207 -0.483040
  C 4.288749 -0.567435 -0.957645
  C 4.516503 0.016089 -2.286386
  C 4.139554 -0.710855 -3.594445
  C 3.012667 -1.734598 -3.556230
  C 2.888809 -2.451028 -4.901445
  H 5.537896 0.373268 -2.388256
  H 1.201044 1.718075 0.558873
  H 1.095655 0.665640 -0.927222
  H 3.862964 0.903955 -2.159851
  H 4.156209 0.237932 1.874322
  H 2.831193 -0.741543 2.472444
  H 2.292424 -1.289218 -1.133058
  H 5.106515 -0.480599 -0.246605
  H 5.041940 -1.229308 -3.927656
  H 3.909495 0.046590 -4.342083
  H 2.058546 -1.240606 -3.353960
  H 3.209288 -2.484452 -2.789736
  H 2.776773 -1.737657 -5.715187
  H 2.019265 -3.103207 -4.895010
  H 3.769788 -3.059666 -5.099728
 25
 37.475881
  C 1.477161 0.775699 0.124752
  C 2.465336 -0.010019 0.596092
  C 3.097027 0.149067 1.930114
  H 2.554541 0.889353 2.520926
  C 3.056738 -0.794144 -0.471439
  C 4.303269 -0.455789 -0.956611
  C 4.534032 0.020321 -2.338608
  C 4.236718 -0.848722 -3.572130
  C 2.964818 -1.675633 -3.611904
  C 2.852342 -2.415755 -4.942416
  H 5.543508 0.409255 -2.442497
  H 1.100653 1.597651 0.695885
  H 1.023712 0.602285 -0.838253
  H 3.839448 0.870615 -2.308751
  H 4.135792 0.453838 1.861153
  H 3.074921 -0.799049 2.447967
  H 2.350575 -1.286894 -1.116987
  H 5.060822 -0.148287 -0.238748
  H 5.080685 -1.534452 -3.681785
  H 4.247236 -0.177169 -4.431757
  H 2.085915 -1.027228 -3.515506
  H 2.967478 -2.414857 -2.814255
  H 2.862292 -1.715652 -5.779292
  H 1.923825 -2.982580 -4.984347
  H 3.679367 -3.111915 -5.070282
