 20
 0.000000
  C 0.996384 0.132972 0.381868
  C 2.475139 0.140018 0.399085
  H 3.027530 0.481638 1.249414
  C 3.096863 -0.322475 -0.752613
  C 4.472906 -0.413204 -0.978851
  C 5.132414 -0.867699 -2.111643
  C 4.618673 -1.388937 -3.410716
  C 3.124514 -1.501358 -3.691727
  H 2.956077 -1.894820 -4.672399
  O 6.457488 -0.870547 -2.119086
  H 0.547238 0.500715 1.297563
  H 0.632250 -0.881396 0.212641
  H 0.631990 0.748397 -0.441931
  H 2.436796 -0.639606 -1.542199
  H 5.100515 -0.083792 -0.158214
  H 5.068655 -2.379864 -3.541239
  H 5.069011 -0.763340 -4.190016
  H 2.653353 -0.519100 -3.634327
  H 2.652914 -2.171265 -2.971344
  H 6.834017 -0.535875 -1.285013
 20
 0.000000
  C 1.054501 0.113900 0.334336
  C 2.563380 0.121772 0.353625
  H 3.114645 0.463642 1.204585
  C 3.149399 -0.327167 -0.764314
  C 4.459583 -0.415671 -0.984997
  C 5.086721 -0.855525 -2.081307
  C 4.588796 -1.378887 -3.385676
  C 3.098143 -1.497580 -3.682304
  H 2.941632 -1.891723 -4.664678
  O 6.348896 -0.844177 -2.053368
  H 0.604143 0.481439 1.249518
  H 0.691020 -0.900633 0.164693
  H 0.690769 0.729160 -0.489878
  H 2.482607 -0.642335 -1.549021
  H 5.092271 -0.087610 -0.167726
  H 5.044280 -2.367911 -3.511464
  H 5.044631 -0.751385 -4.160234
  H 2.622282 -0.517312 -3.629857
  H 2.621850 -2.169481 -2.966882
  H 6.685177 -0.492053 -1.175797
 20
 0.000000
  C 1.109511 0.095219 0.287779
  C 2.651992 0.104232 0.309926
  H 3.201702 0.446447 1.161752
  C 3.204118 -0.331560 -0.775273
  C 4.448139 -0.418289 -0.991520
  C 5.043537 -0.844070 -2.052762
  C 4.560771 -1.369398 -3.362032
  C 3.073643 -1.494065 -3.673536
  H 2.928536 -1.888812 -4.657418
  O 6.242189 -0.820071 -1.993290
  H 0.657482 0.462474 1.202251
  H 0.746933 -0.919541 0.117564
  H 0.746692 0.710252 -0.537007
  H 2.530064 -0.644573 -1.554622
  H 5.086802 -0.091838 -0.178260
  H 5.021455 -2.356584 -3.483246
  H 5.021800 -0.740054 -4.132009
  H 2.593351 -0.515716 -3.625862
  H 2.592926 -2.167887 -2.962895
  H 6.534567 -0.448890 -1.068224
 20
 0.000000
  C 1.161104 0.076883 0.242083
  C 2.740949 0.087384 0.267950
  H 3.288665 0.430040 1.120883
  C 3.261022 -0.335707 -0.785616
  C 4.438905 -0.420982 -0.998230
  C 5.003195 -0.833316 -2.025965
  C 4.534650 -1.360426 -3.339679
  C 3.050972 -1.490666 -3.665056
  H 2.916541 -1.885935 -4.650245
  O 6.137959 -0.798302 -1.939038
  H 0.706937 0.443774 1.155641
  H 0.799686 -0.938167 0.071136
  H 0.799455 0.691627 -0.583433
  H 2.579238 -0.646383 -1.559158
  H 5.084430 -0.096408 -0.189646
  H 5.000147 -2.345875 -3.456572
  H 5.000486 -0.729342 -4.105328
  H 2.566589 -0.514126 -3.621883
  H 2.566171 -2.166301 -2.958924
  H 6.381935 -0.406714 -0.963110
 20
 0.000000
  C 1.208092 0.059028 0.197583
  C 2.830336 0.071428 0.228199
  H 3.375574 0.414629 1.082500
  C 3.320344 -0.339584 -0.795287
  C 4.432432 -0.423722 -1.005058
  C 4.966294 -0.823435 -2.001343
  C 4.510643 -1.352110 -3.318959
  C 3.030212 -1.487375 -3.656843
  H 2.905441 -1.883081 -4.643127
  O 6.037170 -0.779117 -1.891225
  H 0.751274 0.425463 1.110002
  H 0.848115 -0.956382 0.025733
  H 0.847896 0.673412 -0.628836
  H 2.630317 -0.647719 -1.562513
  H 5.085846 -0.101345 -0.201948
  H 4.980449 -2.335972 -3.431908
  H 4.980780 -0.719437 -4.080658
  H 2.542173 -0.512484 -3.617771
  H 2.541763 -2.164661 -2.954819
  H 6.227512 -0.365530 -0.860466
 20
 0.000000
  C 1.249082 0.041726 0.154460
  C 2.920825 0.056534 0.191094
  H 3.463042 0.400395 1.047051
  C 3.382744 -0.343175 -0.804246
  C 4.429407 -0.426495 -1.011969
  C 4.933386 -0.814591 -1.979305
  C 4.488864 -1.344577 -3.300193
  C 3.011328 -1.484160 -3.648821
  H 2.894881 -1.880217 -4.635983
  O 5.940383 -0.762705 -1.850322
  H 0.789044 0.407603 1.065484
  H 0.890865 -0.974121 -0.018485
  H 0.890658 0.655674 -0.673052
  H 2.683845 -0.648517 -1.564529
  H 5.091975 -0.106720 -0.215340
  H 4.962349 -2.327061 -3.409717
  H 4.962673 -0.710524 -4.058461
  H 2.520172 -0.510699 -3.613304
  H 2.519771 -2.162879 -2.950358
  H 6.070643 -0.325064 -0.759615
 20
 0.000000
  C 1.282316 0.025286 0.113484
  C 3.011244 0.043057 0.157523
  H 3.549919 0.387687 1.015405
  C 3.447491 -0.346432 -0.812371
  C 4.430449 -0.429218 -1.018755
  C 4.905507 -0.807024 -1.960452
  C 4.469778 -1.338021 -3.283862
  C 2.994587 -1.481004 -3.640944
  H 2.884708 -1.877320 -4.628756
  O 5.849879 -0.749414 -1.817195
  H 0.818515 0.390504 1.022864
  H 0.926163 -0.991069 -0.060735
  H 0.925968 0.638727 -0.715300
  H 2.739205 -0.648753 -1.565143
  H 5.103391 -0.112460 -0.229644
  H 4.946144 -2.319411 -3.390669
  H 4.946459 -0.702872 -4.039407
  H 2.500996 -0.508677 -3.608245
  H 2.500604 -2.160860 -2.945305
  H 5.913486 -0.285997 -0.662248
 20
 0.000000
  C 1.306257 0.009805 0.074899
  C 3.101874 0.031206 0.128004
  H 3.636454 0.376717 0.988092
  C 3.514860 -0.349325 -0.819587
  C 4.436144 -0.431852 -1.025321
  C 4.883163 -0.800883 -1.945153
  C 4.453453 -1.332559 -3.270258
  C 2.979899 -1.477866 -3.633110
  H 2.874510 -1.874348 -4.621344
  O 5.766377 -0.739330 -1.792062
  H 0.838125 0.374257 0.982366
  H 0.952492 -1.007132 -0.100781
  H 0.952310 0.622665 -0.755343
  H 2.796614 -0.648361 -1.564195
  H 5.120828 -0.118603 -0.244950
  H 4.931781 -2.313197 -3.375199
  H 4.932086 -0.696656 -4.023932
  H 2.484651 -0.506318 -3.602343
  H 2.484269 -2.158502 -2.939409
  H 5.755674 -0.248195 -0.568037
 20
 0.000000
  C 1.318721 -0.004445 0.039378
  C 3.192355 0.021360 0.103483
  H 3.722293 0.367858 0.966043
  C 3.584666 -0.351769 -0.825684
  C 4.447135 -0.434348 -1.031541
  C 4.867075 -0.796424 -1.934044
  C 4.440038 -1.328397 -3.259894
  C 2.967217 -1.474738 -3.625302
  H 2.863822 -1.871292 -4.613718
  O 5.691266 -0.732663 -1.775444
  H 0.845705 0.359131 0.944661
  H 0.967663 -1.022037 -0.137941
  H 0.967495 0.607762 -0.792500
  H 2.855867 -0.647235 -1.561415
  H 5.145027 -0.125166 -0.261303
  H 4.919236 -2.308699 -3.364007
  H 4.919532 -0.692156 -4.012736
  H 2.471235 -0.503538 -3.595393
  H 2.470863 -2.155724 -2.932463
  H 5.597955 -0.211723 -0.477142
 20
 0.000000
  C 1.317760 -0.017196 0.007594
  C 3.282084 0.013885 0.084868
  H 3.806886 0.361462 0.950130
  C 3.656417 -0.353662 -0.830407
  C 4.463801 -0.436632 -1.037234
  C 4.857652 -0.793831 -1.927589
  C 4.429452 -1.325675 -3.253116
  C 2.956310 -1.471576 -3.617409
  H 2.852047 -1.868097 -4.605748
  O 5.625634 -0.729487 -1.767523
  H 0.839368 0.345403 0.910441
  H 0.969701 -1.035503 -0.171519
  H 0.969548 0.594297 -0.826074
  H 2.916488 -0.645258 -1.556515
  H 5.176382 -0.132131 -0.278659
  H 4.908279 -2.306119 -3.357595
  H 4.908564 -0.689574 -4.006320
  H 2.460639 -0.500229 -3.587121
  H 2.460278 -2.152417 -2.924195
  H 5.441078 -0.176699 -0.389857
 20
 0.000000
  C 1.301202 -0.028163 -0.019749
  C 3.370273 0.009176 0.073148
  H 3.889490 0.357911 0.941309
  C 3.729440 -0.354869 -0.833418
  C 4.486451 -0.438627 -1.042202
  C 4.855198 -0.793281 -1.926223
  C 4.421583 -1.324515 -3.250234
  C 2.946962 -1.468342 -3.609336
  H 2.838661 -1.864711 -4.597302
  O 5.570499 -0.729810 -1.768325
  H 0.817002 0.333365 0.880428
  H 0.956404 -1.047239 -0.200788
  H 0.956265 0.582563 -0.855339
  H 2.977869 -0.642296 -1.549159
  H 5.215136 -0.139458 -0.296916
  H 4.898660 -2.305631 -3.356400
  H 4.898934 -0.689085 -4.005122
  H 2.452768 -0.496299 -3.577302
  H 2.452418 -2.148488 -2.914378
  H 5.286183 -0.143154 -0.306259
 20
 0.000000
  C 1.265902 -0.036648 -0.040909
  C 3.456415 0.007858 0.069878
  H 3.969919 0.357761 0.940962
  C 3.803218 -0.355201 -0.834247
  C 4.515906 -0.440389 -1.046594
  C 4.860236 -0.795274 -1.931199
  C 4.415966 -1.325287 -3.252166
  C 2.938493 -1.465012 -3.601022
  H 2.822235 -1.861067 -4.588211
  O 5.527388 -0.734041 -1.778867
  H 0.775796 0.323772 0.856512
  H 0.924444 -1.056501 -0.223893
  H 0.924318 0.573303 -0.878440
  H 3.039346 -0.638085 -1.538685
  H 5.262282 -0.147334 -0.316541
  H 4.889567 -2.307723 -3.361633
  H 4.889830 -0.691177 -4.010354
  H 2.447235 -0.491599 -3.565565
  H 2.446896 -2.143789 -2.902643
  H 5.136172 -0.111042 -0.226237
 20
 0.000000
  C 1.244533 -0.038723 -0.046083
  C 3.482371 0.008707 0.071999
  H 3.993662 0.359059 0.944203
  C 3.826074 -0.354817 -0.833293
  C 4.525780 -0.440718 -1.047416
  C 4.862168 -0.796582 -1.934461
  C 4.412947 -1.326016 -3.253987
  C 2.934173 -1.463828 -3.598068
  H 2.814214 -1.859730 -4.584877
  O 5.514398 -0.736386 -1.784710
  H 0.752151 0.321267 0.850264
  H 0.904368 -1.058873 -0.229814
  H 0.904247 0.570931 -0.884359
  H 3.058004 -0.636118 -1.533792
  H 5.278470 -0.149911 -0.322964
  H 4.884921 -2.309064 -3.364983
  H 4.885179 -0.692518 -4.013703
  H 2.444291 -0.489780 -3.561025
  H 2.443956 -2.141970 -2.898103
  H 5.085137 -0.099816 -0.198267
 20
 0.000000
  C 1.137310 -0.048966 -0.071638
  C 3.639209 0.014741 0.087063
  H 4.139740 0.367234 0.964627
  C 3.965106 -0.352821 -0.828314
  C 4.595703 -0.442512 -1.051882
  C 4.885512 -0.804996 -1.955443
  C 4.403230 -1.330379 -3.264875
  C 2.916211 -1.455315 -3.576823
  H 2.771469 -1.850063 -4.560763
  O 5.457553 -0.751661 -1.822773
  H 0.633939 0.308906 0.819435
  H 0.803441 -1.070544 -0.258946
  H 0.803343 0.559264 -0.913480
  H 3.172496 -0.624488 -1.504845
  H 5.384828 -0.165443 -0.361666
  H 4.864135 -2.317476 -3.385982
  H 4.864371 -0.700928 -4.034700
  H 2.435722 -0.477056 -3.529263
  H 2.435408 -2.129246 -2.866342
  H 4.803262 -0.045343 -0.062533
