 13
 0.000000
  C 0.922003 0.049659 0.228440
  C 2.408465 0.068753 0.075815
  H 2.985797 0.013773 0.989610
  C 3.064185 0.139802 -1.084385
  H 2.522265 0.187559 -2.019344
  C 4.507073 0.138706 -1.172161
  C 5.170519 0.187035 -2.324064
  H 6.245545 0.183573 -2.361034
  H 0.645137 -0.035476 1.275607
  H 0.489107 -0.791226 -0.313110
  H 0.479861 0.959336 -0.174133
  H 5.041371 0.095135 -0.232352
  H 4.647986 0.230890 -3.265107
 13
 -0.281584
  C 0.926520 0.049788 0.219256
  C 2.415859 0.026555 0.100959
  H 2.973234 -0.104622 1.019246
  C 3.071447 0.142530 -1.053185
  H 2.517944 0.272619 -1.974266
  C 4.510778 0.111573 -1.170728
  C 5.161653 0.223983 -2.324011
  H 6.236323 0.197356 -2.379191
  H 0.617864 0.214998 1.248068
  H 0.505749 -0.901633 -0.112360
  H 0.503277 0.834357 -0.406107
  H 5.060909 -0.011608 -0.246711
  H 4.636352 0.347108 -3.257690
 13
 -0.533764
  C 0.925479 0.046896 0.196580
  C 2.413859 -0.038120 0.113627
  H 2.946116 -0.249102 1.031531
  C 3.082323 0.148600 -1.022266
  H 2.529239 0.341085 -1.934541
  C 4.518531 0.111264 -1.167578
  C 5.146715 0.259422 -2.329324
  H 6.219812 0.230242 -2.406887
  H 0.613573 0.438601 1.162509
  H 0.475081 -0.938400 0.072134
  H 0.552102 0.702172 -0.589255
  H 5.087102 -0.044188 -0.258832
  H 4.603746 0.416201 -3.247178
 13
 -0.901121
  C 0.923353 0.034573 0.196444
  C 2.403349 -0.088580 0.081961
  H 2.938110 -0.370332 0.979608
  C 3.068993 0.155316 -1.047915
  H 2.519329 0.375144 -1.955663
  C 4.508653 0.102606 -1.170876
  C 5.161630 0.310452 -2.309550
  H 6.235918 0.274002 -2.368067
  H 0.661937 0.673934 1.038810
  H 0.458778 -0.936153 0.361858
  H 0.530016 0.476972 -0.714786
  H 5.057362 -0.108724 -0.261689
  H 4.638951 0.525571 -3.227364
 13
 2.203774
  C 0.926441 0.025570 0.173650
  C 2.402159 -0.168615 0.089227
  H 2.899681 -0.590109 0.951931
  C 3.077399 0.135279 -1.017888
  H 2.535208 0.246796 -1.949482
  C 4.515193 0.162464 -1.149177
  C 5.148247 0.348214 -2.304749
  H 6.222296 0.381613 -2.370186
  H 0.722349 0.790990 0.928392
  H 0.382938 -0.872603 0.454670
  H 0.582860 0.442741 -0.772897
  H 5.081834 0.072135 -0.230250
  H 4.609365 0.448899 -3.233267
 13
 12.641753
  C 0.951011 0.037966 0.159104
  C 2.401162 -0.297736 0.107010
  H 2.858953 -0.815438 0.928559
  C 3.066250 0.061367 -0.990010
  H 2.551706 0.016077 -1.943858
  C 4.500281 0.187086 -1.130168
  C 5.112197 0.387372 -2.297013
  H 6.162906 0.610183 -2.362092
  H 0.837109 0.915356 0.806881
  H 0.293701 -0.746704 0.519421
  H 0.744437 0.458241 -0.827437
  H 5.062736 0.267122 -0.212467
  H 4.573951 0.342256 -3.231156
 13
 30.481898
  C 0.982546 0.057130 0.161103
  C 2.426383 -0.317754 0.169177
  H 2.882138 -0.877373 0.975622
  C 3.040225 -0.006985 -0.990123
  H 2.558170 -0.305524 -1.929059
  C 4.455901 0.245411 -1.127412
  C 5.066712 0.435339 -2.297217
  H 6.127082 0.603840 -2.370738
  H 0.792055 1.002514 0.698691
  H 0.285123 -0.693558 0.461022
  H 0.988586 0.515694 -0.839747
  H 5.018492 0.323797 -0.213387
  H 4.516334 0.440928 -3.223400
 13
 60.896478
  C 1.038824 0.083883 0.161715
  C 2.384939 -0.500331 0.177069
  H 2.790645 -1.164989 0.916468
  C 3.001094 -0.084930 -0.975581
  H 2.596762 -0.470028 -1.899834
  C 4.408439 0.240527 -1.109813
  C 5.009973 0.478605 -2.280245
  H 6.004102 0.883090 -2.338757
  H 0.997006 1.125524 0.494400
  H 0.217469 -0.462687 0.595970
  H 1.295108 0.528298 -0.920884
  H 4.945859 0.408344 -0.187034
  H 4.487361 0.357750 -3.217655
 13
 80.393160
  C 1.067425 0.057796 0.255331
  C 2.328939 -0.547726 0.182539
  H 2.763242 -1.242261 0.887325
  C 2.924247 -0.071163 -1.018099
  H 2.539617 -0.477860 -1.949277
  C 4.327247 0.309650 -1.113655
  C 4.973425 0.505621 -2.259150
  H 5.999648 0.829539 -2.291565
  H 0.999028 1.116846 0.466570
  H 0.219988 -0.475882 0.689164
  H 1.603278 0.602800 -1.030111
  H 4.826375 0.506098 -0.173200
  H 4.493979 0.342048 -3.211093
 13
 60.537234
  C 1.088696 0.034019 0.351908
  C 2.264345 -0.602115 0.163444
  H 2.731307 -1.299173 0.842649
  C 2.879219 -0.090414 -1.086599
  H 2.530742 -0.524600 -2.032941
  C 4.287521 0.328547 -1.129285
  C 4.977223 0.534538 -2.240589
  H 6.000181 0.872843 -2.225382
  H 1.019010 1.110377 0.365659
  H 0.256140 -0.404221 0.911215
  H 1.904129 0.603107 -1.185380
  H 4.755988 0.472927 -0.165985
  H 4.535487 0.396378 -3.214462
 13
 36.905352
  C 1.064868 -0.002147 0.419184
  C 2.224133 -0.588728 0.101028
  H 2.721773 -1.348908 0.684264
  C 2.839063 0.006398 -1.124723
  H 2.537971 -0.536527 -2.033423
  C 4.278390 0.353044 -1.137384
  C 5.002076 0.488324 -2.234260
  H 6.029263 0.808845 -2.206357
  H 0.962651 1.070043 0.451519
  H 0.294363 -0.488603 1.011163
  H 2.050326 0.796196 -1.254528
  H 4.692944 0.640129 -0.178808
  H 4.601195 0.256724 -3.208465
 13
 17.369683
  C 1.070143 -0.018664 0.504909
  C 2.197907 -0.538740 0.053319
  H 2.732411 -1.326830 0.562509
  C 2.798958 0.061879 -1.181104
  H 2.556673 -0.568442 -2.047319
  C 4.250498 0.393993 -1.145932
  C 5.028402 0.445129 -2.210555
  H 6.064078 0.733976 -2.148478
  H 0.818684 1.016773 0.338438
  H 0.431293 -0.492006 1.236679
  H 2.134529 0.921131 -1.375080
  H 4.630789 0.702247 -0.179875
  H 4.670389 0.161810 -3.187711
 13
 7.887468
  C 1.107736 -0.008667 0.599700
  C 2.181424 -0.479609 -0.006296
  H 2.724490 -1.323665 0.397216
  C 2.739465 0.128834 -1.255427
  H 2.573546 -0.561373 -2.089617
  C 4.194503 0.467129 -1.157931
  C 5.053429 0.368707 -2.157916
  H 6.088827 0.644400 -2.051032
  H 0.637120 0.909713 0.289376
  H 0.667066 -0.514342 1.442569
  H 2.143901 1.021344 -1.470271
  H 4.517777 0.836646 -0.192930
  H 4.755468 0.003140 -3.127640
 13
 7.440700
  C 1.246730 0.046875 0.666268
  C 2.158801 -0.556037 -0.072073
  H 2.565688 -1.518641 0.205654
  C 2.688563 0.052645 -1.334015
  H 2.634942 -0.669357 -2.152451
  C 4.101112 0.530647 -1.172964
  C 5.046572 0.389918 -2.083870
  H 6.045146 0.763611 -1.932935
  H 0.858424 1.009878 0.371762
  H 0.826682 -0.377651 1.561801
  H 2.040628 0.898512 -1.579795
  H 4.311428 1.026763 -0.234091
  H 4.860035 -0.104906 -3.023490
 13
 6.692658
  C 1.243027 0.018421 0.680186
  C 2.157537 -0.523460 -0.101577
  H 2.613693 -1.469783 0.159526
  C 2.665674 0.106533 -1.363453
  H 2.613301 -0.610860 -2.186625
  C 4.083500 0.569172 -1.193039
  C 5.056007 0.332646 -2.052373
  H 6.057751 0.694333 -1.894744
  H 0.780946 0.961877 0.439713
  H 0.911634 -0.456318 1.587516
  H 2.037299 0.966154 -1.611573
  H 4.273628 1.135518 -0.288438
  H 4.890754 -0.231977 -2.955319
