 25
 0.000000
  C 0.977438 0.160065 0.451717
  C 2.448555 0.139868 0.399900
  C 3.238470 0.603694 1.552238
  H 2.640809 0.940089 2.389533
  C 3.041676 -0.329757 -0.768612
  C 4.423182 -0.417510 -0.987945
  C 5.085510 -0.866457 -2.107197
  C 4.614781 -1.385156 -3.401108
  C 3.131576 -1.512909 -3.721495
  C 2.936760 -2.076401 -5.127353
  H 6.166310 -0.850743 -2.067725
  H 0.592797 0.538738 1.393472
  H 0.583540 -0.845042 0.292881
  H 0.582701 0.774880 -0.358729
  H 3.893859 1.420168 1.241223
  H 3.894684 -0.200165 1.892913
  H 2.371638 -0.644692 -1.551553
  H 5.054538 -0.089713 -0.171643
  H 5.085908 -2.369746 -3.524979
  H 5.086753 -0.759395 -4.170785
  H 2.649936 -0.535036 -3.675062
  H 2.649153 -2.187527 -3.012606
  H 3.385239 -1.426135 -5.875035
  H 1.877105 -2.166370 -5.353078
  H 3.384516 -3.063412 -5.218696
 25
 7.797811
  C 0.865187 0.164522 0.462935
  C 2.495230 0.139333 0.398521
  C 3.279686 0.601130 1.545819
  H 2.675759 0.936655 2.381023
  C 3.073677 -0.329389 -0.767768
  C 4.453727 -0.420417 -0.995262
  C 5.105650 -0.870573 -2.117502
  C 4.626706 -1.387052 -3.405847
  C 3.141852 -1.511374 -3.717697
  C 2.937705 -2.074484 -5.122568
  H 6.187846 -0.856648 -2.082466
  H 0.492746 0.543862 1.406371
  H 0.474334 -0.838724 0.306458
  H 0.473506 0.779655 -0.344498
  H 3.934629 1.418396 1.237204
  H 3.935497 -0.201616 1.888748
  H 2.397001 -0.642418 -1.545969
  H 5.092151 -0.094588 -0.183842
  H 5.095854 -2.372407 -3.533211
  H 5.096734 -0.763186 -4.178604
  H 2.662829 -0.532302 -3.668242
  H 2.662035 -2.184760 -3.005781
  H 3.383422 -1.425329 -5.872793
  H 1.876724 -2.162137 -5.342517
  H 3.382706 -3.062455 -5.216497
 25
 23.899109
  C 0.766169 0.165707 0.465913
  C 2.555611 0.139816 0.399694
  C 3.303153 0.602832 1.550098
  H 2.669630 0.931733 2.369021
  C 3.106780 -0.327089 -0.762079
  C 4.488345 -0.423331 -1.002569
  C 5.125423 -0.877027 -2.133655
  C 4.634756 -1.390291 -3.413979
  C 3.148315 -1.510458 -3.715428
  C 2.932298 -2.073064 -5.118987
  H 6.209439 -0.865008 -2.103352
  H 0.418831 0.545923 1.411518
  H 0.398682 -0.838136 0.311897
  H 0.397922 0.783050 -0.340160
  H 3.956918 1.427380 1.257774
  H 3.957846 -0.193854 1.909760
  H 2.419067 -0.637070 -1.532748
  H 5.138496 -0.100684 -0.198997
  H 5.102657 -2.376325 -3.547207
  H 5.103592 -0.770041 -4.191469
  H 2.672476 -0.529874 -3.661848
  H 2.671727 -2.182100 -2.999476
  H 3.374347 -1.425388 -5.872508
  H 1.869774 -2.157877 -5.331730
  H 3.373728 -3.062215 -5.216309
 25
 41.580127
  C 0.657423 0.169348 0.475151
  C 2.606410 0.144388 0.411124
  C 3.327788 0.615218 1.580693
  H 2.671672 0.937642 2.383524
  C 3.142972 -0.329344 -0.767454
  C 4.523034 -0.429643 -1.018081
  C 5.147308 -0.885303 -2.154138
  C 4.644718 -1.397094 -3.430897
  C 3.156141 -1.513212 -3.722293
  C 2.928235 -2.074997 -5.123970
  H 6.230918 -0.874978 -2.128072
  H 0.332717 0.553116 1.429441
  H 0.314015 -0.844540 0.322179
  H 0.313281 0.794623 -0.337199
  H 3.981061 1.446949 1.303577
  H 3.982112 -0.175987 1.956351
  H 2.447906 -0.636955 -1.532158
  H 5.181204 -0.109440 -0.220543
  H 5.110945 -2.383568 -3.569807
  H 5.111916 -0.780464 -4.212768
  H 2.683436 -0.531338 -3.664613
  H 2.682687 -2.183015 -3.002532
  H 3.366594 -1.428618 -5.880855
  H 1.863957 -2.156814 -5.329210
  H 3.366008 -3.065488 -5.224700
 25
 59.151495
  C 0.554424 0.167561 0.470662
  C 2.662732 0.141333 0.403493
  C 3.358682 0.610807 1.569827
  H 2.688108 0.929088 2.362398
  C 3.170667 -0.326208 -0.759763
  C 4.548069 -0.429483 -1.017835
  C 5.163743 -0.887716 -2.160321
  C 4.651120 -1.397550 -3.432095
  C 3.160618 -1.509576 -3.713179
  C 2.920979 -2.070652 -5.113051
  H 6.248010 -0.879086 -2.138549
  H 0.257871 0.552936 1.429047
  H 0.236355 -0.849932 0.320217
  H 0.235704 0.797325 -0.342299
  H 4.010474 1.446069 1.301059
  H 4.011581 -0.177205 1.953891
  H 2.468253 -0.630941 -1.517377
  H 5.211994 -0.110705 -0.223729
  H 5.115298 -2.384391 -3.576001
  H 5.116223 -0.784157 -4.217869
  H 2.690999 -0.526292 -3.651561
  H 2.690290 -2.177705 -2.989569
  H 3.355631 -1.425591 -5.873183
  H 1.855070 -2.149483 -5.310730
  H 3.355106 -3.062398 -5.217040
 25
 75.160425
  C 0.435045 0.174416 0.488364
  C 2.702867 0.149429 0.423559
  C 3.378464 0.627816 1.611509
  H 2.690550 0.941632 2.392933
  C 3.203276 -0.330309 -0.769778
  C 4.590094 -0.439609 -1.042786
  C 5.190891 -0.898241 -2.186094
  C 4.664664 -1.406754 -3.454683
  C 3.171463 -1.513491 -3.723141
  C 2.917658 -2.073562 -5.120752
  H 6.274990 -0.892461 -2.171199
  H 0.161946 0.562818 1.454082
  H 0.142999 -0.851802 0.338528
  H 0.142155 0.810707 -0.330296
  H 4.028730 1.470149 1.354964
  H 4.030058 -0.156584 2.009376
  H 2.492707 -0.633571 -1.523507
  H 5.261440 -0.123445 -0.255111
  H 5.125185 -2.394757 -3.604170
  H 5.126307 -0.796508 -4.245278
  H 2.705909 -0.528635 -3.657053
  H 2.704944 -2.179566 -2.995303
  H 3.348064 -1.430034 -5.884676
  H 1.849765 -2.148558 -5.309301
  H 3.347257 -3.066897 -5.228570
 25
 84.497669
  C 0.386794 0.148939 0.425964
  C 2.815023 0.148435 0.421151
  C 3.359838 0.646693 1.656786
  H 2.600082 0.937299 2.380020
  C 3.248161 -0.319861 -0.742560
  C 4.639705 -0.441819 -1.046715
  C 5.207082 -0.903342 -2.197316
  C 4.655077 -1.412833 -3.468800
  C 3.157260 -1.509325 -3.712838
  C 2.874827 -2.066945 -5.105550
  H 6.291902 -0.905050 -2.201361
  H 0.164453 0.542325 1.403010
  H 0.190110 -0.896243 0.271169
  H 0.189099 0.794914 -0.409953
  H 3.991197 1.515979 1.451888
  H 3.992930 -0.120785 2.111081
  H 2.532510 -0.619748 -1.487591
  H 5.315727 -0.127782 -0.264794
  H 5.107146 -2.399656 -3.635148
  H 5.108281 -0.814696 -4.270429
  H 2.698871 -0.521850 -3.636780
  H 2.697443 -2.170576 -2.976386
  H 3.296668 -1.425517 -5.876318
  H 1.803209 -2.134175 -5.275559
  H 3.295392 -3.063620 -5.220202
 25
 86.806286
  C 0.387123 0.096128 0.281830
  C 2.970344 0.146783 0.423298
  C 3.293119 0.660464 1.701697
  H 2.421726 0.905268 2.304633
  C 3.345301 -0.313541 -0.720667
  C 4.759392 -0.453778 -1.080879
  C 5.255509 -0.913130 -2.230134
  C 4.653424 -1.416096 -3.482599
  C 3.136107 -1.483721 -3.644017
  C 2.771275 -2.035306 -5.020810
  H 6.338625 -0.931088 -2.280396
  H 0.168933 0.487135 1.253020
  H 0.305821 -0.961374 0.117152
  H 0.309721 0.745588 -0.569118
  H 3.876515 1.578570 1.585670
  H 3.873141 -0.083545 2.255288
  H 2.625682 -0.618021 -1.474049
  H 5.453785 -0.141433 -0.309158
  H 5.071767 -2.417082 -3.657391
  H 5.068776 -0.811462 -4.300825
  H 2.702035 -0.485926 -3.548471
  H 2.705247 -2.141527 -2.885924
  H 3.167086 -1.400550 -5.810546
  H 1.691162 -2.084170 -5.137397
  H 3.170468 -3.038147 -5.155381
 25
 90.064454
  C 0.292179 0.090596 0.267035
  C 3.032772 0.154300 0.442434
  C 3.307373 0.671089 1.728544
  H 2.410949 0.904904 2.303916
  C 3.386245 -0.305497 -0.700235
  C 4.796456 -0.454965 -1.083438
  C 5.270170 -0.914750 -2.234194
  C 4.647046 -1.422878 -3.499804
  C 3.131166 -1.486442 -3.650529
  C 2.756368 -2.036255 -5.023384
  H 6.353536 -0.937128 -2.295873
  H 0.080813 0.483301 1.242614
  H 0.237107 -0.966999 0.104659
  H 0.241116 0.741762 -0.582285
  H 3.876878 1.600308 1.631507
  H 3.873690 -0.067706 2.303565
  H 2.668267 -0.604291 -1.439250
  H 5.495194 -0.148324 -0.325789
  H 5.057592 -2.423571 -3.676977
  H 5.054323 -0.819785 -4.319320
  H 2.701177 -0.488015 -3.553398
  H 2.704650 -2.144009 -2.891016
  H 3.149313 -1.402064 -5.815296
  H 1.675310 -2.082655 -5.133397
  H 3.152997 -3.040096 -5.160344
 25
 92.045829
  C 0.200119 0.069112 0.213681
  C 3.095846 0.155744 0.445550
  C 3.310345 0.672251 1.731215
  H 2.387538 0.890397 2.267958
  C 3.438275 -0.305264 -0.700504
  C 4.846673 -0.461251 -1.098947
  C 5.299250 -0.925881 -2.261498
  C 4.653383 -1.423369 -3.500806
  C 3.132248 -1.470392 -3.610946
  C 2.715436 -2.016382 -4.974373
  H 6.379703 -0.957055 -2.344613
  H -0.010165 0.460171 1.185634
  H 0.175181 -0.989644 0.054403
  H 0.178788 0.723268 -0.633945
  H 3.861931 1.613711 1.657184
  H 3.858981 -0.059298 2.330948
  H 2.711739 -0.606268 -1.445116
  H 5.558162 -0.156172 -0.344164
  H 5.049635 -2.428790 -3.684480
  H 5.046691 -0.821452 -4.328221
  H 2.715691 -0.466350 -3.503183
  H 2.718831 -2.124548 -2.839975
  H 3.094753 -1.386390 -5.776272
  H 1.631643 -2.051401 -5.056472
  H 3.098084 -3.024233 -5.121472
 25
 93.174030
  C 0.109409 0.056029 0.181539
  C 3.160113 0.163285 0.464042
  C 3.320319 0.683894 1.759361
  H 2.371438 0.887559 2.260020
  C 3.482328 -0.297001 -0.679964
  C 4.883691 -0.463350 -1.103270
  C 5.312136 -0.929262 -2.269059
  C 4.643780 -1.427960 -3.512025
  C 3.120305 -1.469173 -3.608073
  C 2.688797 -2.013250 -4.967478
  H 6.392696 -0.966257 -2.366462
  H -0.098860 0.447959 1.155598
  H 0.111160 -1.002416 0.025759
  H 0.114430 0.712194 -0.663471
  H 3.854193 1.638285 1.707071
  H 3.851544 -0.041615 2.383823
  H 2.752157 -0.593027 -1.412193
  H 5.604273 -0.164081 -0.362186
  H 5.032482 -2.436256 -3.698884
  H 5.029697 -0.825977 -4.343462
  H 2.708902 -0.463864 -3.497938
  H 2.711904 -2.122830 -2.834787
  H 3.063539 -1.384606 -5.772379
  H 1.604078 -2.044360 -5.040060
  H 3.066728 -3.022205 -5.118066
 25
 93.779310
  C 0.020135 0.031174 0.119861
  C 3.222660 0.167672 0.474426
  C 3.319015 0.684948 1.761533
  H 2.344727 0.870166 2.216782
  C 3.534318 -0.294432 -0.674411
  C 4.930273 -0.468975 -1.117003
  C 5.334426 -0.939468 -2.294010
  C 4.640348 -1.428489 -3.513158
  C 3.115609 -1.453170 -3.568481
  C 2.643147 -1.992435 -4.916110
  H 6.411136 -0.985686 -2.413896
  H -0.191190 0.421660 1.090815
  H 0.051166 -1.026880 -0.031391
  H 0.054113 0.690299 -0.721363
  H 3.830543 1.650665 1.732777
  H 3.828261 -0.032237 2.410516
  H 2.795215 -0.590753 -1.407630
  H 5.664717 -0.173008 -0.383004
  H 5.013531 -2.439991 -3.706263
  H 5.010998 -0.828524 -4.351189
  H 2.718053 -0.442911 -3.448566
  H 2.720845 -2.103646 -2.784881
  H 3.003919 -1.367604 -5.730538
  H 1.556840 -2.012188 -4.960633
  H 3.006878 -3.005312 -5.076346
 25
 93.968244
  C -0.070177 0.010363 0.069201
  C 3.283885 0.174203 0.490058
  C 3.324341 0.696770 1.789663
  H 2.325957 0.865389 2.203858
  C 3.578171 -0.286401 -0.654709
  C 4.964995 -0.471610 -1.122756
  C 5.343949 -0.943627 -2.303280
  C 4.624826 -1.431638 -3.520514
  C 3.097130 -1.448003 -3.556179
  C 2.604062 -1.984776 -4.898138
  H 6.419625 -0.996742 -2.439663
  H -0.284699 0.401142 1.040864
  H -0.014614 -1.046765 -0.077586
  H -0.012173 0.671757 -0.768268
  H 3.815320 1.675891 1.782770
  H 3.813398 -0.014515 2.463731
  H 2.832615 -0.578211 -1.376617
  H 5.710939 -0.181600 -0.402747
  H 4.988899 -2.447071 -3.717453
  H 4.986795 -0.831503 -4.363856
  H 2.706624 -0.435495 -3.432740
  H 2.708947 -2.097634 -2.768652
  H 2.958037 -1.362004 -5.716884
  H 1.517038 -1.998772 -4.929005
  H 2.960532 -2.999288 -5.063001
 25
 93.990822
  C -0.174098 -0.012622 0.012346
  C 3.329835 0.180548 0.505090
  C 3.324781 0.695461 1.785745
  H 2.310333 0.848351 2.161325
  C 3.620515 -0.283264 -0.647857
  C 4.998669 -0.475951 -1.133468
  C 5.356248 -0.952140 -2.324135
  C 4.613380 -1.431327 -3.519551
  C 3.087067 -1.433374 -3.520050
  C 2.559044 -1.965338 -4.849972
  H 6.427699 -1.013521 -2.480586
  H -0.398690 0.376608 0.980432
  H -0.101368 -1.068811 -0.131226
  H -0.099354 0.650392 -0.822027
  H 3.797199 1.680301 1.795751
  H 3.795524 -0.008217 2.475760
  H 2.865550 -0.574117 -1.367643
  H 5.758218 -0.190024 -0.422619
  H 4.963668 -2.448854 -3.721950
  H 4.961812 -0.833543 -4.368240
  H 2.708919 -0.417127 -3.388759
  H 2.710987 -2.080167 -2.724309
  H 2.900317 -1.345820 -5.676687
  H 1.471768 -1.969318 -4.856169
  H 2.902566 -2.983135 -5.022749
