 23
 0.000000
  C 1.009384 0.112670 0.329328
  C 2.481849 0.123219 0.364860
  C 3.231814 0.601848 1.551703
  C 2.413911 1.082641 2.743211
  H 3.086446 1.401693 3.536997
  C 3.146297 -0.333824 -0.770986
  C 4.532051 -0.396275 -0.931644
  C 5.190305 -0.850856 -2.071672
  C 4.537110 -1.340956 -3.305014
  H 3.457267 -1.321664 -3.260499
  O 6.500566 -0.873893 -2.128368
  H 0.557333 0.490972 1.237664
  H 0.646222 -0.900962 0.153160
  H 0.655365 0.706791 -0.514410
  H 3.891706 1.415805 1.233192
  H 3.890633 -0.206081 1.887333
  H 1.783253 0.289444 3.138595
  H 1.784994 1.929846 2.478148
  H 2.523284 -0.662924 -1.590019
  H 5.150395 -0.068531 -0.107219
  H 4.879694 -2.356126 -3.506382
  H 4.882041 -0.742670 -4.148799
  H 6.953132 -0.553602 -1.324886
 23
 2.417161
  C 1.062461 0.064132 0.321276
  C 2.511989 0.206755 0.373684
  C 3.244047 0.686352 1.559117
  C 2.388742 1.111717 2.753295
  H 3.034776 1.452299 3.559891
  C 3.144160 -0.252218 -0.775247
  C 4.512261 -0.424129 -0.916630
  C 5.162762 -0.889504 -2.064561
  C 4.506669 -1.316055 -3.314713
  H 3.430519 -1.238075 -3.280452
  O 6.452122 -0.984525 -2.103790
  H 0.543730 0.274085 1.239070
  H 0.946671 -0.982552 0.005437
  H 0.639342 0.664323 -0.474771
  H 3.871463 1.535528 1.252059
  H 3.940414 -0.098692 1.883228
  H 1.796358 0.283284 3.131638
  H 1.723631 1.930112 2.491988
  H 2.507019 -0.541600 -1.595684
  H 5.147032 -0.160145 -0.078935
  H 4.792941 -2.344218 -3.532390
  H 4.891550 -0.717469 -4.139426
  H 6.904449 -0.710357 -1.294884
 23
 2.727868
  C 1.054813 -0.269822 0.515945
  C 2.478052 0.080350 0.373476
  C 3.194312 0.869558 1.402601
  C 2.395760 1.287165 2.629280
  H 3.021683 1.895429 3.277211
  C 3.134172 -0.339044 -0.780417
  C 4.490553 -0.622313 -0.873047
  C 5.159958 -1.035303 -2.021133
  C 4.613027 -0.952019 -3.392086
  H 3.596340 -0.583228 -3.417868
  O 6.378332 -1.518818 -1.962916
  H 0.735160 -0.245322 1.551778
  H 0.881787 -1.260760 0.102001
  H 0.427013 0.430098 -0.039641
  H 3.588570 1.766805 0.912267
  H 4.080482 0.312852 1.726581
  H 2.066472 0.424145 3.203001
  H 1.527300 1.879656 2.354344
  H 2.509718 -0.536852 -1.641850
  H 5.055814 -0.628485 0.050305
  H 4.670051 -1.930457 -3.867599
  H 5.249084 -0.292483 -3.982294
  H 6.757673 -1.570794 -1.066469
 23
 11.649268
  C 1.183044 -0.477432 0.644798
  C 2.489704 0.141627 0.371963
  C 3.129793 1.093729 1.303014
  C 2.374830 1.405250 2.586557
  H 2.917278 2.158995 3.150792
  C 3.144513 -0.199722 -0.826768
  C 4.405924 -0.755199 -0.880362
  C 5.099867 -1.137800 -2.023732
  C 4.735634 -0.736824 -3.401107
  H 3.800877 -0.193696 -3.443408
  O 6.164247 -1.908783 -1.952916
  H 1.018607 -0.563796 1.714617
  H 1.155906 -1.461871 0.184837
  H 0.357311 0.115025 0.245255
  H 3.298203 2.023141 0.747039
  H 4.137845 0.733624 1.543707
  H 2.280718 0.524815 3.216910
  H 1.382724 1.794607 2.376530
  H 2.569861 -0.091285 -1.739186
  H 4.852250 -1.023830 0.070140
  H 4.687885 -1.618713 -4.038005
  H 5.529291 -0.109765 -3.806795
  H 6.420080 -2.166013 -1.048421
 23
 25.401551
  C 1.396029 -0.665808 0.773471
  C 2.551767 0.164741 0.423305
  C 3.045009 1.257968 1.277233
  C 2.280399 1.502309 2.569952
  H 2.698963 2.366039 3.079334
  C 3.224248 -0.099469 -0.824228
  C 4.313357 -0.916542 -0.923490
  C 5.017922 -1.240974 -2.088283
  C 4.811904 -0.600896 -3.405902
  H 3.968396 0.077741 -3.410635
  O 5.927710 -2.196764 -2.088487
  H 1.325143 -0.778242 1.852926
  H 1.487589 -1.638676 0.296491
  H 0.453948 -0.210708 0.453060
  H 3.041562 2.170996 0.670504
  H 4.107144 1.085834 1.499878
  H 2.355774 0.653558 3.244865
  H 1.230874 1.703021 2.374541
  H 2.793720 0.355081 -1.708286
  H 4.631894 -1.416525 -0.016219
  H 4.678665 -1.369151 -4.166478
  H 5.711673 -0.050259 -3.680721
  H 6.072180 -2.613887 -1.220186
 23
 13.570936
  C 1.666408 -0.814323 0.926195
  C 2.681297 0.145928 0.485891
  C 2.964314 1.378097 1.256445
  C 2.135220 1.597243 2.513122
  H 2.407438 2.547278 2.963812
  C 3.376727 -0.059000 -0.730044
  C 4.234933 -1.114446 -0.976002
  C 4.907390 -1.334635 -2.173281
  C 4.799961 -0.495592 -3.390106
  H 4.034463 0.262076 -3.316278
  O 5.731300 -2.354279 -2.309825
  H 1.631553 -0.918301 2.010773
  H 1.767447 -1.782509 0.440675
  H 0.693976 -0.412489 0.625449
  H 2.847091 2.241891 0.591582
  H 4.027764 1.370457 1.511563
  H 2.315461 0.818601 3.252150
  H 1.071486 1.625208 2.285166
  H 3.229409 0.690344 -1.498582
  H 4.417986 -1.803133 -0.166754
  H 4.601291 -1.135238 -4.248623
  H 5.763412 -0.019281 -3.579112
  H 5.824856 -2.907319 -1.512661
 23
 2.594681
  C 1.964439 -0.917635 1.090304
  C 2.826171 0.141642 0.548871
  C 2.872074 1.468451 1.210820
  C 1.988056 1.647413 2.437082
  H 2.084572 2.664165 2.808265
  C 3.550188 -0.030516 -0.626746
  C 4.150255 -1.217159 -1.042261
  C 4.795235 -1.382808 -2.263023
  C 4.791960 -0.402945 -3.371565
  H 4.108881 0.419810 -3.208704
  O 5.473236 -2.476352 -2.530801
  H 2.053407 -1.006465 2.171701
  H 2.112355 -1.875019 0.603864
  H 0.929524 -0.619749 0.901437
  H 2.624446 2.237515 0.472658
  H 3.914944 1.667483 1.484818
  H 2.277296 0.976123 3.240017
  H 0.940734 1.473862 2.199049
  H 3.715655 0.854932 -1.227376
  H 4.167263 -2.044963 -0.347630
  H 4.532019 -0.917235 -4.295049
  H 5.803648 -0.017816 -3.512344
  H 5.499356 -3.129560 -1.807312
 23
 -0.474591
  C 2.205459 -0.981617 1.264399
  C 2.898311 0.123394 0.586773
  C 2.683842 1.511397 1.069105
  C 1.961396 1.666608 2.398735
  H 1.871709 2.721914 2.643741
  C 3.692577 -0.043352 -0.536527
  C 4.109169 -1.259105 -1.084907
  C 4.708745 -1.392109 -2.333537
  C 4.860934 -0.301395 -3.321025
  H 4.241554 0.557614 -3.098797
  O 5.168873 -2.548754 -2.749144
  H 2.444544 -0.985390 2.327775
  H 2.423159 -1.950701 0.833555
  H 1.128715 -0.812327 1.205654
  H 2.115470 2.044882 0.297055
  H 3.650410 2.023461 1.113564
  H 2.511349 1.184198 3.203001
  H 0.959955 1.246019 2.363621
  H 4.033414 0.861612 -1.020415
  H 3.991066 -2.160814 -0.500113
  H 4.624105 -0.684120 -4.312141
  H 5.907244 0.006134 -3.353762
  H 5.101120 -3.277164 -2.103937
 23
 2.979351
  C 2.222826 -0.955116 1.097296
  C 2.997790 0.190912 0.598170
  C 2.805665 1.539479 1.185751
  C 1.922066 1.614354 2.421830
  H 1.838321 2.647612 2.748761
  C 3.836083 0.049850 -0.490762
  C 4.340123 -1.170314 -0.975082
  C 4.750588 -1.372543 -2.285522
  C 4.477255 -0.435121 -3.397140
  H 3.876007 0.411005 -3.091276
  O 5.353070 -2.479568 -2.657813
  H 2.207595 -1.002843 2.182517
  H 2.577737 -1.879330 0.654187
  H 1.186160 -0.835242 0.773452
  H 2.377414 2.186114 0.410380
  H 3.788578 1.970022 1.404259
  H 2.344681 1.043312 3.245014
  H 0.921378 1.244656 2.215561
  H 4.145082 0.951495 -1.003438
  H 4.555328 -1.950017 -0.256010
  H 3.974734 -0.970441 -4.201103
  H 5.424782 -0.088652 -3.810510
  H 5.556107 -3.101190 -1.934593
 23
 12.717693
  C 2.317788 -0.898383 0.875195
  C 3.112452 0.306357 0.575776
  C 2.875152 1.590724 1.266399
  C 1.860514 1.554203 2.400189
  H 1.750044 2.544651 2.826901
  C 4.037310 0.195570 -0.430384
  C 4.521133 -1.079629 -0.874787
  C 4.712048 -1.388727 -2.205995
  C 4.158974 -0.574726 -3.311356
  H 3.580622 0.261629 -2.952051
  O 5.310036 -2.496731 -2.587829
  H 2.110893 -1.052885 1.922608
  H 2.848030 -1.717639 0.378233
  H 1.378411 -0.871371 0.323308
  H 2.526487 2.315658 0.520859
  H 3.843673 1.983278 1.626387
  H 2.179949 0.895795 3.202521
  H 0.884834 1.231084 2.029309
  H 4.426577 1.067805 -0.918293
  H 5.054920 -1.675038 -0.137731
  H 3.547513 -1.194487 -3.957110
  H 4.992505 -0.215635 -3.926557
  H 5.677575 -3.041110 -1.862709
 23
 29.519413
  C 2.436972 -0.828646 0.695736
  C 3.185615 0.433002 0.516721
  C 2.888303 1.653399 1.297755
  C 1.842836 1.482922 2.397207
  H 1.677157 2.436774 2.901929
  C 4.152203 0.347399 -0.433970
  C 4.544984 -1.011674 -0.779021
  C 4.636809 -1.403181 -2.119674
  C 3.979307 -0.664094 -3.198914
  H 3.410584 0.167542 -2.819050
  O 5.233844 -2.537768 -2.481815
  H 2.132503 -1.095465 1.682681
  H 3.179555 -1.509372 0.107264
  H 1.649054 -0.987527 -0.032357
  H 2.534009 2.418359 0.592904
  H 3.817259 2.043397 1.733930
  H 2.160156 0.779280 3.142819
  H 0.892425 1.160814 1.959117
  H 4.626995 1.181965 -0.889835
  H 5.254485 -1.478967 -0.091473
  H 3.344964 -1.327441 -3.777217
  H 4.739994 -0.284288 -3.889184
  H 5.653532 -3.036981 -1.762831
 23
 40.925243
  C 2.406164 -0.767940 0.661881
  C 3.175061 0.442401 0.515583
  C 2.884683 1.690601 1.301415
  C 1.823830 1.529420 2.383412
  H 1.644387 2.487735 2.864920
  C 4.198600 0.340976 -0.362800
  C 4.518161 -1.072671 -0.724695
  C 4.605259 -1.435641 -2.102932
  C 3.932015 -0.644312 -3.146338
  H 3.321128 0.142620 -2.718218
  O 5.217327 -2.508558 -2.510845
  H 2.027020 -1.034202 1.635860
  H 3.544567 -1.531493 -0.141400
  H 1.770809 -1.080907 -0.154464
  H 2.552712 2.449875 0.587233
  H 3.809000 2.059187 1.750770
  H 2.147960 0.829916 3.150092
  H 0.883427 1.182005 1.961685
  H 4.803759 1.160396 -0.708008
  H 5.312266 -1.484755 -0.097634
  H 3.331922 -1.296109 -3.780636
  H 4.680641 -0.202518 -3.805473
  H 5.666840 -3.033286 -1.820993
 23
 39.070497
  C 2.292686 -0.749000 0.708179
  C 3.132478 0.383238 0.542588
  C 2.905548 1.668500 1.302510
  C 1.825825 1.601645 2.374386
  H 1.701623 2.582382 2.828056
  C 4.178956 0.256741 -0.315751
  C 4.517972 -1.145566 -0.713831
  C 4.631380 -1.427895 -2.125313
  C 3.930021 -0.606903 -3.120008
  H 3.271277 0.114271 -2.649244
  O 5.303463 -2.431570 -2.583431
  H 1.848449 -0.949484 1.669175
  H 3.625904 -1.670970 -0.226149
  H 1.743905 -1.146071 -0.129040
  H 2.628110 2.425442 0.564271
  H 3.844176 1.992774 1.756760
  H 2.097514 0.904008 3.162938
  H 0.869858 1.301604 1.950426
  H 4.799510 1.078412 -0.628346
  H 5.351069 -1.535040 -0.120368
  H 3.378780 -1.246975 -3.809075
  H 4.659577 -0.078046 -3.736266
  H 5.773717 -2.977870 -1.923036
 23
 35.066344
  C 2.183260 -0.723578 0.747697
  C 3.086957 0.326946 0.564016
  C 2.935480 1.644262 1.296273
  C 1.846383 1.677382 2.360004
  H 1.786768 2.675322 2.788236
  C 4.155224 0.169534 -0.279334
  C 4.523766 -1.212337 -0.713672
  C 4.668250 -1.408889 -2.149211
  C 3.938238 -0.564945 -3.098780
  H 3.225240 0.078827 -2.594305
  O 5.407486 -2.333966 -2.650119
  H 1.648213 -0.824139 1.675889
  H 3.685774 -1.819513 -0.302711
  H 1.760293 -1.256932 -0.083787
  H 2.712980 2.398415 0.536821
  H 3.888403 1.918377 1.752976
  H 2.064185 0.982205 3.167452
  H 0.875069 1.433467 1.935866
  H 4.788086 0.994493 -0.559068
  H 5.392545 -1.569080 -0.150304
  H 3.446795 -1.187017 -3.847241
  H 4.643026 0.052984 -3.657940
  H 5.894993 -2.901399 -2.018492
 23
 33.153611
  C 2.060556 -0.639263 0.670384
  C 3.001066 0.358291 0.534452
  C 2.941778 1.641514 1.337557
  C 1.916890 1.665231 2.461115
  H 1.928070 2.640841 2.941245
  C 4.081824 0.197731 -0.319142
  C 4.488995 -1.172818 -0.730135
  C 4.702920 -1.394778 -2.157185
  C 4.056847 -0.543625 -3.156367
  H 3.366029 0.159052 -2.698298
  O 5.445336 -2.345032 -2.602927
  H 1.384081 -0.656014 1.504424
  H 3.710695 -1.831449 -0.301778
  H 1.786691 -1.278443 -0.149284
  H 2.714044 2.449784 0.632936
  H 3.929270 1.851053 1.752216
  H 2.147530 0.917969 3.216228
  H 0.910283 1.490241 2.083252
  H 4.686965 1.037127 -0.619565
  H 5.368004 -1.478462 -0.143879
  H 3.543263 -1.167495 -3.891641
  H 4.811582 0.002919 -3.725578
  H 5.868120 -2.928204 -1.939024
