 26
 0.000000
  C 0.991253 0.124657 0.361253
  C 2.466691 0.131027 0.377336
  C 3.237545 0.603126 1.552199
  C 2.448140 1.090286 2.764192
  C 3.394507 1.536381 3.874839
  C 3.107086 -0.329404 -0.768686
  C 4.487335 -0.401209 -0.948360
  C 5.161808 -0.854844 -2.079838
  C 4.573583 -1.358751 -3.335845
  H 3.492658 -1.372737 -3.370397
  O 6.479161 -0.861066 -2.096409
  H 0.549284 0.493411 1.278689
  H 0.627349 -0.888047 0.181857
  H 0.627397 0.731643 -0.469013
  H 3.896271 1.415851 1.226133
  H 3.896093 -0.209319 1.879225
  H 1.811046 0.291442 3.147630
  H 1.811370 1.932563 2.488188
  H 4.029982 0.715224 4.199030
  H 2.828861 1.882608 4.736283
  H 4.030302 2.353297 3.540798
  H 2.462775 -0.651990 -1.571776
  H 5.106402 -0.070292 -0.124407
  H 4.958290 -2.364174 -3.512669
  H 4.958194 -0.754269 -4.158523
  H 6.896672 -0.532923 -1.277333
 26
 -0.304620
  C 1.018813 0.256754 0.267656
  C 2.495526 0.197997 0.338721
  C 3.238180 0.590618 1.556814
  C 2.425655 1.053818 2.759368
  C 3.348823 1.409935 3.920588
  C 3.164763 -0.257403 -0.791785
  C 4.547772 -0.352903 -0.934069
  C 5.207741 -0.829410 -2.063194
  C 4.557254 -1.424434 -3.248844
  H 3.483616 -1.501906 -3.151637
  O 6.516209 -0.781398 -2.151410
  H 0.562969 0.660205 1.161127
  H 0.619095 -0.743537 0.090323
  H 0.710494 0.852807 -0.592630
  H 3.939255 1.389399 1.290356
  H 3.860074 -0.257511 1.869589
  H 1.748256 0.266800 3.081362
  H 1.837087 1.930652 2.501941
  H 3.939196 0.546970 4.228437
  H 2.766586 1.742766 4.780100
  H 4.030622 2.214409 3.644659
  H 2.546713 -0.535579 -1.632370
  H 5.167954 -0.012524 -0.118792
  H 4.980745 -2.413289 -3.423259
  H 4.806784 -0.833786 -4.128050
  H 6.968010 -0.387736 -1.382339
 26
 0.718513
  C 1.034137 0.461722 0.178576
  C 2.492005 0.274238 0.302015
  C 3.212455 0.510113 1.575412
  C 2.398048 1.003891 2.767868
  C 3.302112 1.218784 3.978269
  C 3.172728 -0.172745 -0.824625
  C 4.554765 -0.260438 -0.966840
  C 5.207686 -0.764003 -2.092784
  C 4.592098 -1.628494 -3.117830
  H 3.543502 -1.819878 -2.931712
  O 6.481849 -0.515567 -2.281412
  H 0.574150 0.839117 1.083063
  H 0.560721 -0.484966 -0.087642
  H 0.816429 1.142314 -0.645518
  H 4.019102 1.228681 1.391337
  H 3.712256 -0.422740 1.860742
  H 1.631241 0.273133 3.030234
  H 1.907379 1.948144 2.525680
  H 3.787216 0.290334 4.271329
  H 2.722211 1.576173 4.825574
  H 4.071938 1.956783 3.763747
  H 2.577358 -0.418820 -1.689176
  H 5.179068 0.134801 -0.177100
  H 5.132809 -2.574928 -3.138529
  H 4.726256 -1.185402 -4.104435
  H 6.900306 0.042945 -1.600063
 26
 4.116174
  C 1.063543 0.654769 0.116837
  C 2.494296 0.330196 0.278057
  C 3.186382 0.425492 1.585103
  C 2.397218 0.991775 2.762532
  C 3.283207 1.088979 4.000991
  C 3.179120 -0.123253 -0.843873
  C 4.558024 -0.176513 -1.003105
  C 5.179442 -0.699864 -2.143841
  C 4.666868 -1.860734 -2.894782
  H 3.684033 -2.167496 -2.558316
  O 6.311127 -0.209664 -2.583543
  H 0.599354 0.995022 1.033890
  H 0.520600 -0.217669 -0.249929
  H 0.944666 1.422400 -0.648838
  H 4.095295 1.024434 1.461006
  H 3.537545 -0.578208 1.851136
  H 1.546873 0.347745 2.992410
  H 2.021226 1.987196 2.520321
  H 3.653334 0.108304 4.291791
  H 2.721775 1.497664 4.837516
  H 4.136449 1.738999 3.819999
  H 2.590855 -0.384100 -1.711587
  H 5.193859 0.269429 -0.250154
  H 5.364914 -2.686047 -2.749011
  H 4.662142 -1.654561 -3.964448
  H 6.675081 0.529630 -2.061299
 26
 10.668899
  C 1.106497 0.851364 0.056327
  C 2.483651 0.363710 0.255901
  C 3.127923 0.324736 1.589605
  C 2.396737 1.007352 2.744853
  C 3.262685 1.002184 4.004571
  C 3.173892 -0.108166 -0.858695
  C 4.548643 -0.133196 -1.026591
  C 5.138411 -0.678855 -2.186023
  C 4.808466 -2.034953 -2.662802
  H 3.921235 -2.428812 -2.181722
  O 6.042460 -0.043622 -2.879939
  H 0.590259 1.050643 0.988165
  H 0.527932 0.130743 -0.521844
  H 1.127104 1.765952 -0.537150
  H 4.132717 0.756228 1.513641
  H 3.288560 -0.728334 1.848024
  H 1.463218 0.485623 2.962432
  H 2.160933 2.040834 2.482277
  H 3.515921 -0.015415 4.297756
  H 2.731276 1.468737 4.832833
  H 4.187553 1.554743 3.844710
  H 2.591827 -0.374792 -1.730932
  H 5.196638 0.313174 -0.283901
  H 5.653296 -2.678312 -2.414650
  H 4.711900 -2.060925 -3.744990
  H 6.336257 0.809634 -2.507832
 26
 19.622283
  C 1.210609 1.169614 -0.025326
  C 2.527294 0.542471 0.206242
  C 3.142869 0.417851 1.548659
  C 2.351181 0.954227 2.737538
  C 3.139430 0.770584 4.030888
  C 3.186558 -0.027531 -0.888735
  C 4.546833 -0.053782 -1.101900
  C 5.068507 -0.751706 -2.227190
  C 4.976256 -2.215786 -2.337499
  H 4.261907 -2.630536 -1.633847
  O 5.712071 -0.148115 -3.183187
  H 0.769800 1.567956 0.880439
  H 0.518775 0.454787 -0.471690
  H 1.316476 1.981852 -0.750620
  H 4.124837 0.908314 1.534110
  H 3.357247 -0.642355 1.716883
  H 1.402936 0.424102 2.826915
  H 2.141730 2.013691 2.601339
  H 3.348942 -0.282580 4.211201
  H 2.573100 1.152368 4.878756
  H 4.085127 1.306424 3.989468
  H 2.584986 -0.419075 -1.703185
  H 5.228273 0.474406 -0.451701
  H 5.967532 -2.616275 -2.109858
  H 4.745550 -2.525347 -3.355538
  H 5.897102 0.799975 -3.038029
 26
 30.693240
  C 1.342310 1.313652 -0.099892
  C 2.586183 0.579716 0.221751
  C 3.055454 0.333810 1.605294
  C 2.333308 1.072205 2.724712
  C 2.961845 0.745602 4.072343
  C 3.277986 -0.056771 -0.831544
  C 4.624774 -0.083249 -1.088187
  C 5.020844 -0.807710 -2.272707
  C 5.202090 -2.266385 -2.249548
  H 4.679287 -2.724278 -1.408815
  O 5.312461 -0.209816 -3.388312
  H 0.925247 1.812547 0.764905
  H 0.590251 0.636697 -0.508610
  H 1.536790 2.060156 -0.876673
  H 4.128820 0.556032 1.662275
  H 2.974767 -0.743677 1.792214
  H 1.282538 0.772164 2.750883
  H 2.380895 2.149880 2.560293
  H 2.846241 -0.313526 4.303330
  H 2.483443 1.319463 4.864204
  H 4.025178 0.984590 4.076991
  H 2.696273 -0.579574 -1.589944
  H 5.355729 0.466459 -0.513557
  H 6.273107 -2.457093 -2.145574
  H 4.897275 -2.722167 -3.185083
  H 5.358581 0.765731 -3.357122
 26
 43.043821
  C 1.484627 1.449148 -0.153858
  C 2.601871 0.566436 0.231224
  C 2.991355 0.272877 1.629636
  C 2.299884 1.084473 2.721062
  C 2.814998 0.679542 4.099488
  C 3.358777 -0.035119 -0.813690
  C 4.678025 -0.054080 -1.091798
  C 4.896532 -0.877843 -2.279743
  C 5.442766 -2.230426 -2.174661
  H 5.261371 -2.663901 -1.195780
  O 4.817229 -0.382031 -3.471343
  H 1.033187 1.935453 0.705159
  H 0.710046 0.890238 -0.682815
  H 1.838780 2.213886 -0.849127
  H 4.075054 0.415545 1.718636
  H 2.822313 -0.794589 1.820391
  H 1.216300 0.906621 2.689687
  H 2.479138 2.149478 2.571386
  H 2.624428 -0.376571 4.290313
  H 2.318996 1.259026 4.876737
  H 3.885290 0.854724 4.179866
  H 2.840386 -0.723435 -1.507642
  H 5.461329 0.502793 -0.605594
  H 6.523343 -2.169843 -2.325223
  H 5.054919 -2.866404 -2.965519
  H 4.598546 0.569964 -3.528197
 26
 54.523776
  C 1.564602 1.400165 -0.189885
  C 2.807621 0.718911 0.239106
  C 3.135645 0.376602 1.653053
  C 2.194462 0.924145 2.721842
  C 2.718903 0.588263 4.112831
  C 3.656640 0.189584 -0.758455
  C 4.915917 0.186462 -1.205615
  C 4.784230 -0.824083 -2.276493
  C 5.182405 -2.226913 -2.027682
  H 5.058208 -2.499201 -0.986164
  O 4.649082 -0.491538 -3.534038
  H 0.997510 1.782461 0.655743
  H 0.921795 0.721069 -0.759627
  H 1.806602 2.228264 -0.859451
  H 4.160764 0.710863 1.864847
  H 3.163516 -0.719556 1.747190
  H 1.202240 0.494350 2.608173
  H 2.116598 2.008735 2.631138
  H 2.790393 -0.489949 4.251524
  H 2.047503 0.982746 4.875901
  H 3.704438 1.022576 4.272518
  H 3.179808 -0.579264 -1.488879
  H 5.764793 0.791730 -0.959463
  H 6.239614 -2.323264 -2.290897
  H 4.620944 -2.908882 -2.664111
  H 4.732248 0.459079 -3.737200
 26
 63.183458
  C 1.658052 1.450085 -0.199579
  C 2.904640 0.786128 0.246860
  C 3.167438 0.385908 1.660420
  C 2.187435 0.908847 2.706722
  C 2.639183 0.499943 4.105435
  C 3.808648 0.364240 -0.694007
  C 4.971844 0.319265 -1.311483
  C 4.627105 -0.816826 -2.223028
  C 5.149816 -2.186288 -1.899596
  H 5.192955 -2.350776 -0.828604
  O 4.370704 -0.602942 -3.514051
  H 1.015808 1.707296 0.633228
  H 1.102031 0.809223 -0.885151
  H 1.898880 2.358579 -0.753734
  H 4.180248 0.710174 1.924881
  H 3.188879 -0.708633 1.715305
  H 1.191070 0.501255 2.529005
  H 2.131677 1.997696 2.659447
  H 2.668230 -0.582826 4.203653
  H 1.951323 0.887732 4.852570
  H 3.630270 0.891235 4.324653
  H 3.417302 -0.715147 -1.512169
  H 5.840332 0.945671 -1.274975
  H 6.159668 -2.261643 -2.305651
  H 4.541175 -2.950454 -2.374303
  H 4.385902 0.330949 -3.784480
 26
 51.884298
  C 1.704677 1.549156 -0.161970
  C 2.928381 0.843186 0.283870
  C 3.158048 0.415233 1.692269
  C 2.176541 0.930183 2.735208
  C 2.571798 0.441355 4.124805
  C 3.860137 0.491227 -0.620504
  C 4.886858 0.291387 -1.384429
  C 4.485222 -0.903916 -2.231174
  C 5.240184 -2.190299 -1.907095
  H 5.300794 -2.340703 -0.837070
  O 4.255538 -0.703633 -3.575691
  H 1.066137 1.826071 0.670078
  H 1.134944 0.929542 -0.857378
  H 1.981006 2.449947 -0.717059
  H 4.172461 0.707749 1.982690
  H 3.163047 -0.683770 1.711491
  H 1.167676 0.574046 2.513532
  H 2.165880 2.019586 2.737718
  H 2.565585 -0.643090 4.172269
  H 1.872588 0.814359 4.867818
  H 3.563079 0.789628 4.393718
  H 3.462117 -1.029642 -1.706692
  H 5.788735 0.864510 -1.476712
  H 6.249023 -2.116037 -2.312438
  H 4.737534 -3.029086 -2.376357
  H 4.240664 0.230009 -3.830090
 26
 41.211608
  C 1.816448 1.650531 -0.110455
  C 2.994976 0.900214 0.359866
  C 3.167120 0.441535 1.758587
  C 2.152780 0.927625 2.780794
  C 2.512458 0.434487 4.178722
  C 3.945140 0.556106 -0.528450
  C 4.807443 0.177674 -1.392014
  C 4.377702 -0.993421 -2.304268
  C 5.226004 -2.214729 -1.984101
  H 5.193754 -2.438600 -0.923211
  O 4.396508 -0.699436 -3.663884
  H 1.127525 1.881816 0.692403
  H 1.292872 1.085893 -0.884138
  H 2.136670 2.575164 -0.594842
  H 4.177588 0.704902 2.095723
  H 3.170315 -0.657222 1.740749
  H 1.155433 0.563087 2.526755
  H 2.123969 2.019395 2.792094
  H 2.509424 -0.652080 4.222990
  H 1.791151 0.801401 4.904408
  H 3.496843 0.786530 4.478378
  H 3.339996 -1.178298 -1.975421
  H 5.773532 0.621741 -1.571845
  H 6.256874 -2.047135 -2.287769
  H 4.834842 -3.058881 -2.546641
  H 4.335395 0.249489 -3.839009
 26
 36.192330
  C 1.738676 1.742608 -0.025926
  C 2.881079 0.894970 0.365114
  C 3.109039 0.418223 1.747630
  C 2.171251 0.929541 2.826917
  C 2.577761 0.395156 4.195279
  C 3.775462 0.541210 -0.577728
  C 4.589760 0.167205 -1.486188
  C 4.411701 -1.081125 -2.388603
  C 5.381327 -2.147548 -1.908537
  H 5.207814 -2.386284 -0.866131
  O 4.673696 -0.786025 -3.717222
  H 1.120667 2.021217 0.819435
  H 1.126159 1.220522 -0.762967
  H 2.095004 2.640017 -0.532678
  H 4.144937 0.641322 2.026233
  H 3.075790 -0.678540 1.730618
  H 1.146700 0.616095 2.618401
  H 2.193213 2.020643 2.856280
  H 2.533966 -0.690478 4.220517
  H 1.908500 0.774633 4.961532
  H 3.588436 0.703231 4.451102
  H 3.373298 -1.421990 -2.261244
  H 5.513952 0.687043 -1.708459
  H 6.406549 -1.814886 -2.045271
  H 5.237550 -3.041262 -2.506662
  H 4.122169 -0.061446 -4.043093
 26
 36.626535
  C 1.555530 1.489060 0.003690
  C 2.839228 0.849415 0.349627
  C 3.221629 0.478986 1.732258
  C 2.233131 0.798372 2.842439
  C 2.783827 0.369733 4.198670
  C 3.723058 0.598932 -0.636558
  C 4.521867 0.334159 -1.594049
  C 4.446064 -0.926616 -2.498499
  C 5.068752 -2.086933 -1.733983
  H 4.528467 -2.276683 -0.813320
  O 5.130708 -0.754019 -3.691299
  H 0.966836 1.736227 0.878269
  H 0.974712 0.826693 -0.641635
  H 1.732861 2.386353 -0.590992
  H 4.189376 0.944183 1.961192
  H 3.444881 -0.596691 1.740767
  H 1.288486 0.280096 2.665962
  H 2.031640 1.871355 2.871350
  H 2.970115 -0.701260 4.224740
  H 2.072202 0.605059 4.985696
  H 3.714561 0.884906 4.424179
  H 3.379138 -1.114492 -2.686462
  H 5.354303 0.974010 -1.856348
  H 6.112129 -1.878066 -1.514944
  H 5.030923 -2.974132 -2.362564
  H 4.800844 0.008079 -4.189053
 26
 39.798667
  C 1.467327 1.212095 0.004097
  C 2.819725 0.741071 0.359252
  C 3.263987 0.526144 1.759154
  C 2.250250 0.797234 2.858717
  C 2.858196 0.510268 4.229234
  C 3.702064 0.489140 -0.622545
  C 4.564660 0.325123 -1.555595
  C 4.512158 -0.791579 -2.597683
  C 4.742055 -2.118174 -1.870078
  H 3.930570 -2.321237 -1.179393
  O 5.455470 -0.664189 -3.620365
  H 0.879486 1.467605 0.876990
  H 0.938125 0.449354 -0.568975
  H 1.544928 2.073492 -0.660367
  H 4.161410 1.129251 1.942697
  H 3.618420 -0.510227 1.830133
  H 1.370421 0.165671 2.721505
  H 1.930328 1.840966 2.835601
  H 3.176899 -0.526581 4.306377
  H 2.125214 0.695492 5.010211
  H 3.717694 1.148340 4.419743
  H 3.497846 -0.775188 -3.026472
  H 5.396185 1.013398 -1.654843
  H 5.688871 -2.101561 -1.337067
  H 4.789361 -2.903677 -2.620102
  H 5.713617 0.254491 -3.771090
