 23
 0.000000
  C 0.980123 0.151630 0.429011
  C 2.454166 0.134450 0.386195
  C 3.232477 0.601811 1.548536
  H 2.619626 0.934852 2.377322
  C 3.057047 -0.332736 -0.776320
  C 4.434717 -0.414625 -0.980895
  C 5.121745 -0.865019 -2.104545
  C 4.629211 -1.387722 -3.408292
  C 3.141335 -1.505058 -3.701105
  H 3.007151 -1.905665 -4.700458
  O 6.442746 -0.858129 -2.088088
  H 0.591379 0.529742 1.369408
  H 0.588397 -0.853914 0.269446
  H 0.588278 0.766860 -0.382175
  H 3.885089 1.423499 1.247617
  H 3.885333 -0.199326 1.900026
  H 2.394146 -0.648737 -1.562692
  H 5.050889 -0.081947 -0.152025
  H 5.092588 -2.373196 -3.531421
  H 5.092734 -0.760397 -4.178147
  H 2.657387 -0.532560 -3.663299
  H 2.657344 -2.182163 -3.002031
  H 6.814761 -0.522833 -1.250522
 23
 1.312479
  C 0.969526 0.256168 0.422415
  C 2.442306 0.167006 0.368520
  C 3.230288 0.450839 1.579777
  H 2.592679 0.691935 2.421577
  C 3.029941 -0.209502 -0.833528
  C 4.401290 -0.351491 -1.019772
  C 5.112484 -0.802616 -2.126067
  C 4.644084 -1.434660 -3.389565
  C 3.155192 -1.616703 -3.644294
  H 3.029429 -2.128382 -4.596016
  O 6.430348 -0.758020 -2.089482
  H 0.605155 0.495444 1.413465
  H 0.521412 -0.682170 0.093932
  H 0.611857 1.012502 -0.280909
  H 3.911289 1.279873 1.409227
  H 3.845771 -0.405646 1.845233
  H 2.367625 -0.395998 -1.661501
  H 5.058354 -0.074217 -0.210874
  H 5.149391 -2.403596 -3.454728
  H 5.075725 -0.835223 -4.199541
  H 2.643395 -0.660410 -3.711327
  H 2.694757 -2.234770 -2.877278
  H 6.895936 -0.239790 -1.409381
 23
 6.651186
  C 0.964399 0.230261 0.424818
  C 2.434968 0.147593 0.378543
  C 3.217494 0.449211 1.591058
  H 2.574565 0.669919 2.437040
  C 3.029277 -0.220463 -0.823210
  C 4.408028 -0.284423 -1.023727
  C 5.108557 -0.696956 -2.150584
  C 4.645238 -1.391769 -3.376377
  C 3.164788 -1.610525 -3.638222
  H 3.056104 -2.161070 -4.569520
  O 6.421426 -0.449197 -2.190053
  H 0.594130 0.498977 1.408663
  H 0.520389 -0.719642 0.122963
  H 0.608426 0.961361 -0.303116
  H 3.867437 1.308041 1.416881
  H 3.868845 -0.384415 1.852118
  H 2.367431 -0.445585 -1.641369
  H 5.039347 0.085128 -0.225927
  H 5.153983 -2.363551 -3.358296
  H 5.094911 -0.861901 -4.224737
  H 2.638748 -0.667289 -3.755047
  H 2.704277 -2.198858 -2.849726
  H 6.970480 -0.777413 -1.460170
 23
 6.651186
  C 0.964399 0.230261 0.424818
  C 2.434968 0.147593 0.378543
  C 3.217494 0.449211 1.591058
  H 2.574565 0.669919 2.437040
  C 3.029277 -0.220463 -0.823210
  C 4.408028 -0.284423 -1.023727
  C 5.108557 -0.696956 -2.150584
  C 4.645238 -1.391769 -3.376377
  C 3.164788 -1.610525 -3.638222
  H 3.056104 -2.161070 -4.569520
  O 6.421426 -0.449197 -2.190053
  H 0.594130 0.498977 1.408663
  H 0.520389 -0.719642 0.122963
  H 0.608426 0.961361 -0.303116
  H 3.867437 1.308041 1.416881
  H 3.868845 -0.384415 1.852118
  H 2.367431 -0.445585 -1.641369
  H 5.039347 0.085128 -0.225927
  H 5.153983 -2.363551 -3.358296
  H 5.094911 -0.861901 -4.224737
  H 2.638748 -0.667289 -3.755047
  H 2.704277 -2.198858 -2.849726
  H 6.970480 -0.777413 -1.460170
 23
 6.970502
  C 0.926946 0.309759 0.388934
  C 2.393322 0.165641 0.352151
  C 3.160908 0.214206 1.609743
  H 2.512098 0.302063 2.474956
  C 3.007675 -0.000613 -0.882371
  C 4.386348 -0.089485 -1.063836
  C 5.116146 -0.516991 -2.169000
  C 4.704357 -1.407481 -3.285045
  C 3.229543 -1.729999 -3.465307
  H 3.115439 -2.373261 -4.334440
  O 6.392162 -0.148242 -2.144509
  H 0.539135 0.338822 1.401704
  H 0.445381 -0.501574 -0.157941
  H 0.635882 1.224144 -0.132005
  H 3.842211 1.066448 1.596481
  H 3.782537 -0.673342 1.722508
  H 2.366673 -0.050562 -1.747116
  H 5.041186 0.198792 -0.246694
  H 5.260824 -2.344873 -3.160051
  H 5.092352 -0.965031 -4.210151
  H 2.647641 -0.832822 -3.650284
  H 2.829484 -2.253992 -2.601884
  H 7.083348 -0.818668 -2.273207
 23
 30.651536
  C 0.886774 0.323769 0.499891
  C 2.354499 0.192461 0.364909
  C 3.202904 0.120592 1.574673
  H 2.609648 0.145044 2.483160
  C 2.903082 0.120355 -0.906378
  C 4.251652 -0.074227 -1.150559
  C 5.038656 -0.597264 -2.185339
  C 4.760374 -1.488955 -3.330366
  C 3.279211 -1.770431 -3.546836
  H 3.150583 -2.420353 -4.407888
  O 6.267332 -0.189525 -1.906796
  H 0.578367 0.423744 1.535450
  H 0.387544 -0.551572 0.079862
  H 0.524083 1.177415 -0.074323
  H 3.889606 0.966574 1.588043
  H 3.802118 -0.786572 1.572138
  H 2.245601 0.285323 -1.750674
  H 5.198883 0.248517 -0.575204
  H 5.314958 -2.423440 -3.202148
  H 5.180735 -1.013589 -4.222957
  H 2.735207 -0.851192 -3.740386
  H 2.845582 -2.261779 -2.682255
  H 7.188691 -0.474371 -2.027263
 23
 65.285012
  C 0.838415 0.367887 0.613376
  C 2.293404 0.191776 0.359613
  C 3.224209 0.031951 1.513147
  H 2.688623 0.017564 2.456603
  C 2.754320 0.173449 -0.928734
  C 4.062775 -0.056258 -1.292801
  C 4.901461 -0.541061 -2.173706
  C 4.777390 -1.506145 -3.293359
  C 3.329325 -1.852723 -3.605070
  H 3.288599 -2.543792 -4.444249
  O 6.185872 -0.027763 -1.787384
  H 0.615817 0.419781 1.675134
  H 0.279517 -0.470071 0.192074
  H 0.466348 1.264743 0.118139
  H 3.927736 0.862539 1.541103
  H 3.792015 -0.890750 1.416113
  H 2.052539 0.446456 -1.717603
  H 5.696795 0.283352 -0.893475
  H 5.347677 -2.417151 -3.085855
  H 5.243749 -1.055279 -4.176899
  H 2.766793 -0.966217 -3.883919
  H 2.846688 -2.322277 -2.753091
  H 7.111524 -0.358368 -1.819390
 23
 53.323312
  C 0.881730 0.688981 0.986183
  C 2.204187 0.272023 0.490261
  C 3.260724 -0.118718 1.443438
  H 2.915477 -0.069726 2.471094
  C 2.419601 0.215180 -0.876513
  C 3.556795 -0.238593 -1.488774
  C 4.383401 -0.728591 -2.272965
  C 4.803713 -1.562856 -3.364678
  C 3.588915 -2.177674 -4.066083
  H 3.927129 -2.777669 -4.905949
  O 6.087050 0.119488 -1.562779
  H 0.854800 0.761372 2.067929
  H 0.122455 -0.026949 0.662817
  H 0.586054 1.645727 0.554150
  H 4.126772 0.534995 1.342472
  H 3.603133 -1.130797 1.224896
  H 1.648374 0.604967 -1.530580
  H 5.568718 0.398739 -0.800325
  H 5.489703 -2.341070 -3.022081
  H 5.357284 -0.935805 -4.070471
  H 2.923353 -1.404005 -4.437811
  H 3.036157 -2.818722 -3.384882
  H 7.046246 0.192033 -1.452052
 23
 46.399414
  C 0.930624 0.747596 1.143900
  C 2.178350 0.275518 0.529915
  C 3.329373 -0.090925 1.369839
  H 3.093895 -0.030012 2.427610
  C 2.242693 0.174834 -0.853727
  C 3.301080 -0.318026 -1.573068
  C 4.123337 -0.812996 -2.341835
  C 4.775243 -1.564489 -3.359072
  C 3.760878 -2.236132 -4.290328
  H 4.291788 -2.778459 -5.067040
  O 6.104227 0.035405 -1.412471
  H 0.999717 0.811918 2.224895
  H 0.107914 0.081588 0.875456
  H 0.653102 1.724058 0.742214
  H 4.171818 0.569848 1.163468
  H 3.670637 -1.098943 1.129670
  H 1.391121 0.494871 -1.442439
  H 5.507164 0.259272 -0.695477
  H 5.457949 -2.292714 -2.915847
  H 5.386789 -0.866094 -3.940808
  H 3.115577 -1.499711 -4.761415
  H 3.143912 -2.938236 -3.736553
  H 6.969540 0.435508 -1.274012
 23
 45.201021
  C 0.909256 0.798245 0.998174
  C 2.180473 0.282407 0.456470
  C 3.201642 -0.275091 1.364190
  H 2.858045 -0.297426 2.393828
  C 2.395844 0.336410 -0.907136
  C 3.492850 -0.157969 -1.556713
  C 4.367067 -0.669668 -2.272987
  C 4.847010 -1.565397 -3.296044
  C 3.668372 -2.267262 -3.977473
  H 4.045963 -2.931424 -4.749212
  O 6.203162 -0.032803 -1.580567
  H 0.851610 0.695146 2.077229
  H 0.065345 0.277010 0.544097
  H 0.784690 1.851462 0.736791
  H 4.114014 0.317681 1.318288
  H 3.470054 -1.284887 1.050543
  H 1.645644 0.800788 -1.536518
  H 5.970201 0.157255 -0.665084
  H 5.533844 -2.293826 -2.861792
  H 5.400392 -0.983964 -4.036740
  H 3.000049 -1.546093 -4.438063
  H 3.103467 -2.855314 -3.258640
  H 6.727795 0.707310 -1.920475
