 19
 0.000000
  C 1.022892 0.116738 0.347077
  C 2.493639 0.118168 0.341317
  C 3.226697 0.594090 1.526041
  H 2.551523 0.909166 2.313413
  C 3.143083 -0.340542 -0.801783
  C 4.532771 -0.404742 -0.962173
  C 5.168757 -0.858086 -2.089249
  C 4.554311 -1.355356 -3.317154
  H 3.471857 -1.353143 -3.305884
  H 6.249468 -0.852914 -2.082581
  H 0.609032 0.480762 1.281076
  H 0.647063 -0.890347 0.157229
  H 0.642620 0.725872 -0.474891
  H 3.881468 1.427027 1.264123
  H 3.883211 -0.187802 1.911742
  H 2.518314 -0.669655 -1.619220
  H 5.153609 -0.072789 -0.143497
  H 4.920516 -2.365726 -3.518064
  H 4.917235 -0.766542 -4.163869
 19
 0.696450
  C 1.027273 0.239461 0.308462
  C 2.489371 0.093906 0.357269
  C 3.218508 0.431507 1.586849
  H 2.556931 0.809516 2.359555
  C 3.137522 -0.365954 -0.786907
  C 4.515868 -0.288679 -1.014908
  C 5.150692 -0.709370 -2.161059
  C 4.572789 -1.463658 -3.269275
  H 3.528807 -1.720521 -3.136725
  H 6.202404 -0.472041 -2.258618
  H 0.621538 0.669780 1.218568
  H 0.553337 -0.727087 0.128266
  H 0.752570 0.862950 -0.545993
  H 3.994862 1.171476 1.390028
  H 3.740856 -0.448460 1.966029
  H 2.511023 -0.747359 -1.580424
  H 5.125372 0.198239 -0.267492
  H 5.156928 -2.374188 -3.421432
  H 4.701523 -0.900158 -4.196734
 19
 2.801706
  C 1.051727 0.330305 0.278532
  C 2.491875 0.045899 0.383966
  C 3.207761 0.319273 1.637272
  H 2.583663 0.827819 2.362783
  C 3.145180 -0.449730 -0.744676
  C 4.483675 -0.204867 -1.063756
  C 5.108795 -0.604131 -2.221683
  C 4.597614 -1.537739 -3.223850
  H 3.629660 -1.962967 -2.979348
  H 6.088065 -0.193040 -2.422968
  H 0.648086 0.773908 1.190139
  H 0.487375 -0.572283 0.034186
  H 0.894488 1.016201 -0.563282
  H 4.115322 0.894861 1.464348
  H 3.549455 -0.628317 2.071026
  H 2.531135 -0.952764 -1.482623
  H 5.050887 0.433562 -0.397306
  H 5.325004 -2.342569 -3.362510
  H 4.548782 -1.038597 -4.197240
 19
 6.408670
  C 1.100669 0.442028 0.233918
  C 2.496760 0.017155 0.404619
  C 3.193666 0.224089 1.674740
  H 2.601933 0.792904 2.386795
  C 3.157572 -0.521981 -0.704873
  C 4.429007 -0.129670 -1.115894
  C 5.045658 -0.513962 -2.281402
  C 4.619834 -1.578713 -3.195883
  H 3.735181 -2.114675 -2.865089
  H 5.935689 0.028707 -2.574453
  H 0.717194 0.951480 1.109778
  H 0.447581 -0.396817 -0.011048
  H 1.069371 1.109298 -0.628509
  H 4.164273 0.697313 1.526608
  H 3.424696 -0.749861 2.108834
  H 2.580223 -1.163390 -1.359061
  H 4.926842 0.626659 -0.525343
  H 5.442235 -2.285215 -3.325138
  H 4.448754 -1.162108 -4.189277
 19
 11.592253
  C 1.173906 0.530180 0.171752
  C 2.511995 -0.010677 0.437558
  C 3.168392 0.166855 1.731495
  H 2.588659 0.775445 2.417993
  C 3.196839 -0.600492 -0.641701
  C 4.378215 -0.084856 -1.155085
  C 4.974691 -0.468583 -2.332065
  C 4.608506 -1.608108 -3.176432
  H 3.802295 -2.209630 -2.771954
  H 5.778441 0.151358 -2.704316
  H 0.790534 1.109091 1.004750
  H 0.455683 -0.250504 -0.083815
  H 1.270170 1.154386 -0.719578
  H 4.173793 0.576003 1.611700
  H 3.328723 -0.818917 2.176372
  H 2.677256 -1.373236 -1.194878
  H 4.817110 0.754975 -0.632524
  H 5.486689 -2.239227 -3.322710
  H 4.338441 -1.255218 -4.173470
 19
 17.560807
  C 1.244079 0.660820 0.156953
  C 2.528062 0.024585 0.447150
  C 3.139266 0.069434 1.770254
  H 2.570684 0.661178 2.480148
  C 3.214450 -0.582087 -0.639049
  C 4.301858 0.005342 -1.255580
  C 4.912657 -0.435342 -2.406443
  C 4.624336 -1.673726 -3.139393
  H 3.875388 -2.296048 -2.661530
  H 5.668305 0.203462 -2.841625
  H 0.876336 1.255403 0.986255
  H 0.482683 -0.076095 -0.112206
  H 1.386026 1.271749 -0.737137
  H 4.170920 0.426194 1.710836
  H 3.233849 -0.953675 2.143513
  H 2.765442 -1.468133 -1.071716
  H 4.666737 0.930523 -0.829082
  H 5.545191 -2.248037 -3.252370
  H 4.302694 -1.433471 -4.154576
 19
 24.971218
  C 1.356545 0.814905 0.146334
  C 2.553765 0.058055 0.466599
  C 3.072448 -0.034073 1.818862
  H 2.507896 0.557878 2.531862
  C 3.270680 -0.566167 -0.619121
  C 4.224312 0.083396 -1.370565
  C 4.841296 -0.416551 -2.500414
  C 4.616516 -1.732097 -3.119685
  H 3.918717 -2.353919 -2.569165
  H 5.543574 0.228655 -3.008802
  H 0.997870 1.413000 0.978068
  H 0.562467 0.123520 -0.155453
  H 1.525772 1.422023 -0.744790
  H 4.129373 0.242618 1.832826
  H 3.080018 -1.080951 2.139072
  H 2.960268 -1.566333 -0.892082
  H 4.519691 1.073331 -1.048913
  H 5.567392 -2.259649 -3.212565
  H 4.249839 -1.600487 -4.139151
 19
 17.717218
  C 1.500071 0.918114 0.085680
  C 2.620483 0.063497 0.482507
  C 2.998907 -0.104862 1.883603
  H 2.401608 0.508503 2.549577
  C 3.367504 -0.559585 -0.558289
  C 4.162521 0.145379 -1.454988
  C 4.739962 -0.381401 -2.586251
  C 4.560959 -1.736661 -3.123144
  H 3.931948 -2.369796 -2.507256
  H 5.375670 0.270723 -3.169284
  H 1.134751 1.546746 0.891881
  H 0.686886 0.261963 -0.240407
  H 1.735379 1.490847 -0.815057
  H 4.060053 0.119678 1.998802
  H 2.913934 -1.152224 2.190068
  H 3.236118 -1.625052 -0.697155
  H 4.385672 1.174215 -1.210479
  H 5.536725 -2.209195 -3.248351
  H 4.133021 -1.676734 -4.125038
 19
 9.645265
  C 1.622032 1.029422 0.101720
  C 2.660024 0.069172 0.480358
  C 2.926173 -0.231292 1.892314
  H 2.312778 0.364580 2.559748
  C 3.431843 -0.525830 -0.530192
  C 4.081396 0.178772 -1.546555
  C 4.653443 -0.395320 -2.651696
  C 4.554035 -1.795478 -3.071495
  H 3.991726 -2.420707 -2.386620
  H 5.207645 0.251959 -3.317978
  H 1.310842 1.667423 0.922684
  H 0.749684 0.449222 -0.218846
  H 1.894188 1.597171 -0.786747
  H 3.982450 -0.065082 2.105962
  H 2.761106 -1.290203 2.106197
  H 3.500440 -1.607043 -0.532173
  H 4.204299 1.243240 -1.403947
  H 5.556755 -2.206411 -3.203551
  H 4.092002 -1.841535 -4.059151
 19
 3.913717
  C 1.746898 1.179790 0.145530
  C 2.712789 0.127275 0.471990
  C 2.832676 -0.350064 1.856300
  H 2.215052 0.219607 2.538760
  C 3.489883 -0.455558 -0.527674
  C 4.010100 0.211699 -1.649944
  C 4.573581 -0.414730 -2.730980
  C 4.567161 -1.854854 -3.021699
  H 4.093038 -2.459907 -2.253910
  H 5.040285 0.209798 -3.480071
  H 1.530009 1.828178 0.991806
  H 0.809352 0.682635 -0.119579
  H 2.025173 1.740571 -0.740902
  H 3.871406 -0.303672 2.176983
  H 2.558126 -1.402846 1.923951
  H 3.741129 -1.503612 -0.405849
  H 4.026705 1.291422 -1.625109
  H 5.593253 -2.197514 -3.185949
  H 4.060327 -2.023133 -3.976064
 19
 3.916303
  C 1.823013 1.145686 0.065179
  C 2.791223 0.131017 0.499433
  C 2.748468 -0.389079 1.874069
  H 2.116576 0.214771 2.517368
  C 3.669605 -0.405465 -0.427948
  C 4.083922 0.246475 -1.607406
  C 4.529787 -0.393590 -2.750979
  C 4.487236 -1.835478 -3.011518
  H 4.146276 -2.421624 -2.165023
  H 4.890515 0.222429 -3.566910
  H 1.589663 1.868057 0.843171
  H 0.884178 0.629241 -0.168554
  H 2.142437 1.608355 -0.865551
  H 3.750645 -0.458859 2.293420
  H 2.358781 -1.411250 1.871287
  H 4.085718 -1.383878 -0.221357
  H 4.102544 1.329478 -1.600636
  H 5.475404 -2.173942 -3.331972
  H 3.836306 -2.029083 -3.867785
