 26
 0.000000
  H 1.441341 0.158297 0.449277
  C 2.520149 0.145370 0.415029
  C 3.268142 0.618062 1.587825
  C 2.401176 1.084850 2.749759
  H 3.019825 1.417666 3.575324
  C 3.092394 -0.323302 -0.751134
  C 4.468943 -0.414636 -0.979896
  C 5.135582 -0.870630 -2.117482
  C 4.614248 -1.388457 -3.409475
  C 3.120457 -1.499134 -3.687157
  C 2.892177 -2.060737 -5.088426
  O 6.451538 -0.871914 -2.121139
  H 3.927677 1.439232 1.282634
  H 3.929236 -0.184413 1.936128
  H 1.762458 0.277666 3.102304
  H 1.760923 1.910224 2.445325
  H 2.415752 -0.635604 -1.527363
  H 5.100490 -0.085890 -0.160834
  H 5.068114 -2.377640 -3.542501
  H 5.068890 -0.765545 -4.188919
  H 2.649072 -0.517363 -3.631159
  H 2.648344 -2.170038 -2.968696
  H 3.330482 -1.414059 -5.844835
  H 1.827334 -2.141531 -5.291177
  H 3.329828 -3.051154 -5.188610
  H 6.843096 -0.539368 -1.290420
 26
 4.422633
  H 1.449690 -0.066244 0.605399
  C 2.525107 -0.009108 0.491467
  C 3.253201 0.707492 1.546375
  C 2.352157 1.218654 2.668556
  H 2.933660 1.772026 3.399341
  C 3.072166 -0.587006 -0.631707
  C 4.448303 -0.614650 -0.894905
  C 5.125875 -1.032323 -2.043059
  C 4.608858 -1.430766 -3.374444
  C 3.115153 -1.509907 -3.659683
  C 2.879773 -1.859085 -5.128300
  O 6.438299 -1.132567 -1.994311
  H 3.804775 1.545377 1.108419
  H 4.022303 0.049400 1.967315
  H 1.865063 0.394910 3.178598
  H 1.583671 1.876964 2.277312
  H 2.394204 -1.064260 -1.317957
  H 5.103421 -0.289895 -0.098717
  H 5.069677 -2.396282 -3.610463
  H 5.066028 -0.726287 -4.086193
  H 2.635029 -0.555420 -3.450356
  H 2.652098 -2.284206 -3.044537
  H 3.291496 -1.096224 -5.778272
  H 1.813899 -1.941135 -5.331242
  H 3.346203 -2.811514 -5.380021
  H 6.984363 -0.487820 -1.514591
 26
 15.549776
  H 1.431824 -0.140752 0.644302
  C 2.501201 -0.047222 0.507317
  C 3.230395 0.723198 1.525556
  C 2.340493 1.267293 2.630594
  H 2.926290 1.859688 3.333992
  C 3.052699 -0.654693 -0.597863
  C 4.424771 -0.661330 -0.868694
  C 5.128460 -1.067293 -2.006680
  C 4.632223 -1.440044 -3.354586
  C 3.137006 -1.485336 -3.650316
  C 2.901938 -1.798106 -5.120831
  O 6.428432 -1.138796 -1.881157
  H 3.760834 1.546994 1.048213
  H 4.012894 0.091103 1.961114
  H 1.869572 0.458486 3.183076
  H 1.556956 1.900701 2.222206
  H 2.389375 -1.184485 -1.259093
  H 5.105479 -0.319596 -0.100943
  H 5.072191 -2.413029 -3.590598
  H 5.104327 -0.735095 -4.047725
  H 2.672313 -0.528038 -3.410424
  H 2.654272 -2.263071 -3.051941
  H 3.317223 -1.019798 -5.759339
  H 1.838428 -1.872453 -5.327162
  H 3.359887 -2.740009 -5.393648
  H 7.226064 -0.595969 -1.875594
 26
 18.743626
  H 1.413909 -0.170879 0.665955
  C 2.487730 -0.099477 0.537774
  C 3.217962 0.716520 1.517085
  C 2.327431 1.335605 2.587354
  H 2.915950 1.959705 3.256350
  C 3.047574 -0.753374 -0.533488
  C 4.408391 -0.716782 -0.828457
  C 5.122060 -1.079286 -1.989764
  C 4.654358 -1.402842 -3.365815
  C 3.153634 -1.477538 -3.641137
  C 2.894449 -1.747877 -5.123837
  O 6.399451 -1.097364 -1.780567
  H 3.751083 1.517550 0.989463
  H 4.005083 0.112277 1.979577
  H 1.857882 0.562371 3.190692
  H 1.543903 1.943294 2.144905
  H 2.389854 -1.308955 -1.184865
  H 5.159551 -0.434109 -0.101178
  H 5.110416 -2.362433 -3.632139
  H 5.098427 -0.652793 -4.032286
  H 2.666084 -0.546055 -3.351257
  H 2.707147 -2.284854 -3.066952
  H 3.280447 -0.943492 -5.743595
  H 1.825125 -1.839432 -5.313493
  H 3.369798 -2.672900 -5.435469
  H 7.296041 -0.816703 -1.990986
 26
 25.060499
  H 1.423795 -0.353913 0.738875
  C 2.480287 -0.219074 0.562142
  C 3.192278 0.724403 1.438115
  C 2.295624 1.394074 2.462775
  H 2.879801 2.065334 3.092029
  C 3.058191 -0.917818 -0.468208
  C 4.417941 -0.831647 -0.796176
  C 5.136564 -1.141199 -1.984453
  C 4.719221 -1.382726 -3.388732
  C 3.206924 -1.366935 -3.613129
  C 2.856863 -1.641708 -5.068180
  O 6.386129 -1.077372 -1.704491
  H 3.678334 1.506901 0.833977
  H 4.007078 0.215811 1.943673
  H 1.832621 0.662400 3.111048
  H 1.513854 1.965812 1.980287
  H 2.461432 -1.626444 -1.008441
  H 5.268438 -0.556663 -0.171902
  H 5.124694 -2.354011 -3.659922
  H 5.164923 -0.581833 -3.963380
  H 2.753143 -0.446446 -3.260439
  H 2.767331 -2.183137 -3.022003
  H 3.244620 -0.861902 -5.727153
  H 1.776884 -1.646709 -5.188933
  H 3.235878 -2.615146 -5.387688
  H 7.289294 -0.999983 -2.024152
 26
 65.159769
  H 1.350698 -0.242371 0.890635
  C 2.401971 -0.163705 0.653688
  C 3.211052 0.729320 1.500602
  C 2.395753 1.461012 2.556643
  H 3.035049 2.102586 3.156249
  C 2.891798 -0.896895 -0.397560
  C 4.208269 -0.837856 -0.836037
  C 4.933340 -1.104738 -1.977171
  C 4.665520 -1.350010 -3.406417
  C 3.173874 -1.478113 -3.727910
  C 2.954689 -1.697720 -5.219368
  O 6.216665 -0.990590 -1.573289
  H 3.727663 1.447952 0.855477
  H 3.998959 0.143541 1.983211
  H 1.902034 0.754135 3.218628
  H 1.626787 2.075370 2.093984
  H 2.225505 -1.611102 -0.867588
  H 5.526890 -0.637178 -0.371385
  H 5.180202 -2.272560 -3.693517
  H 5.108633 -0.546394 -4.002972
  H 2.665047 -0.563017 -3.415272
  H 2.746786 -2.304484 -3.158477
  H 3.358512 -0.866312 -5.791236
  H 1.893813 -1.780298 -5.440432
  H 3.446969 -2.608747 -5.554532
  H 7.167036 -1.000737 -1.797678
 26
 65.188967
  H 1.336482 -0.276522 1.002643
  C 2.373853 -0.218959 0.719902
  C 3.236439 0.710889 1.495686
  C 2.454999 1.498297 2.536933
  H 3.116151 2.144851 3.109427
  C 2.802579 -0.955077 -0.332922
  C 4.081241 -0.908525 -0.867028
  C 4.812411 -1.112758 -1.922932
  C 4.627709 -1.340742 -3.375007
  C 3.161154 -1.432788 -3.784755
  C 3.033136 -1.690973 -5.277314
  O 6.207708 -0.955455 -1.454274
  H 3.718385 1.401992 0.796411
  H 4.027953 0.140873 1.989236
  H 1.958317 0.827229 3.240422
  H 1.690086 2.117109 2.071265
  H 2.113549 -1.685178 -0.749405
  H 5.825015 -0.731043 -0.507016
  H 5.134123 -2.279975 -3.626085
  H 5.115065 -0.543208 -3.941683
  H 2.650054 -0.503006 -3.530544
  H 2.678311 -2.247721 -3.239349
  H 3.486596 -0.889606 -5.859624
  H 1.983458 -1.743113 -5.566262
  H 3.496006 -2.634194 -5.559065
  H 7.157445 -0.978070 -1.684513
 26
 56.874140
  H 1.296283 -0.228623 1.135847
  C 2.308643 -0.177209 0.766932
  C 3.220965 0.758568 1.468272
  C 2.545792 1.520385 2.599574
  H 3.251781 2.191325 3.081931
  C 2.653737 -0.959856 -0.281439
  C 3.873158 -0.985478 -0.913981
  C 4.659532 -1.169199 -1.908897
  C 4.609739 -1.373346 -3.364511
  C 3.162425 -1.473762 -3.856646
  C 3.126314 -1.696139 -5.367767
  O 6.163508 -1.102074 -1.391291
  H 3.617127 1.469391 0.736435
  H 4.073094 0.207586 1.876046
  H 2.165439 0.835861 3.353566
  H 1.713418 2.111213 2.219826
  H 1.926234 -1.683621 -0.641109
  H 5.921265 -0.853253 -0.474970
  H 5.138860 -2.300289 -3.596524
  H 5.118755 -0.559148 -3.881664
  H 2.624290 -0.558274 -3.607540
  H 2.662574 -2.300257 -3.356753
  H 3.600212 -0.869939 -5.896090
  H 2.099242 -1.771120 -5.711542
  H 3.643399 -2.612208 -5.634265
  H 7.053910 -0.812440 -1.645814
 26
 50.580830
  H 1.370213 -0.337363 1.637981
  C 2.261838 -0.256579 1.032820
  C 3.235165 0.788594 1.392101
  C 2.805084 1.639016 2.579350
  H 3.556124 2.394666 2.797941
  C 2.413238 -1.120898 -0.013521
  C 3.446309 -1.109096 -0.920314
  C 4.151353 -1.207173 -1.934208
  C 4.422003 -1.332146 -3.336006
  C 3.111435 -1.498440 -4.132646
  C 3.411379 -1.665938 -5.615071
  O 6.078982 -1.099768 -1.184706
  H 3.403493 1.422186 0.512150
  H 4.204073 0.325078 1.606795
  H 2.675197 1.026183 3.470276
  H 1.862676 2.144252 2.378046
  H 1.735988 -1.962520 -0.101635
  H 5.746802 -0.833587 -0.319105
  H 5.036364 -2.225980 -3.480162
  H 4.982765 -0.470670 -3.703932
  H 2.482805 -0.620747 -3.979502
  H 2.569340 -2.371392 -3.769013
  H 3.929317 -0.794687 -6.010417
  H 2.486154 -1.790095 -6.172005
  H 4.028769 -2.542730 -5.793582
  H 6.990282 -0.807315 -1.312810
 26
 47.977113
  H 1.478361 -0.400183 1.840909
  C 2.289451 -0.319518 1.140695
  C 3.244420 0.771117 1.341565
  C 2.931919 1.650875 2.540207
  H 3.669885 2.442014 2.634141
  C 2.328910 -1.211922 0.092935
  C 3.242767 -1.212141 -0.932640
  C 3.922231 -1.222657 -1.960752
  C 4.309151 -1.282907 -3.326331
  C 3.087466 -1.535369 -4.227352
  C 3.517673 -1.639086 -5.677826
  O 6.075489 -1.016832 -1.140476
  H 3.272047 1.371416 0.426573
  H 4.255550 0.359258 1.444070
  H 2.941009 1.073079 3.459023
  H 1.952737 2.112856 2.439257
  H 1.624227 -2.033135 0.069372
  H 5.615669 -1.028759 -0.295410
  H 5.005654 -2.122286 -3.441824
  H 4.831341 -0.375069 -3.627664
  H 2.387432 -0.713133 -4.109093
  H 2.589714 -2.456274 -3.923477
  H 3.999975 -0.722924 -6.008258
  H 2.649856 -1.809217 -6.308818
  H 4.205286 -2.463264 -5.823397
  H 6.893958 -0.521967 -0.991793
