 25
 0.000000
  C 0.982104 0.157067 0.442268
  C 2.453430 0.138821 0.396427
  C 3.238678 0.603179 1.551555
  H 2.638155 0.938800 2.387134
  C 3.051767 -0.329385 -0.769029
  C 4.433261 -0.415781 -0.984639
  C 5.091434 -0.865234 -2.105153
  C 4.610848 -1.383420 -3.397094
  C 3.126909 -1.510634 -3.714773
  C 2.930344 -2.074350 -5.120425
  H 6.172553 -0.854782 -2.079494
  H 0.593056 0.534975 1.382566
  H 0.590187 -0.848559 0.281620
  H 0.589865 0.771669 -0.369598
  H 3.894272 1.420330 1.242721
  H 3.894635 -0.200161 1.893979
  H 2.388063 -0.645797 -1.556829
  H 5.064617 -0.088099 -0.168408
  H 5.079228 -2.369140 -3.522557
  H 5.079529 -0.757800 -4.168941
  H 2.645387 -0.532676 -3.668578
  H 2.645171 -2.185546 -3.005675
  H 3.377975 -1.424270 -5.868775
  H 1.870369 -2.164184 -5.344790
  H 3.377817 -3.061434 -5.212187
 25
 -0.174169
  C 0.990813 -0.007506 0.535294
  C 2.453621 0.082623 0.400415
  C 3.232612 0.826878 1.404272
  H 2.595527 1.259832 2.168591
  C 3.045767 -0.529115 -0.700855
  C 4.423841 -0.570639 -0.934131
  C 5.079399 -1.066137 -2.034680
  C 4.609160 -1.511540 -3.348594
  C 3.129665 -1.508761 -3.709765
  C 2.937342 -1.880309 -5.178704
  H 6.158627 -1.111257 -1.950122
  H 0.624630 0.470713 1.437482
  H 0.673252 -1.051231 0.522620
  H 0.506486 0.448655 -0.330016
  H 3.809390 1.621986 0.932097
  H 3.959537 0.171657 1.884715
  H 2.388429 -1.036312 -1.389092
  H 5.059550 -0.188673 -0.147938
  H 5.022805 -2.518083 -3.512917
  H 5.153522 -0.901053 -4.085843
  H 2.705295 -0.518091 -3.540931
  H 2.592907 -2.236445 -3.100543
  H 3.437742 -1.168111 -5.831018
  H 1.880873 -1.883348 -5.434015
  H 3.335357 -2.871087 -5.385997
 25
 0.967392
  C 1.013351 -0.187784 0.611168
  C 2.445562 0.038671 0.362126
  C 3.166216 1.080325 1.111327
  H 2.527414 1.573908 1.836361
  C 3.072141 -0.708901 -0.625263
  C 4.455360 -0.763434 -0.852724
  C 5.093471 -1.288883 -1.947379
  C 4.610296 -1.583376 -3.299954
  C 3.145150 -1.391909 -3.666083
  C 2.933696 -1.616779 -5.160841
  H 6.160041 -1.449577 -1.839469
  H 0.630951 0.426514 1.419615
  H 0.831143 -1.239859 0.835764
  H 0.437267 0.018527 -0.292948
  H 3.571412 1.828980 0.429476
  H 4.026562 0.652483 1.628021
  H 2.472191 -1.396951 -1.199739
  H 5.097424 -0.406136 -0.056485
  H 4.920864 -2.606782 -3.550189
  H 5.225338 -0.966275 -3.972196
  H 2.826565 -0.379383 -3.411111
  H 2.521290 -2.102450 -3.123881
  H 3.523487 -0.917428 -5.749345
  H 1.887950 -1.475287 -5.421619
  H 3.217375 -2.627179 -5.446697
 25
 3.805524
  C 1.038655 -0.287899 0.619466
  C 2.443544 -0.020865 0.272392
  C 3.096458 1.219119 0.721662
  H 2.469164 1.789238 1.399021
  C 3.113581 -0.902564 -0.553453
  C 4.508466 -0.975325 -0.754821
  C 5.135927 -1.448472 -1.869309
  C 4.625191 -1.575729 -3.240938
  C 3.159874 -1.293196 -3.539700
  C 2.897371 -1.344856 -5.042148
  H 6.189495 -1.686874 -1.787863
  H 0.640619 0.444432 1.314268
  H 0.935643 -1.287724 1.042380
  H 0.422387 -0.285870 -0.281720
  H 3.345520 1.846805 -0.135046
  H 4.047980 0.994043 1.205029
  H 2.581673 -1.746139 -0.971808
  H 5.142383 -0.689927 0.077459
  H 4.888525 -2.575907 -3.609174
  H 5.249736 -0.908234 -3.852721
  H 2.888374 -0.303971 -3.164184
  H 2.521688 -2.030848 -3.055234
  H 3.511674 -0.620640 -5.572664
  H 1.855178 -1.119847 -5.253759
  H 3.115331 -2.333091 -5.440779
 25
 9.165629
  C 1.107073 -0.416369 0.734693
  C 2.433366 -0.105265 0.177031
  C 2.972461 1.258395 0.261295
  H 2.355875 1.903188 0.881367
  C 3.139221 -1.071978 -0.516095
  C 4.544659 -1.202277 -0.690862
  C 5.173127 -1.580526 -1.822888
  C 4.653589 -1.519930 -3.197104
  C 3.190552 -1.169208 -3.417565
  C 2.869876 -1.082132 -4.906807
  H 6.211783 -1.882248 -1.770205
  H 0.703877 0.413141 1.310521
  H 1.153570 -1.306631 1.360422
  H 0.406620 -0.648740 -0.071404
  H 3.044984 1.703057 -0.731049
  H 3.990765 1.231288 0.649551
  H 2.679454 -2.035383 -0.745938
  H 5.152778 -1.049864 0.191497
  H 4.875637 -2.478938 -3.685306
  H 5.287601 -0.801253 -3.734511
  H 2.967916 -0.205682 -2.951851
  H 2.546019 -1.923197 -2.967438
  H 3.501102 -0.346756 -5.401140
  H 1.833003 -0.790794 -5.056267
  H 3.022578 -2.043862 -5.392884
 25
 22.667164
  C 1.202804 -0.571266 0.764287
  C 2.461087 -0.144075 0.106330
  C 2.760498 1.303575 -0.035847
  H 2.019181 1.911717 0.472401
  C 3.304159 -1.055475 -0.414823
  C 4.683265 -1.344425 -0.652659
  C 5.203926 -1.719834 -1.847106
  C 4.628128 -1.540668 -3.189686
  C 3.214028 -0.992408 -3.311511
  C 2.798820 -0.879040 -4.775914
  H 6.201647 -2.141815 -1.845061
  H 0.671743 0.276505 1.187186
  H 1.407106 -1.292996 1.553449
  H 0.546961 -1.059671 0.042857
  H 2.775534 1.595203 -1.084489
  H 3.749380 1.518244 0.366581
  H 3.063811 -2.131190 -0.524635
  H 5.344032 -1.315823 0.207009
  H 4.698907 -2.497208 -3.723347
  H 5.318839 -0.884776 -3.738142
  H 3.165914 -0.003126 -2.853680
  H 2.506856 -1.644165 -2.800422
  H 3.482060 -0.236748 -5.327520
  H 1.800567 -0.456084 -4.856863
  H 2.789486 -1.856169 -5.253311
 25
 39.577573
  C 1.305343 -0.720068 0.806997
  C 2.502101 -0.131729 0.127712
  C 2.566423 1.358428 -0.056443
  H 1.742012 1.843164 0.456787
  C 3.459373 -0.890453 -0.363080
  C 4.763215 -1.347676 -0.689804
  C 5.214142 -1.764170 -1.922366
  C 4.602113 -1.571003 -3.242277
  C 3.219420 -0.935378 -3.304513
  C 2.747575 -0.798728 -4.748980
  H 6.178631 -2.254055 -1.929699
  H 0.669433 0.060503 1.208715
  H 1.610898 -1.374246 1.619421
  H 0.716763 -1.307051 0.104816
  H 2.509442 1.615120 -1.112363
  H 3.507320 1.747904 0.328336
  H 3.447679 -2.056976 -0.459051
  H 5.478975 -1.373033 0.125888
  H 4.590366 -2.535679 -3.765639
  H 5.305361 -0.963205 -3.828964
  H 3.252495 0.053880 -2.846445
  H 2.497191 -1.542847 -2.758470
  H 3.447810 -0.206749 -5.334495
  H 1.778424 -0.308195 -4.788367
  H 2.649821 -1.774332 -5.219929
 25
 50.572195
  C 1.392447 -0.851042 0.795436
  C 2.552266 -0.149906 0.142577
  C 2.459432 1.341981 -0.066043
  H 1.567033 1.731528 0.411361
  C 3.584513 -0.794520 -0.308714
  C 4.817260 -1.334019 -0.704753
  C 5.237114 -1.738552 -1.994381
  C 4.571224 -1.519498 -3.285101
  C 3.178395 -0.899927 -3.260269
  C 2.633033 -0.732136 -4.675179
  H 6.203605 -2.218990 -2.032147
  H 0.669031 -0.130247 1.160931
  H 1.736107 -1.457396 1.629625
  H 0.888610 -1.500182 0.081868
  H 2.406687 1.570473 -1.128514
  H 3.333788 1.843857 0.339852
  H 3.913189 -2.134077 -0.531043
  H 5.588702 -1.354294 0.062395
  H 4.547944 -2.467215 -3.837646
  H 5.235963 -0.876786 -3.880338
  H 3.221404 0.077672 -2.779121
  H 2.492627 -1.533931 -2.696936
  H 3.297001 -0.116618 -5.278251
  H 1.657144 -0.253464 -4.654186
  H 2.524128 -1.696866 -5.165854
 25
 51.914286
  C 1.382134 -0.861878 0.808663
  C 2.547772 -0.174000 0.137734
  C 2.456242 1.323252 -0.094998
  H 1.554347 1.707427 0.372577
  C 3.592826 -0.820384 -0.287764
  C 4.814809 -1.367258 -0.688084
  C 5.248589 -1.728242 -2.025175
  C 4.564274 -1.469667 -3.296540
  C 3.146935 -0.904711 -3.232204
  C 2.579748 -0.696327 -4.634230
  H 6.232006 -2.167934 -2.084152
  H 0.651201 -0.133676 1.144918
  H 1.726526 -1.438677 1.666176
  H 0.882751 -1.533610 0.109300
  H 2.411885 1.547602 -1.162069
  H 3.329508 1.828017 0.316793
  H 4.210987 -2.337678 -0.706246
  H 5.605740 -1.356801 0.061555
  H 4.567913 -2.390162 -3.895728
  H 5.200450 -0.772021 -3.863846
  H 3.158285 0.054395 -2.712159
  H 2.491632 -1.587651 -2.688036
  H 3.205760 -0.017465 -5.211435
  H 1.579465 -0.270878 -4.583562
  H 2.516851 -1.642246 -5.169361
 25
 51.911293
  C 1.425999 -0.862005 0.841576
  C 2.563315 -0.135281 0.162982
  C 2.417518 1.356525 -0.055573
  H 1.503343 1.713906 0.406311
  C 3.592787 -0.763371 -0.301307
  C 4.793229 -1.295734 -0.701835
  C 5.208044 -1.764900 -2.015133
  C 4.540977 -1.506964 -3.301916
  C 3.138291 -0.910646 -3.243727
  C 2.576983 -0.699784 -4.646116
  H 6.179195 -2.234208 -2.051947
  H 0.673471 -0.157620 1.179314
  H 1.793294 -1.423696 1.697937
  H 0.955455 -1.555681 0.147871
  H 2.375416 1.585669 -1.119223
  H 3.268524 1.886737 0.367955
  H 4.331797 -2.365314 -0.938651
  H 5.579943 -1.294026 0.052068
  H 4.531808 -2.425678 -3.901033
  H 5.196349 -0.822946 -3.859848
  H 3.170566 0.049303 -2.726841
  H 2.468102 -1.572142 -2.692495
  H 3.210683 -0.029668 -5.222947
  H 1.581359 -0.265064 -4.597382
  H 2.504722 -1.644667 -5.180806
 25
 45.062469
  C 1.413045 -0.832263 0.792593
  C 2.566977 -0.104626 0.148788
  C 2.452094 1.394002 -0.015025
  H 1.543455 1.754232 0.454734
  C 3.586165 -0.743528 -0.323804
  C 4.775357 -1.261100 -0.693273
  C 5.204488 -1.778523 -1.992778
  C 4.538524 -1.497082 -3.289632
  C 3.105884 -0.983954 -3.228007
  C 2.549167 -0.751789 -4.628874
  H 6.202232 -2.189621 -2.040681
  H 0.671596 -0.126791 1.151309
  H 1.757220 -1.434462 1.630007
  H 0.941261 -1.492000 0.067898
  H 2.426907 1.666806 -1.068145
  H 3.309561 1.884123 0.438976
  H 4.510163 -2.469998 -1.204026
  H 5.542779 -1.287130 0.079001
  H 4.586576 -2.389248 -3.923381
  H 5.159075 -0.754654 -3.808762
  H 3.078074 -0.043797 -2.675587
  H 2.467321 -1.701373 -2.710256
  H 3.147277 -0.022180 -5.169936
  H 1.529103 -0.379782 -4.577044
  H 2.540295 -1.676461 -5.201745
 25
 31.985532
  C 1.439432 -0.776688 0.815007
  C 2.556084 -0.065763 0.120350
  C 2.443438 1.410421 -0.098418
  H 1.547764 1.798777 0.374743
  C 3.584926 -0.744917 -0.350327
  C 4.737862 -1.264477 -0.677786
  C 5.169413 -1.880708 -1.970588
  C 4.541882 -1.488893 -3.274214
  C 3.090581 -1.050794 -3.198312
  C 2.537801 -0.699676 -4.575021
  H 6.193598 -2.223432 -2.017565
  H 0.694837 -0.073156 1.172322
  H 1.803244 -1.360215 1.659059
  H 0.969269 -1.466652 0.115940
  H 2.407510 1.660635 -1.157742
  H 3.317655 1.902483 0.323509
  H 4.549155 -2.690784 -1.462547
  H 5.486846 -1.350476 0.105645
  H 4.640786 -2.321415 -3.977175
  H 5.139832 -0.679073 -3.710237
  H 3.017487 -0.171674 -2.552430
  H 2.478223 -1.841717 -2.761733
  H 3.107950 0.106796 -5.030200
  H 1.501265 -0.380876 -4.501041
  H 2.577453 -1.560488 -5.238347
 25
 17.796653
  C 1.437157 -0.712709 0.708712
  C 2.555972 -0.013806 0.037497
  C 2.492216 1.444538 -0.198635
  H 1.594695 1.871877 0.231285
  C 3.619271 -0.732541 -0.387426
  C 4.738923 -1.287410 -0.673581
  C 5.136934 -2.005077 -1.941226
  C 4.548685 -1.447699 -3.223877
  C 3.053424 -1.208805 -3.142288
  C 2.469943 -0.632413 -4.424171
  H 6.202067 -2.198953 -1.989945
  H 0.682376 -0.017352 1.059647
  H 1.795164 -1.311980 1.546101
  H 0.979167 -1.416305 0.011797
  H 2.520950 1.684816 -1.260754
  H 3.367502 1.922879 0.241283
  H 4.612524 -2.940146 -1.685227
  H 5.478417 -1.392664 0.114534
  H 4.753881 -2.157336 -4.030937
  H 5.066718 -0.521979 -3.496421
  H 2.871583 -0.501015 -2.319843
  H 2.538248 -2.139011 -2.889596
  H 2.950937 0.307759 -4.685485
  H 1.402525 -0.453208 -4.316131
  H 2.611659 -1.325788 -5.250184
 25
 15.943840
  C 1.465109 -0.724578 0.750574
  C 2.563904 0.026788 0.110682
  C 2.491739 1.498351 -0.033003
  H 1.581090 1.890740 0.408700
  C 3.638693 -0.637228 -0.358685
  C 4.748031 -1.159400 -0.733322
  C 4.937876 -2.148562 -1.863220
  C 4.497655 -1.560926 -3.203314
  C 3.026301 -1.180356 -3.243457
  C 2.610656 -0.626426 -4.602373
  H 5.977252 -2.460844 -1.898002
  H 0.704318 -0.060379 1.148087
  H 1.859639 -1.362163 1.544157
  H 0.996494 -1.403938 0.034650
  H 2.539087 1.784346 -1.085554
  H 3.356637 1.972396 0.435529
  H 4.294532 -2.993669 -1.621962
  H 5.639675 -0.995119 -0.134817
  H 4.670975 -2.337076 -3.954232
  H 5.124166 -0.706658 -3.467317
  H 2.831632 -0.414151 -2.486685
  H 2.414809 -2.052581 -3.001950
  H 3.199896 0.250778 -4.861332
  H 1.560485 -0.344876 -4.597110
  H 2.756731 -1.373553 -5.379409
 25
 17.223375
  C 1.602178 -0.776295 1.069893
  C 2.528540 0.022096 0.241195
  C 2.291829 1.467244 0.025879
  H 1.408001 1.803965 0.557359
  C 3.582783 -0.571602 -0.340916
  C 4.669507 -1.080621 -0.808481
  C 4.722979 -2.206114 -1.811813
  C 4.457027 -1.682988 -3.230242
  C 3.085184 -1.047969 -3.413705
  C 2.880360 -0.577074 -4.850894
  H 5.703811 -2.669781 -1.777279
  H 0.821544 -0.158261 1.500788
  H 2.156698 -1.282256 1.862039
  H 1.143032 -1.571037 0.479977
  H 2.183646 1.673266 -1.040000
  H 3.151605 2.052769 0.354471
  H 3.934169 -2.897058 -1.525859
  H 5.628126 -0.746391 -0.423394
  H 4.522671 -2.554805 -3.886597
  H 5.239286 -0.982866 -3.526644
  H 2.981884 -0.187183 -2.751804
  H 2.307966 -1.770539 -3.157905
  H 3.632659 0.158854 -5.125460
  H 1.899568 -0.123390 -4.968560
  H 2.952329 -1.411046 -5.545411
