 17
 0.000000
  C 0.958445 -0.016458 -0.004781
  C 2.454821 0.000367 0.009770
  C 3.170312 0.812158 0.794392
  C 4.607375 0.829779 0.812056
  C 5.327813 1.646267 1.601209
  C 6.765622 1.661970 1.617093
  C 7.481322 2.470481 2.398533
  H 8.553395 2.490352 2.418250
  H 0.596195 -0.754690 -0.718504
  H 0.561614 0.955358 -0.296523
  H 0.563292 -0.278451 0.976921
  H 2.954206 -0.690153 -0.656321
  H 2.659270 1.498852 1.457519
  H 5.112228 0.140857 0.146742
  H 4.823647 2.335314 2.266645
  H 7.272157 0.973480 0.952198
  H 6.984746 3.161390 3.065769
 17
 3.571542
  C 0.962187 -0.013143 -0.040739
  C 2.432330 0.005886 0.002082
  C 3.152662 0.818448 0.784262
  C 4.588865 0.831871 0.818322
  C 5.314001 1.647430 1.601335
  C 6.750671 1.659532 1.628178
  C 7.470494 2.467387 2.403514
  H 8.546338 2.456143 2.405010
  H 0.564006 -0.764619 -0.713048
  H 0.523610 0.953684 -0.277163
  H 0.789610 -0.270956 0.983225
  H 2.953266 -0.681154 -0.653947
  H 2.645454 1.513654 1.443183
  H 5.094436 0.134434 0.161388
  H 4.811266 2.345823 2.258216
  H 7.248489 0.959427 0.968752
  H 6.999032 3.172846 3.068267
 17
 11.500230
  C 0.951801 -0.009089 -0.056013
  C 2.427349 0.018681 -0.016069
  C 3.145836 0.835283 0.765213
  C 4.575136 0.832125 0.818187
  C 5.300442 1.651545 1.595387
  C 6.741207 1.647001 1.639156
  C 7.461332 2.456360 2.406405
  H 8.529225 2.426963 2.414690
  H 0.528316 -0.776712 -0.700443
  H 0.481627 0.953713 -0.214178
  H 1.003744 -0.285460 0.980125
  H 2.966368 -0.659160 -0.670140
  H 2.640329 1.542215 1.413355
  H 5.080979 0.118428 0.178527
  H 4.796918 2.368842 2.235362
  H 7.237233 0.929373 0.996846
  H 6.992541 3.184581 3.058738
 17
 21.975659
  C 0.928335 -0.006259 -0.076972
  C 2.421272 0.018978 -0.010720
  C 3.138210 0.839118 0.768799
  C 4.564821 0.831422 0.823722
  C 5.293660 1.653398 1.596508
  C 6.743095 1.640842 1.642739
  C 7.472660 2.456502 2.409467
  H 8.532834 2.421036 2.419426
  H 0.497989 -0.778004 -0.701951
  H 0.443134 0.945457 -0.192313
  H 1.144181 -0.285811 0.937344
  H 2.969295 -0.659203 -0.656635
  H 2.632452 1.553050 1.411671
  H 5.069366 0.110554 0.189972
  H 4.790687 2.380126 2.232018
  H 7.237458 0.913874 1.005074
  H 7.005864 3.195264 3.058413
 17
 32.626348
  C 0.926691 -0.004751 -0.096497
  C 2.415151 0.025282 0.004045
  C 3.134950 0.852304 0.781794
  C 4.561033 0.837025 0.839623
  C 5.289857 1.655398 1.598683
  C 6.725271 1.633786 1.644105
  C 7.462558 2.452282 2.403241
  H 8.537732 2.410310 2.415054
  H 0.505825 -0.770831 -0.718806
  H 0.417280 0.945423 -0.163995
  H 1.264740 -0.310161 0.897458
  H 2.969557 -0.654592 -0.637512
  H 2.630630 1.571282 1.415011
  H 5.061193 0.109501 0.215315
  H 4.794818 2.387466 2.222968
  H 7.213199 0.897262 1.013463
  H 7.008255 3.188368 3.034592
 17
 40.177043
  C 0.910825 -0.002621 -0.111402
  C 2.405127 0.025258 0.010300
  C 3.126778 0.862839 0.782293
  C 4.554452 0.835393 0.849289
  C 5.296677 1.668470 1.603228
  C 6.732227 1.630814 1.656042
  C 7.474214 2.451861 2.399559
  H 8.547262 2.396541 2.416272
  H 0.498560 -0.742806 -0.770816
  H 0.381608 0.934516 -0.076595
  H 1.354010 -0.378063 0.835268
  H 2.962760 -0.659599 -0.626132
  H 2.621621 1.597495 1.397610
  H 5.052347 0.089979 0.240939
  H 4.806095 2.419388 2.210800
  H 7.213909 0.877170 1.042893
  H 7.024585 3.210231 3.017991
 17
 45.522100
  C 0.906317 -0.001203 -0.124660
  C 2.400479 0.028333 0.020543
  C 3.127022 0.879828 0.782820
  C 4.550301 0.838557 0.860461
  C 5.299593 1.678311 1.602936
  C 6.730173 1.624445 1.663059
  C 7.480948 2.450430 2.395264
  H 8.551934 2.381071 2.417160
  H 0.502276 -0.703653 -0.833763
  H 0.358298 0.909821 0.015839
  H 1.432642 -0.450388 0.779185
  H 2.948767 -0.662777 -0.600955
  H 2.621631 1.629334 1.379787
  H 5.045008 0.075357 0.269031
  H 4.814919 2.445965 2.193306
  H 7.205028 0.853632 1.066352
  H 7.038685 3.226508 2.998064
 17
 49.139023
  C 0.905393 0.002345 -0.135683
  C 2.396624 0.027668 0.029114
  C 3.126361 0.896146 0.777524
  C 4.546058 0.841363 0.869880
  C 5.299785 1.687864 1.600024
  C 6.732409 1.618668 1.671736
  C 7.488335 2.448432 2.391765
  H 8.563353 2.364762 2.421684
  H 0.503631 -0.646212 -0.889092
  H 0.338531 0.876297 0.125024
  H 1.499264 -0.525276 0.717963
  H 2.941672 -0.679851 -0.585028
  H 2.619261 1.662172 1.352271
  H 5.038622 0.061005 0.298615
  H 4.818399 2.472840 2.171510
  H 7.202490 0.830864 1.094014
  H 7.050634 3.244094 2.978169
 17
 52.870571
  C 0.906605 0.010768 -0.145116
  C 2.386939 0.027054 0.039864
  C 3.121064 0.904169 0.781725
  C 4.541299 0.844954 0.878643
  C 5.299851 1.692741 1.602385
  C 6.736590 1.617347 1.675932
  C 7.498595 2.446498 2.389272
  H 8.574626 2.354414 2.419003
  H 0.501772 -0.630818 -0.917135
  H 0.341178 0.849563 0.157260
  H 1.546543 -0.546532 0.693159
  H 2.938806 -0.694263 -0.577921
  H 2.613933 1.668707 1.343131
  H 5.030505 0.064508 0.318727
  H 4.821627 2.479541 2.163865
  H 7.203793 0.824136 1.105505
  H 7.069678 3.242010 2.965794
 17
 55.843126
  C 0.908720 0.015541 -0.161016
  C 2.393961 0.015699 0.045215
  C 3.133054 0.902855 0.783600
  C 4.543200 0.840014 0.880800
  C 5.306418 1.691418 1.602905
  C 6.731552 1.611666 1.674817
  C 7.498747 2.443156 2.385320
  H 8.569620 2.346974 2.413582
  H 0.503254 -0.614755 -0.923853
  H 0.331533 0.853569 0.178296
  H 1.592522 -0.565650 0.681067
  H 2.942134 -0.698149 -0.565875
  H 2.620657 1.675458 1.345504
  H 5.034944 0.049812 0.320436
  H 4.828202 2.486050 2.163089
  H 7.195873 0.813691 1.106988
  H 7.070045 3.249775 2.963151
 17
 58.429110
  C 0.909985 0.027936 -0.171584
  C 2.393004 0.001874 0.048054
  C 3.133232 0.898272 0.783432
  C 4.545307 0.834929 0.884611
  C 5.307617 1.690529 1.602372
  C 6.738518 1.610901 1.676066
  C 7.503942 2.444647 2.382660
  H 8.576761 2.345314 2.417674
  H 0.489427 -0.601387 -0.932131
  H 0.339638 0.850147 0.201630
  H 1.630827 -0.579817 0.677189
  H 2.943101 -0.704763 -0.570496
  H 2.620899 1.674170 1.336798
  H 5.035468 0.045546 0.332398
  H 4.831147 2.485838 2.156312
  H 7.202233 0.808398 1.115654
  H 7.075866 3.249461 2.956974
 17
 60.838773
  C 0.923819 0.046457 -0.180609
  C 2.398287 -0.010341 0.053055
  C 3.144120 0.894437 0.787399
  C 4.544922 0.829623 0.885981
  C 5.307594 1.687262 1.605490
  C 6.727868 1.604464 1.679572
  C 7.495585 2.441686 2.384310
  H 8.571717 2.349154 2.411284
  H 0.484300 -0.588564 -0.930987
  H 0.363689 0.857843 0.216594
  H 1.670660 -0.582389 0.681463
  H 2.952322 -0.717915 -0.575050
  H 2.629733 1.675203 1.343233
  H 5.048623 0.016777 0.319913
  H 4.825009 2.497719 2.166862
  H 7.193672 0.797101 1.111866
  H 7.073118 3.247067 2.943808
 17
 62.587296
  C 0.916032 0.058728 -0.204237
  C 2.398634 -0.028809 0.052985
  C 3.146006 0.883277 0.786342
  C 4.552034 0.822164 0.888212
  C 5.315952 1.680918 1.608472
  C 6.746417 1.599838 1.688222
  C 7.511774 2.439907 2.388315
  H 8.582073 2.357271 2.404097
  H 0.467379 -0.575786 -0.935864
  H 0.351932 0.864418 0.219831
  H 1.697334 -0.602525 0.689005
  H 2.948257 -0.721633 -0.577819
  H 2.629103 1.658984 1.337640
  H 5.042322 0.036919 0.343386
  H 4.844443 2.467749 2.151061
  H 7.209616 0.805985 1.126155
  H 7.084499 3.262026 2.941532
 17
 64.112692
  C 0.932262 0.076213 -0.219748
  C 2.400340 -0.047850 0.056505
  C 3.154470 0.878724 0.783149
  C 4.556817 0.818216 0.887571
  C 5.323056 1.683587 1.603060
  C 6.740830 1.606152 1.669024
  C 7.510803 2.443838 2.372291
  H 8.583462 2.333830 2.417644
  H 0.465871 -0.568769 -0.931551
  H 0.373128 0.871564 0.227595
  H 1.741471 -0.617610 0.710959
  H 2.948375 -0.732344 -0.577708
  H 2.631871 1.653051 1.332968
  H 5.044823 0.039186 0.351856
  H 4.833540 2.505925 2.164153
  H 7.200894 0.800016 1.118051
  H 7.085200 3.244567 2.950090
