 14
 0.000000
  H 1.440336 0.125454 0.359533
  C 2.520367 0.134166 0.383648
  C 3.183108 0.618452 1.590530
  H 2.474578 0.924762 2.351277
  C 3.165537 -0.320936 -0.747948
  C 4.556219 -0.382296 -0.899027
  C 5.148285 -0.847785 -2.059533
  H 4.557606 -1.187524 -2.904099
  O 6.416764 -0.932253 -2.273890
  H 3.842846 1.456854 1.354205
  H 3.841333 -0.151509 2.000321
  H 2.557568 -0.653304 -1.577471
  H 5.184952 -0.055451 -0.083185
  H 6.988714 -0.632975 -1.535007
 14
 1.470245
  H 1.455934 -0.079300 0.481057
  C 2.525234 0.058478 0.400202
  C 3.197230 0.672787 1.545497
  H 2.484304 0.989212 2.298627
  C 3.158351 -0.374231 -0.744338
  C 4.548935 -0.372682 -0.899962
  C 5.163600 -0.721314 -2.092034
  H 4.592291 -0.753463 -3.015412
  O 6.412500 -0.993912 -2.251117
  H 3.790868 1.534474 1.240006
  H 3.890071 -0.032053 2.007680
  H 2.555356 -0.770248 -1.550575
  H 5.152381 -0.067351 -0.055141
  H 6.957193 -0.965851 -1.438441
 14
 9.020758
  H 1.484890 -0.211972 0.575087
  C 2.537185 -0.013626 0.416935
  C 3.232615 0.695996 1.504456
  H 2.516054 0.995386 2.269818
  C 3.143459 -0.451813 -0.733918
  C 4.524116 -0.335150 -0.919849
  C 5.206502 -0.592700 -2.107004
  H 4.769103 -0.307818 -3.065010
  O 6.382351 -1.095782 -2.214992
  H 3.708672 1.607131 1.153827
  H 3.956888 0.051712 2.002811
  H 2.551341 -0.953282 -1.484842
  H 5.057400 0.101058 -0.083553
  H 6.810608 -1.372267 -1.375295
 14
 22.653785
  H 1.481937 -0.251494 0.619044
  C 2.531351 -0.085057 0.435893
  C 3.288207 0.708593 1.429371
  H 2.587294 1.033530 2.207941
  C 3.099756 -0.582164 -0.713767
  C 4.458833 -0.401327 -0.935945
  C 5.278980 -0.457845 -2.070995
  H 5.079066 0.188004 -2.929410
  O 6.379124 -1.098559 -2.178124
  H 3.664757 1.647197 1.032306
  H 4.008545 0.108694 1.983713
  H 2.507663 -1.149670 -1.416107
  H 4.883938 0.124087 -0.069862
  H 6.613803 -1.683816 -1.423786
 14
 45.949723
  H 1.506751 -0.182811 0.807244
  C 2.522714 -0.106514 0.464180
  C 3.481461 0.712079 1.263188
  H 2.892524 1.126288 2.106321
  C 2.956227 -0.673876 -0.709924
  C 4.287278 -0.492120 -1.030552
  C 5.291595 -0.403540 -1.972713
  H 5.337137 0.452304 -2.657234
  O 6.340699 -1.127697 -2.048148
  H 3.764182 1.659367 0.810321
  H 4.186771 0.131031 1.850917
  H 2.309322 -1.265710 -1.350333
  H 4.614273 0.188153 -0.095736
  H 6.353497 -1.908776 -1.453171
 14
 63.391525
  H 1.526017 -0.333326 0.860537
  C 2.500217 -0.171386 0.429354
  C 3.534925 0.688183 1.116101
  H 3.046056 1.043626 2.045033
  C 2.914775 -0.749167 -0.752952
  C 4.208144 -0.478445 -1.118876
  C 5.303549 -0.329368 -1.862212
  H 5.406471 0.495769 -2.558600
  O 6.404929 -1.043661 -1.839392
  H 3.657012 1.693122 0.711667
  H 4.334854 0.150577 1.641164
  H 2.277288 -1.339472 -1.391868
  H 4.393790 0.359681 0.042717
  H 6.313735 -1.871631 -1.323378
 14
 64.360102
  H 1.557632 -0.380544 0.765543
  C 2.551176 -0.184692 0.405582
  C 3.522385 0.688532 1.160293
  H 3.025976 1.053051 2.087545
  C 2.969353 -0.723020 -0.795707
  C 4.211445 -0.521799 -1.290143
  C 5.305269 -0.385208 -1.980817
  H 5.468067 0.469343 -2.635298
  O 6.428878 -1.156637 -1.926114
  H 3.541920 1.763766 0.819404
  H 4.259625 0.123653 1.785313
  H 2.290070 -1.338371 -1.372879
  H 4.383402 0.675422 0.400789
  H 6.278277 -1.961911 -1.407345
 14
 63.635873
  H 1.566710 -0.357961 0.734180
  C 2.562586 -0.164098 0.378726
  C 3.523931 0.678475 1.181054
  H 2.986466 1.140075 2.043702
  C 2.965106 -0.703874 -0.828360
  C 4.202515 -0.549209 -1.347320
  C 5.301328 -0.382179 -2.017917
  H 5.447835 0.465399 -2.684018
  O 6.443045 -1.131980 -1.954758
  H 3.614655 1.727389 0.780858
  H 4.074925 0.077554 1.956459
  H 2.260619 -1.302587 -1.393259
  H 4.504484 0.568799 0.624927
  H 6.300656 -1.939220 -1.437100
 14
 63.574046
  H 1.616501 -0.425427 0.740758
  C 2.601501 -0.191121 0.380807
  C 3.507729 0.682333 1.215385
  H 2.893394 1.279913 1.936326
  C 2.997643 -0.703847 -0.838307
  C 4.206397 -0.512580 -1.409830
  C 5.307695 -0.356872 -2.075005
  H 5.469157 0.488509 -2.736535
  O 6.432726 -1.138788 -2.027075
  H 3.713603 1.659700 0.703404
  H 3.824199 0.155165 2.161208
  H 2.290170 -1.311526 -1.388850
  H 4.569259 0.457879 0.913425
  H 6.273025 -1.944651 -1.514366
 14
 64.438998
  H 1.607239 -0.429187 0.737121
  C 2.597918 -0.202657 0.383462
  C 3.499093 0.675424 1.213808
  H 2.862641 1.403241 1.772597
  C 2.997965 -0.708177 -0.838576
  C 4.202670 -0.500090 -1.408672
  C 5.288005 -0.309819 -2.089823
  H 5.418026 0.552149 -2.736588
  O 6.429711 -1.065224 -2.077774
  H 3.980902 1.470916 0.607162
  H 3.644898 0.298651 2.281281
  H 2.293842 -1.318911 -1.394016
  H 4.513675 0.169470 1.224415
  H 6.298484 -1.883165 -1.575950
 14
 67.160396
  H 1.623075 -0.430875 0.737908
  C 2.612361 -0.203877 0.378617
  C 3.506284 0.698399 1.203800
  H 2.828148 1.450344 1.653336
  C 3.012677 -0.704211 -0.843435
  C 4.217230 -0.494425 -1.418488
  C 5.291909 -0.285417 -2.111344
  H 5.398480 0.583978 -2.752771
  O 6.443867 -1.024655 -2.124352
  H 4.177047 1.304286 0.580492
  H 3.724185 0.501762 2.336173
  H 2.303633 -1.308832 -1.399594
  H 4.291542 -0.099208 1.495447
  H 6.338026 -1.840929 -1.613633
 14
 70.143073
  H 1.657885 -0.472781 0.780109
  C 2.630833 -0.227737 0.397247
  C 3.528343 0.738385 1.226604
  H 2.776287 1.422129 1.647991
  C 3.020603 -0.689938 -0.841367
  C 4.221917 -0.477566 -1.417083
  C 5.313529 -0.265424 -2.082412
  H 5.443690 0.624875 -2.692913
  O 6.447470 -1.024906 -2.105407
  H 4.186324 1.277025 0.540032
  H 4.037351 0.692855 2.262622
  H 2.295776 -1.266635 -1.406139
  H 3.966922 -0.290022 1.482008
  H 6.323809 -1.852758 -1.617272
 14
 40.525651
  H 1.850601 -0.652363 1.013801
  C 2.805723 -0.333331 0.626595
  C 3.376892 0.983096 1.233989
  H 2.523106 1.608083 1.516303
  C 3.182537 -0.674319 -0.740816
  C 4.288564 -0.384980 -1.375576
  C 5.443749 -0.242231 -2.006012
  H 5.761567 0.751087 -2.322575
  O 6.334905 -1.165565 -2.305291
  H 3.966138 1.530925 0.513324
  H 3.886114 0.904062 2.194417
  H 2.441595 -1.247771 -1.295268
  H 3.642678 -0.810490 1.237360
  H 6.046421 -2.076800 -2.104900
 14
 27.623937
  H 1.911585 -0.569164 1.104703
  C 2.948858 -0.365564 0.822625
  C 3.387963 1.053892 1.262664
  H 2.519869 1.612361 1.630110
  C 3.180636 -0.561084 -0.670007
  C 4.290611 -0.434042 -1.312211
  C 5.336554 -0.380828 -2.187562
  H 5.412514 0.502378 -2.864119
  O 6.312374 -1.254613 -2.331226
  H 3.822567 1.633841 0.443628
  H 4.125799 0.993636 2.062614
  H 2.280745 -0.852593 -1.226780
  H 3.605476 -1.088457 1.321014
  H 6.294295 -2.054797 -1.727244
 14
 27.855051
  H 1.822118 -0.556652 0.957441
  C 2.873242 -0.406515 0.750741
  C 3.351386 0.956648 1.301995
  H 2.501918 1.523515 1.682624
  C 3.168183 -0.497798 -0.726017
  C 4.302051 -0.425654 -1.312589
  C 5.367961 -0.331130 -2.116988
  H 5.410697 0.504964 -2.817794
  O 6.402210 -1.097381 -2.168061
  H 3.827699 1.563994 0.538562
  H 4.065351 0.810417 2.106971
  H 2.290820 -0.697509 -1.343619
  H 3.444985 -1.197467 1.229546
  H 6.418663 -1.841591 -1.538299
