 15
 0.000000
  C 0.976472 0.113761 0.372297
  C 2.445859 0.130047 0.417154
  C 3.218767 0.606460 1.573278
  C 2.454149 1.103268 2.776944
  H 3.141762 1.422989 3.553049
  C 3.111167 -0.327771 -0.696380
  H 4.177983 -0.368270 -0.826682
  H 0.507897 0.489309 1.274718
  H 0.622567 -0.902459 0.185706
  H 0.625432 0.701898 -0.481391
  H 3.900976 1.395106 1.220853
  H 3.900702 -0.201534 1.879276
  H 1.813574 0.322248 3.186156
  H 1.814296 1.946216 2.516693
  H 2.511883 -0.665316 -1.528986
 15
 -0.591130
  C 0.966007 0.157999 0.368432
  C 2.432812 0.147749 0.396675
  C 3.207311 0.605452 1.560087
  C 2.449542 1.048363 2.782772
  H 3.139571 1.328758 3.572189
  C 3.113926 -0.304342 -0.707876
  H 4.184835 -0.240804 -0.803424
  H 0.526340 0.763370 1.150833
  H 0.596208 -0.867063 0.476782
  H 0.610244 0.483155 -0.608423
  H 3.884826 1.406024 1.218557
  H 3.926833 -0.184607 1.831546
  H 1.805517 0.255153 3.158136
  H 1.811884 1.904153 2.567187
  H 2.580979 -0.738171 -1.544606
 15
 1.238911
  C 0.981152 0.163509 0.365172
  C 2.451420 0.114554 0.415485
  C 3.221278 0.585094 1.577691
  C 2.437538 1.020273 2.793132
  H 3.116602 1.286976 3.598165
  C 3.099027 -0.266157 -0.733481
  H 4.125076 -0.026189 -0.956855
  H 0.563781 0.903212 1.039719
  H 0.563665 -0.816761 0.610564
  H 0.683578 0.370132 -0.664415
  H 3.879513 1.395619 1.229993
  H 3.939003 -0.197986 1.863388
  H 1.788165 0.223408 3.153831
  H 1.809824 1.882678 2.574913
  H 2.602699 -0.905400 -1.447164
 15
 7.206128
  C 0.993957 0.120697 0.394424
  C 2.468739 0.054434 0.468329
  C 3.237770 0.548121 1.615989
  C 2.429933 1.038979 2.803612
  H 3.092574 1.269702 3.629343
  C 3.029057 -0.203291 -0.760159
  H 3.973343 0.205279 -1.093511
  H 0.587060 0.922220 0.995608
  H 0.522188 -0.832493 0.630474
  H 0.806407 0.288506 -0.669742
  H 3.923759 1.327130 1.261949
  H 3.911823 -0.260187 1.942292
  H 1.724964 0.284586 3.145290
  H 1.872270 1.940740 2.556213
  H 2.640296 -0.993047 -1.381247
 15
 15.739087
  C 0.995827 0.183174 0.353777
  C 2.473587 0.106671 0.486888
  C 3.253471 0.613757 1.613026
  C 2.450672 0.992345 2.841353
  H 3.116844 1.326834 3.629963
  C 2.961018 -0.250562 -0.751120
  H 3.914772 0.076466 -1.148414
  H 0.543246 0.995698 0.904881
  H 0.476539 -0.772151 0.458395
  H 0.996980 0.377284 -0.739157
  H 3.858512 1.462171 1.274609
  H 3.998087 -0.149566 1.869129
  H 1.885035 0.143960 3.216507
  H 1.757641 1.800190 2.626633
  H 2.578663 -1.142238 -1.233709
 15
 34.110988
  C 0.985121 0.123321 0.383975
  C 2.466832 0.097190 0.527976
  C 3.263391 0.606439 1.629106
  C 2.473733 1.031146 2.857723
  H 3.146687 1.313667 3.660424
  C 2.859799 -0.197239 -0.765347
  H 3.785165 0.176506 -1.190294
  H 0.471748 0.918890 0.895562
  H 0.446691 -0.817708 0.324742
  H 1.254433 0.293306 -0.762728
  H 3.903297 1.426876 1.280218
  H 3.981057 -0.185618 1.885781
  H 1.846290 0.224395 3.221406
  H 1.843666 1.890226 2.628927
  H 2.563570 -1.142754 -1.200186
 15
 51.267704
  C 0.975659 0.131099 0.437897
  C 2.416915 0.101910 0.540891
  C 3.237475 0.615440 1.619830
  C 2.480930 1.029141 2.875516
  H 3.180580 1.326257 3.651533
  C 2.819883 -0.202618 -0.786104
  H 3.757387 0.170499 -1.173734
  H 0.447933 0.932657 0.931840
  H 0.414194 -0.785862 0.343320
  H 1.520849 0.236517 -0.925046
  H 3.855478 1.443750 1.254743
  H 3.969332 -0.170210 1.850639
  H 1.879749 0.208193 3.258092
  H 1.827298 1.875295 2.678084
  H 2.546167 -1.160432 -1.215176
 15
 31.980418
  C 0.956358 0.126431 0.500356
  C 2.348055 0.078378 0.568967
  C 3.209207 0.591390 1.622640
  C 2.500035 1.039897 2.896039
  H 3.230094 1.331344 3.643392
  C 2.759636 -0.191124 -0.831923
  H 3.686214 0.252488 -1.154969
  H 0.426812 0.910167 1.025282
  H 0.363441 -0.741395 0.253508
  H 1.722378 0.200560 -1.115565
  H 3.817303 1.415785 1.218248
  H 3.956479 -0.186538 1.838663
  H 1.886874 0.247041 3.315786
  H 1.860911 1.899004 2.697024
  H 2.647802 -1.225333 -1.180246
 15
 19.123031
  C 0.907725 0.182337 0.536834
  C 2.285454 0.132945 0.530497
  C 3.163215 0.654099 1.576980
  C 2.487129 0.991783 2.903167
  H 3.233684 1.310297 3.630347
  C 2.764953 -0.221217 -0.813038
  H 3.754850 0.119681 -1.065171
  H 0.393741 1.002816 1.018479
  H 0.317521 -0.713176 0.427276
  H 1.905857 0.225995 -1.359432
  H 3.715383 1.526956 1.199798
  H 3.946637 -0.102590 1.721690
  H 1.959185 0.135344 3.316552
  H 1.776318 1.805287 2.777196
  H 2.578525 -1.255470 -1.112110
 15
 10.280878
  C 0.902283 0.104153 0.609799
  C 2.271769 0.099837 0.534425
  C 3.168619 0.600561 1.576283
  C 2.513100 1.040491 2.875634
  H 3.276007 1.310599 3.600433
  C 2.757880 -0.169297 -0.835262
  H 3.734870 0.236446 -1.044966
  H 0.388066 0.860852 1.189182
  H 0.296154 -0.737439 0.310972
  H 1.951388 0.252303 -1.435253
  H 3.774993 1.412656 1.155015
  H 3.899566 -0.194652 1.777099
  H 1.908687 0.246405 3.306176
  H 1.879260 1.910442 2.718114
  H 2.697030 -1.229286 -1.093730
 15
 4.546620
  C 0.872992 0.128051 0.637053
  C 2.238223 0.128032 0.515951
  C 3.150190 0.635145 1.546938
  C 2.535328 1.016615 2.881364
  H 3.315088 1.338471 3.565808
  C 2.762348 -0.198432 -0.826391
  H 3.773558 0.152690 -0.985790
  H 0.364749 0.848536 1.262934
  H 0.250832 -0.643441 0.210143
  H 2.052153 0.231758 -1.532863
  H 3.704274 1.482075 1.119352
  H 3.927849 -0.124217 1.704796
  H 2.016417 0.178405 3.338885
  H 1.828436 1.835954 2.767432
  H 2.691098 -1.272305 -1.019328
 15
 1.586847
  C 0.848449 0.118680 0.663608
  C 2.208200 0.171632 0.502837
  C 3.130717 0.666645 1.530601
  C 2.552516 1.017510 2.886061
  H 3.344889 1.368482 3.544500
  C 2.759419 -0.223406 -0.817069
  H 3.811040 0.018238 -0.919690
  H 0.321511 0.739187 1.373202
  H 0.236841 -0.543223 0.065089
  H 2.182374 0.269238 -1.603177
  H 3.659363 1.530787 1.097532
  H 3.937278 -0.065814 1.658317
  H 2.084427 0.157557 3.360203
  H 1.801901 1.804607 2.803926
  H 2.604608 -1.292780 -0.959657
 15
 0.517474
  C 0.833058 0.149179 0.653354
  C 2.194202 0.193829 0.485358
  C 3.110180 0.695919 1.516429
  C 2.559246 1.001430 2.890804
  H 3.350664 1.384665 3.528553
  C 2.765319 -0.254739 -0.798887
  H 3.832001 -0.071141 -0.872832
  H 0.342087 0.666626 1.459907
  H 0.200467 -0.385388 -0.038463
  H 2.251197 0.214631 -1.639166
  H 3.586350 1.598565 1.093425
  H 3.969949 0.015386 1.604593
  H 2.153014 0.110700 3.366056
  H 1.763594 1.742817 2.851172
  H 2.572207 -1.325142 -0.914018
