 15
 0.000000
  C 0.931610 0.143555 0.404286
  C 2.400030 0.141489 0.405816
  C 3.206883 0.599772 1.547017
  C 2.476721 1.094043 2.775723
  H 3.187949 1.398466 3.535164
  C 3.030753 -0.315042 -0.731329
  H 4.098891 -0.359570 -0.845662
  H 0.493953 0.517514 1.322309
  H 0.560111 -0.866529 0.217336
  H 0.568206 0.739190 -0.437083
  H 3.883131 1.390092 1.188965
  H 3.881924 -0.219405 1.835790
  H 1.840190 0.313729 3.192193
  H 1.841662 1.946652 2.536317
  H 2.404624 -0.637973 -1.546085
 15
 1.918060
  C 0.945462 0.132355 0.390086
  C 2.407732 0.140843 0.428570
  C 3.219973 0.609406 1.567834
  C 2.482084 1.086957 2.800162
  H 3.186783 1.399291 3.565747
  C 2.994244 -0.298995 -0.727776
  H 4.055489 -0.378249 -0.889408
  H 0.452843 0.594564 1.237247
  H 0.574873 -0.891341 0.276905
  H 0.680558 0.609836 -0.562007
  H 3.905725 1.394872 1.206603
  H 3.921720 -0.199964 1.836459
  H 1.850931 0.300174 3.212033
  H 1.835266 1.933797 2.570437
  H 2.301776 -0.548522 -1.515565
 15
 6.006606
  C 0.966493 0.135944 0.389941
  C 2.429023 0.146086 0.455795
  C 3.228418 0.613002 1.579138
  C 2.478422 1.069296 2.800366
  H 3.167492 1.384323 3.569554
  C 2.979989 -0.283446 -0.727987
  H 4.022674 -0.386791 -0.941525
  H 0.439787 0.683384 1.163583
  H 0.597640 -0.892646 0.384490
  H 0.783940 0.478037 -0.648028
  H 3.908014 1.403471 1.226732
  H 3.935821 -0.188077 1.844092
  H 1.853788 0.273771 3.196399
  H 1.827161 1.908817 2.569624
  H 2.204897 -0.462223 -1.477869
 15
 12.178853
  C 0.981755 0.138369 0.372656
  C 2.442742 0.151281 0.459934
  C 3.240748 0.617050 1.589125
  C 2.475567 1.056518 2.813399
  H 3.158229 1.372197 3.593734
  C 2.967030 -0.268989 -0.740429
  H 3.995691 -0.392950 -0.995498
  H 0.435287 0.763293 1.070046
  H 0.607409 -0.886405 0.477120
  H 0.866299 0.347415 -0.714374
  H 3.913830 1.417063 1.244276
  H 3.955015 -0.180644 1.850638
  H 1.851408 0.248472 3.197342
  H 1.816443 1.896438 2.584675
  H 2.118746 -0.400230 -1.439094
 15
 20.141137
  C 0.994972 0.146238 0.359857
  C 2.451874 0.160846 0.458829
  C 3.248066 0.618303 1.594413
  C 2.471237 1.038776 2.820511
  H 3.143585 1.345523 3.608130
  C 2.957132 -0.254635 -0.752705
  H 3.985703 -0.369628 -1.048603
  H 0.442266 0.849458 0.972950
  H 0.606710 -0.856705 0.582727
  H 0.937239 0.216529 -0.760577
  H 3.915672 1.431319 1.258678
  H 3.968266 -0.178563 1.851234
  H 1.845882 0.220392 3.189463
  H 1.807338 1.881152 2.596669
  H 2.048071 -0.377081 -1.389633
 15
 30.158127
  C 1.003923 0.150410 0.350129
  C 2.458933 0.169330 0.457265
  C 3.252739 0.620204 1.597940
  C 2.468688 1.025239 2.826841
  H 3.139720 1.323179 3.626034
  C 2.951411 -0.246684 -0.761880
  H 3.972424 -0.336067 -1.086925
  H 0.448637 0.912745 0.893485
  H 0.600891 -0.820106 0.647921
  H 1.002054 0.111449 -0.798948
  H 3.907127 1.434654 1.274905
  H 3.970923 -0.170499 1.849295
  H 1.845976 0.203875 3.181204
  H 1.808364 1.864614 2.611056
  H 1.986556 -0.381142 -1.346579
 15
 39.799464
  C 1.011590 0.165484 0.349072
  C 2.470195 0.175278 0.454983
  C 3.264426 0.618084 1.604764
  C 2.463474 1.009907 2.832486
  H 3.124181 1.287882 3.642489
  C 2.949023 -0.241590 -0.762790
  H 3.954236 -0.250373 -1.141361
  H 0.468220 0.988810 0.795500
  H 0.585082 -0.772171 0.714311
  H 1.044247 -0.007988 -0.824929
  H 3.914586 1.444335 1.292123
  H 3.982933 -0.178458 1.856934
  H 1.836141 0.185596 3.167720
  H 1.811844 1.855730 2.622649
  H 1.929176 -0.432997 -1.301495
 15
 49.189493
  C 1.021902 0.173015 0.358131
  C 2.487143 0.179642 0.454722
  C 3.279644 0.618181 1.613422
  C 2.457116 0.998831 2.833655
  H 3.108326 1.261031 3.657981
  C 2.944470 -0.241785 -0.755457
  H 3.923166 -0.195564 -1.195575
  H 0.489721 1.040448 0.730733
  H 0.575533 -0.741995 0.747985
  H 1.076993 -0.085432 -0.851731
  H 3.921115 1.455502 1.312492
  H 3.987302 -0.177196 1.870937
  H 1.825398 0.170628 3.150881
  H 1.815879 1.851928 2.626035
  H 1.879836 -0.476838 -1.274874
 15
 57.444877
  C 1.033275 0.176798 0.372953
  C 2.498260 0.181885 0.452947
  C 3.290005 0.621833 1.622627
  C 2.450779 0.992606 2.830274
  H 3.093008 1.247391 3.663654
  C 2.939882 -0.238315 -0.745094
  H 3.889478 -0.174176 -1.241029
  H 0.510894 1.068640 0.694548
  H 0.576930 -0.724105 0.764712
  H 1.096450 -0.132039 -0.881880
  H 3.913808 1.458780 1.334093
  H 4.001708 -0.183038 1.891438
  H 1.818698 0.159603 3.134871
  H 1.812263 1.853246 2.620817
  H 1.841459 -0.497737 -1.268614
 15
 64.338190
  C 1.034760 0.182760 0.395705
  C 2.503419 0.184812 0.449914
  C 3.296044 0.623127 1.624612
  C 2.443184 0.987306 2.835287
  H 3.081764 1.234925 3.674810
  C 2.952353 -0.234136 -0.738287
  H 3.882000 -0.178782 -1.269313
  H 0.519286 1.092228 0.674657
  H 0.568404 -0.715242 0.786640
  H 1.097582 -0.172956 -0.932716
  H 3.920839 1.475486 1.336893
  H 3.994119 -0.174502 1.890173
  H 1.808319 0.152110 3.132747
  H 1.814532 1.845977 2.631351
  H 1.813282 -0.515224 -1.292706
 15
 71.580142
  C 1.031333 0.181144 0.425734
  C 2.500621 0.191109 0.444273
  C 3.297316 0.629755 1.625073
  C 2.440088 0.984586 2.832785
  H 3.080039 1.226840 3.678134
  C 2.965678 -0.230320 -0.727828
  H 3.887264 -0.212095 -1.271113
  H 0.516475 1.095383 0.685318
  H 0.561471 -0.722224 0.792269
  H 1.092520 -0.192198 -0.998522
  H 3.913611 1.483764 1.342786
  H 3.993935 -0.172461 1.888861
  H 1.809152 0.151451 3.122202
  H 1.809287 1.851742 2.632573
  H 1.782367 -0.508695 -1.338557
 15
 78.498976
  C 1.025106 0.191350 0.461669
  C 2.484544 0.194659 0.436303
  C 3.292731 0.633996 1.621525
  C 2.439796 0.982677 2.835065
  H 3.085928 1.220660 3.675001
  C 2.978711 -0.217353 -0.716043
  H 3.898040 -0.226472 -1.262297
  H 0.510581 1.113112 0.691448
  H 0.545029 -0.712430 0.805184
  H 1.086220 -0.234875 -1.093933
  H 3.902600 1.493305 1.336865
  H 3.988248 -0.170768 1.878904
  H 1.803105 0.139874 3.129330
  H 1.817857 1.842736 2.645924
  H 1.763800 -0.533360 -1.402501
 15
 84.278251
  C 1.005702 0.195503 0.512147
  C 2.448216 0.193723 0.428877
  C 3.280109 0.635016 1.613393
  C 2.447400 0.981975 2.841125
  H 3.112772 1.215641 3.669126
  C 2.980719 -0.211105 -0.700298
  H 3.909158 -0.256785 -1.227711
  H 0.491859 1.113344 0.739826
  H 0.514557 -0.719293 0.800655
  H 1.096275 -0.265591 -1.243506
  H 3.882794 1.494911 1.319732
  H 3.974324 -0.174730 1.855978
  H 1.820207 0.148230 3.142554
  H 1.819812 1.852453 2.665840
  H 1.776316 -0.551916 -1.507430
 15
 88.704555
  C 0.985387 0.203064 0.548889
  C 2.412911 0.189599 0.417880
  C 3.268379 0.628087 1.601526
  C 2.456315 0.977727 2.843074
  H 3.139007 1.207585 3.656653
  C 2.980292 -0.205536 -0.693614
  H 3.919194 -0.256623 -1.201436
  H 0.480679 1.117330 0.791623
  H 0.488634 -0.714949 0.816809
  H 1.112263 -0.305793 -1.415962
  H 3.865937 1.488466 1.298337
  H 3.961049 -0.182822 1.828895
  H 1.832848 0.150967 3.154599
  H 1.828201 1.854100 2.680027
  H 1.796890 -0.590427 -1.628171
