 22
 0.000000
  C 1.016536 0.158201 0.405419
  C 2.489964 0.160950 0.393510
  C 3.247664 0.606647 1.571214
  H 2.603568 0.913575 2.387044
  C 3.100347 -0.282070 -0.772097
  C 4.474037 -0.388077 -1.009856
  C 5.108318 -0.862764 -2.133409
  C 4.618837 -1.399294 -3.409663
  C 3.132115 -1.515994 -3.702139
  H 2.996651 -1.935331 -4.694839
  H 6.190809 -0.852037 -2.095547
  H 0.603906 0.505285 1.347373
  H 0.641830 -0.848442 0.200392
  H 0.634078 0.786784 -0.400416
  H 3.903203 1.437370 1.304069
  H 3.905378 -0.191781 1.919229
  H 2.427405 -0.586391 -1.557413
  H 5.126343 -0.056933 -0.211213
  H 5.085455 -2.387594 -3.523333
  H 5.092759 -0.794868 -4.195458
  H 2.649919 -0.541834 -3.684800
  H 2.642510 -2.177975 -2.992204
 22
 0.370169
  C 1.011001 0.105733 0.471719
  C 2.475030 0.198114 0.367610
  C 3.261242 0.671129 1.519082
  H 2.623666 1.001057 2.333899
  C 3.058296 -0.260662 -0.808800
  C 4.437088 -0.447368 -0.988388
  C 5.090693 -0.933385 -2.094847
  C 4.623990 -1.409990 -3.402019
  C 3.146541 -1.427781 -3.756207
  H 3.027479 -1.833716 -4.758286
  H 6.168689 -0.987585 -2.003839
  H 0.609088 0.613555 1.339194
  H 0.802371 -0.965566 0.562855
  H 0.509122 0.430197 -0.436574
  H 3.914048 1.494491 1.223921
  H 3.916814 -0.119948 1.886633
  H 2.391177 -0.491789 -1.624579
  H 5.071122 -0.188358 -0.153353
  H 5.038867 -2.420709 -3.527806
  H 5.170167 -0.821577 -4.153980
  H 2.728421 -0.424528 -3.756269
  H 2.584562 -2.063028 -3.076523
 22
 4.703853
  C 1.009886 0.168980 0.464304
  C 2.466323 0.199840 0.361389
  C 3.255718 0.638762 1.529003
  H 2.619584 0.871523 2.373867
  C 3.051459 -0.220382 -0.830903
  C 4.427959 -0.430489 -1.001379
  C 5.083674 -0.929047 -2.100244
  C 4.619636 -1.436545 -3.401675
  C 3.148170 -1.401022 -3.779508
  H 3.037939 -1.755098 -4.803412
  H 6.158370 -1.019341 -1.989086
  H 0.570598 0.730895 1.278366
  H 1.016779 -0.906567 0.763570
  H 0.469925 0.210021 -0.469270
  H 3.819765 1.537840 1.269840
  H 3.984209 -0.117300 1.828315
  H 2.390594 -0.416595 -1.655659
  H 5.063188 -0.171368 -0.163440
  H 4.989383 -2.469301 -3.480272
  H 5.198085 -0.895048 -4.161928
  H 2.755205 -0.389258 -3.737794
  H 2.559102 -2.055444 -3.142231
 22
 21.962481
  C 0.992586 0.252531 0.485802
  C 2.417228 0.147171 0.378860
  C 3.259527 0.693628 1.473346
  H 2.654294 0.990598 2.318091
  C 2.995650 -0.356987 -0.801103
  C 4.376030 -0.537770 -0.957957
  C 5.055139 -1.014356 -2.054301
  C 4.630658 -1.389569 -3.415423
  C 3.161450 -1.349921 -3.811669
  H 3.067648 -1.678053 -4.846565
  H 6.128157 -1.109267 -1.926210
  H 0.545615 0.806631 1.297842
  H 1.371540 -0.856397 0.828307
  H 0.380792 0.096312 -0.388723
  H 3.791397 1.571393 1.103093
  H 4.007439 -0.021961 1.813864
  H 2.337990 -0.589605 -1.618786
  H 4.982479 -0.394875 -0.078513
  H 5.014974 -2.401477 -3.592959
  H 5.210717 -0.760890 -4.106151
  H 2.769251 -0.337648 -3.751773
  H 2.563776 -2.020959 -3.200092
 22
 37.905976
  C 0.975555 0.362597 0.449424
  C 2.376843 0.111797 0.405575
  C 3.243421 0.621018 1.523630
  H 2.638928 0.912324 2.377526
  C 2.992254 -0.329265 -0.824172
  C 4.361322 -0.515824 -0.974233
  C 5.045495 -0.954848 -2.079422
  C 4.616734 -1.403075 -3.416030
  C 3.145149 -1.388821 -3.801943
  H 3.042286 -1.756531 -4.817614
  H 6.121425 -1.005582 -1.965438
  H 0.523106 0.830802 1.303557
  H 1.736048 -0.888811 0.726835
  H 0.350367 0.201410 -0.414852
  H 3.792077 1.491305 1.180306
  H 3.964939 -0.119942 1.849017
  H 2.333632 -0.515159 -1.649560
  H 4.979475 -0.276970 -0.120702
  H 5.007194 -2.421850 -3.540242
  H 5.184604 -0.804327 -4.140468
  H 2.743264 -0.378822 -3.779696
  H 2.566568 -2.038737 -3.158418
 22
 40.044415
  C 0.977033 0.420089 0.406129
  C 2.358488 0.038110 0.451001
  C 3.224906 0.670595 1.522759
  H 2.622550 0.949044 2.378191
  C 2.994194 -0.422289 -0.791446
  C 4.357019 -0.605795 -0.944704
  C 5.033534 -1.006036 -2.071500
  C 4.598112 -1.367444 -3.429581
  C 3.121313 -1.349932 -3.805555
  H 3.022913 -1.627744 -4.853987
  H 6.108791 -1.061291 -1.964190
  H 0.529038 0.972445 1.208381
  H 2.060629 -1.010807 0.767184
  H 0.347155 0.124663 -0.415186
  H 3.690918 1.569376 1.128918
  H 4.006904 -0.000475 1.861434
  H 2.324618 -0.663862 -1.600091
  H 4.980317 -0.391258 -0.084885
  H 5.005743 -2.369041 -3.626142
  H 5.156391 -0.715636 -4.118458
  H 2.695350 -0.356656 -3.690099
  H 2.559103 -2.070069 -3.222612
 22
 41.866762
  C 0.988221 0.434987 0.428446
  C 2.338872 0.072836 0.463082
  C 3.218555 0.674624 1.534241
  H 2.616836 1.017757 2.370290
  C 2.962026 -0.463467 -0.770837
  C 4.340631 -0.635467 -0.928248
  C 5.016850 -0.988652 -2.063914
  C 4.578813 -1.349023 -3.425764
  C 3.101445 -1.362196 -3.789441
  H 2.998893 -1.653761 -4.832437
  H 6.095760 -1.012029 -1.968720
  H 0.566404 1.066631 1.187239
  H 2.375538 -1.107457 0.451257
  H 0.332661 0.087169 -0.350223
  H 3.752484 1.530697 1.128205
  H 3.948188 -0.033552 1.913963
  H 2.294448 -0.654138 -1.593745
  H 4.958650 -0.427895 -0.065515
  H 5.006389 -2.338976 -3.630897
  H 5.111575 -0.678566 -4.111904
  H 2.660685 -0.374711 -3.681798
  H 2.553113 -2.087000 -3.193950
 22
 36.230915
  C 0.992485 0.444487 0.466836
  C 2.317783 0.126100 0.461788
  C 3.219767 0.714554 1.493291
  H 2.645588 1.145770 2.304868
  C 2.911944 -0.554836 -0.708258
  C 4.319317 -0.720429 -0.881942
  C 4.997018 -1.002059 -2.035182
  C 4.560233 -1.326867 -3.409567
  C 3.084468 -1.348149 -3.773045
  H 2.986057 -1.607787 -4.823838
  H 6.076883 -1.005237 -1.944900
  H 0.578480 1.040712 1.250830
  H 2.527373 -1.270620 0.208408
  H 0.315057 0.096287 -0.292279
  H 3.814716 1.506019 1.038770
  H 3.896818 -0.024273 1.921127
  H 2.255002 -0.694700 -1.556282
  H 4.933678 -0.518236 -0.016862
  H 5.013192 -2.293614 -3.670711
  H 5.077834 -0.610018 -4.062529
  H 2.633707 -0.369603 -3.635547
  H 2.543114 -2.091655 -3.204067
 22
 25.880761
  C 0.996691 0.367692 0.510423
  C 2.333252 0.170295 0.458997
  C 3.247679 0.781247 1.452798
  H 2.685301 1.247494 2.260515
  C 2.890703 -0.611258 -0.682334
  C 4.316489 -0.696095 -0.885105
  C 4.992326 -1.051872 -2.012099
  C 4.560089 -1.329171 -3.392381
  C 3.095106 -1.270600 -3.776015
  H 2.998903 -1.499495 -4.834771
  H 6.068863 -1.092013 -1.913466
  H 0.566520 0.958360 1.301868
  H 2.568447 -1.463466 0.026541
  H 0.321016 0.027412 -0.255999
  H 3.858670 1.540660 0.963189
  H 3.920715 0.047081 1.895095
  H 2.243227 -0.671594 -1.546740
  H 4.926241 -0.482225 -0.018043
  H 4.953948 -2.323827 -3.644931
  H 5.133180 -0.652610 -4.038688
  H 2.686433 -0.274876 -3.620024
  H 2.510072 -2.007605 -3.227949
 22
 18.630563
  C 1.017999 0.449576 0.487012
  C 2.345032 0.215259 0.439359
  C 3.282117 0.773150 1.443331
  H 2.747014 1.302752 2.220994
  C 2.858657 -0.659690 -0.656640
  C 4.303738 -0.766126 -0.850778
  C 4.989153 -0.976566 -2.006070
  C 4.554169 -1.255508 -3.382371
  C 3.080641 -1.325834 -3.736966
  H 2.982813 -1.559521 -4.793261
  H 6.069349 -0.995082 -1.911204
  H 0.576603 1.065667 1.252568
  H 2.540675 -1.615592 -0.183324
  H 0.342362 0.072757 -0.266576
  H 3.973570 1.456951 0.959899
  H 3.871759 -0.008817 1.912671
  H 2.263767 -0.579548 -1.566694
  H 4.900845 -0.673862 0.042981
  H 5.032278 -2.203203 -3.665198
  H 5.054067 -0.520629 -4.027753
  H 2.589293 -0.370899 -3.574270
  H 2.571293 -2.104745 -3.177095
 22
 16.560967
  C 1.013959 0.413199 0.530191
  C 2.346027 0.221368 0.453175
  C 3.275763 0.753379 1.476378
  H 2.742417 1.329417 2.225983
  C 2.862479 -0.583041 -0.693221
  C 4.315165 -0.690785 -0.868750
  C 4.997125 -0.988333 -2.007243
  C 4.553367 -1.289031 -3.376463
  C 3.079162 -1.361907 -3.722633
  H 2.974209 -1.633425 -4.770649
  H 6.076564 -1.009491 -1.915633
  H 0.565475 0.984108 1.324174
  H 2.485529 -1.598121 -0.465851
  H 0.338201 0.017352 -0.208397
  H 4.028720 1.387447 1.008628
  H 3.799379 -0.058961 1.979408
  H 2.340854 -0.321616 -1.616578
  H 4.914743 -0.521243 0.014068
  H 5.026790 -2.245515 -3.641778
  H 5.054378 -0.574040 -4.042082
  H 2.591426 -0.397529 -3.592724
  H 2.565461 -2.112743 -3.129388
 22
 15.822042
  C 1.014182 0.419474 0.536067
  C 2.347981 0.248356 0.451574
  C 3.255923 0.639870 1.556738
  H 2.705751 1.110311 2.365810
  C 2.889895 -0.380292 -0.789867
  C 4.343938 -0.525528 -0.929010
  C 5.017107 -0.929870 -2.037911
  C 4.548644 -1.362534 -3.364903
  C 3.066233 -1.489728 -3.662357
  H 2.938323 -1.887237 -4.665214
  H 6.096283 -0.941875 -1.958112
  H 0.552275 0.844018 1.409859
  H 2.435266 -1.384693 -0.843152
  H 0.348427 0.144566 -0.264764
  H 4.015285 1.334264 1.197916
  H 3.770901 -0.234229 1.953145
  H 2.461081 0.120255 -1.666920
  H 4.945014 -0.293060 -0.062576
  H 5.038843 -2.323902 -3.566826
  H 5.016036 -0.691926 -4.103395
  H 2.566111 -0.526945 -3.629167
  H 2.573698 -2.168803 -2.966321
 22
 15.653540
  C 1.011215 0.418172 0.540067
  C 2.345274 0.237397 0.452135
  C 3.254749 0.624565 1.557239
  H 2.700316 1.048254 2.388972
  C 2.889564 -0.367484 -0.793774
  C 4.344730 -0.505325 -0.933600
  C 5.016867 -0.930280 -2.035664
  C 4.547912 -1.379294 -3.355235
  C 3.066559 -1.495696 -3.655341
  H 2.937965 -1.896482 -4.657393
  H 6.096618 -0.947034 -1.954945
  H 0.559483 0.858281 1.410934
  H 2.428480 -1.361305 -0.908685
  H 0.341149 0.134132 -0.254341
  H 3.980678 1.360053 1.211778
  H 3.809441 -0.242251 1.915604
  H 2.474724 0.170363 -1.658259
  H 4.948025 -0.244644 -0.077863
  H 5.032036 -2.346052 -3.546461
  H 5.020049 -0.719982 -4.098504
  H 2.572045 -0.527418 -3.624489
  H 2.569314 -2.167478 -2.961560
