 7
 0.000000
  H 3.371701 -0.346174 -0.810302
  C 4.427680 -0.410350 -0.970580
  C 5.111749 -0.860636 -2.093538
  H 4.760337 -1.236769 -3.031586
  O 6.434575 -0.852273 -2.073085
  H 5.047217 -0.079018 -0.145404
  H 6.800018 -0.516405 -1.234749
 7
 0.000000
  H 3.369359 -0.330448 -0.771080
  C 4.428445 -0.387102 -0.912609
  C 5.200699 -0.873528 -2.125687
  H 4.868655 -1.252096 -3.069793
  O 6.378238 -0.871180 -2.120227
  H 5.030885 -0.051420 -0.076601
  H 6.676994 -0.535850 -1.283247
 7
 0.000000
  H 3.354073 -0.311910 -0.724847
  C 4.415588 -0.361885 -0.849727
  C 5.283273 -0.887912 -2.161559
  H 4.968484 -1.268522 -3.110743
  O 6.339916 -0.892345 -2.172999
  H 5.002702 -0.022452 -0.004381
  H 6.587622 -0.554674 -1.330190
 7
 0.000000
  H 3.326818 -0.290305 -0.670966
  C 4.390147 -0.334628 -0.781760
  C 5.359619 -0.903975 -2.201617
  H 5.059470 -1.286224 -3.154876
  O 6.319031 -0.915516 -2.230774
  H 4.964189 0.007896 0.071283
  H 6.528310 -0.572480 -1.374593
 7
 0.000000
  H 3.289340 -0.265841 -0.609961
  C 4.353972 -0.305606 -0.709392
  C 5.429595 -0.921515 -2.245360
  H 5.141284 -1.305029 -3.201762
  O 6.313740 -0.940115 -2.292109
  H 4.917399 0.039359 0.149725
  H 6.494622 -0.588731 -1.415114
 7
 0.000000
  H 3.244063 -0.239092 -0.543255
  C 4.309616 -0.275287 -0.633790
  C 5.493401 -0.939973 -2.291390
  H 5.214375 -1.324440 -3.250160
  O 6.320822 -0.965348 -2.355026
  H 4.864687 0.071555 0.229998
  H 6.480549 -0.603050 -1.450813
 7
 0.000000
  H 3.193222 -0.210618 -0.472253
  C 4.259437 -0.244012 -0.555806
  C 5.551866 -0.958706 -2.338107
  H 5.280138 -1.343899 -3.298680
  O 6.336681 -0.990498 -2.417738
  H 4.807925 0.104282 0.311595
  H 6.479670 -0.615405 -1.481614
 7
 0.000000
  H 3.138263 -0.180755 -0.397785
  C 4.204974 -0.211880 -0.475683
  C 5.606076 -0.977201 -2.384230
  H 5.340265 -1.362967 -3.346227
  O 6.358440 -1.015079 -2.479031
  H 4.748114 0.137578 0.394611
  H 6.486693 -0.625986 -1.507992
 7
 0.000000
  H 3.079867 -0.149620 -0.320146
  C 4.146973 -0.178820 -0.393246
  C 5.656935 -0.995082 -2.428818
  H 5.396150 -1.381324 -3.391999
  O 6.384190 -1.038780 -2.538128
  H 4.685561 0.171617 0.479480
  H 6.497871 -0.635011 -1.530489
 7
 0.000000
  H 3.018185 -0.117197 -0.239296
  C 4.085622 -0.144677 -0.308110
  C 5.705001 -1.012036 -2.471096
  H 5.448709 -1.398695 -3.435315
  O 6.412747 -1.061368 -2.594450
  H 4.620135 0.206626 0.566770
  H 6.510657 -0.642614 -1.549440
 7
 0.000000
  H 2.952997 -0.083386 -0.154987
  C 4.020725 -0.109253 -0.219778
  C 5.750477 -1.027753 -2.510290
  H 5.498404 -1.414798 -3.475467
  O 6.443343 -1.082615 -2.647427
  H 4.551407 0.242858 0.657108
  H 6.523238 -0.648808 -1.564880
 7
 0.000000
  H 2.883751 -0.048016 -0.066789
  C 3.951750 -0.072295 -0.127624
  C 5.793217 -1.041867 -2.545481
  H 5.545297 -1.429283 -3.511585
  O 6.475360 -1.102238 -2.696355
  H 4.478656 0.280603 0.751220
  H 6.534154 -0.653461 -1.576478
 7
 0.000000
  H 2.809471 -0.010817 0.025969
  C 3.877729 -0.033463 -0.030796
  C 5.832676 -1.053875 -2.575424
  H 5.589033 -1.441668 -3.542463
  O 6.508094 -1.119822 -2.740199
  H 4.400741 0.320241 0.850048
  H 6.541969 -0.656242 -1.583412
 7
 0.000000
  H 2.728410 0.028665 0.124416
  C 3.796929 0.007784 0.072053
  C 5.867695 -1.063002 -2.598177
  H 5.628679 -1.451193 -3.566212
  O 6.540414 -1.134668 -2.777211
  H 4.315723 0.362351 0.955041
  H 6.544854 -0.656493 -1.584037
