 13
 0.000000
  C 1.007811 -0.070648 0.048875
  C 2.504457 -0.084586 0.022739
  C 3.218085 -0.595401 -0.981868
  C 4.659891 -0.608453 -1.006659
  C 5.372621 -1.120492 -2.009859
  H 6.446218 -1.126004 -2.022629
  H 0.648183 0.393310 0.965281
  H 0.610274 -1.083868 0.006140
  H 0.610439 0.496260 -0.792512
  H 3.007689 0.348207 0.876683
  H 2.706963 -1.028003 -1.832491
  H 5.165234 -0.173232 -0.153805
  H 4.871656 -1.555767 -2.861557
 13
 -0.396862
  C 1.009131 -0.049951 0.046722
  C 2.500915 -0.042247 -0.001309
  C 3.220307 -0.690781 -0.916500
  C 4.661334 -0.639747 -0.993201
  C 5.361361 -1.122308 -2.014951
  H 6.434801 -1.057317 -2.057907
  H 0.647893 0.154581 1.051443
  H 0.614281 -1.007983 -0.285943
  H 0.613539 0.719018 -0.619807
  H 3.003358 0.553555 0.749718
  H 2.720145 -1.276535 -1.677696
  H 5.166375 -0.148396 -0.171216
  H 4.876419 -1.600406 -2.850579
 13
 2.161681
  C 1.037644 -0.026706 -0.026409
  C 2.524446 -0.117881 0.067499
  C 3.257690 -0.891844 -0.729139
  C 4.687701 -0.743455 -0.897540
  C 5.275864 -0.986675 -2.061848
  H 6.312656 -0.773533 -2.256895
  H 0.595010 0.365925 0.884762
  H 0.592627 -0.991375 -0.259637
  H 0.814239 0.656521 -0.848168
  H 3.011999 0.589247 0.726089
  H 2.765300 -1.579173 -1.406155
  H 5.230214 -0.272798 -0.088093
  H 4.724907 -1.433078 -2.874523
 13
 8.150033
  C 1.099247 -0.011753 -0.110123
  C 2.549028 -0.189647 0.135466
  C 3.295507 -1.034607 -0.561585
  C 4.716288 -0.802392 -0.816830
  C 5.142668 -0.888676 -2.070918
  H 6.113667 -0.553344 -2.400675
  H 0.584930 0.533756 0.683444
  H 0.596724 -0.974136 -0.282275
  H 1.070142 0.562677 -1.037768
  H 3.043224 0.588637 0.726415
  H 2.807007 -1.757587 -1.206942
  H 5.271880 -0.295416 -0.069578
  H 4.536205 -1.374374 -2.814586
 13
 17.413056
  C 1.179680 0.004426 -0.201950
  C 2.577584 -0.259442 0.231290
  C 3.335633 -1.128844 -0.409441
  C 4.717489 -0.822586 -0.776638
  C 4.968100 -0.824479 -2.067439
  H 5.868026 -0.385226 -2.522485
  H 0.588067 0.622341 0.458801
  H 0.635080 -0.931621 -0.423028
  H 1.367737 0.535103 -1.155599
  H 3.064994 0.544822 0.795024
  H 2.856997 -1.847785 -1.037944
  H 5.315225 -0.298494 -0.082625
  H 4.346260 -1.382629 -2.723634
 13
 28.511956
  C 1.290040 0.035711 -0.306112
  C 2.584283 -0.329997 0.305969
  C 3.361355 -1.247004 -0.295020
  C 4.694593 -0.853702 -0.746029
  C 4.797373 -0.745744 -2.065443
  H 5.600744 -0.220916 -2.572338
  H 0.683719 0.762831 0.229752
  H 0.677296 -0.853241 -0.559761
  H 1.677690 0.482915 -1.224795
  H 3.084663 0.457317 0.883153
  H 2.870697 -1.969070 -0.910619
  H 5.302366 -0.277453 -0.089705
  H 4.189321 -1.354612 -2.689709
 13
 39.962105
  C 1.408552 0.058202 -0.387532
  C 2.591589 -0.370461 0.366240
  C 3.366522 -1.333227 -0.213985
  C 4.649466 -0.857446 -0.750033
  C 4.619503 -0.679533 -2.055619
  H 5.368112 -0.101143 -2.575995
  H 0.828039 0.864277 0.045135
  H 0.756279 -0.768706 -0.697180
  H 1.948975 0.436481 -1.286205
  H 3.093447 0.389003 0.961744
  H 2.861947 -2.057539 -0.815424
  H 5.272775 -0.274613 -0.119012
  H 4.045551 -1.318319 -2.666531
 13
 53.421867
  C 1.563696 0.079968 -0.488827
  C 2.624296 -0.412424 0.430002
  C 3.387775 -1.399733 -0.121302
  C 4.584218 -0.865922 -0.737108
  C 4.383366 -0.607216 -2.039510
  H 5.079901 0.016663 -2.579389
  H 1.003080 0.939880 -0.145206
  H 0.918395 -0.691092 -0.900954
  H 2.264310 0.380077 -1.332797
  H 3.100292 0.326866 1.063708
  H 2.853921 -2.133492 -0.721464
  H 5.244074 -0.245924 -0.145937
  H 3.810766 -1.275769 -2.661032
 13
 67.591056
  C 1.690792 0.083637 -0.532193
  C 2.634882 -0.432441 0.460075
  C 3.380688 -1.452230 -0.098087
  C 4.522016 -0.866260 -0.739854
  C 4.192032 -0.527440 -2.016941
  H 4.839690 0.154235 -2.551285
  H 1.173653 0.999761 -0.284611
  H 1.049174 -0.644911 -1.018838
  H 2.519976 0.293849 -1.399672
  H 3.139334 0.299151 1.081379
  H 2.835428 -2.192515 -0.678416
  H 5.187360 -0.235113 -0.164940
  H 3.679440 -1.229141 -2.654044
 13
 77.866594
  C 1.736194 0.075017 -0.500206
  C 2.628481 -0.420194 0.468063
  C 3.376137 -1.458499 -0.110334
  C 4.478258 -0.855305 -0.737321
  C 4.096693 -0.480165 -2.038383
  H 4.735113 0.212248 -2.566412
  H 1.265847 1.027437 -0.306349
  H 1.100177 -0.620601 -1.030686
  H 2.805849 0.213889 -1.589397
  H 3.116716 0.278538 1.134421
  H 2.813074 -2.160767 -0.720972
  H 5.115542 -0.191414 -0.168408
  H 3.632878 -1.216036 -2.681037
 13
 68.524606
  C 1.663655 0.084057 -0.381646
  C 2.561667 -0.411525 0.492192
  C 3.361912 -1.428360 -0.163738
  C 4.453440 -0.803522 -0.763328
  C 4.110941 -0.452526 -2.154827
  H 4.806980 0.208606 -2.667528
  H 1.203433 1.058875 -0.159139
  H 1.053650 -0.551281 -0.945584
  H 3.105532 0.172408 -1.861743
  H 3.033884 0.218513 1.178086
  H 2.819578 -2.138919 -0.755112
  H 5.065896 -0.119019 -0.156033
  H 3.751602 -1.250586 -2.779992
 13
 52.434207
  C 1.549516 0.103799 -0.251917
  C 2.529804 -0.386420 0.513055
  C 3.336542 -1.354131 -0.231995
  C 4.430701 -0.759105 -0.816797
  C 4.221641 -0.447773 -2.246516
  H 4.983928 0.141822 -2.713816
  H 1.045833 1.015689 0.025312
  H 0.985869 -0.535833 -0.890297
  H 3.285707 0.203269 -2.091983
  H 3.016110 0.220126 1.226709
  H 2.788706 -2.050783 -0.841403
  H 5.021904 -0.072962 -0.223879
  H 3.921259 -1.288952 -2.866314
 13
 39.232862
  C 1.427838 0.100611 -0.098613
  C 2.504807 -0.390222 0.520303
  C 3.300301 -1.237918 -0.360399
  C 4.383929 -0.657752 -0.897181
  C 4.365316 -0.467772 -2.345285
  H 5.254503 0.047240 -2.769834
  H 0.900452 0.981097 0.280476
  H 0.906159 -0.484158 -0.781069
  H 3.471752 0.188423 -2.372359
  H 2.985455 0.137280 1.271157
  H 2.754029 -1.918798 -0.981074
  H 4.912606 0.096311 -0.278737
  H 4.124113 -1.391787 -2.920212
 13
 25.340289
  C 1.320082 0.090461 0.081710
  C 2.470838 -0.367065 0.539470
  C 3.236333 -1.123989 -0.453626
  C 4.336805 -0.573847 -0.959406
  C 4.496502 -0.518989 -2.414566
  H 5.447150 -0.105737 -2.771559
  H 0.759929 0.883335 0.553174
  H 0.803044 -0.439675 -0.667145
  H 3.653474 0.157920 -2.632246
  H 2.964677 0.067325 1.354021
  H 2.672979 -1.777830 -1.081447
  H 4.840236 0.211030 -0.368307
  H 4.289212 -1.500383 -2.912901
 13
 1.022260
  C 1.035791 -0.079774 0.536205
  C 2.356065 -0.177262 0.423434
  C 3.007140 -0.698825 -0.764171
  C 4.190613 -0.271578 -1.202002
  C 4.785328 -0.674150 -2.515299
  H 5.870326 -0.704353 -2.461894
  H 0.560838 0.342367 1.404598
  H 0.383764 -0.415411 -0.254764
  H 4.506159 0.053907 -3.280575
  H 3.001880 0.210414 1.202013
  H 2.431351 -1.394251 -1.363803
  H 4.746242 0.459871 -0.630016
  H 4.415763 -1.648400 -2.826555
