 19
 0.000000
  C -1.098439 -0.147697 0.056005
  C -1.336510 -1.620907 0.005848
  C -0.706425 -2.367460 1.161202
  C -2.831792 -2.130111 -0.029886
  C -3.865570 -1.081194 0.171384
  O -3.050280 -3.287634 -0.178814
  H -0.014149 0.012373 -0.003259
  H -1.407551 0.301624 0.997774
  H -1.535285 0.379458 -0.787335
  H -0.968604 -2.015146 -0.949434
  H -1.101776 -2.053128 2.126475
  H 0.358253 -2.125649 1.169392
  H -0.841721 -3.440728 1.062526
  H -3.477320 -0.075627 0.235423
  H -4.401656 -1.342257 1.086704
  H -4.575565 -1.169559 -0.653483
  O 2.247585 -0.064607 0.003418
  H 2.780302 -0.526546 -0.649828
  H 2.839615 0.187348 0.716660
 19
 -0.429994
  C -1.042206 -0.158124 0.054282
  C -1.284282 -1.628140 0.006842
  C -0.672034 -2.385777 1.175540
  C -2.786104 -2.106068 -0.036171
  C -3.796410 -1.047347 0.163460
  O -3.014229 -3.262650 -0.191588
  H 0.046221 -0.020112 0.001094
  H -1.336031 0.297281 0.999504
  H -1.461989 0.374371 -0.797659
  H -0.927996 -2.038843 -0.950977
  H -1.068101 -2.057897 2.136044
  H 0.395150 -2.167981 1.187258
  H -0.821749 -3.459735 1.080215
  H -3.390183 -0.047114 0.232353
  H -4.343324 -1.301135 1.074098
  H -4.508988 -1.120902 -0.659469
  O 1.967279 -0.078972 0.004070
  H 2.495869 -0.532697 -0.646633
  H 2.547537 0.179086 0.712390
 19
 0.416290
  C -0.992840 -0.171985 0.043138
  C -1.247171 -1.640326 0.002157
  C -0.651713 -2.396062 1.185374
  C -2.768325 -2.093238 -0.039012
  C -3.774970 -1.030828 0.167192
  O -3.018413 -3.247199 -0.200567
  H 0.135586 -0.040138 -0.021524
  H -1.267198 0.289458 0.979658
  H -1.397936 0.358963 -0.808188
  H -0.893808 -2.067441 -0.952166
  H -1.056285 -2.049278 2.135020
  H 0.420279 -2.204417 1.202408
  H -0.823977 -3.471610 1.100166
  H -3.356461 -0.031430 0.240256
  H -4.320815 -1.280061 1.071430
  H -4.489191 -1.092662 -0.648294
  O 1.800146 -0.072828 0.009067
  H 2.339911 -0.522140 -0.644507
  H 2.357894 0.199878 0.729330
 19
 3.497710
  C -0.957526 -0.194417 0.038661
  C -1.214653 -1.653416 0.000144
  C -0.633207 -2.413306 1.192209
  C -2.731469 -2.070379 -0.039074
  C -3.741984 -1.007637 0.167217
  O -2.991918 -3.225401 -0.205133
  H 0.205107 -0.070728 -0.026991
  H -1.216373 0.277366 0.977964
  H -1.348781 0.344070 -0.817568
  H -0.865263 -2.094349 -0.948966
  H -1.044319 -2.054104 2.130470
  H 0.438003 -2.256267 1.222078
  H -0.830091 -3.480082 1.107167
  H -3.321111 -0.008434 0.242348
  H -4.293860 -1.252343 1.072391
  H -4.458140 -1.062628 -0.650303
  O 1.642662 -0.067632 -0.000661
  H 2.164664 -0.503726 -0.648317
  H 2.202513 0.225980 0.745608
 19
 6.949638
  C -0.936298 -0.219587 0.035926
  C -1.202766 -1.670989 0.000048
  C -0.632655 -2.432319 1.200255
  C -2.729500 -2.064121 -0.041121
  C -3.735682 -0.993380 0.171614
  O -3.008219 -3.218052 -0.214092
  H 0.310711 -0.105366 -0.026827
  H -1.179108 0.257743 0.980596
  H -1.301994 0.323816 -0.830678
  H -0.841443 -2.116459 -0.937988
  H -1.055355 -2.066696 2.128804
  H 0.438397 -2.304986 1.241467
  H -0.850163 -3.491366 1.117698
  H -3.303080 -0.002921 0.251483
  H -4.293481 -1.236690 1.078532
  H -4.458279 -1.034873 -0.645711
  O 1.577124 -0.022810 -0.007246
  H 2.119724 -0.460875 -0.674631
  H 2.100246 0.283102 0.743193
 19
 9.184542
  C -0.925050 -0.258777 0.048801
  C -1.213270 -1.707792 0.008269
  C -0.660068 -2.469448 1.216515
  C -2.738201 -2.069537 -0.042102
  C -3.731932 -0.984603 0.170412
  O -3.047576 -3.218950 -0.225802
  H 0.439827 -0.158710 0.026402
  H -1.134317 0.230825 0.989790
  H -1.230558 0.304555 -0.822234
  H -0.841082 -2.168018 -0.923477
  H -1.088401 -2.092425 2.135633
  H 0.409447 -2.371864 1.268506
  H -0.900544 -3.520818 1.137029
  H -3.276826 -0.003081 0.256120
  H -4.300783 -1.217723 1.077310
  H -4.451159 -1.004207 -0.654747
  O 1.563075 0.076364 -0.054974
  H 2.103999 -0.354619 -0.733548
  H 2.069252 0.396460 0.708874
 19
 10.782941
  C -0.934549 -0.286697 0.049058
  C -1.231372 -1.721960 0.008748
  C -0.676820 -2.489822 1.228712
  C -2.747652 -2.071562 -0.043683
  C -3.741813 -0.980080 0.174017
  O -3.067619 -3.218734 -0.237600
  H 0.577434 -0.166817 0.026113
  H -1.118189 0.206796 0.994030
  H -1.205601 0.280324 -0.830418
  H -0.856093 -2.186959 -0.915470
  H -1.103284 -2.102974 2.153250
  H 0.403308 -2.406774 1.279367
  H -0.932689 -3.546576 1.154190
  H -3.283757 -0.007924 0.264267
  H -4.310833 -1.212659 1.075568
  H -4.457034 -0.990687 -0.646679
  O 1.582809 0.133713 -0.075554
  H 2.134626 -0.296980 -0.752008
  H 2.065825 0.452349 0.706782
 19
 12.199780
  C -0.953517 -0.308814 0.047757
  C -1.257267 -1.750385 0.014683
  C -0.714458 -2.511498 1.231320
  C -2.770359 -2.092574 -0.037886
  C -3.756034 -0.993084 0.185612
  O -3.097103 -3.238055 -0.236660
  H 0.732430 -0.141910 0.023664
  H -1.106393 0.195665 0.991836
  H -1.188932 0.263730 -0.840979
  H -0.883539 -2.216155 -0.899468
  H -1.132667 -2.114944 2.143873
  H 0.359709 -2.444426 1.280731
  H -0.984422 -3.558779 1.164365
  H -3.278728 -0.009928 0.278030
  H -4.318860 -1.220123 1.081715
  H -4.471093 -0.993791 -0.630981
  O 1.653266 0.207409 -0.095422
  H 2.218510 -0.232315 -0.761060
  H 2.115925 0.518216 0.706332
 19
 14.488856
  C -0.987880 -0.336755 0.043914
  C -1.289570 -1.766313 0.015086
  C -0.750338 -2.530566 1.239912
  C -2.811922 -2.107629 -0.037358
  C -3.790058 -1.003980 0.197794
  O -3.140464 -3.251560 -0.241948
  H 0.931059 -0.118502 0.016043
  H -1.108480 0.168704 0.985792
  H -1.191648 0.231194 -0.848758
  H -0.913669 -2.243180 -0.906523
  H -1.167303 -2.121557 2.161631
  H 0.327251 -2.475555 1.288004
  H -1.035361 -3.584377 1.177756
  H -3.308250 -0.042156 0.289578
  H -4.354189 -1.231668 1.105801
  H -4.512161 -0.991878 -0.620794
  O 1.776375 0.291341 -0.114299
  H 2.362259 -0.146540 -0.764990
  H 2.223666 0.596714 0.699425
 19
 18.091904
  C -1.020964 -0.353586 0.038626
  C -1.320771 -1.782472 0.018182
  C -0.784030 -2.537102 1.237892
  C -2.873129 -2.135359 -0.032824
  C -3.847648 -1.027688 0.212625
  O -3.191524 -3.280862 -0.236830
  H 1.153369 -0.104811 0.008645
  H -1.119705 0.153541 0.977134
  H -1.206460 0.215944 -0.858172
  H -0.937370 -2.261062 -0.893110
  H -1.201800 -2.127075 2.154971
  H 0.295780 -2.489280 1.283862
  H -1.073860 -3.587588 1.178232
  H -3.358408 -0.063529 0.303983
  H -4.401713 -1.254399 1.120362
  H -4.570956 -1.010198 -0.594865
  O 1.931615 0.359841 -0.123796
  H 2.541945 -0.072326 -0.761801
  H 2.368539 0.666594 0.700377
 19
 21.484458
  C -1.060258 -0.388857 0.030677
  C -1.353648 -1.816604 0.006689
  C -0.848659 -2.569215 1.241712
  C -2.935986 -2.159883 -0.029023
  C -3.890218 -1.047870 0.231855
  O -3.262299 -3.303681 -0.228976
  H 1.434062 -0.084549 -0.006967
  H -1.152689 0.125843 0.973406
  H -1.237611 0.179190 -0.858272
  H -0.986557 -2.307292 -0.902792
  H -1.260548 -2.131101 2.147007
  H 0.237048 -2.534195 1.301692
  H -1.149749 -3.613194 1.194016
  H -3.387304 -0.092355 0.316998
  H -4.430636 -1.269234 1.148700
  H -4.626138 -1.020212 -0.565844
  O 2.131908 0.467899 -0.142664
  H 2.781908 0.069121 -0.761141
  H 2.545718 0.786487 0.687222
 19
 20.505577
  C -1.112874 -0.459067 0.029382
  C -1.419145 -1.886359 -0.007855
  C -0.964381 -2.632187 1.257889
  C -2.990817 -2.189023 -0.019178
  C -3.925838 -1.060303 0.258245
  O -3.351761 -3.324742 -0.218676
  H 1.867891 -0.100089 -0.033390
  H -1.189240 0.050446 0.972541
  H -1.280622 0.129522 -0.852288
  H -1.070502 -2.388725 -0.912364
  H -1.389186 -2.160519 2.145379
  H 0.123764 -2.632374 1.344588
  H -1.298049 -3.666863 1.223331
  H -3.401977 -0.104841 0.337754
  H -4.458525 -1.276102 1.183456
  H -4.678719 -1.019999 -0.536054
  O 2.412949 0.627006 -0.180565
  H 3.131324 0.355855 -0.791264
  H 2.762887 1.019467 0.645510
 19
 19.221486
  C -1.151041 -0.499755 0.059666
  C -1.470184 -1.922750 0.032880
  C -1.031373 -2.678933 1.290281
  C -3.048152 -2.206617 -0.011684
  C -3.978326 -1.069110 0.254994
  O -3.426176 -3.330127 -0.248075
  H 2.237341 -0.075414 -0.048407
  H -1.186508 0.009464 1.009008
  H -1.305347 0.085918 -0.821078
  H -1.139368 -2.422647 -0.886458
  H -1.453720 -2.209114 2.174763
  H 0.055274 -2.685962 1.380729
  H -1.376496 -3.712460 1.246572
  H -3.447662 -0.123909 0.350284
  H -4.530877 -1.284871 1.167715
  H -4.711140 -1.015450 -0.548166
  O 2.648660 0.737735 -0.228299
  H 3.387690 0.558377 -0.854493
  H 2.989803 1.143968 0.601553
 19
 20.253893
  C -1.156530 -0.536408 0.078465
  C -1.485201 -1.955993 0.058063
  C -1.079385 -2.720575 1.315977
  C -3.091980 -2.215295 -0.011950
  C -4.003863 -1.066579 0.257793
  O -3.487259 -3.331602 -0.254344
  H 2.539146 -0.027563 -0.051104
  H -1.178276 -0.023973 1.025127
  H -1.312942 0.050030 -0.807844
  H -1.185461 -2.460899 -0.870030
  H -1.510707 -2.248325 2.195631
  H 0.004392 -2.740207 1.423938
  H -1.435455 -3.746631 1.261744
  H -3.457675 -0.135080 0.366306
  H -4.566452 -1.280623 1.165899
  H -4.729773 -0.992666 -0.549066
  O 2.846130 0.816603 -0.259676
  H 3.590285 0.687327 -0.887996
  H 3.169878 1.253206 0.558987
