15

C -3.50545 0.986108 -0.129279
C -2.063666 0.587698 -0.032034
C -1.652335 -0.477647 0.636346
C -0.237595 -0.946445 0.798616
C 0.810276 -0.079328 0.106388
H 1.2342449873968746 -0.23971854289905542 0.17705720022101593
H -4.10899 0.154403 -0.493912
H -3.63742 1.838622 -0.789024
H -3.887324 1.253934 0.856216
H -1.358694 1.224827 -0.539662
H -2.386459 -1.101084 1.133506
H -0.01307 -0.997731 1.86946
H -0.171008 -1.967984 0.410776
H 0.60767 -0.058606 -0.967423
H 0.747102 0.94241 0.488384
