13

C 1.007473 -0.07152 0.047655
C 2.503753 -0.082626 0.025853
C 3.219079 -0.595573 -0.98115
C 4.657197 -0.605914 -1.001448
C 5.377771 -1.121152 -2.012944
H 6.447655825972884 -1.1282782333908123 -2.026932422020771
H 0.645529 0.394752 0.963018
H 0.611833 -1.086286 0.009051
H 0.611833 0.493894 -0.795878
H 3.004395 0.352737 0.880546
H 2.705654 -1.028851 -1.831735
H 5.161182 -0.170943 -0.147532
H 4.872886 -1.555913 -2.866455
