 23
 0.000000
  C 0.975046 0.181177 0.503065
  C 2.430666 0.122828 0.357116
  H 3.060216 0.450418 1.171531
  C 3.000855 -0.344834 -0.806852
  C 4.384273 -0.419503 -0.993660
  C 5.098921 -0.866031 -2.107130
  C 4.626694 -1.390343 -3.414473
  C 3.143395 -1.519064 -3.736336
  C 2.963300 -2.083385 -5.143527
  O 6.413255 -0.848404 -2.063559
  H 0.661940 0.568801 1.467339
  H 0.545106 -0.813194 0.367089
  H 0.544633 0.804492 -0.283295
  H 2.336156 -0.660819 -1.592906
  H 4.980289 -0.081125 -0.150850
  H 5.097393 -2.373511 -3.533037
  H 5.097861 -0.761937 -4.179556
  H 2.659412 -0.542871 -3.694804
  H 2.658993 -2.195820 -3.031884
  H 3.416059 -1.431649 -5.886968
  H 1.906103 -2.177107 -5.377934
  H 3.415666 -3.068380 -5.230528
  H 6.771119 -0.510696 -1.220104
 23
 1.115074
  C 0.971028 0.206611 0.529685
  C 2.408721 0.004742 0.357845
  H 3.042307 0.046545 1.233728
  C 2.979704 -0.247816 -0.868008
  C 4.358193 -0.429275 -1.007331
  C 5.098552 -0.817731 -2.125872
  C 4.639493 -1.365992 -3.426799
  C 3.156524 -1.511952 -3.740373
  C 2.977029 -2.175986 -5.103438
  O 6.411559 -0.832964 -2.039522
  H 0.696765 0.375547 1.565268
  H 0.417584 -0.651594 0.141438
  H 0.635025 1.049919 -0.078602
  H 2.336555 -0.284305 -1.730477
  H 4.948298 -0.282836 -0.109491
  H 5.121580 -2.346899 -3.524355
  H 5.114188 -0.755673 -4.204376
  H 2.678724 -0.532962 -3.772974
  H 2.669446 -2.129797 -2.985481
  H 3.437372 -1.582627 -5.889836
  H 1.920663 -2.281326 -5.336299
  H 3.424653 -3.166909 -5.116909
  H 6.796857 -0.257749 -1.354440
 23
 5.782538
  C 0.948383 0.185409 0.505190
  C 2.377492 -0.076239 0.346397
  H 2.977773 -0.214675 1.235600
  C 2.982096 -0.173891 -0.884050
  C 4.351634 -0.419203 -1.008247
  C 5.101278 -0.799246 -2.118197
  C 4.648566 -1.378177 -3.403312
  C 3.162384 -1.484568 -3.715690
  C 2.955443 -2.205171 -5.045288
  O 6.420521 -0.858891 -1.973746
  H 0.644379 0.209520 1.545766
  H 0.361337 -0.566069 -0.028008
  H 0.685063 1.130319 0.023498
  H 2.379053 -0.031155 -1.765902
  H 4.956925 -0.358491 -0.110724
  H 5.105156 -2.374721 -3.464144
  H 5.147109 -0.807983 -4.196482
  H 2.723317 -0.490165 -3.792659
  H 2.650939 -2.041930 -2.930101
  H 3.437981 -1.668459 -5.858662
  H 1.895611 -2.280371 -5.273822
  H 3.363998 -3.212347 -5.011078
  H 6.843005 -0.060343 -1.613212
 23
 10.595074
  C 0.952646 0.120700 0.408725
  C 2.379562 -0.154352 0.288386
  H 2.936634 -0.394447 1.182178
  C 3.028564 -0.154722 -0.904674
  C 4.398020 -0.420910 -0.991390
  C 5.139072 -0.795166 -2.081414
  C 4.664626 -1.370952 -3.348330
  C 3.174887 -1.445340 -3.646588
  C 2.935191 -2.187277 -4.958861
  O 6.473362 -0.859781 -1.929721
  H 0.601918 0.056075 1.433125
  H 0.378102 -0.565617 -0.217195
  H 0.726458 1.110573 0.002271
  H 2.468858 0.091383 -1.796747
  H 4.985504 -0.304410 -0.081976
  H 5.096434 -2.382189 -3.391708
  H 5.175324 -0.840427 -4.159327
  H 2.759876 -0.441014 -3.738467
  H 2.656935 -1.970899 -2.844977
  H 3.421119 -1.678712 -5.789678
  H 1.871284 -2.240268 -5.173900
  H 3.318584 -3.203171 -4.909110
  H 6.947693 -0.034011 -1.968298
 23
 15.053066
  C 0.883753 0.096195 0.437724
  C 2.304175 -0.219439 0.292879
  H 2.836600 -0.614391 1.147754
  C 2.984762 -0.055302 -0.888169
  C 4.350943 -0.355534 -1.006921
  C 5.114973 -0.769498 -2.085240
  C 4.684952 -1.407014 -3.344285
  C 3.192704 -1.428108 -3.649744
  C 2.914387 -2.211872 -4.928769
  O 6.436126 -0.775215 -1.819524
  H 0.507271 -0.137276 1.427528
  H 0.290498 -0.437152 -0.308584
  H 0.715064 1.153427 0.217423
  H 2.460910 0.350381 -1.741849
  H 5.043202 -0.186028 -0.187734
  H 5.077447 -2.431883 -3.321734
  H 5.211055 -0.921303 -4.174725
  H 2.824062 -0.410600 -3.775798
  H 2.650407 -1.890461 -2.823182
  H 3.426411 -1.765861 -5.778231
  H 1.849546 -2.219329 -5.145149
  H 3.246716 -3.243065 -4.834259
  H 6.965543 -0.080511 -2.240226
 23
 24.738911
  C 0.879436 0.127991 0.491540
  C 2.273875 -0.255862 0.273722
  H 2.769384 -0.845150 1.031536
  C 2.959674 0.062895 -0.864068
  C 4.296160 -0.319501 -1.066539
  C 5.081193 -0.730145 -2.128062
  C 4.725847 -1.419316 -3.382453
  C 3.225199 -1.497974 -3.662230
  C 2.956019 -2.269351 -4.950684
  O 6.379894 -0.689498 -1.741567
  H 0.497915 -0.234245 1.440097
  H 0.242668 -0.240439 -0.314178
  H 0.786468 1.215484 0.451364
  H 2.481613 0.686188 -1.610531
  H 5.125105 -0.224898 -0.352233
  H 5.149417 -2.429342 -3.333204
  H 5.227678 -0.924175 -4.221092
  H 2.814914 -0.492500 -3.754372
  H 2.720862 -1.998927 -2.834294
  H 3.422861 -1.785018 -5.804668
  H 1.887718 -2.333049 -5.140143
  H 3.342723 -3.283966 -4.878984
  H 6.960221 -0.076117 -2.220095
 23
 46.368316
  C 0.886560 0.168092 0.641433
  C 2.249752 -0.271143 0.322232
  H 2.724762 -0.991731 0.973729
  C 2.905866 0.142066 -0.803717
  C 4.176255 -0.285026 -1.156804
  C 4.976587 -0.713113 -2.166728
  C 4.734790 -1.449759 -3.418201
  C 3.248158 -1.553981 -3.764492
  C 3.037691 -2.349877 -5.046811
  O 6.273250 -0.621454 -1.688307
  H 0.516849 -0.296663 1.550488
  H 0.202952 -0.057629 -0.179287
  H 0.860166 1.253423 0.765258
  H 2.443037 0.898382 -1.428667
  H 5.236012 -0.209901 -0.546303
  H 5.158865 -2.454073 -3.319019
  H 5.273975 -0.965192 -4.238131
  H 2.837100 -0.552102 -3.891289
  H 2.723880 -2.041220 -2.941421
  H 3.529057 -1.860091 -5.884404
  H 1.978466 -2.413839 -5.281816
  H 3.430484 -3.359101 -4.954580
  H 6.862367 0.029928 -2.106464
 23
 61.235152
  C 0.900588 0.222431 0.788274
  C 2.215273 -0.275848 0.352890
  H 2.698068 -1.033466 0.952799
  C 2.822377 0.158064 -0.795693
  C 4.049227 -0.284929 -1.231929
  C 4.865501 -0.708957 -2.172612
  C 4.716021 -1.464793 -3.436522
  C 3.254576 -1.587877 -3.865352
  C 3.128510 -2.399109 -5.148791
  O 6.192825 -0.580599 -1.606787
  H 0.566290 -0.260074 1.700700
  H 0.152438 0.069068 0.008566
  H 0.941997 1.301266 0.950227
  H 2.354060 0.959506 -1.358749
  H 5.440481 -0.243693 -0.631754
  H 5.152971 -2.459260 -3.308808
  H 5.284967 -0.960243 -4.223266
  H 2.835320 -0.593731 -4.023722
  H 2.682501 -2.072654 -3.073128
  H 3.670801 -1.924204 -5.963198
  H 2.085979 -2.485976 -5.443258
  H 3.525733 -3.402243 -5.012779
  H 6.772733 0.078147 -2.045014
 23
 54.248605
  C 0.899728 0.217868 0.811078
  C 2.203876 -0.280980 0.326445
  H 2.681405 -1.078128 0.878288
  C 2.793582 0.194601 -0.813292
  C 4.003493 -0.226136 -1.282782
  C 4.828335 -0.660227 -2.190755
  C 4.710201 -1.446977 -3.439860
  C 3.254384 -1.581951 -3.886380
  C 3.146923 -2.428018 -5.151092
  O 6.191680 -0.582197 -1.562991
  H 0.568663 -0.315188 1.697932
  H 0.137056 0.124823 0.034309
  H 0.966129 1.283676 1.041888
  H 2.315749 1.015375 -1.339241
  H 5.665640 -0.303386 -0.706442
  H 5.136803 -2.440576 -3.273539
  H 5.289379 -0.960841 -4.230729
  H 2.816307 -0.597953 -4.053968
  H 2.686273 -2.068519 -3.089971
  H 3.695231 -1.967871 -5.970730
  H 2.107538 -2.527427 -5.456541
  H 3.553464 -3.423292 -4.986267
  H 6.807192 0.072700 -1.968798
 23
 46.392299
  C 0.873451 0.244894 0.891521
  C 2.153735 -0.293086 0.379427
  H 2.630361 -1.091261 0.932865
  C 2.738405 0.174853 -0.775636
  C 3.902844 -0.278147 -1.292599
  C 4.772146 -0.688293 -2.154361
  C 4.698795 -1.461642 -3.429018
  C 3.259458 -1.606852 -3.924983
  C 3.202239 -2.442071 -5.204597
  O 6.177513 -0.542505 -1.606793
  H 0.560634 -0.261969 1.799803
  H 0.085239 0.145250 0.141881
  H 0.961954 1.314135 1.097698
  H 2.292220 1.037081 -1.262847
  H 5.815597 -0.223086 -0.730008
  H 5.143006 -2.451585 -3.276766
  H 5.291646 -0.949059 -4.191437
  H 2.837087 -0.620460 -4.116043
  H 2.655272 -2.084023 -3.153559
  H 3.771138 -1.973256 -6.001138
  H 2.172982 -2.550528 -5.542735
  H 3.604708 -3.437761 -5.035109
  H 6.746977 0.084925 -2.110073
 23
 41.379640
  C 0.867302 0.240977 0.886627
  C 2.122444 -0.305940 0.334382
  H 2.562892 -1.162895 0.818567
  C 2.718136 0.218385 -0.786588
  C 3.867734 -0.233261 -1.336350
  C 4.766375 -0.657536 -2.157217
  C 4.694980 -1.447867 -3.413931
  C 3.259982 -1.615763 -3.903586
  C 3.213377 -2.451195 -5.176061
  O 6.181653 -0.548346 -1.656524
  H 0.528896 -0.326917 1.747015
  H 0.080232 0.240351 0.130962
  H 1.001886 1.282319 1.184918
  H 2.282722 1.107898 -1.229534
  H 5.993595 -0.256265 -0.735567
  H 5.141278 -2.429038 -3.239612
  H 5.282466 -0.949148 -4.186903
  H 2.825781 -0.634738 -4.100381
  H 2.661870 -2.096460 -3.128853
  H 3.784332 -1.978474 -5.971940
  H 2.188360 -2.565729 -5.518517
  H 3.623941 -3.443493 -5.002647
  H 6.722429 0.099385 -2.166924
 23
 38.937768
  C 0.848144 0.235210 0.860855
  C 2.092337 -0.322729 0.288353
  H 2.497497 -1.223447 0.723213
  C 2.726975 0.254641 -0.788067
  C 3.864331 -0.202546 -1.352140
  C 4.781135 -0.632775 -2.146509
  C 4.700679 -1.430458 -3.407855
  C 3.259328 -1.636087 -3.869063
  C 3.208426 -2.475203 -5.140387
  O 6.204567 -0.528612 -1.695516
  H 0.486837 -0.365459 1.689764
  H 0.065852 0.293374 0.101837
  H 1.010663 1.255712 1.213030
  H 2.323030 1.179371 -1.186218
  H 6.169345 -0.337607 -0.730916
  H 5.174461 -2.400839 -3.240878
  H 5.256574 -0.915373 -4.194633
  H 2.792254 -0.667677 -4.054222
  H 2.691108 -2.134136 -3.081888
  H 3.747814 -1.987274 -5.949223
  H 2.179577 -2.619184 -5.460512
  H 3.650848 -3.455009 -4.975373
  H 6.723333 0.157714 -2.177954
 23
 38.803226
  C 0.831900 0.237868 0.857670
  C 2.082681 -0.312000 0.290704
  H 2.505717 -1.195295 0.743467
  C 2.706195 0.255374 -0.795868
  C 3.849090 -0.193995 -1.351578
  C 4.787853 -0.629795 -2.123538
  C 4.711424 -1.421979 -3.392893
  C 3.269954 -1.655552 -3.841603
  C 3.224923 -2.466010 -5.131649
  O 6.202772 -0.532453 -1.684066
  H 0.479008 -0.357526 1.694164
  H 0.048083 0.277553 0.099068
  H 0.982949 1.263783 1.198833
  H 2.282099 1.160737 -1.215722
  H 6.272117 -0.182897 -0.765777
  H 5.203847 -2.385118 -3.238813
  H 5.244003 -0.888351 -4.183917
  H 2.774941 -0.696000 -3.998095
  H 2.724512 -2.186096 -3.059639
  H 3.745650 -1.948191 -5.934122
  H 2.196422 -2.624980 -5.445289
  H 3.689246 -3.439775 -4.993379
  H 6.772780 -0.046281 -2.323668
