11

H -1.802640859919658 0.4240765742898859 0.8049842864746201
C -1.208123 0.214811 -0.059687
O -0.010043 0.005414 0.00549
C -1.912329 0.1793 -1.385925
H -2.990054 0.249077 -1.26384
H -1.683454 -0.758896 -1.885818
H -1.567751 1.011375 -1.994672
O 3.359291 0.174136 0.039409
H 3.577813 0.852148 0.713228
H 2.393171 0.004581 0.003832
H 3.860932 -0.655132 0.189434
