 20
 0.000000
  C 1.008113 -0.070829 0.049011
  C 2.504371 -0.082360 0.026375
  C 3.218971 -0.595514 -0.981034
  C 4.656599 -0.607158 -1.003891
  C 5.375578 -1.123088 -2.016748
  C 6.814139 -1.131530 -2.033316
  C 7.534696 -1.642699 -3.036834
  C 9.024751 -1.660699 -3.072164
  H 0.646817 0.395536 0.964559
  H 0.612169 -1.085466 0.010624
  H 0.612170 0.494686 -0.794288
  H 3.005626 0.352843 0.880756
  H 2.706709 -1.028671 -1.831382
  H 5.162769 -0.172068 -0.149741
  H 4.872520 -1.558196 -2.870937
  H 7.318908 -0.696627 -1.179527
  H 7.037878 -2.079404 -3.894141
  H 9.456590 -1.207158 -2.181794
  H 9.385015 -1.114455 -3.945289
  H 9.385012 -2.688126 -3.143689
 20
 4.720394
  C 1.021914 -0.038379 0.112707
  C 2.513564 -0.089117 0.013104
  C 3.162451 -0.609608 -1.008700
  C 4.583554 -0.658694 -1.105054
  C 5.354532 -1.152394 -2.074269
  C 6.791770 -1.142536 -2.054915
  C 7.540795 -1.630956 -3.013775
  C 9.029129 -1.628548 -3.009050
  H 0.707478 0.433624 1.039302
  H 0.600124 -1.042000 0.078337
  H 0.600137 0.523891 -0.719301
  H 3.076342 0.330049 0.835993
  H 2.614648 -1.031905 -1.837734
  H 5.266190 -0.289260 -0.379793
  H 4.904445 -1.602431 -2.957774
  H 7.262784 -0.701196 -1.188491
  H 7.073853 -2.073596 -3.882746
  H 9.416906 -1.167616 -2.104154
  H 9.409157 -1.082502 -3.872576
  H 9.409143 -2.648078 -3.075091
 20
 15.514737
  C 1.006142 -0.001343 0.185413
  C 2.490485 -0.078064 0.034798
  C 3.116318 -0.629243 -1.047250
  C 4.525405 -0.701690 -1.189468
  C 5.337743 -1.181435 -2.131279
  C 6.776633 -1.148628 -2.066858
  C 7.574521 -1.632866 -3.017509
  C 9.064189 -1.607695 -2.968106
  H 0.729459 0.476603 1.123675
  H 0.566207 -1.000038 0.160871
  H 0.566217 0.565979 -0.636837
  H 3.089270 0.332473 0.840748
  H 2.532216 -1.046415 -1.866213
  H 5.325352 -0.393771 -0.584969
  H 4.946678 -1.648737 -3.048671
  H 7.225951 -0.698725 -1.183629
  H 7.141213 -2.083635 -3.902457
  H 9.420779 -1.139833 -2.049586
  H 9.461978 -1.055675 -3.822727
  H 9.461957 -2.623497 -3.024083
 20
 29.841089
  C 1.021498 0.007461 0.202699
  C 2.501701 -0.084722 0.021733
  C 3.084734 -0.630683 -1.050077
  C 4.486981 -0.717106 -1.219734
  C 5.332472 -1.184976 -2.138235
  C 6.766191 -1.144252 -2.058279
  C 7.577320 -1.626806 -3.005619
  C 9.062988 -1.594749 -2.942688
  H 0.769650 0.487598 1.145268
  H 0.570224 -0.986630 0.188414
  H 0.570236 0.580375 -0.609791
  H 3.122568 0.318036 0.812411
  H 2.479057 -1.039276 -1.852216
  H 5.372030 -0.461882 -0.718687
  H 4.975713 -1.660588 -3.071936
  H 7.210734 -0.693947 -1.174256
  H 7.154379 -2.078929 -3.893209
  H 9.407950 -1.126855 -2.024125
  H 9.464985 -1.041773 -3.791462
  H 9.464962 -2.606392 -2.994445
 20
 45.337898
  C 1.015185 0.017091 0.221592
  C 2.490524 -0.082844 0.025419
  C 3.058121 -0.632891 -1.054414
  C 4.458395 -0.725352 -1.235902
  C 5.344381 -1.184967 -2.138189
  C 6.776457 -1.141394 -2.052642
  C 7.588339 -1.623575 -2.999250
  C 9.073644 -1.590460 -2.934263
  H 0.774552 0.499907 1.169415
  H 0.558197 -0.977115 0.211178
  H 0.558218 0.593210 -0.588713
  H 3.122615 0.317329 0.811031
  H 2.436971 -1.038292 -1.850297
  H 5.408929 -0.512997 -0.818987
  H 5.020522 -1.664516 -3.079646
  H 7.224540 -0.691249 -1.168930
  H 7.165162 -2.076472 -3.888354
  H 9.419583 -1.121642 -2.013887
  H 9.476033 -1.036866 -3.783864
  H 9.475978 -2.603041 -2.985991
 20
 58.748138
  C 0.998278 0.020028 0.227374
  C 2.479470 -0.076829 0.037241
  C 3.054916 -0.626313 -1.041480
  C 4.450501 -0.714703 -1.215007
  C 5.348205 -1.179971 -2.128406
  C 6.789180 -1.137939 -2.045896
  C 7.595932 -1.621870 -2.995948
  C 9.088781 -1.592530 -2.938393
  H 0.753769 0.499253 1.168152
  H 0.545029 -0.969296 0.215996
  H 0.545023 0.592520 -0.579591
  H 3.104130 0.322102 0.820417
  H 2.436550 -1.032132 -1.838173
  H 5.447166 -0.549327 -0.890342
  H 5.033315 -1.667946 -3.086389
  H 7.248377 -0.688508 -1.163598
  H 7.167721 -2.072521 -3.880661
  H 9.440015 -1.125205 -2.020974
  H 9.489452 -1.039316 -3.790353
  H 9.489538 -2.607058 -2.991847
 20
 70.295543
  C 0.987924 0.011336 0.210291
  C 2.469821 -0.072561 0.045637
  C 3.068002 -0.617393 -1.023948
  C 4.471160 -0.693311 -1.173002
  C 5.367921 -1.162196 -2.093498
  C 6.807484 -1.128974 -2.028250
  C 7.599884 -1.620417 -2.993057
  C 9.082543 -1.601619 -2.956234
  H 0.720546 0.494266 1.158348
  H 0.542828 -0.985254 0.191589
  H 0.542835 0.582196 -0.606870
  H 3.082011 0.334691 0.845170
  H 2.461627 -1.028571 -1.831177
  H 5.486664 -0.566117 -0.923304
  H 5.045000 -1.653582 -3.058163
  H 7.281056 -0.684420 -1.155539
  H 7.155586 -2.069568 -3.874827
  H 9.449741 -1.135862 -2.041895
  H 9.473195 -1.053035 -3.810069
  H 9.473275 -2.614862 -3.014548
 20
 79.065709
  C 0.979344 -0.002652 0.182790
  C 2.453270 -0.066137 0.058228
  C 3.085358 -0.602054 -0.993846
  C 4.499657 -0.659974 -1.107538
  C 5.387723 -1.137011 -2.044025
  C 6.821044 -1.118886 -2.008419
  C 7.584686 -1.618433 -2.989131
  C 9.080446 -1.617500 -2.987375
  H 0.688857 0.464680 1.100206
  H 0.549496 -1.002592 0.152879
  H 0.549566 0.561059 -0.643593
  H 3.030189 0.342832 0.861134
  H 2.500290 -1.023346 -1.820944
  H 5.536456 -0.566173 -0.923372
  H 5.046898 -1.620535 -2.993276
  H 7.320696 -0.677017 -1.140983
  H 7.118196 -2.058241 -3.852557
  H 9.472829 -1.158768 -2.086814
  H 9.461227 -1.069198 -3.856740
  H 9.461214 -2.642963 -3.055024
 20
 86.226130
  C 0.952744 -0.017534 0.153589
  C 2.441974 -0.062005 0.066316
  C 3.108379 -0.589508 -0.969248
  C 4.516455 -0.628598 -1.045967
  C 5.402362 -1.115373 -2.001565
  C 6.854171 -1.113008 -1.996927
  C 7.589463 -1.619579 -2.991399
  C 9.079545 -1.634539 -3.020759
  H 0.628518 0.450663 1.072699
  H 0.534057 -1.029977 0.111807
  H 0.534119 0.543899 -0.689860
  H 2.998312 0.357639 0.890162
  H 2.554155 -1.014813 -1.804203
  H 5.582008 -0.562496 -0.916174
  H 5.040301 -1.595050 -2.943260
  H 7.377509 -0.678898 -1.144715
  H 7.098933 -2.055173 -3.846538
  H 9.495717 -1.179696 -2.127806
  H 9.446876 -1.091558 -3.896134
  H 9.446762 -2.661624 -3.096213
 20
 91.696117
  C 0.949406 -0.009445 0.102658
  C 2.440333 -0.048867 0.062023
  C 3.138490 -0.567156 -0.952921
  C 4.546823 -0.602838 -0.984094
  C 5.414596 -1.114925 -1.942973
  C 6.872208 -1.105583 -1.983827
  C 7.575778 -1.655068 -2.973632
  C 9.062137 -1.662317 -3.049887
  H 0.592795 0.456874 1.019610
  H 0.538892 -1.013984 0.043411
  H 0.558737 0.549170 -0.744006
  H 2.971203 0.367602 0.906599
  H 2.610978 -0.989892 -1.805371
  H 5.619237 -0.517280 -0.924546
  H 5.027104 -1.648369 -2.842474
  H 7.418807 -0.628865 -1.173151
  H 7.057309 -2.137343 -3.795314
  H 9.505624 -1.160164 -2.190941
  H 9.395318 -1.162550 -3.958118
  H 9.432320 -2.685727 -3.086811
 20
 97.341251
  C 0.942194 -0.033942 0.103184
  C 2.432117 -0.037809 0.056724
  C 3.140290 -0.562125 -0.951126
  C 4.543079 -0.563619 -0.981809
  C 5.417976 -1.079598 -1.952726
  C 6.878990 -1.100512 -1.982231
  C 7.585063 -1.646814 -2.989344
  C 9.071863 -1.683503 -3.057733
  H 0.578322 0.441819 1.007358
  H 0.555355 -1.050599 0.068352
  H 0.534421 0.497041 -0.755026
  H 2.957442 0.409634 0.890150
  H 2.613671 -1.015644 -1.788677
  H 5.622318 -0.524658 -0.946199
  H 5.026851 -1.587904 -2.872932
  H 7.434376 -0.654521 -1.159160
  H 7.063857 -2.098416 -3.823673
  H 9.518635 -1.211402 -2.186254
  H 9.422408 -1.169814 -3.952820
  H 9.422271 -2.713928 -3.116156
 20
 101.784315
  C 0.938086 -0.041557 0.108698
  C 2.435073 -0.045378 0.046136
  C 3.130758 -0.567687 -0.964930
  C 4.538706 -0.568890 -1.003643
  C 5.429469 -1.078074 -1.965719
  C 6.887000 -1.103929 -1.991997
  C 7.586526 -1.642244 -2.992885
  C 9.076091 -1.686030 -3.056653
  H 0.581378 0.435795 1.020964
  H 0.549449 -1.063566 0.075915
  H 0.519396 0.491373 -0.749833
  H 2.968046 0.401121 0.873976
  H 2.595990 -1.022682 -1.801392
  H 5.634626 -0.537932 -0.976253
  H 5.044952 -1.579741 -2.889285
  H 7.437337 -0.664118 -1.162556
  H 7.065175 -2.085708 -3.832277
  H 9.523785 -1.221955 -2.179072
  H 9.431856 -1.166827 -3.948760
  H 9.421833 -2.719647 -3.122614
 20
 104.649085
  C 0.931932 -0.057543 0.109104
  C 2.424306 -0.042988 0.044470
  C 3.129305 -0.571050 -0.970779
  C 4.542313 -0.552079 -1.010089
  C 5.436786 -1.063179 -1.975301
  C 6.896831 -1.103441 -1.996775
  C 7.595929 -1.638823 -3.006219
  C 9.082368 -1.701387 -3.062522
  H 0.573392 0.420085 1.018935
  H 0.558248 -1.080867 0.083629
  H 0.506727 0.464941 -0.747682
  H 2.949206 0.416384 0.869118
  H 2.601387 -1.042919 -1.804659
  H 5.640690 -0.521699 -1.003998
  H 5.048534 -1.574696 -2.887380
  H 7.446735 -0.676582 -1.160959
  H 7.073916 -2.061755 -3.856495
  H 9.532059 -1.261524 -2.174354
  H 9.446941 -1.167593 -3.940288
  H 9.413733 -2.735720 -3.153321
 20
 107.141477
  C 0.934582 -0.062921 0.111799
  C 2.427446 -0.052519 0.042439
  C 3.128907 -0.582589 -0.978938
  C 4.514742 -0.566359 -1.020875
  C 5.435513 -1.080084 -1.988795
  C 6.901903 -1.107421 -2.002474
  C 7.600354 -1.630771 -3.011210
  C 9.090282 -1.692578 -3.066384
  H 0.580074 0.411069 1.010868
  H 0.549766 -1.083861 0.083313
  H 0.506050 0.461443 -0.744885
  H 2.965173 0.401233 0.853211
  H 2.581777 -1.032470 -1.791415
  H 5.631439 -0.556167 -1.009671
  H 5.048072 -1.589729 -2.916350
  H 7.461412 -0.700016 -1.169492
  H 7.078005 -2.048254 -3.859814
  H 9.534018 -1.270223 -2.177052
  H 9.471038 -1.151848 -3.940815
  H 9.424050 -2.728348 -3.161213
