18

C          5.05837        0.11955       -2.07137
N          4.15181        0.25531       -0.96453
C          2.99974        0.81637       -0.93048
O          2.28282        0.72716        0.09045
N          2.42978        1.55653       -2.02438
C          0.96351        1.60916       -2.07012
C          3.14000        2.41805       -2.88884
O          4.35553        2.63403       -2.89806
C          2.35049        3.20975       -3.92274
H          5.71993       -0.73332       -1.87045
H          5.72801        0.97842       -2.16121
H          4.55741       -0.09406       -3.01953
H          0.45922        0.90879       -1.39801
H          0.62892        1.35082       -3.08080
H          0.63697        2.62510       -1.82056
H          1.26712        3.16217       -3.85297
H          2.64058        2.86712       -4.92034
H          2.62357        4.26583       -3.81773
