 22
 0.000000
  C 0.990841 0.128091 0.369528
  C 2.457032 0.138531 0.395227
  C 3.222470 0.607520 1.562434
  C 2.444486 1.094798 2.775745
  C 3.394125 1.539734 3.883730
  C 3.116306 -0.321915 -0.750940
  C 4.514022 -0.388504 -0.917631
  C 5.106555 -0.842158 -2.048334
  H 4.592986 -1.194383 -2.925875
  H 6.184179 -0.862688 -2.099840
  H 0.542843 0.495387 1.284168
  H 0.629357 -0.885055 0.177804
  H 0.629137 0.726988 -0.469737
  H 3.893963 1.410234 1.230663
  H 3.894101 -0.201561 1.878047
  H 1.806389 0.297477 3.161550
  H 1.806420 1.937475 2.502978
  H 4.030312 0.719462 4.207890
  H 2.831619 1.886279 4.746832
  H 4.030334 2.356435 3.550481
  H 2.506589 -0.655580 -1.581180
  H 5.151378 -0.063337 -0.107887
 22
 0.872733
  C 0.996375 0.103182 0.364522
  C 2.468240 0.103373 0.410312
  C 3.228310 0.598023 1.578122
  C 2.441862 1.112915 2.777510
  C 3.384409 1.583863 3.880473
  C 3.141343 -0.388621 -0.717250
  C 4.535590 -0.514745 -0.868487
  C 5.097964 -0.774087 -2.079112
  H 4.507172 -0.986842 -2.953461
  H 6.163219 -0.756026 -2.244288
  H 0.534974 0.475439 1.273828
  H 0.629355 -0.906105 0.154139
  H 0.656138 0.706549 -0.482704
  H 3.912436 1.388672 1.247445
  H 3.891343 -0.208583 1.917496
  H 1.798962 0.325534 3.179277
  H 1.806940 1.953570 2.484134
  H 4.018491 0.771155 4.228565
  H 2.815362 1.950229 4.730377
  H 4.023209 2.393694 3.531811
  H 2.533403 -0.664141 -1.573727
  H 5.188435 -0.347756 -0.023102
 22
 1.071726
  C 0.984612 0.009569 0.411739
  C 2.450053 -0.043797 0.445839
  C 3.220307 0.487570 1.583591
  C 2.449147 1.140400 2.721405
  C 3.397473 1.651418 3.800581
  C 3.114521 -0.522104 -0.678217
  C 4.518371 -0.639196 -0.830226
  C 5.109782 -0.608645 -2.043594
  H 4.529196 -0.463170 -2.940576
  H 6.177612 -0.674558 -2.156202
  H 0.541341 0.148708 1.391433
  H 0.570741 -0.873806 -0.073100
  H 0.676141 0.856173 -0.209413
  H 3.961434 1.203324 1.207023
  H 3.830222 -0.331081 1.990643
  H 1.760476 0.424053 3.174504
  H 1.859724 1.978304 2.344683
  H 3.985111 0.839939 4.222763
  H 2.836014 2.112056 4.608799
  H 4.080182 2.397409 3.401541
  H 2.513149 -0.787694 -1.537437
  H 5.133637 -0.721668 0.054815
 22
 3.266006
  C 0.974038 -0.046678 0.465805
  C 2.436619 -0.123637 0.447856
  C 3.224385 0.423216 1.568232
  C 2.467997 1.196676 2.636234
  C 3.413470 1.750414 3.696046
  C 3.078973 -0.606385 -0.682158
  C 4.487925 -0.742287 -0.842494
  C 5.148721 -0.395988 -1.962649
  H 4.651192 0.099322 -2.778608
  H 6.211057 -0.547622 -2.055392
  H 0.576672 -0.212965 1.464937
  H 0.517511 -0.726970 -0.246100
  H 0.667784 0.970136 0.198619
  H 4.034636 1.048502 1.175589
  H 3.751422 -0.418484 2.042812
  H 1.731580 0.554790 3.125770
  H 1.921599 2.024688 2.178157
  H 3.951091 0.950599 4.198424
  H 2.856733 2.301730 4.448170
  H 4.141805 2.427129 3.257235
  H 2.466593 -0.878020 -1.532648
  H 5.049388 -1.133631 0.000084
 22
 8.545797
  C 0.948406 -0.132556 0.472741
  C 2.412266 -0.201775 0.428264
  C 3.218005 0.395985 1.513618
  C 2.476033 1.202444 2.562593
  C 3.425826 1.799968 3.590480
  C 3.040172 -0.747051 -0.674231
  C 4.468137 -0.816932 -0.862205
  C 5.199216 -0.109886 -1.717518
  H 4.765387 0.668519 -2.322276
  H 6.257716 -0.259726 -1.807824
  H 0.576380 -0.299526 1.483132
  H 0.480677 -0.820447 -0.226456
  H 0.625725 0.881112 0.214823
  H 4.014277 1.010117 1.075105
  H 3.771575 -0.416058 2.007333
  H 1.747482 0.575109 3.083015
  H 1.915058 2.007395 2.082518
  H 3.975308 1.023878 4.115752
  H 2.872723 2.373489 4.327405
  H 4.144908 2.464930 3.120282
  H 2.427117 -1.151727 -1.468858
  H 4.968250 -1.534847 -0.211196
 22
 8.383946
  C 0.923433 -0.150361 0.464748
  C 2.388402 -0.223780 0.407035
  C 3.212621 0.379103 1.472200
  C 2.493956 1.227507 2.503160
  C 3.463269 1.832165 3.510672
  C 3.010136 -0.832673 -0.661391
  C 4.436417 -0.865897 -0.887586
  C 5.207193 0.064469 -1.433945
  H 4.795088 0.985591 -1.812553
  H 6.266439 -0.073746 -1.557514
  H 0.559987 -0.329748 1.475876
  H 0.448417 -0.828390 -0.238019
  H 0.602589 0.866267 0.219009
  H 4.013950 0.957940 0.988800
  H 3.764800 -0.418788 1.987757
  H 1.758734 0.627104 3.046449
  H 1.942146 2.028320 2.004305
  H 4.002103 1.058942 4.053279
  H 2.925198 2.435275 4.237179
  H 4.191939 2.470894 3.017202
  H 2.408657 -1.372107 -1.384195
  H 4.878924 -1.823253 -0.610477
 22
 6.255962
  C 0.924790 -0.104868 0.395205
  C 2.388359 -0.234442 0.391251
  C 3.215710 0.401988 1.436994
  C 2.503907 1.216807 2.500541
  C 3.492573 1.805552 3.501058
  C 3.015435 -0.938260 -0.616520
  C 4.425116 -0.920939 -0.893271
  C 5.157343 0.132301 -1.265951
  H 4.698767 1.080429 -1.499039
  H 6.222400 0.078135 -1.405268
  H 0.524935 0.005487 1.399041
  H 0.446067 -0.935294 -0.117785
  H 0.648135 0.800304 -0.152773
  H 3.948509 1.036734 0.913246
  H 3.844224 -0.357671 1.917016
  H 1.797436 0.586369 3.047049
  H 1.933729 2.024855 2.038305
  H 4.058467 1.023100 4.001305
  H 2.965518 2.375234 4.261937
  H 4.195182 2.473766 3.008837
  H 2.424621 -1.592465 -1.246770
  H 4.892188 -1.903081 -0.853197
 22
 3.550809
  C 0.951492 -0.106344 0.380195
  C 2.414015 -0.243244 0.369045
  C 3.226949 0.445395 1.392548
  C 2.494212 1.226055 2.470225
  C 3.474502 1.838896 3.464484
  C 3.020735 -1.017156 -0.605943
  C 4.387043 -0.980275 -0.998213
  C 5.175379 0.110796 -1.043808
  H 4.773722 1.106081 -0.930737
  H 6.227424 0.060947 -1.263851
  H 0.556134 -0.006954 1.387350
  H 0.460173 -0.921029 -0.144411
  H 0.687165 0.816084 -0.144616
  H 3.906678 1.131621 0.869361
  H 3.905611 -0.278868 1.857114
  H 1.820707 0.563087 3.018699
  H 1.892446 2.019201 2.024849
  H 4.077317 1.071336 3.943769
  H 2.937526 2.376116 4.241527
  H 4.142468 2.542235 2.973568
  H 2.410543 -1.753001 -1.113985
  H 4.784726 -1.918701 -1.369631
 22
 6.027558
  C 0.992660 0.043176 0.243172
  C 2.437310 -0.191332 0.340810
  C 3.242044 0.524680 1.357093
  C 2.495842 1.168392 2.518841
  C 3.476624 1.747514 3.534372
  C 3.059968 -1.117172 -0.485987
  C 4.413196 -1.052885 -0.911168
  C 5.066131 0.109977 -1.111598
  H 4.510620 1.034820 -1.152908
  H 6.111400 0.219198 -1.338745
  H 0.548416 0.329697 1.190747
  H 0.469390 -0.808495 -0.184984
  H 0.834303 0.879292 -0.442924
  H 3.787873 1.323939 0.835298
  H 4.022885 -0.138138 1.740227
  H 1.882091 0.416679 3.020651
  H 1.842426 1.966588 2.166023
  H 4.138118 0.976463 3.923466
  H 2.938195 2.181334 4.373619
  H 4.086328 2.530020 3.087848
  H 2.485755 -1.972221 -0.818074
  H 4.897590 -1.990437 -1.153571
 22
 14.106727
  C 1.098591 0.198837 0.113535
  C 2.505808 -0.134188 0.329383
  C 3.294051 0.537612 1.392194
  C 2.503849 1.139149 2.554358
  C 3.456373 1.649592 3.629756
  C 3.110120 -1.203298 -0.345895
  C 4.395100 -1.066600 -0.905224
  C 4.847796 0.158869 -1.273385
  H 4.131150 0.925699 -1.527776
  H 5.868480 0.415223 -1.494011
  H 0.619536 0.634636 0.982684
  H 0.531888 -0.654384 -0.255405
  H 1.060409 0.950829 -0.681035
  H 3.862270 1.357975 0.932917
  H 4.045811 -0.153304 1.778930
  H 1.858745 0.375924 2.992128
  H 1.884827 1.968422 2.215727
  H 4.088521 0.848456 4.004916
  H 2.894472 2.052525 4.468115
  H 4.095523 2.439540 3.243379
  H 2.602855 -2.158308 -0.381660
  H 5.000035 -1.948180 -1.068843
 22
 28.324195
  C 1.246840 0.312038 0.007701
  C 2.619006 -0.085695 0.306125
  C 3.373283 0.529069 1.425333
  C 2.531620 1.141676 2.550486
  C 3.435403 1.584729 3.694710
  C 3.152811 -1.296251 -0.240948
  C 4.319760 -1.093143 -0.951879
  C 4.550566 0.212771 -1.338518
  H 3.747044 0.791836 -1.760066
  H 5.533731 0.628292 -1.491402
  H 0.759321 0.824517 0.832942
  H 0.654835 -0.541701 -0.323359
  H 1.254466 1.015131 -0.830664
  H 4.007014 1.338040 1.042530
  H 4.061153 -0.208896 1.844029
  H 1.827294 0.397872 2.925578
  H 1.973729 2.005287 2.192681
  H 4.007279 0.748016 4.089153
  H 2.838076 1.993628 4.505848
  H 4.131292 2.354075 3.369210
  H 2.705333 -2.255768 -0.030969
  H 5.040196 -1.875501 -1.143897
 22
 36.491955
  C 1.366004 0.375574 -0.108040
  C 2.730432 -0.062660 0.248665
  C 3.455326 0.519639 1.418092
  C 2.584784 1.156822 2.509774
  C 3.444120 1.558183 3.702523
  C 3.177629 -1.397321 -0.190216
  C 4.248595 -1.128289 -0.972371
  C 4.240320 0.271597 -1.202044
  H 3.419439 0.735459 -1.720802
  H 5.162108 0.838592 -1.238281
  H 0.892439 0.911039 0.710060
  H 0.766475 -0.484802 -0.399611
  H 1.351969 1.058760 -0.956485
  H 4.137200 1.308451 1.082876
  H 4.090766 -0.252103 1.863188
  H 1.836057 0.434395 2.840742
  H 2.075667 2.043091 2.132946
  H 3.965336 0.698529 4.117188
  H 2.820723 1.981634 4.486047
  H 4.182063 2.305519 3.421347
  H 2.756800 -2.334272 0.128340
  H 5.060740 -1.788677 -1.232354
 22
 25.942055
  C 1.446123 0.418107 -0.192605
  C 2.860054 -0.016989 0.162454
  C 3.534920 0.541762 1.402054
  C 2.639816 1.176419 2.466205
  C 3.433824 1.533430 3.713629
  C 3.195875 -1.451348 -0.136288
  C 4.210042 -1.152418 -0.977641
  C 3.979621 0.283218 -1.062881
  H 3.274609 0.649553 -1.802702
  H 4.843002 0.938610 -1.000019
  H 0.985303 0.930586 0.647429
  H 0.842911 -0.450888 -0.443103
  H 1.409372 1.097540 -1.039297
  H 4.242286 1.323790 1.104072
  H 4.139191 -0.249624 1.855308
  H 1.861241 0.454330 2.733776
  H 2.156360 2.079326 2.088473
  H 3.922203 0.658241 4.133687
  H 2.772554 1.948058 4.469678
  H 4.193835 2.280459 3.499254
  H 2.788197 -2.360030 0.263130
  H 5.076666 -1.718589 -1.271665
 22
 19.816318
  C 1.549448 0.456647 -0.182755
  C 3.012957 0.144870 0.109731
  C 3.617019 0.703442 1.390448
  C 2.630812 1.068773 2.498153
  C 3.342883 1.507660 3.764910
  C 3.157928 -1.384873 -0.092215
  C 4.080779 -1.232442 -1.039131
  C 3.960625 0.261693 -1.119879
  H 3.447605 0.612757 -2.010588
  H 4.900823 0.798297 -1.010858
  H 1.164374 1.133336 0.579051
  H 0.913798 -0.425358 -0.158375
  H 1.446389 0.902793 -1.167232
  H 4.228374 1.576432 1.149921
  H 4.298327 -0.037710 1.818917
  H 1.972326 0.229754 2.725405
  H 2.006410 1.903184 2.153650
  H 3.955858 0.705058 4.169027
  H 2.620439 1.781458 4.529490
  H 3.986602 2.364008 3.577511
  H 2.617356 -2.182970 0.377703
  H 4.827365 -1.882223 -1.463996
 22
 19.398428
  C 1.556566 0.430380 -0.129127
  C 3.027678 0.141703 0.107199
  C 3.621890 0.632434 1.423673
  C 2.621981 1.070504 2.489434
  C 3.316007 1.528263 3.759595
  C 3.197070 -1.384929 -0.160090
  C 4.119489 -1.191553 -1.098395
  C 3.964118 0.307387 -1.119192
  H 3.450237 0.662474 -2.006204
  H 4.892046 0.863572 -0.990642
  H 1.292796 1.353287 0.394346
  H 0.905824 -0.347117 0.266824
  H 1.348223 0.539942 -1.189632
  H 4.323555 1.445537 1.231395
  H 4.206958 -0.173738 1.874434
  H 1.921942 0.268099 2.724644
  H 2.037268 1.913859 2.099601
  H 3.880783 0.715948 4.212796
  H 2.585255 1.863191 4.490734
  H 4.004337 2.347133 3.558911
  H 2.568357 -2.184372 0.185750
  H 4.896118 -1.797414 -1.527165
