10

H 3.5870990544128905 -0.5978991812487865 -0.9857181628416194
C 4.656935 -0.606404 -1.002413
C 5.377138 -1.12183 -2.014278
C 6.815353 -1.131424 -2.033109
C 7.535242 -1.642704 -3.036844
H 8.604833217821689 -1.6561302697157831 -3.063194750278418
H 5.162048 -0.171679 -0.148977
H 4.871051 -1.556545 -2.867695
H 7.320824 -0.696664 -1.179603
H 7.036924 -2.079073 -3.893491
