 10
 0.000000
  H 3.589415 -0.601483 -0.992754
  C 4.664037 -0.608426 -1.006383
  C 5.374036 -1.119477 -2.009657
  C 6.818278 -1.132110 -2.034456
  C 7.529825 -1.641844 -3.035154
  H 8.604286 -1.654230 -3.059462
  H 5.162950 -0.174019 -0.153572
  H 4.866912 -1.554011 -2.862720
  H 7.324294 -0.697617 -1.181475
  H 7.033414 -2.077135 -3.889690
 10
 0.921898
  H 3.585963 -0.629545 -1.003245
  C 4.661871 -0.603235 -1.005119
  C 5.384684 -1.096292 -2.006470
  C 6.821656 -1.107304 -2.042476
  C 7.507825 -1.648210 -3.051498
  H 8.582771 -1.737889 -3.018006
  H 5.133717 -0.145496 -0.151827
  H 4.925205 -1.619531 -2.813397
  H 7.341473 -0.675561 -1.197386
  H 7.021814 -1.976229 -3.955091
 10
 2.562214
  H 3.582085 -0.663385 -1.016482
  C 4.657091 -0.610453 -1.003564
  C 5.396204 -1.074955 -2.003239
  C 6.840845 -1.067624 -2.032697
  C 7.498037 -1.647667 -3.034979
  H 8.561324 -1.836143 -3.045325
  H 5.105241 -0.156488 -0.134347
  H 4.966146 -1.659572 -2.812592
  H 7.366381 -0.623673 -1.194610
  H 6.993874 -1.920467 -3.947632
 10
 11.106373
  H 3.572633 -0.689941 -1.042292
  C 4.647920 -0.618355 -1.000233
  C 5.410936 -1.018820 -2.012992
  C 6.857808 -0.988685 -2.051437
  C 7.450988 -1.685851 -3.020339
  H 8.483684 -2.007538 -3.000693
  H 5.069328 -0.247864 -0.077961
  H 5.069363 -1.701946 -2.779655
  H 7.413545 -0.512513 -1.261210
  H 6.989244 -1.798518 -3.992805
 10
 24.780734
  H 3.561999 -0.696062 -1.111117
  C 4.632118 -0.634180 -1.000140
  C 5.445984 -0.984992 -1.995865
  C 6.891896 -0.958737 -2.022372
  C 7.390775 -1.714234 -3.015063
  H 8.382336 -2.155644 -3.025069
  H 4.994476 -0.315747 -0.041844
  H 5.205030 -1.739088 -2.736218
  H 7.490390 -0.415657 -1.314490
  H 6.968915 -1.670173 -4.008726
 10
 40.322786
  H 3.568090 -0.622687 -1.213957
  C 4.625831 -0.593120 -1.001726
  C 5.492860 -1.018381 -1.924644
  C 6.915003 -0.968815 -2.000091
  C 7.340178 -1.747824 -3.034843
  H 8.329046 -2.211528 -3.010375
  H 4.893557 -0.422578 0.030103
  H 5.281812 -1.776606 -2.706303
  H 7.541898 -0.343703 -1.408143
  H 6.982435 -1.602583 -4.040722
 10
 61.739367
  H 3.577218 -0.650901 -1.300795
  C 4.614245 -0.638934 -1.004047
  C 5.575990 -0.868761 -1.910141
  C 6.965233 -0.805056 -2.033147
  C 7.252899 -1.759244 -3.017716
  H 8.113153 -2.408432 -2.946496
  H 4.799443 -0.654297 0.055435
  H 5.480109 -1.716864 -2.698288
  H 7.673537 -0.222195 -1.462664
  H 6.936398 -1.615181 -4.036893
 10
 72.817208
  H 3.602952 -0.710410 -1.390490
  C 4.610442 -0.656901 -1.011952
  C 5.661450 -0.815258 -1.808519
  C 6.995303 -0.745313 -2.011156
  C 7.146391 -1.775678 -3.009806
  H 7.968900 -2.485102 -2.945906
  H 4.713758 -0.707478 0.062809
  H 5.678427 -1.792395 -2.723693
  H 7.754453 -0.147759 -1.537019
  H 6.886485 -1.538839 -4.030811
 10
 49.284245
  H 3.626254 -0.675241 -1.409412
  C 4.608632 -0.635555 -0.971739
  C 5.709522 -0.705216 -1.669927
  C 6.973433 -0.681211 -2.019578
  C 7.062286 -1.796144 -3.024281
  H 7.841315 -2.526940 -2.908486
  H 4.648149 -0.799188 0.100729
  H 5.929082 -1.980972 -2.868871
  H 7.773897 -0.101695 -1.613985
  H 6.900119 -1.514540 -4.070472
 10
 24.680485
  H 3.655541 -0.418594 -1.390260
  C 4.594600 -0.618827 -0.907868
  C 5.716663 -0.719465 -1.551933
  C 6.920502 -0.724036 -2.049501
  C 7.065725 -1.842400 -3.052656
  H 7.955180 -2.443912 -2.964069
  H 4.536289 -0.902369 0.136685
  H 6.050083 -2.237860 -2.919229
  H 7.723763 -0.076948 -1.737994
  H 6.928144 -1.470446 -4.075130
 10
 20.034538
  H 3.701295 -0.342349 -1.408161
  C 4.605546 -0.618844 -0.889924
  C 5.752274 -0.760532 -1.488302
  C 6.912685 -0.723327 -2.071509
  C 7.074482 -1.847376 -3.059031
  H 8.002340 -2.398120 -3.020825
  H 4.482277 -0.939888 0.135323
  H 6.113900 -2.326488 -2.879973
  H 7.699476 -0.040453 -1.804464
  H 6.897886 -1.502687 -4.085741
 10
 9.003753
  H 3.752880 -0.117874 -1.275047
  C 4.601759 -0.619741 -0.840493
  C 5.724979 -0.757874 -1.464181
  C 6.840408 -0.744096 -2.129125
  C 7.075666 -1.865443 -3.099656
  H 8.023057 -2.362646 -2.926850
  H 4.427799 -1.088172 0.117544
  H 6.206429 -2.506732 -2.971157
  H 7.621924 -0.021872 -1.941456
  H 7.032827 -1.518502 -4.134120
 10
 5.929411
  H 3.722995 -0.060057 -1.187755
  C 4.572829 -0.602211 -0.802991
  C 5.677378 -0.699644 -1.470957
  C 6.785656 -0.786897 -2.138313
  C 7.076336 -1.882084 -3.121240
  H 8.020543 -2.368277 -2.878608
  H 4.448962 -1.062396 0.164845
  H 6.281083 -2.621976 -3.105627
  H 7.565006 -0.048990 -1.996411
  H 7.156942 -1.470420 -4.127484
