 22
 0.000000
  C 0.987481 0.155568 0.431647
  C 2.458300 0.135262 0.395161
  C 3.236887 0.600777 1.553830
  H 2.626150 0.935690 2.382781
  C 3.061090 -0.332629 -0.768170
  C 4.443331 -0.416653 -0.984703
  C 5.097469 -0.865182 -2.109636
  C 4.623995 -1.383458 -3.401959
  C 3.141196 -1.511662 -3.713671
  H 3.016174 -1.912386 -4.713950
  H 6.178993 -0.847754 -2.073133
  H 0.592379 0.540628 1.366413
  H 0.592475 -0.849127 0.273425
  H 0.602899 0.765839 -0.387152
  H 3.894355 1.418229 1.250613
  H 3.891438 -0.200633 1.902723
  H 2.395912 -0.648338 -1.554767
  H 5.078902 -0.090936 -0.171152
  H 5.098569 -2.366074 -3.526908
  H 5.094953 -0.756735 -4.171245
  H 2.650074 -0.541704 -3.678421
  H 2.653871 -2.191240 -3.018023
 22
 0.180795
  C 0.997574 -0.006409 0.538755
  C 2.454034 0.134931 0.388195
  C 3.234814 0.800406 1.443188
  H 2.605316 1.131571 2.262614
  C 3.039646 -0.374166 -0.767595
  C 4.419630 -0.524395 -0.953233
  C 5.077697 -1.035367 -2.046508
  C 4.626087 -1.432033 -3.384384
  C 3.165533 -1.323771 -3.787703
  H 3.064857 -1.605158 -4.833038
  H 6.148605 -1.154015 -1.923434
  H 0.643670 0.345584 1.499846
  H 0.713180 -1.050526 0.404863
  H 0.480362 0.540009 -0.251942
  H 3.768942 1.660064 1.035577
  H 4.001583 0.131620 1.837371
  H 2.369611 -0.720767 -1.535805
  H 5.052044 -0.258062 -0.115553
  H 4.974824 -2.461674 -3.543206
  H 5.238501 -0.852320 -4.090288
  H 2.801166 -0.305990 -3.681329
  H 2.543549 -2.000371 -3.208273
 22
 1.845559
  C 1.033905 -0.152454 0.604448
  C 2.453923 0.164840 0.376581
  C 3.208882 0.922065 1.380509
  H 2.604147 1.161815 2.247616
  C 3.038869 -0.312616 -0.793388
  C 4.400495 -0.586072 -0.936320
  C 5.046652 -1.156237 -2.010672
  C 4.609375 -1.484086 -3.370222
  C 3.190103 -1.188559 -3.828702
  H 3.097729 -1.444167 -4.881338
  H 6.084592 -1.405787 -1.842754
  H 0.690853 0.160983 1.583846
  H 0.902107 -1.229983 0.492609
  H 0.404179 0.304278 -0.158816
  H 3.584143 1.847856 0.941015
  H 4.094992 0.374293 1.702387
  H 2.364984 -0.591700 -1.593349
  H 5.019953 -0.407483 -0.068413
  H 4.832541 -2.547299 -3.530347
  H 5.316955 -0.975273 -4.039578
  H 2.951329 -0.132256 -3.719731
  H 2.464157 -1.789884 -3.285633
 22
 4.638480
  C 1.093511 -0.261116 0.633874
  C 2.459661 0.215840 0.368648
  C 3.181561 1.024527 1.355838
  H 2.601231 1.184928 2.258448
  C 3.048962 -0.221017 -0.818541
  C 4.382020 -0.614920 -0.922189
  C 5.006225 -1.232065 -1.979738
  C 4.579509 -1.523264 -3.354696
  C 3.209590 -1.093289 -3.853451
  H 3.119865 -1.351050 -4.906383
  H 6.011187 -1.584117 -1.778780
  H 0.748378 -0.008156 1.629990
  H 1.120467 -1.343710 0.499527
  H 0.383751 0.117124 -0.102828
  H 3.435559 1.992020 0.917969
  H 4.139660 0.570694 1.613026
  H 2.382802 -0.419111 -1.644041
  H 4.986694 -0.502852 -0.031120
  H 4.699228 -2.604665 -3.504466
  H 5.351428 -1.087152 -4.004026
  H 3.075364 -0.018712 -3.761950
  H 2.414176 -1.613265 -3.325882
 22
 7.937248
  C 1.159352 -0.389220 0.738049
  C 2.458351 0.198864 0.374437
  C 3.149439 1.133855 1.261060
  H 2.639991 1.260193 2.210735
  C 3.034223 -0.246357 -0.819820
  C 4.334507 -0.727207 -0.899078
  C 4.950813 -1.346277 -1.955056
  C 4.560608 -1.532069 -3.360149
  C 3.260201 -0.943367 -3.883933
  H 3.191814 -1.131822 -4.953177
  H 5.910425 -1.796067 -1.729829
  H 0.837727 -0.104751 1.733812
  H 1.301235 -1.469679 0.671920
  H 0.377626 -0.137868 0.020617
  H 3.216259 2.104069 0.762467
  H 4.186206 0.835729 1.424517
  H 2.373140 -0.369206 -1.664327
  H 4.908233 -0.706333 0.018954
  H 4.577902 -2.611620 -3.559811
  H 5.397604 -1.142402 -3.955789
  H 3.225393 0.132287 -3.732433
  H 2.396730 -1.412471 -3.419881
 22
 12.375492
  C 1.244752 -0.506195 0.846833
  C 2.459328 0.180962 0.394724
  C 3.116709 1.203459 1.205473
  H 2.650197 1.333547 2.176365
  C 3.018031 -0.244463 -0.826846
  C 4.277711 -0.821384 -0.897263
  C 4.904366 -1.415356 -1.966168
  C 4.545585 -1.519729 -3.389921
  C 3.287298 -0.842916 -3.912045
  H 3.224877 -0.993159 -4.987652
  H 5.831629 -1.924183 -1.733516
  H 0.963144 -0.232741 1.857657
  H 1.471340 -1.572176 0.779465
  H 0.398775 -0.330418 0.180620
  H 3.082279 2.150271 0.660874
  H 4.182465 0.993448 1.318914
  H 2.371598 -0.240422 -1.692025
  H 4.813198 -0.886265 0.042783
  H 4.508587 -2.589224 -3.634533
  H 5.414178 -1.148470 -3.949760
  H 3.311134 0.227953 -3.727460
  H 2.393195 -1.278050 -3.473749
 22
 19.008142
  C 1.381008 -0.629813 0.964901
  C 2.476324 0.164430 0.423924
  C 3.040125 1.297732 1.144921
  H 2.600154 1.436942 2.124100
  C 3.043927 -0.243597 -0.825909
  C 4.233152 -0.947866 -0.900855
  C 4.853276 -1.508051 -1.993088
  C 4.513490 -1.517738 -3.424858
  C 3.302021 -0.744387 -3.921787
  H 3.235808 -0.847400 -5.002143
  H 5.743168 -2.078760 -1.774432
  H 1.130116 -0.356034 1.983421
  H 1.675323 -1.681212 0.897808
  H 0.484728 -0.539881 0.347348
  H 2.891219 2.197987 0.548207
  H 4.123420 1.208114 1.221872
  H 2.446877 -0.071003 -1.709069
  H 4.734891 -1.114687 0.043680
  H 4.413591 -2.569144 -3.721782
  H 5.406610 -1.170027 -3.957485
  H 3.392910 0.314690 -3.697078
  H 2.382445 -1.140589 -3.501623
 22
 25.139463
  C 1.539046 -0.732487 1.043558
  C 2.517071 0.162998 0.447442
  C 2.958118 1.379366 1.105739
  H 2.521477 1.511370 2.089989
  C 3.106585 -0.224124 -0.812609
  C 4.212230 -1.039470 -0.898973
  C 4.807478 -1.582803 -2.021588
  C 4.459499 -1.526346 -3.456253
  C 3.279949 -0.682201 -3.918545
  H 3.198866 -0.751694 -5.001512
  H 5.677630 -2.196970 -1.830076
  H 1.292285 -0.470958 2.067643
  H 1.885880 -1.764515 0.961494
  H 0.621269 -0.716981 0.446574
  H 2.715724 2.245520 0.481113
  H 4.050137 1.399570 1.158111
  H 2.575972 0.083977 -1.700414
  H 4.694998 -1.283333 0.039865
  H 4.308389 -2.562645 -3.785906
  H 5.362217 -1.199741 -3.987752
  H 3.424717 0.365587 -3.667960
  H 2.346089 -1.046353 -3.497746
 22
 17.815685
  C 1.711381 -0.834107 1.127537
  C 2.577011 0.128771 0.449066
  C 2.850769 1.447916 1.022681
  H 2.395003 1.577297 1.999260
  C 3.172421 -0.250621 -0.788334
  C 4.188611 -1.189363 -0.898016
  C 4.749377 -1.695177 -2.046892
  C 4.406772 -1.544503 -3.474116
  C 3.273012 -0.622423 -3.899597
  H 3.188710 -0.645402 -4.983714
  H 5.594061 -2.356520 -1.894668
  H 1.489513 -0.559136 2.153467
  H 2.097951 -1.852167 1.053507
  H 0.770272 -0.878060 0.568026
  H 2.503053 2.244535 0.357263
  H 3.930263 1.597656 1.080273
  H 2.768909 0.212517 -1.677619
  H 4.624068 -1.528489 0.032678
  H 4.206967 -2.557269 -3.849220
  H 5.326330 -1.241219 -3.991741
  H 3.472531 0.405569 -3.612976
  H 2.321828 -0.951287 -3.489461
 22
 11.666913
  C 1.887040 -0.879139 1.128242
  C 2.623363 0.179927 0.435882
  C 2.736161 1.527447 0.999120
  H 2.260757 1.604862 1.970992
  C 3.252275 -0.159390 -0.776385
  C 4.164860 -1.208512 -0.895474
  C 4.683560 -1.740805 -2.049861
  C 4.332790 -1.562898 -3.469213
  C 3.268665 -0.556519 -3.880363
  H 3.155994 -0.584922 -4.961992
  H 5.475845 -2.466683 -1.910399
  H 1.685759 -0.657113 2.170993
  H 2.371212 -1.844925 0.985295
  H 0.925905 -0.993962 0.616231
  H 2.300663 2.272542 0.328559
  H 3.789243 1.800656 1.071549
  H 2.979040 0.407337 -1.653492
  H 4.562111 -1.599922 0.032164
  H 4.047941 -2.558295 -3.835583
  H 5.264660 -1.338521 -4.003366
  H 3.558271 0.456401 -3.614188
  H 2.304557 -0.799317 -3.441093
 22
 6.022670
  C 2.059569 -0.929513 1.176421
  C 2.673820 0.170749 0.427201
  C 2.583432 1.554623 0.914665
  H 2.087159 1.614908 1.877486
  C 3.361025 -0.128888 -0.750256
  C 4.180132 -1.255529 -0.910758
  C 4.644951 -1.802842 -2.077967
  C 4.264111 -1.579680 -3.479992
  C 3.285811 -0.473856 -3.840963
  H 3.105819 -0.495698 -4.913295
  H 5.372845 -2.597407 -1.965797
  H 1.921688 -0.707572 2.230000
  H 2.589355 -1.864336 1.000401
  H 1.065065 -1.097332 0.749630
  H 2.047253 2.183748 0.200987
  H 3.581895 1.986643 0.984002
  H 3.246458 0.551332 -1.581271
  H 4.549015 -1.705157 0.002965
  H 3.872636 -2.540546 -3.841648
  H 5.192768 -1.445456 -4.049032
  H 3.690807 0.505713 -3.602069
  H 2.331416 -0.612627 -3.339480
 22
 5.361272
  C 2.158531 -0.979492 1.059441
  C 2.749858 0.185995 0.390025
  C 2.437415 1.550498 0.843184
  H 1.893043 1.550166 1.781857
  C 3.560886 -0.037572 -0.710739
  C 4.318287 -1.216229 -0.892536
  C 4.655581 -1.833292 -2.063375
  C 4.155589 -1.620126 -3.428884
  C 3.274161 -0.419275 -3.724708
  H 2.968549 -0.447560 -4.767882
  H 5.312865 -2.690151 -1.980365
  H 1.994159 -0.826089 2.121344
  H 2.742895 -1.868460 0.830284
  H 1.178192 -1.162096 0.608045
  H 1.832751 2.067525 0.094730
  H 3.349546 2.137853 0.942486
  H 3.620670 0.735195 -1.463492
  H 4.741573 -1.643652 0.009182
  H 3.625530 -2.540405 -3.711412
  H 5.027209 -1.610841 -4.095759
  H 3.811374 0.511865 -3.568002
  H 2.376944 -0.430255 -3.110484
