 29
 0.000000
  H 1.440554 0.150743 0.427182
  C 2.518984 0.145443 0.413469
  C 3.277181 0.614545 1.580431
  C 2.446238 1.091112 2.766900
  C 3.342760 1.551770 3.912534
  C 3.105766 -0.321017 -0.747871
  C 4.481294 -0.414304 -0.980726
  C 5.137860 -0.872160 -2.122444
  C 4.609417 -1.389615 -3.412478
  C 3.114088 -1.498406 -3.684653
  C 2.876048 -2.059809 -5.084308
  O 6.453862 -0.878504 -2.138758
  H 3.936087 1.432654 1.264938
  H 3.936560 -0.194039 1.918612
  H 1.804963 0.283452 3.124353
  H 1.804515 1.921241 2.466210
  H 3.978205 0.740891 4.261382
  H 2.738545 1.888572 4.751137
  H 3.977691 2.378899 3.603086
  H 2.432655 -0.634119 -1.527308
  H 5.119318 -0.087967 -0.167736
  H 5.058348 -2.380663 -3.546667
  H 5.058799 -0.766359 -4.194390
  H 2.644318 -0.515866 -3.626942
  H 2.643819 -2.168420 -2.963989
  H 3.310772 -1.414325 -5.843811
  H 1.809588 -2.137765 -5.279459
  H 3.310310 -3.051449 -5.187079
  H 6.861278 -0.548267 -1.314770
 29
 0.036376
  H 1.553666 -0.411363 0.717565
  C 2.619869 -0.307722 0.574937
  C 3.334215 0.514944 1.559315
  C 2.454565 1.023178 2.698352
  C 3.260083 1.848316 3.696025
  C 3.172404 -0.902283 -0.535242
  C 4.542370 -0.884871 -0.823038
  C 5.189709 -1.165102 -2.026578
  C 4.622474 -1.444295 -3.370278
  C 3.118490 -1.492030 -3.602995
  C 2.830526 -1.677383 -5.090895
  O 6.500488 -1.120414 -2.071295
  H 3.795915 1.372750 1.054494
  H 4.174863 -0.053766 1.976107
  H 1.999398 0.177064 3.216734
  H 1.647016 1.637190 2.295272
  H 4.053345 1.252877 4.142489
  H 2.618795 2.206472 4.497392
  H 3.708189 2.713642 3.212898
  H 2.500845 -1.408825 -1.206272
  H 5.193036 -0.584487 -0.009502
  H 5.067077 -2.389433 -3.704425
  H 5.059510 -0.692251 -4.038821
  H 2.653781 -0.563175 -3.271156
  H 2.676090 -2.330449 -3.064628
  H 3.233779 -0.851726 -5.672434
  H 1.758581 -1.719467 -5.265465
  H 3.268140 -2.601729 -5.460485
  H 6.942976 -0.959622 -1.216982
 29
 2.863220
  H 1.600835 -0.746062 0.779050
  C 2.659621 -0.612554 0.607142
  C 3.328689 0.419656 1.413713
  C 2.438048 1.037866 2.487339
  C 3.204204 2.055793 3.325124
  C 3.254528 -1.332170 -0.391499
  C 4.633452 -1.265980 -0.682356
  C 5.250517 -1.262266 -1.925885
  C 4.626279 -1.293851 -3.273662
  C 3.114447 -1.368359 -3.430314
  C 2.737697 -1.295217 -4.907623
  O 6.554946 -1.123177 -2.008406
  H 3.702295 1.216927 0.760834
  H 4.225021 -0.009025 1.878980
  H 2.050785 0.253108 3.139998
  H 1.583505 1.530552 2.019751
  H 4.039946 1.586073 3.838816
  H 2.553232 2.495297 4.076629
  H 3.589829 2.860081 2.702740
  H 2.629196 -1.981461 -0.984469
  H 5.287564 -1.119929 0.171139
  H 5.082413 -2.136043 -3.807915
  H 4.999826 -0.408217 -3.801912
  H 2.638870 -0.540015 -2.903420
  H 2.734723 -2.307269 -3.028270
  H 3.075614 -0.361791 -5.351399
  H 1.658806 -1.352325 -5.025323
  H 3.180687 -2.117745 -5.464018
  H 7.031325 -1.132807 -1.156450
 29
 7.882649
  H 1.653507 -0.998760 0.769017
  C 2.705096 -0.847085 0.573188
  C 3.332333 0.325037 1.217286
  C 2.413190 1.048519 2.196085
  C 3.136782 2.196522 2.891660
  C 3.347304 -1.663413 -0.295161
  C 4.738895 -1.553027 -0.596983
  C 5.306630 -1.267131 -1.823731
  C 4.613831 -1.083479 -3.125177
  C 3.098223 -1.181849 -3.201423
  C 2.622487 -0.929771 -4.629189
  O 6.602089 -1.058590 -1.928193
  H 3.669122 1.037981 0.457305
  H 4.244906 -0.002002 1.730939
  H 2.048630 0.344601 2.946788
  H 1.545190 1.443867 1.664832
  H 3.982654 1.829088 3.468184
  H 2.463934 2.711058 3.573054
  H 3.501883 2.921491 2.167726
  H 2.781199 -2.443290 -0.787988
  H 5.410098 -1.611399 0.254370
  H 5.052288 -1.815318 -3.814967
  H 4.940784 -0.114600 -3.520814
  H 2.639224 -0.444560 -2.540163
  H 2.763465 -2.172315 -2.897292
  H 2.912084 0.061727 -4.969058
  H 1.539522 -1.001268 -4.684244
  H 3.043027 -1.661404 -5.314778
  H 7.115185 -1.202814 -1.110913
 29
 13.910872
  H 1.760519 -1.272990 0.765645
  C 2.798005 -1.080515 0.538361
  C 3.360582 0.200717 1.045463
  C 2.380729 0.980084 1.914518
  C 3.024831 2.237743 2.488104
  C 3.498090 -1.945193 -0.205289
  C 4.887813 -1.778652 -0.556960
  C 5.377380 -1.250541 -1.735842
  C 4.600513 -0.909310 -2.954400
  C 3.084959 -1.025682 -2.939884
  C 2.509392 -0.672185 -4.308029
  O 6.660547 -0.995054 -1.878003
  H 3.673117 0.833762 0.209030
  H 4.274465 -0.016422 1.610380
  H 2.032913 0.347496 2.733914
  H 1.507566 1.264511 1.323501
  H 3.872258 1.983813 3.120831
  H 2.307327 2.789253 3.090591
  H 3.372728 2.893556 1.693174
  H 3.017111 -2.855633 -0.550411
  H 5.604278 -2.052959 0.211598
  H 4.996860 -1.545861 -3.756119
  H 4.893878 0.104801 -3.250864
  H 2.661207 -0.350267 -2.194815
  H 2.782009 -2.040760 -2.686936
  H 2.763760 0.347197 -4.588233
  H 1.426219 -0.757086 -4.294667
  H 2.889459 -1.341473 -5.075918
  H 7.222006 -1.230740 -1.115639
 29
 11.100042
  H 1.841180 -1.474522 0.742230
  C 2.866880 -1.243251 0.496966
  C 3.365735 0.085358 0.929600
  C 2.328584 0.914796 1.676301
  C 2.914542 2.236264 2.161739
  C 3.642749 -2.137878 -0.141983
  C 5.000628 -1.903026 -0.553879
  C 5.431803 -1.208043 -1.660722
  C 4.594549 -0.780520 -2.815542
  C 3.080463 -0.875142 -2.718505
  C 2.436956 -0.485202 -4.046674
  O 6.707909 -0.935006 -1.850546
  H 3.702376 0.626500 0.035042
  H 4.256280 -0.024995 1.554654
  H 1.959599 0.352576 2.536771
  H 1.475896 1.115408 1.024449
  H 3.736355 2.065972 2.853588
  H 2.156798 2.820588 2.677574
  H 3.284597 2.826319 1.326454
  H 3.282527 -3.154966 -0.268967
  H 5.754761 -2.362380 0.078019
  H 4.942553 -1.365992 -3.675300
  H 4.880324 0.249675 -3.055674
  H 2.703063 -0.216452 -1.938681
  H 2.781989 -1.897393 -2.474549
  H 2.685363 0.539744 -4.311022
  H 1.355234 -0.562898 -3.979293
  H 2.772431 -1.136110 -4.850446
  H 7.300590 -1.202560 -1.124427
 29
 7.466428
  H 1.894633 -1.547160 0.741246
  C 2.919638 -1.318312 0.487174
  C 3.386839 0.038838 0.845390
  C 2.328394 0.888814 1.540290
  C 2.884321 2.250533 1.942333
  C 3.722463 -2.270400 -0.053450
  C 5.033373 -2.055599 -0.556839
  C 5.423473 -1.173944 -1.549465
  C 4.560301 -0.632806 -2.638573
  C 3.053789 -0.852423 -2.610165
  C 2.433019 -0.379746 -3.922738
  O 6.686189 -0.857582 -1.735708
  H 3.724823 0.548217 -0.065226
  H 4.276044 -0.025639 1.479898
  H 1.971611 0.372219 2.433501
  H 1.472639 1.030875 0.877330
  H 3.711535 2.141281 2.640000
  H 2.114533 2.847064 2.425295
  H 3.237777 2.798503 1.072000
  H 3.401095 -3.305653 0.000399
  H 5.800166 -2.698334 -0.136460
  H 4.956221 -1.084596 -3.556588
  H 4.783071 0.434242 -2.742031
  H 2.589781 -0.305421 -1.792783
  H 2.832937 -1.913382 -2.478912
  H 2.615387 0.680789 -4.078343
  H 1.358096 -0.538638 -3.910533
  H 2.844253 -0.924694 -4.769144
  H 7.306781 -1.212637 -1.072481
 29
 7.743927
  H 1.833181 -1.431752 0.534964
  C 2.888976 -1.274066 0.364078
  C 3.387006 0.064808 0.752679
  C 2.367022 0.888050 1.536855
  C 2.940420 2.243316 1.935558
  C 3.702256 -2.289479 -0.052037
  C 5.000138 -2.104109 -0.568867
  C 5.376068 -1.106178 -1.460986
  C 4.516717 -0.560025 -2.553336
  C 3.046281 -0.948419 -2.645298
  C 2.459417 -0.454693 -3.965638
  O 6.609466 -0.676580 -1.568034
  H 3.663329 0.625595 -0.147749
  H 4.308752 -0.030199 1.332183
  H 2.075536 0.345271 2.438029
  H 1.469039 1.040363 0.935268
  H 3.815909 2.122400 2.569450
  H 2.202893 2.819539 2.488456
  H 3.227026 2.818054 1.057933
  H 3.363754 -3.310951 0.079878
  H 5.763089 -2.801940 -0.242767
  H 5.012408 -0.896171 -3.472614
  H 4.625120 0.529001 -2.566438
  H 2.470729 -0.514592 -1.829088
  H 2.942473 -2.033310 -2.594405
  H 2.541697 0.626365 -4.047458
  H 1.407631 -0.719172 -4.033570
  H 2.973926 -0.901562 -4.813048
  H 7.242126 -1.055524 -0.928960
 29
 11.512002
  H 1.794587 -1.203387 0.277246
  C 2.873544 -1.137409 0.232693
  C 3.413486 0.151526 0.722478
  C 2.414623 0.923176 1.588350
  C 3.014483 2.235501 2.079786
  C 3.669273 -2.217955 -0.062291
  C 4.956660 -2.066713 -0.591078
  C 5.295703 -1.000754 -1.428227
  C 4.448167 -0.529620 -2.563635
  C 3.032336 -1.061525 -2.732660
  C 2.473141 -0.641159 -4.089437
  O 6.478398 -0.443314 -1.460785
  H 3.670771 0.793688 -0.129276
  H 4.339483 -0.009998 1.276705
  H 2.134476 0.313608 2.449365
  H 1.508871 1.132605 1.016968
  H 3.900274 2.054470 2.684328
  H 2.295407 2.774532 2.691476
  H 3.291672 2.874144 1.244339
  H 3.297943 -3.216304 0.135526
  H 5.728250 -2.772215 -0.309886
  H 5.028829 -0.808933 -3.451558
  H 4.441802 0.564613 -2.571596
  H 2.379636 -0.669029 -1.951963
  H 3.027176 -2.150070 -2.664377
  H 2.464428 0.441539 -4.188326
  H 1.453676 -0.999066 -4.205162
  H 3.068366 -1.053618 -4.900636
  H 7.125562 -0.788841 -0.816471
 29
 18.601980
  H 1.781699 -0.888107 0.107312
  C 2.865402 -0.923241 0.153509
  C 3.478931 0.285357 0.758054
  C 2.504317 1.013598 1.696282
  C 3.160598 2.242228 2.316202
  C 3.568881 -2.102456 -0.062008
  C 4.818352 -2.052963 -0.656605
  C 5.149811 -0.932831 -1.442693
  C 4.350560 -0.526611 -2.631185
  C 3.013616 -1.206391 -2.898202
  C 2.511987 -0.850534 -4.294896
  O 6.273071 -0.279075 -1.351563
  H 3.766706 1.009718 -0.016539
  H 4.388910 0.020059 1.300162
  H 2.189760 0.334431 2.490920
  H 1.614441 1.319461 1.143127
  H 4.035306 1.962632 2.898547
  H 2.463345 2.747107 2.979925
  H 3.468109 2.948857 1.548527
  H 3.133404 -3.047680 0.245741
  H 5.549973 -2.837968 -0.520593
  H 5.021908 -0.737113 -3.475289
  H 4.230054 0.560937 -2.641272
  H 2.272156 -0.883126 -2.168232
  H 3.117370 -2.288702 -2.817070
  H 2.397264 0.224890 -4.404802
  H 1.546134 -1.313480 -4.478632
  H 3.202329 -1.200575 -5.058627
  H 6.895227 -0.594429 -0.670366
 29
 26.691284
  H 1.869901 -0.643642 -0.060051
  C 2.934023 -0.767877 0.108130
  C 3.578805 0.363523 0.803128
  C 2.587362 1.098574 1.719740
  C 3.270874 2.259134 2.433049
  C 3.522962 -2.042268 -0.027400
  C 4.701334 -2.091397 -0.703210
  C 4.999453 -0.892958 -1.454844
  C 4.240292 -0.515064 -2.668193
  C 2.983608 -1.305268 -3.013039
  C 2.511228 -0.951685 -4.420359
  O 6.060508 -0.187705 -1.270883
  H 3.949302 1.113448 0.091708
  H 4.435401 0.017062 1.385302
  H 2.191797 0.402036 2.460049
  H 1.749485 1.477417 1.131491
  H 4.101892 1.906293 3.041600
  H 2.565513 2.764346 3.089262
  H 3.649517 2.986377 1.719237
  H 3.036618 -2.914236 0.389124
  H 5.391037 -2.921723 -0.695010
  H 4.964662 -0.649552 -3.482416
  H 4.031322 0.558407 -2.661281
  H 2.183086 -1.078339 -2.308490
  H 3.185917 -2.375009 -2.958580
  H 2.304667 0.111846 -4.504994
  H 1.601078 -1.491835 -4.659345
  H 3.261809 -1.214770 -5.163087
  H 6.669318 -0.503933 -0.574488
 29
 31.097256
  H 2.092392 -0.387727 -0.315794
  C 3.098819 -0.621712 0.011711
  C 3.719403 0.398370 0.880228
  C 2.658870 1.190026 1.667565
  C 3.321627 2.237823 2.552476
  C 3.542898 -2.004152 -0.014712
  C 4.640430 -2.113914 -0.766864
  C 4.834992 -0.824039 -1.444357
  C 4.103831 -0.489757 -2.695143
  C 2.926308 -1.376800 -3.089522
  C 2.481665 -1.053224 -4.512518
  O 5.846978 -0.049204 -1.193434
  H 4.271960 1.140080 0.290345
  H 4.427846 -0.061246 1.572773
  H 2.078762 0.505334 2.287321
  H 1.974097 1.681916 0.974995
  H 3.999410 1.772504 3.263688
  H 2.567630 2.781202 3.116264
  H 3.882922 2.954135 1.957345
  H 2.994932 -2.802721 0.462748
  H 5.330037 -2.936851 -0.843368
  H 4.864079 -0.576678 -3.485284
  H 3.823424 0.565806 -2.696005
  H 2.082380 -1.221916 -2.419750
  H 3.212136 -2.426591 -3.029880
  H 2.197532 -0.008011 -4.602675
  H 1.625311 -1.662310 -4.788673
  H 3.278417 -1.253771 -5.225369
  H 6.453106 -0.359561 -0.492055
 29
 28.668894
  H 2.340646 -0.259800 -0.517439
  C 3.287475 -0.555103 -0.073412
  C 3.832165 0.416555 0.907364
  C 2.700032 1.217738 1.585992
  C 3.279180 2.214591 2.580256
  C 3.589001 -1.996853 0.037058
  C 4.620902 -2.145310 -0.785092
  C 4.739117 -0.796189 -1.394676
  C 4.019566 -0.465989 -2.673744
  C 2.872736 -1.371610 -3.089512
  C 2.446904 -1.051291 -4.516364
  O 5.780272 -0.025021 -1.168569
  H 4.469848 1.154305 0.412044
  H 4.433952 -0.087775 1.663114
  H 2.031844 0.529692 2.106369
  H 2.118025 1.752591 0.834232
  H 3.852312 1.708085 3.349124
  H 2.475438 2.761109 3.065621
  H 3.926837 2.934028 2.082838
  H 3.026140 -2.726596 0.595956
  H 5.284831 -2.974776 -0.952599
  H 4.795310 -0.535893 -3.446825
  H 3.718039 0.582575 -2.673233
  H 2.009220 -1.242895 -2.436216
  H 3.182411 -2.415634 -3.030191
  H 2.138783 -0.015323 -4.605002
  H 1.612252 -1.678193 -4.808709
  H 3.259941 -1.227545 -5.215895
  H 6.406836 -0.369480 -0.506750
 29
 24.990859
  H 2.589268 -0.148711 -0.645432
  C 3.500654 -0.490413 -0.155101
  C 3.935403 0.432383 0.947891
  C 2.728357 1.206145 1.518159
  C 3.178320 2.143604 2.630589
  C 3.631831 -1.950573 0.073505
  C 4.600689 -2.133076 -0.826995
  C 4.672941 -0.736576 -1.382179
  C 4.016756 -0.468336 -2.724163
  C 2.797484 -1.312350 -3.070528
  C 2.376355 -1.076521 -4.519822
  O 5.811485 -0.028523 -1.276283
  H 4.636978 1.178201 0.562598
  H 4.428597 -0.120960 1.752099
  H 2.001785 0.493236 1.910488
  H 2.246340 1.786336 0.729784
  H 3.649220 1.590903 3.438894
  H 2.317848 2.671154 3.034862
  H 3.883049 2.883290 2.261833
  H 3.087957 -2.606678 0.726202
  H 5.293640 -2.935304 -1.014813
  H 4.805584 -0.657827 -3.463465
  H 3.787067 0.597681 -2.810774
  H 1.949211 -1.065667 -2.428154
  H 3.021649 -2.370757 -2.916832
  H 2.146925 -0.028357 -4.695513
  H 1.488858 -1.659224 -4.752401
  H 3.165966 -1.371134 -5.206513
  H 6.439651 -0.390556 -0.629275
 29
 25.715195
  H 2.645360 -0.166094 -0.664729
  C 3.575940 -0.489763 -0.190471
  C 3.963289 0.425220 0.946214
  C 2.730213 1.190246 1.461638
  C 3.111619 2.062277 2.647288
  C 3.648857 -1.964812 0.055596
  C 4.634114 -2.127549 -0.825733
  C 4.677728 -0.699938 -1.378322
  C 4.092500 -0.518332 -2.770303
  C 2.791058 -1.256676 -3.065439
  C 2.362837 -1.069661 -4.513732
  O 5.858977 -0.036054 -1.302240
  H 4.689392 1.161648 0.605531
  H 4.395561 -0.137953 1.773298
  H 1.962891 0.480705 1.764437
  H 2.324804 1.819780 0.668652
  H 3.517145 1.464437 3.454785
  H 2.233396 2.581570 3.017029
  H 3.851692 2.808167 2.363955
  H 3.048097 -2.612284 0.655706
  H 5.403281 -2.865081 -0.982735
  H 4.867156 -0.851962 -3.471631
  H 3.973261 0.555481 -2.959982
  H 1.981028 -0.896868 -2.420718
  H 2.911289 -2.318749 -2.851313
  H 2.258352 -0.014575 -4.758369
  H 1.409553 -1.554270 -4.692518
  H 3.090769 -1.498150 -5.189598
  H 6.351889 -0.213333 -0.481815
