 23
 0.000000
  C 0.970939 0.177295 0.494191
  C 2.429282 0.124197 0.360792
  H 3.053691 0.453002 1.177711
  C 3.002967 -0.343088 -0.801937
  C 4.385111 -0.418868 -0.991705
  C 5.098642 -0.865288 -2.104876
  C 4.627195 -1.389719 -3.412863
  C 3.143332 -1.517670 -3.733237
  C 2.960064 -2.081700 -5.140102
  O 6.413414 -0.847956 -2.061718
  H 0.646402 0.563829 1.455513
  H 0.546334 -0.819036 0.355534
  H 0.545609 0.799843 -0.295584
  H 2.338767 -0.659440 -1.588371
  H 4.986245 -0.081895 -0.153118
  H 5.096941 -2.373275 -3.531545
  H 5.097555 -0.761069 -4.178175
  H 2.659987 -0.541169 -3.690666
  H 2.659408 -2.193989 -3.027970
  H 3.411867 -1.430261 -5.884410
  H 1.902212 -2.174380 -5.372228
  H 3.411332 -3.067153 -5.228088
  H 6.785367 -0.512810 -1.223544
 23
 13.537045
  C 0.938963 0.213939 0.585148
  C 2.380124 0.152813 0.432459
  H 3.023044 0.475622 1.234529
  C 2.987061 -0.358779 -0.840322
  C 4.359396 -0.431595 -1.022774
  C 5.065604 -0.874590 -2.127833
  C 4.626403 -1.397194 -3.431343
  C 3.148689 -1.533494 -3.772362
  C 2.991174 -2.098417 -5.181896
  O 6.518083 -0.848575 -2.064089
  H 0.635493 0.602923 1.552249
  H 0.504316 -0.779600 0.449086
  H 0.503922 0.836344 -0.200949
  H 2.312965 -0.670668 -1.615816
  H 4.960090 -0.094338 -0.183218
  H 5.106924 -2.377285 -3.543412
  H 5.107397 -0.766323 -4.189410
  H 2.659313 -0.559525 -3.737129
  H 2.658817 -2.213239 -3.074277
  H 3.450674 -1.444149 -5.918858
  H 1.937932 -2.197893 -5.430970
  H 3.450185 -3.080792 -5.262869
  H 6.863615 -0.512091 -1.223112
 23
 41.456817
  C 0.920293 0.245684 0.664812
  C 2.357661 0.173686 0.484650
  H 3.053208 0.480356 1.248335
  C 2.964319 -0.374242 -0.880689
  C 4.326815 -0.438444 -1.040649
  C 4.998223 -0.880161 -2.142338
  C 4.630392 -1.406160 -3.453891
  C 3.156739 -1.551413 -3.817094
  C 3.016579 -2.117186 -5.228057
  O 6.617422 -0.837830 -2.037534
  H 0.655818 0.637740 1.641039
  H 0.465101 -0.740248 0.540777
  H 0.464804 0.871873 -0.106578
  H 2.256478 -0.674812 -1.630081
  H 4.926230 -0.104157 -0.207520
  H 5.129836 -2.378243 -3.555564
  H 5.130282 -0.774210 -4.199017
  H 2.660940 -0.581481 -3.783992
  H 2.660340 -2.229420 -3.123069
  H 3.482063 -1.461511 -5.959916
  H 1.966720 -2.221525 -5.489216
  H 3.481372 -3.097166 -5.303991
  H 6.882617 -0.492487 -1.173835
 23
 73.016722
  C 0.914586 0.273871 0.732018
  C 2.329444 0.191539 0.530657
  H 3.066668 0.483746 1.257670
  C 2.917424 -0.379998 -0.890162
  C 4.288488 -0.447230 -1.057639
  C 4.920837 -0.891655 -2.168820
  C 4.620702 -1.408423 -3.458983
  C 3.149791 -1.566448 -3.852489
  C 3.046726 -2.132132 -5.266305
  O 6.749566 -0.835621 -2.036137
  H 0.667032 0.670502 1.716815
  H 0.444222 -0.714881 0.604723
  H 0.445790 0.899469 -0.045014
  H 2.178504 -0.667929 -1.608624
  H 4.903651 -0.116117 -0.229412
  H 5.138609 -2.376459 -3.547709
  H 5.137865 -0.768473 -4.191358
  H 2.648366 -0.598215 -3.829493
  H 2.648816 -2.251801 -3.167800
  H 3.521453 -1.471432 -5.987576
  H 2.003203 -2.245845 -5.549747
  H 3.521889 -3.107770 -5.332883
  H 6.954188 -0.483186 -1.157741
 23
 95.936925
  C 0.921903 0.283614 0.726041
  C 2.343062 0.164352 0.475045
  H 3.079813 0.482383 1.196516
  C 2.836525 -0.370424 -0.779539
  C 4.209490 -0.451105 -1.014528
  C 4.763607 -0.899574 -2.159541
  C 4.564655 -1.407629 -3.445260
  C 3.105079 -1.583578 -3.882984
  C 3.060230 -2.134019 -5.299662
  O 7.042476 -0.818960 -2.014934
  H 0.700139 0.710890 1.706861
  H 0.434402 -0.688207 0.621854
  H 0.446823 0.878965 -0.057188
  H 2.105805 -0.677050 -1.498163
  H 4.868181 -0.140270 -0.207103
  H 5.102937 -2.357476 -3.528604
  H 5.093876 -0.758721 -4.154375
  H 2.590824 -0.621761 -3.861215
  H 2.597226 -2.282990 -3.216294
  H 3.543138 -1.458532 -6.002227
  H 2.027543 -2.259243 -5.608814
  H 3.551148 -3.102599 -5.363654
  H 7.243928 -0.443674 -1.146877
 23
 107.552151
  C 0.910241 0.319272 0.771523
  C 2.328700 0.158611 0.470784
  H 3.075275 0.475467 1.186252
  C 2.757221 -0.369180 -0.728736
  C 4.154728 -0.485116 -1.023527
  C 4.640846 -0.910764 -2.151675
  C 4.545259 -1.406192 -3.453523
  C 3.083961 -1.611636 -3.930105
  C 3.089580 -2.148845 -5.351168
  O 7.248835 -0.783919 -1.978865
  H 0.741117 0.759907 1.757474
  H 0.392039 -0.645603 0.699653
  H 0.423291 0.930212 0.000776
  H 2.018847 -0.680563 -1.443431
  H 4.845817 -0.194650 -0.230384
  H 5.098285 -2.359527 -3.519247
  H 5.077970 -0.730134 -4.144518
  H 2.548880 -0.659462 -3.900519
  H 2.575949 -2.320908 -3.272234
  H 3.566050 -1.456478 -6.038911
  H 2.060567 -2.291294 -5.678421
  H 3.595620 -3.107820 -5.414302
  H 7.466979 -0.404679 -1.133208
 23
 108.188781
  C 0.904107 0.380865 0.927234
  C 2.305531 0.193348 0.533038
  H 3.087048 0.499614 1.219322
  C 2.652756 -0.339945 -0.674227
  C 4.025198 -0.506978 -1.071211
  C 4.441127 -0.940185 -2.214937
  C 4.566351 -1.422098 -3.484505
  C 3.090211 -1.654178 -4.028876
  C 3.180255 -2.186400 -5.448222
  O 7.315871 -0.771734 -1.956829
  H 0.815624 0.812206 1.899035
  H 0.365008 -0.575428 0.898822
  H 0.380582 1.011463 0.197082
  H 1.884819 -0.648166 -1.368240
  H 4.757183 -0.235481 -0.330634
  H 5.109278 -2.375688 -3.512580
  H 5.087664 -0.719698 -4.145684
  H 2.556839 -0.711753 -4.013646
  H 2.590037 -2.366227 -3.386062
  H 3.673506 -1.480877 -6.111579
  H 2.171463 -2.345280 -5.815644
  H 3.707494 -3.135363 -5.490442
  H 7.595003 -0.390457 -1.125166
 23
 107.722429
  C 0.899248 0.425804 1.060276
  C 2.273214 0.216646 0.579884
  H 3.082407 0.493972 1.242010
  C 2.538332 -0.301154 -0.630912
  C 3.880077 -0.509228 -1.108086
  C 4.292589 -0.947169 -2.245262
  C 4.539071 -1.433104 -3.506675
  C 3.097542 -1.690300 -4.122305
  C 3.277682 -2.226769 -5.533393
  O 7.445195 -0.760124 -1.938556
  H 0.879674 0.849415 2.063561
  H 0.348230 -0.510516 1.053898
  H 0.355633 1.079468 0.383826
  H 1.735658 -0.593100 -1.297061
  H 4.669764 -0.239764 -0.400138
  H 5.089185 -2.374393 -3.497347
  H 5.071661 -0.721750 -4.136996
  H 2.542855 -0.748049 -4.141805
  H 2.568139 -2.418383 -3.500911
  H 3.797016 -1.513740 -6.170782
  H 2.286602 -2.405591 -5.959088
  H 3.824552 -3.167955 -5.539562
  H 7.843580 -0.395303 -1.148094
 23
 107.412018
  C 0.889787 0.515016 1.114638
  C 2.238617 0.202450 0.619579
  H 3.072006 0.394297 1.281083
  C 2.457148 -0.291581 -0.621238
  C 3.776561 -0.582585 -1.114898
  C 4.198433 -1.021940 -2.246779
  C 4.520115 -1.478448 -3.503449
  C 3.098789 -1.611363 -4.193992
  C 3.323194 -2.107576 -5.611230
  O 7.640915 -1.088987 -1.804749
  H 0.912768 0.907518 2.125212
  H 0.255812 -0.373496 1.082872
  H 0.398025 1.233604 0.456078
  H 1.633719 -0.478076 -1.295300
  H 4.593086 -0.415277 -0.403015
  H 5.003193 -2.459829 -3.500918
  H 5.134081 -0.777727 -4.076849
  H 2.610963 -0.638581 -4.203158
  H 2.492412 -2.321902 -3.635968
  H 3.923131 -1.412326 -6.191317
  H 2.350750 -2.202897 -6.090273
  H 3.806964 -3.080122 -5.623482
  H 8.138055 -0.788686 -1.039885
 23
 111.111000
  C 0.852657 0.543419 1.192944
  C 2.205170 0.244318 0.699621
  H 3.036135 0.449529 1.360164
  C 2.451312 -0.301478 -0.657671
  C 3.774155 -0.579362 -1.149711
  C 4.201365 -1.019605 -2.279241
  C 4.528613 -1.478845 -3.533477
  C 3.109055 -1.632272 -4.223406
  C 3.339526 -2.133214 -5.638004
  O 7.773453 -1.044290 -1.820049
  H 0.870841 0.941465 2.201445
  H 0.229294 -0.352722 1.165802
  H 0.352470 1.252643 0.530589
  H 1.630244 -0.501286 -1.330799
  H 4.588543 -0.398623 -0.438662
  H 5.023324 -2.454386 -3.525762
  H 5.134278 -0.773893 -4.110507
  H 2.609699 -0.665421 -4.237710
  H 2.511098 -2.347032 -3.661699
  H 3.931228 -1.433934 -6.221694
  H 2.368344 -2.242603 -6.116604
  H 3.834826 -3.099991 -5.645119
  H 8.266889 -0.734089 -1.056738
 23
 108.264451
  C 0.836089 0.510684 1.113181
  C 2.182952 0.210347 0.612079
  H 3.014059 0.396580 1.276556
  C 2.403728 -0.272668 -0.631699
  C 3.719353 -0.557366 -1.134533
  C 4.156680 -0.985369 -2.267268
  C 4.513906 -1.449263 -3.507095
  C 3.079787 -1.626223 -4.177201
  C 3.295752 -2.136173 -5.587435
  O 8.123188 -0.987933 -1.807700
  H 0.857681 0.894312 2.131439
  H 0.209124 -0.382243 1.076175
  H 0.343182 1.235673 0.464139
  H 1.580182 -0.461120 -1.307115
  H 4.547050 -0.384307 -0.436754
  H 5.017774 -2.413314 -3.485339
  H 5.093819 -0.742761 -4.094715
  H 2.567253 -0.670569 -4.203183
  H 2.493928 -2.342807 -3.609585
  H 3.873265 -1.432556 -6.182701
  H 2.323318 -2.261613 -6.055331
  H 3.804451 -3.097905 -5.590327
  H 8.714219 -0.699038 -1.096226
 23
 108.643367
  C 0.813832 0.492676 1.127005
  C 2.156076 0.245060 0.608374
  H 2.991274 0.496868 1.246164
  C 2.375976 -0.279146 -0.619897
  C 3.689776 -0.524697 -1.140589
  C 4.122365 -0.967510 -2.268590
  C 4.488695 -1.453728 -3.505453
  C 3.066903 -1.622853 -4.187924
  C 3.293268 -2.147655 -5.599077
  O 8.349150 -0.957818 -1.802624
  H 0.837012 0.922952 2.127941
  H 0.236518 -0.436244 1.147758
  H 0.262912 1.162225 0.459087
  H 1.549659 -0.532054 -1.263315
  H 4.530328 -0.305390 -0.452647
  H 4.981387 -2.429309 -3.473616
  H 5.082448 -0.751918 -4.096306
  H 2.565430 -0.662815 -4.225852
  H 2.471014 -2.327693 -3.617120
  H 3.878312 -1.455824 -6.191648
  H 2.327411 -2.268404 -6.074247
  H 3.790727 -3.108712 -5.591346
  H 8.958031 -0.671552 -1.122121
 23
 111.111000
  C 0.772457 0.517223 1.206481
  C 2.117397 0.282917 0.688650
  H 2.949725 0.547443 1.325041
  C 2.364863 -0.295104 -0.655134
  C 3.681336 -0.527687 -1.175028
  C 4.118838 -0.970651 -2.301074
  C 4.490570 -1.458299 -3.535761
  C 3.070710 -1.647218 -4.217060
  C 3.302901 -2.175894 -5.625819
  O 8.474699 -0.907469 -1.822058
  H 0.790812 0.952391 2.205400
  H 0.206055 -0.418281 1.231705
  H 0.213599 1.177167 0.535605
  H 1.541426 -0.560653 -1.297150
  H 4.519410 -0.295364 -0.488337
  H 4.994650 -2.427890 -3.499520
  H 5.075946 -0.752346 -4.130028
  H 2.558030 -0.693299 -4.259317
  H 2.483229 -2.356318 -3.642828
  H 3.879686 -1.480030 -6.221755
  H 2.338423 -2.310143 -6.100166
  H 3.811573 -3.131019 -5.613752
  H 9.080332 -0.610936 -1.143055
 23
 109.177269
  C 0.765716 0.480361 1.117901
  C 2.114109 0.236005 0.580400
  H 2.953599 0.499179 1.208861
  C 2.333248 -0.287105 -0.640460
  C 3.647241 -0.510955 -1.149883
  C 4.079250 -0.982345 -2.254495
  C 4.436602 -1.451000 -3.494696
  C 3.018102 -1.655431 -4.163863
  C 3.240848 -2.167252 -5.582482
  O 8.834429 -0.837291 -1.785990
  H 0.797279 0.918483 2.113771
  H 0.197793 -0.446441 1.140069
  H 0.207479 1.132561 0.449535
  H 1.512281 -0.556506 -1.284002
  H 4.469684 -0.257303 -0.474744
  H 4.964493 -2.409563 -3.463938
  H 5.000016 -0.728461 -4.091973
  H 2.485162 -0.708438 -4.202688
  H 2.442197 -2.380011 -3.589168
  H 3.800665 -1.454664 -6.181354
  H 2.267918 -2.313961 -6.046465
  H 3.765902 -3.116649 -5.590653
  H 9.470109 -0.525724 -1.135896
