 20
 0.000000
  C 0.923441 0.044460 0.217277
  C 2.420767 0.058042 0.086980
  C 3.226065 -0.029623 1.357023
  H 2.609956 -0.090789 2.248350
  C 3.031026 0.135290 -1.107162
  C 2.337764 0.203222 -2.438302
  H 1.254762 0.211472 -2.387031
  C 4.485876 0.133760 -1.207315
  C 5.205987 0.200151 -2.328529
  O 6.564429 0.194402 -2.370352
  H 0.623516 -0.029026 1.259191
  H 0.494682 -0.803409 -0.316262
  H 0.489258 0.955631 -0.193602
  H 3.865415 0.848518 1.457098
  H 3.874240 -0.910276 1.327598
  H 2.642009 -0.652346 -3.041360
  H 2.659793 1.103267 -2.961951
  H 5.044248 0.072272 -0.282840
  H 4.803616 0.265599 -3.326071
  H 6.916709 0.135466 -1.472791
 20
 -0.702078
  C 0.952185 0.106034 0.193847
  C 2.451805 0.061955 0.074020
  C 3.207957 -0.083402 1.368331
  H 2.546198 -0.417079 2.163331
  C 3.076226 0.126511 -1.115084
  C 2.337767 0.190050 -2.424116
  H 1.262805 0.202946 -2.286379
  C 4.525518 0.149239 -1.215476
  C 5.225371 0.146881 -2.346199
  O 6.580465 0.189640 -2.417108
  H 0.649427 0.104291 1.237549
  H 0.494515 -0.757054 -0.289989
  H 0.549210 1.005418 -0.270898
  H 3.645767 0.867800 1.674784
  H 4.008926 -0.814154 1.269982
  H 2.593191 -0.676824 -3.031828
  H 2.625217 1.084813 -2.974324
  H 5.082889 0.196697 -0.289390
  H 4.796236 0.107846 -3.333853
  H 6.950430 0.224606 -1.525766
 20
 -0.257658
  C 0.955485 0.199179 0.209415
  C 2.450336 0.089576 0.079476
  C 3.189560 -0.139803 1.369352
  H 2.568621 -0.725485 2.045451
  C 3.076658 0.111922 -1.109375
  C 2.335670 0.153323 -2.418843
  H 1.261277 0.127757 -2.274988
  C 4.526214 0.172006 -1.215767
  C 5.227395 0.100652 -2.348287
  O 6.579229 0.205515 -2.430491
  H 0.668704 0.242529 1.256999
  H 0.453261 -0.657648 -0.240481
  H 0.588171 1.100312 -0.280112
  H 3.436357 0.798017 1.867426
  H 4.098441 -0.707423 1.187938
  H 2.617353 -0.706978 -3.023565
  H 2.588727 1.056020 -2.973097
  H 5.080404 0.332255 -0.299770
  H 4.799292 -0.053512 -3.325290
  H 6.947828 0.341528 -1.548086
 20
 1.137419
  C 0.968495 0.314098 0.227346
  C 2.448816 0.096906 0.083767
  C 3.174820 -0.205565 1.363723
  H 2.637190 -1.000790 1.882407
  C 3.072584 0.073932 -1.104119
  C 2.335827 0.079983 -2.416742
  H 1.266195 -0.039186 -2.273369
  C 4.521221 0.183366 -1.218805
  C 5.233206 0.073139 -2.351375
  O 6.576598 0.263064 -2.444046
  H 0.707279 0.415627 1.277581
  H 0.394809 -0.519124 -0.180494
  H 0.661856 1.219057 -0.294373
  H 3.226283 0.653181 2.031166
  H 4.167258 -0.587176 1.141132
  H 2.688292 -0.745143 -3.032312
  H 2.512052 1.008426 -2.958641
  H 5.067093 0.438391 -0.318285
  H 4.820014 -0.175848 -3.315552
  H 6.934254 0.481237 -1.573117
 20
 6.478009
  C 1.001882 0.505034 0.232332
  C 2.436513 0.088818 0.092180
  C 3.161003 -0.310512 1.344601
  H 2.677075 -1.212152 1.731795
  C 3.076104 -0.031410 -1.091451
  C 2.336431 -0.098740 -2.402905
  H 1.293810 -0.357109 -2.247736
  C 4.509100 0.192553 -1.211680
  C 5.232650 0.093925 -2.329633
  O 6.539996 0.450718 -2.437257
  H 0.743275 0.597614 1.283914
  H 0.311401 -0.209669 -0.219060
  H 0.846512 1.465591 -0.256859
  H 3.161595 0.438030 2.130230
  H 4.150677 -0.639004 1.037641
  H 2.785816 -0.864249 -3.029259
  H 2.380635 0.848359 -2.939209
  H 5.022628 0.540190 -0.322176
  H 4.851801 -0.235966 -3.281897
  H 6.864346 0.754756 -1.578671
 20
 16.941502
  C 1.051767 0.676935 0.242762
  C 2.401152 0.057267 0.090626
  C 3.160555 -0.410472 1.298102
  H 2.650300 -1.300418 1.687149
  C 3.052743 -0.122601 -1.083782
  C 2.353708 -0.308419 -2.405169
  H 1.346176 -0.687179 -2.249475
  C 4.457325 0.239347 -1.194284
  C 5.195641 0.226242 -2.308400
  O 6.476370 0.664705 -2.383987
  H 0.799186 0.771752 1.292649
  H 0.261872 0.101025 -0.244059
  H 1.060250 1.666975 -0.215405
  H 3.266859 0.306707 2.103788
  H 4.065750 -0.850910 0.870689
  H 2.898058 -1.034405 -2.997119
  H 2.288870 0.617754 -2.973493
  H 4.937120 0.594172 -0.284735
  H 4.863247 -0.137524 -3.263791
  H 6.771377 0.942066 -1.512622
 20
 34.646446
  C 1.083349 0.788270 0.234236
  C 2.398808 0.092961 0.118167
  C 3.132514 -0.500024 1.275915
  H 2.751408 -1.497958 1.524043
  C 3.073162 -0.178200 -1.035209
  C 2.368190 -0.397938 -2.358437
  H 1.361819 -0.785001 -2.183585
  C 4.433227 0.301751 -1.178948
  C 5.182363 0.252031 -2.287332
  O 6.460709 0.694291 -2.363471
  H 0.808596 0.902169 1.275283
  H 0.276863 0.238977 -0.263016
  H 1.145430 1.775253 -0.242361
  H 3.208448 0.118031 2.164734
  H 3.993671 -0.882860 0.665973
  H 2.921441 -1.121658 -2.945967
  H 2.278517 0.524947 -2.938655
  H 4.853126 0.804137 -0.302993
  H 4.886561 -0.187479 -3.212804
  H 6.713587 1.074289 -1.522387
 20
 61.707773
  C 1.159483 0.955508 0.224790
  C 2.372703 0.095619 0.140053
  C 3.054433 -0.593648 1.253712
  H 2.801584 -1.651365 1.408315
  C 3.091760 -0.243226 -0.996057
  C 2.392465 -0.546722 -2.306263
  H 1.384641 -0.912832 -2.119785
  C 4.431897 0.299103 -1.144822
  C 5.155162 0.315747 -2.268686
  O 6.374637 0.915777 -2.391089
  H 0.884322 1.119561 1.264909
  H 0.307329 0.491275 -0.282162
  H 1.339750 1.915512 -0.260457
  H 3.126919 -0.088097 2.209629
  H 3.818844 -1.018599 0.433187
  H 2.945045 -1.312458 -2.844310
  H 2.330712 0.332238 -2.948890
  H 4.855866 0.756333 -0.258245
  H 4.848240 -0.116194 -3.204895
  H 6.625631 1.309797 -1.542485
 20
 79.337040
  C 1.205825 1.015103 0.227936
  C 2.379904 0.099553 0.199253
  C 2.955059 -0.597936 1.282390
  H 2.775746 -1.659317 1.387986
  C 3.130569 -0.302451 -0.953889
  C 2.405897 -0.625188 -2.245960
  H 1.418228 -1.027361 -2.032193
  C 4.466359 0.310227 -1.133966
  C 5.150177 0.369496 -2.272777
  O 6.363771 0.982021 -2.416320
  H 0.881422 1.185646 1.251767
  H 0.377383 0.571461 -0.326764
  H 1.434958 1.972773 -0.241215
  H 3.006106 -0.120918 2.265022
  H 3.765427 -1.076326 0.132045
  H 2.960006 -1.366957 -2.817050
  H 2.293823 0.265800 -2.863617
  H 4.892871 0.770516 -0.249088
  H 4.825581 -0.056833 -3.207055
  H 6.637131 1.350268 -1.567285
 20
 61.159896
  C 1.269236 1.086827 0.246466
  C 2.360128 0.075856 0.254712
  C 2.828592 -0.620787 1.322582
  H 2.792222 -1.702455 1.361572
  C 3.143549 -0.335448 -0.948392
  C 2.420553 -0.718504 -2.218757
  H 1.460556 -1.172615 -1.973052
  C 4.474601 0.339867 -1.148113
  C 5.148842 0.399033 -2.290965
  O 6.350741 1.032109 -2.453326
  H 0.918038 1.271301 1.258005
  H 0.439942 0.698553 -0.340728
  H 1.580680 2.033210 -0.197783
  H 2.796734 -0.192864 2.324307
  H 3.696714 -1.058811 -0.198052
  H 2.996832 -1.420866 -2.808998
  H 2.220363 0.167193 -2.816979
  H 4.905300 0.790724 -0.262369
  H 4.845245 -0.086397 -3.205990
  H 6.616285 1.440069 -1.603896
 20
 40.390073
  C 1.409005 1.120091 0.128468
  C 2.451074 0.064953 0.282834
  C 2.781310 -0.584992 1.408441
  H 2.710032 -1.662395 1.461487
  C 3.207808 -0.506618 -0.901866
  C 2.403939 -0.788519 -2.146875
  H 1.452514 -1.246075 -1.890459
  C 4.483549 0.267446 -1.124063
  C 5.032358 0.537737 -2.300806
  O 6.227910 1.171117 -2.481006
  H 0.942402 1.344129 1.081342
  H 0.659132 0.732969 -0.552402
  H 1.796592 2.046028 -0.305599
  H 2.674553 -0.174804 2.410541
  H 3.673610 -1.307884 -0.264999
  H 2.939646 -1.471211 -2.805354
  H 2.228820 0.134271 -2.690708
  H 4.950598 0.644021 -0.220054
  H 4.594878 0.273545 -3.252097
  H 6.601334 1.410272 -1.614585
 20
 22.540823
  C 1.527404 1.151712 0.132540
  C 2.466247 0.004863 0.300336
  C 2.666839 -0.662030 1.435341
  H 2.765949 -1.733226 1.471056
  C 3.210018 -0.539874 -0.903539
  C 2.391278 -0.803675 -2.151239
  H 1.435776 -1.250105 -1.884467
  C 4.466035 0.267915 -1.127218
  C 5.003907 0.559228 -2.300386
  O 6.150673 1.270568 -2.482048
  H 1.085735 1.435979 1.084493
  H 0.736108 0.829702 -0.541045
  H 2.006726 2.025054 -0.312629
  H 2.453284 -0.230083 2.406004
  H 3.644531 -1.424255 -0.401427
  H 2.911692 -1.489040 -2.815441
  H 2.209415 0.125922 -2.684847
  H 4.931063 0.639704 -0.221139
  H 4.592920 0.251426 -3.248189
  H 6.511181 1.524967 -1.622285
 20
 10.944748
  C 1.599730 1.148741 0.051503
  C 2.478117 -0.034502 0.302653
  C 2.613611 -0.605957 1.493245
  H 2.938440 -1.624022 1.625602
  C 3.232666 -0.611820 -0.876757
  C 2.391797 -0.857664 -2.119717
  H 1.445931 -1.319868 -1.844286
  C 4.454542 0.241680 -1.110352
  C 4.942154 0.600840 -2.285230
  O 6.055244 1.360233 -2.473555
  H 1.173029 1.521403 0.979447
  H 0.788068 0.842578 -0.606443
  H 2.140814 1.956468 -0.442126
  H 2.257904 -0.128264 2.394293
  H 3.643285 -1.544599 -0.462036
  H 2.909592 -1.525171 -2.803749
  H 2.187037 0.077419 -2.634700
  H 4.960570 0.558642 -0.205380
  H 4.515089 0.310528 -3.231740
  H 6.439162 1.588085 -1.616802
 20
 6.209119
  C 1.730259 1.155220 0.034597
  C 2.481493 -0.113859 0.298463
  C 2.528841 -0.662374 1.502429
  H 3.043031 -1.584066 1.710972
  C 3.247765 -0.685114 -0.877178
  C 2.369978 -0.848817 -2.115986
  H 1.442740 -1.350201 -1.845806
  C 4.455491 0.186874 -1.102507
  C 4.866747 0.681640 -2.259492
  O 5.969091 1.459566 -2.431918
  H 1.338921 1.575493 0.957582
  H 0.894194 0.963314 -0.636327
  H 2.379672 1.887936 -0.442510
  H 1.996592 -0.206234 2.321648
  H 3.612875 -1.675088 -0.576503
  H 2.880165 -1.453940 -2.861343
  H 2.129654 0.115022 -2.555615
  H 5.027526 0.395701 -0.204756
  H 4.364827 0.520888 -3.200045
  H 6.406922 1.592789 -1.581835
 20
 5.807105
  C 1.758860 1.181939 0.025899
  C 2.480875 -0.103535 0.297048
  C 2.477407 -0.675198 1.490072
  H 3.000048 -1.598659 1.686522
  C 3.260072 -0.689401 -0.863250
  C 2.380666 -0.874405 -2.099487
  H 1.481064 -1.423493 -1.829094
  C 4.466689 0.178714 -1.103810
  C 4.843568 0.705478 -2.258000
  O 5.941569 1.486727 -2.441802
  H 1.386500 1.618170 0.949329
  H 0.912236 1.010334 -0.637938
  H 2.426558 1.892737 -0.460221
  H 1.942110 -0.248059 2.321737
  H 3.622166 -1.679521 -0.555670
  H 2.913633 -1.442772 -2.857628
  H 2.090886 0.082806 -2.522724
  H 5.060217 0.371276 -0.215814
  H 4.316335 0.566470 -3.188764
  H 6.405325 1.595143 -1.602538
