 26
 0.000000
  C 0.996384 0.132972 0.381868
  C 2.475139 0.140018 0.399085
  C 3.241227 0.613797 1.578372
  C 2.445071 1.099206 2.786946
  H 3.098730 1.415018 3.573007
  C 3.096863 -0.322475 -0.752613
  C 4.472906 -0.413204 -0.978851
  C 5.132414 -0.867699 -2.111643
  C 4.618673 -1.388937 -3.410716
  C 3.124514 -1.501358 -3.691727
  H 2.956077 -1.894820 -4.672399
  O 6.457488 -0.870547 -2.119086
  H 0.547238 0.500715 1.297563
  H 0.632250 -0.881396 0.212641
  H 0.631990 0.748397 -0.441931
  H 3.897288 1.429656 1.253616
  H 3.897458 -0.199872 1.908184
  H 1.806291 0.298662 3.165430
  H 1.806160 1.939037 2.506526
  H 2.436796 -0.639606 -1.542199
  H 5.100515 -0.083792 -0.158214
  H 5.068655 -2.379864 -3.541239
  H 5.069011 -0.763340 -4.190016
  H 2.653353 -0.519100 -3.634327
  H 2.652914 -2.171265 -2.971344
  H 6.834017 -0.535875 -1.285013
 26
 0.000000
  C 1.048112 0.116423 0.340627
  C 2.526699 0.127364 0.367558
  C 3.283774 0.603148 1.551849
  C 2.478420 1.086447 2.755164
  H 3.126067 1.403972 3.545500
  C 3.130873 -0.328716 -0.768166
  C 4.437682 -0.412545 -0.977215
  C 5.073196 -0.848355 -2.063456
  C 4.590526 -1.373699 -3.372760
  C 3.103417 -1.498407 -3.684358
  H 2.958382 -1.893159 -4.668252
  O 6.330004 -0.831279 -2.021260
  H 0.591993 0.482973 1.253350
  H 0.687771 -0.898899 0.169020
  H 0.687518 0.730894 -0.485553
  H 3.939803 1.420736 1.231403
  H 3.939966 -0.208792 1.885971
  H 1.839278 0.284219 3.129450
  H 1.839154 1.924595 2.470546
  H 2.470293 -0.645696 -1.557384
  H 5.062328 -0.082351 -0.154634
  H 5.051245 -2.360873 -3.493945
  H 5.051588 -0.744344 -4.142710
  H 2.623095 -0.520070 -3.636715
  H 2.622671 -2.172240 -2.973746
  H 6.655569 -0.477017 -1.138364
 26
 0.000000
  C 1.099884 0.100935 0.302029
  C 2.578221 0.115875 0.338933
  C 3.326000 0.593693 1.528301
  C 2.511242 1.074800 2.726153
  H 3.152683 1.394068 3.520838
  C 3.166776 -0.335567 -0.785240
  C 4.403068 -0.413131 -0.978680
  C 5.015179 -0.830410 -2.018753
  C 4.565063 -1.359750 -3.338017
  C 3.086052 -1.497169 -3.681256
  H 2.965425 -1.893060 -4.667991
  O 6.201577 -0.794965 -1.930794
  H 0.636628 0.466241 1.211651
  H 0.743455 -0.915357 0.128002
  H 0.743210 0.714436 -0.526570
  H 3.981962 1.413056 1.212282
  H 3.982118 -0.216473 1.866848
  H 1.871762 0.270842 3.096125
  H 1.871646 1.911218 2.437223
  H 2.505073 -0.652219 -1.573649
  H 5.024988 -0.082221 -0.154322
  H 5.036709 -2.342929 -3.449263
  H 5.037036 -0.726395 -4.098016
  H 2.596454 -0.522988 -3.643953
  H 2.596048 -2.175164 -2.980998
  H 6.470037 -0.419141 -0.994160
 26
 0.000000
  C 1.151186 0.086643 0.266409
  C 2.629193 0.105614 0.313368
  C 3.367559 0.585458 1.507792
  C 2.543363 1.064328 2.700071
  H 3.178510 1.385336 3.499098
  C 3.204249 -0.343062 -0.803918
  C 4.369687 -0.414892 -0.983073
  C 4.959097 -0.813947 -1.977745
  C 4.542581 -1.347091 -3.306489
  C 3.072678 -1.497459 -3.681957
  H 2.977123 -1.894298 -4.671063
  O 6.073868 -0.762048 -1.848791
  H 0.680759 0.450675 1.172857
  H 0.798723 -0.930615 0.089969
  H 0.798485 0.699178 -0.564602
  H 4.023419 1.406610 1.196235
  H 4.023566 -0.222919 1.850800
  H 1.903576 0.258625 3.065691
  H 1.903467 1.899002 2.406790
  H 2.540936 -0.659243 -1.591161
  H 4.989047 -0.083314 -0.157058
  H 5.025164 -2.326082 -3.407314
  H 5.025474 -0.709543 -4.056054
  H 2.573843 -0.527617 -3.655450
  H 2.573457 -2.179799 -2.992508
  H 6.278153 -0.363270 -0.854952
 26
 0.000000
  C 1.201304 0.073863 0.234552
  C 2.678908 0.096809 0.291428
  C 3.407949 0.578625 1.490777
  C 2.574485 1.055263 2.677496
  H 3.203391 1.377970 3.480765
  C 3.242960 -0.351317 -0.824491
  C 4.338120 -0.417907 -0.990591
  C 4.905753 -0.799226 -1.941078
  C 4.523514 -1.335925 -3.278679
  C 3.063668 -1.499327 -3.686587
  H 2.993569 -1.896904 -4.677536
  O 5.948825 -0.732985 -1.776391
  H 0.723828 0.436618 1.137821
  H 0.852770 -0.944338 0.055759
  H 0.852540 0.685456 -0.598811
  H 4.063673 1.401542 1.183622
  H 4.063813 -0.227988 1.838185
  H 1.934429 0.247838 3.038821
  H 1.934328 1.888216 2.379922
  H 2.577594 -0.666896 -1.610243
  H 4.955053 -0.085699 -0.163015
  H 5.016905 -2.310574 -3.368705
  H 5.017197 -0.694031 -4.017433
  H 2.555755 -0.533963 -3.671220
  H 2.555391 -2.186150 -3.008293
  H 6.081334 -0.310112 -0.722503
 26
 0.000000
  C 1.249877 0.062983 0.207428
  C 2.727014 0.089791 0.273939
  C 3.446956 0.573499 1.478014
  C 2.604527 1.047943 2.659269
  H 3.227336 1.372286 3.466622
  C 3.283111 -0.360709 -0.847894
  C 4.308581 -0.422479 -1.001991
  C 4.855376 -0.786521 -1.909432
  C 4.508229 -1.326521 -3.255261
  C 3.059466 -1.503089 -3.695931
  H 3.015304 -1.901183 -4.688177
  O 5.827009 -0.707971 -1.714080
  H 0.765573 0.424479 1.107561
  H 0.905180 -0.956124 0.026372
  H 0.904958 0.673670 -0.628197
  H 4.102516 1.398131 1.175136
  H 4.102648 -0.231400 1.829697
  H 1.964241 0.238844 3.016418
  H 1.964148 1.879222 2.357522
  H 2.615216 -0.675542 -1.631797
  H 4.923165 -0.089665 -0.172912
  H 5.012329 -2.296656 -3.334059
  H 5.012598 -0.680108 -3.982776
  H 2.542615 -0.542362 -3.692100
  H 2.542275 -2.194554 -3.029185
  H 5.878602 -0.259402 -0.596152
 26
 0.000000
  C 1.296077 0.054568 0.186445
  C 2.772705 0.085024 0.262056
  C 3.484019 0.570496 1.470541
  C 2.633158 1.042846 2.646582
  H 3.250178 1.368718 3.457755
  C 3.324680 -0.371660 -0.875182
  C 4.281609 -0.428976 -1.018186
  C 4.808659 -0.776260 -1.883879
  C 4.497329 -1.319286 -3.237246
  C 3.060686 -1.509107 -3.710894
  H 3.042867 -1.907486 -4.703857
  O 5.709986 -0.687425 -1.662898
  H 0.805344 0.414859 1.083576
  H 0.955019 -0.965384 0.003274
  H 0.954806 0.664411 -0.651293
  H 4.139393 1.396748 1.171705
  H 4.139517 -0.232784 1.826262
  H 1.992684 0.232164 2.999783
  H 1.992599 1.872544 2.340891
  H 2.653797 -0.685607 -1.656886
  H 4.893834 -0.095556 -0.187606
  H 5.011992 -2.284743 -3.304408
  H 5.012237 -0.668190 -3.953114
  H 2.535075 -0.553167 -3.718969
  H 2.534762 -2.205365 -3.056067
  H 5.670197 -0.211164 -0.475961
 26
 0.000000
  C 1.338821 0.049306 0.173312
  C 2.814932 0.083067 0.257172
  C 3.518393 0.570120 1.469612
  C 2.659918 1.040552 2.640879
  H 3.271665 1.367797 3.455486
  C 3.367558 -0.384670 -0.907599
  C 4.257903 -0.437838 -1.040270
  C 4.766500 -0.768962 -1.865706
  C 4.491543 -1.314707 -3.225850
  C 3.068029 -1.517800 -3.732517
  H 3.076832 -1.916220 -4.725592
  O 5.599766 -0.671803 -1.623988
  H 0.842278 0.408489 1.067685
  H 1.001076 -0.971406 -0.011759
  H 1.000872 0.658390 -0.666322
  H 4.173575 1.397840 1.174440
  H 4.173691 -0.231694 1.828992
  H 2.019298 0.228434 2.990498
  H 2.019221 1.868816 2.331611
  H 2.693307 -0.697610 -1.686805
  H 4.867623 -0.103777 -0.208106
  H 5.016558 -2.275341 -3.281017
  H 5.016777 -0.658784 -3.929713
  H 2.533893 -0.566777 -3.752820
  H 2.533610 -2.218980 -3.089930
  H 5.456827 -0.165377 -0.361874
 26
 0.000000
  C 1.377112 0.047959 0.169930
  C 2.852736 0.084551 0.260862
  C 3.549443 0.572944 1.476658
  C 2.684465 1.041718 2.643797
  H 3.291671 1.370130 3.461325
  C 3.411800 -0.400363 -0.946699
  C 4.238068 -0.449608 -1.069601
  C 4.729581 -0.765138 -1.856188
  C 4.491538 -1.313285 -3.222319
  C 3.082186 -1.529657 -3.762017
  H 3.117875 -1.927867 -4.754578
  O 5.497898 -0.661449 -1.598200
  H 0.875600 0.406181 1.061913
  H 1.042217 -0.973398 -0.016756
  H 1.042021 0.656400 -0.671315
  H 4.204441 1.401923 1.184627
  H 4.204549 -0.227613 1.839175
  H 2.043737 0.228368 2.990344
  H 2.043667 1.868752 2.331463
  H 2.733907 -0.712206 -1.723181
  H 4.844936 -0.114823 -0.235645
  H 5.026680 -2.268949 -3.265129
  H 5.026869 -0.652389 -3.913815
  H 2.539776 -0.583680 -3.794868
  H 2.539526 -2.235887 -3.131990
  H 5.238088 -0.121607 -0.252818
 26
 0.000000
  C 1.409452 0.050927 0.177298
  C 2.884670 0.089719 0.273726
  C 3.576116 0.579142 1.492108
  C 2.706099 1.046617 2.656019
  H 3.309766 1.375929 3.475802
  C 3.456191 -0.418679 -0.992334
  C 4.222960 -0.464227 -1.106031
  C 4.699149 -0.765020 -1.855902
  C 4.497579 -1.315193 -3.227083
  C 3.103034 -1.544500 -3.798954
  H 3.165159 -1.942257 -4.790397
  O 5.407974 -0.656467 -1.585796
  H 0.904088 0.408396 1.067407
  H 1.076777 -0.970927 -0.010634
  H 1.076590 0.658873 -0.665188
  H 4.230959 1.409100 1.202519
  H 4.231061 -0.220439 1.857061
  H 2.065300 0.232310 3.000175
  H 2.065236 1.872697 2.341300
  H 2.774703 -0.729429 -1.766103
  H 4.826450 -0.128591 -0.269968
  H 5.042359 -2.265875 -3.257507
  H 5.042517 -0.649311 -3.906184
  H 2.552814 -0.603564 -3.844338
  H 2.552598 -2.255775 -3.181470
  H 5.019510 -0.080491 -0.150374
 26
 0.000000
  C 1.435366 0.058367 0.195805
  C 2.910290 0.098683 0.296048
  C 3.598074 0.588816 1.516216
  C 2.724567 1.055383 2.677873
  H 3.325771 1.385315 3.499216
  C 3.500326 -0.439666 -1.044621
  C 4.212621 -0.481681 -1.149520
  C 4.675171 -0.768507 -1.864597
  C 4.509471 -1.320338 -3.239911
  C 3.130269 -1.562188 -3.842976
  H 3.218269 -1.959263 -4.832732
  O 5.330630 -0.656396 -1.585628
  H 0.927333 0.415308 1.084604
  H 1.104236 -0.963830 0.007011
  H 1.104057 0.665972 -0.647538
  H 4.252805 1.419453 1.228324
  H 4.252902 -0.210089 1.882859
  H 2.083724 0.240411 3.020370
  H 2.083665 1.880800 2.361501
  H 2.815548 -0.749407 -1.815886
  H 4.811973 -0.145013 -0.310899
  H 5.063373 -2.266051 -3.257981
  H 5.063499 -0.649484 -3.906651
  H 2.572721 -0.626261 -3.900815
  H 2.572541 -2.278476 -3.237956
  H 4.801976 -0.041461 -0.053132
 26
 0.000000
  C 1.455120 0.069819 0.224310
  C 2.929866 0.111024 0.326780
  C 3.615512 0.601565 1.547985
  C 2.739972 1.067599 2.708326
  H 3.339737 1.397891 3.530576
  C 3.543529 -0.462751 -1.102136
  C 4.206590 -0.501352 -1.198532
  C 4.656983 -0.774889 -1.880501
  C 4.526316 -1.328020 -3.259058
  C 3.162842 -1.581949 -3.892164
  H 3.275995 -1.978135 -4.879714
  O 5.265548 -0.660181 -1.595063
  H 0.945531 0.426452 1.112343
  H 1.124891 -0.952576 0.035014
  H 1.124718 0.677229 -0.619530
  H 4.270175 1.432598 1.261085
  H 4.270268 -0.196946 1.915613
  H 2.099105 0.252240 3.049851
  H 2.099050 1.892632 2.390990
  H 2.856052 -0.771660 -1.871331
  H 4.800870 -0.163433 -0.356809
  H 5.088788 -2.268815 -3.264902
  H 5.088882 -0.652245 -3.913565
  H 2.598474 -0.650965 -3.962290
  H 2.598329 -2.303183 -3.299438
  H 4.587157 -0.004257 0.039560
 26
 0.000000
  C 1.463493 0.072881 0.231933
  C 2.938101 0.114762 0.336091
  C 3.622124 0.605617 1.558081
  C 2.745042 1.071248 2.717418
  H 3.343714 1.401814 3.540355
  C 3.560198 -0.468759 -1.117102
  C 4.211474 -0.506228 -1.210678
  C 4.659797 -0.776234 -1.883852
  C 4.539827 -1.329702 -3.263247
  C 3.181298 -1.587286 -3.905444
  H 3.302108 -1.983158 -4.892214
  O 5.256853 -0.660699 -1.596352
  H 0.952724 0.429279 1.119382
  H 1.133950 -0.949665 0.042258
  H 1.133779 0.680140 -0.612284
  H 4.276733 1.436951 1.271931
  H 4.276825 -0.192594 1.926458
  H 2.104159 0.255593 3.058210
  H 2.104106 1.895986 2.399350
  H 2.873006 -0.777756 -1.886516
  H 4.803247 -0.167698 -0.367436
  H 5.104850 -2.268983 -3.265326
  H 5.104935 -0.652412 -3.913988
  H 2.614912 -0.657820 -3.979346
  H 2.614777 -2.310039 -3.316496
  H 4.536158 0.005798 0.064610
 26
 0.000000
  C 1.484148 0.099318 0.297753
  C 2.958725 0.141341 0.402287
  C 3.642390 0.632255 1.624453
  C 2.764968 1.097792 2.783571
  H 3.363398 1.428411 3.606661
  C 3.627001 -0.510897 -1.222087
  C 4.198489 -0.542153 -1.300190
  C 4.625775 -0.788341 -1.914020
  C 4.568694 -1.343187 -3.296860
  C 3.240632 -1.621945 -3.991711
  H 3.406242 -2.015545 -4.972848
  O 5.151184 -0.670098 -1.619774
  H 0.973119 0.455662 1.185074
  H 1.154752 -0.923259 0.107989
  H 1.154590 0.706550 -0.546545
  H 4.296989 1.463656 1.338474
  H 4.297076 -0.165893 1.992990
  H 2.124079 0.282071 3.124195
  H 2.124031 1.922468 2.465345
  H 2.937327 -0.819120 -1.989586
  H 4.777754 -0.200627 -0.449505
  H 5.148087 -2.273443 -3.276502
  H 5.148114 -0.656869 -3.925155
  H 2.663010 -0.701500 -4.088041
  H 2.662940 -2.353723 -3.425202
  H 4.139050 0.067125 0.217392
