 23
 0.000000
  C 0.975049 0.169378 0.473553
  C 2.435437 0.125905 0.364643
  H 3.045452 0.458367 1.191171
  C 3.029574 -0.337293 -0.788117
  C 4.409373 -0.416763 -0.986986
  C 5.107175 -0.866719 -2.108919
  C 4.622230 -1.389701 -3.412923
  C 3.136053 -1.514312 -3.724545
  C 2.943791 -2.078148 -5.130361
  O 6.422594 -0.855020 -2.080092
  H 0.632132 0.553610 1.429429
  H 0.559388 -0.829728 0.327953
  H 0.558929 0.789496 -0.323022
  H 2.376805 -0.657068 -1.583449
  H 5.026804 -0.084779 -0.160772
  H 5.088330 -2.374614 -3.534930
  H 5.088854 -0.762459 -4.181719
  H 2.654892 -0.536797 -3.679822
  H 2.654465 -2.189781 -3.016821
  H 3.392804 -1.427767 -5.877263
  H 1.884463 -2.168579 -5.356511
  H 3.392444 -3.064583 -5.220725
  H 6.805218 -0.521341 -1.246077
 23
 4.055282
  C 1.003214 0.231834 0.627085
  C 2.437992 0.124945 0.364815
  H 3.122226 0.436417 1.142938
  C 2.943976 -0.353972 -0.828476
  C 4.304764 -0.453334 -1.074995
  C 5.090657 -0.880969 -2.144283
  C 4.661524 -1.408838 -3.460967
  C 3.179962 -1.542215 -3.792141
  C 3.009645 -2.106572 -5.200351
  O 6.407715 -0.835181 -2.034442
  H 0.792174 0.628418 1.615003
  H 0.524311 -0.744540 0.515079
  H 0.526569 0.861427 -0.129032
  H 2.227049 -0.656123 -1.584148
  H 4.710947 -0.085597 -0.155662
  H 5.145187 -2.386796 -3.574524
  H 5.144389 -0.779757 -4.218685
  H 2.695599 -0.566608 -3.750480
  H 2.696147 -2.219340 -3.088110
  H 3.466068 -1.453114 -5.940177
  H 1.954934 -2.204358 -5.443677
  H 3.466595 -3.089813 -5.284344
  H 6.745920 -0.491421 -1.178752
 23
 13.779517
  C 1.026346 0.226925 0.616918
  C 2.455811 0.115762 0.342371
  H 3.141613 0.426995 1.124580
  C 2.940497 -0.362397 -0.854290
  C 4.293940 -0.472103 -1.126125
  C 5.121751 -0.885893 -2.159398
  C 4.701823 -1.415594 -3.478343
  C 3.210600 -1.533559 -3.772297
  C 2.992400 -2.096909 -5.174162
  O 6.417795 -0.828215 -2.017030
  H 0.825276 0.621851 1.607289
  H 0.542900 -0.745723 0.506288
  H 0.545173 0.858268 -0.132774
  H 2.184881 -0.649659 -1.573624
  H 4.515535 -0.088069 -0.167986
  H 5.178535 -2.394844 -3.595899
  H 5.178760 -0.790059 -4.240910
  H 2.739588 -0.551605 -3.712894
  H 2.739311 -2.201133 -3.049867
  H 3.435410 -1.449894 -5.927503
  H 1.930125 -2.182053 -5.386820
  H 3.434942 -3.085439 -5.270180
  H 6.726427 -0.481216 -1.148676
 23
 27.539249
  C 1.038433 0.247783 0.668082
  C 2.465690 0.126215 0.369761
  H 3.162964 0.435737 1.149955
  C 2.922024 -0.354807 -0.835160
  C 4.279011 -0.487317 -1.162949
  C 5.117685 -0.891780 -2.174093
  C 4.717062 -1.423722 -3.499044
  C 3.224862 -1.546927 -3.805108
  C 3.015184 -2.111944 -5.210941
  O 6.411688 -0.823460 -2.006529
  H 0.856547 0.643787 1.662406
  H 0.546595 -0.719269 0.565472
  H 0.550251 0.882205 -0.071484
  H 2.135286 -0.622966 -1.509203
  H 4.361272 -0.094140 -0.180020
  H 5.199174 -2.401387 -3.612574
  H 5.199190 -0.796142 -4.257600
  H 2.750297 -0.564422 -3.747463
  H 2.750393 -2.216455 -3.083482
  H 3.460918 -1.463840 -5.961749
  H 1.954340 -2.200147 -5.430432
  H 3.460976 -3.099248 -5.304410
  H 6.703536 -0.466804 -1.114925
 23
 41.632812
  C 1.036668 0.249729 0.673885
  C 2.473224 0.131400 0.382200
  H 3.160510 0.444561 1.171247
  C 2.931564 -0.347664 -0.818540
  C 4.292388 -0.489828 -1.170062
  C 5.130441 -0.893818 -2.179408
  C 4.729496 -1.426827 -3.506465
  C 3.237814 -1.545904 -3.803096
  C 3.016809 -2.108962 -5.203119
  O 6.424291 -0.825813 -2.011999
  H 0.848818 0.645362 1.668608
  H 0.547157 -0.719820 0.569771
  H 0.550161 0.885178 -0.067862
  H 2.126981 -0.613086 -1.486115
  H 4.250211 -0.099550 -0.195029
  H 5.207728 -2.403778 -3.620311
  H 5.208095 -0.800390 -4.265006
  H 2.767612 -0.564273 -3.740588
  H 2.767300 -2.210738 -3.078379
  H 3.459237 -1.462727 -5.956403
  H 1.955460 -2.193839 -5.414776
  H 3.458783 -3.096747 -5.299005
  H 6.702077 -0.482900 -1.153508
 23
 54.799343
  C 1.037043 0.253195 0.683463
  C 2.469064 0.139767 0.404611
  H 3.141474 0.450431 1.195041
  C 2.939121 -0.337210 -0.799051
  C 4.307682 -0.489069 -1.170179
  C 5.141862 -0.895608 -2.186212
  C 4.736114 -1.428646 -3.511754
  C 3.242274 -1.545737 -3.802594
  C 3.013313 -2.111262 -5.206279
  O 6.442808 -0.830847 -2.026013
  H 0.842643 0.644708 1.676166
  H 0.549571 -0.720342 0.573987
  H 0.553969 0.892973 -0.061194
  H 2.121137 -0.609822 -1.491831
  H 4.163176 -0.094137 -0.180880
  H 5.216448 -2.414409 -3.627309
  H 5.216133 -0.797741 -4.277490
  H 2.772725 -0.561393 -3.737914
  H 2.772584 -2.210316 -3.073544
  H 3.454397 -1.465043 -5.963640
  H 1.947363 -2.194928 -5.414117
  H 3.454450 -3.102352 -5.304085
  H 6.731275 -0.484004 -1.155252
 23
 66.484183
  C 1.027505 0.254323 0.682342
  C 2.472547 0.140182 0.417653
  H 3.124685 0.437382 1.206169
  C 2.956042 -0.325250 -0.784113
  C 4.330802 -0.487552 -1.162636
  C 5.145264 -0.896291 -2.191792
  C 4.728100 -1.431897 -3.519511
  C 3.248925 -1.546655 -3.797422
  C 3.013347 -2.107122 -5.187348
  O 6.447691 -0.833910 -2.046773
  H 0.822057 0.637104 1.679521
  H 0.537451 -0.721356 0.557729
  H 0.552297 0.906433 -0.063479
  H 2.143722 -0.589671 -1.490239
  H 4.108918 -0.106537 -0.194303
  H 5.203106 -2.412091 -3.638819
  H 5.198789 -0.804729 -4.283300
  H 2.785855 -0.571284 -3.731215
  H 2.788585 -2.205149 -3.072584
  H 3.446901 -1.466317 -5.940653
  H 1.955179 -2.189322 -5.386778
  H 3.449864 -3.090020 -5.286482
  H 6.748776 -0.483991 -1.173753
 23
 75.153014
  C 1.013528 0.241650 0.610470
  C 2.460427 0.115030 0.420282
  H 3.082000 0.362533 1.276500
  C 2.994777 -0.290908 -0.778843
  C 4.388631 -0.494531 -1.143906
  C 5.175854 -0.888791 -2.186863
  C 4.730879 -1.425788 -3.498057
  C 3.236620 -1.551562 -3.743152
  C 2.971999 -2.106042 -5.142689
  O 6.489289 -0.817266 -2.089469
  H 0.763693 0.569784 1.613676
  H 0.517847 -0.710163 0.406208
  H 0.592814 0.942187 -0.111332
  H 2.218294 -0.494069 -1.526328
  H 4.089568 -0.139528 -0.164676
  H 5.213189 -2.403113 -3.638542
  H 5.177787 -0.779621 -4.264465
  H 2.763261 -0.573390 -3.658968
  H 2.794528 -2.227720 -3.008415
  H 3.386471 -1.448667 -5.907326
  H 1.900806 -2.196603 -5.319802
  H 3.419173 -3.093658 -5.261508
  H 6.812499 -0.466034 -1.241677
 23
 80.241657
  C 0.990812 0.238224 0.550999
  C 2.452698 0.081568 0.444599
  H 3.011279 0.246950 1.350384
  C 3.049651 -0.243131 -0.740663
  C 4.434737 -0.509164 -1.135032
  C 5.197474 -0.867413 -2.168345
  C 4.714920 -1.423275 -3.491718
  C 3.218238 -1.568099 -3.709878
  C 2.939584 -2.118213 -5.104734
  O 6.522179 -0.790211 -2.136228
  H 0.693278 0.489431 1.545682
  H 0.486498 -0.673420 0.248685
  H 0.636040 1.010306 -0.123565
  H 2.320473 -0.356826 -1.555136
  H 4.104237 -0.184394 -0.126504
  H 5.206395 -2.388125 -3.642575
  H 5.134241 -0.754701 -4.248512
  H 2.731116 -0.596640 -3.619656
  H 2.798186 -2.254047 -2.975427
  H 3.330982 -1.454876 -5.868404
  H 1.871716 -2.222301 -5.263368
  H 3.396834 -3.093068 -5.233649
  H 6.878773 -0.431126 -1.307431
 23
 82.877270
  C 0.963804 0.237320 0.511355
  C 2.430948 0.040954 0.457306
  H 2.949125 0.125527 1.402537
  C 3.072475 -0.209114 -0.712628
  C 4.454661 -0.523558 -1.155425
  C 5.216276 -0.855112 -2.186762
  C 4.717205 -1.412181 -3.492876
  C 3.219583 -1.565005 -3.677663
  C 2.915722 -2.133809 -5.065024
  O 6.550467 -0.776348 -2.184531
  H 0.625767 0.423685 1.538374
  H 0.440529 -0.640244 0.120089
  H 0.663535 1.083860 -0.111794
  H 2.389067 -0.225548 -1.569910
  H 4.102311 -0.222671 -0.116701
  H 5.212846 -2.373692 -3.632343
  H 5.115956 -0.742287 -4.258083
  H 2.729543 -0.597674 -3.596334
  H 2.814115 -2.243410 -2.928530
  H 3.294422 -1.472173 -5.850306
  H 1.837390 -2.243678 -5.202425
  H 3.378488 -3.117796 -5.192051
  H 6.923813 -0.412390 -1.365385
 23
 85.664750
  C 0.951848 0.242028 0.496213
  C 2.407431 0.005109 0.477880
  H 2.895734 0.007986 1.442806
  C 3.085489 -0.180570 -0.685347
  C 4.465068 -0.523913 -1.165969
  C 5.221662 -0.839395 -2.193755
  C 4.718539 -1.405999 -3.500830
  C 3.209604 -1.568622 -3.671509
  C 2.895946 -2.155625 -5.042475
  O 6.558367 -0.754395 -2.197202
  H 0.587911 0.360477 1.512932
  H 0.419848 -0.582312 0.026166
  H 0.701105 1.137622 -0.066667
  H 2.440727 -0.111629 -1.569783
  H 4.089992 -0.235119 -0.113905
  H 5.221410 -2.370272 -3.630573
  H 5.109231 -0.739161 -4.276576
  H 2.719530 -0.602913 -3.599865
  H 2.815022 -2.234518 -2.908703
  H 3.262948 -1.509547 -5.833801
  H 1.824606 -2.269993 -5.168639
  H 3.356589 -3.131774 -5.159091
  H 6.932840 -0.387254 -1.382468
 23
 88.073126
  C 0.936931 0.250953 0.493619
  C 2.386959 -0.035715 0.489456
  H 2.855267 -0.126659 1.458837
  C 3.086178 -0.151477 -0.671180
  C 4.467134 -0.520357 -1.177429
  C 5.223493 -0.828427 -2.207016
  C 4.718090 -1.404996 -3.508937
  C 3.213356 -1.570424 -3.661782
  C 2.886476 -2.179888 -5.023568
  O 6.559987 -0.737341 -2.214603
  H 0.548558 0.298411 1.513034
  H 0.390406 -0.512218 -0.056863
  H 0.730740 1.197277 0.001344
  H 2.473857 0.008128 -1.566392
  H 4.065323 -0.235085 -0.116598
  H 5.220144 -2.369164 -3.631559
  H 5.101227 -0.746910 -4.292018
  H 2.722289 -0.598898 -3.598780
  H 2.826377 -2.225162 -2.880514
  H 3.246415 -1.545433 -5.829457
  H 1.813031 -2.297007 -5.139076
  H 3.346687 -3.158378 -5.130214
  H 6.935003 -0.363954 -1.401548
 23
 89.821618
  C 0.924920 0.258686 0.503145
  C 2.365775 -0.075401 0.497854
  H 2.818954 -0.262764 1.464128
  C 3.078722 -0.117918 -0.661653
  C 4.466193 -0.510704 -1.188857
  C 5.226464 -0.816709 -2.215271
  C 4.718925 -1.408876 -3.516995
  C 3.213033 -1.573301 -3.661001
  C 2.878698 -2.205134 -5.009154
  O 6.559855 -0.721765 -2.222047
  H 0.521581 0.233621 1.509526
  H 0.365038 -0.437140 -0.119777
  H 0.756878 1.252421 0.087668
  H 2.493912 0.125201 -1.555728
  H 4.035369 -0.219544 -0.114355
  H 5.216575 -2.373134 -3.629058
  H 5.101629 -0.761432 -4.307375
  H 2.725702 -0.602513 -3.611355
  H 2.828838 -2.210256 -2.867585
  H 3.237929 -1.583875 -5.829339
  H 1.801105 -2.321688 -5.118118
  H 3.337521 -3.189403 -5.100827
  H 6.932156 -0.339591 -1.410534
 23
 91.485289
  C 0.920986 0.273037 0.510486
  C 2.344128 -0.120401 0.497658
  H 2.776747 -0.417305 1.446186
  C 3.075531 -0.084142 -0.657637
  C 4.449145 -0.505807 -1.202457
  C 5.222147 -0.808725 -2.217605
  C 4.717564 -1.414526 -3.519066
  C 3.211531 -1.591359 -3.652526
  C 2.870419 -2.230453 -4.998746
  O 6.553718 -0.697995 -2.221830
  H 0.496642 0.175442 1.501997
  H 0.346142 -0.338286 -0.183208
  H 0.801917 1.306616 0.183597
  H 2.528255 0.259557 -1.541950
  H 3.999627 -0.209151 -0.107888
  H 5.220759 -2.373877 -3.627542
  H 5.090621 -0.771611 -4.311137
  H 2.718789 -0.628453 -3.599061
  H 2.840111 -2.224905 -2.856622
  H 3.219211 -1.606620 -5.824587
  H 1.788720 -2.356334 -5.098934
  H 3.337502 -3.212546 -5.091458
  H 6.917886 -0.302332 -1.412749
