 23
 0.000000
  H 1.454660 0.059342 0.084040
  C 2.531051 0.062849 0.021853
  C 3.241948 -0.011748 1.343950
  C 2.293826 -0.078965 2.535094
  H 2.852108 -0.131491 3.466017
  C 3.137086 0.130113 -1.170178
  C 2.386628 0.203798 -2.476044
  C 0.865281 0.199361 -2.397382
  H 0.442886 0.255775 -3.397205
  C 4.587385 0.136441 -1.282258
  C 5.297387 0.200035 -2.409412
  O 6.653400 0.203270 -2.466686
  H 3.887536 0.865068 1.462126
  H 3.887539 -0.896289 1.362736
  H 1.655838 -0.958237 2.465675
  H 1.655829 0.802529 2.565035
  H 2.700605 -0.641074 -3.097069
  H 2.700604 1.113171 -2.998082
  H 0.503915 1.052876 -1.827662
  H 0.503917 -0.712820 -1.927299
  H 5.144815 0.084137 -0.355268
  H 4.883006 0.256103 -3.403065
  H 7.015385 0.152803 -1.572216
 23
 7.134355
  H 1.480017 0.060141 0.069898
  C 2.556348 0.063856 0.004024
  C 3.268850 -0.010376 1.319641
  C 2.214036 -0.084282 2.629306
  H 2.770520 -0.136726 3.558773
  C 3.154847 0.131202 -1.189469
  C 2.392457 0.204497 -2.488419
  C 0.872305 0.198898 -2.389160
  H 0.437110 0.255030 -3.383967
  C 4.604036 0.138034 -1.310486
  C 5.306105 0.201902 -2.442504
  O 6.661635 0.205701 -2.509780
  H 3.910497 0.865001 1.443886
  H 3.910499 -0.894169 1.344619
  H 1.580254 -0.962360 2.552464
  H 1.580246 0.796861 2.651737
  H 2.700270 -0.640433 -3.112413
  H 2.700270 1.114258 -3.013399
  H 0.517805 1.052080 -1.814871
  H 0.517805 -0.713471 -1.914495
  H 5.166990 0.085899 -0.386488
  H 4.883696 0.257782 -3.432824
  H 7.030589 0.155396 -1.618184
 23
 22.406808
  H 1.512383 0.060457 0.064292
  C 2.588913 0.064439 -0.006299
  C 3.302580 -0.008961 1.294570
  C 2.119872 -0.088569 2.705260
  H 2.673188 -0.140770 3.630420
  C 3.178490 0.132140 -1.206082
  C 2.397103 0.204872 -2.495059
  C 0.879464 0.197384 -2.362345
  H 0.424187 0.253040 -3.348744
  C 4.626728 0.139660 -1.339287
  C 5.317273 0.203924 -2.478342
  O 6.671731 0.208582 -2.560843
  H 3.930425 0.864247 1.444900
  H 3.930433 -0.893538 1.345713
  H 1.500467 -0.965977 2.599682
  H 1.500453 0.795146 2.699061
  H 2.695228 -0.640238 -3.123275
  H 2.695228 1.115290 -3.024219
  H 0.536072 1.050119 -1.781077
  H 0.536074 -0.715321 -1.880696
  H 5.196867 0.087732 -0.418946
  H 4.882184 0.259493 -3.463188
  H 7.051576 0.158539 -1.673864
 23
 39.295694
  H 1.539409 0.060751 0.059099
  C 2.615146 0.065109 -0.018138
  C 3.340563 -0.007882 1.275469
  C 2.036603 -0.093468 2.792101
  H 2.597618 -0.145461 3.713609
  C 3.193695 0.133049 -1.222164
  C 2.399530 0.205396 -2.504319
  C 0.883617 0.196878 -2.353346
  H 0.417853 0.252254 -3.334780
  C 4.639724 0.141070 -1.364265
  C 5.321490 0.205628 -2.508523
  O 6.674873 0.210944 -2.602728
  H 3.957661 0.869957 1.451790
  H 3.957669 -0.899985 1.351919
  H 1.428923 -0.976736 2.659580
  H 1.428920 0.799087 2.759788
  H 2.691963 -0.639803 -3.134708
  H 2.691963 1.116140 -3.035626
  H 0.546240 1.049564 -1.768660
  H 0.546238 -0.716170 -1.868290
  H 5.214520 0.089307 -0.446833
  H 4.876540 0.260949 -3.489017
  H 7.062969 0.161104 -1.719313
 23
 56.159493
  H 1.563890 0.060574 0.062199
  C 2.639159 0.065435 -0.023925
  C 3.374474 -0.006692 1.254339
  C 1.953473 -0.098445 2.880238
  H 2.523516 -0.149893 3.792047
  C 3.207875 0.133858 -1.236511
  C 2.401607 0.205776 -2.511070
  C 0.887376 0.196357 -2.344134
  H 0.412099 0.251487 -3.321197
  C 4.654118 0.142461 -1.388925
  C 5.327310 0.207334 -2.538772
  O 6.679518 0.213300 -2.644481
  H 3.977152 0.871667 1.453535
  H 3.977156 -0.901874 1.353457
  H 1.360676 -0.983248 2.724008
  H 1.360660 0.798319 2.824538
  H 2.688735 -0.639599 -3.143572
  H 2.688735 1.116937 -3.044460
  H 0.555362 1.049068 -1.756446
  H 0.555363 -0.717047 -1.856102
  H 5.234066 0.090871 -0.474558
  H 4.872994 0.262410 -3.514984
  H 7.075514 0.163661 -1.764592
 23
 71.471491
  H 1.589333 0.060859 0.057243
  C 2.664128 0.066141 -0.036366
  C 3.411276 -0.005455 1.232452
  C 1.873810 -0.103392 2.967962
  H 2.455605 -0.154441 3.872700
  C 3.219852 0.134589 -1.249422
  C 2.403038 0.206089 -2.516619
  C 0.890520 0.195882 -2.335699
  H 0.406781 0.250775 -3.308583
  C 4.663159 0.143675 -1.410405
  C 5.328072 0.208748 -2.563843
  O 6.679095 0.215267 -2.679351
  H 4.001356 0.876772 1.454757
  H 4.001365 -0.907093 1.354099
  H 1.293763 -0.992884 2.788606
  H 1.293762 0.800616 2.889812
  H 2.685390 -0.639431 -3.151035
  H 2.685391 1.117609 -3.051897
  H 0.563345 1.048576 -1.745383
  H 0.563342 -0.717807 -1.845045
  H 5.247284 0.092235 -0.498660
  H 4.865684 0.263612 -3.536325
  H 7.081793 0.165799 -1.802460
 23
 84.607318
  H 1.610220 0.060310 0.066920
  C 2.684826 0.066105 -0.035772
  C 3.441593 -0.004823 1.221232
  C 1.788793 -0.108998 3.067240
  H 2.381000 -0.159500 3.962275
  C 3.233559 0.135486 -1.265356
  C 2.404470 0.206605 -2.525783
  C 0.893655 0.195582 -2.330399
  H 0.400957 0.250225 -3.298850
  C 4.678543 0.145247 -1.438296
  C 5.335498 0.210740 -2.599133
  O 6.685484 0.217915 -2.726270
  H 4.017288 0.878525 1.464291
  H 4.017291 -0.909898 1.363372
  H 1.222814 -1.000017 2.867315
  H 1.222799 0.798858 2.968821
  H 2.681559 -0.638979 -3.162390
  H 2.681560 1.118436 -3.063230
  H 0.571505 1.048308 -1.737303
  H 0.571505 -0.718444 -1.836993
  H 5.268414 0.094003 -0.530028
  H 4.864156 0.265369 -3.567436
  H 7.095926 0.168649 -1.852975
 23
 95.431806
  H 1.641344 0.061196 0.051246
  C 2.714778 0.067382 -0.058382
  C 3.480770 -0.002915 1.187449
  C 1.713257 -0.113351 3.144433
  H 2.317049 -0.163414 4.031695
  C 3.243164 0.135841 -1.271627
  C 2.404630 0.206422 -2.522528
  C 0.895984 0.194588 -2.312772
  H 0.394192 0.248969 -3.276570
  C 4.681089 0.145993 -1.451521
  C 5.328398 0.211442 -2.611569
  O 6.676515 0.219066 -2.746661
  H 4.043571 0.883322 1.450279
  H 4.043581 -0.913094 1.348913
  H 1.159497 -1.007678 2.925132
  H 1.159491 0.799959 3.027132
  H 2.676713 -0.639199 -3.161110
  H 2.676715 1.118511 -3.061935
  H 0.579054 1.047231 -1.716853
  H 0.579052 -0.719678 -1.816547
  H 5.274322 0.094880 -0.545569
  H 4.850373 0.265880 -3.576464
  H 7.092309 0.169943 -1.875913
 23
 102.613619
  H 1.658797 0.060381 0.065645
  C 2.733841 0.067019 -0.051962
  C 3.516171 -0.003053 1.189981
  C 1.618944 -0.118975 3.244172
  H 2.267129 -0.167084 4.096910
  C 3.249495 0.136609 -1.285309
  C 2.395780 0.206786 -2.529034
  C 0.889333 0.193993 -2.302273
  H 0.376838 0.248056 -3.260463
  C 4.694535 0.147353 -1.475712
  C 5.342510 0.213683 -2.651316
  O 6.693203 0.221892 -2.796748
  H 4.041718 0.886141 1.514222
  H 4.041730 -0.923071 1.412136
  H 1.114534 -1.020663 2.956828
  H 1.114542 0.809268 3.060091
  H 2.661827 -0.638991 -3.170448
  H 2.661841 1.119374 -3.071258
  H 0.578431 1.046866 -1.703471
  H 0.578428 -0.720817 -1.803210
  H 5.286878 0.096147 -0.568096
  H 4.855854 0.267937 -3.612893
  H 7.115686 0.172923 -1.928800
 23
 109.277173
  H 1.684556 0.059711 0.077515
  C 2.757590 0.066980 -0.051290
  C 3.541698 -0.001901 1.169486
  C 1.543353 -0.124787 3.346966
  H 2.202330 -0.172209 4.187419
  C 3.266730 0.137543 -1.301836
  C 2.404567 0.207279 -2.537716
  C 0.900146 0.193821 -2.299143
  H 0.380171 0.247659 -3.253285
  C 4.703457 0.148969 -1.504325
  C 5.325667 0.214255 -2.661391
  O 6.667413 0.223096 -2.818024
  H 4.055082 0.885482 1.501116
  H 4.055088 -0.920947 1.399176
  H 1.048750 -1.025026 3.050632
  H 1.048724 0.803095 3.153783
  H 2.666218 -0.638157 -3.180672
  H 2.666219 1.119666 -3.081482
  H 0.593489 1.046677 -1.697961
  H 0.593483 -0.721255 -1.797711
  H 5.302789 0.098140 -0.603421
  H 4.829650 0.268133 -3.616273
  H 7.096640 0.174383 -1.954661
 23
 113.434474
  H 1.707597 0.059562 0.080314
  C 2.782341 0.067418 -0.058933
  C 3.582310 -0.001381 1.160454
  C 1.456740 -0.129869 3.437168
  H 2.156829 -0.175369 4.243668
  C 3.271284 0.137871 -1.307600
  C 2.397191 0.207067 -2.533972
  C 0.895387 0.192638 -2.278186
  H 0.364063 0.246122 -3.226142
  C 4.707084 0.149798 -1.518949
  C 5.330303 0.215909 -2.690700
  O 6.673225 0.225215 -2.855688
  H 4.042329 0.893446 1.551673
  H 4.042353 -0.934544 1.448525
  H 1.011728 -1.033919 3.079728
  H 1.011730 0.808609 3.183707
  H 2.652682 -0.638755 -3.179476
  H 2.652679 1.120127 -3.080239
  H 0.595162 1.045423 -1.673703
  H 0.595159 -0.722726 -1.773464
  H 5.305701 0.098870 -0.616326
  H 4.828338 0.269643 -3.643136
  H 7.107253 0.176636 -1.994710
 23
 117.100109
  H 1.727155 0.059333 0.084372
  C 2.800155 0.067655 -0.063131
  C 3.604621 -0.000516 1.145106
  C 1.378284 -0.135986 3.545503
  H 2.084580 -0.181137 4.345818
  C 3.279413 0.138277 -1.314815
  C 2.395136 0.207139 -2.535280
  C 0.895249 0.192040 -2.267635
  H 0.356337 0.245283 -3.211315
  C 4.715107 0.150774 -1.536281
  C 5.332083 0.217295 -2.715303
  O 6.675767 0.227122 -2.889499
  H 4.057887 0.893819 1.540464
  H 4.057910 -0.933650 1.437343
  H 0.936728 -1.039749 3.184972
  H 0.936723 0.802566 3.288936
  H 2.645888 -0.638487 -3.182718
  H 2.645890 1.120231 -3.083500
  H 0.599459 1.044693 -1.660794
  H 0.599457 -0.723453 -1.760556
  H 5.319735 0.100058 -0.637397
  H 4.823444 0.270846 -3.664457
  H 7.116359 0.178656 -2.030515
 23
 119.796025
  H 1.744340 0.059074 0.089000
  C 2.816925 0.067859 -0.066735
  C 3.627822 0.000038 1.135293
  C 1.299129 -0.142332 3.657868
  H 2.011558 -0.187135 4.451991
  C 3.286291 0.138686 -1.322064
  C 2.393233 0.207101 -2.534614
  C 0.895937 0.191312 -2.254731
  H 0.349267 0.244301 -3.193898
  C 4.720613 0.151775 -1.554046
  C 5.329426 0.218593 -2.738320
  O 6.671224 0.228961 -2.922098
  H 4.074197 0.894660 1.536194
  H 4.074217 -0.933993 1.432998
  H 0.862017 -1.045787 3.292989
  H 0.862003 0.796419 3.396943
  H 2.639205 -0.638324 -3.183879
  H 2.639208 1.120195 -3.084669
  H 0.604768 1.043855 -1.645482
  H 0.604764 -0.724343 -1.745245
  H 5.331538 0.101266 -0.658811
  H 4.813723 0.271955 -3.684077
  H 7.117467 0.180728 -2.067255
 23
 121.641797
  H 1.761990 0.058529 0.098747
  C 2.833548 0.067849 -0.066505
  C 3.651667 0.000407 1.128795
  C 1.220984 -0.148879 3.773862
  H 1.939817 -0.193367 4.562392
  C 3.291587 0.138905 -1.325896
  C 2.388018 0.206922 -2.531431
  C 0.892821 0.190423 -2.238966
  H 0.338178 0.243149 -3.173500
  C 4.724023 0.152630 -1.569172
  C 5.323628 0.219717 -2.758227
  O 6.664752 0.230683 -2.952617
  H 4.091516 0.895644 1.535238
  H 4.091540 -0.934868 1.431937
  H 0.787848 -1.052635 3.404535
  H 0.787832 0.790675 3.508553
  H 2.628976 -0.638493 -3.182828
  H 2.628977 1.120236 -3.083601
  H 0.606341 1.042862 -1.627309
  H 0.606338 -0.725401 -1.727074
  H 5.341364 0.102377 -0.678467
  H 4.800447 0.272842 -3.699805
  H 7.118469 0.182585 -2.100148
