 23
 0.000000
  H 1.422101 0.147469 0.419742
  C 2.500794 0.142386 0.405914
  C 3.249571 0.612919 1.575327
  H 2.625492 0.942637 2.396379
  C 3.090660 -0.323798 -0.754808
  C 4.467783 -0.414147 -0.981184
  C 5.130879 -0.871266 -2.120293
  C 4.610913 -1.389610 -3.412168
  C 3.117528 -1.501317 -3.692244
  C 2.891559 -2.063596 -5.093650
  O 6.446214 -0.872329 -2.123306
  H 3.905741 1.436086 1.281910
  H 3.906690 -0.183563 1.933089
  H 2.421032 -0.638216 -1.536615
  H 5.104272 -0.087074 -0.167218
  H 5.065139 -2.378787 -3.544268
  H 5.065953 -0.766689 -4.191410
  H 2.645262 -0.519848 -3.637567
  H 2.644446 -2.172314 -2.974424
  H 3.330467 -1.416989 -5.849762
  H 1.827011 -2.144935 -5.297665
  H 3.329710 -3.053887 -5.192877
  H 6.852378 -0.541987 -1.298615
 23
 10.604643
  H 1.535230 0.218215 0.598539
  C 2.603399 0.130192 0.377194
  C 3.463304 0.581285 1.494536
  H 2.845710 0.916105 2.328048
  C 2.904140 -0.360878 -0.843385
  C 4.240991 -0.404929 -0.956964
  C 5.020566 -0.848420 -2.062338
  C 4.582362 -1.376712 -3.378766
  C 3.109609 -1.514569 -3.725110
  C 2.961323 -2.079511 -5.135091
  O 6.327334 -0.808377 -1.964303
  H 4.110517 1.413802 1.197785
  H 4.112743 -0.222886 1.856928
  H 2.161247 -0.653459 -1.568372
  H 4.862054 -0.070624 -0.127256
  H 5.067309 -2.353647 -3.491801
  H 5.068084 -0.749483 -4.135601
  H 2.619459 -0.540530 -3.692151
  H 2.618156 -2.195439 -3.028920
  H 3.424985 -1.424003 -5.868730
  H 1.910357 -2.181594 -5.392495
  H 3.423312 -3.060936 -5.212698
  H 6.678691 -0.471085 -1.121581
 23
 41.494272
  H 1.635294 0.252974 0.693300
  C 2.678268 0.114302 0.342689
  C 3.573895 0.557732 1.431877
  H 2.972599 0.893786 2.273969
  C 2.769250 -0.388424 -0.905368
  C 4.086676 -0.391552 -0.920707
  C 4.971498 -0.842814 -2.046600
  C 4.588625 -1.371618 -3.363291
  C 3.125807 -1.515825 -3.731227
  C 3.000101 -2.080762 -5.141187
  O 6.270492 -0.778658 -1.889537
  H 4.208697 1.395221 1.133650
  H 4.218590 -0.245591 1.795096
  H 1.988217 -0.659836 -1.574289
  H 4.710842 -0.066314 -0.114482
  H 5.081365 -2.341245 -3.463861
  H 5.084633 -0.743141 -4.106077
  H 2.633412 -0.541290 -3.702952
  H 2.629188 -2.198476 -3.038570
  H 3.472925 -1.422842 -5.868805
  H 1.952972 -2.186818 -5.414170
  H 3.467577 -3.061518 -5.211738
  H 6.577380 -0.436576 -1.035680
 23
 82.525600
  H 1.711677 0.258388 0.713018
  C 2.745255 0.098015 0.302055
  C 3.625283 0.550816 1.417311
  H 3.009636 0.881236 2.253241
  C 2.699660 -0.407151 -0.959646
  C 4.007436 -0.368516 -0.867243
  C 4.961896 -0.835973 -2.030985
  C 4.596322 -1.370258 -3.358588
  C 3.128516 -1.518224 -3.737112
  C 3.010388 -2.084321 -5.148938
  O 6.252465 -0.758747 -1.841451
  H 4.254066 1.396966 1.130457
  H 4.266692 -0.249418 1.791121
  H 1.900104 -0.668573 -1.605383
  H 4.689293 -0.062085 -0.110696
  H 5.089790 -2.336339 -3.454958
  H 5.094540 -0.743483 -4.096779
  H 2.633262 -0.543142 -3.711199
  H 2.628663 -2.202555 -3.045563
  H 3.486385 -1.425619 -5.874901
  H 1.964537 -2.192254 -5.427648
  H 3.480188 -3.065022 -5.217020
  H 6.538725 -0.414181 -0.982516
 23
 123.831471
  H 1.751586 0.253135 0.782081
  C 2.782301 0.105966 0.311839
  C 3.661390 0.531024 1.441349
  H 3.056219 0.824314 2.289633
  C 2.623572 -0.359784 -0.988207
  C 3.926450 -0.292063 -0.814741
  C 4.954400 -0.827150 -2.054064
  C 4.609104 -1.380015 -3.374335
  C 3.144606 -1.521800 -3.760523
  C 3.029115 -2.112360 -5.167843
  O 6.233381 -0.746021 -1.828859
  H 4.277395 1.388810 1.171165
  H 4.311713 -0.277535 1.772746
  H 1.800125 -0.608769 -1.612979
  H 4.699104 -0.019494 -0.126641
  H 5.100591 -2.364891 -3.448364
  H 5.123997 -0.759709 -4.126830
  H 2.660981 -0.544444 -3.752934
  H 2.637672 -2.187440 -3.061276
  H 3.515023 -1.471177 -5.900918
  H 1.983454 -2.216289 -5.452350
  H 3.490455 -3.096950 -5.216890
  H 6.491158 -0.380783 -0.953017
 23
 156.912581
  H 1.765606 0.199198 0.841853
  C 2.782592 0.134244 0.364623
  C 3.659178 0.521192 1.538932
  H 3.055233 0.740955 2.405862
  C 2.567892 -0.253240 -1.004001
  C 3.848147 -0.184083 -0.752892
  C 4.995332 -0.829602 -2.123347
  C 4.659836 -1.413609 -3.435295
  C 3.180091 -1.535194 -3.803616
  C 3.026640 -2.158211 -5.194218
  O 6.269655 -0.754001 -1.869577
  H 4.254705 1.407929 1.318965
  H 4.333242 -0.286627 1.809795
  H 1.743030 -0.485437 -1.625977
  H 4.679309 0.067292 -0.140951
  H 5.128079 -2.403780 -3.483723
  H 5.177153 -0.821916 -4.197929
  H 2.723030 -0.545242 -3.808385
  H 2.673270 -2.169358 -3.075204
  H 3.515753 -1.546465 -5.951147
  H 1.974043 -2.245567 -5.460503
  H 3.465791 -3.154990 -5.225487
  H 6.494532 -0.367759 -1.007772
 23
 165.874185
  H 1.658908 0.211251 0.974394
  C 2.687450 0.218304 0.624472
  C 3.512256 0.643438 1.813746
  H 2.861495 0.841199 2.657635
  C 2.559867 -0.184349 -0.889494
  C 3.765319 -0.096462 -0.539083
  C 5.161179 -0.938841 -2.328337
  C 4.768475 -1.523691 -3.634599
  C 3.267896 -1.582009 -3.890096
  C 2.997202 -2.177500 -5.267493
  O 6.461452 -0.884546 -2.184628
  H 4.065360 1.565716 1.617834
  H 4.214637 -0.134666 2.110305
  H 1.752947 -0.427069 -1.537693
  H 4.682643 0.078640 -0.038499
  H 5.227010 -2.512169 -3.759212
  H 5.249662 -0.930261 -4.423600
  H 2.855968 -0.576018 -3.855385
  H 2.810962 -2.234342 -3.147493
  H 3.445303 -1.571325 -6.047782
  H 1.929666 -2.230523 -5.456762
  H 3.397506 -3.183649 -5.341156
  H 6.748512 -0.503377 -1.333977
 23
 166.940188
  H 1.613820 0.201452 1.038977
  C 2.651736 0.248496 0.730591
  C 3.461145 0.696919 1.919222
  H 2.799912 0.874607 2.759028
  C 2.532989 -0.156067 -0.834962
  C 3.700597 -0.053623 -0.404020
  C 5.239306 -0.984085 -2.409812
  C 4.820902 -1.574353 -3.715263
  C 3.311745 -1.612482 -3.931855
  C 2.988347 -2.187080 -5.307526
  O 6.553373 -0.954154 -2.317984
  H 3.988681 1.634620 1.728763
  H 4.185339 -0.060130 2.217032
  H 1.735448 -0.382386 -1.502126
  H 4.644615 0.105889 0.056402
  H 5.272100 -2.562927 -3.860866
  H 5.281389 -0.968908 -4.509193
  H 2.923526 -0.597140 -3.877801
  H 2.865854 -2.259502 -3.178171
  H 3.422834 -1.579831 -6.096658
  H 1.913233 -2.219654 -5.464052
  H 3.366137 -3.201738 -5.403007
  H 6.869899 -0.570110 -1.481207
 23
 152.984801
  H 1.633932 -0.126938 0.932796
  C 2.646787 0.226159 0.825162
  C 3.265001 0.791276 2.061032
  H 2.532518 0.807807 2.855781
  C 2.692155 -0.126177 -0.977302
  C 3.706902 0.025475 -0.233858
  C 5.410580 -1.056987 -2.505033
  C 4.882211 -1.606207 -3.797116
  C 3.363174 -1.591111 -3.888873
  C 2.887266 -2.145486 -5.225963
  O 6.730828 -1.093142 -2.517792
  H 3.623714 1.812805 1.915941
  H 4.124137 0.187417 2.362193
  H 1.941197 -0.338785 -1.693070
  H 4.757926 0.080429 -0.094827
  H 5.270906 -2.617945 -3.957353
  H 5.310732 -1.010381 -4.614676
  H 3.020941 -0.563252 -3.785128
  H 2.959329 -2.205067 -3.085523
  H 3.278119 -1.556864 -6.051118
  H 1.803119 -2.132653 -5.284518
  H 3.217839 -3.173968 -5.356097
  H 7.122956 -0.762536 -1.687293
 23
 135.123848
  H 1.756501 -0.512008 1.051358
  C 2.636326 0.068862 0.839620
  C 3.230216 0.916637 1.920512
  H 2.631134 0.841525 2.824193
  C 2.584115 -0.063016 -0.922581
  C 3.631948 -0.192847 -0.214806
  C 5.524846 -1.181788 -2.509671
  C 4.935209 -1.596508 -3.800430
  C 3.410041 -1.577804 -3.829198
  C 2.883114 -2.040804 -5.182841
  O 6.813687 -1.240021 -2.471781
  H 3.283847 1.970688 1.637451
  H 4.247235 0.593340 2.129467
  H 1.719645 -0.210874 -1.511461
  H 4.697174 -0.178732 -0.255134
  H 5.311112 -2.596286 -4.050795
  H 5.332296 -0.931977 -4.576734
  H 3.065358 -0.562821 -3.633718
  H 3.029509 -2.236990 -3.048805
  H 3.239895 -1.392089 -5.980201
  H 1.796478 -2.028059 -5.197502
  H 3.211391 -3.055257 -5.400025
  H 7.211190 -0.969301 -1.619553
 23
 107.400867
  H 2.263350 -1.054660 0.863672
  C 2.820680 -0.157859 0.609378
  C 2.966695 0.841893 1.737202
  H 2.448178 0.494266 2.626426
  C 2.772912 0.308450 -0.845707
  C 3.880566 -0.243834 -0.445184
  C 5.670485 -1.273219 -2.552963
  C 4.935781 -1.640897 -3.736175
  C 3.411863 -1.529132 -3.662412
  C 2.775587 -1.967439 -4.977065
  O 6.914854 -1.352286 -2.446901
  H 2.548607 1.806717 1.452468
  H 4.012611 1.003407 1.994879
  H 1.940619 0.444468 -1.491106
  H 4.937849 -0.230963 -0.531132
  H 5.223495 -2.665971 -4.011321
  H 5.304913 -0.998486 -4.550378
  H 3.139043 -0.497126 -3.454368
  H 3.038292 -2.152348 -2.851882
  H 3.115161 -1.345580 -5.802151
  H 1.693663 -1.884658 -4.918716
  H 3.019339 -3.002317 -5.204806
  H 7.347726 -1.078557 -1.604396
