 20
 0.000000
  H 1.405224 0.134920 0.386628
  C 2.475139 0.140018 0.399085
  C 3.241227 0.613797 1.578372
  H 2.683154 0.954049 2.425534
  C 3.096863 -0.322475 -0.752613
  C 4.472906 -0.413204 -0.978851
  C 5.132414 -0.867699 -2.111643
  C 4.618673 -1.388937 -3.410716
  C 3.124514 -1.501358 -3.691727
  H 2.956077 -1.894820 -4.672399
  O 6.457488 -0.870547 -2.119086
  H 3.897288 1.429656 1.253616
  H 3.897458 -0.199872 1.908184
  H 2.436796 -0.639606 -1.542199
  H 5.100515 -0.083792 -0.158214
  H 5.068655 -2.379864 -3.541239
  H 5.069011 -0.763340 -4.190016
  H 2.653353 -0.519100 -3.634327
  H 2.652914 -2.171265 -2.971344
  H 6.834017 -0.535875 -1.285013
 20
 0.000000
  H 1.469754 0.115019 0.337033
  C 2.539554 0.122816 0.356223
  C 3.297008 0.598515 1.540305
  H 2.732757 0.937351 2.383936
  C 3.143384 -0.333358 -0.779735
  C 4.450108 -0.417341 -0.989164
  C 5.085283 -0.853225 -2.075586
  C 4.602208 -1.378516 -3.384762
  C 3.115003 -1.503064 -3.695965
  H 2.969664 -1.897800 -4.679820
  O 6.342105 -0.836281 -2.033715
  H 3.953040 1.416030 1.219678
  H 3.953201 -0.213498 1.874245
  H 2.482540 -0.650261 -1.568762
  H 5.075024 -0.087219 -0.166759
  H 5.062789 -2.365740 -3.506069
  H 5.063134 -0.749211 -4.154834
  H 2.634800 -0.524675 -3.648194
  H 2.634374 -2.176845 -2.985224
  H 6.667956 -0.482011 -1.150799
 20
 0.000000
  H 1.534405 0.096802 0.291631
  C 2.604042 0.107288 0.317531
  C 3.352855 0.584880 1.506339
  H 2.782474 0.922288 2.346412
  C 3.191662 -0.344397 -0.807247
  C 4.427718 -0.422349 -1.001647
  C 5.038929 -0.839812 -2.042173
  C 4.587707 -1.369020 -3.361111
  C 3.108408 -1.506006 -3.703283
  H 2.986953 -1.901862 -4.689931
  O 6.225371 -0.804704 -1.955043
  H 4.008828 1.404044 1.189829
  H 4.008981 -0.225485 1.844394
  H 2.529246 -0.660840 -1.595139
  H 5.050369 -0.091632 -0.177764
  H 5.058984 -2.352337 -3.472698
  H 5.059317 -0.735803 -4.121451
  H 2.619122 -0.531682 -3.665627
  H 2.618711 -2.183858 -3.002671
  H 6.494611 -0.428848 -1.018332
 20
 0.000000
  H 1.598524 0.080424 0.250811
  C 2.667953 0.093535 0.283260
  C 3.408299 0.572952 1.476629
  H 2.831958 0.908952 2.313192
  C 3.241243 -0.355596 -0.835158
  C 4.406259 -0.428118 -1.016024
  C 4.994020 -0.827505 -2.011517
  C 4.575374 -1.360416 -3.339685
  C 3.104871 -1.509962 -3.713125
  H 3.007730 -1.906748 -4.702097
  O 6.108929 -0.776213 -1.884062
  H 4.064186 1.393727 1.164136
  H 4.064329 -0.235803 1.818700
  H 2.576580 -0.671381 -1.621421
  H 5.027009 -0.096904 -0.190908
  H 5.057269 -2.339675 -3.441174
  H 5.057587 -0.723137 -4.089915
  H 2.606614 -0.539842 -3.685930
  H 2.606220 -2.192023 -3.022988
  H 6.314752 -0.377351 -0.890012
 20
 0.000000
  H 1.661268 0.066290 0.215580
  C 2.730458 0.081882 0.254219
  C 3.462770 0.563004 1.451852
  H 2.880818 0.897659 2.285064
  C 3.291629 -0.366984 -0.863539
  C 4.386178 -0.434636 -1.032271
  C 4.951220 -0.816484 -1.984067
  C 4.565430 -1.352827 -3.320788
  C 3.104508 -1.514880 -3.725359
  H 3.031777 -1.912390 -4.716144
  O 5.994640 -0.751191 -1.821720
  H 4.118550 1.385301 1.143158
  H 4.118684 -0.244230 1.797719
  H 2.624062 -0.681913 -1.647683
  H 5.005393 -0.103022 -0.206161
  H 5.057713 -2.327932 -3.411939
  H 5.058016 -0.711389 -4.060668
  H 2.597524 -0.549047 -3.708833
  H 2.597148 -2.201234 -3.045905
  H 6.129826 -0.328142 -0.767393
 20
 0.000000
  H 1.722372 0.054947 0.187299
  C 2.791309 0.072797 0.231574
  C 3.516279 0.555455 1.433050
  H 2.929236 0.888873 2.263181
  C 3.342989 -0.378822 -0.893043
  C 4.367633 -0.442109 -1.050896
  C 4.910639 -0.806933 -1.960276
  C 4.557990 -1.346434 -3.304870
  C 3.107439 -1.520939 -3.740436
  H 3.059218 -1.918966 -4.732517
  O 5.882967 -0.729751 -1.768304
  H 4.171939 1.379137 1.127816
  H 4.172063 -0.250396 1.782373
  H 2.671751 -0.692662 -1.674487
  H 4.985705 -0.110198 -0.224051
  H 5.060427 -2.317285 -3.385438
  H 5.060713 -0.700737 -4.034156
  H 2.591973 -0.559478 -3.734788
  H 2.591616 -2.211670 -3.071873
  H 5.938910 -0.280839 -0.649522
 20
 0.000000
  H 1.781017 0.047160 0.167871
  C 2.849711 0.066929 0.216945
  C 3.568412 0.550880 1.421662
  H 2.977051 0.883237 2.249150
  C 3.395136 -0.391374 -0.924325
  C 4.350998 -0.450754 -1.072442
  C 4.872752 -0.799146 -1.940882
  C 4.553279 -1.341509 -3.292608
  C 3.113813 -1.528318 -3.758802
  H 3.090016 -1.926652 -4.751653
  O 5.775298 -0.712185 -1.724540
  H 4.223955 1.375741 1.119373
  H 4.224069 -0.253793 1.773926
  H 2.719399 -0.703867 -1.702426
  H 4.968325 -0.118649 -0.245118
  H 5.065562 -2.308040 -3.362429
  H 5.065830 -0.691487 -4.011136
  H 2.590172 -0.571281 -3.764160
  H 2.589836 -2.223478 -3.101257
  H 5.742291 -0.235291 -0.536023
 20
 0.000000
  H 1.836138 0.043828 0.159543
  C 2.904631 0.065045 0.212237
  C 3.618591 0.549962 1.419383
  H 3.023980 0.881513 2.244863
  C 3.447720 -0.404947 -0.958151
  C 4.336727 -0.460825 -1.097542
  C 4.838167 -0.793468 -1.926740
  C 4.551565 -1.338373 -3.284804
  C 3.123765 -1.537219 -3.780954
  H 3.124059 -1.935649 -4.774056
  O 5.673396 -0.698783 -1.691148
  H 4.274036 1.375712 1.119318
  H 4.274140 -0.253825 1.773865
  H 2.766650 -0.715823 -1.732240
  H 4.953668 -0.128620 -0.269971
  H 5.073293 -2.300563 -3.343829
  H 5.073541 -0.684007 -3.992526
  H 2.592331 -0.584610 -3.797330
  H 2.592018 -2.236812 -3.134439
  H 5.540734 -0.191246 -0.426272
 20
 0.000000
  H 1.886919 0.045953 0.164805
  C 2.955292 0.067996 0.219572
  C 3.666532 0.553459 1.428104
  H 3.070064 0.884545 2.252430
  C 3.500583 -0.419965 -0.995576
  C 4.325176 -0.472671 -1.127062
  C 4.807253 -0.790220 -1.918652
  C 4.553013 -1.337347 -3.282257
  C 3.137355 -1.547893 -3.807523
  H 3.161263 -1.946222 -4.800380
  O 5.578507 -0.689698 -1.668511
  H 4.321920 1.379717 1.129315
  H 4.322013 -0.249823 1.783854
  H 2.813349 -0.728947 -1.764963
  H 4.942014 -0.140437 -0.299425
  H 5.083742 -2.295206 -3.330508
  H 5.083969 -0.678646 -3.979195
  H 2.598547 -0.599689 -3.834854
  H 2.598256 -2.251895 -3.171974
  H 5.333913 -0.147986 -0.318480
 20
 0.000000
  H 1.931709 0.053911 0.184595
  C 3.000066 0.076055 0.239632
  C 3.710955 0.561580 1.448346
  H 3.114247 0.892606 2.272523
  C 3.552074 -0.436301 -1.036281
  C 4.316813 -0.486127 -1.160592
  C 4.780963 -0.789523 -1.916920
  C 4.557622 -1.338517 -3.285180
  C 3.154154 -1.560098 -3.837904
  H 3.200513 -1.958149 -4.830078
  O 5.493949 -0.684892 -1.656532
  H 4.366340 1.387902 1.149726
  H 4.366423 -0.241640 1.804258
  H 2.858204 -0.743212 -1.800526
  H 4.933624 -0.153885 -0.332939
  H 5.096673 -2.292188 -3.323014
  H 5.096879 -0.675624 -3.971693
  H 2.608573 -0.616139 -3.875794
  H 2.608306 -2.268349 -3.212924
  H 5.127398 -0.105940 -0.213715
 20
 0.000000
  H 1.970214 0.067806 0.219176
  C 3.038665 0.089310 0.272637
  C 3.751628 0.574403 1.480303
  H 3.156335 0.905782 2.305361
  C 3.601618 -0.454023 -1.080442
  C 4.311477 -0.501167 -1.198069
  C 4.759129 -0.791245 -1.921211
  C 4.565129 -1.341781 -3.293319
  C 3.173773 -1.573719 -3.871812
  H 3.241366 -1.971345 -4.862936
  O 5.420156 -0.683844 -1.653918
  H 4.407065 1.400335 1.180719
  H 4.407140 -0.229211 1.835243
  H 2.900926 -0.758770 -1.839311
  H 4.928087 -0.168871 -0.370286
  H 5.111839 -2.291428 -3.321145
  H 5.112024 -0.674862 -3.969816
  H 2.622002 -0.633827 -3.919818
  H 2.621759 -2.286041 -3.256956
  H 4.922086 -0.064360 -0.110119
 20
 0.000000
  H 2.002782 0.086898 0.266703
  C 3.071413 0.107109 0.316960
  C 3.788580 0.591332 1.522484
  H 3.196165 0.923424 2.349325
  C 3.648506 -0.472780 -1.127179
  C 4.308687 -0.517341 -1.238369
  C 4.741229 -0.794806 -1.930085
  C 4.575026 -1.346599 -3.305328
  C 3.195623 -1.588240 -3.907959
  H 3.283258 -1.985319 -4.897729
  O 5.356883 -0.685591 -1.658265
  H 4.444115 1.416472 1.220939
  H 4.444181 -0.213077 1.875455
  H 2.941221 -0.775400 -1.880763
  H 4.924613 -0.184868 -0.410148
  H 5.128774 -2.292392 -3.323567
  H 5.128938 -0.675823 -3.972232
  H 2.638204 -0.652232 -3.965627
  H 2.637985 -2.304449 -3.302774
  H 4.719690 -0.022983 -0.007038
 20
 0.000000
  H 2.013264 0.092116 0.279693
  C 3.081878 0.112449 0.330259
  C 3.798641 0.596753 1.535991
  H 3.205949 0.928778 2.362661
  C 3.665148 -0.477215 -1.138229
  C 4.313714 -0.520776 -1.246926
  C 4.743777 -0.794897 -1.930307
  C 4.586729 -1.347062 -3.306476
  C 3.211362 -1.591874 -3.917001
  H 3.305582 -1.988743 -4.906249
  O 5.348434 -0.684973 -1.656721
  H 4.454169 1.421969 1.234637
  H 4.454232 -0.207581 1.889151
  H 2.957410 -0.779687 -1.891448
  H 4.928016 -0.187887 -0.417669
  H 5.142749 -2.291576 -3.321536
  H 5.142908 -0.675007 -3.970199
  H 2.652129 -0.657152 -3.977868
  H 2.651916 -2.309370 -3.315016
  H 4.672017 -0.011452 0.021687
 20
 0.000000
  H 2.058736 0.132812 0.381019
  C 3.127801 0.149511 0.422560
  C 3.856362 0.631349 1.622191
  H 3.271804 0.965366 2.453834
  C 3.735502 -0.510904 -1.222173
  C 4.303757 -0.549490 -1.318472
  C 4.708033 -0.801024 -1.945570
  C 4.599739 -1.354801 -3.325764
  C 3.246721 -1.616312 -3.977836
  H 3.375872 -2.011805 -4.963670
  O 5.244038 -0.689613 -1.668269
  H 4.512122 1.454339 1.315307
  H 4.512174 -0.175216 1.969807
  H 3.017789 -0.810085 -1.967217
  H 4.914205 -0.215616 -0.486768
  H 5.167474 -2.292433 -3.323708
  H 5.167595 -0.675859 -3.972361
  H 2.678207 -0.688497 -4.055879
  H 2.678035 -2.340720 -3.393040
  H 4.300566 0.060163 0.200077
