 29
 0.000000
  C 0.970375 0.139363 0.397945
  C 2.446652 0.138587 0.395740
  C 3.232849 0.607520 1.562770
  C 2.457705 1.097559 2.782608
  C 3.410426 1.541702 3.888087
  C 3.063783 -0.325538 -0.759821
  C 4.441114 -0.409914 -0.970366
  C 5.117841 -0.861259 -2.095635
  C 4.622739 -1.383861 -3.398376
  C 3.133331 -1.502093 -3.693356
  H 2.980223 -1.900087 -4.685546
  O 6.440260 -0.857327 -2.086245
  H 0.535881 0.509485 1.319205
  H 0.599422 -0.872605 0.230580
  H 0.599203 0.754148 -0.423012
  H 3.889196 1.418936 1.228649
  H 3.889311 -0.209422 1.882872
  H 1.820149 0.301016 3.170811
  H 1.820105 1.941257 2.511874
  H 4.046232 0.719587 4.209673
  H 2.847882 1.888524 4.751504
  H 4.046168 2.357844 3.551505
  H 2.410141 -0.643935 -1.552780
  H 5.059470 -0.078311 -0.144403
  H 5.079217 -2.372205 -3.523319
  H 5.079350 -0.755985 -4.171764
  H 2.656490 -0.524643 -3.643431
  H 2.656358 -2.174000 -2.981792
  H 6.816606 -0.522627 -1.250830
 29
 -0.221947
  C 0.961890 -0.065732 0.482359
  C 2.431932 0.014842 0.437634
  C 3.220390 0.591543 1.554032
  C 2.453170 1.124373 2.761008
  C 3.420995 1.682578 3.804210
  C 3.049996 -0.466421 -0.713022
  C 4.427742 -0.518749 -0.920197
  C 5.117003 -0.946621 -2.051572
  C 4.625153 -1.287553 -3.415964
  C 3.139651 -1.223039 -3.754640
  H 3.023150 -1.426964 -4.813633
  O 6.427375 -1.067776 -1.995569
  H 0.540874 0.304448 1.404592
  H 0.643883 -1.096448 0.333670
  H 0.536136 0.494785 -0.349647
  H 3.838496 1.403968 1.156640
  H 3.923859 -0.170949 1.908473
  H 1.866619 0.324172 3.221319
  H 1.771150 1.921468 2.453896
  H 4.101902 0.910797 4.156975
  H 2.874056 2.063832 4.662430
  H 4.009706 2.499388 3.392403
  H 2.398267 -0.852263 -1.476360
  H 5.057437 -0.217603 -0.090366
  H 5.009352 -2.293809 -3.641607
  H 5.175130 -0.621606 -4.095111
  H 2.728950 -0.236462 -3.561850
  H 2.573216 -1.976672 -3.217496
  H 6.823350 -0.846464 -1.131047
 29
 0.459437
  C 0.991612 -0.367634 0.597891
  C 2.449152 -0.162445 0.490310
  C 3.215125 0.583275 1.515538
  C 2.439332 1.160528 2.695319
  C 3.380569 1.901659 3.640580
  C 3.076668 -0.669955 -0.641641
  C 4.451410 -0.682913 -0.864763
  C 5.114741 -1.087468 -2.019630
  C 4.612752 -1.151748 -3.420053
  C 3.157143 -0.843125 -3.729989
  H 3.037600 -0.803104 -4.809024
  O 6.395134 -1.392986 -1.966636
  H 0.577111 -0.008936 1.531376
  H 0.754181 -1.425661 0.480510
  H 0.487282 0.140840 -0.226264
  H 3.747446 1.401973 1.020580
  H 3.994334 -0.077378 1.911298
  H 1.945363 0.361758 3.251178
  H 1.678089 1.857565 2.341320
  H 4.135111 1.230083 4.045322
  H 2.824848 2.323286 4.475115
  H 3.885264 2.717408 3.127130
  H 2.443627 -1.153929 -1.366971
  H 5.091462 -0.414915 -0.032294
  H 4.876451 -2.136996 -3.817073
  H 5.249521 -0.449856 -3.972079
  H 2.859165 0.118791 -3.323661
  H 2.493667 -1.619884 -3.362885
  H 6.796958 -1.321240 -1.080592
 29
 3.391355
  C 1.077631 -0.749078 0.767076
  C 2.477386 -0.345408 0.540431
  C 3.187208 0.593510 1.443799
  C 2.404175 1.164969 2.622664
  C 3.279760 2.114020 3.435150
  C 3.112772 -0.846452 -0.587551
  C 4.477785 -0.789280 -0.849867
  C 5.084974 -1.236952 -2.026790
  C 4.601860 -1.012739 -3.416290
  C 3.243169 -0.363780 -3.627754
  H 3.113858 -0.167321 -4.689070
  O 6.263526 -1.815692 -2.002298
  H 0.683221 -0.399451 1.713451
  H 0.989218 -1.834534 0.715273
  H 0.447040 -0.357340 -0.037256
  H 3.566666 1.427724 0.842541
  H 4.077581 0.089513 1.837273
  H 2.062823 0.360521 3.276362
  H 1.531975 1.712738 2.264502
  H 4.140424 1.591681 3.849395
  H 2.712331 2.538937 4.264450
  H 3.639604 2.934655 2.818798
  H 2.513408 -1.417363 -1.281367
  H 5.142381 -0.504947 -0.043184
  H 4.660912 -1.958281 -3.964587
  H 5.374717 -0.375864 -3.864490
  H 3.169583 0.582470 -3.095921
  H 2.429490 -1.011200 -3.317759
  H 6.668738 -1.890138 -1.117335
 29
 8.749835
  C 1.193970 -1.046877 0.894742
  C 2.538815 -0.521233 0.593936
  C 3.153472 0.582635 1.370809
  C 2.380257 1.105108 2.580271
  C 3.125901 2.268687 3.230370
  C 3.178883 -1.000502 -0.540933
  C 4.524968 -0.886964 -0.836182
  C 5.055288 -1.314801 -2.068517
  C 4.603717 -0.827519 -3.397715
  C 3.336861 0.010132 -3.440151
  H 3.167605 0.342054 -4.460067
  O 6.090969 -2.112340 -2.128688
  H 0.826764 -0.733648 1.866435
  H 1.198442 -2.134909 0.845756
  H 0.484902 -0.710425 0.132222
  H 3.334067 1.415451 0.687361
  H 4.144291 0.262459 1.708008
  H 2.255940 0.309960 3.323027
  H 1.392108 1.448874 2.273789
  H 4.092674 1.949878 3.602712
  H 2.559024 2.661807 4.065917
  H 3.280929 3.075333 2.520993
  H 2.604525 -1.597178 -1.237377
  H 5.219548 -0.554339 -0.076306
  H 4.531540 -1.671863 -4.088997
  H 5.447350 -0.225841 -3.760907
  H 3.426094 0.888865 -2.807654
  H 2.469504 -0.555980 -3.131274
  H 6.470446 -2.371932 -1.265232
 29
 17.981257
  C 1.419321 -1.398922 1.077550
  C 2.603850 -0.638175 0.626196
  C 3.081971 0.589779 1.303504
  C 2.299558 1.059214 2.525366
  C 2.886200 2.358641 3.067004
  C 3.272064 -1.073810 -0.511617
  C 4.598508 -0.897762 -0.852478
  C 4.957768 -1.369013 -2.145975
  C 4.577796 -0.665218 -3.396922
  C 3.517215 0.415936 -3.263953
  H 3.287126 0.816757 -4.246506
  O 5.763165 -2.380008 -2.319326
  H 1.121300 -1.137129 2.086728
  H 1.614051 -2.467528 1.028085
  H 0.571926 -1.206766 0.410039
  H 3.091097 1.396658 0.563922
  H 4.134119 0.447366 1.591763
  H 2.335112 0.301672 3.314660
  H 1.256833 1.231088 2.259500
  H 3.907988 2.213675 3.395390
  H 2.306766 2.711422 3.917473
  H 2.878159 3.136373 2.304737
  H 2.744748 -1.671644 -1.253239
  H 5.352832 -0.594495 -0.144153
  H 4.289147 -1.397898 -4.158746
  H 5.518626 -0.216337 -3.745936
  H 3.869240 1.230333 -2.638301
  H 2.599096 0.024917 -2.838128
  H 6.178366 -2.738102 -1.510167
 29
 30.328393
  C 1.568860 -1.547689 1.122844
  C 2.669608 -0.683764 0.640396
  C 3.055614 0.591500 1.291434
  C 2.194611 1.068736 2.452617
  C 2.792022 2.328663 3.077023
  C 3.394605 -1.088080 -0.475928
  C 4.699164 -0.826971 -0.864277
  C 4.852021 -1.365113 -2.180068
  C 4.516940 -0.585046 -3.393180
  C 3.514060 0.549641 -3.201582
  H 3.384548 1.081939 -4.139696
  O 5.542120 -2.443058 -2.412565
  H 1.125941 -1.178088 2.034859
  H 1.933369 -2.560021 1.292877
  H 0.781641 -1.619508 0.366383
  H 3.098495 1.372027 0.525695
  H 4.078217 0.483387 1.660598
  H 2.138576 0.300479 3.226751
  H 1.180390 1.289942 2.106429
  H 3.792437 2.136687 3.468130
  H 2.170406 2.674376 3.893878
  H 2.856052 3.129098 2.348678
  H 2.933058 -1.708686 -1.261717
  H 5.507678 -0.507303 -0.233345
  H 4.226746 -1.250115 -4.215621
  H 5.487207 -0.160607 -3.680532
  H 3.863644 1.260252 -2.452236
  H 2.550476 0.169602 -2.896808
  H 6.068848 -2.790788 -1.661426
 29
 47.803810
  C 1.798590 -1.680573 1.153086
  C 2.869240 -0.750494 0.732053
  C 3.089226 0.592775 1.347002
  C 2.158424 0.976412 2.495257
  C 2.434323 2.410153 2.949253
  C 3.631701 -1.063287 -0.391463
  C 4.887582 -0.885316 -0.886338
  C 4.616454 -1.462089 -2.205514
  C 4.423826 -0.578974 -3.384703
  C 3.864156 0.799886 -3.059426
  H 3.806045 1.392504 -3.969949
  O 4.896629 -2.695279 -2.489635
  H 1.368814 -1.396461 2.106933
  H 2.191618 -2.693842 1.227340
  H 0.994232 -1.711017 0.415746
  H 3.000555 1.350922 0.558177
  H 4.126830 0.649739 1.694190
  H 2.313006 0.302790 3.346806
  H 1.114554 0.899567 2.173191
  H 3.452390 2.508231 3.312214
  H 1.757672 2.690516 3.757787
  H 2.292357 3.115366 2.126784
  H 3.086613 -1.514121 -1.305705
  H 5.813253 -0.592146 -0.439547
  H 3.789972 -1.089211 -4.119193
  H 5.422334 -0.484631 -3.826553
  H 4.500815 1.322446 -2.351177
  H 2.860576 0.727026 -2.639604
  H 5.355903 -3.210226 -1.791422
 29
 58.771292
  C 1.955627 -1.701891 1.124800
  C 3.014558 -0.737730 0.753804
  C 3.122936 0.637590 1.331717
  C 2.075195 1.014606 2.374258
  C 2.305008 2.443500 2.857007
  C 3.876028 -1.025480 -0.265446
  C 5.049271 -1.015690 -0.881593
  C 4.464120 -1.504125 -2.170291
  C 4.275673 -0.517504 -3.304691
  C 3.885847 0.879420 -2.843720
  H 3.775820 1.526148 -3.708954
  O 4.671389 -2.764811 -2.569637
  H 1.408748 -1.381750 2.002899
  H 2.387268 -2.684630 1.313025
  H 1.245010 -1.823983 0.305615
  H 3.089040 1.365882 0.514732
  H 4.119388 0.742006 1.775361
  H 2.135720 0.343238 3.232250
  H 1.074246 0.943284 1.946068
  H 3.272008 2.537894 3.345620
  H 1.536727 2.728026 3.571621
  H 2.269859 3.145491 2.026762
  H 3.315612 -1.491290 -1.478818
  H 6.062144 -0.935596 -0.546019
  H 3.536577 -0.916932 -4.000265
  H 5.234707 -0.482967 -3.830655
  H 4.646978 1.304142 -2.195052
  H 2.937221 0.864361 -2.312925
  H 5.197112 -3.303808 -1.953072
 29
 54.648084
  C 1.981676 -1.657075 1.140657
  C 3.034094 -0.682201 0.773829
  C 3.121246 0.693710 1.360201
  C 2.059939 1.056031 2.392805
  C 2.293529 2.470657 2.903913
  C 3.919091 -0.966349 -0.204288
  C 5.022786 -1.032039 -0.900385
  C 4.432192 -1.552128 -2.186685
  C 4.277676 -0.550818 -3.332203
  C 3.820132 0.825005 -2.878200
  H 3.731897 1.475987 -3.741613
  O 4.758133 -2.807071 -2.592738
  H 1.397987 -1.323052 1.988213
  H 2.427305 -2.624905 1.371836
  H 1.306757 -1.818080 0.299280
  H 3.093220 1.424151 0.544047
  H 4.111217 0.803339 1.816592
  H 2.100563 0.369774 3.238312
  H 1.066170 1.002346 1.946026
  H 3.259531 2.553372 3.392155
  H 1.528117 2.739928 3.624037
  H 2.258058 3.189049 2.090351
  H 3.340737 -1.602138 -1.651469
  H 6.052792 -0.977492 -0.603011
  H 3.584316 -0.968914 -4.063141
  H 5.257825 -0.480229 -3.813087
  H 4.533311 1.267436 -2.189561
  H 2.847854 0.772591 -2.396419
  H 5.298518 -3.299338 -1.953198
 29
 45.120927
  C 2.038092 -1.661298 1.212891
  C 3.084060 -0.685862 0.840850
  C 3.114083 0.712793 1.366010
  C 2.048851 1.073128 2.392596
  C 2.245219 2.514654 2.854683
  C 3.985462 -0.985325 -0.098396
  C 4.971819 -1.163654 -0.920171
  C 4.317497 -1.603859 -2.219503
  C 4.319541 -0.516136 -3.308536
  C 3.848601 0.839035 -2.815089
  H 3.885868 1.550424 -3.635365
  O 4.668774 -2.846154 -2.705031
  H 1.434453 -1.311741 2.043353
  H 2.492855 -2.619804 1.470078
  H 1.380873 -1.850229 0.362118
  H 3.049552 1.398313 0.514897
  H 4.099713 0.888616 1.808942
  H 2.120216 0.419372 3.263675
  H 1.056992 0.979311 1.951119
  H 3.221876 2.649947 3.310956
  H 1.489325 2.778175 3.590048
  H 2.156706 3.207580 2.019585
  H 3.255369 -1.656973 -1.826335
  H 6.030331 -1.124550 -0.733735
  H 3.697392 -0.871532 -4.127399
  H 5.345238 -0.441969 -3.679490
  H 4.484948 1.208351 -2.015321
  H 2.821436 0.786988 -2.460979
  H 5.184380 -3.367892 -2.076315
 29
 38.817564
  C 2.075865 -1.679110 1.370491
  C 3.052457 -0.682727 0.881383
  C 3.093546 0.723330 1.377847
  C 2.050020 1.114563 2.414314
  C 2.208541 2.584438 2.792433
  C 3.917067 -1.016881 -0.081976
  C 4.825699 -1.282232 -0.964148
  C 4.241782 -1.631691 -2.318954
  C 4.407268 -0.462402 -3.315423
  C 3.904140 0.869341 -2.787582
  H 4.011321 1.622533 -3.563855
  O 4.703963 -2.817615 -2.876481
  H 1.526675 -1.322000 2.232943
  H 2.589147 -2.608968 1.617623
  H 1.364133 -1.928756 0.582169
  H 3.013970 1.384071 0.506814
  H 4.090473 0.919228 1.789963
  H 2.161520 0.513001 3.318139
  H 1.047210 0.955922 2.014332
  H 3.175454 2.768951 3.254551
  H 1.437418 2.872534 3.502284
  H 2.118106 3.224616 1.918175
  H 3.158815 -1.724172 -2.098318
  H 5.880895 -1.397185 -0.769972
  H 3.858826 -0.751873 -4.212223
  H 5.466469 -0.394960 -3.572084
  H 4.475516 1.191812 -1.922051
  H 2.851500 0.807928 -2.522509
  H 5.183470 -3.365449 -2.240291
 29
 36.090361
  C 1.991358 -1.596504 1.339452
  C 2.996129 -0.626636 0.858270
  C 3.088717 0.765957 1.373365
  C 2.068730 1.184086 2.421690
  C 2.289039 2.639171 2.824955
  C 3.860085 -0.999907 -0.097396
  C 4.744698 -1.376967 -0.951917
  C 4.318926 -1.698224 -2.376911
  C 4.489582 -0.443550 -3.257879
  C 3.720180 0.771929 -2.771555
  H 3.838186 1.578931 -3.490161
  O 5.029619 -2.750627 -2.956045
  H 1.440433 -1.224355 2.194385
  H 2.479832 -2.538894 1.589996
  H 1.283886 -1.833750 0.542875
  H 3.026243 1.440187 0.510422
  H 4.096428 0.925500 1.776279
  H 2.157903 0.562686 3.314726
  H 1.058186 1.073882 2.024471
  H 3.267943 2.777777 3.277877
  H 1.538955 2.943596 3.550362
  H 2.212451 3.299222 1.964244
  H 3.249127 -1.948055 -2.318000
  H 5.784661 -1.535680 -0.700149
  H 4.134227 -0.742504 -4.246175
  H 5.554539 -0.221269 -3.338739
  H 4.096804 1.118163 -1.813975
  H 2.659493 0.550248 -2.684783
  H 5.412679 -3.339772 -2.293432
 29
 34.362923
  C 1.900114 -1.474820 1.301840
  C 2.959514 -0.554570 0.848272
  C 3.119730 0.821412 1.378093
  C 2.110733 1.288460 2.416600
  C 2.411283 2.720847 2.847630
  C 3.815406 -0.978205 -0.094666
  C 4.662621 -1.467316 -0.923022
  C 4.362129 -1.756033 -2.399961
  C 4.545843 -0.468634 -3.214091
  C 3.611419 0.658153 -2.809326
  H 3.761778 1.507712 -3.470012
  O 5.193029 -2.735344 -2.940961
  H 1.344929 -1.079802 2.143592
  H 2.333709 -2.442121 1.559009
  H 1.204944 -1.675864 0.484254
  H 3.112424 1.512029 0.525497
  H 4.130224 0.917932 1.795474
  H 2.145773 0.648158 3.300085
  H 1.101963 1.247077 2.001744
  H 3.388660 2.792071 3.319193
  H 1.668619 3.060419 3.565006
  H 2.390670 3.397831 1.996797
  H 3.310595 -2.075858 -2.447118
  H 5.668535 -1.730232 -0.619091
  H 4.351410 -0.754646 -4.251020
  H 5.588950 -0.155932 -3.152392
  H 3.810741 0.984234 -1.793061
  H 2.572896 0.346662 -2.887851
  H 5.362551 -3.450038 -2.311211
 29
 32.868293
  C 1.750661 -1.369672 1.209002
  C 2.903957 -0.535297 0.818895
  C 3.157625 0.816999 1.387767
  C 2.158368 1.330616 2.415295
  C 2.575545 2.711040 2.914505
  C 3.755897 -0.989747 -0.115900
  C 4.674779 -1.449492 -0.881669
  C 4.526378 -1.752465 -2.379184
  C 4.542934 -0.424751 -3.150312
  C 3.343275 0.458382 -2.863878
  H 3.406778 1.361910 -3.464287
  O 5.550034 -2.554570 -2.867204
  H 1.193857 -0.943791 2.034121
  H 2.092328 -2.372507 1.469352
  H 1.080402 -1.500429 0.357714
  H 3.224427 1.526927 0.555057
  H 4.159056 0.822149 1.834939
  H 2.107169 0.655941 3.271465
  H 1.164933 1.400159 1.969013
  H 3.534659 2.669646 3.425333
  H 1.838403 3.094726 3.615235
  H 2.655259 3.416913 2.091071
  H 3.550648 -2.239720 -2.498355
  H 5.649797 -1.712731 -0.487131
  H 4.545750 -0.704465 -4.206928
  H 5.481538 0.092036 -2.948030
  H 3.307439 0.750364 -1.818240
  H 2.418406 -0.053311 -3.118121
  H 5.590892 -3.401281 -2.400226
