 15
 0.000000
  C 0.887372 0.048115 0.231771
  C 2.383958 0.055167 0.112549
  C 3.250720 -0.013254 1.356166
  C 2.537685 -0.091175 2.701049
  H 3.277786 -0.135171 3.497206
  C 2.990770 0.125282 -1.065205
  H 2.489710 0.188377 -2.015148
  H 4.068575 0.132480 -1.116946
  H 0.561397 0.012430 1.265490
  H 0.456867 -0.815363 -0.272617
  H 0.467365 0.947318 -0.217103
  H 3.900045 0.867092 1.362859
  H 3.903923 -0.886028 1.263879
  H 1.916664 -0.982055 2.767785
  H 1.913523 0.784107 2.868848
 15
 -0.584184
  C 0.907299 0.036021 0.228565
  C 2.407356 0.036661 0.129007
  C 3.264898 -0.010999 1.375245
  C 2.531284 -0.049843 2.710256
  H 3.257575 -0.054775 3.521090
  C 2.986252 0.086105 -1.060880
  H 2.409507 0.128675 -1.970036
  H 4.055445 0.080785 -1.192592
  H 0.560034 -0.292578 1.201540
  H 0.490728 -0.628076 -0.526956
  H 0.518263 1.037877 0.048230
  H 3.918330 0.866598 1.365113
  H 3.915885 -0.887532 1.307215
  H 1.923984 -0.947638 2.802609
  H 1.894016 0.822938 2.833102
 15
 -0.990697
  C 0.919541 0.027683 0.234465
  C 2.418418 0.025645 0.132240
  C 3.271492 -0.002062 1.379005
  C 2.515978 -0.001702 2.702533
  H 3.225368 0.014801 3.527603
  C 2.976127 0.035401 -1.067842
  H 2.381020 0.102321 -1.964206
  H 4.038932 0.002365 -1.242479
  H 0.572274 -0.581579 1.063514
  H 0.522497 -0.388649 -0.688938
  H 0.542009 1.040036 0.368958
  H 3.930852 0.870741 1.353353
  H 3.916100 -0.884963 1.339028
  H 1.904082 -0.894620 2.807947
  H 1.876343 0.873561 2.786589
 15
 0.035924
  C 0.928582 0.025403 0.240852
  C 2.425490 0.011540 0.136588
  C 3.278522 0.004291 1.381661
  C 2.507866 0.049554 2.695484
  H 3.204911 0.071720 3.530500
  C 2.961903 -0.034594 -1.073904
  H 2.382137 0.167643 -1.958244
  H 4.013890 -0.147086 -1.259968
  H 0.585550 -0.806489 0.854634
  H 0.561702 -0.142273 -0.768600
  H 0.545189 0.948325 0.664436
  H 3.950383 0.865855 1.333983
  H 3.911240 -0.888721 1.371629
  H 1.874846 -0.827151 2.808703
  H 1.883481 0.937932 2.750660
 15
 7.271106
  C 0.925673 0.073917 0.236929
  C 2.423807 -0.003504 0.143990
  C 3.281201 0.035110 1.382039
  C 2.515083 0.061080 2.700953
  H 3.214022 0.095329 3.536460
  C 2.931871 -0.150275 -1.074623
  H 2.456185 0.292598 -1.928146
  H 3.955768 -0.442661 -1.267705
  H 0.563613 -0.877484 0.629174
  H 0.582112 0.060440 -0.796491
  H 0.528122 0.880219 0.844766
  H 3.921581 0.923047 1.316411
  H 3.951067 -0.829359 1.378262
  H 1.896731 -0.826353 2.810378
  H 1.872467 0.940198 2.759509
 15
 26.378023
  C 0.919901 0.045121 0.241563
  C 2.419208 -0.018037 0.188115
  C 3.305622 -0.029279 1.401104
  C 2.541566 0.140639 2.713631
  H 3.231786 0.112136 3.555141
  C 2.841735 -0.138953 -1.076756
  H 2.529018 0.554493 -1.830082
  H 3.814279 -0.551628 -1.332792
  H 0.534168 -0.979722 0.369568
  H 0.746568 0.082882 -0.842891
  H 0.412172 0.686179 0.950035
  H 3.978537 0.828494 1.277737
  H 3.918807 -0.940874 1.428393
  H 1.817814 -0.659952 2.841593
  H 2.019756 1.099637 2.739395
 15
 51.988337
  C 0.903754 0.076962 0.215150
  C 2.394348 -0.024248 0.218599
  C 3.297454 0.070935 1.411645
  C 2.565230 0.105480 2.757918
  H 3.280035 0.099976 3.579474
  C 2.781056 -0.165192 -1.078829
  H 2.556383 0.590269 -1.808785
  H 3.669206 -0.732403 -1.360068
  H 0.378340 -0.878255 0.283507
  H 0.958965 -0.039223 -0.932496
  H 0.468567 0.817073 0.870780
  H 3.985741 0.916059 1.312995
  H 3.940197 -0.829478 1.390856
  H 1.918048 -0.771077 2.865682
  H 1.953274 0.996023 2.840952
 15
 75.686320
  C 0.920345 0.068210 0.268372
  C 2.332875 0.000234 0.268793
  C 3.281337 0.050665 1.421106
  C 2.594681 0.137675 2.778102
  H 3.332845 0.137519 3.577158
  C 2.678323 -0.181019 -1.092387
  H 2.613220 0.680020 -1.746051
  H 3.540218 -0.795987 -1.362035
  H 0.370542 -0.849796 0.118463
  H 1.222898 -0.110832 -1.148336
  H 0.392460 0.714168 0.973103
  H 3.964738 0.898922 1.300395
  H 3.900355 -0.852666 1.375593
  H 1.927356 -0.710136 2.921256
  H 2.010798 1.052675 2.853361
 15
 55.455068
  C 0.917051 0.082686 0.347923
  C 2.271999 0.048029 0.289743
  C 3.252645 0.096422 1.411137
  C 2.602908 0.131489 2.789281
  H 3.367056 0.122947 3.564184
  C 2.632874 -0.193399 -1.122684
  H 2.655046 0.685321 -1.779076
  H 3.468061 -0.848013 -1.324118
  H 0.312617 -0.761911 0.070149
  H 1.493281 -0.266280 -1.318686
  H 0.393100 0.718676 1.059990
  H 3.941575 0.942743 1.305465
  H 3.849163 -0.817676 1.307641
  H 1.955209 -0.730232 2.930012
  H 2.016669 1.037850 2.910954
 15
 30.289199
  C 0.865973 0.046032 0.385227
  C 2.203369 -0.046776 0.296591
  C 3.231706 0.008854 1.395048
  C 2.640342 0.208957 2.790237
  H 3.428075 0.203032 3.541995
  C 2.608516 -0.183178 -1.140943
  H 2.788126 0.823560 -1.534908
  H 3.461630 -0.794981 -1.375317
  H 0.267436 -0.739085 -0.046946
  H 1.579681 -0.276207 -1.553616
  H 0.318888 0.512055 1.205078
  H 3.932160 0.836798 1.199687
  H 3.814704 -0.915276 1.340922
  H 1.933081 -0.583012 3.022817
  H 2.117383 1.160757 2.845699
 15
 13.006029
  C 0.841158 0.018572 0.449707
  C 2.163778 0.028404 0.289831
  C 3.205821 0.060930 1.363758
  C 2.659426 0.226893 2.775496
  H 3.469763 0.190717 3.499277
  C 2.617721 -0.168375 -1.127264
  H 2.866675 0.811116 -1.544672
  H 3.457462 -0.840883 -1.272689
  H 0.211587 -0.629850 -0.135740
  H 1.672399 -0.373363 -1.651924
  H 0.320066 0.404262 1.315813
  H 3.961338 0.832715 1.167048
  H 3.724535 -0.902202 1.284883
  H 1.952583 -0.568471 3.004399
  H 2.147700 1.179274 2.878007
 15
 1.351754
  C 0.809527 0.025499 0.491321
  C 2.118790 0.000354 0.279785
  C 3.178226 0.057419 1.343561
  C 2.661610 0.216293 2.766905
  H 3.494970 0.227691 3.466094
  C 2.621307 -0.183633 -1.123733
  H 2.914572 0.796973 -1.508671
  H 3.472564 -0.850387 -1.207045
  H 0.099767 -0.394738 -0.200136
  H 1.777347 -0.484940 -1.738428
  H 0.387119 0.335053 1.433525
  H 3.886139 0.864466 1.125642
  H 3.735273 -0.881380 1.263140
  H 2.002129 -0.607528 3.028511
  H 2.112672 1.148598 2.875462
 15
 -3.491598
  C 0.791504 0.013362 0.523815
  C 2.089366 -0.043424 0.279417
  C 3.163709 0.077643 1.326436
  C 2.668908 0.208799 2.764222
  H 3.517960 0.258545 3.445336
  C 2.611135 -0.209457 -1.117653
  H 3.009668 0.739490 -1.481568
  H 3.416820 -0.941187 -1.148666
  H 0.069541 -0.068235 -0.273152
  H 1.815274 -0.527911 -1.788795
  H 0.386318 0.149890 1.508598
  H 3.783315 0.949011 1.078330
  H 3.812739 -0.801612 1.249820
  H 2.057488 -0.649485 3.040478
  H 2.078269 1.114310 2.889315
 15
 -3.577396
  C 0.787165 -0.004640 0.528548
  C 2.085102 -0.047798 0.279273
  C 3.160904 0.069023 1.326366
  C 2.670116 0.221994 2.759137
  H 3.519896 0.279539 3.437091
  C 2.612308 -0.196229 -1.118604
  H 3.048877 0.744547 -1.454897
  H 3.392898 -0.955039 -1.157115
  H 0.062506 -0.089560 -0.264967
  H 1.819231 -0.473430 -1.808134
  H 0.385123 0.111837 1.519170
  H 3.789727 0.926810 1.069608
  H 3.797963 -0.818227 1.260029
  H 2.058422 -0.629737 3.049477
  H 2.081777 1.130650 2.870949
