 14
 0.000000
  C 0.955103 0.135846 0.389062
  C 2.445940 0.088453 0.270700
  H 3.009556 0.432110 1.126302
  C 3.090102 -0.346239 -0.811922
  C 4.524934 -0.392784 -0.928195
  C 5.164160 -0.828938 -2.015045
  H 4.649263 -1.182259 -2.895266
  O 6.508168 -0.888494 -2.163757
  H 0.652545 0.524437 1.356790
  H 0.528715 -0.858165 0.267766
  H 0.528564 0.769820 -0.386003
  H 2.529257 -0.691290 -1.671064
  H 5.096158 -0.049489 -0.073027
  H 6.922807 -0.565611 -1.359201
 14
 0.180055
  C 0.955065 0.164391 0.382420
  C 2.440934 0.020534 0.281450
  H 3.015799 0.347871 1.137444
  C 3.083040 -0.424827 -0.798545
  C 4.518923 -0.458347 -0.911532
  C 5.168049 -0.826547 -2.017269
  H 4.663093 -1.173275 -2.906678
  O 6.512288 -0.814343 -2.182683
  H 0.670326 0.604183 1.332273
  H 0.464137 -0.806053 0.291416
  H 0.577167 0.797203 -0.420143
  H 2.524240 -0.752325 -1.665629
  H 5.082551 -0.122086 -0.049464
  H 6.931499 -0.458043 -1.388353
 14
 0.792752
  C 0.962930 0.192866 0.398455
  C 2.433430 -0.031153 0.249982
  H 3.040301 0.282288 1.090723
  C 3.056508 -0.491955 -0.834228
  C 4.494539 -0.517903 -0.928762
  C 5.183088 -0.819267 -2.030064
  H 4.721615 -1.152003 -2.947689
  O 6.531242 -0.741003 -2.146966
  H 0.741558 0.702681 1.331292
  H 0.421005 -0.753883 0.387552
  H 0.582371 0.793663 -0.427036
  H 2.498767 -0.809391 -1.704520
  H 5.035911 -0.202050 -0.043251
  H 6.900243 -0.367237 -1.334834
 14
 1.807740
  C 0.975397 0.217902 0.426971
  C 2.428280 -0.044373 0.198853
  H 3.070291 0.261618 1.017804
  C 3.026167 -0.532736 -0.886426
  C 4.466208 -0.560099 -0.959333
  C 5.202598 -0.809299 -2.042078
  H 4.796583 -1.126488 -2.990246
  O 6.553484 -0.684417 -2.081189
  H 0.825935 0.780347 1.343382
  H 0.417791 -0.717085 0.502744
  H 0.550180 0.780690 -0.403882
  H 2.467004 -0.852771 -1.753736
  H 4.982050 -0.282984 -0.045015
  H 6.850161 -0.301383 -1.242709
 14
 3.802700
  C 0.993987 0.237287 0.437017
  C 2.439333 -0.030569 0.172234
  H 3.098799 0.239342 0.990586
  C 3.007716 -0.541313 -0.915685
  C 4.445674 -0.598711 -0.979707
  C 5.209690 -0.818459 -2.051290
  H 4.853844 -1.146544 -3.015087
  O 6.556184 -0.623931 -2.025941
  H 0.872437 0.854000 1.322278
  H 0.450436 -0.695117 0.600594
  H 0.531879 0.735622 -0.414525
  H 2.438657 -0.837554 -1.785002
  H 4.952450 -0.434156 -0.033706
  H 6.744299 -0.187564 -1.182315
 14
 9.536080
  C 0.994972 0.244427 0.380463
  C 2.421654 -0.148458 0.165543
  H 3.010415 -0.244562 1.065887
  C 3.015037 -0.414108 -0.997203
  C 4.433558 -0.625100 -0.996478
  C 5.269973 -0.743682 -2.035324
  H 5.006261 -0.969640 -3.052506
  O 6.606547 -0.560263 -1.825969
  H 0.856961 0.663633 1.373258
  H 0.337315 -0.623336 0.288683
  H 0.678843 0.976419 -0.361412
  H 2.486129 -0.385465 -1.938815
  H 4.854555 -0.797494 -0.008695
  H 6.606604 -0.213684 -0.922135
 14
 18.032800
  C 1.055567 0.239621 0.434761
  C 2.476879 -0.210619 0.243721
  H 3.073439 -0.311933 1.139959
  C 3.029399 -0.383883 -0.963543
  C 4.422549 -0.631520 -1.049640
  C 5.215168 -0.702077 -2.127258
  H 4.951933 -0.910975 -3.141165
  O 6.552879 -0.555591 -1.868763
  H 0.914696 0.673615 1.417780
  H 0.362999 -0.602947 0.336466
  H 0.784152 0.980526 -0.323408
  H 2.461739 -0.210149 -1.875455
  H 4.853508 -0.974208 -0.111100
  H 6.411247 -0.238764 -0.956761
 14
 35.109541
  C 1.085832 0.256396 0.451813
  C 2.481581 -0.202374 0.246557
  H 3.030679 -0.483527 1.141641
  C 3.080328 -0.329647 -0.924798
  C 4.449053 -0.661905 -1.019846
  C 5.212795 -0.735547 -2.139397
  H 4.902187 -0.946516 -3.155826
  O 6.514207 -0.405626 -1.891825
  H 0.955034 0.650202 1.454329
  H 0.392032 -0.569401 0.329075
  H 0.803069 1.007549 -0.289096
  H 2.602532 -0.063842 -1.865911
  H 4.843415 -1.197362 -0.172820
  H 6.202441 -0.153701 -0.986072
 14
 62.284100
  C 1.085063 0.247455 0.442366
  C 2.498055 -0.211224 0.279416
  H 3.017309 -0.485018 1.189281
  C 3.143666 -0.274869 -0.884235
  C 4.543628 -0.626095 -1.017215
  C 5.256291 -0.755677 -2.214450
  H 4.884637 -1.010570 -3.201115
  O 6.489022 -0.461835 -2.047393
  H 0.914808 0.621633 1.448757
  H 0.392088 -0.578866 0.271430
  H 0.845857 1.032929 -0.272066
  H 2.641043 0.020771 -1.796788
  H 4.924431 -1.245835 -0.204998
  H 5.922810 -0.105533 -0.797853
 14
 32.678807
  C 1.096125 0.230569 0.414258
  C 2.505669 -0.194895 0.270092
  H 3.000296 -0.490113 1.206837
  C 3.245892 -0.226783 -0.851914
  C 4.705912 -0.625280 -0.964960
  C 5.322403 -0.817336 -2.280347
  H 4.790995 -1.020268 -3.224709
  O 6.482796 -0.537866 -2.267671
  H 0.904787 0.614422 1.417927
  H 0.404592 -0.596706 0.220319
  H 0.884000 1.021793 -0.310286
  H 2.779726 0.100140 -1.763850
  H 5.012588 -1.336766 -0.164101
  H 5.598301 0.005565 -0.675531
 14
 13.461939
  C 1.110689 0.250653 0.425906
  C 2.548350 -0.163465 0.264753
  H 3.065511 -0.379263 1.215074
  C 3.268454 -0.226663 -0.846493
  C 4.684440 -0.672089 -0.911320
  C 5.309201 -0.780497 -2.253479
  H 4.714956 -0.984605 -3.140777
  O 6.486012 -0.557030 -2.336557
  H 0.897356 0.556338 1.455681
  H 0.468110 -0.595871 0.176524
  H 0.845926 1.053056 -0.260200
  H 2.831973 0.076365 -1.817958
  H 4.924803 -1.488780 -0.248013
  H 5.422259 0.083266 -0.516264
 14
 5.144145
  C 1.147209 0.261746 0.379654
  C 2.577140 -0.175733 0.286169
  H 3.070168 -0.383671 1.234958
  C 3.274883 -0.266024 -0.831986
  C 4.719617 -0.635950 -0.876411
  C 5.322167 -0.752329 -2.238206
  H 4.616665 -0.938607 -3.073540
  O 6.486313 -0.563636 -2.440174
  H 0.936169 0.675733 1.364149
  H 0.479507 -0.588540 0.221651
  H 0.915878 1.009946 -0.379339
  H 2.814376 -0.041380 -1.779610
  H 4.933409 -1.536384 -0.289898
  H 5.324511 0.110379 -0.369460
 14
 3.168185
  C 1.154855 0.276383 0.375543
  C 2.607045 -0.076419 0.282784
  H 3.142909 -0.134802 1.223988
  C 3.266475 -0.318919 -0.838259
  C 4.722022 -0.680251 -0.863238
  C 5.349507 -0.656560 -2.224204
  H 4.634290 -0.778239 -3.062679
  O 6.524752 -0.538787 -2.426847
  H 0.925979 0.718606 1.340060
  H 0.540008 -0.616923 0.256788
  H 0.873736 0.976224 -0.409077
  H 2.765578 -0.260613 -1.795402
  H 4.853213 -1.705091 -0.485406
  H 5.301309 -0.029444 -0.198455
 14
 3.297192
  C 1.146871 0.294252 0.387919
  C 2.603636 -0.004099 0.232609
  H 3.205748 0.101630 1.128022
  C 3.210576 -0.424524 -0.864097
  C 4.674866 -0.746782 -0.861734
  C 5.359063 -0.598885 -2.186710
  H 4.690872 -0.712184 -3.063988
  O 6.531717 -0.404438 -2.329457
  H 0.950312 0.754095 1.351712
  H 0.561316 -0.622436 0.318726
  H 0.797781 0.964176 -0.396614
  H 2.681288 -0.547254 -1.798112
  H 4.805342 -1.802696 -0.586082
  H 5.194926 -0.160271 -0.108653
 14
 2.038879
  C 1.166603 0.315673 0.349820
  C 2.621983 -0.022113 0.281327
  H 3.188625 0.114847 1.193082
  C 3.229593 -0.481813 -0.801004
  C 4.681333 -0.838773 -0.860551
  C 5.328989 -0.492664 -2.170378
  H 4.632510 -0.511404 -3.033027
  O 6.490036 -0.239582 -2.320648
  H 0.968938 1.009486 1.162362
  H 0.578325 -0.585628 0.526148
  H 0.825647 0.757015 -0.584196
  H 2.671939 -0.624724 -1.718115
  H 4.791051 -1.927287 -0.761367
  H 5.238743 -0.382449 -0.039914
