 23
 0.000000
  C 0.961726 0.154098 0.433866
  C 2.435618 0.135547 0.388183
  C 3.216142 0.602053 1.549301
  H 2.605531 0.935559 2.379333
  C 3.037541 -0.331865 -0.775154
  C 4.414532 -0.412320 -0.976658
  C 5.108418 -0.861522 -2.096943
  C 4.621942 -1.385205 -3.402242
  C 3.135390 -1.504723 -3.699817
  H 3.009949 -1.905890 -4.699858
  O 6.427514 -0.850874 -2.071252
  H 0.577796 0.532667 1.375471
  H 0.568795 -0.850357 0.269084
  H 0.568920 0.765158 -0.380269
  H 3.869893 1.422860 1.248223
  H 3.869784 -0.198933 1.899891
  H 2.373408 -0.647512 -1.560503
  H 5.038711 -0.082022 -0.154731
  H 5.090474 -2.368744 -3.523565
  H 5.090470 -0.758291 -4.169753
  H 2.649657 -0.533161 -3.664951
  H 2.649881 -2.183025 -3.003175
  H 6.809563 -0.517186 -1.237848
 23
 18.397039
  C 0.976742 0.180916 0.500913
  C 2.448087 0.141986 0.404360
  C 3.279809 0.596288 1.534251
  H 2.669590 0.931727 2.369288
  C 3.012886 -0.338364 -0.790939
  C 4.427071 -0.432838 -1.027369
  C 5.020404 -0.874782 -2.130028
  C 4.645623 -1.407786 -3.459205
  C 3.176923 -1.542822 -3.794781
  H 3.087398 -1.945708 -4.799712
  O 6.253316 -0.771929 -1.874196
  H 0.636728 0.566047 1.458292
  H 0.560535 -0.818759 0.349269
  H 0.560618 0.797232 -0.300690
  H 3.931672 1.416881 1.225534
  H 3.932083 -0.209361 1.879243
  H 2.327205 -0.649786 -1.566049
  H 5.023581 -0.098432 -0.193611
  H 5.137227 -2.375771 -3.552327
  H 5.136829 -0.772230 -4.195400
  H 2.677290 -0.578388 -3.778462
  H 2.677946 -2.229262 -3.116693
  H 6.527060 -0.426077 -1.008929
 23
 68.017260
  C 0.967268 0.205080 0.563464
  C 2.428112 0.159256 0.447267
  C 3.283686 0.604739 1.551408
  H 2.691770 0.943821 2.394746
  C 2.989932 -0.346394 -0.809814
  C 4.507872 -0.454747 -1.080012
  C 4.993777 -0.901562 -2.195524
  C 4.685500 -1.430265 -3.516135
  C 3.206088 -1.567582 -3.858651
  H 3.112912 -1.970299 -4.864843
  O 6.171663 -0.740535 -1.793090
  H 0.644546 0.592691 1.525637
  H 0.543230 -0.793358 0.416560
  H 0.542071 0.821870 -0.234591
  H 3.932026 1.423812 1.230296
  H 3.933641 -0.207118 1.887195
  H 2.293352 -0.652476 -1.571260
  H 5.015548 -0.105989 -0.210055
  H 5.186614 -2.398503 -3.591102
  H 5.186621 -0.781386 -4.238664
  H 2.704961 -0.599643 -3.838229
  H 2.705288 -2.254385 -3.176100
  H 6.421122 -0.390690 -0.911895
 23
 133.044608
  C 0.922000 0.226686 0.618729
  C 2.378673 0.172391 0.479958
  C 3.280986 0.616870 1.579678
  H 2.714009 0.963579 2.441460
  C 2.924590 -0.343741 -0.801823
  C 4.637746 -0.467217 -1.110417
  C 4.999471 -0.920637 -2.242161
  C 4.721429 -1.455164 -3.577828
  C 3.240479 -1.590604 -3.917434
  H 3.140740 -1.994651 -4.927588
  O 6.165199 -0.725133 -1.756009
  H 0.618311 0.616666 1.585991
  H 0.492576 -0.762637 0.482085
  H 0.490918 0.843383 -0.166137
  H 3.922596 1.423139 1.244353
  H 3.924839 -0.195756 1.896923
  H 2.218129 -0.645562 -1.553489
  H 5.036417 -0.100269 -0.194522
  H 5.212181 -2.418661 -3.648895
  H 5.212579 -0.807354 -4.294210
  H 2.741567 -0.619585 -3.889775
  H 2.740960 -2.274502 -3.227883
  H 6.439143 -0.385763 -0.897129
 23
 153.444025
  C 0.741874 0.293998 0.782506
  C 2.219979 0.166233 0.459294
  C 3.203252 0.586165 1.507077
  H 2.689927 0.934670 2.396974
  C 2.562884 -0.307122 -0.727211
  C 4.962634 -0.495142 -1.183800
  C 5.100020 -0.955628 -2.349912
  C 4.818533 -1.472076 -3.656803
  C 3.316705 -1.597878 -3.917584
  H 3.166943 -2.005931 -4.913882
  O 6.454693 -0.749017 -1.814859
  H 0.604953 0.694692 1.778312
  H 0.256022 -0.676345 0.718318
  H 0.254068 0.951276 0.065711
  H 3.827410 1.400985 1.142820
  H 3.832731 -0.252762 1.797349
  H 1.949028 -0.626355 -1.549972
  H 5.074593 -0.106944 -0.201581
  H 5.296563 -2.461440 -3.733099
  H 5.296490 -0.824820 -4.405447
  H 2.828315 -0.624373 -3.871569
  H 2.852910 -2.275819 -3.200888
  H 6.889113 -0.440308 -0.996986
 23
 158.837927
  C 0.613377 0.325581 0.928275
  C 2.070601 0.180272 0.483503
  C 3.114766 0.602100 1.491920
  H 2.643937 0.933835 2.413497
  C 2.349389 -0.300048 -0.705522
  C 5.165436 -0.512525 -1.251991
  C 5.235953 -0.982255 -2.435683
  C 4.905163 -1.503003 -3.720810
  C 3.384991 -1.614332 -3.913671
  H 3.190472 -2.016273 -4.907302
  O 6.590058 -0.757266 -1.903594
  H 0.562288 0.726303 1.944982
  H 0.109612 -0.638823 0.904847
  H 0.078492 0.997265 0.258405
  H 3.709195 1.428378 1.102948
  H 3.752032 -0.243666 1.752092
  H 1.773791 -0.606084 -1.546139
  H 5.215966 -0.102895 -0.207483
  H 5.372658 -2.484080 -3.843138
  H 5.345802 -0.876412 -4.501930
  H 2.909971 -0.639132 -3.841172
  H 2.949848 -2.298466 -3.187321
  H 7.142541 -0.452206 -1.153383
 23
 150.305276
  C 0.543938 0.388486 1.049693
  C 1.950603 0.186128 0.483780
  C 3.093869 0.602891 1.381224
  H 2.724639 1.020966 2.312786
  C 2.129600 -0.329816 -0.684650
  C 5.391699 -0.557100 -1.285225
  C 5.150504 -1.060416 -2.443679
  C 4.958605 -1.452405 -3.777210
  C 3.425031 -1.637930 -3.904006
  H 3.226273 -1.954607 -4.923781
  O 6.779074 -0.764702 -1.751788
  H 0.588111 0.842503 2.034473
  H 0.032520 -0.568402 1.128081
  H -0.033664 1.034318 0.392523
  H 3.701066 1.361079 0.890755
  H 3.711697 -0.258603 1.626815
  H 1.557699 -0.703129 -1.498872
  H 5.024657 -0.270453 -0.330279
  H 5.477308 -2.389913 -3.997619
  H 5.315323 -0.686236 -4.472601
  H 2.909377 -0.702695 -3.709489
  H 3.063028 -2.400660 -3.220848
  H 7.431296 -0.515179 -1.067429
 23
 122.148359
  C 0.695198 0.459545 1.121023
  C 2.100961 0.239487 0.550186
  C 3.254802 0.590236 1.446918
  H 2.907948 0.988643 2.393485
  C 2.180568 -0.242929 -0.655222
  C 5.373754 -0.598043 -1.445926
  C 5.026369 -1.094629 -2.570852
  C 4.874607 -1.494369 -3.921729
  C 3.391526 -1.851525 -4.212372
  H 3.311343 -2.179231 -5.241181
  O 6.654903 -0.426130 -1.051768
  H 0.776562 0.876090 2.116766
  H 0.160503 -0.483306 1.165292
  H 0.137058 1.141588 0.487504
  H 3.876924 1.342682 0.970477
  H 3.845091 -0.299861 1.654497
  H 1.644802 -0.576126 -1.505157
  H 4.701805 -0.382179 -0.601337
  H 5.463806 -2.399378 -4.093470
  H 5.174153 -0.691978 -4.594326
  H 2.766447 -0.979997 -4.069098
  H 3.060203 -2.648061 -3.560738
  H 6.772922 -0.106402 -0.150319
 23
 103.181726
  C 0.855505 0.421030 1.039291
  C 2.296069 0.243318 0.572400
  C 3.378163 0.565551 1.556665
  H 2.967015 0.917928 2.493871
  C 2.485346 -0.181907 -0.635994
  C 5.170550 -0.543102 -1.467017
  C 4.991938 -1.051699 -2.613331
  C 4.848693 -1.559924 -3.922293
  C 3.373636 -1.876299 -4.268516
  H 3.332022 -2.279214 -5.270789
  O 6.284504 -0.232663 -0.810545
  H 0.847596 0.799494 2.053621
  H 0.334471 -0.530730 1.005575
  H 0.337333 1.120573 0.392477
  H 4.021255 1.342487 1.151314
  H 3.968115 -0.323515 1.759211
  H 2.063487 -0.489543 -1.556336
  H 4.095408 -0.349277 -0.876548
  H 5.409431 -2.492675 -4.003661
  H 5.207693 -0.829279 -4.648568
  H 2.776195 -0.973739 -4.230847
  H 2.973556 -2.608736 -3.577112
  H 6.134276 0.096047 0.089783
