19

H 1.3614225625588159 0.14130525175679748 0.40407042118797387
C 2.43139 0.138375 0.396254
C 3.225667 0.605236 1.557061
C 2.461594 1.097804 2.782627
H 3.1417812644905223 1.405928036573401 3.548985182125443
C 3.040241 -0.328066 -0.764349
C 4.417027 -0.409834 -0.969005
C 5.108629 -0.859137 -2.089578
C 4.617715 -1.38221 -3.394256
H 3.572299350311459 -1.4668493500528608 -3.6060160052156123
H 6.178465325871513 -0.8520595362723387 -2.072253296454917
H 3.883428 1.413815 1.219579
H 3.883726 -0.211689 1.873108
H 1.825753 0.303823 3.177745
H 1.825549 1.944242 2.518362
H 2.370371 -0.642604 -1.546367
H 5.042108 -0.079879 -0.148002
H 5.081501 -2.367461 -3.517593
H 5.082043 -0.755415 -4.164069
