 20
 0.000000
  C 1.007362 -0.072341 0.045914
  C 2.503440 -0.082355 0.026362
  C 3.219937 -0.595107 -0.979554
  C 4.657841 -0.605500 -1.000176
  C 5.377872 -1.120710 -2.011821
  C 6.816458 -1.130452 -2.031101
  C 7.533844 -1.642099 -3.036254
  C 9.023792 -1.661980 -3.074907
  H 0.644562 0.394459 0.961095
  H 0.612111 -1.087569 0.008366
  H 0.612161 0.493319 -0.797978
  H 3.002632 0.353927 0.881826
  H 2.709067 -1.028976 -1.830803
  H 5.162467 -0.170392 -0.146227
  H 4.873464 -1.555677 -2.865900
  H 7.323812 -0.696172 -1.178091
  H 7.034400 -2.078022 -3.892804
  H 9.458962 -1.209420 -2.185220
  H 9.382918 -1.115794 -3.948674
  H 9.382298 -2.690120 -3.147502
 20
 2.747251
  C 1.072794 0.015626 0.025357
  C 2.568818 -0.036405 -0.030337
  C 3.228751 -0.622258 -1.014869
  C 4.649290 -0.722653 -1.012028
  C 5.350453 -1.309415 -1.978631
  C 6.775776 -1.312029 -1.969962
  C 7.510111 -1.729767 -2.992303
  C 8.979003 -1.534382 -3.055369
  H 0.731970 0.479246 0.947184
  H 0.653517 -0.987887 -0.027080
  H 0.675714 0.590701 -0.810303
  H 3.098386 0.383385 0.813379
  H 2.692242 -1.059573 -1.849818
  H 5.167140 -0.278044 -0.169355
  H 4.850313 -1.744110 -2.835654
  H 7.259998 -0.864186 -1.109297
  H 7.038894 -2.146659 -3.876673
  H 9.376475 -1.111366 -2.131452
  H 9.155491 -0.841251 -3.853759
  H 9.503298 -2.470706 -3.274035
 20
 3.406120
  C 1.108493 0.151594 -0.054844
  C 2.597201 0.010982 -0.061988
  C 3.251914 -0.711882 -0.970021
  C 4.662598 -0.890251 -0.943996
  C 5.353579 -1.568148 -1.866927
  C 6.779971 -1.521333 -1.900617
  C 7.504542 -1.789088 -2.980687
  C 8.921641 -1.370705 -3.095931
  H 0.761660 0.630991 0.863760
  H 0.630628 -0.828193 -0.140429
  H 0.774737 0.756021 -0.901750
  H 3.135707 0.459588 0.760223
  H 2.709990 -1.179445 -1.778968
  H 5.194446 -0.397551 -0.140502
  H 4.845336 -2.040453 -2.691327
  H 7.264656 -1.096797 -1.031550
  H 7.034817 -2.168131 -3.876789
  H 9.335165 -1.113079 -2.121222
  H 8.921664 -0.462708 -3.709760
  H 9.549543 -2.124382 -3.568066
 20
 5.085699
  C 1.206939 0.311093 -0.283665
  C 2.651374 -0.016858 -0.075438
  C 3.296783 -0.940300 -0.787872
  C 4.701243 -1.160607 -0.700209
  C 5.393943 -1.803833 -1.646912
  C 6.812562 -1.657907 -1.773954
  C 7.418425 -1.696283 -2.954913
  C 8.776012 -1.159127 -3.202617
  H 0.800909 0.854435 0.566255
  H 0.621358 -0.594587 -0.434884
  H 1.085156 0.934083 -1.171387
  H 3.156949 0.523663 0.713473
  H 2.768701 -1.472011 -1.570777
  H 5.227591 -0.651597 0.097091
  H 4.870307 -2.281390 -2.465075
  H 7.354716 -1.324306 -0.898573
  H 6.866998 -2.009847 -3.832331
  H 9.337798 -1.047409 -2.280933
  H 8.642994 -0.161534 -3.646228
  H 9.340342 -1.778365 -3.893191
 20
 7.335362
  C 1.312944 0.393866 -0.387542
  C 2.729496 -0.011399 -0.136494
  C 3.311508 -1.044071 -0.739291
  C 4.711263 -1.290849 -0.643754
  C 5.395028 -1.950912 -1.580724
  C 6.796775 -1.734559 -1.738338
  C 7.354838 -1.675137 -2.936848
  C 8.653736 -1.019518 -3.194253
  H 0.920982 0.982649 0.438338
  H 0.677799 -0.477300 -0.533417
  H 1.253144 1.002125 -1.289593
  H 3.281822 0.584485 0.577565
  H 2.752619 -1.633975 -1.455277
  H 5.248031 -0.748341 0.124316
  H 4.871237 -2.457196 -2.383005
  H 7.346886 -1.396130 -0.867725
  H 6.792586 -1.978349 -3.811346
  H 9.257797 -0.953793 -2.293280
  H 8.422387 0.001874 -3.527604
  H 9.219435 -1.523986 -3.972882
 20
 9.559065
  C 1.406255 0.464887 -0.456452
  C 2.808274 0.010389 -0.219089
  C 3.315527 -1.115489 -0.713527
  C 4.713488 -1.387445 -0.632980
  C 5.386774 -2.080873 -1.552386
  C 6.778101 -1.809570 -1.727200
  C 7.309428 -1.666650 -2.930172
  C 8.546901 -0.891128 -3.160769
  H 1.052036 1.084776 0.363827
  H 0.736405 -0.382903 -0.575995
  H 1.357438 1.061319 -1.368607
  H 3.430666 0.660360 0.382523
  H 2.708321 -1.763178 -1.334432
  H 5.268702 -0.809985 0.096092
  H 4.865553 -2.619851 -2.332135
  H 7.324097 -1.468084 -0.855779
  H 6.756348 -1.966089 -3.809201
  H 9.173666 -0.863793 -2.272747
  H 8.223228 0.137126 -3.381926
  H 9.125248 -1.268607 -3.999916
 20
 12.344167
  C 1.501669 0.526611 -0.538927
  C 2.886128 0.025733 -0.292980
  C 3.332231 -1.163769 -0.688810
  C 4.725032 -1.466848 -0.610763
  C 5.385873 -2.185697 -1.519098
  C 6.770312 -1.879017 -1.709974
  C 7.256797 -1.646830 -2.917524
  C 8.429320 -0.771583 -3.131181
  H 1.168972 1.168379 0.275145
  H 0.802845 -0.297570 -0.650294
  H 1.476698 1.117013 -1.456772
  H 3.554675 0.701765 0.222170
  H 2.687892 -1.842051 -1.233904
  H 5.296502 -0.871032 0.092670
  H 4.861793 -2.743576 -2.284042
  H 7.325671 -1.556064 -0.837434
  H 6.693021 -1.925453 -3.796355
  H 9.103978 -0.790202 -2.279289
  H 8.021700 0.248212 -3.221360
  H 8.979717 -1.017122 -4.035229
 20
 15.393968
  C 1.607622 0.582480 -0.634448
  C 2.968032 0.037807 -0.355050
  C 3.354758 -1.196013 -0.663588
  C 4.743346 -1.541419 -0.575823
  C 5.388223 -2.279688 -1.482349
  C 6.770528 -1.949860 -1.691533
  C 7.194440 -1.623085 -2.904861
  C 8.296390 -0.651106 -3.103859
  H 1.280344 1.239675 0.167709
  H 0.885168 -0.217593 -0.755049
  H 1.622659 1.167946 -1.554477
  H 3.669702 0.719500 0.110707
  H 2.679460 -1.881567 -1.155665
  H 5.330480 -0.939058 0.109037
  H 4.855948 -2.832534 -2.241809
  H 7.343105 -1.647007 -0.822891
  H 6.606162 -1.875735 -3.776210
  H 9.019843 -0.691987 -2.295104
  H 7.806400 0.335271 -3.073372
  H 8.805156 -0.772475 -4.056659
 20
 18.912768
  C 1.718902 0.639715 -0.723900
  C 3.055943 0.048710 -0.423487
  C 3.384288 -1.221810 -0.656675
  C 4.757687 -1.612360 -0.542537
  C 5.395806 -2.360197 -1.447039
  C 6.767916 -1.991640 -1.676897
  C 7.130692 -1.590887 -2.889175
  C 8.153537 -0.534565 -3.075246
  H 1.402958 1.309509 0.074647
  H 0.967783 -0.138440 -0.854748
  H 1.768325 1.225202 -1.644363
  H 3.782509 0.719664 0.006684
  H 2.681892 -1.903728 -1.120388
  H 5.350678 -1.018459 0.139756
  H 4.860136 -2.924600 -2.200848
  H 7.357907 -1.707001 -0.815818
  H 6.521293 -1.832771 -3.749312
  H 8.922296 -0.575423 -2.308020
  H 7.587838 0.406698 -2.946029
  H 8.613814 -0.550425 -4.057050
 20
 22.827019
  C 1.836579 0.692793 -0.816130
  C 3.147318 0.057172 -0.491221
  C 3.416622 -1.239956 -0.654629
  C 4.776195 -1.677090 -0.518165
  C 5.402716 -2.442665 -1.418462
  C 6.765910 -2.034219 -1.667547
  C 7.056385 -1.550999 -2.872782
  C 7.997720 -0.414370 -3.037157
  H 1.531655 1.374069 -0.023827
  H 1.059731 -0.061441 -0.957053
  H 1.920382 1.274401 -1.734842
  H 3.904464 0.715765 -0.094655
  H 2.685241 -1.913830 -1.084195
  H 5.382851 -1.088198 0.158416
  H 4.860493 -3.008494 -2.168289
  H 7.371074 -1.758906 -0.814172
  H 6.422192 -1.778346 -3.715519
  H 8.806559 -0.447116 -2.310956
  H 7.369661 0.472596 -2.817488
  H 8.405548 -0.332788 -4.038137
 20
 27.364786
  C 1.957971 0.737346 -0.903401
  C 3.242693 0.063291 -0.553361
  C 3.454630 -1.251297 -0.656542
  C 4.796879 -1.729379 -0.500084
  C 5.407751 -2.500865 -1.402780
  C 6.758654 -2.060064 -1.668256
  C 6.978374 -1.505964 -2.856382
  C 7.832274 -0.300959 -2.990512
  H 1.663065 1.433981 -0.119669
  H 1.160776 0.007528 -1.049775
  H 2.073645 1.309744 -1.823809
  H 4.027139 0.706939 -0.185649
  H 2.697662 -1.911215 -1.063503
  H 5.415613 -1.148419 0.171765
  H 4.858414 -3.060764 -2.150889
  H 7.379801 -1.796639 -0.822724
  H 6.322812 -1.726116 -3.685794
  H 8.668312 -0.311734 -2.294063
  H 7.144799 0.527177 -2.698274
  H 8.194841 -0.136487 -3.998093
 20
 31.796755
  C 2.096887 0.774178 -1.007071
  C 3.344250 0.058274 -0.610985
  C 3.482612 -1.265032 -0.631826
  C 4.812954 -1.788074 -0.466759
  C 5.407406 -2.547073 -1.394058
  C 6.749204 -2.077947 -1.680982
  C 6.889660 -1.441766 -2.842389
  C 7.652263 -0.172077 -2.937875
  H 1.809171 1.494706 -0.243687
  H 1.277935 0.074623 -1.161258
  H 2.259052 1.325977 -1.934132
  H 4.158342 0.680369 -0.271324
  H 2.695564 -1.905674 -1.001504
  H 5.446393 -1.219817 0.202700
  H 4.842949 -3.078759 -2.148711
  H 7.399488 -1.847970 -0.847353
  H 6.208265 -1.649752 -3.657258
  H 8.509058 -0.158047 -2.272144
  H 6.920907 0.582285 -2.578623
  H 7.964904 0.073031 -3.947548
 20
 36.844949
  C 2.234907 0.814112 -1.103260
  C 3.444926 0.056830 -0.668945
  C 3.521981 -1.273539 -0.629406
  C 4.830684 -1.840265 -0.439841
  C 5.410566 -2.587154 -1.388252
  C 6.737102 -2.074447 -1.693314
  C 6.797395 -1.373226 -2.825966
  C 7.465709 -0.048519 -2.885253
  H 1.954493 1.551218 -0.352543
  H 1.394137 0.142629 -1.272135
  H 2.440644 1.351848 -2.029756
  H 4.284060 0.653320 -0.350734
  H 2.709180 -1.894162 -0.978939
  H 5.475900 -1.290441 0.232364
  H 4.835126 -3.102491 -2.147757
  H 7.407196 -1.858958 -0.872509
  H 6.090925 -1.579049 -3.619674
  H 8.347646 -0.003393 -2.253316
  H 6.695252 0.636814 -2.458294
  H 7.715394 0.265738 -3.892398
 20
 42.172298
  C 2.380307 0.849762 -1.197554
  C 3.549357 0.049941 -0.729801
  C 3.556711 -1.280776 -0.632836
  C 4.842683 -1.897252 -0.409095
  C 5.420308 -2.612294 -1.386544
  C 6.722409 -2.046992 -1.710368
  C 6.699004 -1.293614 -2.813547
  C 7.269065 0.079183 -2.834776
  H 2.111803 1.603369 -0.459206
  H 1.517055 0.209797 -1.380263
  H 2.628703 1.371145 -2.123340
  H 4.413869 0.616814 -0.425371
  H 2.718126 -1.873423 -0.970055
  H 5.488824 -1.378250 0.288265
  H 4.838006 -3.108835 -2.154240
  H 7.407027 -1.827435 -0.902801
  H 5.961751 -1.499741 -3.579992
  H 8.171187 0.161417 -2.236201
  H 6.468978 0.684821 -2.345293
  H 7.452211 0.456585 -3.835291
