 25
 0.000000
  C 1.014057 0.157657 0.403719
  C 2.487760 0.161952 0.404515
  C 3.247949 0.611193 1.580093
  H 2.632225 0.928504 2.411649
  C 3.101044 -0.285012 -0.758885
  C 4.475185 -0.393163 -1.006782
  C 5.108361 -0.863594 -2.133423
  C 4.607010 -1.393929 -3.411282
  C 3.117132 -1.509763 -3.704559
  C 2.892439 -2.090618 -5.098889
  H 6.189791 -0.860937 -2.115896
  H 0.588084 0.509581 1.338443
  H 0.640494 -0.851357 0.207530
  H 0.639270 0.785458 -0.406085
  H 3.904193 1.436549 1.294579
  H 3.904556 -0.193976 1.917419
  H 2.426134 -0.590531 -1.543314
  H 5.127087 -0.063733 -0.205872
  H 5.064874 -2.385349 -3.530346
  H 5.071775 -0.783734 -4.197659
  H 2.646731 -0.526220 -3.664195
  H 2.639669 -2.169272 -2.978310
  H 3.334991 -1.455748 -5.863143
  H 1.828150 -2.172081 -5.305261
  H 3.327957 -3.083669 -5.183827
 25
 -0.562303
  C 1.005135 0.165910 0.473135
  C 2.472289 0.179467 0.384604
  C 3.265875 0.616565 1.542854
  H 2.634573 0.918247 2.372011
  C 3.050430 -0.271036 -0.798024
  C 4.429877 -0.406739 -1.007795
  C 5.076332 -0.881780 -2.124135
  C 4.600394 -1.400838 -3.410664
  C 3.117451 -1.486457 -3.743584
  C 2.917191 -2.068648 -5.139939
  H 6.158276 -0.889411 -2.057884
  H 0.630436 0.708966 1.334204
  H 0.690938 -0.878209 0.560854
  H 0.542368 0.536978 -0.439712
  H 3.910106 1.454000 1.267357
  H 3.932427 -0.180190 1.877345
  H 2.375773 -0.541192 -1.591865
  H 5.074402 -0.104810 -0.192396
  H 5.050200 -2.398054 -3.526590
  H 5.108456 -0.812239 -4.189160
  H 2.669962 -0.492480 -3.717553
  H 2.608165 -2.130658 -3.024730
  H 3.386893 -1.442886 -5.895008
  H 1.858499 -2.137423 -5.373447
  H 3.341897 -3.067156 -5.211484
 25
 0.701721
  C 1.009241 0.124359 0.516291
  C 2.468207 0.159299 0.386011
  C 3.267198 0.717649 1.488758
  H 2.638990 1.038331 2.313015
  C 3.037908 -0.336570 -0.782426
  C 4.412719 -0.516388 -0.968179
  C 5.067384 -0.982375 -2.085669
  C 4.602939 -1.435384 -3.399483
  C 3.125037 -1.449959 -3.763802
  C 2.931395 -1.981535 -5.181386
  H 6.145464 -1.033609 -1.996232
  H 0.608447 0.827162 1.237594
  H 0.884785 -0.884162 0.942154
  H 0.477492 0.121279 -0.427875
  H 3.840296 1.577201 1.132575
  H 3.993887 -0.006008 1.858080
  H 2.366122 -0.602727 -1.582981
  H 5.050117 -0.254598 -0.134211
  H 5.014675 -2.445400 -3.540200
  H 5.148777 -0.837641 -4.144964
  H 2.717988 -0.439953 -3.717099
  H 2.575598 -2.094704 -3.074001
  H 3.444267 -1.353409 -5.907006
  H 1.876657 -1.998559 -5.439141
  H 3.316394 -2.995258 -5.274794
 25
 10.849029
  C 0.996590 0.253074 0.502756
  C 2.441777 0.188542 0.372836
  C 3.275965 0.616331 1.525114
  H 2.660387 0.900193 2.375175
  C 3.009522 -0.238247 -0.829248
  C 4.385945 -0.437024 -0.996063
  C 5.050618 -0.922827 -2.095061
  C 4.599015 -1.430990 -3.401138
  C 3.121129 -1.459315 -3.771601
  C 2.934349 -2.041765 -5.170083
  H 6.128479 -0.974878 -1.993430
  H 0.570836 0.758173 1.354772
  H 1.166469 -0.840165 0.783741
  H 0.404548 0.229370 -0.402346
  H 3.872492 1.482074 1.231517
  H 3.968586 -0.164114 1.839781
  H 2.353696 -0.426250 -1.660555
  H 5.016133 -0.185230 -0.155452
  H 5.007277 -2.447725 -3.493723
  H 5.143789 -0.855857 -4.164693
  H 2.715533 -0.447397 -3.763572
  H 2.568471 -2.078368 -3.063237
  H 3.452318 -1.440841 -5.914355
  H 1.880144 -2.068576 -5.433413
  H 3.320075 -3.057026 -5.223973
 25
 26.917629
  C 0.990496 0.296330 0.500974
  C 2.409564 0.131000 0.402629
  C 3.268924 0.663908 1.501183
  H 2.666802 1.005120 2.337769
  C 2.991610 -0.318600 -0.800451
  C 4.365337 -0.514442 -0.965600
  C 5.037028 -0.974616 -2.073977
  C 4.593069 -1.434264 -3.405313
  C 3.115629 -1.447437 -3.780795
  C 2.932612 -1.993089 -5.194850
  H 6.112699 -1.031156 -1.971077
  H 0.544746 0.800327 1.340579
  H 1.496478 -0.793165 0.821848
  H 0.356103 0.084735 -0.346280
  H 3.838167 1.511192 1.129823
  H 3.976458 -0.082318 1.859718
  H 2.323517 -0.546723 -1.615588
  H 4.994785 -0.263866 -0.126488
  H 5.000947 -2.446833 -3.532872
  H 5.135309 -0.832036 -4.144895
  H 2.715464 -0.433193 -3.745490
  H 2.557721 -2.084140 -3.093588
  H 3.463032 -1.375263 -5.918226
  H 1.878940 -2.006131 -5.463917
  H 3.309601 -3.008733 -5.276267
 25
 37.865741
  C 0.980574 0.384463 0.473813
  C 2.381123 0.096352 0.431377
  C 3.258445 0.631495 1.533703
  H 2.659211 1.014058 2.354023
  C 2.990587 -0.324614 -0.805944
  C 4.357753 -0.504118 -0.974859
  C 5.028667 -0.952292 -2.084274
  C 4.582720 -1.421661 -3.414952
  C 3.101863 -1.471093 -3.776748
  C 2.919074 -2.006901 -5.196157
  H 6.108236 -0.976739 -1.990249
  H 0.538562 0.874565 1.324058
  H 1.784772 -0.872081 0.784464
  H 0.343491 0.147079 -0.365262
  H 3.864529 1.448657 1.147205
  H 3.927843 -0.132744 1.923313
  H 2.322031 -0.528149 -1.623857
  H 4.989545 -0.249462 -0.132922
  H 5.011968 -2.425308 -3.551361
  H 5.107804 -0.804008 -4.158629
  H 2.672714 -0.469090 -3.729499
  H 2.570919 -2.130908 -3.087917
  H 3.420490 -1.366699 -5.921638
  H 1.862738 -2.047580 -5.455999
  H 3.328246 -3.011387 -5.288642
 25
 40.279652
  C 0.970668 0.422437 0.463633
  C 2.358284 0.078236 0.458172
  C 3.239355 0.647813 1.554161
  H 2.633169 1.054076 2.357402
  C 2.981403 -0.353871 -0.798463
  C 4.341965 -0.522769 -0.963351
  C 5.014290 -0.955530 -2.084374
  C 4.567535 -1.412038 -3.412078
  C 3.086873 -1.467375 -3.771360
  C 2.905264 -1.997799 -5.192187
  H 6.093725 -0.971196 -1.994177
  H 0.533374 0.948593 1.292974
  H 2.074948 -1.001277 0.698463
  H 0.330549 0.149129 -0.357972
  H 3.848924 1.453145 1.152766
  H 3.900514 -0.104638 1.973185
  H 2.307525 -0.555598 -1.613247
  H 4.969739 -0.269297 -0.120032
  H 5.003194 -2.409849 -3.557759
  H 5.088072 -0.787187 -4.150101
  H 2.652416 -0.467572 -3.719794
  H 2.559761 -2.132799 -3.085766
  H 3.401483 -1.352929 -5.914817
  H 1.849811 -2.042456 -5.450438
  H 3.318655 -2.999450 -5.289814
 25
 41.899844
  C 0.976083 0.415696 0.475505
  C 2.350521 0.107201 0.456566
  C 3.229918 0.646270 1.564348
  H 2.622560 1.080540 2.351572
  C 2.972636 -0.352181 -0.802380
  C 4.346049 -0.520514 -0.967721
  C 5.012837 -0.950516 -2.084373
  C 4.563551 -1.411203 -3.409594
  C 3.082495 -1.467647 -3.764513
  C 2.897410 -2.004506 -5.181580
  H 6.092688 -0.962670 -1.998478
  H 0.539865 0.958301 1.293939
  H 2.315233 -1.059411 0.463669
  H 0.326645 0.123943 -0.331613
  H 3.879628 1.425928 1.173758
  H 3.852428 -0.126770 2.004488
  H 2.300214 -0.524511 -1.625976
  H 4.971339 -0.267289 -0.121776
  H 4.998261 -2.409440 -3.551879
  H 5.081652 -0.788981 -4.150591
  H 2.648594 -0.467711 -3.717899
  H 2.556362 -2.129723 -3.075907
  H 3.390778 -1.362903 -5.908333
  H 1.841527 -2.051448 -5.436446
  H 3.311327 -3.006138 -5.275801
 25
 39.262593
  C 0.982138 0.407400 0.495613
  C 2.333142 0.146430 0.470045
  C 3.223250 0.681893 1.555144
  H 2.630752 1.149897 2.334867
  C 2.942943 -0.421099 -0.757136
  C 4.337022 -0.571732 -0.937077
  C 5.001444 -0.973173 -2.057344
  C 4.552678 -1.415597 -3.391858
  C 3.071232 -1.475661 -3.745515
  C 2.887423 -1.985865 -5.172690
  H 6.081647 -0.979700 -1.975415
  H 0.540680 0.949532 1.311697
  H 2.453843 -1.106964 0.251266
  H 0.321336 0.084317 -0.289433
  H 3.894846 1.432334 1.143953
  H 3.826348 -0.098377 2.011108
  H 2.273422 -0.580249 -1.587695
  H 4.959746 -0.322375 -0.088892
  H 4.993709 -2.408079 -3.553115
  H 5.064554 -0.775952 -4.122430
  H 2.630126 -0.479965 -3.678963
  H 2.550688 -2.155592 -3.069977
  H 3.374767 -1.326452 -5.887695
  H 1.831438 -2.035210 -5.426802
  H 3.308478 -2.982403 -5.287422
 25
 29.529372
  C 0.997553 0.435471 0.481834
  C 2.330457 0.189008 0.473120
  C 3.240001 0.744117 1.514345
  H 2.671439 1.271145 2.274613
  C 2.912169 -0.525291 -0.710385
  C 4.329705 -0.637122 -0.910111
  C 4.997367 -0.986374 -2.042729
  C 4.550476 -1.394297 -3.386643
  C 3.069968 -1.476668 -3.734706
  C 2.887976 -1.943927 -5.176824
  H 6.078214 -0.974366 -1.965630
  H 0.545788 1.014859 1.267829
  H 2.576228 -1.294264 0.093691
  H 0.335977 0.070820 -0.284857
  H 3.938150 1.443621 1.057925
  H 3.818606 -0.034720 2.006299
  H 2.243799 -0.651535 -1.549929
  H 4.947133 -0.398982 -0.055102
  H 5.013420 -2.370893 -3.583227
  H 5.046083 -0.721808 -4.099230
  H 2.607043 -0.493748 -3.633132
  H 2.568099 -2.188835 -3.078567
  H 3.356171 -1.251591 -5.873266
  H 1.831664 -2.007605 -5.425991
  H 3.328804 -2.927107 -5.326796
 25
 19.915369
  C 1.018259 0.448271 0.471979
  C 2.345263 0.223169 0.458833
  C 3.265630 0.792457 1.471248
  H 2.718265 1.380554 2.201820
  C 2.882524 -0.626129 -0.654830
  C 4.319400 -0.700709 -0.871170
  C 4.988691 -1.000136 -2.015938
  C 4.541243 -1.370675 -3.368359
  C 3.063829 -1.484714 -3.712214
  C 2.882763 -1.904690 -5.168726
  H 6.069753 -0.970831 -1.943271
  H 0.557994 1.064282 1.224902
  H 2.590931 -1.527193 -0.064103
  H 0.358075 0.039428 -0.273434
  H 4.003254 1.429592 0.985096
  H 3.804084 0.009311 2.002820
  H 2.248684 -0.643265 -1.533913
  H 4.932681 -0.484625 -0.007617
  H 5.031051 -2.326933 -3.602022
  H 5.019236 -0.666861 -4.063646
  H 2.572940 -0.519203 -3.573690
  H 2.584456 -2.229964 -3.076369
  H 3.327208 -1.176911 -5.844078
  H 1.826405 -1.986607 -5.412026
  H 3.345952 -2.870676 -5.357147
 25
 17.001071
  C 1.016660 0.404799 0.529444
  C 2.354081 0.256290 0.444544
  C 3.276009 0.790158 1.473428
  H 2.733831 1.350788 2.228818
  C 2.876301 -0.543556 -0.702782
  C 4.324004 -0.655537 -0.883498
  C 4.999605 -1.001989 -2.009646
  C 4.550867 -1.386003 -3.358090
  C 3.073863 -1.487462 -3.701911
  C 2.883420 -1.939348 -5.147032
  H 6.080081 -1.000781 -1.926062
  H 0.557794 0.929457 1.349232
  H 2.490708 -1.534631 -0.395297
  H 0.348228 0.026317 -0.224779
  H 4.017630 1.440901 1.011426
  H 3.812551 -0.019066 1.968035
  H 2.330993 -0.331846 -1.622882
  H 4.928216 -0.446878 -0.012381
  H 5.027645 -2.353358 -3.574174
  H 5.043579 -0.705902 -4.066845
  H 2.595558 -0.511432 -3.588264
  H 2.579457 -2.203336 -3.044225
  H 3.342965 -1.238902 -5.840867
  H 1.825448 -2.005196 -5.387897
  H 3.325505 -2.919507 -5.311271
 25
 16.897358
  C 1.015003 0.375869 0.519050
  C 2.357532 0.281331 0.435481
  C 3.254103 0.668285 1.552903
  H 2.691653 1.123509 2.364581
  C 2.908969 -0.347046 -0.808046
  C 4.358791 -0.506610 -0.944033
  C 5.034082 -0.936086 -2.043200
  C 4.564159 -1.396196 -3.360851
  C 3.078744 -1.494164 -3.669719
  C 2.849579 -2.052782 -5.068040
  H 6.113317 -0.954414 -1.958056
  H 0.524541 0.662865 1.429557
  H 2.425195 -1.343218 -0.796726
  H 0.373315 0.183425 -0.327337
  H 4.007619 1.374363 1.206801
  H 3.774925 -0.204587 1.937494
  H 2.466138 0.118447 -1.697965
  H 4.955525 -0.260991 -0.081957
  H 5.026321 -2.383299 -3.527010
  H 5.053517 -0.766772 -4.117612
  H 2.616123 -0.502869 -3.618977
  H 2.582321 -2.144809 -2.946126
  H 3.314851 -1.417320 -5.827239
  H 1.783906 -2.110742 -5.283776
  H 3.264772 -3.052209 -5.162172
 25
 15.279537
  C 1.012830 0.416629 0.527611
  C 2.347295 0.241790 0.442261
  C 3.252640 0.617024 1.555773
  H 2.694921 1.034934 2.388242
  C 2.896044 -0.350680 -0.807492
  C 4.350273 -0.487206 -0.942245
  C 5.025287 -0.919429 -2.038199
  C 4.560131 -1.389055 -3.354079
  C 3.078338 -1.505781 -3.667027
  C 2.856713 -2.074760 -5.064728
  H 6.105649 -0.930821 -1.955869
  H 0.554602 0.841122 1.403834
  H 2.432798 -1.345038 -0.931140
  H 0.348050 0.142102 -0.272791
  H 3.982745 1.353497 1.220817
  H 3.802471 -0.254418 1.908986
  H 2.485876 0.196272 -1.667343
  H 4.950805 -0.218533 -0.085865
  H 5.039224 -2.363405 -3.527775
  H 5.039494 -0.746915 -4.107800
  H 2.600790 -0.524040 -3.615631
  H 2.588415 -2.160283 -2.942705
  H 3.311072 -1.440623 -5.823449
  H 1.792749 -2.146893 -5.281153
  H 3.285788 -3.071512 -5.155209
