 17
 0.000000
  C 1.008346 -0.071215 0.048254
  C 2.504402 -0.082855 0.025404
  C 3.219492 -0.595422 -0.980853
  C 4.656844 -0.606340 -1.002284
  C 5.377842 -1.121526 -2.013677
  C 6.815493 -1.131591 -2.033434
  C 7.531807 -1.641781 -3.035031
  H 8.603875 -1.654417 -3.059835
  H 0.645965 0.394715 0.962945
  H 0.612848 -1.085612 0.008464
  H 0.612848 0.493023 -0.795678
  H 3.005728 0.352143 0.879378
  H 2.706158 -1.028539 -1.831123
  H 5.160896 -0.171519 -0.148662
  H 4.872940 -1.556090 -2.866801
  H 7.321541 -0.697083 -1.180424
  H 7.035578 -2.077783 -3.890964
 17
 2.996890
  C 0.998459 -0.109648 -0.024147
  C 2.491537 -0.058940 0.070091
  C 3.314087 -0.536728 -0.867049
  C 4.738586 -0.540408 -0.878033
  C 5.348318 -1.085849 -1.950130
  C 6.785288 -1.143468 -2.056564
  C 7.434291 -1.671588 -3.090438
  H 8.508327 -1.698230 -3.137678
  H 0.533914 0.337158 0.851106
  H 0.655387 -1.140431 -0.110671
  H 0.652763 0.422626 -0.909892
  H 2.914052 0.396111 0.957935
  H 2.996715 -1.005529 -1.781243
  H 5.298939 -0.124742 -0.061581
  H 4.771076 -1.503224 -2.771326
  H 7.344353 -0.721532 -1.225233
  H 6.906789 -2.097366 -3.929264
 17
 212.073194
  C 0.434328 0.280960 0.535993
  C 1.893006 0.011878 0.212875
  C 2.280747 -0.626002 -0.856042
  C 4.079021 -0.850080 -1.112677
  C 4.466049 -1.480036 -2.148761
  C 8.336659 -1.344811 -2.412393
  C 8.572633 -1.759046 -3.516874
  H 11.478919 -1.368890 -3.426430
  H 0.343347 0.705576 1.523005
  H -0.155336 -0.660241 0.472922
  H 0.037542 1.022167 -0.203966
  H 2.613644 0.388561 0.926052
  H 1.718663 -1.096230 -1.683895
  H 4.467127 -0.414874 -0.232143
  H 4.194562 -1.939852 -3.056502
  H 8.609170 -0.993486 -1.472294
  H 8.323595 -2.172051 -4.490508
 17
 632.707127
  C -1.237050 0.530537 0.987618
  C 0.997502 0.292364 0.587414
  C 1.573276 -0.391149 -0.486519
  C 4.613661 -0.828954 -0.922490
  C 4.864467 -1.567784 -1.925849
  C 9.765602 -1.662889 -3.017247
  C 10.166377 -2.111954 -4.129641
  H 13.688013 -1.790430 -5.096575
  H -1.471732 1.120421 2.060395
  H -1.999036 -0.919229 1.014324
  H -1.801669 1.403408 -0.049876
  H 1.704071 0.784511 1.379829
  H 1.284904 -0.931719 -1.419610
  H 5.213895 -0.347404 -0.171113
  H 4.348252 -1.992977 -2.734837
  H 11.330111 -0.816805 -1.346499
  H 8.652130 -3.102197 -5.738019
 17
 1157.431650
  C -2.995429 0.738679 1.500630
  C 0.102624 0.607850 0.869144
  C 1.108137 -0.632466 -0.248362
  C 4.826844 -0.789422 -0.766969
  C 5.297135 -1.927738 -1.597713
  C 11.244317 -1.480594 -3.563156
  C 11.874444 -2.358162 -4.894321
  H 16.076307 -1.821474 -6.715890
  H -3.441466 1.802040 2.469257
  H -3.786115 -1.234026 2.245400
  H -3.937919 1.374134 -0.117401
  H 0.961605 1.554689 1.471174
  H 0.914140 -1.609357 -1.028234
  H 5.449066 0.030387 -0.293693
  H 4.828096 -2.646281 -2.191575
  H 13.745834 0.615877 -2.004751
  H 9.433174 -4.605529 -6.230488
 17
 1502.820558
  C -4.567409 1.441235 2.115111
  C -0.693597 0.633137 1.434306
  C 0.504106 -0.460333 -0.358108
  C 4.834225 -1.395646 -0.754939
  C 5.296497 -2.287813 -2.087491
  C 12.782299 -2.185448 -3.749622
  C 13.599695 -2.458690 -5.632101
  H 18.996045 -1.975383 -7.166850
  H -5.049317 2.253841 3.602913
  H -6.196857 -0.870493 1.881123
  H -5.253542 3.328810 0.704299
  H 0.464164 1.036159 2.513809
  H 0.233931 -1.033382 -1.612813
  H 5.608361 -0.985770 0.040808
  H 4.782306 -2.563982 -2.971891
  H 16.515967 -1.489527 -0.806187
  H 9.867759 -3.423245 -8.348116
 17
 1583.256463
  C -5.778819 1.666574 2.386029
  C -1.139934 0.899330 1.748451
  C 0.185588 -0.544802 0.153506
  C 5.105460 -1.381472 -0.452268
  C 5.543562 -2.572372 -1.604699
  C 13.807775 -2.317215 -4.391431
  C 14.531824 -2.735251 -6.366316
  H 20.456938 -1.999271 -8.569968
  H -6.291792 2.853417 3.688995
  H -7.330616 -1.008905 2.792513
  H -6.759610 3.360767 0.542245
  H 0.007239 1.681118 2.712278
  H -0.083430 -1.443303 -0.969760
  H 5.915050 -0.743255 0.152152
  H 5.005260 -3.010900 -2.435762
  H 18.881827 -0.740960 -2.044530
  H 9.704871 -4.462613 -8.641671
 17
 970.180712
  C -4.217035 0.993781 1.447297
  C -0.078338 0.688876 1.500715
  C 0.792677 -0.269993 0.383407
  C 5.116229 -1.039718 -0.359724
  C 5.299978 -1.981935 -1.360847
  C 12.252174 -2.249738 -4.090130
  C 12.628154 -2.522591 -5.541522
  H 17.657485 -1.961467 -7.376623
  H -4.565267 1.850253 2.489669
  H -5.090490 -1.056671 1.587743
  H -4.931145 2.131616 -0.001572
  H 0.461382 1.428940 2.410105
  H 0.563353 -0.984424 -0.585410
  H 5.796845 -0.442397 0.262172
  H 4.780962 -2.312427 -2.248315
  H 16.749583 -1.108641 -2.441349
  H 8.598133 -3.717825 -7.477678
 17
 515.438923
  C -2.772582 0.392460 0.708369
  C 0.636033 0.519678 1.289473
  C 1.216521 -0.211531 0.505762
  C 4.975966 -0.664833 -0.296745
  C 5.021872 -1.522674 -1.124668
  C 10.890778 -2.104051 -3.883650
  C 11.004230 -2.411388 -5.019935
  H 15.313151 -2.030739 -6.593890
  H -2.900403 1.025944 1.572507
  H -2.875015 -0.639990 0.789243
  H -2.991308 0.864463 -0.238997
  H 0.683323 1.258549 2.057769
  H 1.081537 -0.895675 -0.316084
  H 5.447275 0.025204 0.338667
  H 4.591170 -1.946656 -1.989991
  H 14.527811 -0.899203 -2.896561
  H 8.041931 -3.360307 -6.396014
 17
 466.989654
  C -1.064632 0.357214 0.677403
  C 1.139446 0.104037 0.986055
  C 1.650244 -0.392555 -0.050846
  C 4.598213 -0.843548 -0.636911
  C 4.577694 -1.328733 -1.726782
  C 9.500676 -1.784243 -3.458322
  C 9.811803 -2.040808 -4.613442
  H 13.459825 -1.864646 -5.459429
  H -1.202807 0.655028 1.688981
  H -1.331052 -0.578046 0.358955
  H -1.162769 1.169429 0.019004
  H 1.266468 0.424951 1.947632
  H 1.422949 -0.820861 -0.954523
  H 5.085409 -0.502146 0.240282
  H 4.299323 -1.329717 -2.714248
  H 11.448436 -1.269637 -2.154873
  H 8.497324 -2.587409 -5.716960
 17
 250.510487
  C 0.288560 0.052265 0.048037
  C 1.782253 0.011680 0.433002
  C 2.636730 -0.608972 -0.354446
  C 4.652084 -0.402052 -0.449701
  C 4.912385 -1.104464 -1.444514
  C 8.293138 -1.264093 -2.845749
  C 8.392722 -2.022642 -3.802490
  H 10.290981 -2.245781 -4.492112
  H -0.239420 0.543676 0.864590
  H -0.088798 -0.979313 -0.158049
  H 0.187515 0.655760 -0.908450
  H 1.963473 0.464974 1.388519
  H 2.577016 -1.410954 -1.106532
  H 5.094658 0.193861 0.285869
  H 4.685483 -1.197492 -2.488396
  H 9.058846 -0.672347 -2.383219
  H 7.634371 -2.660921 -4.234427
 17
 33.781701
  C 1.042184 -0.085849 -0.114042
  C 2.463769 -0.289237 0.337675
  C 3.486953 -0.337476 -0.468607
  C 4.623496 -0.061647 -1.032220
  C 5.205374 -1.039401 -2.004750
  C 6.676572 -1.246564 -2.097601
  C 7.271486 -1.956254 -3.034992
  H 8.339955 -2.073445 -3.066966
  H 0.356402 -0.043508 0.726800
  H 0.744149 -0.854745 -0.819327
  H 0.968566 0.861032 -0.653468
  H 2.589530 -0.581451 1.381061
  H 4.511866 -1.890547 -1.879116
  H 5.115251 0.906125 -0.928448
  H 4.862094 -0.928056 -3.064474
  H 7.242131 -0.804004 -1.289937
  H 6.725382 -2.456572 -3.819941
