 17
 0.000000
  C 1.007849 -0.071122 0.048436
  C 2.503790 -0.082479 0.026143
  C 3.220123 -0.594500 -0.979043
  C 4.656567 -0.606247 -1.002102
  C 5.378016 -1.121376 -2.013385
  C 6.815253 -1.131957 -2.034154
  C 7.531026 -1.641564 -3.034605
  H 8.603893 -1.654055 -3.059123
  H 0.643901 0.394392 0.962312
  H 0.612957 -1.085544 0.007195
  H 0.612959 0.491958 -0.796370
  H 3.004767 0.352515 0.880110
  H 2.709807 -1.027873 -1.829816
  H 5.161204 -0.171581 -0.148783
  H 4.874083 -1.556106 -2.866833
  H 7.321133 -0.697449 -1.181143
  H 7.035395 -2.077418 -3.890246
 17
 10.511497
  C 0.867752 -0.055950 0.078221
  C 2.497352 -0.076151 0.038567
  C 3.185307 -0.587932 -0.966143
  C 4.747660 -0.607853 -1.005249
  C 5.445458 -1.123974 -2.018479
  C 6.885432 -1.144867 -2.059497
  C 7.583906 -1.658770 -3.068384
  H 8.658792 -1.675025 -3.100298
  H 0.523074 0.410705 0.994331
  H 0.478173 -1.067896 0.037895
  H 0.478174 0.506415 -0.764048
  H 3.002476 0.356342 0.887621
  H 2.672839 -1.019081 -1.812554
  H 5.255616 -0.175644 -0.156754
  H 4.927363 -1.555441 -2.865523
  H 7.403948 -0.713262 -1.212188
  H 7.079803 -2.091890 -3.918663
 17
 29.186224
  C 0.768572 -0.038287 0.092293
  C 2.510456 -0.081926 0.065240
  C 3.156540 -0.595172 -0.949343
  C 4.822409 -0.603626 -0.990139
  C 5.488916 -1.124473 -2.011829
  C 6.928678 -1.158328 -2.080100
  C 7.604363 -1.674535 -3.103931
  H 8.678982 -1.670953 -3.148315
  H 0.437209 0.319562 1.052661
  H 0.433626 -1.054680 -0.110339
  H 0.373083 0.630364 -0.667257
  H 2.985988 0.366525 0.921942
  H 2.677369 -1.042489 -1.805390
  H 5.302829 -0.164219 -0.133228
  H 4.955426 -1.559095 -2.847530
  H 7.460461 -0.722625 -1.245055
  H 7.094381 -2.105426 -3.949015
 17
 55.605134
  C 0.622212 -0.035334 0.113341
  C 2.507889 -0.068253 0.081482
  C 3.124888 -0.588157 -0.941157
  C 4.907545 -0.603389 -0.980239
  C 5.548734 -1.127221 -2.011170
  C 6.987753 -1.160710 -2.107834
  C 7.644911 -1.686126 -3.144966
  H 8.719755 -1.711708 -3.189598
  H 0.332840 0.325374 1.091785
  H 0.307305 -1.043082 -0.077238
  H 0.297961 0.641042 -0.664404
  H 2.957368 0.387882 0.939694
  H 2.668168 -1.041643 -1.802740
  H 5.369477 -0.155734 -0.119006
  H 5.002424 -1.555939 -2.838802
  H 7.533810 -0.732653 -1.278054
  H 7.121299 -2.119458 -3.981842
 17
 83.540167
  C 0.476675 -0.020469 0.124242
  C 2.520915 -0.070768 0.103491
  C 3.100128 -0.592833 -0.917493
  C 4.984259 -0.597917 -0.966610
  C 5.593069 -1.124072 -2.001167
  C 7.047391 -1.162808 -2.132350
  C 7.680972 -1.699664 -3.187885
  H 8.757209 -1.736245 -3.251448
  H 0.232131 0.341794 1.105893
  H 0.183813 -1.039255 -0.066337
  H 0.224972 0.664128 -0.666847
  H 2.934476 0.391131 0.969427
  H 2.677932 -1.049432 -1.778040
  H 5.424212 -0.143735 -0.105358
  H 5.027176 -1.555702 -2.817515
  H 7.615401 -0.733628 -1.312666
  H 7.136365 -2.142256 -4.009484
 17
 109.653178
  C 0.325585 -0.011310 0.132051
  C 2.547448 -0.064615 0.126471
  C 3.096340 -0.588824 -0.897671
  C 5.063158 -0.594692 -0.952303
  C 5.651284 -1.127309 -2.001138
  C 7.098130 -1.170054 -2.163738
  C 7.697298 -1.706238 -3.218870
  H 8.767794 -1.760344 -3.297917
  H 0.118003 0.352947 1.121912
  H 0.069873 -1.034830 -0.055859
  H 0.134207 0.674931 -0.669554
  H 2.920618 0.411621 1.012674
  H 2.703391 -1.055487 -1.774969
  H 5.485611 -0.135378 -0.085659
  H 5.068028 -1.559857 -2.811413
  H 7.684125 -0.744836 -1.356151
  H 7.135447 -2.153946 -4.019675
 17
 131.683994
  C 0.167189 -0.007715 0.141255
  C 2.594759 -0.050355 0.144080
  C 3.111031 -0.573448 -0.873820
  C 5.132351 -0.582467 -0.942377
  C 5.699003 -1.122817 -1.999004
  C 7.145023 -1.188907 -2.184928
  C 7.713220 -1.731328 -3.244286
  H 8.784109 -1.788053 -3.350900
  H -0.011305 0.356400 1.132614
  H -0.044241 -1.040586 -0.049976
  H 0.004808 0.681150 -0.662951
  H 2.920534 0.424113 1.030041
  H 2.749932 -1.041922 -1.750909
  H 5.548433 -0.120885 -0.074176
  H 5.104191 -1.547203 -2.795368
  H 7.749549 -0.769988 -1.390705
  H 7.127783 -2.161501 -4.042707
 17
 148.514692
  C 0.002001 0.006414 0.146672
  C 2.645603 -0.045955 0.171332
  C 3.134774 -0.570861 -0.847587
  C 5.199597 -0.587611 -0.930842
  C 5.746396 -1.131100 -1.992247
  C 7.183049 -1.193514 -2.206795
  C 7.732235 -1.737549 -3.284679
  H 8.799472 -1.796173 -3.410869
  H -0.155747 0.372719 1.138079
  H -0.182896 -1.029242 -0.041203
  H -0.125225 0.693284 -0.664045
  H 2.941192 0.439359 1.067709
  H 2.790402 -1.044521 -1.737149
  H 5.617748 -0.125393 -0.061167
  H 5.139362 -1.559971 -2.778500
  H 7.800284 -0.769089 -1.428596
  H 7.133398 -2.184680 -4.060304
 17
 131.688518
  C -0.348740 0.044240 -0.056786
  C 3.104033 -0.111097 0.437517
  C 3.677562 -0.616013 -0.615035
  C 5.133240 -0.627822 -0.881636
  C 5.669007 -1.172513 -1.977259
  C 7.092420 -1.181863 -2.250443
  C 7.624255 -1.681032 -3.361408
  H 8.684715 -1.698241 -3.526461
  H -0.528726 0.457506 0.915645
  H -0.446637 -1.005030 -0.209091
  H -0.227573 0.692480 -0.896767
  H 3.223099 0.423452 1.346514
  H 3.084188 -1.087960 -1.391243
  H 5.760984 -0.168705 -0.136313
  H 5.026092 -1.629531 -2.728504
  H 7.733348 -0.751090 -1.484624
  H 7.015835 -2.148090 -4.114701
 17
 119.763765
  C 0.001604 -0.042150 0.001353
  C 2.873786 -0.048385 0.277032
  C 3.496448 -0.508898 -0.780216
  C 4.945451 -0.583724 -0.934961
  C 5.537610 -1.089388 -2.019415
  C 6.966676 -1.148447 -2.188149
  C 7.590946 -1.800532 -3.224004
  H 8.659635 -1.776038 -3.352909
  H -0.134580 0.313553 0.998157
  H -0.017360 -1.090126 -0.201662
  H 0.072452 0.654917 -0.802939
  H 3.059102 0.382961 1.232094
  H 2.936586 -0.885777 -1.626859
  H 5.542349 -0.211109 -0.112837
  H 4.937552 -1.488030 -2.828470
  H 7.553514 -0.660187 -1.419411
  H 7.028786 -2.252690 -4.026879
