 19
 0.000000
  C -1.050159 -0.166583 -0.037888
  C -1.442409 -1.466855 0.588719
  C -0.723037 -2.662501 0.007175
  C -1.259725 -1.619540 2.148562
  C -0.516161 -0.516141 2.811260
  O -1.676920 -2.585525 2.698603
  H -1.314266 -0.193929 -1.097159
  H 0.027503 0.004684 -0.006655
  H -1.582310 0.674114 0.399101
  H -2.530899 -1.590954 0.508183
  H 0.355409 -2.593573 0.148312
  H -0.890698 -2.680784 -1.070397
  H -1.073871 -3.591052 0.449009
  H -0.240913 0.294949 2.153456
  H 0.375226 -0.967563 3.252154
  H -1.138458 -0.158794 3.633665
  O 2.312601 0.028756 -0.045646
  H 2.991430 0.293939 0.580571
  H 2.771868 -0.385738 -0.781222
 19
 0.128782
  C -0.958438 -0.191582 -0.082032
  C -1.396932 -1.452996 0.569676
  C -0.685767 -2.694299 0.057169
  C -1.261874 -1.541292 2.142810
  C -0.491179 -0.442606 2.773411
  O -1.748727 -2.453967 2.727744
  H -1.178702 -0.254229 -1.147407
  H 0.126202 -0.050033 -0.038457
  H -1.481038 0.675945 0.301637
  H -2.488455 -1.548495 0.483309
  H 0.387773 -2.633360 0.223033
  H -0.824094 -2.757865 -1.021031
  H -1.066218 -3.594952 0.526759
  H -0.145762 0.311844 2.079691
  H 0.354699 -0.909466 3.281446
  H -1.125202 -0.005436 3.545939
  O 2.082521 -0.070494 0.004914
  H 2.751140 0.222885 0.649594
  H 2.563036 -0.493085 -0.726550
 19
 2.293720
  C -0.890863 -0.194578 -0.080503
  C -1.353117 -1.438688 0.559258
  C -0.654602 -2.697473 0.046428
  C -1.256894 -1.517253 2.132089
  C -0.460785 -0.454410 2.790747
  O -1.761980 -2.424373 2.725171
  H -1.067203 -0.245001 -1.154509
  H 0.206992 -0.076997 -0.024991
  H -1.406904 0.671659 0.303815
  H -2.426688 -1.517806 0.448880
  H 0.410276 -2.651824 0.239143
  H -0.775998 -2.764891 -1.031908
  H -1.055636 -3.586736 0.504104
  H -0.073389 0.289619 2.110642
  H 0.354328 -0.954084 3.320157
  H -1.090731 0.007582 3.551432
  O 1.883072 -0.086910 0.006989
  H 2.529919 0.212018 0.628967
  H 2.352402 -0.475642 -0.719985
 19
 6.194893
  C -0.846687 -0.192143 -0.079821
  C -1.329329 -1.440019 0.564682
  C -0.647280 -2.719015 0.039232
  C -1.257376 -1.515583 2.127601
  C -0.447405 -0.469962 2.816251
  O -1.783630 -2.413428 2.719939
  H -0.979212 -0.243419 -1.166752
  H 0.316789 -0.092430 -0.004124
  H -1.351147 0.697108 0.309057
  H -2.405444 -1.507593 0.428579
  H 0.413790 -2.697448 0.251817
  H -0.763260 -2.786944 -1.037762
  H -1.075421 -3.605098 0.495200
  H -0.032834 0.268969 2.141480
  H 0.344322 -0.985249 3.364420
  H -1.080629 0.004486 3.567024
  O 1.777859 -0.070111 -0.013513
  H 2.437580 0.274585 0.613686
  H 2.241094 -0.442116 -0.774422
 19
 10.107939
  C -0.828318 -0.201252 -0.075295
  C -1.306264 -1.444140 0.577795
  C -0.646520 -2.727266 0.027071
  C -1.236814 -1.510136 2.116675
  C -0.431800 -0.477175 2.824199
  O -1.774334 -2.412985 2.714415
  H -0.901873 -0.251395 -1.154694
  H 0.419963 -0.102798 0.011593
  H -1.287486 0.697489 0.310397
  H -2.401904 -1.512241 0.409856
  H 0.418179 -2.733396 0.248732
  H -0.774851 -2.789657 -1.048688
  H -1.093715 -3.607709 0.482395
  H -0.012271 0.266952 2.158124
  H 0.351152 -0.989009 3.379677
  H -1.068377 -0.003474 3.569784
  O 1.707635 -0.075369 -0.009233
  H 2.339774 0.318128 0.619082
  H 2.148082 -0.412195 -0.789676
 19
 12.133666
  C -0.840246 -0.215173 -0.071331
  C -1.301378 -1.454817 0.578694
  C -0.645029 -2.725129 0.017649
  C -1.222698 -1.514860 2.111627
  C -0.413165 -0.479684 2.832483
  O -1.781569 -2.408940 2.711599
  H -0.873179 -0.259803 -1.157392
  H 0.520368 -0.098223 0.008040
  H -1.259161 0.700956 0.328064
  H -2.384799 -1.530966 0.394555
  H 0.416017 -2.733070 0.244693
  H -0.776940 -2.781656 -1.058987
  H -1.090199 -3.608381 0.467305
  H 0.016094 0.264886 2.175506
  H 0.365976 -0.992160 3.395762
  H -1.051276 0.000171 3.572359
  O 1.673440 -0.116190 0.009624
  H 2.255760 0.339657 0.638001
  H 2.108135 -0.383419 -0.815835
 19
 12.414617
  C -0.860184 -0.219867 -0.072170
  C -1.312553 -1.457271 0.587312
  C -0.651676 -2.726410 0.016953
  C -1.222324 -1.519462 2.116022
  C -0.405743 -0.491645 2.833041
  O -1.787857 -2.410183 2.718161
  H -0.872953 -0.265605 -1.155636
  H 0.641124 -0.101430 -0.002687
  H -1.245519 0.708159 0.329606
  H -2.397323 -1.551838 0.400876
  H 0.413375 -2.728542 0.241536
  H -0.786936 -2.774292 -1.059863
  H -1.090417 -3.611906 0.465969
  H 0.012236 0.256103 2.176084
  H 0.382612 -1.007960 3.386620
  H -1.041407 -0.014988 3.583987
  O 1.696567 -0.162724 0.024678
  H 2.225729 0.386237 0.630777
  H 2.128989 -0.318708 -0.831936
 19
 13.019075
  C -0.910342 -0.222136 -0.064035
  C -1.342031 -1.469143 0.593213
  C -0.654432 -2.714270 0.025049
  C -1.246810 -1.528094 2.121886
  C -0.410128 -0.509069 2.836431
  O -1.812861 -2.419789 2.726119
  H -0.896796 -0.258909 -1.138494
  H 0.790771 -0.109966 -0.001173
  H -1.274680 0.712216 0.348697
  H -2.420366 -1.587304 0.396468
  H 0.410878 -2.699962 0.258541
  H -0.788769 -2.761051 -1.047144
  H -1.083061 -3.604895 0.468904
  H 0.000105 0.235232 2.179519
  H 0.377884 -1.029726 3.372374
  H -1.028400 -0.030498 3.593134
  O 1.785588 -0.185525 0.007803
  H 2.258947 0.439257 0.586001
  H 2.191334 -0.265550 -0.875675
 19
 15.342086
  C -0.954086 -0.220028 -0.045170
  C -1.376722 -1.474146 0.611685
  C -0.661299 -2.727356 0.033200
  C -1.282294 -1.535018 2.131376
  C -0.430837 -0.530588 2.841260
  O -1.846069 -2.426213 2.738372
  H -0.917173 -0.248991 -1.121734
  H 0.955046 -0.087581 -0.011616
  H -1.300590 0.711800 0.370984
  H -2.453275 -1.610886 0.410624
  H 0.401479 -2.698017 0.272792
  H -0.796173 -2.769835 -1.045850
  H -1.084913 -3.626123 0.473406
  H -0.013908 0.213265 2.175823
  H 0.362559 -1.071965 3.375509
  H -1.040094 -0.039703 3.613161
  O 1.900848 -0.163909 -0.027056
  H 2.354453 0.515256 0.518346
  H 2.269356 -0.197553 -0.934206
 19
 18.693263
  C -1.035369 -0.231858 -0.032990
  C -1.430968 -1.497085 0.625101
  C -0.688803 -2.728913 0.033536
  C -1.304094 -1.561256 2.146313
  C -0.436604 -0.547071 2.838762
  O -1.862525 -2.447601 2.765326
  H -0.979785 -0.264993 -1.104597
  H 1.161216 -0.041791 -0.016634
  H -1.384943 0.687913 0.392935
  H -2.507340 -1.657348 0.433984
  H 0.368549 -2.667237 0.259064
  H -0.838921 -2.761214 -1.041806
  H -1.091155 -3.636891 0.472579
  H -0.054490 0.201525 2.157240
  H 0.360606 -1.066478 3.362494
  H -1.035267 -0.053063 3.601862
  O 2.071962 -0.123169 -0.046100
  H 2.519457 0.572406 0.483337
  H 2.419034 -0.132558 -0.965313
 19
 23.316940
  C -1.114121 -0.237553 -0.024580
  C -1.480931 -1.495763 0.645906
  C -0.723392 -2.752901 0.030866
  C -1.325684 -1.572491 2.156626
  C -0.463533 -0.551146 2.832303
  O -1.859701 -2.470768 2.781363
  H -1.054554 -0.273457 -1.099542
  H 1.369479 0.029288 -0.024978
  H -1.474934 0.682632 0.399272
  H -2.551968 -1.699382 0.464762
  H 0.337462 -2.680137 0.242084
  H -0.893714 -2.782710 -1.040878
  H -1.114427 -3.658967 0.483775
  H -0.099540 0.194700 2.139290
  H 0.364546 -1.070575 3.315178
  H -1.037551 -0.078679 3.628944
  O 2.254282 -0.057385 -0.067042
  H 2.708755 0.638091 0.459075
  H 2.589945 -0.066738 -0.991735
 19
 24.382090
  C -1.239094 -0.259806 -0.005438
  C -1.559231 -1.529221 0.657276
  C -0.775317 -2.752516 0.037276
  C -1.366040 -1.605620 2.167163
  C -0.505659 -0.568169 2.819335
  O -1.860595 -2.517602 2.804487
  H -1.173522 -0.282729 -1.081567
  H 1.655134 0.142455 -0.048555
  H -1.616133 0.652531 0.420438
  H -2.628006 -1.776318 0.514376
  H 0.287217 -2.635573 0.230301
  H -0.975680 -2.793821 -1.024736
  H -1.124186 -3.659544 0.514071
  H -0.183650 0.185405 2.113754
  H 0.346387 -1.069198 3.271030
  H -1.060780 -0.111347 3.634849
  O 2.531297 0.033121 -0.119130
  H 3.021608 0.688893 0.425686
  H 2.849648 0.010688 -1.049468
 19
 23.100885
  C -1.368119 -0.287659 0.016072
  C -1.643385 -1.572773 0.681776
  C -0.848367 -2.763194 0.048846
  C -1.423256 -1.639831 2.195437
  C -0.549385 -0.594558 2.815710
  O -1.912452 -2.547670 2.852922
  H -1.298319 -0.304651 -1.057561
  H 1.990859 0.292710 -0.080471
  H -1.765812 0.610628 0.447598
  H -2.702925 -1.843110 0.550160
  H 0.213307 -2.607611 0.193336
  H -1.084576 -2.822318 -1.010225
  H -1.149107 -3.672825 0.543835
  H -0.259237 0.153318 2.089798
  H 0.321748 -1.077204 3.259514
  H -1.093821 -0.131953 3.630007
  O 2.868251 0.133902 -0.178410
  H 3.390907 0.768415 0.344077
  H 3.150092 0.147986 -1.118426
 19
 23.276805
  C -1.454251 -0.331075 0.007707
  C -1.696919 -1.600234 0.709518
  C -0.962680 -2.820081 0.039630
  C -1.444569 -1.654907 2.215266
  C -0.556880 -0.601799 2.801611
  O -1.909395 -2.562667 2.893330
  H -1.359551 -0.347367 -1.064970
  H 2.281708 0.485715 -0.097860
  H -1.860123 0.562429 0.432122
  H -2.754838 -1.869482 0.573577
  H 0.111310 -2.697356 0.125487
  H -1.254138 -2.869298 -0.999628
  H -1.272472 -3.723845 0.549700
  H -0.280445 0.129421 2.055508
  H 0.323010 -1.081521 3.232531
  H -1.081388 -0.121513 3.624399
  O 3.153361 0.297496 -0.193946
  H 3.685547 0.914853 0.333011
  H 3.439201 0.278281 -1.130830
