 28
 0.000000
  C 0.960939 0.141804 0.404076
  C 2.434635 0.138619 0.395754
  C 3.226106 0.604907 1.556084
  C 2.460865 1.097025 2.781148
  C 3.424902 1.537770 3.878355
  C 3.047918 -0.327198 -0.763903
  C 4.431349 -0.411170 -0.973853
  C 5.102794 -0.858258 -2.088540
  C 4.624980 -1.377999 -3.383745
  C 3.140371 -1.502240 -3.693274
  H 3.003682 -1.902210 -4.690167
  H 6.182536 -0.848756 -2.065383
  H 0.531833 0.512804 1.327363
  H 0.588048 -0.869374 0.234418
  H 0.587760 0.754297 -0.418070
  H 3.884519 1.413197 1.217690
  H 3.884637 -0.212734 1.870937
  H 1.824269 0.302302 3.174500
  H 1.824264 1.942996 2.515436
  H 4.060647 0.713501 4.194106
  H 2.871881 1.886666 4.746993
  H 4.060638 2.351416 3.536142
  H 2.388487 -0.644659 -1.553905
  H 5.046902 -0.079011 -0.146592
  H 5.090618 -2.364505 -3.506228
  H 5.090631 -0.749831 -4.154215
  H 2.656621 -0.528450 -3.651821
  H 2.656683 -2.177380 -2.990257
 28
 -0.296080
  C 0.949829 0.091688 0.435048
  C 2.420388 0.089498 0.419487
  C 3.214474 0.592959 1.558584
  C 2.459757 1.122592 2.772390
  C 3.437718 1.597970 3.842585
  C 3.033843 -0.406290 -0.727680
  C 4.420306 -0.490997 -0.934455
  C 5.079922 -0.932786 -2.055853
  C 4.625428 -1.358478 -3.383102
  C 3.148102 -1.411801 -3.729840
  H 3.039725 -1.718787 -4.766734
  H 6.161746 -0.942561 -1.976843
  H 0.528367 0.487058 1.350382
  H 0.578760 -0.921628 0.276986
  H 0.572611 0.668878 -0.410071
  H 3.877468 1.385328 1.191683
  H 3.886906 -0.206580 1.890458
  H 1.830990 0.338682 3.198021
  H 1.822078 1.960302 2.485154
  H 4.078098 0.783995 4.174925
  H 2.898646 1.974542 4.707766
  H 4.069230 2.399076 3.465832
  H 2.377781 -0.757601 -1.505286
  H 5.060444 -0.167894 -0.124416
  H 5.073489 -2.346203 -3.558298
  H 5.143928 -0.712905 -4.104769
  H 2.682163 -0.435347 -3.625115
  H 2.623756 -2.140124 -3.115950
 28
 0.052490
  C 0.948662 0.057645 0.454062
  C 2.422626 0.043433 0.438471
  C 3.218954 0.576076 1.562190
  C 2.462257 1.149166 2.758227
  C 3.436817 1.645351 3.815689
  C 3.033223 -0.492789 -0.693095
  C 4.415024 -0.576448 -0.905168
  C 5.074687 -1.002926 -2.033407
  C 4.631294 -1.330934 -3.391906
  C 3.154713 -1.336192 -3.746466
  H 3.043692 -1.567633 -4.801634
  H 6.155610 -1.036702 -1.945724
  H 0.529800 0.477381 1.359254
  H 0.568715 -0.953044 0.307852
  H 0.578148 0.626646 -0.402673
  H 3.883783 1.354825 1.170465
  H 3.882768 -0.213544 1.916642
  H 1.826418 0.382804 3.199885
  H 1.833663 1.979366 2.440360
  H 4.070860 0.836388 4.170723
  H 2.899341 2.050450 4.668245
  H 4.076621 2.428896 3.418690
  H 2.373702 -0.883290 -1.456556
  H 5.062157 -0.234046 -0.106423
  H 5.053971 -2.322553 -3.625875
  H 5.171509 -0.656635 -4.068290
  H 2.704027 -0.363821 -3.571937
  H 2.621644 -2.098788 -3.189063
 28
 0.432611
  C 0.936881 0.056189 0.447110
  C 2.413985 0.044831 0.435009
  C 3.214548 0.583776 1.560398
  C 2.466849 1.146463 2.761291
  C 3.454467 1.651092 3.819995
  C 3.028770 -0.493530 -0.691001
  C 4.409082 -0.588238 -0.897563
  C 5.062745 -1.034932 -2.020396
  C 4.635749 -1.332046 -3.391453
  C 3.163530 -1.323030 -3.763103
  H 3.059499 -1.545361 -4.822055
  H 6.140650 -1.081586 -1.922695
  H 0.516153 0.481867 1.347339
  H 0.559319 -0.959514 0.321183
  H 0.564134 0.613449 -0.414887
  H 3.875444 1.371260 1.164338
  H 3.894984 -0.205468 1.909886
  H 1.835450 0.375796 3.210673
  H 1.828864 1.977806 2.455607
  H 4.097839 0.846747 4.167606
  H 2.918954 2.049970 4.681086
  H 4.086617 2.445543 3.419135
  H 2.377969 -0.888087 -1.453179
  H 5.066519 -0.238361 -0.112527
  H 5.050495 -2.317721 -3.630235
  H 5.205903 -0.669126 -4.054978
  H 2.719631 -0.349158 -3.587591
  H 2.615593 -2.085999 -3.211690
 28
 0.607345
  C 0.953767 -0.056337 0.493864
  C 2.420615 -0.022461 0.460679
  C 3.215032 0.582881 1.550721
  C 2.466153 1.167727 2.740057
  C 3.450195 1.735369 3.766631
  C 3.038052 -0.581153 -0.658926
  C 4.418998 -0.638670 -0.884498
  C 5.067410 -1.073173 -2.013667
  C 4.638778 -1.291668 -3.405684
  C 3.162021 -1.249483 -3.763670
  H 3.047997 -1.370807 -4.836535
  H 6.141295 -1.161664 -1.910922
  H 0.535596 0.370481 1.386484
  H 0.607212 -1.082443 0.385599
  H 0.553780 0.474017 -0.369139
  H 3.844864 1.374925 1.117614
  H 3.923868 -0.168595 1.923723
  H 1.862042 0.396255 3.225611
  H 1.800712 1.969785 2.414451
  H 4.120110 0.964517 4.132576
  H 2.916437 2.142216 4.616114
  H 4.046269 2.531550 3.336046
  H 2.388741 -1.030143 -1.394325
  H 5.078547 -0.269211 -0.106446
  H 5.059908 -2.261627 -3.712130
  H 5.192053 -0.570035 -4.016773
  H 2.716047 -0.298472 -3.489455
  H 2.621795 -2.060118 -3.282033
 28
 1.027506
  C 0.937876 -0.041441 0.484755
  C 2.412424 -0.065953 0.465212
  C 3.222093 0.541008 1.545949
  C 2.480122 1.212423 2.699941
  C 3.472231 1.778432 3.717177
  C 3.015725 -0.665854 -0.634086
  C 4.393962 -0.792167 -0.842007
  C 5.041896 -1.233425 -1.972393
  C 4.656041 -1.288892 -3.384529
  C 3.192311 -1.115159 -3.763151
  H 3.095110 -1.115215 -4.846360
  H 6.094349 -1.457218 -1.830577
  H 0.524580 0.395039 1.386368
  H 0.550122 -1.053986 0.362299
  H 0.564804 0.517020 -0.379891
  H 3.901406 1.274585 1.098569
  H 3.873143 -0.237859 1.960182
  H 1.834932 0.490607 3.205875
  H 1.859434 2.025887 2.327046
  H 4.099125 0.991534 4.127891
  H 2.940794 2.250742 4.544498
  H 4.115050 2.528290 3.259701
  H 2.357814 -1.106688 -1.362182
  H 5.063232 -0.473492 -0.046885
  H 5.044736 -2.226866 -3.800912
  H 5.251172 -0.511082 -3.873671
  H 2.800677 -0.173721 -3.394031
  H 2.590619 -1.934283 -3.376458
 28
 3.064083
  C 0.914202 -0.169772 0.537130
  C 2.385816 -0.184374 0.489139
  C 3.211014 0.537317 1.485002
  C 2.489704 1.214741 2.646627
  C 3.493131 1.900944 3.567979
  C 2.975529 -0.855551 -0.576075
  C 4.348270 -1.026426 -0.776088
  C 5.003960 -1.410116 -1.924257
  C 4.668254 -1.285823 -3.343810
  C 3.282780 -0.783742 -3.716401
  H 3.215691 -0.666545 -4.794217
  H 6.007441 -1.795146 -1.759279
  H 0.518262 0.311226 1.423497
  H 0.529583 -1.188650 0.475675
  H 0.522651 0.344467 -0.344444
  H 3.811261 1.291224 0.961510
  H 3.933361 -0.175633 1.901401
  H 1.936539 0.471304 3.226615
  H 1.784903 1.960685 2.276969
  H 4.195194 1.181696 3.983006
  H 2.978939 2.385101 4.396152
  H 4.058427 2.662348 3.032070
  H 2.313035 -1.358405 -1.262185
  H 5.027576 -0.676956 -0.006090
  H 4.863202 -2.251470 -3.825781
  H 5.429870 -0.617413 -3.766143
  H 3.080684 0.180477 -3.258418
  H 2.515193 -1.487881 -3.411783
 28
 5.474611
  C 0.893869 -0.214046 0.551356
  C 2.366353 -0.232899 0.476044
  C 3.212256 0.494873 1.445693
  C 2.510293 1.256215 2.568344
  C 3.534590 1.940996 3.468980
  C 2.935667 -0.962498 -0.561363
  C 4.302817 -1.184197 -0.744925
  C 4.986078 -1.505838 -1.898931
  C 4.691072 -1.208061 -3.304563
  C 3.317434 -0.646982 -3.634853
  H 3.264030 -0.415284 -4.694929
  H 5.965390 -1.948020 -1.740978
  H 0.514785 0.377772 1.378788
  H 0.517129 -1.233587 0.635861
  H 0.479686 0.175642 -0.380284
  H 3.824717 1.212700 0.890369
  H 3.919912 -0.210481 1.894119
  H 1.911896 0.572483 3.173491
  H 1.850119 2.019784 2.155022
  H 4.211627 1.213731 3.912838
  H 3.034370 2.471227 4.277216
  H 4.124342 2.664559 2.907654
  H 2.258968 -1.500385 -1.210056
  H 4.975382 -0.818189 0.019510
  H 4.870607 -2.119509 -3.887800
  H 5.471690 -0.511738 -3.633804
  H 3.125061 0.266185 -3.077500
  H 2.538277 -1.367593 -3.412125
 28
 9.123561
  C 0.865450 -0.349267 0.630056
  C 2.331243 -0.340539 0.500997
  C 3.199814 0.424241 1.425978
  C 2.517842 1.301477 2.473911
  C 3.560560 2.040874 3.306049
  C 2.883409 -1.089895 -0.532252
  C 4.239599 -1.317150 -0.738922
  C 4.943818 -1.611177 -1.892090
  C 4.700020 -1.171874 -3.273475
  C 3.445708 -0.349612 -3.534639
  H 3.399187 -0.079448 -4.585836
  H 5.841352 -2.207738 -1.763614
  H 0.502589 0.306290 1.412247
  H 0.525141 -1.365167 0.829236
  H 0.400965 -0.060444 -0.313408
  H 3.840998 1.077978 0.823100
  H 3.872551 -0.272079 1.934994
  H 1.904997 0.690899 3.139347
  H 1.878644 2.036196 1.989403
  H 4.213058 1.341292 3.826510
  H 3.076438 2.666370 4.053181
  H 4.174223 2.683385 2.678511
  H 2.195556 -1.631056 -1.166437
  H 4.931816 -0.943361 0.006456
  H 4.695288 -2.068028 -3.910320
  H 5.593732 -0.615150 -3.581829
  H 3.451592 0.565123 -2.952934
  H 2.553421 -0.911545 -3.290896
 28
 16.054550
  C 0.819366 -0.406290 0.699260
  C 2.280183 -0.397017 0.513679
  C 3.180488 0.434580 1.353103
  C 2.532375 1.329020 2.406198
  C 3.598311 2.094065 3.182975
  C 2.804268 -1.197797 -0.490882
  C 4.145896 -1.419859 -0.750575
  C 4.910883 -1.664269 -1.880015
  C 4.742305 -1.137299 -3.238495
  C 3.580340 -0.177117 -3.441890
  H 3.548251 0.152916 -4.478677
  H 5.701054 -2.403749 -1.771603
  H 0.487305 0.258907 1.483632
  H 0.486980 -1.419358 0.921730
  H 0.323011 -0.123820 -0.229158
  H 3.791093 1.068086 0.696690
  H 3.882204 -0.239018 1.862952
  H 1.958396 0.724949 3.111020
  H 1.858887 2.045882 1.933586
  H 4.261931 1.413826 3.703616
  H 3.136707 2.741009 3.921539
  H 4.192327 2.714650 2.519920
  H 2.103362 -1.772588 -1.083327
  H 4.916688 -0.997540 -0.096178
  H 4.638575 -1.999084 -3.909764
  H 5.690729 -0.659255 -3.519081
  H 3.688945 0.702803 -2.812218
  H 2.638009 -0.653773 -3.208608
 28
 23.400341
  C 0.774937 -0.379433 0.725993
  C 2.242419 -0.381515 0.527238
  C 3.173083 0.448827 1.358277
  C 2.555831 1.332891 2.436547
  C 3.643186 2.094944 3.178410
  C 2.740814 -1.207765 -0.460495
  C 4.060488 -1.395075 -0.788396
  C 4.884555 -1.635236 -1.857233
  C 4.804013 -1.132858 -3.241226
  C 3.637143 -0.189422 -3.517744
  H 3.657994 0.136307 -4.559594
  H 5.707206 -2.309910 -1.684292
  H 0.466257 0.241920 1.562791
  H 0.422768 -1.389887 0.892869
  H 0.268174 -0.025026 -0.183309
  H 3.762382 1.096645 0.685086
  H 3.885587 -0.223856 1.843862
  H 1.999835 0.726838 3.153221
  H 1.872608 2.051567 1.988589
  H 4.335272 1.409984 3.655977
  H 3.211182 2.723037 3.945902
  H 4.200736 2.730573 2.501119
  H 2.029468 -1.795887 -1.027212
  H 4.892678 -0.885766 -0.257739
  H 4.733797 -2.007678 -3.881571
  H 5.756719 -0.654336 -3.485550
  H 3.694588 0.687973 -2.880255
  H 2.677805 -0.690241 -3.336498
 28
 34.367660
  C 0.692683 -0.460389 0.880360
  C 2.138464 -0.467457 0.559650
  C 3.122196 0.424601 1.231903
  C 2.594249 1.320357 2.350860
  C 3.717392 2.180902 2.922536
  C 2.574310 -1.324684 -0.441141
  C 3.848423 -1.527757 -0.863908
  C 4.818027 -1.692102 -1.812990
  C 4.903696 -1.021611 -3.134749
  C 3.840442 0.043746 -3.369127
  H 3.965651 0.483512 -4.355727
  H 5.589363 -2.440074 -1.656585
  H 0.448084 0.210391 1.695747
  H 0.362456 -1.465161 1.142317
  H 0.114417 -0.165069 0.006464
  H 3.585800 1.067862 0.477622
  H 3.924001 -0.200073 1.646448
  H 2.175926 0.712534 3.152627
  H 1.809838 1.976619 1.970686
  H 4.505067 1.560977 3.344929
  H 3.336858 2.825651 3.713082
  H 4.152929 2.815146 2.151120
  H 1.831443 -1.932750 -0.948417
  H 4.819282 -1.094259 -0.402858
  H 4.800396 -1.827193 -3.875100
  H 5.904517 -0.605234 -3.263251
  H 3.918116 0.839389 -2.634933
  H 2.845191 -0.382786 -3.312859
 28
 39.143212
  C 0.684188 -0.465079 0.929678
  C 2.119026 -0.450093 0.562322
  C 3.122181 0.437577 1.220112
  C 2.613081 1.350536 2.333160
  C 3.752594 2.193453 2.898203
  C 2.533460 -1.295454 -0.461385
  C 3.781027 -1.493941 -0.929063
  C 4.811651 -1.662848 -1.800344
  C 4.953784 -0.973410 -3.113518
  C 3.882644 0.073680 -3.385362
  H 4.040267 0.521286 -4.362404
  H 5.556126 -2.435622 -1.621591
  H 0.453605 0.219860 1.736706
  H 0.382538 -1.469918 1.228873
  H 0.069042 -0.201821 0.067854
  H 3.587316 1.069244 0.454274
  H 3.920720 -0.189510 1.635080
  H 2.183203 0.755359 3.140706
  H 1.840513 2.018376 1.948655
  H 4.533274 1.561486 3.315878
  H 3.387217 2.843023 3.689894
  H 4.192210 2.820362 2.125508
  H 1.788911 -1.931645 -0.927005
  H 4.835387 -1.038457 -0.564512
  H 4.907001 -1.767164 -3.865045
  H 5.949644 -0.532003 -3.185620
  H 3.914338 0.867614 -2.643591
  H 2.892900 -0.372699 -3.372273
