 20
 0.000000
  C 1.007086 -0.071577 0.047544
  C 2.503381 -0.082286 0.026522
  C 3.219318 -0.595019 -0.980063
  C 4.656952 -0.605854 -1.001332
  C 5.377276 -1.121249 -2.013137
  C 6.815663 -1.131051 -2.032376
  C 7.533774 -1.642860 -3.037151
  C 9.025354 -1.661424 -3.073588
  H 0.644542 0.394576 0.962675
  H 0.611750 -1.086403 0.008724
  H 0.611750 0.493700 -0.796167
  H 3.003464 0.353179 0.881415
  H 2.708230 -1.028449 -1.830947
  H 5.161599 -0.171037 -0.147716
  H 4.873096 -1.556146 -2.866914
  H 7.322437 -0.696640 -1.179555
  H 7.032581 -2.079629 -3.894582
  H 9.462522 -1.207897 -2.183245
  H 9.384313 -1.115778 -3.947497
  H 9.384314 -2.689136 -3.146059
 20
 0.035724
  C 1.002491 -0.072297 0.061569
  C 2.499330 -0.106490 0.042549
  C 3.219851 -0.590218 -0.971907
  C 4.655929 -0.613734 -0.997537
  C 5.381183 -1.102329 -2.018462
  C 6.817535 -1.123210 -2.044188
  C 7.539026 -1.614424 -3.053901
  C 9.028099 -1.668398 -3.078918
  H 0.628959 0.206775 1.042776
  H 0.590055 -1.043856 -0.206410
  H 0.629537 0.651204 -0.663094
  H 3.007646 0.301091 0.907890
  H 2.713767 -0.999104 -1.839430
  H 5.160932 -0.205698 -0.134310
  H 4.873029 -1.509236 -2.889220
  H 7.321392 -0.713964 -1.176598
  H 7.036722 -2.018085 -3.923621
  H 9.456086 -0.977373 -2.355767
  H 9.406694 -1.426088 -4.072937
  H 9.370425 -2.676183 -2.833191
 20
 0.555369
  C 1.007858 -0.071883 0.062884
  C 2.500443 -0.128177 0.051035
  C 3.221178 -0.596631 -0.972020
  C 4.654269 -0.634281 -0.992369
  C 5.379527 -1.100663 -2.025553
  C 6.811599 -1.136966 -2.045929
  C 7.532643 -1.598240 -3.071884
  C 9.024660 -1.655457 -3.086160
  H 0.630641 0.106460 1.067061
  H 0.582449 -0.999436 -0.313236
  H 0.654475 0.735770 -0.580746
  H 3.009007 0.250507 0.931107
  H 2.716937 -0.976862 -1.849158
  H 5.160783 -0.259130 -0.111648
  H 4.871937 -1.477734 -2.908070
  H 7.315572 -0.760827 -1.166082
  H 7.026820 -1.971953 -3.952073
  H 9.451494 -0.762437 -2.631888
  H 9.402566 -1.750425 -4.101850
  H 9.373983 -2.515935 -2.515512
 20
 0.814865
  C 1.006900 -0.074027 0.069014
  C 2.498183 -0.165129 0.067118
  C 3.217400 -0.611805 -0.966083
  C 4.652801 -0.679597 -0.977304
  C 5.376645 -1.112621 -2.024211
  C 6.810606 -1.175097 -2.037035
  C 7.530798 -1.598156 -3.079801
  C 9.024484 -1.656466 -3.092255
  H 0.623551 0.060754 1.076658
  H 0.562539 -0.970564 -0.360298
  H 0.680449 0.774604 -0.534300
  H 3.005141 0.164739 0.963170
  H 2.710986 -0.946644 -1.863574
  H 5.160289 -0.354901 -0.075696
  H 4.869780 -1.439244 -2.923418
  H 7.315639 -0.856136 -1.134290
  H 7.022446 -1.918171 -3.980501
  H 9.447245 -0.659278 -2.960585
  H 9.393878 -2.066148 -4.028762
  H 9.391257 -2.275838 -2.273833
 20
 3.273831
  C 1.046311 0.089768 0.008383
  C 2.487810 -0.288750 0.117808
  C 3.207367 -0.774545 -0.900838
  C 4.641670 -0.816951 -0.921342
  C 5.367474 -1.224526 -1.981144
  C 6.801724 -1.202800 -2.025038
  C 7.524576 -1.588665 -3.080433
  C 9.017468 -1.531540 -3.133105
  H 0.592984 0.224567 0.987705
  H 0.475977 -0.656520 -0.546802
  H 0.966117 1.030415 -0.536106
  H 2.956655 -0.144405 1.083285
  H 2.699421 -1.153672 -1.780777
  H 5.150055 -0.465802 -0.030670
  H 4.857949 -1.575925 -2.869186
  H 7.304058 -0.860322 -1.129547
  H 7.013075 -1.917009 -3.977587
  H 9.359420 -0.508988 -3.311056
  H 9.404123 -2.157619 -3.933474
  H 9.448250 -1.858597 -2.188801
 20
 14.415376
  C 1.167099 0.272966 -0.077049
  C 2.441043 -0.459418 0.167388
  C 3.184893 -1.001656 -0.822626
  C 4.612636 -0.957243 -0.865635
  C 5.345019 -1.363588 -1.925450
  C 6.765538 -1.202170 -2.023764
  C 7.499884 -1.583532 -3.075945
  C 8.976641 -1.390493 -3.174238
  H 0.610131 0.443226 0.840116
  H 0.527185 -0.237526 -0.796935
  H 1.422640 1.240469 -0.506986
  H 2.790393 -0.504372 1.192427
  H 2.689941 -1.499270 -1.649711
  H 5.117734 -0.546163 0.001420
  H 4.837315 -1.793507 -2.781082
  H 7.258233 -0.770359 -1.162687
  H 7.002228 -1.966239 -3.957380
  H 9.201008 -0.384132 -3.534570
  H 9.419495 -2.095016 -3.873546
  H 9.449272 -1.507187 -2.200597
 20
 37.343403
  C 1.347233 0.388997 -0.157573
  C 2.376105 -0.583473 0.222136
  C 3.185171 -1.185986 -0.718590
  C 4.559453 -0.989305 -0.823755
  C 5.294189 -1.451462 -1.881638
  C 6.692814 -1.237840 -2.050930
  C 7.454511 -1.619757 -3.104625
  C 8.911990 -1.275094 -3.201852
  H 0.682231 0.624639 0.664345
  H 0.764092 0.080976 -1.024480
  H 1.881711 1.294123 -0.445672
  H 2.560951 -0.731389 1.272528
  H 2.752884 -1.868965 -1.435087
  H 5.061271 -0.470962 -0.006189
  H 4.758564 -1.966065 -2.673742
  H 7.177778 -0.731296 -1.229970
  H 6.974104 -2.044004 -3.986545
  H 9.037885 -0.263497 -3.596844
  H 9.452250 -1.950468 -3.866210
  H 9.377452 -1.306601 -2.217395
 20
 60.517769
  C 1.478049 0.462728 -0.026995
  C 2.282830 -0.748146 0.253942
  C 3.155460 -1.324710 -0.744453
  C 4.458249 -0.976545 -0.934858
  C 5.294524 -1.528701 -1.912426
  C 6.629321 -1.142846 -2.093602
  C 7.460452 -1.659114 -3.032695
  C 8.868238 -1.212524 -3.229654
  H 0.722754 0.627608 0.737654
  H 0.995919 0.389276 -1.004548
  H 2.120316 1.350576 -0.070055
  H 2.221081 -1.199729 1.233303
  H 2.729749 -2.087076 -1.393616
  H 4.883471 -0.218236 -0.288014
  H 4.889224 -2.291339 -2.564551
  H 7.015975 -0.381381 -1.426211
  H 7.089924 -2.418971 -3.707544
  H 8.908869 -0.384449 -3.942793
  H 9.480868 -2.018323 -3.628148
  H 9.302683 -0.863644 -2.292981
 20
 39.364487
  C 1.659222 0.507932 0.002378
  C 2.222806 -0.854577 0.189207
  C 3.103857 -1.439289 -0.722750
  C 4.397190 -0.982762 -0.991078
  C 5.260071 -1.573966 -1.870471
  C 6.567029 -1.096738 -2.124508
  C 7.434239 -1.670417 -2.978217
  C 8.800376 -1.142823 -3.254466
  H 0.843464 0.686885 0.694637
  H 1.301923 0.613796 -1.020009
  H 2.405930 1.297437 0.150711
  H 1.939099 -1.399559 1.079631
  H 2.761287 -2.315688 -1.267982
  H 4.737769 -0.103200 -0.458905
  H 4.932764 -2.453767 -2.409650
  H 6.879398 -0.215103 -1.577124
  H 7.131987 -2.553514 -3.524881
  H 8.780281 -0.438917 -4.089939
  H 9.481718 -1.949240 -3.519966
  H 9.194303 -0.613502 -2.386565
 20
 17.076189
  C 1.838074 0.533714 0.070447
  C 2.170388 -0.923962 0.115354
  C 3.070317 -1.519316 -0.706859
  C 4.322982 -0.959390 -1.085622
  C 5.235056 -1.590630 -1.851785
  C 6.516847 -1.045166 -2.175635
  C 7.433915 -1.671765 -2.920478
  C 8.763043 -1.087056 -3.279083
  H 0.947380 0.738359 0.650803
  H 1.669663 0.826302 -0.956225
  H 2.644465 1.171250 0.453191
  H 1.659770 -1.519305 0.863673
  H 2.837558 -2.504260 -1.105021
  H 4.561465 0.020067 -0.696087
  H 5.005373 -2.568951 -2.242229
  H 6.744458 -0.065529 -1.769996
  H 7.213280 -2.655703 -3.314592
  H 8.704434 -0.552731 -4.231173
  H 9.515621 -1.865723 -3.382711
  H 9.090131 -0.375495 -2.520939
 20
 4.791527
  C 1.936845 0.524467 0.079742
  C 2.125620 -0.961543 0.077395
  C 3.113458 -1.594744 -0.587769
  C 4.306686 -0.965574 -1.085139
  C 5.273626 -1.621330 -1.748577
  C 6.486602 -1.010429 -2.209864
  C 7.440552 -1.653422 -2.880660
  C 8.675639 -1.007504 -3.406678
  H 0.958503 0.776400 0.480563
  H 2.006322 0.920038 -0.930459
  H 2.694316 1.034557 0.681289
  H 1.439330 -1.534017 0.671440
  H 3.020430 -2.652294 -0.781522
  H 4.422194 0.091466 -0.889248
  H 5.159399 -2.681431 -1.937413
  H 6.610364 0.041023 -1.988145
  H 7.307545 -2.695323 -3.129843
  H 8.487488 -0.609864 -4.409771
  H 9.484430 -1.727306 -3.484092
  H 8.988600 -0.177373 -2.776215
 20
 0.815229
  C 2.019095 0.520469 0.126322
  C 2.123725 -1.014793 0.052250
  C 3.162450 -1.658716 -0.505446
  C 4.294196 -0.982936 -1.092184
  C 5.329490 -1.629674 -1.664594
  C 6.452457 -0.952599 -2.269910
  C 7.484063 -1.593934 -2.832031
  C 8.626037 -0.909794 -3.524564
  H 1.010390 0.819996 0.446077
  H 2.240316 0.989853 -0.887643
  H 2.773059 0.941786 0.871702
  H 1.273822 -1.613188 0.501014
  H 3.175938 -2.758169 -0.526131
  H 4.288275 0.116695 -1.060842
  H 5.336527 -2.729088 -1.694905
  H 6.452634 0.147171 -2.226034
  H 7.487703 -2.692251 -2.895689
  H 8.355966 -0.776968 -4.588589
  H 9.521716 -1.536647 -3.491062
  H 8.850013 0.078377 -3.084410
