 22
 0.000000
  H 1.545589 0.157846 0.444853
  C 2.625618 0.137177 0.393513
  C 3.348498 0.611493 1.573237
  C 2.454864 1.071895 2.718423
  C 3.276050 1.551085 3.910374
  C 3.189916 -0.330577 -0.770773
  C 4.575673 -0.421888 -0.998179
  C 5.164860 -0.883155 -2.149336
  C 4.507050 -1.365516 -3.354121
  H 3.425811 -1.347913 -3.311195
  H 6.245554 -0.893522 -2.175213
  H 4.022363 1.429596 1.284594
  H 4.022469 -0.178642 1.931129
  H 1.809889 0.251049 3.037392
  H 1.809940 1.885151 2.380470
  H 3.909091 0.754392 4.294023
  H 2.621561 1.874798 4.715515
  H 3.909035 2.391638 3.635762
  H 2.510682 -0.643226 -1.550169
  H 5.234184 -0.103446 -0.203531
  H 4.857476 -2.378410 -3.572304
  H 4.858037 -0.783544 -4.210996
 22
 0.266844
  H 1.558789 0.330614 0.364486
  C 2.638731 0.263459 0.340298
  C 3.348609 0.636403 1.561979
  C 2.451507 1.080238 2.709736
  C 3.264884 1.457000 3.942917
  C 3.221741 -0.185596 -0.823546
  C 4.607470 -0.248802 -1.058746
  C 5.172079 -0.788930 -2.190005
  C 4.487156 -1.499528 -3.262311
  H 3.415369 -1.595291 -3.134968
  H 6.240691 -0.692610 -2.334617
  H 4.072766 1.431021 1.334185
  H 3.978797 -0.200874 1.891298
  H 1.759512 0.276574 2.969582
  H 1.852772 1.938839 2.398759
  H 3.847452 0.610827 4.299734
  H 2.607021 1.773169 4.748270
  H 3.945739 2.276815 3.725953
  H 2.564840 -0.484059 -1.629045
  H 5.270942 0.176969 -0.319637
  H 4.929179 -2.494939 -3.363273
  H 4.714012 -1.016716 -4.216599
 22
 2.017412
  H 1.579653 0.476996 0.281809
  C 2.654046 0.347807 0.293780
  C 3.344343 0.616239 1.554065
  C 2.442656 1.067167 2.694835
  C 3.242933 1.345446 3.962480
  C 3.264745 -0.087382 -0.857488
  C 4.648433 -0.079890 -1.120383
  C 5.177639 -0.726290 -2.206689
  C 4.455160 -1.606241 -3.127975
  H 3.420289 -1.804957 -2.876220
  H 6.218458 -0.648335 -2.491504
  H 4.124415 1.370615 1.375620
  H 3.912468 -0.271689 1.860660
  H 1.699278 0.295732 2.905266
  H 1.903775 1.970960 2.403241
  H 3.765993 0.452816 4.297627
  H 2.582815 1.666843 4.763910
  H 3.975491 2.131936 3.796673
  H 2.643234 -0.464174 -1.663494
  H 5.303894 0.491782 -0.479804
  H 4.989904 -2.557611 -3.190906
  H 4.521391 -1.196167 -4.139326
 22
 2.656044
  H 1.597410 0.544761 0.241595
  C 2.665976 0.376108 0.273775
  C 3.343222 0.616880 1.546703
  C 2.434712 1.072178 2.680021
  C 3.223802 1.325601 3.959710
  C 3.286439 -0.069451 -0.866976
  C 4.672986 -0.075140 -1.119063
  C 5.197595 -0.760825 -2.182052
  C 4.448327 -1.636473 -3.090331
  H 3.510878 -2.013339 -2.696103
  H 6.238169 -0.700264 -2.472797
  H 4.137019 1.360708 1.382662
  H 3.894220 -0.281875 1.851137
  H 1.677392 0.310411 2.874868
  H 1.913311 1.986634 2.390070
  H 3.729282 0.421880 4.291670
  H 2.559171 1.648914 4.756404
  H 3.970050 2.102476 3.810608
  H 2.676930 -0.487054 -1.663854
  H 5.326854 0.523638 -0.502120
  H 5.074631 -2.476910 -3.389226
  H 4.252785 -1.089569 -4.018233
 22
 6.816620
  H 1.637327 0.695485 0.178626
  C 2.695384 0.469759 0.230209
  C 3.353346 0.628842 1.528067
  C 2.431381 1.059278 2.660716
  C 3.198457 1.226220 3.966569
  C 3.333325 0.039300 -0.903287
  C 4.714112 0.075809 -1.200752
  C 5.206246 -0.718272 -2.194480
  C 4.406402 -1.693737 -2.964154
  H 3.620777 -2.188765 -2.398277
  H 6.247283 -0.713038 -2.569908
  H 4.169159 1.355661 1.407877
  H 3.864051 -0.299935 1.800899
  H 1.648836 0.314512 2.804850
  H 1.947023 2.004591 2.401610
  H 3.665750 0.291991 4.263666
  H 2.529238 1.534128 4.762719
  H 3.973289 1.984201 3.870089
  H 2.761968 -0.548468 -1.640447
  H 5.355565 0.790219 -0.704733
  H 5.066239 -2.474867 -3.337451
  H 4.005834 -1.213918 -3.860843
 22
 14.712603
  H 1.739032 0.926007 0.097855
  C 2.780303 0.637640 0.177094
  C 3.385917 0.687677 1.514240
  C 2.416637 1.079181 2.624347
  C 3.118854 1.098019 3.978603
  C 3.434460 0.210136 -0.943555
  C 4.777637 0.230566 -1.360104
  C 5.198055 -0.700140 -2.269486
  C 4.327772 -1.767870 -2.808104
  H 3.802085 -2.354221 -2.059221
  H 6.204317 -0.655646 -2.675757
  H 4.225404 1.398305 1.477121
  H 3.843330 -0.280552 1.743944
  H 1.588807 0.369438 2.664505
  H 1.999970 2.067733 2.421481
  H 3.542752 0.123367 4.209699
  H 2.415296 1.356062 4.766019
  H 3.919915 1.833246 3.993425
  H 2.929409 -0.555005 -1.557296
  H 5.430746 1.029230 -1.043224
  H 4.983637 -2.522729 -3.265032
  H 3.739707 -1.420504 -3.654609
 22
 25.680820
  H 1.867737 0.873989 0.080195
  C 2.922345 0.639968 0.189882
  C 3.451009 0.691961 1.557640
  C 2.399840 1.070755 2.600351
  C 2.998168 1.094790 4.000403
  C 3.620835 0.264557 -0.915137
  C 4.935929 0.273949 -1.429948
  C 5.205397 -0.680648 -2.353397
  C 4.177643 -1.719932 -2.738209
  H 3.760061 -2.321552 -1.924019
  H 6.224365 -0.816207 -2.968480
  H 4.266755 1.423772 1.591756
  H 3.877406 -0.285411 1.808303
  H 1.589911 0.337084 2.571304
  H 1.980007 2.053644 2.368413
  H 3.382334 0.108668 4.277481
  H 2.246218 1.379806 4.732462
  H 3.822875 1.804977 4.055467
  H 3.115913 -0.570878 -1.533911
  H 5.624073 1.078059 -1.201524
  H 4.739835 -2.540266 -3.233706
  H 3.507739 -1.379218 -3.523389
 22
 50.861510
  H 2.052074 1.109177 -0.034690
  C 3.084100 0.813596 0.113164
  C 3.523844 0.739597 1.538942
  C 2.391809 1.035373 2.517749
  C 2.872887 0.922561 3.958936
  C 3.829914 0.492059 -0.938864
  C 5.027463 0.403046 -1.638800
  C 5.184303 -0.694227 -2.424863
  C 4.062842 -1.693074 -2.443667
  H 3.830710 -2.213322 -1.502438
  H 6.058032 -0.888119 -3.023463
  H 4.337485 1.461289 1.684583
  H 3.939313 -0.248527 1.746107
  H 1.569426 0.338264 2.358690
  H 2.014148 2.046458 2.347176
  H 3.244586 -0.077592 4.165342
  H 2.059011 1.130406 4.649796
  H 3.674738 1.631627 4.155990
  H 3.324196 -0.659479 -1.529253
  H 5.737099 1.219121 -1.620482
  H 4.492521 -2.614322 -2.896951
  H 3.305359 -1.483375 -3.200904
 22
 58.600612
  H 2.222578 1.258922 -0.076844
  C 3.226095 0.892887 0.115120
  C 3.561297 0.720276 1.577227
  C 2.385618 1.072344 2.483488
  C 2.758838 0.919445 3.953813
  C 4.007938 0.573876 -0.876075
  C 5.113018 0.385280 -1.653151
  C 5.187179 -0.734299 -2.449183
  C 3.991641 -1.661436 -2.390382
  H 3.795058 -2.210966 -1.427289
  H 6.008872 -0.902784 -3.119442
  H 4.413377 1.363803 1.811139
  H 3.876924 -0.306454 1.772574
  H 1.538097 0.419856 2.261066
  H 2.074238 2.103498 2.299073
  H 3.051916 -0.104700 4.174502
  H 1.915372 1.175786 4.590192
  H 3.588327 1.575018 4.211463
  H 3.401714 -0.882264 -1.638073
  H 5.863716 1.161548 -1.692787
  H 4.320021 -2.624921 -2.830402
  H 3.218609 -1.436335 -3.148060
 22
 57.239295
  H 2.304631 1.376670 -0.067210
  C 3.288550 0.964039 0.133288
  C 3.582533 0.731746 1.599811
  C 2.390085 1.083544 2.483944
  C 2.714898 0.874959 3.958571
  C 4.085692 0.669059 -0.843212
  C 5.100501 0.421433 -1.706089
  C 5.141346 -0.720620 -2.481672
  C 3.989445 -1.693744 -2.357829
  H 3.889125 -2.272649 -1.385528
  H 5.930484 -0.868990 -3.195233
  H 4.442089 1.345756 1.881797
  H 3.865347 -0.309308 1.769101
  H 1.533935 0.460358 2.216013
  H 2.109147 2.127493 2.323867
  H 2.974739 -0.163029 4.154638
  H 1.859724 1.134152 4.578434
  H 3.553431 1.499746 4.260515
  H 3.364584 -1.032790 -1.635540
  H 5.853447 1.188860 -1.828875
  H 4.343198 -2.663683 -2.767592
  H 3.197057 -1.550184 -3.120660
 22
 56.835241
  H 2.319273 1.457220 -0.061191
  C 3.291066 1.010649 0.125047
  C 3.584730 0.738654 1.585658
  C 2.399081 1.089043 2.479687
  C 2.720619 0.837794 3.948500
  C 4.085506 0.739798 -0.858514
  C 5.078690 0.459122 -1.733352
  C 5.112403 -0.697031 -2.487276
  C 3.985657 -1.695071 -2.333158
  H 3.853397 -2.219849 -1.328046
  H 5.889801 -0.848231 -3.212995
  H 4.454401 1.331390 1.881771
  H 3.849256 -0.311069 1.729044
  H 1.531625 0.488128 2.197000
  H 2.136694 2.141407 2.346262
  H 2.962293 -0.209388 4.118177
  H 1.870161 1.096414 4.575287
  H 3.570020 1.440177 4.265010
  H 3.323111 -1.029713 -1.659210
  H 5.836329 1.217243 -1.883725
  H 4.416296 -2.684191 -2.609597
  H 3.242443 -1.664884 -3.152419
 22
 56.564657
  H 2.398055 1.570618 -0.052064
  C 3.331505 1.048638 0.136309
  C 3.581714 0.723884 1.594912
  C 2.402594 1.125695 2.477287
  C 2.679386 0.818659 3.944714
  C 4.130017 0.761770 -0.838778
  C 5.106717 0.445109 -1.714373
  C 5.105159 -0.705491 -2.481757
  C 3.960449 -1.687093 -2.356101
  H 3.778496 -2.199963 -1.348259
  H 5.884466 -0.867250 -3.204602
  H 4.480581 1.254549 1.921689
  H 3.777597 -0.344100 1.715595
  H 1.504547 0.587256 2.163909
  H 2.208758 2.195986 2.366831
  H 2.852522 -0.245943 4.091265
  H 1.834172 1.114487 4.563108
  H 3.558585 1.359376 4.291443
  H 3.263015 -1.026890 -1.720856
  H 5.897821 1.172272 -1.854979
  H 4.404199 -2.690274 -2.564403
  H 3.271326 -1.688265 -3.220648
 22
 56.696777
  H 2.436514 1.621303 -0.048696
  C 3.363517 1.087192 0.136006
  C 3.602722 0.739831 1.591935
  C 2.409590 1.111041 2.467395
  C 2.671494 0.776590 3.931477
  C 4.185314 0.849920 -0.830677
  C 5.110072 0.468955 -1.730645
  C 5.068426 -0.692224 -2.478127
  C 3.938172 -1.685817 -2.331565
  H 3.691843 -2.113210 -1.294161
  H 5.833147 -0.870327 -3.212431
  H 4.490661 1.273967 1.940328
  H 3.809151 -0.327008 1.694995
  H 1.521516 0.570566 2.131874
  H 2.205952 2.180679 2.376491
  H 2.855501 -0.288091 4.058162
  H 1.815660 1.049294 4.544712
  H 3.539284 1.319675 4.300826
  H 3.176696 -1.010165 -1.809725
  H 5.919486 1.166311 -1.914798
  H 4.432473 -2.689105 -2.366852
  H 3.334491 -1.816347 -3.246284
 22
 54.241608
  H 2.695176 1.869538 -0.052189
  C 3.542336 1.229036 0.179450
  C 3.716864 0.943132 1.653601
  C 2.390847 1.002637 2.408713
  C 2.586641 0.727709 3.894420
  C 4.325963 0.816359 -0.759271
  C 5.171113 0.388255 -1.718508
  C 5.024520 -0.768669 -2.458256
  C 3.847158 -1.694437 -2.260019
  H 3.976529 -2.350530 -1.355988
  H 5.760396 -1.000439 -3.206711
  H 4.399943 1.689710 2.068343
  H 4.181247 -0.033094 1.797233
  H 1.695676 0.266742 1.998285
  H 1.942997 1.991808 2.283691
  H 3.011966 -0.261717 4.052450
  H 1.636561 0.778734 4.421472
  H 3.257916 1.460533 4.335206
  H 3.120452 -1.155476 -1.592452
  H 6.024882 1.022223 -1.922183
  H 4.037161 -2.655233 -2.804005
  H 3.065334 -1.543791 -3.053039
