19
 0
 C -0.99701192 2.16556654 1.47179558
 C -1.60570456 0.78750747 1.24264924
 C -1.07722855 0.18994429 -0.06033920
 C -1.41788666 -0.22523803 2.37352755
 C -0.55169783 0.08687225 3.56696707
 O -1.96567025 -1.33159696 2.30526668
 H -1.24232795 2.83882658 0.64310232
 H 0.09476835 2.11679853 1.54652089
 H -1.38476498 2.62042784 2.38930237
 H -2.69082768 0.92603205 1.14886428
 H 0.00000000 0.00000000 0.00000000
 H -1.26034389 0.86484073 -0.90324148
 H -1.56779270 -0.76329133 -0.28559874
 H -0.16669928 1.10492286 3.56965893
 H 0.29841340 -0.60048584 3.57741589
 H -1.14661363 -0.04756955 4.47506443
 O 2.30000000 0.00000000 0.00000000
 H 2.86165789 -0.45890637 -0.64258244
 H 2.91189510 0.25197749 0.70784698
