 26
 0.000000
  C 1.009700 0.118546 0.347071
  C 2.485021 0.131007 0.378292
  C 3.242720 0.606320 1.560418
  C 2.439927 1.090656 2.764620
  C 3.372624 1.540945 3.884987
  C 3.139038 -0.326757 -0.760487
  C 4.522130 -0.396493 -0.935060
  C 5.168600 -0.854754 -2.078572
  C 4.530733 -1.351076 -3.315943
  H 3.452610 -1.357766 -3.332116
  O 6.481906 -0.879497 -2.142337
  H 0.555517 0.485485 1.259459
  H 0.651875 -0.895883 0.165550
  H 0.651974 0.725008 -0.486155
  H 3.901240 1.421458 1.240006
  H 3.901081 -0.203821 1.893561
  H 1.802052 0.289397 3.141822
  H 1.802386 1.930223 2.482081
  H 4.008191 0.722592 4.216173
  H 2.796076 1.884875 4.740173
  H 4.008494 2.360524 3.557580
  H 2.510544 -0.654204 -1.575397
  H 5.146099 -0.067057 -0.114817
  H 4.900640 -2.360885 -3.502080
  H 4.900385 -0.749559 -4.148170
  H 6.927476 -0.556491 -1.336779
 26
 13.173754
  C 0.975591 0.137678 0.394369
  C 2.442081 0.157184 0.443731
  C 3.203987 0.627712 1.614106
  C 2.407845 1.113825 2.822195
  C 3.348898 1.561513 3.936408
  C 3.166250 -0.341588 -0.796789
  C 4.527657 -0.399477 -0.942102
  C 5.239676 -0.899930 -2.191296
  C 4.585684 -1.390139 -3.412893
  H 3.504346 -1.384796 -3.398377
  O 6.541606 -0.918419 -2.240447
  H 0.512154 0.503023 1.302512
  H 0.623881 -0.878481 0.206776
  H 0.624292 0.741289 -0.444502
  H 3.864476 1.440762 1.289440
  H 3.864043 -0.184027 1.942884
  H 1.770546 0.313829 3.203024
  H 1.771188 1.955204 2.542974
  H 3.984293 0.741322 4.263301
  H 2.779078 1.907138 4.795417
  H 3.984949 2.379230 3.604630
  H 2.541831 -0.669036 -1.611732
  H 5.149728 -0.070928 -0.124236
  H 4.941738 -2.403517 -3.606053
  H 4.941095 -0.790805 -4.252836
  H 6.982718 -0.593915 -1.432025
 26
 39.214703
  C 0.920482 0.136940 0.396424
  C 2.381800 0.175915 0.494984
  C 3.182382 0.636537 1.638212
  C 2.403968 1.128259 2.856185
  C 3.360201 1.572654 3.959332
  C 3.177937 -0.361856 -0.841031
  C 4.523149 -0.390049 -0.912037
  C 5.317951 -0.929561 -2.264008
  C 4.619626 -1.402793 -3.452392
  H 3.537146 -1.361048 -3.350445
  O 6.605776 -0.925923 -2.255301
  H 0.435553 0.499137 1.295294
  H 0.582803 -0.879122 0.195371
  H 0.583675 0.730592 -0.452677
  H 3.845049 1.440388 1.300466
  H 3.844421 -0.177105 1.952860
  H 1.767854 0.329754 3.240609
  H 1.768928 1.970758 2.578678
  H 3.995000 0.749065 4.277861
  H 2.804415 1.922415 4.825466
  H 3.996139 2.386035 3.617429
  H 2.520395 -0.676693 -1.625372
  H 5.177645 -0.075539 -0.126054
  H 4.930217 -2.425615 -3.667902
  H 4.931843 -0.809176 -4.312322
  H 7.026275 -0.600977 -1.440392
 26
 71.470587
  C 0.879405 0.147071 0.422603
  C 2.331102 0.199896 0.555265
  C 3.153407 0.651587 1.675831
  C 2.384967 1.147985 2.905034
  C 3.351263 1.589214 3.999511
  C 3.194682 -0.374604 -0.872378
  C 4.510411 -0.382885 -0.893717
  C 5.384168 -0.966422 -2.355852
  C 4.660690 -1.431559 -3.525827
  H 3.586571 -1.376658 -3.392231
  O 6.664775 -0.950927 -2.315866
  H 0.378601 0.506953 1.315769
  H 0.549741 -0.877033 0.214432
  H 0.550494 0.741456 -0.437234
  H 3.821616 1.455330 1.326741
  H 3.821114 -0.169668 1.982362
  H 1.749709 0.350907 3.293082
  H 1.750634 1.991793 2.630869
  H 3.985970 0.763164 4.312544
  H 2.803482 1.941143 4.870643
  H 3.986870 2.400466 3.651592
  H 2.522886 -0.683612 -1.642559
  H 5.180349 -0.074441 -0.122856
  H 4.954659 -2.460788 -3.751099
  H 4.957062 -0.839828 -4.396481
  H 7.072438 -0.624968 -1.496956
 26
 103.814121
  C 0.839752 0.171928 0.484432
  C 2.283142 0.228955 0.627666
  C 3.111390 0.676343 1.737621
  C 2.348708 1.172605 2.966221
  C 3.318592 1.612583 4.057432
  C 3.208655 -0.385576 -0.899461
  C 4.517025 -0.387976 -0.905929
  C 5.457886 -1.015873 -2.479255
  C 4.725195 -1.477517 -3.640643
  H 3.651818 -1.418400 -3.496317
  O 6.736103 -0.997647 -2.432427
  H 0.333848 0.531191 1.376021
  H 0.514518 -0.848727 0.275778
  H 0.515317 0.763484 -0.373391
  H 3.776802 1.474874 1.387804
  H 3.776244 -0.141745 2.040076
  H 1.713416 0.375717 3.355823
  H 1.714427 2.017343 2.693195
  H 3.953147 0.785790 4.368593
  H 2.773754 1.965035 4.929630
  H 3.954110 2.423027 3.707515
  H 2.528218 -0.692650 -1.665022
  H 5.197477 -0.081798 -0.140678
  H 5.012691 -2.505993 -3.868410
  H 5.015130 -0.887773 -4.512762
  H 7.145201 -0.668956 -1.606569
 26
 132.397562
  C 0.815526 0.183496 0.511831
  C 2.236156 0.256792 0.694883
  C 3.080790 0.691815 1.775516
  C 2.326938 1.188650 3.007880
  C 3.303677 1.625837 4.092360
  C 3.217322 -0.387037 -0.907783
  C 4.492679 -0.371088 -0.869096
  C 5.515925 -1.053081 -2.572499
  C 4.764879 -1.507427 -3.711591
  H 3.690634 -1.440208 -3.547141
  O 6.787919 -1.030526 -2.514770
  H 0.290701 0.538373 1.394116
  H 0.503052 -0.837489 0.298289
  H 0.503386 0.772531 -0.349136
  H 3.745484 1.485179 1.422171
  H 3.745283 -0.125238 2.070784
  H 1.690486 0.392994 3.398352
  H 1.691342 2.033157 2.737119
  H 3.938278 0.797868 4.399717
  H 2.763059 1.978738 4.966744
  H 3.938744 2.435063 3.739171
  H 2.520337 -0.687401 -1.655969
  H 5.197328 -0.074026 -0.128056
  H 5.040211 -2.537500 -3.942279
  H 5.042487 -0.920523 -4.588524
  H 7.200019 -0.695962 -1.676448
 26
 155.587634
  C 0.776451 0.193361 0.532946
  C 2.200305 0.280766 0.758960
  C 3.065874 0.714647 1.837691
  C 2.295842 1.217285 3.074066
  C 3.266348 1.656171 4.166042
  C 3.219112 -0.387763 -0.890631
  C 4.475650 -0.356790 -0.814727
  C 5.584628 -1.096940 -2.685753
  C 4.817629 -1.550479 -3.822957
  H 3.753017 -1.480749 -3.642319
  O 6.856777 -1.081210 -2.656003
  H 0.234487 0.548770 1.408926
  H 0.466476 -0.839172 0.318914
  H 0.470816 0.788819 -0.338831
  H 3.736951 1.517302 1.484214
  H 3.732396 -0.111199 2.142755
  H 1.657256 0.421788 3.458420
  H 1.662677 2.059921 2.795680
  H 3.898865 0.828378 4.479070
  H 2.717950 2.010329 5.036618
  H 3.903968 2.465139 3.816436
  H 2.508655 -0.679663 -1.618970
  H 5.207965 -0.074225 -0.109957
  H 5.087391 -2.585788 -4.060199
  H 5.083981 -0.960143 -4.706537
  H 7.271865 -0.756300 -1.846832
 26
 168.844406
  C 0.753276 0.213361 0.582588
  C 2.158119 0.310109 0.825088
  C 2.997977 0.742103 1.900979
  C 2.248676 1.246308 3.151435
  C 3.235440 1.678702 4.227204
  C 3.224532 -0.362246 -0.846143
  C 4.451141 -0.322466 -0.747892
  C 5.647097 -1.144978 -2.803004
  C 4.887834 -1.609085 -3.961105
  H 3.821503 -1.539646 -3.786831
  O 6.919189 -1.152370 -2.825487
  H 0.167333 0.558771 1.441233
  H 0.473422 -0.819217 0.351292
  H 0.474110 0.798605 -0.299217
  H 3.665987 1.538199 1.547140
  H 3.664502 -0.078337 2.197560
  H 1.612769 0.450600 3.544513
  H 1.614518 2.093526 2.882968
  H 3.869334 0.848070 4.529898
  H 2.701812 2.033147 5.105731
  H 3.870796 2.486170 3.869861
  H 2.491221 -0.648073 -1.557595
  H 5.217699 -0.050204 -0.070318
  H 5.160824 -2.639558 -4.193928
  H 5.160400 -1.024174 -4.841189
  H 7.356976 -0.827081 -2.016717
 26
 172.600087
  C 0.761602 0.248915 0.649792
  C 2.152807 0.329899 0.884482
  C 2.921330 0.770967 1.988580
  C 2.169008 1.286179 3.228097
  C 3.148302 1.712858 4.312401
  C 3.271284 -0.353363 -0.749351
  C 4.494028 -0.305544 -0.630268
  C 5.715535 -1.191840 -2.960118
  C 4.933669 -1.672956 -4.124233
  H 3.873816 -1.613069 -3.924314
  O 7.003683 -1.228753 -3.103657
  H 0.135191 0.595132 1.479871
  H 0.504798 -0.783225 0.407445
  H 0.521889 0.819765 -0.248416
  H 3.595557 1.550624 1.622792
  H 3.576381 -0.055937 2.278204
  H 1.519986 0.498186 3.616722
  H 1.541909 2.136665 2.950636
  H 3.772469 0.878260 4.625070
  H 2.610419 2.074866 5.185337
  H 3.795139 2.513900 3.960590
  H 2.506361 -0.629671 -1.430994
  H 5.316393 -0.056441 -0.009764
  H 5.211817 -2.700023 -4.360068
  H 5.181455 -1.083891 -5.006908
  H 7.497193 -0.915499 -2.318922
 26
 176.339310
  C 0.725717 0.277082 0.714941
  C 2.118649 0.360219 0.955197
  C 2.874005 0.803389 2.068127
  C 2.115780 1.316745 3.306091
  C 3.091487 1.742948 4.393358
  C 3.295481 -0.346480 -0.733542
  C 4.510707 -0.295423 -0.604727
  C 5.782182 -1.243248 -3.098471
  C 4.994909 -1.728208 -4.256618
  H 3.934837 -1.668326 -4.050872
  O 7.066685 -1.293028 -3.277029
  H 0.088925 0.619834 1.538047
  H 0.476160 -0.759190 0.464842
  H 0.493094 0.846451 -0.190832
  H 3.554544 1.583852 1.702307
  H 3.534415 -0.025215 2.356700
  H 1.466797 0.528387 3.691182
  H 1.489998 2.166047 3.027444
  H 3.715110 0.908973 4.707367
  H 2.550637 2.103647 5.264874
  H 3.738581 2.544701 4.044814
  H 2.522504 -0.620077 -1.403176
  H 5.348393 -0.055373 -0.005979
  H 5.273471 -2.756544 -4.490004
  H 5.238385 -1.140374 -5.142557
  H 7.579897 -0.984734 -2.498476
 26
 179.092039
  C 0.690812 0.304252 0.778777
  C 2.079376 0.391987 1.027125
  C 2.827603 0.835000 2.143897
  C 2.065911 1.344442 3.380066
  C 3.039317 1.769671 4.468681
  C 3.313562 -0.336826 -0.719875
  C 4.521379 -0.279298 -0.574693
  C 5.847081 -1.291720 -3.226606
  C 5.050279 -1.780483 -4.378026
  H 3.991419 -1.718084 -4.164316
  O 7.130655 -1.352490 -3.431408
  H 0.046073 0.641898 1.594496
  H 0.449515 -0.733255 0.521699
  H 0.464376 0.871522 -0.130991
  H 3.511557 1.614983 1.779079
  H 3.492351 0.006937 2.429683
  H 1.417632 0.554295 3.761852
  H 1.439889 2.193226 3.101066
  H 3.663522 0.936019 4.782522
  H 2.496293 2.128096 5.339898
  H 3.685858 2.573067 4.122832
  H 2.529001 -0.607302 -1.375354
  H 5.374727 -0.047791 0.002061
  H 5.326072 -2.809964 -4.608447
  H 5.288186 -1.196110 -5.267450
  H 7.658565 -1.049097 -2.660845
 26
 180.825677
  C 0.653287 0.330245 0.841339
  C 2.038304 0.424524 1.101022
  C 2.783219 0.865844 2.218117
  C 2.017520 1.371246 3.454421
  C 2.988727 1.796359 4.544983
  C 3.330064 -0.325343 -0.708839
  C 4.530174 -0.260287 -0.544364
  C 5.909975 -1.339852 -3.349296
  C 5.101900 -1.831018 -4.492152
  H 4.044704 -1.764460 -4.268643
  O 7.192185 -1.409701 -3.574443
  H -0.000908 0.662723 1.651966
  H 0.420419 -0.708209 0.577217
  H 0.432289 0.896281 -0.071437
  H 3.469184 1.645683 1.854845
  H 3.451882 0.039006 2.500798
  H 1.370557 0.578653 3.832784
  H 1.390512 2.218975 3.175208
  H 3.614120 0.963574 4.858495
  H 2.443161 2.151929 5.415939
  H 3.633956 2.601913 4.201954
  H 2.533314 -0.591013 -1.347515
  H 5.399053 -0.037841 0.009418
  H 5.373106 -2.862348 -4.720085
  H 5.333633 -1.250385 -5.385770
  H 7.731477 -1.109597 -2.810348
 26
 181.752514
  C 0.611857 0.356205 0.905460
  C 1.992237 0.457862 1.176414
  C 2.737047 0.897045 2.292500
  C 1.969976 1.397868 3.531042
  C 2.940949 1.822510 4.621643
  C 3.342135 -0.311919 -0.699566
  C 4.534217 -0.238134 -0.513700
  C 5.971741 -1.387629 -3.465659
  C 5.152102 -1.880296 -4.599883
  H 4.096919 -1.808345 -4.366666
  O 7.252318 -1.465639 -3.706689
  H -0.051095 0.682638 1.711136
  H 0.387744 -0.682672 0.634863
  H 0.395375 0.921565 -0.008993
  H 3.423626 1.677299 1.930198
  H 3.409682 0.071422 2.570811
  H 1.325300 0.602503 3.906858
  H 1.341250 2.244500 3.253174
  H 3.568320 0.990514 4.933160
  H 2.394562 2.174711 5.493532
  H 3.584018 2.630522 4.280402
  H 2.531566 -0.572222 -1.320841
  H 5.417317 -0.024185 0.017996
  H 5.417476 -2.913651 -4.825243
  H 5.378188 -1.303877 -5.497609
  H 7.801184 -1.167015 -2.949176
 26
 182.107553
  C 0.566246 0.382549 0.972870
  C 1.942716 0.492101 1.254639
  C 2.688622 0.929002 2.368564
  C 1.921663 1.424760 3.610466
  C 2.893535 1.849072 4.700240
  C 3.351453 -0.296346 -0.689871
  C 4.535462 -0.212912 -0.481698
  C 6.031987 -1.435458 -3.576458
  C 5.200047 -1.928255 -4.701619
  H 4.147283 -1.849486 -4.458394
  O 7.310284 -1.521454 -3.830614
  H -0.105535 0.702617 1.774412
  H 0.351044 -0.656854 0.696253
  H 0.353419 0.947838 0.057286
  H 3.374578 1.710199 2.006790
  H 3.365178 0.104749 2.641848
  H 1.279915 0.626185 3.984282
  H 1.290486 2.270205 3.334773
  H 3.523551 1.017996 5.008819
  H 2.347240 2.197515 5.573810
  H 3.533762 2.659824 4.360212
  H 2.526974 -0.550462 -1.292346
  H 5.431751 -0.006971 0.028285
  H 5.458129 -2.963961 -4.924605
  H 5.420940 -1.356228 -5.603435
  H 7.867968 -1.222673 -3.079681
