 32
 0.000000
  C 0.911634 0.048619 0.274103
  C 2.403241 0.059205 0.086406
  C 3.241848 -0.012388 1.355317
  C 2.526737 -0.088322 2.700928
  C 3.520980 -0.153371 3.853825
  C 2.996884 0.127487 -1.123676
  C 2.354882 0.204943 -2.496364
  C 0.844693 0.217522 -2.719180
  C 0.516044 0.301460 -4.206780
  C 4.454305 0.132330 -1.209419
  C 5.195353 0.194929 -2.318927
  O 6.554842 0.195897 -2.335980
  H 0.603824 -0.010018 1.313219
  H 0.468728 -0.819717 -0.206124
  H 0.468728 0.965465 -0.105392
  H 3.887252 0.871678 1.386030
  H 3.887254 -0.894302 1.286383
  H 1.893203 -0.977392 2.741475
  H 1.893197 0.790540 2.841235
  H 4.156172 -1.033115 3.772194
  H 2.990089 -0.206868 4.801790
  H 4.156167 0.729967 3.871674
  H 2.741674 -0.643625 -3.071099
  H 2.741672 1.112784 -2.971986
  H 0.391993 1.078628 -2.229652
  H 0.391994 -0.693193 -2.329632
  H 0.921891 1.210545 -4.646113
  H -0.562261 0.309518 -4.349571
  H 0.921892 -0.552434 -4.745594
  H 4.998468 0.079716 -0.276963
  H 4.818973 0.251812 -3.326934
  H 6.883419 0.144740 -1.429341
 32
 7.171359
  C 0.785995 0.047776 0.289041
  C 2.435454 0.059592 0.079560
  C 3.266366 -0.011854 1.345850
  C 2.541382 -0.087491 2.686187
  C 3.530868 -0.152826 3.844150
  C 3.021158 0.127589 -1.125477
  C 2.374665 0.204807 -2.493950
  C 0.863714 0.216773 -2.705913
  C 0.530208 0.300679 -4.192949
  C 4.479221 0.132755 -1.216950
  C 5.214822 0.195429 -2.327784
  O 6.573746 0.196630 -2.348970
  H 0.490278 -0.010973 1.330145
  H 0.347153 -0.818459 -0.192660
  H 0.347153 0.962700 -0.092154
  H 3.911874 0.872113 1.379949
  H 3.911876 -0.894048 1.280291
  H 1.907517 -0.976152 2.722264
  H 1.907509 0.791469 2.822007
  H 4.166340 -1.032690 3.764533
  H 2.996371 -0.206215 4.790196
  H 4.166334 0.730407 3.864014
  H 2.759911 -0.643752 -3.070073
  H 2.759908 1.112793 -2.970951
  H 0.413900 1.077424 -2.212988
  H 0.413902 -0.693871 -2.312939
  H 0.935238 1.209742 -4.633219
  H -0.548570 0.308582 -4.332994
  H 0.935239 -0.553087 -4.732692
  H 5.027612 0.080286 -0.287066
  H 4.834220 0.252219 -3.334154
  H 6.906670 0.145531 -1.443367
 32
 22.219505
  C 0.690448 0.046257 0.315966
  C 2.496071 0.060024 0.071933
  C 3.295759 -0.011367 1.337231
  C 2.531573 -0.085776 2.655776
  C 3.492514 -0.152545 3.839132
  C 3.059865 0.128071 -1.133987
  C 2.398326 0.204764 -2.493151
  C 0.886213 0.214936 -2.673369
  C 0.532556 0.298627 -4.156588
  C 4.520580 0.134235 -1.243149
  C 5.242312 0.197442 -2.363426
  O 6.599671 0.199467 -2.399320
  H 0.436632 -0.012935 1.364910
  H 0.266403 -0.817604 -0.168453
  H 0.266402 0.959129 -0.068197
  H 3.941002 0.872548 1.385898
  H 3.940998 -0.895137 1.286153
  H 1.895950 -0.972590 2.671790
  H 1.895946 0.793600 2.771451
  H 4.128823 -1.033110 3.773485
  H 2.936255 -0.205222 4.772567
  H 4.128820 0.729818 3.872960
  H 2.777660 -0.643626 -3.073954
  H 2.777657 1.113105 -2.974823
  H 0.446350 1.073985 -2.170164
  H 0.446354 -0.695270 -2.270001
  H 0.932599 1.207695 -4.601417
  H -0.547840 0.305806 -4.283826
  H 0.932600 -0.554632 -4.700861
  H 5.081684 0.082164 -0.320303
  H 4.848453 0.253948 -3.364821
  H 6.945825 0.148634 -1.498405
 32
 38.712841
  C 0.573537 0.044506 0.347012
  C 2.535017 0.060306 0.066961
  C 3.321726 -0.011668 1.342579
  C 2.540298 -0.085606 2.652783
  C 3.487844 -0.152978 3.846802
  C 3.084093 0.128995 -1.150332
  C 2.416669 0.205602 -2.508004
  C 0.902637 0.214819 -2.671309
  C 0.536495 0.298334 -4.151417
  C 4.545005 0.135360 -1.263071
  C 5.263112 0.198588 -2.383751
  O 6.620848 0.200745 -2.421959
  H 0.356654 -0.015046 1.402334
  H 0.163749 -0.824335 -0.143571
  H 0.163750 0.963020 -0.042713
  H 3.967400 0.872682 1.398839
  H 3.967403 -0.896732 1.298997
  H 1.904319 -0.971888 2.658835
  H 1.904307 0.794367 2.758499
  H 4.124367 -1.033624 3.786803
  H 2.922664 -0.205345 4.774739
  H 4.124357 0.728823 3.886250
  H 2.793742 -0.642504 -3.090395
  H 2.793739 1.113840 -2.991287
  H 0.469237 1.073010 -2.161573
  H 0.469239 -0.695268 -2.261353
  H 0.933620 1.207312 -4.598818
  H -0.544697 0.305090 -4.271143
  H 0.933618 -0.554542 -4.698231
  H 5.108190 0.083295 -0.340327
  H 4.866079 0.255009 -3.383663
  H 6.970732 0.150017 -1.522865
 32
 55.203057
  C 0.470653 0.044376 0.349302
  C 2.589642 0.061536 0.045143
  C 3.348474 -0.010592 1.323476
  C 2.539373 -0.083489 2.615241
  C 3.460907 -0.151980 3.829114
  C 3.118947 0.129373 -1.157026
  C 2.440688 0.205326 -2.503102
  C 0.924390 0.212494 -2.630092
  C 0.523232 0.295484 -4.100902
  C 4.581184 0.135924 -1.273077
  C 5.298860 0.199395 -2.398037
  O 6.656019 0.201683 -2.438573
  H 0.281132 -0.015384 1.408303
  H 0.080957 -0.825545 -0.148156
  H 0.080957 0.964738 -0.047132
  H 3.993271 0.873290 1.391223
  H 3.993278 -0.896482 1.291363
  H 1.902476 -0.968886 2.604761
  H 1.902469 0.797459 2.704428
  H 4.097758 -1.033389 3.781782
  H 2.876860 -0.203677 4.745235
  H 4.097757 0.729164 3.881237
  H 2.809955 -0.642625 -3.090317
  H 2.809955 1.113956 -2.991200
  H 0.504217 1.069731 -2.107267
  H 0.504214 -0.698125 -2.207018
  H 0.909441 1.204917 -4.557070
  H -0.560337 0.300864 -4.196238
  H 0.909438 -0.556856 -4.656475
  H 5.144807 0.083874 -0.350610
  H 4.899202 0.255764 -3.397042
  H 7.009015 0.151007 -1.540419
 32
 70.118645
  C 0.351125 0.040246 0.422483
  C 2.622383 0.060707 0.059833
  C 3.368444 -0.011972 1.347931
  C 2.538868 -0.084276 2.629193
  C 3.440477 -0.153619 3.858153
  C 3.151224 0.131158 -1.188669
  C 2.465127 0.207255 -2.537290
  C 0.948576 0.213513 -2.648167
  C 0.530913 0.296241 -4.114319
  C 4.618512 0.138366 -1.316375
  C 5.320750 0.201806 -2.440760
  O 6.676899 0.204820 -2.494173
  H 0.202792 -0.019843 1.487323
  H -0.027550 -0.834036 -0.076108
  H -0.027549 0.965069 0.025414
  H 4.013069 0.872848 1.423978
  H 4.013072 -0.899724 1.323958
  H 1.901471 -0.968865 2.605994
  H 1.901464 0.797302 2.705655
  H 4.077294 -1.035412 3.820546
  H 2.842288 -0.204796 4.765080
  H 4.077290 0.726811 3.919983
  H 2.831431 -0.640802 -3.126754
  H 2.831431 1.116242 -3.027611
  H 0.536052 1.069404 -2.119169
  H 0.536052 -0.696456 -2.218811
  H 0.912129 1.205770 -4.574402
  H -0.553525 0.300992 -4.198505
  H 0.912129 -0.555758 -4.673794
  H 5.188574 0.086562 -0.398259
  H 4.910288 0.257923 -3.435296
  H 7.039405 0.154381 -1.600212
 32
 81.773754
  C 0.239410 0.039952 0.427664
  C 2.664438 0.063057 0.018166
  C 3.387635 -0.010740 1.326064
  C 2.547147 -0.082698 2.601232
  C 3.436484 -0.152513 3.838556
  C 3.165002 0.131774 -1.199610
  C 2.483125 0.207961 -2.549803
  C 0.963591 0.212291 -2.626530
  C 0.505395 0.294283 -4.079592
  C 4.631369 0.137853 -1.307315
  C 5.339750 0.200533 -2.418188
  O 6.696624 0.202932 -2.460709
  H 0.157366 -0.020142 1.492592
  H -0.086333 -0.841959 -0.089797
  H -0.086332 0.974478 0.012705
  H 4.032762 0.874303 1.410310
  H 4.032763 -0.899633 1.310210
  H 1.911151 -0.967254 2.566052
  H 1.911147 0.800191 2.665791
  H 4.073460 -1.034357 3.805991
  H 2.830562 -0.203401 4.740356
  H 4.073466 0.727416 3.905403
  H 2.846655 -0.640415 -3.139780
  H 2.846656 1.117316 -3.040594
  H 0.569635 1.066161 -2.080933
  H 0.569636 -0.697540 -2.180454
  H 0.873985 1.204164 -4.549193
  H -0.580838 0.297460 -4.135929
  H 0.873980 -0.556982 -4.648563
  H 5.182901 0.085418 -0.378009
  H 4.934462 0.256766 -3.414785
  H 7.053140 0.152373 -1.564646
 32
 92.373491
  C 0.134041 0.039701 0.432143
  C 2.719520 0.063163 0.016306
  C 3.402341 -0.010275 1.317828
  C 2.519252 -0.080414 2.560793
  C 3.364636 -0.151838 3.826620
  C 3.223137 0.132266 -1.208318
  C 2.518562 0.207063 -2.533889
  C 0.997461 0.208256 -2.555020
  C 0.485138 0.289187 -3.989307
  C 4.699836 0.139597 -1.338211
  C 5.416298 0.204858 -2.494842
  O 6.775578 0.208423 -2.557995
  H 0.056233 -0.020682 1.502192
  H -0.174641 -0.842353 -0.091721
  H -0.174639 0.975091 0.010836
  H 4.044465 0.873159 1.419239
  H 4.044471 -0.899508 1.319212
  H 1.882232 -0.964251 2.502462
  H 1.882228 0.804365 2.602263
  H 4.000756 -1.035111 3.815906
  H 2.727902 -0.201493 4.706589
  H 4.000748 0.727033 3.915335
  H 2.866315 -0.640669 -3.132933
  H 2.866319 1.116809 -3.033770
  H 0.622300 1.062749 -1.992411
  H 0.622304 -0.704099 -2.092114
  H 0.834124 1.199907 -4.472304
  H -0.602220 0.290067 -4.004911
  H 0.834125 -0.561419 -4.571692
  H 5.262977 0.087488 -0.414684
  H 4.997590 0.260841 -3.486997
  H 7.145885 0.158130 -1.666642
 32
 99.651957
  C 0.023694 0.037404 0.472880
  C 2.759362 0.064669 -0.010370
  C 3.413952 -0.009116 1.297299
  C 2.511007 -0.077964 2.517408
  C 3.326409 -0.150338 3.800053
  C 3.259382 0.133692 -1.233597
  C 2.549152 0.207800 -2.546952
  C 1.026799 0.206414 -2.522413
  C 0.463599 0.286209 -3.936638
  C 4.740276 0.140733 -1.358351
  C 5.441572 0.204567 -2.489653
  O 6.797748 0.208149 -2.553114
  H -0.000175 -0.023044 1.544105
  H -0.240879 -0.848681 -0.062864
  H -0.240875 0.978134 0.040221
  H 4.051809 0.870386 1.410779
  H 4.051820 -0.895805 1.311120
  H 1.875281 -0.960767 2.440669
  H 1.875272 0.807874 2.540464
  H 3.961559 -1.034456 3.803453
  H 2.670168 -0.199136 4.664914
  H 3.961532 0.727753 3.902884
  H 2.887130 -0.638618 -3.148862
  H 2.887135 1.116574 -3.049841
  H 0.672054 1.061455 -1.941536
  H 0.672060 -0.708533 -2.041417
  H 0.793973 1.197612 -4.431492
  H -0.623308 0.284931 -3.914036
  H 0.793969 -0.563727 -4.530857
  H 5.294192 0.088404 -0.430919
  H 5.019390 0.260375 -3.478725
  H 7.168009 0.157880 -1.662198
 32
 105.935046
  C -0.084301 0.035357 0.509163
  C 2.804676 0.065308 -0.021695
  C 3.451265 -0.009751 1.308511
  C 2.509522 -0.078173 2.521029
  C 3.294296 -0.151905 3.827715
  C 3.297079 0.134241 -1.243316
  C 2.565742 0.208912 -2.566629
  C 1.046552 0.206154 -2.517739
  C 0.458287 0.285370 -3.921633
  C 4.763804 0.141859 -1.378281
  C 5.451260 0.206072 -2.516300
  O 6.806819 0.210544 -2.595535
  H -0.092209 -0.024802 1.575239
  H -0.342506 -0.852894 -0.028294
  H -0.342503 0.978436 0.075047
  H 4.093956 0.877857 1.434983
  H 4.093955 -0.905944 1.334326
  H 1.873216 -0.960202 2.428728
  H 1.873219 0.808635 2.528538
  H 3.927963 -1.036782 3.847209
  H 2.615973 -0.199837 4.677158
  H 3.927981 0.725182 3.946634
  H 2.896584 -0.640803 -3.176441
  H 2.896580 1.121825 -3.076978
  H 0.703780 1.055149 -1.933453
  H 0.703778 -0.703187 -2.032670
  H 0.779018 1.196940 -4.422102
  H -0.628677 0.283016 -3.879932
  H 0.779021 -0.564120 -4.521471
  H 5.325895 0.089712 -0.454106
  H 5.016346 0.261670 -3.501631
  H 7.187427 0.160535 -1.709237
 32
 110.254059
  C -0.192930 0.034368 0.526715
  C 2.853524 0.065707 -0.028764
  C 3.467458 -0.009058 1.296259
  C 2.494004 -0.075222 2.468783
  C 3.233739 -0.150133 3.796351
  C 3.346131 0.134663 -1.250803
  C 2.595174 0.207987 -2.550264
  C 1.076142 0.202488 -2.452820
  C 0.441702 0.280592 -3.837041
  C 4.817564 0.143219 -1.402398
  C 5.492704 0.207853 -2.547864
  O 6.846619 0.213174 -2.642140
  H -0.194238 -0.026007 1.596635
  H -0.439800 -0.854011 -0.014170
  H -0.439795 0.977958 0.089206
  H 4.102429 0.871558 1.438438
  H 4.102434 -0.900079 1.338471
  H 1.859999 -0.954445 2.354371
  H 1.859989 0.811297 2.454004
  H 3.864555 -1.036044 3.836310
  H 2.528359 -0.196722 4.622003
  H 3.864547 0.725648 3.935715
  H 2.910814 -0.638506 -3.165389
  H 2.910820 1.118319 -3.066271
  H 0.749704 1.054594 -1.853730
  H 0.749704 -0.711607 -1.953389
  H 0.744134 1.192844 -4.347817
  H -0.642850 0.276220 -3.759586
  H 0.744135 -0.568408 -4.447190
  H 5.388590 0.091407 -0.484145
  H 5.047261 0.263077 -3.526570
  H 7.237108 0.163398 -1.759971
 32
 113.120969
  C -0.304240 0.032654 0.557120
  C 2.896106 0.066475 -0.042347
  C 3.493314 -0.009346 1.301358
  C 2.482591 -0.074526 2.456432
  C 3.185934 -0.150785 3.807907
  C 3.383609 0.135373 -1.263363
  C 2.611871 0.208444 -2.558391
  C 1.096609 0.200933 -2.425278
  C 0.427344 0.278044 -3.791855
  C 4.849516 0.144485 -1.424806
  C 5.513660 0.209409 -2.575424
  O 6.867100 0.215462 -2.682660
  H -0.292514 -0.027543 1.623875
  H -0.542817 -0.856579 0.014051
  H -0.542812 0.977341 0.117538
  H 4.129210 0.875501 1.458282
  H 4.129214 -0.906231 1.357745
  H 1.848695 -0.953673 2.323658
  H 1.848698 0.813970 2.423401
  H 3.814267 -1.038001 3.865837
  H 2.456953 -0.196288 4.614316
  H 3.814266 0.724281 3.965274
  H 2.916863 -0.639966 -3.180945
  H 2.916857 1.121491 -3.081545
  H 0.785502 1.049243 -1.819023
  H 0.785505 -0.710190 -1.918306
  H 0.715426 1.190632 -4.309984
  H -0.655101 0.272111 -3.686724
  H 0.715427 -0.570459 -4.409350
  H 5.426408 0.092834 -0.509372
  H 5.057528 0.264457 -3.551036
  H 7.266102 0.165909 -1.804403
 32
 115.058701
  C -0.419014 0.030878 0.588606
  C 2.936784 0.066698 -0.046322
  C 3.505425 -0.009037 1.295849
  C 2.466089 -0.072286 2.416723
  C 3.127624 -0.149479 3.784738
  C 3.422533 0.135600 -1.267403
  C 2.631783 0.207776 -2.546544
  C 1.119042 0.197944 -2.372328
  C 0.410426 0.273981 -3.719839
  C 4.888447 0.145412 -1.441239
  C 5.541776 0.210709 -2.598464
  O 6.893132 0.217538 -2.719456
  H -0.398106 -0.029427 1.657267
  H -0.648202 -0.858938 0.042625
  H -0.648196 0.976468 0.146197
  H 4.135166 0.871569 1.467096
  H 4.135170 -0.903317 1.366947
  H 1.835502 -0.948462 2.264397
  H 1.835500 0.815465 2.363928
  H 3.752103 -1.037342 3.860913
  H 2.375541 -0.193693 4.568331
  H 3.752104 0.724178 3.960311
  H 2.923675 -0.638894 -3.173986
  H 2.923678 1.119664 -3.074764
  H 0.823255 1.047499 -1.754826
  H 0.823253 -0.715691 -1.854313
  H 0.682115 1.187125 -4.246038
  H -0.668419 0.266304 -3.583761
  H 0.682116 -0.574175 -4.345422
  H 5.471716 0.093996 -0.529994
  H 5.075777 0.265413 -3.567970
  H 7.301041 0.168215 -1.845289
 32
 116.185007
  C -0.538053 0.029277 0.616969
  C 2.972852 0.067196 -0.055169
  C 3.520009 -0.009456 1.303276
  C 2.446295 -0.071442 2.401774
  C 3.070372 -0.149807 3.790552
  C 3.454709 0.136077 -1.275860
  C 2.643144 0.207674 -2.544754
  C 1.135329 0.195695 -2.332488
  C 0.390990 0.270567 -3.659354
  C 4.917338 0.146535 -1.461144
  C 5.558781 0.212156 -2.624108
  O 6.909568 0.219800 -2.759545
  H -0.507876 -0.030907 1.683494
  H -0.758001 -0.860787 0.068402
  H -0.757995 0.975407 0.172018
  H 4.148458 0.873437 1.489820
  H 4.148462 -0.907730 1.389316
  H 1.817001 -0.947495 2.231207
  H 1.816999 0.818238 2.330841
  H 3.691468 -1.039115 3.884281
  H 2.296126 -0.192863 4.553618
  H 3.691470 0.723313 3.983730
  H 2.922945 -0.639835 -3.178581
  H 2.922944 1.121105 -3.079217
  H 0.855341 1.042937 -1.707235
  H 0.855343 -0.716503 -1.806520
  H 0.647071 1.184018 -4.192482
  H -0.683757 0.261245 -3.494129
  H 0.647070 -0.577108 -4.291855
  H 5.507061 0.095334 -0.553699
  H 5.081232 0.266617 -3.589301
  H 7.326913 0.170724 -1.889749
