 20
 0.000000
  C 1.008703 0.124616 0.359891
  C 2.479886 0.142614 0.406195
  C 3.221448 0.619499 1.593650
  C 2.397523 1.096978 2.781571
  H 3.064223 1.416733 3.578688
  C 3.148929 -0.313146 -0.726793
  C 4.534847 -0.376247 -0.883716
  C 5.122729 -0.839589 -2.038543
  H 4.540330 -1.181928 -2.887910
  O 6.401579 -0.923506 -2.253646
  H 0.544644 0.489609 1.267543
  H 0.657358 -0.890176 0.165704
  H 0.658277 0.723553 -0.482412
  H 3.883064 1.434278 1.278982
  H 3.882356 -0.186960 1.930345
  H 1.766924 0.302217 3.172297
  H 1.767730 1.941777 2.513920
  H 2.541149 -0.646685 -1.557442
  H 5.164406 -0.049319 -0.069285
  H 6.961370 -0.620840 -1.508375
 20
 -0.075149
  C 1.011151 0.068923 0.379393
  C 2.480765 0.135409 0.408114
  C 3.216628 0.635164 1.591075
  C 2.386324 1.144318 2.760940
  H 3.049688 1.505461 3.542541
  C 3.161716 -0.290443 -0.728460
  C 4.549525 -0.389472 -0.864540
  C 5.126746 -0.808216 -2.046103
  H 4.514318 -1.052941 -2.907125
  O 6.397214 -0.950342 -2.269050
  H 0.553718 0.296500 1.333915
  H 0.684642 -0.914985 0.041280
  H 0.630055 0.772001 -0.364972
  H 3.888877 1.435646 1.264059
  H 3.868896 -0.169228 1.950189
  H 1.771472 0.356538 3.189102
  H 1.744607 1.969359 2.462298
  H 2.563459 -0.585860 -1.579919
  H 5.184449 -0.155242 -0.022200
  H 6.972755 -0.736299 -1.507397
 20
 0.113458
  C 1.011866 0.010513 0.410555
  C 2.478022 0.124644 0.402278
  C 3.217903 0.643331 1.575856
  C 2.387901 1.192674 2.728239
  H 3.051660 1.592898 3.490328
  C 3.157701 -0.267847 -0.746222
  C 4.543557 -0.410661 -0.858759
  C 5.136630 -0.763711 -2.051411
  H 4.539649 -0.891373 -2.947817
  O 6.403585 -0.960271 -2.247841
  H 0.584369 0.116548 1.399877
  H 0.698305 -0.934505 -0.032201
  H 0.584962 0.788263 -0.228410
  H 3.903526 1.425182 1.234469
  H 3.851699 -0.164119 1.961067
  H 1.782130 0.419637 3.194472
  H 1.736898 1.997703 2.397366
  H 2.560824 -0.516880 -1.613441
  H 5.153874 -0.293560 0.025824
  H 6.962992 -0.844600 -1.453114
 20
 0.888000
  C 1.025441 -0.143509 0.519371
  C 2.476514 0.068275 0.416007
  C 3.220216 0.749479 1.501741
  C 2.385605 1.419952 2.585323
  H 3.042473 1.959851 3.262349
  C 3.138717 -0.359005 -0.727739
  C 4.527832 -0.487823 -0.833510
  C 5.150885 -0.791317 -2.022848
  H 4.584554 -0.830057 -2.946954
  O 6.418128 -1.015513 -2.188948
  H 0.670687 -0.100899 1.542451
  H 0.734711 -1.085685 0.057472
  H 0.505823 0.638739 -0.041375
  H 3.886160 1.494933 1.058213
  H 3.872231 0.009187 1.981533
  H 1.829375 0.697174 3.176823
  H 1.686528 2.133540 2.157344
  H 2.536559 -0.673133 -1.569831
  H 5.097480 -0.441460 0.084811
  H 6.948865 -0.982099 -1.367508
 20
 4.350426
  C 1.010000 -0.188637 0.570829
  C 2.463077 -0.007372 0.433151
  C 3.229935 0.710270 1.482954
  C 2.410888 1.512221 2.486052
  H 3.080311 2.084499 3.124459
  C 3.106842 -0.465213 -0.716446
  C 4.501265 -0.583893 -0.820119
  C 5.186572 -0.602495 -2.002659
  H 4.701294 -0.302196 -2.925543
  O 6.446363 -0.863464 -2.151653
  H 0.703610 -0.227832 1.610129
  H 0.666512 -1.072232 0.039367
  H 0.496578 0.668495 0.128419
  H 3.964810 1.367514 1.012361
  H 3.811293 -0.039289 2.034798
  H 1.811623 0.873296 3.128014
  H 1.749398 2.211553 1.978920
  H 2.498306 -0.789342 -1.549017
  H 4.983796 -0.856485 0.112117
  H 6.901725 -1.140345 -1.335311
 20
 14.414616
  C 0.994151 -0.217852 0.613310
  C 2.444221 -0.036729 0.437153
  C 3.237471 0.714917 1.435550
  C 2.449470 1.573374 2.415237
  H 3.141243 2.170842 3.006692
  C 3.050094 -0.508208 -0.708302
  C 4.462100 -0.605365 -0.840489
  C 5.262690 -0.408817 -1.920851
  H 4.962215 0.271260 -2.711403
  O 6.482035 -0.848984 -2.069801
  H 0.712038 -0.217704 1.663047
  H 0.648457 -1.131838 0.131455
  H 0.459860 0.611853 0.143512
  H 3.973676 1.338764 0.922257
  H 3.829968 -0.013754 2.005895
  H 1.865644 0.972898 3.109011
  H 1.783820 2.253855 1.891358
  H 2.423176 -0.887151 -1.504820
  H 4.756027 -1.236812 0.002005
  H 6.767791 -1.476940 -1.384385
 20
 32.750624
  C 0.995772 -0.191949 0.642706
  C 2.449064 -0.048423 0.468929
  C 3.269599 0.680536 1.460645
  C 2.501973 1.628571 2.373667
  H 3.199474 2.210068 2.972076
  C 3.020352 -0.619996 -0.664043
  C 4.407196 -0.578132 -0.964198
  C 5.304064 -0.309175 -1.905053
  H 5.142546 0.521828 -2.573793
  O 6.509080 -0.836536 -2.055948
  H 0.713443 -0.200400 1.693019
  H 0.609982 -1.067642 0.130042
  H 0.490572 0.678417 0.206865
  H 4.038806 1.243939 0.932604
  H 3.778753 -0.061667 2.087916
  H 1.841575 1.091351 3.054816
  H 1.892007 2.317160 1.790655
  H 2.359503 -1.111203 -1.367008
  H 4.478179 -1.410609 -0.175248
  H 6.677076 -1.592078 -1.474737
 20
 52.435607
  C 0.980071 -0.197570 0.667637
  C 2.432021 -0.051275 0.446824
  C 3.288173 0.675866 1.411591
  C 2.553650 1.612899 2.368893
  H 3.278813 2.204056 2.926208
  C 2.996126 -0.628625 -0.707039
  C 4.334763 -0.471437 -1.112434
  C 5.393380 -0.245771 -1.842406
  H 5.397097 0.617299 -2.502542
  O 6.558486 -0.879736 -1.878435
  H 0.739876 -0.259657 1.728999
  H 0.572799 -1.060256 0.142289
  H 0.452787 0.684963 0.286901
  H 4.045534 1.245515 0.856177
  H 3.854796 -0.052075 2.011713
  H 1.952079 1.065628 3.092630
  H 1.906344 2.299242 1.826208
  H 2.317891 -1.089141 -1.414420
  H 3.988825 -1.435422 -0.359455
  H 6.595219 -1.665830 -1.314739
 20
 54.401972
  C 0.981030 -0.181045 0.681456
  C 2.433197 -0.109904 0.477368
  C 3.324201 0.594247 1.425545
  C 2.633325 1.632460 2.309913
  H 3.382197 2.183950 2.873315
  C 3.006781 -0.751161 -0.694962
  C 4.294016 -0.466987 -1.189900
  C 5.368146 -0.166027 -1.842853
  H 5.352699 0.733111 -2.467393
  O 6.588030 -0.717635 -1.853578
  H 0.717821 -0.185685 1.737564
  H 0.541194 -1.043148 0.184906
  H 0.512676 0.708612 0.247653
  H 4.132842 1.073975 0.863833
  H 3.807077 -0.138772 2.084557
  H 1.957467 1.171563 3.026000
  H 2.071845 2.343229 1.709206
  H 2.292440 -1.154564 -1.412890
  H 3.543743 -1.593248 -0.179286
  H 6.645402 -1.537217 -1.334550
 20
 55.968758
  C 1.040278 -0.249064 0.716300
  C 2.469655 -0.137447 0.500670
  C 3.339269 0.606841 1.423142
  C 2.621000 1.666467 2.249131
  H 3.354014 2.243909 2.805660
  C 3.040738 -0.711071 -0.731399
  C 4.345100 -0.457182 -1.167551
  C 5.415182 -0.141631 -1.838178
  H 5.484533 0.842667 -2.298341
  O 6.583008 -0.789747 -1.963309
  H 0.787349 -0.286198 1.773334
  H 0.609347 -1.106467 0.201176
  H 0.559527 0.642712 0.308069
  H 4.146412 1.068526 0.856401
  H 3.816194 -0.089191 2.123798
  H 1.936767 1.229148 2.962389
  H 2.069861 2.348819 1.609474
  H 2.331351 -1.061529 -1.486240
  H 3.257490 -1.560776 0.010247
  H 6.555277 -1.674676 -1.582824
 20
 54.957705
  C 1.025594 -0.288907 0.724073
  C 2.488992 -0.174540 0.482944
  C 3.363494 0.570096 1.393688
  C 2.657470 1.666953 2.190984
  H 3.397693 2.237578 2.747819
  C 3.048404 -0.792227 -0.717496
  C 4.314574 -0.465086 -1.207668
  C 5.378892 -0.110289 -1.860719
  H 5.403020 0.859634 -2.370119
  O 6.576367 -0.727711 -1.982759
  H 0.789914 -0.319735 1.787786
  H 0.590319 -1.149639 0.215746
  H 0.549355 0.605552 0.316606
  H 4.190878 0.998795 0.824224
  H 3.814481 -0.122424 2.113362
  H 1.949773 1.258403 2.905276
  H 2.130717 2.350889 1.528213
  H 2.333483 -1.116853 -1.475050
  H 3.118652 -1.655992 0.033971
  H 6.580300 -1.601433 -1.579185
 20
 47.319831
  C 1.046824 -0.325203 0.798584
  C 2.428324 -0.096669 0.385828
  C 3.311589 0.828809 1.094693
  C 2.696686 1.613621 2.242480
  H 3.434560 2.293135 2.659777
  C 2.957604 -0.823703 -0.773607
  C 4.290860 -0.595262 -1.195827
  C 5.440943 -0.253180 -1.673368
  H 5.531132 0.630715 -2.310738
  O 6.650040 -0.838470 -1.536785
  H 0.995058 -0.557565 1.863200
  H 0.556364 -1.103379 0.226243
  H 0.477738 0.601834 0.692339
  H 3.748780 1.513715 0.354389
  H 4.175209 0.256080 1.461293
  H 2.362421 0.955696 3.040098
  H 1.849492 2.206043 1.905196
  H 2.265215 -0.739718 -1.623997
  H 2.875018 -1.899286 -0.537757
  H 6.608821 -1.645306 -1.000442
