 16
 0.000000
  C 1.009742 0.138780 0.396180
  C 2.473065 0.131958 0.379739
  C 3.220534 0.601561 1.548201
  H 2.553600 0.921576 2.344653
  C 3.113026 -0.333172 -0.777781
  C 4.507624 -0.400327 -0.946470
  C 5.101386 -0.855363 -2.081258
  H 4.542125 -1.198569 -2.936270
  H 6.175975 -0.881882 -2.148644
  H 0.603613 0.513675 1.328902
  H 0.623820 -0.867461 0.208315
  H 0.624029 0.735477 -0.435674
  H 3.883535 1.426416 1.280369
  H 3.883680 -0.179153 1.925696
  H 2.473827 -0.658978 -1.588440
  H 5.141922 -0.074334 -0.134800
 16
 0.077314
  C 1.010751 0.100370 0.392627
  C 2.473242 0.122728 0.387788
  C 3.206274 0.650009 1.541378
  H 2.540449 0.979121 2.331510
  C 3.132530 -0.347565 -0.752147
  C 4.528557 -0.411292 -0.918264
  C 5.090702 -0.838915 -2.079706
  H 4.490354 -1.044138 -2.951694
  H 6.151557 -0.994881 -2.174824
  H 0.587934 0.400274 1.345791
  H 0.639016 -0.886893 0.111240
  H 0.629685 0.764804 -0.389426
  H 3.843810 1.483779 1.240274
  H 3.889965 -0.102882 1.939839
  H 2.524840 -0.725796 -1.563871
  H 5.171210 -0.127953 -0.096570
 16
 4.936599
  C 1.008521 0.059629 0.431489
  C 2.472187 0.116914 0.385825
  C 3.215580 0.694803 1.510926
  H 2.558455 0.984461 2.324557
  C 3.112322 -0.347066 -0.763810
  C 4.497734 -0.435859 -0.933504
  C 5.114015 -0.839926 -2.082408
  H 4.710982 -0.629080 -3.061251
  H 6.050001 -1.375234 -2.055061
  H 0.613751 0.258247 1.422529
  H 0.643572 -0.899768 0.063644
  H 0.593474 0.801269 -0.257088
  H 3.772667 1.574117 1.180990
  H 3.961830 -0.004528 1.888531
  H 2.495740 -0.753769 -1.551848
  H 5.130315 -0.217685 -0.078120
 16
 15.415849
  C 1.002377 -0.000188 0.459559
  C 2.462896 0.106121 0.371290
  C 3.206066 0.736664 1.472113
  H 2.552386 1.013488 2.292755
  C 3.094188 -0.356053 -0.780505
  C 4.465245 -0.422367 -0.958088
  C 5.136552 -0.852215 -2.085656
  H 5.057727 -0.355842 -3.040456
  H 5.815309 -1.690264 -2.032761
  H 0.650138 0.021324 1.486688
  H 0.627992 -0.882470 -0.055703
  H 0.557659 0.858585 -0.052485
  H 3.719137 1.632342 1.118161
  H 3.982151 0.070988 1.850495
  H 2.474441 -0.769076 -1.563427
  H 5.094237 -0.163951 -0.104383
 16
 28.750688
  C 1.008325 -0.041571 0.468643
  C 2.460970 0.099190 0.375327
  C 3.185313 0.761287 1.464290
  H 2.520719 1.046524 2.274969
  C 3.105834 -0.375211 -0.778426
  C 4.459553 -0.386902 -0.959982
  C 5.148722 -0.858264 -2.100410
  H 5.424091 -0.196805 -2.909076
  H 5.482368 -1.878285 -2.160036
  H 0.665272 -0.090455 1.496955
  H 0.632386 -0.887882 -0.107455
  H 0.556208 0.853229 0.031544
  H 3.698019 1.655946 1.096321
  H 3.963190 0.110662 1.862294
  H 2.483367 -0.777833 -1.566542
  H 5.089098 -0.021448 -0.145754
 16
 15.274687
  C 1.012197 -0.069368 0.482768
  C 2.471682 0.057390 0.391360
  C 3.196784 0.741963 1.474000
  H 2.528583 1.045098 2.274024
  C 3.111749 -0.435466 -0.740024
  C 4.472939 -0.328851 -0.985749
  C 5.138731 -0.806734 -2.095122
  H 5.714210 -0.153455 -2.734554
  H 5.150730 -1.857106 -2.347353
  H 0.667520 -0.079791 1.513113
  H 0.639727 -0.938304 -0.053227
  H 0.559743 0.804742 0.003439
  H 3.710623 1.625377 1.091560
  H 3.969205 0.094852 1.891514
  H 2.501603 -0.868674 -1.520647
  H 5.081800 0.190339 -0.244954
 16
 13.260274
  C 1.032976 -0.109700 0.456158
  C 2.489228 0.065596 0.414397
  C 3.184951 0.731082 1.523409
  H 2.520236 0.929940 2.358061
  C 3.183340 -0.459219 -0.670960
  C 4.557146 -0.335741 -0.917742
  C 4.997695 -0.696490 -2.164744
  H 5.706561 -0.101127 -2.720625
  H 4.714198 -1.634076 -2.619489
  H 0.595288 0.270048 1.375884
  H 0.770714 -1.159043 0.332050
  H 0.573984 0.406302 -0.389837
  H 3.611405 1.677516 1.184925
  H 4.023423 0.130753 1.869569
  H 2.645271 -0.745613 -1.566216
  H 5.243889 0.022625 -0.161862
 16
 33.960369
  C 1.075652 -0.118430 0.351225
  C 2.530434 0.058718 0.437290
  C 3.143126 0.753862 1.582545
  H 2.402413 1.024578 2.327959
  C 3.336015 -0.432135 -0.578866
  C 4.699578 -0.395098 -0.800107
  C 4.775493 -0.692085 -2.175873
  H 5.193171 0.012312 -2.882276
  H 4.625293 -1.696233 -2.536475
  H 0.574312 0.234099 1.246081
  H 0.824445 -1.166686 0.183123
  H 0.676088 0.430502 -0.504008
  H 3.654145 1.657816 1.248495
  H 3.904360 0.127753 2.048009
  H 2.902839 -0.665984 -1.568657
  H 5.507902 -0.163410 -0.128173
 16
 48.759455
  C 1.142904 -0.136639 0.236573
  C 2.593371 0.054521 0.447366
  C 3.112141 0.799418 1.621847
  H 2.302905 1.078667 2.288408
  C 3.510190 -0.380514 -0.479063
  C 4.841843 -0.456348 -0.718112
  C 4.524461 -0.703201 -2.112967
  H 4.787990 0.030355 -2.868824
  H 4.364126 -1.715991 -2.456737
  H 0.575006 0.169957 1.108767
  H 0.916766 -1.179818 0.014927
  H 0.792499 0.447381 -0.616538
  H 3.638410 1.700064 1.305791
  H 3.834279 0.195586 2.170800
  H 3.120366 -0.599362 -1.585432
  H 5.749735 -0.362574 -0.166379
 16
 42.328991
  C 1.207785 -0.132774 0.171704
  C 2.644899 0.075688 0.471276
  C 3.089118 0.818336 1.684309
  H 2.232693 1.081092 2.297871
  C 3.634281 -0.334063 -0.364491
  C 4.914228 -0.476232 -0.696523
  C 4.335270 -0.725985 -2.045607
  H 4.543881 0.002229 -2.822871
  H 4.249575 -1.763433 -2.362643
  H 0.587935 0.160293 1.011603
  H 1.004607 -1.177923 -0.066223
  H 0.899923 0.456894 -0.694994
  H 3.620915 1.726651 1.404710
  H 3.780485 0.220698 2.276446
  H 3.196763 -0.597173 -1.648980
  H 5.892683 -0.419796 -0.285074
 16
 34.520727
  C 1.223122 -0.172406 0.209351
  C 2.660539 0.086707 0.534021
  C 3.044263 0.906008 1.703667
  H 2.154825 1.195162 2.255768
  C 3.669819 -0.326958 -0.237826
  C 4.869680 -0.603186 -0.730812
  C 4.309057 -0.687444 -2.126183
  H 4.667056 0.037481 -2.826674
  H 4.277814 -1.713523 -2.495821
  H 0.567777 0.157310 1.014856
  H 1.053727 -1.236256 0.023745
  H 0.929927 0.359432 -0.694764
  H 3.584156 1.796219 1.399013
  H 3.711967 0.345025 2.355108
  H 3.219157 -0.504472 -1.893119
  H 5.861998 -0.736148 -0.363274
 16
 21.459007
  C 1.226900 -0.196974 0.279091
  C 2.644518 0.085671 0.594050
  C 3.004962 0.957509 1.745469
  H 2.110950 1.253789 2.285226
  C 3.648397 -0.348256 -0.170785
  C 4.738632 -0.726909 -0.774739
  C 4.350637 -0.648478 -2.228880
  H 4.927931 0.070785 -2.797598
  H 4.346800 -1.639905 -2.676156
  H 0.567906 0.165491 1.061980
  H 1.071200 -1.267740 0.140478
  H 0.944036 0.283155 -0.658378
  H 3.536522 1.844771 1.401404
  H 3.680306 0.437162 2.422987
  H 3.293157 -0.352245 -2.175609
  H 5.690344 -1.052639 -0.400533
 16
 11.638368
  C 1.265663 -0.234027 0.339774
  C 2.663719 0.130023 0.665614
  C 2.953480 1.068462 1.776514
  H 2.040972 1.365078 2.283047
  C 3.671719 -0.341090 -0.068934
  C 4.591075 -0.826199 -0.844206
  C 4.373902 -0.661929 -2.315191
  H 5.168617 -0.069494 -2.759785
  H 4.334559 -1.642018 -2.785536
  H 0.579510 0.142253 1.091582
  H 1.166213 -1.316019 0.250218
  H 0.982022 0.179519 -0.629069
  H 3.465556 1.950523 1.389249
  H 3.634068 0.617024 2.498259
  H 3.406258 -0.185816 -2.443105
  H 5.471209 -1.349726 -0.498373
 16
 9.187604
  C 1.162448 -0.196582 0.459650
  C 2.587420 0.137692 0.674209
  C 2.987991 1.053312 1.764644
  H 2.133009 1.360552 2.357376
  C 3.519449 -0.380618 -0.132735
  C 4.413353 -0.876970 -0.921716
  C 4.510197 -0.648904 -2.390438
  H 5.352553 0.019176 -2.571344
  H 4.717237 -1.582868 -2.906025
  H 0.547150 0.169534 1.275125
  H 1.042213 -1.273408 0.341610
  H 0.801657 0.246013 -0.470928
  H 3.476121 1.930637 1.335252
  H 3.732618 0.592268 2.414097
  H 3.598475 -0.203720 -2.773579
  H 5.186650 -1.519549 -0.505141
 16
 9.493033
  C 1.146678 -0.192848 0.486301
  C 2.573592 0.149997 0.670162
  C 2.989439 1.084790 1.741779
  H 2.144401 1.391689 2.348847
  C 3.492547 -0.369785 -0.149977
  C 4.389443 -0.881405 -0.925902
  C 4.540581 -0.700653 -2.396781
  H 5.152899 0.187903 -2.558333
  H 5.054895 -1.544832 -2.839542
  H 0.554982 0.132079 1.334551
  H 1.030282 -1.263332 0.321679
  H 0.752942 0.292468 -0.409813
  H 3.459336 1.960971 1.291823
  H 3.752371 0.638880 2.381166
  H 3.579671 -0.553376 -2.880438
  H 5.154486 -1.505979 -0.465467
