 20
 0.000000
  C 0.991705 0.129669 0.372750
  C 2.463206 0.144736 0.413349
  C 3.211604 0.620587 1.597797
  C 2.395333 1.100668 2.790409
  H 3.063556 1.419356 3.584644
  C 3.129917 -0.311800 -0.720762
  C 4.514778 -0.378929 -0.889440
  C 5.101794 -0.842840 -2.045282
  H 4.540254 -1.189799 -2.904548
  O 6.384250 -0.920150 -2.246203
  H 0.530264 0.495699 1.281493
  H 0.637869 -0.884694 0.180628
  H 0.639467 0.729313 -0.468333
  H 3.872930 1.434513 1.280243
  H 3.871712 -0.187419 1.932483
  H 1.763060 0.306776 3.180926
  H 1.764427 1.944889 2.522491
  H 2.515702 -0.644022 -1.546983
  H 5.159449 -0.054505 -0.083999
  H 6.930556 -0.614266 -1.494133
 20
 0.463936
  C 1.002595 0.114331 0.367112
  C 2.474718 0.082372 0.449500
  C 3.191781 0.476480 1.679416
  C 2.384210 1.182041 2.756985
  H 3.043723 1.463776 3.572667
  C 3.160866 -0.377764 -0.672765
  C 4.536504 -0.308114 -0.895230
  C 5.098258 -0.807124 -2.051455
  H 4.478545 -1.249322 -2.824473
  O 6.362495 -0.819928 -2.344920
  H 0.532159 0.498541 1.265074
  H 0.625106 -0.889629 0.163310
  H 0.694426 0.717669 -0.488570
  H 4.040801 1.106652 1.406340
  H 3.631579 -0.430996 2.105896
  H 1.611218 0.539349 3.170116
  H 1.922542 2.087168 2.370750
  H 2.564834 -0.810563 -1.467410
  H 5.180172 0.150827 -0.158354
  H 6.944949 -0.426989 -1.664721
 20
 2.163118
  C 1.011827 0.059816 0.379250
  C 2.490448 -0.003504 0.497965
  C 3.170972 0.375531 1.754518
  C 2.403406 1.279964 2.707541
  H 3.034142 1.523259 3.557356
  C 3.170168 -0.488496 -0.613218
  C 4.524616 -0.301242 -0.903737
  C 5.084705 -0.789312 -2.064691
  H 4.476427 -1.271711 -2.822929
  O 6.337555 -0.721976 -2.391869
  H 0.520717 0.394882 1.283996
  H 0.639008 -0.924329 0.089059
  H 0.768875 0.752016 -0.429113
  H 4.100745 0.886148 1.478423
  H 3.477584 -0.541688 2.270623
  H 1.499794 0.808681 3.090589
  H 2.127670 2.210349 2.214825
  H 2.570562 -0.946686 -1.391719
  H 5.152951 0.232265 -0.204771
  H 6.899683 -0.232911 -1.757941
 20
 9.051644
  C 1.016426 0.098755 0.364479
  C 2.508622 -0.008461 0.507586
  C 3.179537 0.374633 1.774431
  C 2.378091 1.285506 2.696728
  H 3.024918 1.561263 3.536928
  C 3.146267 -0.516790 -0.610073
  C 4.498993 -0.307721 -0.900926
  C 5.068872 -0.814963 -2.034501
  H 4.473347 -1.372837 -2.770059
  O 6.316701 -0.691833 -2.400591
  H 0.450024 0.453507 1.219387
  H 0.701931 -0.911584 0.124898
  H 0.846778 0.741124 -0.495650
  H 4.088468 0.916884 1.443324
  H 3.547717 -0.518173 2.288064
  H 1.543529 0.779556 3.154661
  H 2.081378 2.195594 2.187883
  H 2.585697 -1.095279 -1.315010
  H 5.095547 0.290660 -0.211104
  H 6.875729 -0.153134 -1.803327
 20
 22.350006
  C 1.069141 0.041043 0.349559
  C 2.615939 0.014197 0.545956
  C 3.107192 0.393944 1.860416
  C 2.292123 1.356962 2.743692
  H 2.893808 1.601289 3.641707
  C 3.184145 -0.473783 -0.623601
  C 4.519410 -0.294572 -0.980778
  C 5.033090 -0.803787 -2.152738
  H 4.414293 -1.332514 -2.845327
  O 6.268590 -0.779366 -2.522447
  H 0.608429 0.437284 1.251811
  H 0.899682 -1.027197 0.182036
  H 0.969178 0.677943 -0.511800
  H 4.072508 0.893946 1.646422
  H 3.381645 -0.511527 2.434550
  H 1.380020 0.886840 3.114697
  H 2.041546 2.255095 2.212804
  H 2.595571 -1.067285 -1.303002
  H 5.155098 0.302000 -0.312175
  H 6.874184 -0.256720 -1.957296
 20
 46.660210
  C 1.044716 0.064855 0.339581
  C 2.732886 0.028902 0.605381
  C 3.135414 0.389389 1.992468
  C 2.245977 1.369664 2.767399
  H 2.738587 1.659705 3.728168
  C 3.213199 -0.452877 -0.575542
  C 4.572392 -0.300864 -1.043497
  C 5.028132 -0.918333 -2.182273
  H 4.434546 -1.586777 -2.815391
  O 6.232641 -0.751881 -2.651501
  H 0.539652 0.496920 1.130215
  H 0.973643 -1.043150 0.219720
  H 1.133585 0.639306 -0.566590
  H 4.139474 0.878536 1.927382
  H 3.292020 -0.526287 2.559830
  H 1.261668 0.923222 3.003589
  H 2.082883 2.299414 2.197658
  H 2.575160 -1.070834 -1.172933
  H 5.199869 0.341137 -0.497595
  H 6.713916 -0.117903 -2.167277
 20
 64.801417
  C 0.999675 0.031193 0.359267
  C 2.878522 -0.089242 0.726301
  C 3.146751 0.376698 2.036496
  C 2.234440 1.427611 2.633041
  H 2.650192 1.799404 3.548491
  C 3.345322 -0.593487 -0.428966
  C 4.599953 -0.335450 -0.986001
  C 4.951766 -0.819439 -2.222594
  H 4.272563 -1.414474 -2.824439
  O 6.098012 -0.662659 -2.785318
  H 0.372582 0.413046 1.157258
  H 0.964632 -1.019826 0.207840
  H 1.211339 0.710714 -0.420490
  H 4.137687 0.827101 1.965745
  H 3.248076 -0.485289 2.759417
  H 1.227612 1.022973 2.818574
  H 2.132525 2.262671 1.977893
  H 2.669619 -1.294989 -1.049305
  H 5.323268 0.287876 -0.387149
  H 6.704428 -0.100781 -2.244164
 20
 86.547316
  C 0.752372 0.029627 0.285693
  C 3.096924 -0.147285 0.858528
  C 3.211926 0.365643 2.184149
  C 2.241247 1.452886 2.626544
  H 2.530519 1.834259 3.598264
  C 3.465123 -0.625926 -0.302014
  C 4.688436 -0.333795 -0.996200
  C 4.955658 -0.869421 -2.206551
  H 4.265689 -1.530110 -2.716399
  O 6.059812 -0.665203 -2.921975
  H 0.082604 0.453433 1.001394
  H 0.776387 -1.033966 0.192381
  H 1.114004 0.654822 -0.500437
  H 4.223583 0.817493 2.150459
  H 3.273968 -0.439993 2.924669
  H 1.238919 1.045952 2.703048
  H 2.228002 2.277432 1.920835
  H 2.788127 -1.279189 -0.847236
  H 5.361512 0.381234 -0.544989
  H 6.659361 -0.019583 -2.512708
 20
 92.298661
  C 0.601925 0.024125 0.275537
  C 3.226151 -0.110954 0.903338
  C 3.244736 0.382089 2.220006
  C 2.226922 1.451315 2.604965
  H 2.452929 1.834238 3.595543
  C 3.537256 -0.574762 -0.261566
  C 4.751579 -0.323415 -1.004748
  C 4.943043 -0.853262 -2.224384
  H 4.206429 -1.482498 -2.704334
  O 6.020396 -0.697689 -2.981988
  H -0.080399 0.437212 0.987614
  H 0.680585 -1.040560 0.201186
  H 0.997072 0.656642 -0.492559
  H 4.247721 0.853686 2.248806
  H 3.274703 -0.427636 2.955031
  H 1.231610 1.020189 2.623672
  H 2.236007 2.277011 1.900781
  H 2.825893 -1.203711 -0.785757
  H 5.496496 0.306453 -0.546215
  H 6.691410 -0.136249 -2.565008
 20
 94.141127
  C 0.475523 0.034833 0.236104
  C 3.379974 -0.167689 1.008260
  C 3.262801 0.331519 2.307450
  C 2.285731 1.484711 2.522510
  H 2.360935 1.850570 3.543930
  C 3.662723 -0.616965 -0.161566
  C 4.796691 -0.302708 -0.999684
  C 4.938441 -0.854399 -2.214574
  H 4.221681 -1.555431 -2.619588
  O 5.936254 -0.631603 -3.062583
  H -0.248804 0.452154 0.905832
  H 0.570426 -1.029223 0.178751
  H 0.939823 0.665869 -0.492246
  H 4.292982 0.685441 2.515847
  H 3.104286 -0.475073 3.030582
  H 1.271202 1.139948 2.350576
  H 2.487951 2.305530 1.838773
  H 2.966627 -1.320265 -0.609022
  H 5.520187 0.394341 -0.613834
  H 6.587031 0.000665 -2.715599
 20
 94.337346
  C 0.343544 0.069862 0.324902
  C 3.534210 -0.144453 1.056590
  C 3.315293 0.370971 2.332335
  C 2.242354 1.448677 2.437558
  H 2.190302 1.833139 3.451309
  C 3.781053 -0.600791 -0.115990
  C 4.858481 -0.291857 -1.023701
  C 4.950505 -0.880683 -2.227258
  H 4.226675 -1.608707 -2.569692
  O 5.899714 -0.667140 -3.135902
  H -0.423043 0.472496 0.954396
  H 0.477655 -0.989095 0.291012
  H 0.808338 0.698376 -0.402062
  H 4.297636 0.796457 2.610308
  H 3.163719 -0.434775 3.061552
  H 1.278455 1.016944 2.168571
  H 2.442398 2.272811 1.757604
  H 3.076762 -1.340295 -0.497314
  H 5.586460 0.433483 -0.697576
  H 6.559997 -0.013252 -2.844123
 20
 94.182027
  C 0.278776 0.182019 0.354717
  C 3.600263 -0.174949 1.088556
  C 3.306801 0.328965 2.351946
  C 2.220515 1.398683 2.378277
  H 2.091641 1.785980 3.384602
  C 3.833371 -0.619977 -0.089443
  C 4.885935 -0.294024 -1.021793
  C 4.964799 -0.883992 -2.223682
  H 4.251560 -1.625944 -2.551141
  O 5.891210 -0.654635 -3.150214
  H -0.491524 0.587821 0.979257
  H 0.381846 -0.880931 0.289897
  H 0.755027 0.811490 -0.366936
  H 4.261834 0.763735 2.700759
  H 3.115462 -0.481916 3.065903
  H 1.277975 0.951946 2.035761
  H 2.460386 2.221657 1.712020
  H 3.133523 -1.375836 -0.451236
  H 5.607007 0.446526 -0.712593
  H 6.543176 0.013416 -2.870617
 20
 94.696163
  C -0.096913 0.223831 0.364312
  C 3.768099 -0.166884 1.117744
  C 3.406186 0.342161 2.361143
  C 2.256024 1.347327 2.328508
  H 2.051929 1.718524 3.327405
  C 3.999084 -0.622036 -0.058264
  C 5.000318 -0.271451 -1.034970
  C 5.081939 -0.904227 -2.214856
  H 4.407928 -1.703823 -2.493020
  O 5.963284 -0.654069 -3.176637
  H -0.676338 0.648069 1.156942
  H -0.056634 -0.838777 0.255978
  H 0.287432 0.856403 -0.406625
  H 4.315911 0.807662 2.776863
  H 3.214062 -0.481750 3.063129
  H 1.356070 0.864471 1.932847
  H 2.490936 2.188852 1.683559
  H 3.340476 -1.439627 -0.361243
  H 5.680869 0.524412 -0.776597
  H 6.578922 0.060967 -2.942176
