 20
 0.000000
  C 1.007769 -0.070598 0.049465
  C 2.503946 -0.082197 0.026695
  C 3.219060 -0.595156 -0.980332
  C 4.656668 -0.606995 -1.003571
  C 5.376034 -1.122610 -2.015808
  C 6.813950 -1.132321 -2.034870
  C 7.535184 -1.643067 -3.037555
  C 9.025220 -1.660715 -3.072192
  H 0.645768 0.395600 0.964683
  H 0.612005 -1.085300 0.010238
  H 0.612007 0.494276 -0.794379
  H 3.005352 0.352976 0.881017
  H 2.707091 -1.028434 -1.830918
  H 5.162471 -0.172400 -0.150392
  H 4.871675 -1.557494 -2.869558
  H 7.319056 -0.697397 -1.181044
  H 7.038273 -2.079808 -3.894936
  H 9.455677 -1.206901 -2.181284
  H 9.386099 -1.114504 -3.945095
  H 9.386094 -2.687936 -3.143612
 20
 0.476147
  C 1.007435 -0.017832 0.024263
  C 2.501723 -0.057236 0.017388
  C 3.226716 -0.624374 -0.951166
  C 4.661365 -0.669586 -0.958326
  C 5.390193 -1.242507 -1.932416
  C 6.826411 -1.259479 -1.948122
  C 7.547228 -1.740373 -2.963882
  C 9.022549 -1.599035 -3.113455
  H 0.633033 0.518915 0.891535
  H 0.597815 -1.028110 0.040745
  H 0.631987 0.471005 -0.874706
  H 3.005865 0.403313 0.856551
  H 2.724601 -1.086676 -1.792435
  H 5.164281 -0.202257 -0.120721
  H 4.886984 -1.710076 -2.769276
  H 7.325450 -0.795431 -1.106371
  H 7.036713 -2.202715 -3.800158
  H 9.494775 -1.362215 -2.162414
  H 9.240314 -0.791953 -3.815140
  H 9.464263 -2.510478 -3.513772
 20
 4.172398
  C 1.048508 0.087416 -0.039399
  C 2.540901 0.000789 -0.039504
  C 3.246596 -0.681451 -0.946439
  C 4.679618 -0.786594 -0.937508
  C 5.385543 -1.483762 -1.843563
  C 6.826262 -1.562252 -1.801593
  C 7.542449 -1.752207 -2.909565
  C 8.968147 -1.408980 -3.158988
  H 0.688025 0.645584 0.820453
  H 0.605796 -0.908013 -0.016095
  H 0.693321 0.580650 -0.944768
  H 3.059829 0.518815 0.755812
  H 2.729210 -1.201063 -1.744357
  H 5.198559 -0.248761 -0.154106
  H 4.861902 -2.025502 -2.619154
  H 7.304302 -1.191969 -0.902555
  H 7.033305 -2.157236 -3.778986
  H 9.478740 -1.127722 -2.240660
  H 9.005484 -0.565504 -3.849867
  H 9.501600 -2.240056 -3.620560
 20
 16.908151
  C 1.140264 0.189035 -0.101102
  C 2.632922 0.051650 -0.122613
  C 3.293729 -0.742575 -0.968077
  C 4.723977 -0.889937 -0.985323
  C 5.378618 -1.714621 -1.820753
  C 6.817505 -1.927844 -1.687979
  C 7.497658 -1.764111 -2.832869
  C 8.829738 -1.175876 -3.138011
  H 0.813950 0.798757 0.740356
  H 0.665331 -0.786705 -0.025994
  H 0.783738 0.655359 -1.023814
  H 3.187276 0.618109 0.615041
  H 2.743013 -1.313654 -1.701426
  H 5.277813 -0.307336 -0.265483
  H 4.799881 -2.315204 -2.506021
  H 7.262858 -1.577883 -0.760024
  H 7.059757 -2.216575 -3.720233
  H 9.321825 -0.805630 -2.239922
  H 8.680952 -0.347876 -3.828813
  H 9.486354 -1.899761 -3.618424
 20
 43.112350
  C 1.331650 0.256765 -0.183994
  C 2.817328 0.121934 -0.303380
  C 3.417394 -0.803178 -1.050846
  C 4.839053 -0.971716 -1.142494
  C 5.426005 -1.942738 -1.867465
  C 6.822477 -2.311724 -1.576404
  C 7.335864 -1.837561 -2.745492
  C 8.469218 -0.893818 -2.975065
  H 1.064988 1.026023 0.537243
  H 0.883457 -0.682341 0.130524
  H 0.890987 0.520874 -1.146047
  H 3.418909 0.795948 0.290284
  H 2.812268 -1.479290 -1.642260
  H 5.451827 -0.278674 -0.583060
  H 4.797278 -2.566768 -2.489845
  H 7.270811 -1.985025 -0.652007
  H 7.032997 -2.321792 -3.663488
  H 8.825857 -0.464859 -2.039815
  H 8.125353 -0.090452 -3.629110
  H 9.305108 -1.392889 -3.471321
 20
 54.420741
  C 1.539831 0.302331 -0.358298
  C 3.022432 0.134373 -0.442720
  C 3.620382 -0.874726 -1.102004
  C 5.022874 -1.029894 -1.226253
  C 5.625890 -2.116588 -1.850186
  C 6.952228 -2.533733 -1.334819
  C 7.136995 -1.947199 -2.600493
  C 7.918344 -0.687134 -2.869865
  H 1.276421 1.149618 0.268113
  H 1.073598 -0.592077 0.053484
  H 1.114371 0.461897 -1.347724
  H 3.633012 0.878448 0.053215
  H 3.002654 -1.622210 -1.589080
  H 5.649471 -0.298156 -0.739861
  H 5.003443 -2.817455 -2.391202
  H 7.379643 -2.068652 -0.457193
  H 6.982869 -2.553058 -3.487600
  H 8.177901 -0.177569 -1.944067
  H 7.339074 -0.007101 -3.494080
  H 8.834400 -0.932274 -3.402066
 20
 53.956836
  C 1.611134 0.254696 -0.230305
  C 3.078114 0.146248 -0.476125
  C 3.644309 -0.858973 -1.174570
  C 5.023307 -0.946205 -1.462192
  C 5.611633 -2.037456 -2.129701
  C 6.744093 -2.540588 -1.286479
  C 7.115696 -1.978960 -2.565029
  C 7.888972 -0.698883 -2.780281
  H 1.379634 1.111398 0.396748
  H 1.235237 -0.645649 0.256495
  H 1.071618 0.361127 -1.172506
  H 3.705529 0.932047 -0.079004
  H 3.012010 -1.649632 -1.561010
  H 5.662724 -0.169082 -1.071106
  H 4.975060 -2.721856 -2.673496
  H 7.025575 -2.059223 -0.360543
  H 7.250541 -2.691157 -3.373395
  H 7.903571 -0.087440 -1.881238
  H 7.450138 -0.116648 -3.590745
  H 8.916939 -0.934924 -3.048217
 20
 59.854087
  C 1.596013 0.278840 -0.244489
  C 3.064501 0.202721 -0.490433
  C 3.667286 -0.848113 -1.081911
  C 5.046870 -0.908955 -1.373355
  C 5.675427 -2.039377 -1.926474
  C 6.887741 -2.430491 -0.851094
  C 7.084458 -1.938934 -2.383290
  C 7.693798 -0.607111 -2.761230
  H 1.333282 1.187102 0.288958
  H 1.259591 -0.577560 0.338512
  H 1.047731 0.262095 -1.188540
  H 3.661731 1.051106 -0.185730
  H 3.065642 -1.700687 -1.375920
  H 5.654817 -0.068714 -1.073517
  H 5.077147 -2.820088 -2.378401
  H 7.152593 -1.824292 0.000621
  H 7.256199 -2.723712 -3.110990
  H 7.681533 0.088107 -1.926005
  H 7.151580 -0.159446 -3.595718
  H 8.727367 -0.752499 -3.066107
 20
 74.910247
  C 1.529063 0.269922 -0.227791
  C 2.994635 0.248805 -0.500176
  C 3.650326 -0.833237 -0.965487
  C 5.025385 -0.850213 -1.282984
  C 5.712408 -2.004255 -1.700812
  C 6.973968 -2.177995 -0.588580
  C 7.089795 -1.879772 -2.202926
  C 7.594435 -0.571013 -2.769475
  H 1.220479 1.223212 0.189645
  H 1.257058 -0.520663 0.470174
  H 0.965624 0.096933 -1.147028
  H 3.543725 1.163622 -0.324254
  H 3.097316 -1.751102 -1.130209
  H 5.585369 0.056614 -1.111070
  H 5.156978 -2.873275 -2.029900
  H 7.216096 -1.448772 0.167698
  H 7.297849 -2.741321 -2.826497
  H 7.554101 0.225072 -2.030878
  H 7.001481 -0.273344 -3.635996
  H 8.627676 -0.685807 -3.087755
 20
 53.679193
  C 1.451497 0.263146 -0.233994
  C 2.926293 0.252625 -0.460245
  C 3.603839 -0.824354 -0.907298
  C 4.988297 -0.834198 -1.181618
  C 5.696938 -1.982800 -1.571000
  C 6.978257 -2.132390 -0.811412
  C 7.143394 -1.870549 -2.213179
  C 7.725901 -0.607505 -2.800391
  H 1.129434 1.198290 0.213080
  H 1.156666 -0.557507 0.420467
  H 0.918298 0.131693 -1.176404
  H 3.464243 1.170216 -0.261628
  H 3.061439 -1.742604 -1.094228
  H 5.540817 0.072852 -0.985089
  H 5.130422 -2.855268 -1.867191
  H 7.283258 -1.400048 -0.076386
  H 7.257078 -2.728664 -2.869062
  H 7.734524 0.201622 -2.071187
  H 7.153290 -0.288378 -3.669748
  H 8.749881 -0.792770 -3.117787
