 20
 0.000000
  C 1.006706 -0.070433 0.049790
  C 2.503023 -0.083110 0.024903
  C 3.216525 -0.596556 -0.983080
  C 4.654423 -0.607093 -1.003765
  C 5.378801 -1.121116 -2.012877
  C 6.817289 -1.130165 -2.030638
  C 7.535689 -1.641927 -3.035319
  C 9.025517 -1.661773 -3.074272
  H 0.646222 0.395920 0.965312
  H 0.610242 -1.084695 0.011005
  H 0.610243 0.494540 -0.793442
  H 3.005821 0.351625 0.878362
  H 2.703734 -1.029460 -1.832931
  H 5.156860 -0.171782 -0.149180
  H 4.877203 -1.556586 -2.867776
  H 7.326025 -0.695952 -1.178205
  H 7.036683 -2.078056 -3.891500
  H 9.459086 -1.208680 -2.184780
  H 9.384653 -1.116277 -3.948188
  H 9.384654 -2.689404 -3.146870
 20
 -0.091741
  C 1.003855 -0.063921 0.055217
  C 2.498318 -0.106281 0.041638
  C 3.218700 -0.591530 -0.973183
  C 4.654214 -0.621281 -0.993380
  C 5.381211 -1.107912 -2.014561
  C 6.817700 -1.118715 -2.042353
  C 7.540440 -1.645588 -3.033816
  C 9.028150 -1.663624 -3.079729
  H 0.632866 0.343639 0.991235
  H 0.589835 -1.063182 -0.073358
  H 0.630604 0.555581 -0.760984
  H 3.004117 0.283470 0.913496
  H 2.711761 -0.984703 -1.847183
  H 5.158427 -0.213541 -0.126640
  H 4.876639 -1.521003 -2.879104
  H 7.320683 -0.660019 -1.200530
  H 7.039686 -2.103239 -3.878248
  H 9.454203 -1.188719 -2.199470
  H 9.385335 -1.141230 -3.967994
  H 9.392066 -2.689700 -3.135518
 20
 -0.021962
  C 1.005183 -0.062297 0.055351
  C 2.497526 -0.134552 0.057585
  C 3.222162 -0.585244 -0.970959
  C 4.655978 -0.636762 -0.979429
  C 5.382738 -1.089463 -2.016678
  C 6.818274 -1.107851 -2.045602
  C 7.537870 -1.643589 -3.034520
  C 9.024038 -1.664587 -3.083926
  H 0.627197 0.269522 1.019589
  H 0.572607 -1.037500 -0.169929
  H 0.657114 0.635354 -0.709702
  H 3.001192 0.203911 0.954117
  H 2.719457 -0.928656 -1.870477
  H 5.159592 -0.267948 -0.095168
  H 4.876698 -1.468961 -2.895703
  H 7.325079 -0.638743 -1.209657
  H 7.033486 -2.110356 -3.873206
  H 9.452236 -1.183349 -2.207658
  H 9.380025 -1.149891 -3.977846
  H 9.386307 -2.691957 -3.133814
 20
 0.114663
  C 1.003855 -0.058791 0.058272
  C 2.495044 -0.152350 0.069222
  C 3.221468 -0.586001 -0.964893
  C 4.656400 -0.645519 -0.968780
  C 5.385112 -1.082116 -2.011533
  C 6.821417 -1.091932 -2.048677
  C 7.536020 -1.651322 -3.027932
  C 9.022321 -1.661818 -3.091008
  H 0.621037 0.214872 1.038433
  H 0.559838 -1.008932 -0.235008
  H 0.674375 0.693075 -0.660678
  H 2.996637 0.157286 0.976871
  H 2.723256 -0.902924 -1.874118
  H 5.157737 -0.291841 -0.076132
  H 4.878860 -1.455590 -2.893040
  H 7.331973 -0.586995 -1.237163
  H 7.026802 -2.151605 -3.845210
  H 9.453863 -1.146712 -2.237405
  H 9.364632 -1.174760 -4.005957
  H 9.394071 -2.687018 -3.109860
 20
 0.294379
  C 1.005392 -0.035665 0.057382
  C 2.495852 -0.165383 0.083685
  C 3.222740 -0.611774 -0.943221
  C 4.657948 -0.678037 -0.946584
  C 5.381696 -1.108540 -1.995787
  C 6.817294 -1.095138 -2.049886
  C 7.533146 -1.663809 -3.023270
  C 9.017342 -1.634959 -3.110065
  H 0.618219 0.240750 1.034593
  H 0.542358 -0.969374 -0.248855
  H 0.703165 0.729935 -0.660148
  H 2.995637 0.130834 0.998600
  H 2.725657 -0.921502 -1.855868
  H 5.162549 -0.320078 -0.057649
  H 4.870694 -1.489510 -2.869671
  H 7.323435 -0.548070 -1.266912
  H 7.028981 -2.203062 -3.811987
  H 9.447091 -1.070171 -2.284942
  H 9.330953 -1.177982 -4.050219
  H 9.419261 -2.650712 -3.090382
 20
 0.548328
  C 1.008527 -0.028116 0.066957
  C 2.493625 -0.166105 0.096297
  C 3.222255 -0.617747 -0.930837
  C 4.658857 -0.698229 -0.926803
  C 5.383249 -1.116736 -1.981778
  C 6.817156 -1.086238 -2.053443
  C 7.526313 -1.664704 -3.025693
  C 9.008357 -1.617790 -3.136602
  H 0.622570 0.257997 1.041344
  H 0.539642 -0.963794 -0.231692
  H 0.713438 0.733313 -0.656288
  H 2.990936 0.122081 1.013886
  H 2.728019 -0.918235 -1.845918
  H 5.159638 -0.347503 -0.033824
  H 4.869440 -1.493673 -2.857661
  H 7.324711 -0.512951 -1.291148
  H 7.016913 -2.234746 -3.793710
  H 9.443174 -1.032583 -2.328529
  H 9.298343 -1.170659 -4.088398
  H 9.425897 -2.625423 -3.107910
 20
 1.088035
  C 1.022907 0.057967 0.040899
  C 2.498566 -0.174657 0.094369
  C 3.213569 -0.651106 -0.928927
  C 4.642183 -0.804043 -0.908861
  C 5.370114 -1.177001 -1.976728
  C 6.804233 -1.120537 -2.036531
  C 7.532775 -1.634267 -3.029731
  C 9.015033 -1.539977 -3.132229
  H 0.658043 0.478696 0.973956
  H 0.492595 -0.875735 -0.149157
  H 0.773857 0.742920 -0.767916
  H 2.994364 0.052037 1.028799
  H 2.716007 -0.879234 -1.863943
  H 5.146009 -0.500237 0.001164
  H 4.863320 -1.522235 -2.869385
  H 7.291567 -0.565631 -1.242838
  H 7.040415 -2.174204 -3.829784
  H 9.433683 -1.010816 -2.279818
  H 9.298772 -1.014582 -4.044913
  H 9.453815 -2.536308 -3.179927
 20
 1.680696
  C 1.035038 0.081581 0.038091
  C 2.501056 -0.192592 0.098318
  C 3.210854 -0.669787 -0.927921
  C 4.641201 -0.834045 -0.908157
  C 5.362352 -1.199045 -1.983465
  C 6.790946 -1.122188 -2.046346
  C 7.533836 -1.653016 -3.022366
  C 9.012302 -1.524627 -3.124801
  H 0.662452 0.435034 0.994785
  H 0.484018 -0.820397 -0.237927
  H 0.820403 0.836256 -0.714449
  H 2.997946 0.013000 1.037246
  H 2.711459 -0.885429 -1.866950
  H 5.151665 -0.537933 0.001942
  H 4.853227 -1.536182 -2.877417
  H 7.260469 -0.519528 -1.276223
  H 7.057704 -2.235887 -3.801560
  H 9.414920 -0.959209 -2.288062
  H 9.284016 -1.019837 -4.054385
  H 9.475963 -2.505119 -3.141856
