 23
 0.000000
  C 1.002021 0.053422 0.188961
  C 2.506671 0.053603 0.185738
  C 3.285106 -0.019337 1.478449
  C 2.477466 -0.092316 2.771708
  C 3.402051 -0.160645 3.982693
  C 3.140653 0.120294 -0.996155
  H 2.546335 0.171212 -1.898557
  C 4.565233 0.132202 -1.207126
  C 5.112392 0.200653 -2.420352
  O 6.441366 0.215864 -2.689888
  H 0.589106 -0.003038 1.189506
  H 0.625140 -0.796017 -0.378997
  H 0.625142 0.961364 -0.279830
  H 3.936818 0.858848 1.536429
  H 3.936826 -0.898472 1.437265
  H 1.840183 -0.979140 2.765340
  H 1.840177 0.789590 2.865147
  H 4.038570 -1.041639 3.930292
  H 2.823203 -0.212530 4.902151
  H 4.038562 0.720652 4.029726
  H 5.213912 0.083381 -0.341836
  H 4.529151 0.251798 -3.326804
  H 6.939381 0.169250 -1.863682
 23
 13.132904
  C 0.978170 0.051070 0.230635
  C 2.475084 0.050747 0.236347
  C 3.255509 -0.021656 1.519546
  C 2.452928 -0.094788 2.815515
  C 3.382753 -0.162882 4.022331
  C 3.186669 0.125280 -1.084517
  H 2.593914 0.176030 -1.983944
  C 4.599527 0.136413 -1.281760
  C 5.158963 0.204962 -2.496717
  O 6.491092 0.219560 -2.755408
  H 0.561023 -0.005258 1.228852
  H 0.603755 -0.798509 -0.340293
  H 0.603756 0.959486 -0.241091
  H 3.907930 0.856817 1.574539
  H 3.907936 -0.900737 1.475363
  H 1.815886 -0.981883 2.811676
  H 1.815878 0.787104 2.911497
  H 4.019344 -1.043695 3.967102
  H 2.807898 -0.214907 4.944262
  H 4.019337 0.718553 4.066535
  H 5.240972 0.087238 -0.410202
  H 4.582618 0.256397 -3.408321
  H 6.982207 0.172711 -1.925030
 23
 37.968055
  C 0.910384 0.050958 0.232613
  C 2.389475 0.047775 0.289008
  C 3.219917 -0.021451 1.515858
  C 2.465915 -0.096354 2.843229
  C 3.442659 -0.162338 4.012694
  C 3.176261 0.130224 -1.172112
  H 2.559671 0.179796 -2.050652
  C 4.583905 0.137296 -1.297420
  C 5.209367 0.204532 -2.489065
  O 6.556818 0.214791 -2.670891
  H 0.468291 -0.004997 1.224192
  H 0.545777 -0.796134 -0.355010
  H 0.545779 0.958783 -0.255980
  H 3.879359 0.857857 1.540356
  H 3.879361 -0.897924 1.441281
  H 1.830677 -0.984698 2.858841
  H 1.830676 0.784584 2.958679
  H 4.079025 -1.041312 3.932042
  H 2.904459 -0.215599 4.956577
  H 4.079024 0.720141 4.031434
  H 5.184501 0.086381 -0.395069
  H 4.682822 0.257489 -3.427601
  H 6.997449 0.166418 -1.813553
 23
 66.150786
  C 0.874232 0.049090 0.265720
  C 2.353500 0.045197 0.334685
  C 3.205058 -0.023338 1.549299
  C 2.455716 -0.098377 2.879078
  C 3.433523 -0.164231 4.046228
  C 3.211615 0.135677 -1.268764
  H 2.580524 0.184533 -2.134595
  C 4.605723 0.141311 -1.368590
  C 5.254727 0.207858 -2.548008
  O 6.605854 0.216395 -2.699293
  H 0.429619 -0.006810 1.256320
  H 0.510472 -0.795137 -0.322365
  H 0.510473 0.954119 -0.223654
  H 3.863995 0.853887 1.570495
  H 3.863999 -0.897374 1.471673
  H 1.820389 -0.986350 2.895511
  H 1.820380 0.782112 2.995303
  H 4.069774 -1.043137 3.964423
  H 2.896919 -0.217535 4.990868
  H 4.069775 0.718308 4.063816
  H 5.189649 0.089969 -0.458657
  H 4.746657 0.261471 -3.498178
  H 7.026404 0.167401 -1.830950
 23
 92.808781
  C 0.842320 0.047836 0.287960
  C 2.302645 0.042517 0.382198
  C 3.198548 -0.022919 1.541917
  C 2.471287 -0.098940 2.889118
  C 3.459600 -0.164299 4.047497
  C 3.217805 0.141450 -1.371075
  H 2.544662 0.188041 -2.196794
  C 4.579255 0.143729 -1.411439
  C 5.286829 0.208081 -2.551965
  O 6.644308 0.211953 -2.620558
  H 0.390757 -0.008059 1.278483
  H 0.480016 -0.796869 -0.305325
  H 0.480016 0.953923 -0.206529
  H 3.857280 0.856931 1.546222
  H 3.857282 -0.897662 1.447210
  H 1.831749 -0.983840 2.912339
  H 1.831753 0.777718 3.011738
  H 4.095415 -1.043065 3.960076
  H 2.931469 -0.217872 4.996901
  H 4.095404 0.718714 4.059484
  H 5.125456 0.091036 -0.477550
  H 4.832211 0.263008 -3.525455
  H 7.008246 0.161579 -1.727737
 23
 116.777129
  C 0.789920 0.045856 0.323031
  C 2.243561 0.039720 0.431769
  C 3.155619 -0.024430 1.568686
  C 2.457061 -0.101316 2.931186
  C 3.473583 -0.165280 4.064797
  C 3.228617 0.146723 -1.464528
  H 2.530129 0.192406 -2.274135
  C 4.601400 0.147211 -1.473130
  C 5.360004 0.211221 -2.607565
  O 6.721543 0.212248 -2.625799
  H 0.324175 -0.009842 1.310068
  H 0.433507 -0.799104 -0.274332
  H 0.433507 0.952656 -0.175480
  H 3.814546 0.855205 1.561791
  H 3.814552 -0.897703 1.462875
  H 1.821043 -0.989540 2.965702
  H 1.821043 0.777380 3.065401
  H 4.108551 -1.043434 3.961751
  H 2.968524 -0.219567 5.026901
  H 4.108561 0.718906 4.061199
  H 5.124145 0.093554 -0.522170
  H 4.940842 0.266930 -3.594929
  H 7.049615 0.161315 -1.723131
 23
 137.460884
  C 0.750385 0.043969 0.356464
  C 2.208298 0.037270 0.475170
  C 3.134111 -0.026709 1.609088
  C 2.440457 -0.103961 2.978095
  C 3.460759 -0.167661 4.107010
  C 3.267931 0.152207 -1.561721
  H 2.565515 0.197191 -2.358969
  C 4.625268 0.151676 -1.552275
  C 5.404568 0.215040 -2.675258
  O 6.772025 0.214576 -2.667038
  H 0.278877 -0.011563 1.340575
  H 0.395938 -0.800206 -0.242766
  H 0.395937 0.950198 -0.143992
  H 3.794122 0.853223 1.599108
  H 3.794124 -0.899925 1.500178
  H 1.805686 -0.991326 3.014409
  H 1.805681 0.773683 3.114001
  H 4.095081 -1.045174 4.001502
  H 2.959618 -0.222040 5.070758
  H 4.095077 0.716149 4.100893
  H 5.133142 0.097703 -0.595697
  H 5.001317 0.271367 -3.673572
  H 7.085207 0.162867 -1.750606
 23
 154.591540
  C 0.719991 0.041258 0.404513
  C 2.170917 0.034370 0.526572
  C 3.098811 -0.028985 1.649404
  C 2.415233 -0.106422 3.021684
  C 3.443192 -0.169688 4.142929
  C 3.303870 0.157276 -1.651565
  H 2.593115 0.201993 -2.444073
  C 4.662245 0.155994 -1.628806
  C 5.459804 0.218880 -2.743316
  O 6.821436 0.217176 -2.713119
  H 0.243895 -0.014147 1.386366
  H 0.368484 -0.801952 -0.195470
  H 0.368484 0.946615 -0.096799
  H 3.757420 0.849582 1.635100
  H 3.757425 -0.900362 1.536350
  H 1.780938 -0.994633 3.061069
  H 1.780933 0.771719 3.160738
  H 4.077293 -1.047314 4.033001
  H 2.948511 -0.224265 5.110168
  H 4.077296 0.714740 4.132433
  H 5.159845 0.101661 -0.665862
  H 5.072889 0.275427 -3.745518
  H 7.115878 0.165655 -1.800010
 23
 168.249799
  C 0.680918 0.038952 0.445383
  C 2.132305 0.031752 0.572959
  C 3.068241 -0.031217 1.688970
  C 2.393364 -0.109214 3.071182
  C 3.430072 -0.172091 4.185523
  C 3.338982 0.162617 -1.746216
  H 2.621356 0.206887 -2.530814
  C 4.688360 0.160437 -1.707557
  C 5.506358 0.222621 -2.809614
  O 6.875504 0.219420 -2.752875
  H 0.197077 -0.016455 1.427278
  H 0.331513 -0.805584 -0.157949
  H 0.331513 0.946002 -0.059109
  H 3.728176 0.849067 1.669397
  H 3.728179 -0.903706 1.570489
  H 1.759833 -0.997525 3.114353
  H 1.759825 0.768602 3.214012
  H 4.063608 -1.049314 4.071112
  H 2.942412 -0.226873 5.156388
  H 4.063604 0.712433 4.170528
  H 5.173129 0.105700 -0.737438
  H 5.136690 0.279557 -3.818711
  H 7.155960 0.167030 -1.824345
 23
 177.198012
  C 0.671966 0.034478 0.524701
  C 2.119475 0.029096 0.620017
  C 3.015012 -0.035052 1.756890
  C 2.333748 -0.113292 3.143429
  C 3.365469 -0.176585 4.265203
  C 3.407393 0.167699 -1.836279
  H 2.699454 0.212971 -2.638608
  C 4.763524 0.166656 -1.817823
  C 5.573621 0.229790 -2.936708
  O 6.924455 0.227770 -2.900811
  H 0.181142 -0.021170 1.510868
  H 0.328641 -0.806212 -0.077318
  H 0.328644 0.937562 0.021083
  H 3.671295 0.840787 1.738324
  H 3.671300 -0.903242 1.639912
  H 1.699670 -1.001514 3.184095
  H 1.699675 0.764703 3.283758
  H 3.999560 -1.054341 4.154083
  H 2.873372 -0.231279 5.234485
  H 3.999565 0.708112 4.253533
  H 5.261180 0.112137 -0.851568
  H 5.192353 0.286391 -3.939796
  H 7.213992 0.176300 -1.988563
 23
 175.662877
  C 0.635876 0.029667 0.610229
  C 2.091020 0.027467 0.649294
  C 2.929458 -0.039620 1.838160
  C 2.279729 -0.118621 3.238084
  C 3.324489 -0.180840 4.340318
  C 3.473172 0.173394 -1.937220
  H 2.787992 0.220037 -2.764821
  C 4.830142 0.173110 -1.933202
  C 5.648145 0.236201 -3.051093
  O 6.987912 0.234387 -3.016894
  H 0.116225 -0.025076 1.580337
  H 0.313277 -0.809438 -0.004691
  H 0.313273 0.932621 0.093611
  H 3.588334 0.833659 1.806018
  H 3.588340 -0.903764 1.707971
  H 1.646089 -1.006581 3.289534
  H 1.646085 0.757925 3.389123
  H 3.957426 -1.057813 4.218544
  H 2.850578 -0.235997 5.317626
  H 3.957434 0.704257 4.317997
  H 5.332983 0.118823 -0.970520
  H 5.261373 0.293119 -4.059583
  H 7.281208 0.183072 -2.107187
 23
 164.607789
  C 0.705233 -0.004023 0.663184
  C 2.167723 0.024259 0.665391
  C 2.901086 -0.038959 1.928047
  C 2.190756 -0.125421 3.284040
  C 3.197282 -0.185247 4.427167
  C 3.602514 0.131362 -1.875178
  H 3.038247 0.338913 -2.786564
  C 4.951483 0.353186 -1.960425
  C 5.606837 0.308734 -3.172758
  O 6.909020 0.048702 -3.334313
  H 0.179782 -0.062774 1.621206
  H 0.421738 -0.847135 0.031166
  H 0.376857 0.880331 0.109404
  H 3.570170 0.831624 1.908551
  H 3.579406 -0.894624 1.804208
  H 1.561573 -1.018860 3.311337
  H 1.547505 0.748356 3.415975
  H 3.839798 -1.058136 4.326765
  H 2.687391 -0.246099 5.386486
  H 3.826136 0.703620 4.431350
  H 5.552452 0.333961 -1.052809
  H 5.072013 0.268555 -4.106306
  H 7.355558 0.049667 -2.474289
