 17
 0.000000
  C 1.008577 -0.071098 0.048483
  C 2.504605 -0.082276 0.026541
  C 3.219676 -0.595132 -0.980283
  C 4.656291 -0.606566 -1.002728
  C 5.377580 -1.121770 -2.014161
  C 6.814980 -1.131963 -2.034167
  C 7.530610 -1.641617 -3.034712
  H 8.603506 -1.653838 -3.058698
  H 0.645028 0.394565 0.962651
  H 0.613587 -1.085554 0.007954
  H 0.613588 0.492577 -0.795930
  H 3.004780 0.353957 0.882940
  H 2.709778 -1.029639 -1.833286
  H 5.160803 -0.171865 -0.149342
  H 4.873843 -1.556560 -2.867722
  H 7.320863 -0.697447 -1.181141
  H 7.035203 -2.077537 -3.890480
 17
 11.226276
  C 0.972724 -0.071499 0.047690
  C 2.471737 -0.096861 -0.002097
  C 3.248911 -0.576733 -0.944154
  C 4.683251 -0.599751 -0.989343
  C 5.388603 -1.115358 -2.001564
  C 6.831503 -1.136800 -2.043661
  C 7.534364 -1.647975 -3.047200
  H 8.618155 -1.649971 -3.051111
  H 0.624121 0.392433 0.958438
  H 0.572517 -1.079183 -0.002652
  H 0.572530 0.480243 -0.797003
  H 3.085548 0.271837 0.721714
  H 2.627307 -0.951005 -1.678903
  H 5.199123 -0.166867 -0.139522
  H 4.866861 -1.548036 -2.850994
  H 7.342988 -0.703096 -1.192225
  H 7.053439 -2.083002 -3.901224
