 29
 0.000000
  C 0.950654 0.144703 0.410478
  C 2.426321 0.139013 0.396549
  C 3.224203 0.604742 1.556027
  C 2.464033 1.098288 2.784404
  C 3.438267 1.535706 3.874062
  C 3.036405 -0.327346 -0.764451
  C 4.413627 -0.408376 -0.967270
  C 5.105134 -0.857772 -2.087692
  C 4.616538 -1.381274 -3.392176
  C 3.129095 -1.502962 -3.695283
  H 2.993312 -1.901733 -4.688939
  O 6.423565 -0.847859 -2.063727
  H 0.531940 0.517153 1.337233
  H 0.574955 -0.864738 0.236297
  H 0.574943 0.752951 -0.413755
  H 3.882575 1.412682 1.217351
  H 3.882361 -0.213106 1.870453
  H 1.828379 0.305031 3.181303
  H 1.828773 1.945964 2.522250
  H 4.073340 0.708725 4.183946
  H 2.895498 1.886865 4.748109
  H 4.073767 2.346987 3.525918
  H 2.375049 -0.643769 -1.551855
  H 5.036849 -0.077948 -0.144966
  H 5.082738 -2.366268 -3.514183
  H 5.082859 -0.753979 -4.161283
  H 2.648932 -0.527402 -3.649890
  H 2.649065 -2.176604 -2.988125
  H 6.801662 -0.513249 -1.228761
 29
 15.062046
  C 0.927050 0.156028 0.438197
  C 2.408011 0.140678 0.400261
  C 3.230097 0.602960 1.551407
  C 2.494296 1.101872 2.793190
  C 3.491148 1.532279 3.866114
  C 2.997487 -0.324590 -0.758111
  C 4.423448 -0.418695 -0.993598
  C 5.032882 -0.871022 -2.121462
  C 4.646419 -1.400928 -3.441664
  C 3.177405 -1.531988 -3.766505
  H 3.078368 -1.935495 -4.771860
  O 6.269077 -0.768903 -1.867751
  H 0.525240 0.530976 1.371100
  H 0.542502 -0.850538 0.266608
  H 0.542487 0.763950 -0.382170
  H 3.888746 1.405642 1.203174
  H 3.888385 -0.217775 1.855214
  H 1.861178 0.311964 3.201326
  H 1.861857 1.955099 2.541514
  H 4.125424 0.700576 4.164524
  H 2.966713 1.887394 4.749889
  H 4.126153 2.338771 3.506650
  H 2.337211 -0.642763 -1.550030
  H 5.025528 -0.087855 -0.169497
  H 5.134679 -2.370515 -3.538434
  H 5.134135 -0.767097 -4.182047
  H 2.681282 -0.566822 -3.744320
  H 2.682230 -2.214523 -3.083112
  H 6.545484 -0.424430 -1.006934
 29
 54.860116
  C 0.927395 0.165446 0.473129
  C 2.403744 0.142990 0.414024
  C 3.233534 0.604760 1.557188
  C 2.504515 1.104219 2.795572
  C 3.504388 1.535646 3.861801
  C 2.976713 -0.324543 -0.748558
  C 4.482141 -0.431926 -1.014278
  C 4.999726 -0.890663 -2.163709
  C 4.677148 -1.419758 -3.493561
  C 3.195381 -1.551767 -3.830986
  H 3.095270 -1.952462 -4.838388
  O 6.171001 -0.730886 -1.759000
  H 0.540780 0.544635 1.414245
  H 0.538842 -0.835135 0.309199
  H 0.537080 0.771470 -0.338846
  H 3.884479 1.404817 1.206113
  H 3.885556 -0.213884 1.859467
  H 1.873359 0.315053 3.206951
  H 1.872244 1.956964 2.543918
  H 4.139298 0.704062 4.159289
  H 2.983571 1.892641 4.746411
  H 4.138116 2.341366 3.497786
  H 2.324712 -0.643375 -1.543221
  H 5.011494 -0.091647 -0.160914
  H 5.178076 -2.393548 -3.575579
  H 5.180792 -0.770227 -4.221984
  H 2.700783 -0.588638 -3.805550
  H 2.698254 -2.232935 -3.151375
  H 6.414174 -0.385900 -0.885577
 29
 107.987510
  C 0.890052 0.178501 0.505717
  C 2.373724 0.147257 0.423991
  C 3.219741 0.605286 1.557986
  C 2.508504 1.111263 2.812176
  C 3.526381 1.537062 3.865624
  C 2.928731 -0.318339 -0.733797
  C 4.569185 -0.437152 -1.028113
  C 4.981590 -0.909750 -2.212677
  C 4.700387 -1.436223 -3.535900
  C 3.230915 -1.573441 -3.883280
  H 3.140063 -1.973654 -4.891379
  O 6.128826 -0.710216 -1.709411
  H 0.520998 0.557376 1.446233
  H 0.490837 -0.828669 0.347282
  H 0.488881 0.793113 -0.306871
  H 3.875216 1.410275 1.196783
  H 3.876175 -0.224553 1.856554
  H 1.879054 0.327358 3.232842
  H 1.878268 1.966985 2.570250
  H 4.159681 0.702162 4.154129
  H 3.020173 1.897110 4.757347
  H 4.159299 2.338311 3.493314
  H 2.288090 -0.641510 -1.539027
  H 5.013279 -0.079260 -0.131320
  H 5.204123 -2.399982 -3.609719
  H 5.208329 -0.786699 -4.249090
  H 2.730888 -0.605528 -3.857607
  H 2.730287 -2.259495 -3.201327
  H 6.389360 -0.368693 -0.841307
 29
 142.610588
  C 0.808296 0.199487 0.542567
  C 2.320272 0.145636 0.404469
  C 3.203474 0.600964 1.539661
  C 2.514050 1.106428 2.797437
  C 3.546172 1.523432 3.836093
  C 2.768635 -0.310590 -0.734626
  C 4.709703 -0.449930 -1.067284
  C 4.992784 -0.917580 -2.231703
  C 4.732607 -1.449360 -3.564514
  C 3.256849 -1.580509 -3.899660
  H 3.154926 -1.984149 -4.908935
  O 6.229337 -0.681954 -1.642824
  H 0.527701 0.570009 1.516807
  H 0.390171 -0.808535 0.436048
  H 0.369728 0.832762 -0.234030
  H 3.841472 1.409732 1.163931
  H 3.841616 -0.243291 1.827277
  H 1.894703 0.344257 3.261080
  H 1.895174 1.977499 2.602783
  H 4.175763 0.685127 4.114179
  H 3.053939 1.884270 4.732065
  H 4.177262 2.319756 3.456771
  H 2.207854 -0.647690 -1.585061
  H 5.007775 -0.077832 -0.122090
  H 5.235829 -2.416680 -3.627091
  H 5.242782 -0.793183 -4.272716
  H 2.763021 -0.611605 -3.867622
  H 2.762597 -2.261180 -3.211123
  H 6.533288 -0.354507 -0.796335
 29
 158.567951
  C 0.677101 0.223329 0.633384
  C 2.188594 0.148966 0.426246
  C 3.127275 0.597285 1.530176
  C 2.490953 1.112395 2.815374
  C 3.571955 1.522371 3.825800
  C 2.597798 -0.308391 -0.718432
  C 4.909492 -0.480376 -1.132436
  C 5.084045 -0.947272 -2.305375
  C 4.805781 -1.464778 -3.614069
  C 3.315299 -1.577722 -3.905030
  H 3.171154 -1.978981 -4.894511
  O 6.385842 -0.710042 -1.709914
  H 0.445614 0.622949 1.607772
  H 0.230771 -0.760195 0.538212
  H 0.233180 0.873567 -0.111669
  H 3.751666 1.396988 1.129237
  H 3.757882 -0.253177 1.794009
  H 1.867251 0.356907 3.310413
  H 1.862120 1.996392 2.648337
  H 4.204282 0.675552 4.085739
  H 3.111980 1.890167 4.740418
  H 4.200046 2.315575 3.424766
  H 2.056944 -0.645488 -1.577367
  H 5.113232 -0.099471 -0.158041
  H 5.299316 -2.440024 -3.697676
  H 5.306038 -0.811983 -4.339013
  H 2.832135 -0.607413 -3.836086
  H 2.839881 -2.250765 -3.192056
  H 6.758956 -0.394664 -0.867241
 29
 162.580801
  C 0.529813 0.270412 0.734653
  C 2.034801 0.175920 0.459524
  C 3.036686 0.599837 1.524205
  C 2.471726 1.120686 2.841248
  C 3.596037 1.500607 3.801322
  C 2.415868 -0.285812 -0.692031
  C 5.117282 -0.493360 -1.196210
  C 5.196799 -0.968376 -2.366962
  C 4.885474 -1.490245 -3.659239
  C 3.383073 -1.582824 -3.885459
  H 3.195616 -1.984207 -4.871254
  O 6.560607 -0.725507 -1.780468
  H 0.341850 0.672271 1.724543
  H 0.067721 -0.709054 0.657854
  H 0.063420 0.936378 0.013140
  H 3.651330 1.389053 1.090932
  H 3.653282 -0.271252 1.749248
  H 1.847061 0.368914 3.332802
  H 1.846392 2.004647 2.684563
  H 4.221977 0.641204 4.022741
  H 3.186739 1.872142 4.736008
  H 4.221474 2.278551 3.374243
  H 1.873916 -0.630989 -1.542897
  H 5.233085 -0.100203 -0.216651
  H 5.363962 -2.468000 -3.747514
  H 5.366940 -0.846821 -4.398751
  H 2.919215 -0.603223 -3.807013
  H 2.924158 -2.241968 -3.150032
  H 7.005599 -0.420263 -0.964622
 29
 160.073719
  C 0.327867 0.367556 0.893335
  C 1.800329 0.232651 0.510864
  C 2.885357 0.605977 1.508632
  C 2.432237 1.118009 2.873778
  C 3.638017 1.443753 3.754700
  C 2.118408 -0.214177 -0.666883
  C 5.330470 -0.470787 -1.283322
  C 5.357504 -0.978481 -2.444033
  C 5.024905 -1.538428 -3.713083
  C 3.503681 -1.624410 -3.857655
  H 3.255590 -2.056192 -4.822412
  O 6.782054 -0.719168 -1.907130
  H 0.219972 0.752834 1.898354
  H -0.167021 -0.598011 0.831908
  H -0.166160 1.061378 0.216688
  H 3.497552 1.381910 1.043849
  H 3.493820 -0.286895 1.669101
  H 1.822588 0.364937 3.382679
  H 1.827052 2.023004 2.762335
  H 4.248846 0.557227 3.914540
  H 3.311637 1.808781 4.726793
  H 4.254734 2.213795 3.294597
  H 1.560727 -0.540529 -1.523884
  H 5.414460 -0.127633 -0.277974
  H 5.498264 -2.523233 -3.781660
  H 5.467118 -0.913555 -4.495203
  H 3.054968 -0.636297 -3.780971
  H 3.080431 -2.251079 -3.073453
  H 7.321614 -0.436977 -1.147232
 29
 155.127908
  C 0.245601 0.381693 0.928992
  C 1.703880 0.233658 0.499159
  C 2.821822 0.591162 1.464107
  C 2.422799 1.096245 2.844582
  C 3.659587 1.405238 3.679823
  C 1.984298 -0.202922 -0.691323
  C 5.591432 -0.462790 -1.294846
  C 5.413111 -0.978562 -2.429741
  C 5.047222 -1.537177 -3.680843
  C 3.508656 -1.575880 -3.714582
  H 3.197275 -2.008845 -4.665876
  O 6.976330 -0.707965 -1.924204
  H 0.168312 0.748998 1.947287
  H -0.257489 -0.586389 0.866356
  H -0.269687 1.079675 0.260763
  H 3.430811 1.361051 0.990580
  H 3.437038 -0.301408 1.599942
  H 1.828657 0.347395 3.367111
  H 1.824773 2.002894 2.760500
  H 4.267538 0.513079 3.812450
  H 3.369646 1.766424 4.665279
  H 4.263974 2.172779 3.203094
  H 1.441955 -0.524469 -1.554828
  H 5.378423 -0.107092 -0.322120
  H 5.463072 -2.537236 -3.779838
  H 5.437098 -0.934830 -4.499155
  H 3.094427 -0.574522 -3.625384
  H 3.119186 -2.183159 -2.906948
  H 7.597193 -0.479640 -1.209088
 29
 143.788343
  C 0.278436 0.378910 0.965803
  C 1.721971 0.208881 0.517038
  C 2.859930 0.578208 1.455799
  C 2.486030 1.111225 2.837807
  C 3.744724 1.431553 3.644599
  C 1.971436 -0.239867 -0.667822
  C 5.568521 -0.505669 -1.254656
  C 5.194815 -1.051756 -2.351029
  C 4.983354 -1.451316 -3.699898
  C 3.434705 -1.644565 -3.867349
  H 3.238631 -1.957793 -4.897919
  O 6.942940 -0.671393 -1.662341
  H 0.224547 0.764019 1.978444
  H -0.235008 -0.578688 0.925582
  H -0.235664 1.067361 0.298835
  H 3.466401 1.336446 0.955453
  H 3.475063 -0.313967 1.594298
  H 1.899619 0.370840 3.385183
  H 1.889016 2.021010 2.745388
  H 4.353239 0.538870 3.781582
  H 3.476495 1.811948 4.628847
  H 4.344007 2.189338 3.140943
  H 1.433165 -0.560333 -1.527244
  H 5.308976 -0.141636 -0.287135
  H 5.503716 -2.394889 -3.913554
  H 5.348923 -0.686203 -4.398674
  H 2.906282 -0.711472 -3.668823
  H 3.065393 -2.406316 -3.184918
  H 7.517278 -0.495341 -0.882989
 29
 119.402633
  C 0.449673 0.207151 0.829850
  C 1.911991 0.050581 0.399233
  C 3.022202 0.496180 1.327294
  C 2.611893 1.098554 2.668292
  C 3.855874 1.486115 3.465675
  C 2.085993 -0.468923 -0.763854
  C 5.617139 -0.530721 -1.118616
  C 5.026631 -0.998230 -2.174184
  C 4.686896 -1.324003 -3.508175
  C 3.187237 -1.435099 -3.857029
  H 3.095057 -1.721763 -4.899157
  O 6.951254 -0.597262 -0.880820
  H 0.408396 0.645809 1.818592
  H -0.037932 -0.763033 0.845596
  H -0.075654 0.849275 0.129051
  H 3.616126 1.240926 0.791566
  H 3.648464 -0.376700 1.526627
  H 2.038229 0.377594 3.253139
  H 2.006099 1.993527 2.516398
  H 4.477873 0.615703 3.662718
  H 3.569597 1.917563 4.421731
  H 4.448404 2.223284 2.928002
  H 1.733564 -0.888435 -1.668358
  H 5.005751 -0.129076 -0.317213
  H 5.114678 -2.316778 -3.705325
  H 5.129920 -0.578053 -4.176665
  H 2.704915 -0.472722 -3.719857
  H 2.713932 -2.197789 -3.247006
  H 7.162741 -0.406272 0.043743
