 22
 0.000000
  C 0.984286 0.156286 0.448651
  C 2.454422 0.133532 0.391469
  C 3.241451 0.598000 1.543707
  H 2.613560 0.927565 2.363696
  C 3.044024 -0.334944 -0.776928
  C 4.424041 -0.418919 -0.988109
  C 5.086275 -0.866322 -2.106880
  C 4.626568 -1.384265 -3.401269
  C 3.146261 -1.512004 -3.719591
  H 3.031321 -1.913174 -4.722632
  H 6.167798 -0.842114 -2.047321
  H 0.610093 0.531156 1.395909
  H 0.585167 -0.845597 0.281983
  H 0.583871 0.773011 -0.358316
  H 3.897582 1.418266 1.248255
  H 3.898789 -0.197282 1.898787
  H 2.375393 -0.649276 -1.559811
  H 5.056974 -0.092562 -0.173674
  H 5.106967 -2.364701 -3.525425
  H 5.106658 -0.759868 -4.167514
  H 2.652560 -0.543934 -3.690468
  H 2.653117 -2.193320 -3.030888
 22
 3.368796
  C 0.985211 0.132026 0.493107
  C 2.430671 0.136357 0.400274
  C 3.228467 0.606176 1.546064
  H 2.597888 0.946114 2.360028
  C 3.019718 -0.328879 -0.773716
  C 4.412629 -0.408083 -0.987731
  C 5.082647 -0.859694 -2.116798
  C 4.627054 -1.384844 -3.410891
  C 3.148643 -1.522957 -3.732731
  H 3.041040 -1.929117 -4.735751
  H 6.164781 -0.826898 -2.051392
  H 0.589949 0.523576 1.419326
  H 0.540375 -0.837302 0.278494
  H 0.788212 0.773795 -0.343236
  H 3.898245 1.415530 1.255773
  H 3.868354 -0.198322 1.910366
  H 2.351470 -0.646295 -1.557160
  H 5.047140 -0.078977 -0.173585
  H 5.116554 -2.361077 -3.533735
  H 5.107890 -0.763530 -4.179271
  H 2.648360 -0.558220 -3.713201
  H 2.657004 -2.207380 -3.046016
 22
 8.535054
  C 0.979768 0.091207 0.496105
  C 2.427357 0.123466 0.402199
  C 3.231869 0.607788 1.533697
  H 2.604129 0.974536 2.340876
  C 3.022826 -0.329834 -0.779785
  C 4.408286 -0.394498 -0.994099
  C 5.072086 -0.838590 -2.112087
  C 4.616062 -1.375825 -3.397237
  C 3.136869 -1.530346 -3.705471
  H 3.025991 -1.945591 -4.703130
  H 6.151669 -0.791893 -2.052467
  H 0.555557 0.459036 1.421759
  H 0.498112 -0.812601 0.156958
  H 0.987104 0.814582 -0.312716
  H 3.926782 1.393737 1.237656
  H 3.838284 -0.217022 1.915798
  H 2.360331 -0.656452 -1.565290
  H 5.041597 -0.060122 -0.182489
  H 5.114074 -2.347560 -3.516927
  H 5.084431 -0.754771 -4.172915
  H 2.627770 -0.569738 -3.691871
  H 2.657743 -2.214883 -3.009991
 22
 15.334450
  C 0.976439 0.070374 0.511942
  C 2.421196 0.119116 0.391677
  C 3.225548 0.615573 1.525704
  H 2.597121 0.990999 2.326705
  C 3.016966 -0.331639 -0.792225
  C 4.403438 -0.391768 -1.002411
  C 5.067976 -0.831910 -2.111573
  C 4.615865 -1.373218 -3.393898
  C 3.136502 -1.532409 -3.699286
  H 3.025303 -1.952157 -4.696329
  H 6.147773 -0.780878 -2.051330
  H 0.548122 0.426201 1.435814
  H 0.463904 -0.795365 0.115947
  H 1.129995 0.820338 -0.260302
  H 3.927028 1.393430 1.231131
  H 3.817694 -0.213371 1.913968
  H 2.356429 -0.662639 -1.579544
  H 5.033101 -0.054834 -0.189941
  H 5.115506 -2.343874 -3.510642
  H 5.080694 -0.752753 -4.171211
  H 2.625637 -0.573323 -3.688913
  H 2.660605 -2.215650 -3.000681
 22
 21.343823
  C 0.965285 0.055211 0.539901
  C 2.418580 0.123240 0.391259
  C 3.220277 0.627155 1.532290
  H 2.587698 1.008844 2.327270
  C 3.011736 -0.326822 -0.793165
  C 4.396045 -0.387307 -1.002378
  C 5.067315 -0.830647 -2.116030
  C 4.619899 -1.377604 -3.405775
  C 3.141402 -1.540786 -3.719401
  H 3.036937 -1.963041 -4.716186
  H 6.147307 -0.777762 -2.052219
  H 0.524832 0.403437 1.462128
  H 0.430524 -0.782775 0.115628
  H 1.245520 0.825242 -0.226168
  H 3.927939 1.402553 1.236288
  H 3.807575 -0.202103 1.931733
  H 2.351059 -0.658340 -1.577903
  H 5.024686 -0.049225 -0.187745
  H 5.121657 -2.348081 -3.518096
  H 5.087029 -0.756949 -4.182224
  H 2.628205 -0.582342 -3.714467
  H 2.662800 -2.223973 -3.021918
 22
 25.249640
  C 0.968901 0.032310 0.561958
  C 2.401499 0.131480 0.391266
  C 3.213979 0.627034 1.519538
  H 2.591919 1.014241 2.316520
  C 3.004410 -0.321189 -0.801522
  C 4.396166 -0.378051 -1.011721
  C 5.065535 -0.818183 -2.109131
  C 4.623674 -1.379146 -3.403750
  C 3.143133 -1.551812 -3.719410
  H 3.042379 -1.984317 -4.715235
  H 6.147783 -0.758515 -2.042776
  H 0.533741 0.350931 1.493322
  H 0.410524 -0.734702 0.046317
  H 1.333562 0.870345 -0.141681
  H 3.924158 1.390858 1.220035
  H 3.783638 -0.210686 1.913676
  H 2.344554 -0.661106 -1.581555
  H 5.023464 -0.035728 -0.200592
  H 5.128406 -2.350233 -3.507263
  H 5.087678 -0.759725 -4.184635
  H 2.626657 -0.595835 -3.724555
  H 2.666964 -2.231472 -3.017251
 22
 27.395910
  C 0.968296 0.007329 0.565918
  C 2.396176 0.137828 0.383394
  C 3.213897 0.633197 1.523237
  H 2.591762 1.025138 2.319137
  C 3.003051 -0.320693 -0.809502
  C 4.384793 -0.370229 -1.015688
  C 5.064689 -0.815334 -2.120562
  C 4.627891 -1.383643 -3.408082
  C 3.148863 -1.563321 -3.717272
  H 3.047148 -2.001916 -4.707257
  H 6.143128 -0.749787 -2.055430
  H 0.530985 0.277206 1.511323
  H 0.397057 -0.672387 -0.040595
  H 1.406751 0.921335 -0.049718
  H 3.927811 1.395584 1.223482
  H 3.777516 -0.208759 1.922241
  H 2.343515 -0.669146 -1.586833
  H 5.008815 -0.019335 -0.204879
  H 5.134536 -2.353098 -3.505208
  H 5.085935 -0.765553 -4.191733
  H 2.628995 -0.608404 -3.727111
  H 2.677707 -2.240249 -3.008794
 22
 29.739177
  C 0.975990 -0.004199 0.586368
  C 2.389566 0.140227 0.383943
  C 3.203937 0.640188 1.520386
  H 2.569266 1.042030 2.322656
  C 2.995672 -0.318601 -0.808134
  C 4.380033 -0.369088 -1.014969
  C 5.065312 -0.815354 -2.118975
  C 4.635601 -1.388446 -3.416417
  C 3.154109 -1.572650 -3.738650
  H 3.060920 -2.012306 -4.729356
  H 6.143064 -0.748457 -2.047883
  H 0.543693 0.246956 1.549930
  H 0.382067 -0.639176 -0.066199
  H 1.469210 0.940519 0.014813
  H 3.916557 1.409266 1.208160
  H 3.781615 -0.202682 1.934705
  H 2.335962 -0.663189 -1.577397
  H 5.003347 -0.017397 -0.202626
  H 5.146736 -2.361531 -3.508991
  H 5.099336 -0.766862 -4.199535
  H 2.631665 -0.618645 -3.753441
  H 2.678740 -2.250533 -3.033642
 22
 31.392350
  C 0.971645 -0.025111 0.582535
  C 2.384063 0.144728 0.379269
  C 3.212043 0.645599 1.522178
  H 2.601538 1.035655 2.303811
  C 2.995966 -0.318520 -0.815488
  C 4.374976 -0.365394 -1.015757
  C 5.063626 -0.813492 -2.116552
  C 4.633833 -1.389260 -3.413279
  C 3.161961 -1.571267 -3.730314
  H 3.066979 -2.013274 -4.721309
  H 6.149594 -0.745695 -2.043578
  H 0.527150 0.206288 1.553771
  H 0.387095 -0.601527 -0.095006
  H 1.511512 0.948353 0.050478
  H 3.914650 1.408988 1.211248
  H 3.781800 -0.180703 1.928098
  H 2.325685 -0.672940 -1.601823
  H 4.996895 -0.009315 -0.200579
  H 5.138440 -2.354955 -3.504162
  H 5.092746 -0.774574 -4.193233
  H 2.642253 -0.617495 -3.745442
  H 2.688371 -2.246699 -3.022807
 22
 33.035183
  C 0.966884 -0.038569 0.584912
  C 2.386753 0.153294 0.376634
  C 3.216842 0.648897 1.521870
  H 2.590300 1.046483 2.326500
  C 3.001774 -0.315351 -0.819501
  C 4.381902 -0.363459 -1.021577
  C 5.068754 -0.814180 -2.119951
  C 4.640646 -1.389075 -3.409568
  C 3.161196 -1.570587 -3.726056
  H 3.064752 -2.013701 -4.715873
  H 6.141898 -0.748314 -2.048622
  H 0.524639 0.183189 1.540690
  H 0.376252 -0.594674 -0.120810
  H 1.548491 0.952961 0.069553
  H 3.916023 1.414012 1.210575
  H 3.788038 -0.177349 1.923824
  H 2.343739 -0.663365 -1.590467
  H 5.000858 -0.007608 -0.215084
  H 5.145071 -2.357193 -3.498292
  H 5.100868 -0.774417 -4.191938
  H 2.639659 -0.611229 -3.742151
  H 2.685460 -2.247346 -3.014164
 22
 34.767642
  C 0.966417 -0.051489 0.579184
  C 2.388194 0.161101 0.372395
  C 3.214287 0.648125 1.520789
  H 2.588516 1.038739 2.319778
  C 3.010283 -0.311267 -0.823642
  C 4.387678 -0.357326 -1.021251
  C 5.073595 -0.811311 -2.119391
  C 4.636429 -1.389613 -3.408093
  C 3.158928 -1.565808 -3.709779
  H 3.051481 -2.009606 -4.695341
  H 6.163384 -0.745699 -2.050426
  H 0.518385 0.165486 1.531776
  H 0.376636 -0.585985 -0.149059
  H 1.582196 0.952329 0.080400
  H 3.919503 1.424012 1.210253
  H 3.786533 -0.181024 1.921082
  H 2.353285 -0.661893 -1.600100
  H 5.011057 0.004921 -0.208739
  H 5.137839 -2.362487 -3.498040
  H 5.093055 -0.776310 -4.197144
  H 2.647555 -0.616923 -3.722389
  H 2.692837 -2.230806 -3.000056
 22
 36.491591
  C 0.971541 -0.061102 0.585518
  C 2.383846 0.168257 0.371290
  C 3.218494 0.649601 1.527106
  H 2.588402 1.044675 2.334947
  C 3.003653 -0.307748 -0.824040
  C 4.384774 -0.355458 -1.022739
  C 5.073255 -0.810454 -2.119055
  C 4.642443 -1.390869 -3.409949
  C 3.167590 -1.571804 -3.721469
  H 3.067637 -2.018921 -4.713226
  H 6.160413 -0.743240 -2.046523
  H 0.520236 0.155977 1.546714
  H 0.383729 -0.570221 -0.151115
  H 1.616293 0.961989 0.091482
  H 3.924885 1.421415 1.216264
  H 3.781251 -0.171075 1.920981
  H 2.348910 -0.653653 -1.592765
  H 5.005766 0.009208 -0.213727
  H 5.142800 -2.356587 -3.495717
  H 5.099173 -0.779714 -4.193270
  H 2.650093 -0.617102 -3.737543
  H 2.696056 -2.242335 -3.008896
 22
 37.905543
  C 0.978232 -0.073995 0.591125
  C 2.387022 0.181715 0.369896
  C 3.220918 0.652643 1.526263
  H 2.595333 1.042259 2.328502
  C 3.011934 -0.298600 -0.831160
  C 4.383838 -0.345150 -1.023489
  C 5.075841 -0.805246 -2.115646
  C 4.648695 -1.389041 -3.400926
  C 3.163586 -1.569195 -3.714730
  H 3.063694 -2.018197 -4.699259
  H 6.159198 -0.740401 -2.040377
  H 0.530979 0.139332 1.535990
  H 0.382811 -0.573512 -0.161866
  H 1.650017 0.980530 0.095122
  H 3.922904 1.421282 1.220424
  H 3.793327 -0.184764 1.923624
  H 2.342313 -0.654672 -1.618784
  H 4.999696 0.018022 -0.213584
  H 5.153631 -2.366324 -3.481685
  H 5.112554 -0.776516 -4.192235
  H 2.647663 -0.614508 -3.736056
  H 2.689458 -2.235332 -3.000462
 22
 39.155837
  C 0.970456 -0.083182 0.595784
  C 2.385556 0.191434 0.368146
  C 3.229996 0.651761 1.532623
  H 2.608826 1.042483 2.338183
  C 3.006601 -0.294356 -0.829858
  C 4.384123 -0.345520 -1.025443
  C 5.074596 -0.804825 -2.116269
  C 4.651554 -1.390175 -3.404259
  C 3.175663 -1.576682 -3.722676
  H 3.082851 -2.022660 -4.704790
  H 6.156811 -0.736184 -2.040826
  H 0.515756 0.138648 1.548018
  H 0.375680 -0.565392 -0.156568
  H 1.676042 0.995030 0.094662
  H 3.934282 1.418111 1.231489
  H 3.794415 -0.185892 1.923084
  H 2.343714 -0.640362 -1.603869
  H 4.999877 0.023676 -0.222255
  H 5.159788 -2.361900 -3.484328
  H 5.113092 -0.776912 -4.190921
  H 2.656360 -0.627902 -3.744697
  H 2.704031 -2.245477 -3.014498
