 20
 0.000000
  C 1.006600 -0.071485 0.047722
  C 2.502916 -0.082175 0.026739
  C 3.219639 -0.594706 -0.979448
  C 4.657053 -0.605681 -1.000992
  C 5.378067 -1.120873 -2.012398
  C 6.816197 -1.130857 -2.031995
  C 7.534976 -1.642519 -3.036480
  C 9.024821 -1.662080 -3.074875
  H 0.643202 0.394424 0.962374
  H 0.611548 -1.086305 0.007997
  H 0.611551 0.493053 -0.796510
  H 3.002959 0.353247 0.881547
  H 2.709058 -1.028238 -1.830533
  H 5.161466 -0.170837 -0.147324
  H 4.874094 -1.555783 -2.866200
  H 7.322582 -0.696369 -1.179022
  H 7.036287 -2.078741 -3.892841
  H 9.458072 -1.208897 -2.185206
  H 9.384158 -1.116478 -3.948682
  H 9.384155 -2.689681 -3.147321
 20
 11.946433
  C 0.959286 -0.060868 0.068568
  C 2.454687 -0.063513 0.063373
  C 3.188714 -0.573218 -0.937265
  C 4.610103 -0.576009 -0.942742
  C 5.425287 -1.149713 -2.069016
  C 6.847509 -1.151662 -2.072836
  C 7.583075 -1.660537 -3.071850
  C 9.071923 -1.672673 -3.095674
  H 0.580466 0.402066 0.977378
  H 0.571102 -1.077899 0.020607
  H 0.571101 0.498309 -0.782298
  H 2.944099 0.374173 0.922626
  H 2.690481 -1.009708 -1.794158
  H 5.113088 -0.143019 -0.092713
  H 4.922619 -1.582742 -2.919125
  H 7.341952 -0.714334 -1.214290
  H 7.095687 -2.099215 -3.933037
  H 9.490653 -1.216986 -2.201087
  H 9.438319 -1.126458 -3.965911
  H 9.438321 -2.697753 -3.165527
 20
 36.172733
  C 0.952566 -0.061531 0.067267
  C 2.443282 -0.051211 0.087521
  C 3.193181 -0.551080 -0.893807
  C 4.578227 -0.541713 -0.875413
  C 5.459020 -1.182183 -2.132740
  C 6.844847 -1.172292 -2.113317
  C 7.593689 -1.670539 -3.091483
  C 9.077442 -1.671202 -3.092798
  H 0.547194 0.395644 0.964770
  H 0.575375 -1.082050 0.001743
  H 0.575366 0.485496 -0.796756
  H 2.920753 0.388070 0.949903
  H 2.706791 -0.989015 -1.753530
  H 5.128669 -0.126203 -0.059705
  H 4.908690 -1.597700 -2.948480
  H 7.328593 -0.733836 -1.252567
  H 7.120014 -2.111128 -3.956434
  H 9.472498 -1.211916 -2.191135
  H 9.455652 -1.126892 -3.958566
  H 9.455668 -2.691562 -3.161581
 20
 62.884636
  C 0.887712 -0.050427 0.089062
  C 2.379591 -0.024533 0.139892
  C 3.166249 -0.526938 -0.846412
  C 4.545600 -0.507593 -0.808430
  C 5.489286 -1.215416 -2.197969
  C 6.872203 -1.195667 -2.159195
  C 7.658507 -1.697366 -3.144140
  C 9.142252 -1.683197 -3.116342
  H 0.458133 0.401904 0.977050
  H 0.521310 -1.073297 0.013759
  H 0.521307 0.490069 -0.782608
  H 2.841817 0.418430 1.009501
  H 2.690699 -0.967140 -1.710589
  H 5.142676 -0.111741 -0.031315
  H 4.892039 -1.611348 -2.975261
  H 7.345889 -0.754882 -1.293878
  H 7.200723 -2.141645 -4.016345
  H 9.511371 -1.220389 -2.207754
  H 9.534432 -1.136191 -3.972869
  H 9.534438 -2.697636 -3.177512
 20
 89.305185
  C 0.831935 -0.038703 0.112083
  C 2.321329 -0.003880 0.180438
  C 3.124227 -0.504038 -0.801458
  C 4.501076 -0.477788 -0.749925
  C 5.535406 -1.245239 -2.256520
  C 6.911685 -1.218670 -2.204361
  C 7.713657 -1.717927 -3.184510
  C 9.199176 -1.695075 -3.139663
  H 0.388410 0.411425 0.995749
  H 0.472429 -1.065224 0.031305
  H 0.472422 0.499515 -0.765763
  H 2.771842 0.441742 1.055267
  H 2.657503 -0.947408 -1.671855
  H 5.110060 -0.077156 0.036574
  H 4.926744 -1.645793 -3.042884
  H 7.376054 -0.774983 -1.333345
  H 7.266702 -2.165018 -4.062236
  H 9.556729 -1.228978 -2.224623
  H 9.598805 -1.144954 -3.993585
  H 9.598823 -2.709264 -3.196785
 20
 113.023694
  C 0.787666 -0.030326 0.128530
  C 2.274159 0.015580 0.218640
  C 3.093737 -0.480278 -0.754817
  C 4.457996 -0.446445 -0.688401
  C 5.573770 -1.276066 -2.317048
  C 6.942746 -1.241854 -2.249880
  C 7.762548 -1.737562 -3.223055
  C 9.244316 -1.704082 -3.157337
  H 0.327722 0.416171 1.005064
  H 0.436575 -1.059575 0.041105
  H 0.436571 0.504114 -0.755420
  H 2.711791 0.463525 1.098029
  H 2.636758 -0.925273 -1.628403
  H 5.078593 -0.054979 0.080106
  H 4.952972 -1.667664 -3.085830
  H 7.397975 -0.796271 -1.375138
  H 7.328953 -2.186749 -4.104892
  H 9.584374 -1.235957 -2.238317
  H 9.652505 -1.151939 -4.004948
  H 9.652512 -2.714342 -3.209107
 20
 133.259289
  C 0.733713 -0.019778 0.149238
  C 2.218613 0.036637 0.259980
  C 3.057790 -0.457175 -0.709464
  C 4.418437 -0.416479 -0.629575
  C 5.620974 -1.306796 -2.377375
  C 6.978988 -1.266010 -2.297302
  C 7.814139 -1.757814 -3.262813
  C 9.295675 -1.714437 -3.177661
  H 0.258432 0.423404 1.019270
  H 0.390873 -1.051276 0.056185
  H 0.390864 0.511435 -0.739846
  H 2.643109 0.487097 1.144307
  H 2.609755 -0.904455 -1.587533
  H 5.051570 -0.026443 0.136124
  H 4.988363 -1.696796 -3.143021
  H 7.424950 -0.818627 -1.419026
  H 7.392633 -2.209465 -4.149486
  H 9.621212 -1.243819 -2.253751
  H 9.711810 -1.159539 -4.020510
  H 9.711817 -2.722458 -3.224404
 20
 149.965208
  C 0.688275 -0.010979 0.166514
  C 2.168806 0.056158 0.298303
  C 3.021265 -0.431955 -0.659952
  C 4.368144 -0.385010 -0.567799
  C 5.656142 -1.336378 -2.435456
  C 7.012637 -1.288957 -2.342359
  C 7.868474 -1.778848 -3.304111
  C 9.347247 -1.725058 -3.198515
  H 0.197653 0.428870 1.030001
  H 0.353776 -1.045567 0.067880
  H 0.353769 0.517535 -0.728350
  H 2.580248 0.508806 1.186923
  H 2.582065 -0.880979 -1.541446
  H 5.010423 0.000279 0.188578
  H 5.013609 -1.721897 -3.192302
  H 7.450208 -0.839117 -1.459255
  H 7.460402 -2.232822 -4.195345
  H 9.656643 -1.252227 -2.270268
  H 9.771516 -1.167433 -4.035678
  H 9.771532 -2.730106 -3.239708
 20
 163.276868
  C 0.628564 0.000706 0.189449
  C 2.107713 0.078598 0.342360
  C 2.985216 -0.409541 -0.615944
  C 4.337681 -0.356335 -0.511505
  C 5.714104 -1.367927 -2.497387
  C 7.054073 -1.315365 -2.394198
  C 7.919204 -1.798420 -3.342530
  C 9.395661 -1.735120 -3.218265
  H 0.122660 0.436970 1.045894
  H 0.302633 -1.036105 0.085682
  H 0.302631 0.526375 -0.710228
  H 2.505229 0.533982 1.236351
  H 2.554580 -0.861106 -1.502426
  H 4.988561 0.027043 0.241123
  H 5.064441 -1.751388 -3.250193
  H 7.482848 -0.864372 -1.508829
  H 7.522875 -2.254327 -4.237558
  H 9.690875 -1.260305 -2.286120
  H 9.827090 -1.174813 -4.050375
  H 9.827088 -2.737632 -3.254314
 20
 173.622705
  C 0.589200 0.008745 0.205234
  C 2.062166 0.096119 0.376755
  C 2.940964 -0.381330 -0.560564
  C 4.266480 -0.323815 -0.447666
  C 5.732300 -1.395350 -2.551223
  C 7.087473 -1.336397 -2.435493
  C 7.981685 -1.821209 -3.387275
  C 9.457117 -1.747680 -3.242929
  H 0.070172 0.441892 1.055562
  H 0.271049 -1.030552 0.097030
  H 0.271046 0.532288 -0.699063
  H 2.447931 0.552884 1.273459
  H 2.518969 -0.833630 -1.448489
  H 4.922177 0.057158 0.300238
  H 5.075858 -1.776684 -3.299855
  H 7.508070 -0.882189 -1.543813
  H 7.599313 -2.279833 -4.287635
  H 9.736713 -1.270831 -2.306790
  H 9.896383 -1.184376 -4.069366
  H 9.896395 -2.747392 -3.273220
 20
 181.040897
  C 0.536898 0.014308 0.216157
  C 2.005638 0.120508 0.424647
  C 2.918002 -0.352357 -0.503675
  C 4.253178 -0.289118 -0.379572
  C 5.781954 -1.427997 -2.615316
  C 7.113013 -1.366161 -2.493953
  C 8.026537 -1.843093 -3.430254
  C 9.497061 -1.754954 -3.257196
  H -0.008170 0.440902 1.053619
  H 0.233967 -1.028891 0.099790
  H 0.233968 0.533540 -0.696093
  H 2.368742 0.581337 1.329322
  H 2.504587 -0.807556 -1.397290
  H 4.933348 0.081027 0.347081
  H 5.103617 -1.799217 -3.344095
  H 7.525101 -0.910624 -1.599650
  H 7.661420 -2.304668 -4.336401
  H 9.755027 -1.275861 -2.316653
  H 9.946710 -1.187771 -4.074921
  H 9.946709 -2.749899 -3.279218
 20
 186.642521
  C 0.473925 0.030346 0.247639
  C 1.939044 0.141423 0.465716
  C 2.867256 -0.331543 -0.462799
  C 4.197556 -0.264441 -0.331128
  C 5.834578 -1.458007 -2.674214
  C 7.173055 -1.391553 -2.543812
  C 8.090684 -1.862366 -3.468102
  C 9.557365 -1.768677 -3.284133
  H -0.078782 0.455237 1.081751
  H 0.176130 -1.014173 0.129452
  H 0.176138 0.548879 -0.666752
  H 2.292920 0.604167 1.374140
  H 2.462654 -0.789182 -1.361207
  H 4.871138 0.112432 0.408738
  H 5.162943 -1.835730 -3.415774
  H 7.577803 -0.934157 -1.645860
  H 7.734568 -2.324850 -4.376032
  H 9.807312 -1.287937 -2.340351
  H 10.010886 -1.199042 -4.099655
  H 10.010872 -2.763279 -3.302873
 20
 190.277980
  C 0.410615 0.044733 0.275878
  C 1.872559 0.160137 0.502473
  C 2.804268 -0.307274 -0.415126
  C 4.140775 -0.236234 -0.275751
  C 5.893660 -1.482146 -2.721588
  C 7.228424 -1.412936 -2.585817
  C 8.156707 -1.882948 -3.508530
  C 9.623659 -1.785949 -3.318034
  H -0.149090 0.467983 1.106752
  H 0.117475 -1.001502 0.155843
  H 0.117494 0.562781 -0.640996
  H 2.218659 0.623885 1.412857
  H 2.406985 -0.766313 -1.316277
  H 4.798317 0.146612 0.475853
  H 5.239064 -1.866290 -3.475772
  H 7.625623 -0.953827 -1.684509
  H 7.806416 -2.347419 -4.420340
  H 9.869142 -1.304783 -2.373421
  H 10.078806 -1.215549 -4.131704
  H 10.078772 -2.779498 -3.335053
 20
 192.503164
  C 0.339122 0.062776 0.311290
  C 1.801195 0.180004 0.541502
  C 2.741366 -0.286818 -0.374918
  C 4.077395 -0.213361 -0.230843
  C 5.956701 -1.508252 -2.772849
  C 7.298098 -1.436237 -2.631629
  C 8.228054 -1.902164 -3.546297
  C 9.691913 -1.803049 -3.351596
  H -0.224384 0.485101 1.140318
  H 0.049006 -0.983734 0.190477
  H 0.049045 0.580345 -0.606265
  H 2.142450 0.645306 1.454913
  H 2.351047 -0.747523 -1.279332
  H 4.712804 0.179166 0.539784
  H 5.324392 -1.902112 -3.546132
  H 7.689223 -0.975932 -1.727980
  H 7.883176 -2.366901 -4.458600
  H 9.934528 -1.321395 -2.406047
  H 10.147733 -1.231876 -4.164601
  H 10.147721 -2.796563 -3.367577
