 19
 0.000000
  C 1.018180 0.123283 0.357646
  C 2.486665 0.117662 0.344391
  C 3.224746 0.591098 1.521727
  H 2.552124 0.909613 2.314103
  C 3.128332 -0.342634 -0.800650
  C 4.516899 -0.407051 -0.962252
  C 5.166191 -0.859548 -2.091181
  C 4.563792 -1.354441 -3.325513
  H 3.477157 -1.352281 -3.319936
  H 6.250184 -0.851059 -2.071108
  H 0.611454 0.498704 1.291047
  H 0.635991 -0.883549 0.177060
  H 0.636357 0.725148 -0.469615
  H 3.879329 1.422118 1.256465
  H 3.879561 -0.192003 1.905557
  H 2.490470 -0.668280 -1.611160
  H 5.136445 -0.077101 -0.140272
  H 4.932630 -2.363551 -3.526133
  H 4.932485 -0.763298 -4.167574
 19
 -0.099691
  C 1.019530 0.220640 0.311963
  C 2.486414 0.136445 0.327809
  C 3.211391 0.465074 1.564646
  H 2.532352 0.649554 2.390921
  C 3.140419 -0.281232 -0.826771
  C 4.530995 -0.346692 -0.982094
  C 5.169053 -0.804600 -2.110790
  C 4.556257 -1.426690 -3.281934
  H 3.489609 -1.595408 -3.192049
  H 6.244671 -0.696521 -2.159874
  H 0.633084 0.813971 1.134284
  H 0.607190 -0.787849 0.411739
  H 0.647809 0.601257 -0.638331
  H 3.817524 1.360235 1.412428
  H 3.907390 -0.327255 1.836928
  H 2.522877 -0.531990 -1.677586
  H 5.150883 0.011495 -0.173161
  H 5.060206 -2.372373 -3.491892
  H 4.761440 -0.810008 -4.161052
 19
 0.350948
  C 1.036993 0.351692 0.248838
  C 2.482793 0.114500 0.309129
  C 3.172127 0.320243 1.592791
  H 2.467406 0.425076 2.410637
  C 3.154425 -0.332817 -0.823332
  C 4.545461 -0.305866 -0.994334
  C 5.184977 -0.758161 -2.123332
  C 4.567473 -1.472101 -3.242739
  H 3.606181 -1.915871 -3.006446
  H 6.245630 -0.565717 -2.236011
  H 0.764189 1.230179 0.831870
  H 0.519254 -0.490959 0.718125
  H 0.668878 0.440398 -0.769460
  H 3.766995 1.235456 1.545315
  H 3.872583 -0.486083 1.804257
  H 2.552608 -0.635701 -1.671830
  H 5.148322 0.140275 -0.216710
  H 5.247718 -2.241587 -3.609986
  H 4.450271 -0.779739 -4.083095
 19
 3.106464
  C 1.090464 0.448640 0.169062
  C 2.502206 0.087923 0.323904
  C 3.114052 0.185277 1.660600
  H 2.361218 0.249104 2.439369
  C 3.221005 -0.379626 -0.772139
  C 4.583222 -0.192711 -1.034712
  C 5.177806 -0.659713 -2.178604
  C 4.532020 -1.519014 -3.184544
  H 3.750639 -2.156881 -2.784173
  H 6.193014 -0.377491 -2.432754
  H 0.887975 1.381631 0.692463
  H 0.463303 -0.304272 0.654101
  H 0.789709 0.527113 -0.870833
  H 3.724918 1.092044 1.715061
  H 3.789465 -0.645598 1.853176
  H 2.643837 -0.812885 -1.588593
  H 5.175635 0.373904 -0.333673
  H 5.281339 -2.154850 -3.655198
  H 4.134770 -0.898803 -3.995076
 19
 8.841870
  C 1.159112 0.509773 0.098907
  C 2.535479 0.059259 0.337180
  C 3.061660 0.073974 1.710151
  H 2.260869 0.094174 2.442985
  C 3.301510 -0.413007 -0.724369
  C 4.614245 -0.079888 -1.070451
  C 5.159061 -0.567666 -2.225700
  C 4.485731 -1.535328 -3.119914
  H 3.897540 -2.282661 -2.595462
  H 6.113101 -0.266109 -2.631411
  H 1.005392 1.461234 0.607415
  H 0.447498 -0.183574 0.554309
  H 0.926405 0.607320 -0.956852
  H 3.662905 0.976813 1.856906
  H 3.729205 -0.765057 1.891048
  H 2.770527 -0.971206 -1.498629
  H 5.181909 0.589756 -0.441690
  H 5.233059 -2.067411 -3.708233
  H 3.865792 -1.003480 -3.843940
 19
 19.482049
  C 1.275012 0.607075 -0.003235
  C 2.597277 0.085423 0.363990
  C 2.925292 -0.061898 1.791063
  H 2.026543 -0.098107 2.400514
  C 3.475896 -0.312648 -0.640800
  C 4.682149 0.107571 -1.188039
  C 5.125174 -0.486261 -2.336048
  C 4.405042 -1.606145 -2.998755
  H 4.027084 -2.368576 -2.322728
  H 6.003216 -0.184874 -2.895385
  H 1.093030 1.512091 0.575949
  H 0.487678 -0.093941 0.280294
  H 1.191372 0.820985 -1.064174
  H 3.511160 0.802780 2.117329
  H 3.546931 -0.935408 1.969878
  H 2.991706 -1.029490 -1.353466
  H 5.247860 0.897994 -0.716995
  H 5.127668 -2.155357 -3.613921
  H 3.670858 -1.241056 -3.714260
 19
 31.126240
  C 1.357903 0.726314 -0.046590
  C 2.619572 0.116531 0.382626
  C 2.807158 -0.179587 1.806115
  H 1.854034 -0.297375 2.312627
  C 3.566142 -0.230706 -0.576406
  C 4.661378 0.201985 -1.276429
  C 5.080572 -0.487750 -2.409265
  C 4.414442 -1.709831 -2.933993
  H 4.302371 -2.515829 -2.215536
  H 5.851084 -0.011869 -2.979960
  H 1.161984 1.583579 0.595931
  H 0.522081 0.039487 0.104288
  H 1.378359 1.038373 -1.086331
  H 3.330453 0.657824 2.278162
  H 3.433376 -1.054820 1.957006
  H 3.192986 -1.081770 -1.167323
  H 5.190759 1.086517 -0.950163
  H 5.099435 -2.167232 -3.658291
  H 3.537871 -1.472719 -3.533302
 19
 54.584242
  C 1.370733 0.736152 -0.111104
  C 2.686447 0.175503 0.276932
  C 2.799777 -0.358864 1.653364
  H 1.831920 -0.674946 2.032435
  C 3.709570 0.102725 -0.608127
  C 4.759785 0.460332 -1.411496
  C 5.087722 -0.410192 -2.421446
  C 4.253477 -1.649085 -2.561113
  H 4.257368 -2.346162 -1.711152
  H 5.858517 -0.226109 -3.146482
  H 1.047880 1.437455 0.656386
  H 0.626018 -0.057128 -0.154744
  H 1.411523 1.244648 -1.070331
  H 3.169910 0.440453 2.296819
  H 3.508708 -1.179871 1.718032
  H 3.443255 -1.000390 -1.267000
  H 5.295269 1.381439 -1.239742
  H 4.843689 -2.331171 -3.205670
  H 3.361494 -1.521852 -3.174874
 19
 63.375818
  C 1.352750 0.707864 -0.122280
  C 2.719738 0.211703 0.255193
  C 2.837441 -0.383209 1.631744
  H 1.879189 -0.768717 1.967649
  C 3.725232 0.244585 -0.584870
  C 4.770316 0.518330 -1.404416
  C 5.085706 -0.386754 -2.401325
  C 4.192756 -1.603867 -2.486216
  H 4.204926 -2.324941 -1.622142
  H 5.855423 -0.181257 -3.120755
  H 0.977860 1.350186 0.671773
  H 0.666591 -0.132223 -0.218128
  H 1.372350 1.267268 -1.052767
  H 3.150233 0.399958 2.321793
  H 3.581680 -1.173378 1.674871
  H 3.509073 -1.145444 -1.521553
  H 5.329572 1.431791 -1.266763
  H 4.749196 -2.350407 -3.086549
  H 3.321219 -1.484736 -3.150299
 19
 61.908717
  C 1.337576 0.752890 -0.076675
  C 2.714182 0.250270 0.281046
  C 2.836664 -0.359083 1.656554
  H 1.885343 -0.781808 1.968651
  C 3.713069 0.327883 -0.545555
  C 4.740841 0.515343 -1.399457
  C 5.061319 -0.394668 -2.390180
  C 4.208590 -1.636432 -2.520738
  H 4.298899 -2.411494 -1.691661
  H 5.847460 -0.174026 -3.088073
  H 0.969712 1.392270 0.723495
  H 0.647856 -0.083886 -0.176110
  H 1.348996 1.321694 -1.002367
  H 3.109939 0.419891 2.367756
  H 3.604878 -1.126065 1.694416
  H 3.432859 -1.354051 -1.712679
  H 5.323106 1.421358 -1.296518
  H 4.822465 -2.386874 -3.071492
  H 3.431379 -1.574368 -3.308235
 19
 62.067136
  C 1.318028 0.774083 -0.003940
  C 2.696978 0.249362 0.315639
  C 2.840751 -0.386777 1.678935
  H 1.873015 -0.723548 2.040649
  C 3.679437 0.338438 -0.524851
  C 4.710303 0.508902 -1.379057
  C 5.038492 -0.366779 -2.397264
  C 4.222681 -1.619221 -2.609755
  H 4.145263 -2.326308 -1.713403
  H 5.851143 -0.113997 -3.053543
  H 0.950062 1.359066 0.836576
  H 0.629092 -0.055149 -0.158835
  H 1.327205 1.402593 -0.890419
  H 3.228551 0.350519 2.381160
  H 3.531158 -1.225283 1.665196
  H 3.279622 -1.346607 -2.031120
  H 5.304007 1.406915 -1.256033
  H 4.941397 -2.423970 -2.906110
  H 3.681975 -1.646094 -3.574785
 19
 62.452126
  C 1.294153 0.777469 0.058576
  C 2.676708 0.241273 0.343717
  C 2.844803 -0.419051 1.694375
  H 1.876181 -0.702097 2.097634
  C 3.640016 0.325728 -0.517716
  C 4.671805 0.512632 -1.367143
  C 5.017065 -0.331260 -2.404083
  C 4.243056 -1.600722 -2.671211
  H 3.961393 -2.210754 -1.741679
  H 5.835246 -0.067524 -3.047784
  H 0.926434 1.314483 0.930859
  H 0.607095 -0.044409 -0.140747
  H 1.297763 1.454045 -0.792811
  H 3.309662 0.283437 2.385478
  H 3.480390 -1.298859 1.639784
  H 3.194683 -1.312339 -2.346613
  H 5.261854 1.410777 -1.220824
  H 4.991273 -2.436165 -2.693810
  H 3.948720 -1.731937 -3.727742
 19
 60.087969
  C 1.321219 0.849861 0.065711
  C 2.684133 0.269751 0.351340
  C 2.809869 -0.420745 1.686245
  H 2.045808 -1.189400 1.783934
  C 3.666530 0.352711 -0.487321
  C 4.700358 0.492882 -1.342007
  C 5.026943 -0.386697 -2.355870
  C 4.215797 -1.632655 -2.628221
  H 4.292777 -2.370475 -1.778115
  H 5.870557 -0.161647 -2.983639
  H 1.056308 1.555688 0.851260
  H 0.571088 0.060487 0.062027
  H 1.302529 1.369845 -0.888793
  H 2.656357 0.305294 2.483893
  H 3.792504 -0.867822 1.812432
  H 3.196998 -1.474632 -2.180873
  H 5.319008 1.372058 -1.212105
  H 4.859313 -2.390196 -3.145166
  H 3.690203 -1.569580 -3.616471
