 23
 0.000000
  C 0.997336 0.163435 0.457619
  C 2.459547 0.126079 0.364276
  H 3.048500 0.463631 1.204244
  C 3.051322 -0.337504 -0.789710
  C 4.430179 -0.416724 -0.987607
  C 5.117742 -0.869723 -2.116928
  C 4.614127 -1.390375 -3.414537
  C 3.125693 -1.510863 -3.715590
  C 2.927576 -2.074787 -5.120851
  O 6.431506 -0.864064 -2.103279
  H 0.647637 0.546670 1.411784
  H 0.585374 -0.836239 0.305544
  H 0.585086 0.780086 -0.343639
  H 2.389466 -0.654339 -1.577986
  H 5.046642 -0.083927 -0.159073
  H 5.077098 -2.376379 -3.540847
  H 5.077622 -0.765555 -4.187401
  H 2.647181 -0.532279 -3.669601
  H 2.646841 -2.186002 -3.005987
  H 3.375186 -1.425295 -5.869295
  H 1.867633 -2.164211 -5.344235
  H 3.374935 -3.061642 -5.212589
  H 6.833784 -0.533153 -1.277405
 23
 0.152344
  C 0.994119 0.143066 0.497635
  C 2.405836 0.284881 0.145801
  H 2.963455 1.091964 0.601941
  C 3.032584 -0.522296 -0.770090
  C 4.407748 -0.441923 -1.018829
  C 5.136982 -0.983487 -2.075252
  C 4.639979 -1.513120 -3.370749
  C 3.149621 -1.533173 -3.683234
  C 2.930171 -1.881668 -5.153408
  O 6.448826 -0.976116 -2.031572
  H 0.763742 0.616830 1.447783
  H 0.685258 -0.901558 0.497774
  H 0.380330 0.636623 -0.263365
  H 2.442008 -1.271889 -1.272919
  H 4.985026 0.103119 -0.278739
  H 5.049439 -2.524004 -3.481370
  H 5.154806 -0.928294 -4.142814
  H 2.708780 -0.555778 -3.483887
  H 2.643922 -2.284885 -3.077545
  H 3.391958 -1.141870 -5.803318
  H 1.867590 -1.912065 -5.380018
  H 3.352918 -2.855767 -5.390560
  H 6.837982 -0.648687 -1.198695
 23
 3.583019
  C 0.969970 0.151361 0.296464
  C 2.376287 0.300156 -0.076353
  H 2.831805 1.269532 0.079021
  C 3.100878 -0.678610 -0.690785
  C 4.488466 -0.589457 -0.937413
  C 5.201856 -1.023746 -2.043655
  C 4.655141 -1.416685 -3.367960
  C 3.149440 -1.522341 -3.560761
  C 2.823543 -1.791486 -5.024949
  O 6.516248 -0.997985 -2.041078
  H 0.753535 0.701295 1.208961
  H 0.682045 -0.891008 0.394533
  H 0.335635 0.599388 -0.474178
  H 2.590233 -1.594737 -0.958072
  H 5.065876 -0.098517 -0.162315
  H 5.124027 -2.367061 -3.640092
  H 5.063000 -0.697285 -4.088138
  H 2.665192 -0.593836 -3.254988
  H 2.747700 -2.338747 -2.963266
  H 3.185927 -0.988485 -5.658874
  H 1.748847 -1.872272 -5.164443
  H 3.277227 -2.720787 -5.359987
  H 6.925436 -0.767205 -1.187073
 23
 11.218169
  C 0.957100 0.124196 0.075954
  C 2.361922 0.256605 -0.338391
  H 2.743364 1.260896 -0.465799
  C 3.166057 -0.791437 -0.608270
  C 4.577651 -0.737706 -0.859408
  C 5.260016 -1.025445 -2.023155
  C 4.657343 -1.312378 -3.350036
  C 3.145454 -1.439049 -3.449512
  C 2.722909 -1.705632 -4.890826
  O 6.576524 -0.998980 -2.056705
  H 0.727869 0.853258 0.851805
  H 0.724033 -0.880187 0.418058
  H 0.294425 0.363580 -0.759231
  H 2.737186 -1.788727 -0.542188
  H 5.177174 -0.457159 0.002071
  H 5.125898 -2.231670 -3.719866
  H 5.010345 -0.533535 -4.036633
  H 2.669442 -0.518009 -3.107437
  H 2.793441 -2.258143 -2.824128
  H 3.032608 -0.894669 -5.545491
  H 1.642365 -1.798431 -4.957239
  H 3.163206 -2.628545 -5.260113
  H 7.010468 -0.828078 -1.200900
 23
 13.369277
  C 0.953982 0.096382 -0.054311
  C 2.348688 0.181696 -0.515453
  H 2.710569 1.161126 -0.800051
  C 3.202888 -0.858674 -0.543542
  C 4.612105 -0.808649 -0.827684
  C 5.275501 -0.974716 -2.025607
  C 4.644051 -1.235627 -3.344448
  C 3.127176 -1.337539 -3.409476
  C 2.670346 -1.654637 -4.830678
  O 6.590448 -0.960265 -2.083233
  H 0.716035 0.930264 0.602735
  H 0.739135 -0.845820 0.441203
  H 0.283641 0.184459 -0.913133
  H 2.892080 -1.782093 -0.056760
  H 5.222433 -0.833963 0.073289
  H 5.101037 -2.149147 -3.741652
  H 4.979766 -0.441681 -4.021785
  H 2.671389 -0.401436 -3.093960
  H 2.781089 -2.133720 -2.746202
  H 2.973825 -0.870616 -5.519995
  H 1.587687 -1.737525 -4.871173
  H 3.093856 -2.595380 -5.174088
  H 7.044569 -0.802360 -1.235122
 23
 6.204469
  C 1.007773 0.125121 -0.131013
  C 2.359877 0.057809 -0.692844
  H 2.690169 0.897423 -1.286679
  C 3.246142 -0.927976 -0.367376
  C 4.611604 -1.006662 -0.734152
  C 5.235136 -0.980090 -1.973322
  C 4.595878 -1.132867 -3.307413
  C 3.092143 -1.342422 -3.392370
  C 2.678133 -1.591761 -4.838819
  O 6.548876 -0.950152 -2.056966
  H 0.793473 1.123856 0.241487
  H 0.841276 -0.615311 0.643747
  H 0.277592 -0.050993 -0.931391
  H 2.945867 -1.633311 0.402276
  H 5.264844 -1.221363 0.108746
  H 5.100746 -1.977263 -3.783958
  H 4.880863 -0.261597 -3.906831
  H 2.558691 -0.467840 -3.024540
  H 2.805889 -2.203424 -2.788382
  H 2.929028 -0.740483 -5.466775
  H 1.606130 -1.755201 -4.903618
  H 3.177724 -2.471321 -5.239908
  H 7.017412 -0.843664 -1.211861
 23
 6.321623
  C 1.060642 0.238599 -0.015586
  C 2.322238 0.000861 -0.710741
  H 2.652604 0.773341 -1.415120
  C 3.176678 -1.002299 -0.340839
  C 4.538594 -1.102900 -0.746349
  C 5.174637 -0.936824 -1.975513
  C 4.567140 -1.064078 -3.326963
  C 3.092557 -1.433119 -3.452257
  C 2.713664 -1.586216 -4.922455
  O 6.477351 -0.832397 -2.032290
  H 0.857331 1.297735 0.093644
  H 1.031387 -0.260067 0.946869
  H 0.237723 -0.164550 -0.622036
  H 2.884452 -1.655899 0.445830
  H 5.198881 -1.354488 0.072377
  H 5.158273 -1.822106 -3.846368
  H 4.767294 -0.128374 -3.868827
  H 2.455923 -0.663895 -3.012500
  H 2.904121 -2.372168 -2.936406
  H 2.869702 -0.658272 -5.465302
  H 1.665122 -1.853799 -5.018046
  H 3.310716 -2.364130 -5.395942
  H 6.924006 -0.799308 -1.157794
 23
 5.383090
  C 1.132229 0.363816 -0.028609
  C 2.350938 -0.009806 -0.750947
  H 2.682185 0.648574 -1.545672
  C 3.142597 -1.053530 -0.341906
  C 4.486721 -1.221701 -0.724377
  C 5.143598 -0.990022 -1.925420
  C 4.562029 -1.046158 -3.293559
  C 3.131534 -1.550096 -3.469357
  C 2.768635 -1.583334 -4.950904
  O 6.448450 -0.846879 -1.951238
  H 0.978639 1.440131 -0.039712
  H 1.128219 -0.018133 0.989254
  H 0.264476 -0.078576 -0.532663
  H 2.804883 -1.664779 0.478814
  H 5.129143 -1.558352 0.084657
  H 5.228434 -1.701521 -3.864387
  H 4.678998 -0.057785 -3.753520
  H 2.416451 -0.912786 -2.952888
  H 3.047210 -2.556596 -3.058898
  H 2.812665 -0.587885 -5.386265
  H 1.759395 -1.963735 -5.084770
  H 3.450515 -2.227079 -5.502510
  H 6.879028 -0.821196 -1.074151
 23
 4.603735
  C 1.191741 0.502892 -0.130849
  C 2.384665 -0.004902 -0.805365
  H 2.695752 0.507572 -1.705578
  C 3.104078 -1.079162 -0.332930
  C 4.436683 -1.341621 -0.683197
  C 5.115029 -1.060769 -1.865212
  C 4.535744 -0.986472 -3.230964
  C 3.222766 -1.729490 -3.483634
  C 2.759380 -1.505093 -4.918715
  O 6.419618 -0.936057 -1.864957
  H 1.123747 1.584940 -0.218825
  H 1.144199 0.194221 0.911531
  H 0.300820 0.101182 -0.626372
  H 2.710953 -1.616001 0.520960
  H 5.037838 -1.753010 0.121569
  H 5.298205 -1.394430 -3.900868
  H 4.437167 0.067508 -3.511330
  H 2.436702 -1.403253 -2.805181
  H 3.381175 -2.797104 -3.321359
  H 2.557704 -0.452345 -5.102931
  H 1.848174 -2.064491 -5.113627
  H 3.514801 -1.836330 -5.628310
  H 6.850822 -0.993911 -0.988240
 23
 13.237025
  C 1.405506 0.507928 0.141896
  C 2.419926 -0.084605 -0.731772
  H 2.566947 0.415284 -1.678700
  C 3.077895 -1.258889 -0.460735
  C 4.453195 -1.275059 -0.781763
  C 5.058879 -0.889844 -1.964240
  C 4.451607 -0.923323 -3.324159
  C 3.220751 -1.808826 -3.527149
  C 2.678403 -1.642783 -4.942424
  O 6.325377 -0.532633 -1.987574
  H 1.427932 1.591106 0.075166
  H 1.512005 0.184299 1.173322
  H 0.412273 0.192702 -0.193530
  H 2.698764 -1.934570 0.293275
  H 5.102206 -1.561354 0.038323
  H 5.244107 -1.276938 -3.990901
  H 4.241101 0.102593 -3.642361
  H 2.430998 -1.570402 -2.818649
  H 3.501299 -2.851697 -3.370471
  H 2.355196 -0.619591 -5.117927
  H 1.827185 -2.299397 -5.101335
  H 3.436975 -1.891461 -5.681015
  H 6.774662 -0.533726 -1.121157
 23
 36.577427
  C 1.655988 0.586349 0.259176
  C 2.399733 -0.118046 -0.800276
  H 2.530310 0.453403 -1.709084
  C 2.607422 -1.489669 -0.810956
  C 4.045834 -1.406336 -0.785540
  C 4.852018 -0.905074 -1.781498
  C 4.506984 -0.897007 -3.233467
  C 3.311015 -1.753611 -3.644791
  C 3.006648 -1.583486 -5.127775
  O 6.074922 -0.459467 -1.530203
  H 1.930576 1.637909 0.283242
  H 1.811544 0.133183 1.234854
  H 0.585852 0.532939 0.040905
  H 1.985911 -2.234893 -0.342788
  H 4.498493 -1.713725 0.153002
  H 5.394525 -1.272057 -3.749717
  H 4.386239 0.133910 -3.578208
  H 2.424664 -1.490483 -3.066383
  H 3.532777 -2.801883 -3.437476
  H 2.740590 -0.554070 -5.355835
  H 2.177037 -2.221154 -5.421015
  H 3.869591 -1.854423 -5.731636
  H 6.356224 -0.530992 -0.600404
 23
 38.636443
  C 2.179698 0.573975 0.391942
  C 2.516163 -0.172183 -0.874251
  H 2.457328 0.450265 -1.761921
  C 2.320306 -1.595467 -1.051441
  C 3.725048 -1.290695 -0.800130
  C 4.588765 -0.718120 -1.768546
  C 4.376898 -0.829861 -3.230297
  C 3.311467 -1.831982 -3.667623
  C 3.094291 -1.777477 -5.174638
  O 5.671109 -0.102658 -1.421533
  H 2.659900 1.549199 0.407384
  H 2.461227 0.012735 1.278205
  H 1.102494 0.734319 0.428778
  H 1.624011 -2.317371 -0.688668
  H 4.146141 -1.501603 0.181881
  H 5.342919 -1.131008 -3.647674
  H 4.181012 0.160319 -3.655213
  H 2.363934 -1.626822 -3.152556
  H 3.619785 -2.837400 -3.380150
  H 2.743708 -0.796138 -5.484179
  H 2.353224 -2.511953 -5.477284
  H 4.018583 -1.993579 -5.705096
  H 5.901307 -0.114212 -0.469150
 23
 47.200569
  C 2.414637 0.614066 0.287082
  C 2.555054 -0.238554 -0.940228
  H 2.377668 0.314878 -1.858347
  C 2.244984 -1.665048 -0.960418
  C 3.641778 -1.593260 -0.771343
  C 4.379975 -0.739721 -1.639032
  C 4.270545 -0.766803 -3.134573
  C 3.262219 -1.761092 -3.707039
  C 3.207468 -1.651749 -5.227061
  O 5.430838 -0.082389 -1.214834
  H 2.915602 1.569219 0.153038
  H 2.793788 0.122708 1.177315
  H 1.355582 0.813520 0.452347
  H 1.447681 -2.310205 -0.687036
  H 4.110066 -1.921028 0.157202
  H 5.271240 -1.040473 -3.481640
  H 4.087752 0.237674 -3.522458
  H 2.264039 -1.580046 -3.302274
  H 3.552763 -2.774615 -3.428781
  H 2.878895 -0.661791 -5.534969
  H 2.509764 -2.378684 -5.633512
  H 4.185257 -1.838401 -5.664124
  H 5.646169 -0.182145 -0.269138
 23
 35.413483
  C 2.495452 0.774205 0.075206
  C 2.599723 -0.177229 -1.070497
  H 2.289838 0.286364 -2.006016
  C 2.333490 -1.605257 -0.796021
  C 3.665301 -1.855729 -0.760264
  C 4.241412 -0.716361 -1.523231
  C 4.186622 -0.762006 -3.044944
  C 3.232674 -1.781553 -3.661103
  C 3.251162 -1.668901 -5.181782
  O 5.302070 -0.034257 -1.099229
  H 2.932924 1.734833 -0.182090
  H 2.956728 0.388860 0.980689
  H 1.439064 0.931912 0.299596
  H 1.471379 -2.156052 -0.482067
  H 4.227897 -2.431656 -0.037600
  H 5.208031 -1.004032 -3.358538
  H 3.988103 0.235903 -3.438241
  H 2.210352 -1.632608 -3.311722
  H 3.539338 -2.788056 -3.370574
  H 2.910568 -0.687749 -5.503985
  H 2.596417 -2.415355 -5.623835
  H 4.254215 -1.826456 -5.570676
  H 5.511754 -0.143376 -0.156003
 23
 34.566220
  C 2.553859 0.747351 0.130430
  C 2.645558 -0.122249 -1.119578
  H 2.125977 0.466927 -1.877174
  C 2.350728 -1.536637 -0.776730
  C 3.664119 -1.848738 -0.799538
  C 4.138490 -0.600764 -1.526561
  C 4.219551 -0.809167 -3.042502
  C 3.165327 -1.710760 -3.665140
  C 3.330679 -1.774167 -5.177875
  O 5.221216 0.108309 -1.136753
  H 2.794363 1.779727 -0.107919
  H 3.214608 0.402466 0.920738
  H 1.538081 0.701714 0.521115
  H 1.441380 -2.074733 -0.605549
  H 4.272354 -2.502974 -0.198741
  H 5.216796 -1.217971 -3.229498
  H 4.199802 0.167611 -3.531748
  H 2.159196 -1.355809 -3.439374
  H 3.263388 -2.719205 -3.251512
  H 3.210015 -0.789754 -5.623707
  H 2.583304 -2.432453 -5.612959
  H 4.314021 -2.150901 -5.447702
  H 5.412717 0.050703 -0.186264
