 14
 0.000000
  H 1.433087 -0.075849 0.039154
  C 2.506908 -0.082573 0.025956
  C 3.219662 -0.593803 -0.977677
  C 4.657245 -0.606502 -1.002605
  C 5.376965 -1.121737 -2.014094
  C 6.815586 -1.132644 -2.035503
  C 7.531974 -1.642424 -3.036293
  H 8.605517 -1.654690 -3.060368
  H 3.003626 0.352464 0.880010
  H 2.709192 -1.027242 -1.828579
  H 5.162956 -0.172103 -0.149809
  H 4.869786 -1.556213 -2.867043
  H 7.320730 -0.697922 -1.182073
  H 7.036120 -2.078039 -3.891465
 14
 0.318099
  H 1.431677 -0.114178 0.038961
  C 2.504746 -0.096608 0.037304
  C 3.217957 -0.582968 -0.977452
  C 4.657523 -0.578910 -1.018593
  C 5.379084 -1.086096 -2.031043
  C 6.816476 -1.112977 -2.054971
  C 7.529106 -1.671881 -3.031742
  H 8.601862 -1.722400 -2.995770
  H 2.981803 0.332650 0.911326
  H 2.717344 -1.013677 -1.832722
  H 5.163057 -0.135765 -0.172210
  H 4.877317 -1.584967 -2.847431
  H 7.318089 -0.650422 -1.214685
  H 7.053214 -2.071065 -3.911336
 14
 2.498667
  H 1.428513 -0.160421 0.038645
  C 2.502145 -0.134252 0.044656
  C 3.226665 -0.583165 -0.979349
  C 4.663370 -0.559130 -1.012485
  C 5.393261 -1.011318 -2.046152
  C 6.831100 -1.048353 -2.063943
  C 7.496789 -1.692270 -3.023007
  H 8.548226 -1.919536 -2.975943
  H 2.966695 0.275692 0.924240
  H 2.735842 -0.978021 -1.856393
  H 5.159143 -0.120498 -0.157604
  H 4.929467 -1.587085 -2.838174
  H 7.353811 -0.589147 -1.236432
  H 7.008698 -1.991734 -3.936565
 14
 10.738407
  H 1.420596 -0.149920 -0.000366
  C 2.494586 -0.135204 0.029285
  C 3.236069 -0.573756 -0.987802
  C 4.669685 -0.549517 -0.996773
  C 5.407808 -0.974142 -2.035917
  C 6.843367 -0.995082 -2.075121
  C 7.436364 -1.736425 -3.017535
  H 8.458925 -2.068318 -2.952646
  H 2.942535 0.218283 0.937310
  H 2.759940 -0.936902 -1.887546
  H 5.156081 -0.196814 -0.092304
  H 5.011018 -1.666919 -2.768705
  H 7.408437 -0.471062 -1.321298
  H 6.987995 -1.883161 -3.987145
 14
 21.962092
  H 1.447762 0.050956 -0.028249
  C 2.509321 -0.092461 0.043978
  C 3.240527 -0.484530 -0.995948
  C 4.673389 -0.641571 -0.945070
  C 5.418206 -0.921907 -2.033369
  C 6.849245 -1.055637 -2.066121
  C 7.339615 -1.817980 -3.052854
  H 8.307213 -2.301554 -2.930224
  H 2.966365 0.156508 0.994136
  H 2.778892 -0.589216 -1.974574
  H 5.143578 -0.517987 0.020624
  H 5.054799 -1.538745 -2.848521
  H 7.483992 -0.599993 -1.323034
  H 7.013438 -1.782321 -4.072705
 14
 38.260357
  H 1.418731 -0.071183 -0.140771
  C 2.482621 -0.144841 -0.014046
  C 3.301214 -0.414876 -1.035883
  C 4.727361 -0.483347 -0.920349
  C 5.518240 -0.855104 -1.949203
  C 6.924379 -0.971901 -2.053001
  C 7.230502 -1.866841 -3.043739
  H 8.072232 -2.550554 -2.991873
  H 2.848492 -0.069768 0.995577
  H 2.891855 -0.616002 -2.008674
  H 5.137558 -0.393812 0.075964
  H 5.161966 -1.552938 -2.709092
  H 7.633484 -0.442961 -1.433262
  H 6.881317 -1.711337 -4.046154
 14
 61.209362
  H 1.385945 -0.150546 -0.273994
  C 2.444470 -0.213026 -0.076637
  C 3.336067 -0.430880 -1.048122
  C 4.748945 -0.498269 -0.833594
  C 5.629098 -0.792136 -1.823082
  C 6.991924 -0.883612 -2.053813
  C 7.071357 -1.868709 -3.046236
  H 7.854401 -2.630755 -3.023941
  H 2.748432 -0.109742 0.953564
  H 3.003396 -0.520647 -2.074622
  H 5.088623 -0.455403 0.188385
  H 5.379444 -1.640054 -2.575293
  H 7.805859 -0.328384 -1.614922
  H 6.749833 -1.642180 -4.044874
 14
 71.763379
  H 1.397022 -0.157774 -0.360321
  C 2.440968 -0.242859 -0.111930
  C 3.379825 -0.402906 -1.046178
  C 4.783717 -0.487377 -0.766380
  C 5.718463 -0.715302 -1.703761
  C 7.018596 -0.792618 -2.045666
  C 6.948764 -1.868336 -3.013174
  H 7.683565 -2.670019 -2.985860
  H 2.691841 -0.193149 0.935146
  H 3.098009 -0.444148 -2.090648
  H 5.074383 -0.509762 0.277740
  H 5.536163 -1.725447 -2.563625
  H 7.876006 -0.236292 -1.713129
  H 6.619927 -1.631817 -4.013736
 14
 54.231920
  H 1.407444 -0.162242 -0.453847
  C 2.440694 -0.259176 -0.167919
  C 3.417173 -0.322731 -1.053809
  C 4.803231 -0.461888 -0.717255
  C 5.773292 -0.646782 -1.585831
  C 6.985943 -0.741784 -2.064716
  C 6.868406 -1.917342 -2.988319
  H 7.640618 -2.652316 -2.985322
  H 2.639288 -0.328372 0.892081
  H 3.191189 -0.264054 -2.106976
  H 5.018122 -0.646040 0.331188
  H 5.701531 -1.969533 -2.612014
  H 7.859276 -0.132154 -1.898778
  H 6.516213 -1.697718 -4.008536
 14
 32.779081
  H 1.386518 -0.197215 -0.452222
  C 2.413349 -0.277960 -0.146960
  C 3.406005 -0.322266 -1.027910
  C 4.799650 -0.498237 -0.655795
  C 5.790474 -0.638464 -1.508941
  C 6.942165 -0.727655 -2.111050
  C 6.879259 -1.906327 -3.043701
  H 7.708383 -2.586194 -3.015106
  H 2.600591 -0.319046 0.913934
  H 3.195516 -0.237164 -2.089549
  H 5.008163 -0.615041 0.404402
  H 5.834284 -2.179360 -2.693930
  H 7.792278 -0.083240 -1.991972
  H 6.564477 -1.658134 -4.062885
 14
 13.779963
  H 1.399809 -0.132664 -0.480522
  C 2.412604 -0.259125 -0.139082
  C 3.439336 -0.286346 -0.982095
  C 4.807685 -0.518813 -0.566387
  C 5.812375 -0.642744 -1.393770
  C 6.790260 -0.678076 -2.245024
  C 6.916717 -1.956867 -3.030102
  H 7.913571 -2.374928 -3.060121
  H 2.550266 -0.381399 0.923181
  H 3.281662 -0.142970 -2.043148
  H 4.974510 -0.658307 0.496526
  H 6.147571 -2.568717 -2.558961
  H 7.467307 0.145102 -2.411194
  H 6.519803 -1.823645 -4.039904
 14
 8.237607
  H 1.403723 0.075162 -0.348246
  C 2.397301 -0.212448 -0.050560
  C 3.407048 -0.254539 -0.916495
  C 4.757245 -0.638200 -0.551653
  C 5.747022 -0.692881 -1.403132
  C 6.696720 -0.728783 -2.281884
  C 6.986417 -1.942318 -3.117258
  H 8.049970 -2.166640 -3.130461
  H 2.532571 -0.465040 0.988859
  H 3.252339 0.002517 -1.956397
  H 4.921467 -0.907328 0.485529
  H 6.427005 -2.784497 -2.721075
  H 7.328445 0.136144 -2.442387
  H 6.656939 -1.770673 -4.142867
 14
 8.728236
  H 1.402818 0.218259 -0.354159
  C 2.378583 -0.134154 -0.067351
  C 3.368671 -0.238871 -0.946420
  C 4.699948 -0.699310 -0.603564
  C 5.685583 -0.761297 -1.460024
  C 6.715826 -0.783200 -2.245887
  C 7.078229 -1.951703 -3.115761
  H 8.147719 -1.992962 -3.297462
  H 2.514909 -0.382847 0.972533
  H 3.209013 0.018101 -1.985465
  H 4.854526 -1.021066 0.420023
  H 6.737181 -2.872518 -2.648508
  H 7.344792 0.095711 -2.325559
  H 6.567148 -1.879652 -4.078013
 14
 8.422299
  H 1.398467 0.185859 -0.363625
  C 2.378386 -0.153588 -0.075453
  C 3.379380 -0.230086 -0.944744
  C 4.711287 -0.678981 -0.591610
  C 5.706484 -0.732682 -1.437473
  C 6.710478 -0.777935 -2.253821
  C 7.055180 -1.961022 -3.113754
  H 8.130706 -2.021185 -3.262760
  H 2.505587 -0.429046 0.959067
  H 3.232783 0.050903 -1.979405
  H 4.862772 -0.984816 0.437361
  H 6.704592 -2.881600 -2.654454
  H 7.347786 0.092161 -2.363833
  H 6.581055 -1.863489 -4.091115
