 25
 0.000000
  C 0.980367 0.140793 0.401301
  C 2.454090 0.140962 0.401239
  C 3.237296 0.608388 1.564713
  C 2.459940 1.096591 2.780731
  H 3.145189 1.409260 3.559127
  C 3.067460 -0.325143 -0.759491
  C 4.448690 -0.414290 -0.982119
  C 5.102551 -0.864311 -2.103442
  C 4.623932 -1.382948 -3.395859
  C 3.139666 -1.506587 -3.704754
  H 3.007303 -1.907269 -4.703281
  H 6.183618 -0.852807 -2.074857
  H 0.547134 0.510943 1.323001
  H 0.610281 -0.870869 0.228803
  H 0.609928 0.751971 -0.422982
  H 3.896972 1.416576 1.228529
  H 3.897274 -0.207585 1.880854
  H 1.827446 0.305973 3.179762
  H 1.827205 1.943472 2.522240
  H 2.403570 -0.641560 -1.546954
  H 5.081356 -0.086824 -0.166572
  H 5.092336 -2.368378 -3.519712
  H 5.092752 -0.756852 -4.166599
  H 2.654077 -0.533886 -3.666632
  H 2.653681 -2.182896 -3.004879
 25
 13.270960
  C 0.964652 0.176741 0.490921
  C 2.435631 0.110152 0.324487
  C 3.282472 0.562252 1.449722
  C 2.586680 1.063582 2.698594
  H 3.340951 1.354988 3.424286
  C 2.835795 -0.377548 -0.889934
  C 4.179075 -0.390557 -0.923163
  C 5.001704 -0.822491 -1.999496
  C 4.677990 -1.350988 -3.316273
  C 3.226736 -1.525486 -3.751822
  H 3.203876 -1.931003 -4.762372
  H 6.068175 -0.754011 -1.828977
  H 0.629027 0.560570 1.446378
  H 0.542365 -0.815363 0.346909
  H 0.542142 0.793379 -0.299411
  H 3.934205 1.364859 1.100260
  H 3.934653 -0.258870 1.752394
  H 1.970646 0.292193 3.152643
  H 1.970449 1.934658 2.493264
  H 2.158603 -0.684982 -1.655193
  H 4.755443 -0.054998 -0.087599
  H 5.205512 -2.315815 -3.399247
  H 5.205916 -0.711671 -4.043163
  H 2.702277 -0.574752 -3.766120
  H 2.701923 -2.222168 -3.104998
 25
 46.823561
  C 0.975311 0.192029 0.529870
  C 2.461481 0.085336 0.262962
  C 3.326422 0.545955 1.405679
  C 2.655920 1.053893 2.675587
  H 3.441410 1.335723 3.373788
  C 2.683206 -0.413220 -0.980141
  C 3.990599 -0.378495 -0.890724
  C 4.940499 -0.800820 -1.941731
  C 4.705736 -1.339315 -3.285312
  C 3.292445 -1.539485 -3.788958
  H 3.325188 -1.943113 -4.795881
  H 5.994365 -0.698671 -1.684424
  H 0.681697 0.579525 1.493923
  H 0.525640 -0.788428 0.404763
  H 0.524571 0.812090 -0.239166
  H 3.968969 1.364115 1.066513
  H 3.974764 -0.274676 1.726515
  H 2.054285 0.289762 3.155983
  H 2.049999 1.936075 2.496557
  H 1.971740 -0.709084 -1.719107
  H 4.557828 -0.048742 -0.066447
  H 5.253680 -2.288751 -3.347863
  H 5.255742 -0.697327 -3.986058
  H 2.755521 -0.598357 -3.827930
  H 2.753604 -2.245845 -3.167516
 25
 89.947889
  C 1.015549 0.207845 0.573231
  C 2.508781 0.069554 0.216589
  C 3.353159 0.536651 1.377832
  C 2.670888 1.042994 2.655475
  H 3.459445 1.324366 3.352408
  C 2.583364 -0.439887 -1.062803
  C 3.878046 -0.356719 -0.855646
  C 4.904875 -0.785904 -1.912648
  C 4.722834 -1.327533 -3.251815
  C 3.322110 -1.550248 -3.808152
  H 3.398489 -1.957224 -4.813967
  H 5.937952 -0.668796 -1.619671
  H 0.764224 0.596175 1.545828
  H 0.545533 -0.771932 0.468054
  H 0.540649 0.842014 -0.177856
  H 3.991164 1.360730 1.044546
  H 3.999957 -0.282806 1.704727
  H 2.072391 0.276287 3.139077
  H 2.064854 1.927687 2.481056
  H 1.858866 -0.729723 -1.783030
  H 4.500800 -0.038419 -0.062587
  H 5.287301 -2.272884 -3.291964
  H 5.289884 -0.678092 -3.937679
  H 2.773481 -0.616386 -3.870063
  H 2.770765 -2.262834 -3.203797
 25
 134.339178
  C 1.013922 0.208078 0.581783
  C 2.535429 0.070570 0.181932
  C 3.368203 0.541808 1.373202
  C 2.701083 1.029034 2.657258
  H 3.499819 1.302570 3.340621
  C 2.522775 -0.431895 -1.131013
  C 3.791030 -0.312279 -0.821803
  C 4.901435 -0.779011 -1.905305
  C 4.738828 -1.337452 -3.244021
  C 3.350606 -1.556092 -3.803508
  H 3.429772 -1.976537 -4.806138
  H 5.926855 -0.651493 -1.574776
  H 0.776325 0.589484 1.567763
  H 0.542582 -0.769644 0.477081
  H 0.525748 0.847549 -0.153898
  H 3.998053 1.377402 1.054407
  H 4.020865 -0.273992 1.695808
  H 2.116041 0.255681 3.144413
  H 2.094650 1.916593 2.504648
  H 1.799659 -0.722156 -1.853005
  H 4.466601 -0.005981 -0.062556
  H 5.295409 -2.281211 -3.266818
  H 5.313347 -0.702799 -3.928061
  H 2.809714 -0.617817 -3.879389
  H 2.790925 -2.258090 -3.192630
 25
 170.137269
  C 1.018544 0.199661 0.609752
  C 2.540393 0.112569 0.177937
  C 3.364335 0.575754 1.394374
  C 2.696447 1.012851 2.704379
  H 3.500965 1.280731 3.387629
  C 2.458784 -0.343301 -1.176609
  C 3.713577 -0.228575 -0.791043
  C 4.931673 -0.798238 -1.948844
  C 4.781906 -1.383582 -3.271935
  C 3.383642 -1.587844 -3.832079
  H 3.453055 -2.035444 -4.820886
  H 5.949597 -0.677322 -1.605502
  H 0.803898 0.558112 1.601990
  H 0.561031 -0.782560 0.503680
  H 0.514172 0.845325 -0.103672
  H 3.981893 1.433985 1.094703
  H 4.039305 -0.238869 1.682130
  H 2.131192 0.214758 3.176259
  H 2.072399 1.893611 2.587252
  H 1.733360 -0.622754 -1.886457
  H 4.463186 0.062797 -0.098730
  H 5.318671 -2.344387 -3.261416
  H 5.375499 -0.775214 -3.970552
  H 2.864903 -0.637769 -3.933233
  H 2.807155 -2.260554 -3.201977
 25
 194.400937
  C 1.025595 0.177717 0.642789
  C 2.534314 0.180798 0.221342
  C 3.361719 0.635302 1.447529
  C 2.680172 1.005876 2.767259
  H 3.473094 1.279024 3.459418
  C 2.427303 -0.232451 -1.206775
  C 3.641843 -0.125838 -0.756566
  C 4.998270 -0.839800 -2.031505
  C 4.831917 -1.462593 -3.333118
  C 3.417152 -1.614231 -3.871232
  H 3.449009 -2.090360 -4.847205
  H 6.019365 -0.752134 -1.678387
  H 0.819164 0.503801 1.650173
  H 0.604654 -0.821914 0.522799
  H 0.486093 0.822119 -0.049527
  H 3.938006 1.524634 1.162374
  H 4.049230 -0.177599 1.702886
  H 2.141221 0.175028 3.209246
  H 2.024253 1.864877 2.676104
  H 1.698019 -0.501975 -1.924912
  H 4.456099 0.133386 -0.117103
  H 5.323409 -2.449030 -3.302051
  H 5.441003 -0.893867 -4.052849
  H 2.945917 -0.643093 -3.988750
  H 2.820559 -2.239627 -3.213753
 25
 188.441049
  C 0.985978 0.177570 0.750279
  C 2.464033 0.298966 0.571261
  C 3.279097 0.764611 1.758138
  C 2.529952 1.140627 3.026815
  H 3.271712 1.454813 3.752858
  C 2.453768 -0.168549 -1.062592
  C 3.597259 -0.056328 -0.564340
  C 5.209905 -1.078818 -2.397619
  C 4.969765 -1.657717 -3.711204
  C 3.511465 -1.702085 -4.143833
  H 3.423221 -2.140933 -5.138574
  H 6.297453 -1.052357 -2.195888
  H 0.685534 0.480667 1.732716
  H 0.638769 -0.845786 0.561092
  H 0.451976 0.814197 0.034760
  H 3.863997 1.647869 1.465240
  H 4.044971 0.014958 2.010944
  H 2.005878 0.300149 3.460858
  H 1.857175 1.978633 2.877853
  H 1.701780 -0.406983 -1.775489
  H 4.508352 0.185070 -0.048529
  H 5.419186 -2.658462 -3.736928
  H 5.561390 -1.090704 -4.439955
  H 3.097918 -0.692562 -4.176690
  H 2.930598 -2.306593 -3.449057
 25
 169.991927
  C 1.093722 0.055245 0.716541
  C 2.530433 0.387560 0.657170
  C 3.279954 0.913993 1.844283
  C 2.464199 1.098474 3.118193
  H 3.133906 1.468461 3.893759
  C 2.625458 0.078098 -1.283715
  C 3.535811 0.064278 -0.404775
  C 5.241249 -1.177358 -2.428736
  C 4.927445 -1.724796 -3.734435
  C 3.453330 -1.694542 -4.121391
  H 3.301003 -2.188423 -5.077634
  H 6.335443 -1.227231 -2.278373
  H 0.700554 0.233977 1.710960
  H 0.924188 -0.986880 0.441783
  H 0.501587 0.656884 0.024657
  H 3.742682 1.877044 1.597042
  H 4.096400 0.216476 2.051828
  H 2.050204 0.157379 3.469129
  H 1.670360 1.830314 2.996977
  H 1.923331 0.029173 -2.065081
  H 4.569424 0.211334 -0.178984
  H 5.274661 -2.772701 -3.694459
  H 5.560151 -1.296547 -4.525439
  H 3.113012 -0.666705 -4.211527
  H 2.858744 -2.205008 -3.370454
