 26
 0.000000
  H 1.461465 0.064214 -0.002294
  C 2.539209 0.065986 -0.033720
  C 3.212732 -0.009715 1.307928
  C 2.231302 -0.075390 2.471737
  H 2.762854 -0.128782 3.418022
  C 3.178709 0.132254 -1.208123
  C 2.467056 0.207142 -2.535308
  C 0.942105 0.205730 -2.510241
  C 0.375959 0.285526 -3.924427
  C 4.631657 0.136200 -1.277982
  C 5.373462 0.198629 -2.384489
  O 6.730460 0.199703 -2.403470
  H 3.856320 0.865910 1.444289
  H 3.856325 -0.895123 1.344920
  H 1.593919 -0.953456 2.384053
  H 1.593913 0.806960 2.483388
  H 2.797971 -0.638332 -3.146979
  H 2.797974 1.116060 -3.047983
  H 0.576158 1.060838 -1.938756
  H 0.576161 -0.708236 -2.038582
  H 0.702702 1.197168 -4.420263
  H -0.711509 0.283981 -3.897050
  H 0.702700 -0.564547 -4.519665
  H 5.162046 0.083013 -0.335354
  H 4.987345 0.255334 -3.389419
  H 7.066988 0.148682 -1.499185
 26
 13.692339
  H 1.412861 0.064389 -0.005423
  C 2.486106 0.066071 -0.035258
  C 3.235771 -0.017866 1.452370
  C 2.234962 -0.082223 2.592829
  H 2.752449 -0.136102 3.547754
  C 3.181991 0.136734 -1.287538
  C 2.464833 0.211304 -2.609089
  C 0.939459 0.208805 -2.564747
  C 0.354225 0.288164 -3.971129
  C 4.630264 0.139190 -1.330989
  C 5.390031 0.200936 -2.425367
  O 6.746621 0.200778 -2.422503
  H 3.875197 0.857367 1.581940
  H 3.875204 -0.902119 1.482660
  H 1.598508 -0.959853 2.495263
  H 1.598496 0.800812 2.594610
  H 2.791732 -0.634737 -3.222611
  H 2.791736 1.120998 -3.123541
  H 0.582282 1.063204 -1.986640
  H 0.582280 -0.705210 -2.086424
  H 0.674490 1.199991 -4.470845
  H -0.732796 0.285863 -3.930330
  H 0.674488 -0.561659 -4.570251
  H 5.141787 0.085401 -0.377692
  H 5.018152 0.257945 -3.435694
  H 7.069041 0.149472 -1.513166
 26
 39.188825
  H 1.369819 0.064746 -0.011874
  C 2.427769 0.070068 -0.106157
  C 3.320869 -0.025070 1.580156
  C 2.250925 -0.085438 2.650044
  H 2.717101 -0.141118 3.637078
  C 3.169677 0.140388 -1.352451
  C 2.455915 0.214506 -2.666020
  C 0.939977 0.210704 -2.598298
  C 0.332735 0.289395 -3.992757
  C 4.605385 0.139753 -1.341088
  C 5.385945 0.200286 -2.413796
  O 6.746110 0.198759 -2.386313
  H 3.933670 0.875730 1.629208
  H 3.933712 -0.925705 1.527574
  H 1.621037 -0.961100 2.522953
  H 1.621061 0.798906 2.622251
  H 2.780513 -0.629085 -3.275889
  H 2.780498 1.121261 -3.177077
  H 0.598181 1.064057 -2.008979
  H 0.598182 -0.703504 -2.108710
  H 0.647123 1.201977 -4.496681
  H -0.753734 0.286275 -3.937294
  H 0.647102 -0.560702 -4.596130
  H 5.074063 0.084800 -0.367035
  H 5.021947 0.257668 -3.430789
  H 7.051881 0.147125 -1.471028
 26
 67.781728
  H 1.316817 0.068804 -0.083573
  C 2.374380 0.075123 -0.195543
  C 3.415564 -0.035479 1.764740
  C 2.335354 -0.093817 2.798606
  H 2.781808 -0.149994 3.794427
  C 3.109698 0.142277 -1.385764
  C 2.428808 0.217426 -2.717755
  C 0.896274 0.215934 -2.691015
  C 0.327396 0.295612 -4.102974
  C 4.549960 0.139943 -1.344227
  C 5.357394 0.200041 -2.409373
  O 6.693314 0.197048 -2.356234
  H 4.009776 0.867054 1.778589
  H 4.009815 -0.933881 1.676976
  H 1.710906 -0.967250 2.661755
  H 1.710960 0.789374 2.760872
  H 2.765662 -0.630962 -3.322444
  H 2.765624 1.128328 -3.223090
  H 0.542687 1.072692 -2.106869
  H 0.542719 -0.701066 -2.206969
  H 0.657026 1.207787 -4.598109
  H -0.761080 0.294214 -4.078172
  H 0.657014 -0.555051 -4.697580
  H 4.994617 0.084105 -0.354491
  H 5.017785 0.257450 -3.427053
  H 6.973256 0.145696 -1.445921
 26
 90.587764
  H 1.254242 0.071663 -0.134056
  C 2.317186 0.079777 -0.277887
  C 3.508596 -0.045570 1.943518
  C 2.415442 -0.102368 2.950091
  H 2.840645 -0.159227 3.957991
  C 3.046640 0.144408 -1.423347
  C 2.387275 0.221233 -2.785089
  C 0.865465 0.221070 -2.782129
  C 0.315752 0.301549 -4.208445
  C 4.496526 0.140986 -1.362450
  C 5.324922 0.199914 -2.406955
  O 6.685266 0.195232 -2.324451
  H 4.087013 0.864929 1.916829
  H 4.087048 -0.947333 1.814562
  H 1.794199 -0.976620 2.803926
  H 1.794260 0.782696 2.903202
  H 2.742950 -0.628083 -3.375723
  H 2.742910 1.131532 -3.276377
  H 0.492930 1.078082 -2.210203
  H 0.492953 -0.694834 -2.310259
  H 0.653353 1.213660 -4.699290
  H -0.772734 0.301058 -4.199756
  H 0.653347 -0.549512 -4.798767
  H 4.917351 0.084677 -0.364462
  H 5.003645 0.257868 -3.434524
  H 6.964327 0.141101 -1.364973
