12

C -3.510983 0.9835 -0.128491
C -2.068261 0.587553 -0.027082
C -1.65128 -0.4765 0.637884
C -0.235955 -0.942838 0.800986
H 0.07719975502321808 -0.6847855693960633 0.5933639977139358
H -4.110109 0.164225 -0.523848
H -3.634109 1.84938 -0.773023
H -3.907669 1.232155 0.856564
H -1.363991 1.230418 -0.532393
H -2.382961 -1.103029 1.13501
H -0.011264 -0.990022 1.8721
H -0.16879 -1.965734 0.417212
