9

H 1.3764518102822247 0.1390099935402057 0.39842706594949456
C 2.446447 0.138115 0.395346
C 3.23446 0.607562 1.562646
H 2.691447544588579 0.9512806862951755 2.418154584386842
C 3.060064 -0.326115 -0.760183
H 4.115364910678265 -0.3918313120599217 -0.9242602813367822
H 3.890246 1.419373 1.227748
H 3.890735 -0.209842 1.882633
H 2.401323 -0.643773 -1.550558
