 17
 0.000000
  C 0.921229 0.051832 0.205587
  C 2.405813 0.061479 0.012511
  H 2.997784 0.011880 0.917036
  C 3.044155 0.129065 -1.165331
  C 2.322040 0.203386 -2.478895
  H 1.246888 0.194645 -2.333468
  C 4.496269 0.131093 -1.194769
  C 5.253718 0.193798 -2.290349
  O 6.610177 0.194880 -2.302686
  H 0.677176 -0.012402 1.262806
  H 0.464941 -0.798866 -0.301116
  H 0.470112 0.960476 -0.193992
  H 2.596029 -0.643009 -3.106670
  H 2.595153 1.115945 -3.006372
  H 4.987210 0.076141 -0.228814
  H 4.861839 0.250899 -3.293266
  H 6.943281 0.143279 -1.397156
 17
 4.005847
  C 0.928506 0.025422 0.215638
  C 2.386974 0.049884 0.014851
  H 2.990641 -0.004598 0.913343
  C 3.026714 0.120808 -1.161339
  C 2.307309 0.193384 -2.478272
  H 1.230869 0.176286 -2.343544
  C 4.479233 0.136056 -1.189079
  C 5.238024 0.203049 -2.283193
  O 6.593091 0.212025 -2.292321
  H 0.649214 -0.002934 1.262740
  H 0.425585 -0.783006 -0.313647
  H 0.704340 0.973938 -0.226206
  H 2.589062 -0.650186 -3.106667
  H 2.577184 1.109371 -3.002056
  H 4.969202 0.085154 -0.222418
  H 4.848009 0.255699 -3.286643
  H 6.923117 0.163640 -1.385811
 17
 12.115632
  C 0.911616 0.014217 0.221009
  C 2.390815 0.025093 0.013901
  H 3.009779 -0.046190 0.899445
  C 3.023932 0.102924 -1.161679
  C 2.303458 0.173879 -2.476240
  H 1.225917 0.143244 -2.345750
  C 4.468466 0.140481 -1.192972
  C 5.207850 0.213848 -2.266729
  O 6.569029 0.240037 -2.277482
  H 0.612644 0.015966 1.251405
  H 0.373256 -0.719273 -0.342170
  H 0.922389 0.976174 -0.227130
  H 2.594740 -0.663034 -3.107679
  H 2.564242 1.094849 -2.995916
  H 4.961999 0.097280 -0.229359
  H 4.814476 0.258383 -3.269911
  H 6.899634 0.198130 -1.373163
 17
 22.682067
  C 0.898180 0.005275 0.231517
  C 2.370637 0.020153 0.013999
  H 2.990568 -0.057027 0.902061
  C 3.010654 0.097653 -1.162402
  C 2.293418 0.164084 -2.480660
  H 1.215253 0.128703 -2.353119
  C 4.459578 0.145934 -1.186263
  C 5.218960 0.219203 -2.276629
  O 6.573399 0.254390 -2.280005
  H 0.593642 0.010537 1.267002
  H 0.329079 -0.687134 -0.367236
  H 1.079849 0.971063 -0.206447
  H 2.589965 -0.672543 -3.111010
  H 2.551367 1.085864 -3.001557
  H 4.948385 0.111170 -0.218122
  H 4.833152 0.254064 -3.280933
  H 6.898206 0.219697 -1.371844
 17
 33.769665
  C 0.879560 -0.008782 0.240431
  C 2.359441 0.025926 0.007300
  H 2.981052 -0.048525 0.896317
  C 3.005168 0.099825 -1.168639
  C 2.286687 0.159910 -2.483931
  H 1.209658 0.123784 -2.352863
  C 4.459154 0.151866 -1.187978
  C 5.224410 0.221183 -2.278148
  O 6.582721 0.260582 -2.275832
  H 0.572084 -0.002085 1.276308
  H 0.291635 -0.663372 -0.380297
  H 1.197056 0.951451 -0.183866
  H 2.581997 -0.678348 -3.111762
  H 2.541598 1.078612 -3.009127
  H 4.945552 0.123502 -0.217586
  H 4.842050 0.249289 -3.285319
  H 6.902265 0.231471 -1.367784
 17
 41.925277
  C 0.868738 -0.014752 0.249611
  C 2.357259 0.035023 0.007136
  H 2.971192 -0.030338 0.896980
  C 3.009887 0.101221 -1.171737
  C 2.293070 0.147349 -2.497711
  H 1.214828 0.113096 -2.368026
  C 4.445497 0.159369 -1.183978
  C 5.214743 0.219536 -2.275941
  O 6.572785 0.266668 -2.271639
  H 0.577615 -0.061252 1.278596
  H 0.261474 -0.589608 -0.427770
  H 1.300561 0.942873 -0.099079
  H 2.589290 -0.697867 -3.119208
  H 2.548930 1.063529 -3.034390
  H 4.927833 0.144182 -0.212456
  H 4.833921 0.233419 -3.283178
  H 6.887057 0.248380 -1.370361
 17
 48.092686
  C 0.857330 -0.021968 0.250581
  C 2.344958 0.042070 -0.005350
  H 2.956194 -0.016119 0.891175
  C 3.004403 0.100079 -1.185266
  C 2.286570 0.132520 -2.497868
  H 1.212363 0.100423 -2.360503
  C 4.452636 0.166459 -1.194511
  C 5.225542 0.219823 -2.281134
  O 6.583316 0.275741 -2.268337
  H 0.570702 -0.128175 1.281620
  H 0.226698 -0.503472 -0.470178
  H 1.381886 0.944987 -0.024042
  H 2.578168 -0.717091 -3.110771
  H 2.537105 1.038454 -3.042728
  H 4.933692 0.162712 -0.221118
  H 4.848909 0.222555 -3.293955
  H 6.895226 0.265579 -1.351949
 17
 52.971693
  C 0.862151 -0.027416 0.265225
  C 2.333516 0.049438 -0.010424
  H 2.943525 -0.014226 0.892062
  C 2.997996 0.102745 -1.191497
  C 2.276976 0.122672 -2.518101
  H 1.189417 0.085956 -2.381007
  C 4.449984 0.181361 -1.192687
  C 5.230398 0.227861 -2.274219
  O 6.598763 0.273386 -2.253421
  H 0.589501 -0.168891 1.287441
  H 0.201594 -0.448666 -0.479003
  H 1.450259 0.939684 0.033284
  H 2.578488 -0.742540 -3.132464
  H 2.526270 1.037930 -3.078495
  H 4.926347 0.183808 -0.218047
  H 4.862190 0.218313 -3.282713
  H 6.901992 0.266499 -1.343840
 17
 56.593918
  C 0.853471 -0.038740 0.267135
  C 2.331255 0.059114 -0.009970
  H 2.929469 0.007337 0.879376
  C 3.003856 0.099529 -1.197903
  C 2.297747 0.120031 -2.507397
  H 1.239750 0.096817 -2.376901
  C 4.440271 0.163481 -1.197659
  C 5.222693 0.210945 -2.282397
  O 6.581046 0.292535 -2.260173
  H 0.577460 -0.196873 1.280246
  H 0.182807 -0.414120 -0.496766
  H 1.496287 0.934756 0.060820
  H 2.585238 -0.735545 -3.103723
  H 2.552556 1.010325 -3.062122
  H 4.916481 0.173548 -0.220463
  H 4.852378 0.210538 -3.296769
  H 6.882563 0.294466 -1.349053
 17
 59.761456
  C 0.853525 -0.049173 0.262238
  C 2.326417 0.069214 -0.009459
  H 2.940362 0.007374 0.897470
  C 2.999115 0.102075 -1.200298
  C 2.284953 0.113246 -2.510826
  H 1.220504 0.090189 -2.374506
  C 4.444205 0.170291 -1.200157
  C 5.229570 0.212729 -2.281622
  O 6.596269 0.293508 -2.256728
  H 0.569216 -0.224357 1.271414
  H 0.183411 -0.374191 -0.515414
  H 1.539653 0.932427 0.083604
  H 2.570702 -0.750632 -3.105880
  H 2.538966 1.008341 -3.077940
  H 4.919189 0.185721 -0.226946
  H 4.868225 0.207172 -3.278623
  H 6.897110 0.298881 -1.341091
 17
 62.253647
  C 0.850047 -0.066775 0.264724
  C 2.333235 0.080880 -0.003153
  H 2.947511 0.007143 0.895358
  C 3.007132 0.109864 -1.199369
  C 2.290533 0.107766 -2.519344
  H 1.213705 0.077344 -2.385568
  C 4.442912 0.192886 -1.196783
  C 5.230006 0.227726 -2.278488
  O 6.592567 0.278035 -2.249860
  H 0.554830 -0.257029 1.275862
  H 0.181777 -0.341180 -0.522886
  H 1.578735 0.938188 0.109321
  H 2.582626 -0.753491 -3.105708
  H 2.538823 0.997945 -3.092023
  H 4.919143 0.209324 -0.219613
  H 4.865284 0.206945 -3.292402
  H 6.890621 0.280858 -1.332344
 17
 64.778494
  C 0.851226 -0.088707 0.261336
  C 2.332333 0.092857 0.003765
  H 2.935288 0.022562 0.885365
  C 3.011751 0.110765 -1.198995
  C 2.299636 0.111014 -2.507197
  H 1.207835 0.091593 -2.369695
  C 4.441628 0.184109 -1.198139
  C 5.228624 0.219236 -2.281251
  O 6.591248 0.285700 -2.252330
  H 0.542805 -0.268184 1.272565
  H 0.187870 -0.332439 -0.537130
  H 1.608242 0.942833 0.112426
  H 2.591604 -0.772956 -3.103336
  H 2.557897 0.998670 -3.081102
  H 4.917855 0.203026 -0.225365
  H 4.865692 0.203850 -3.289140
  H 6.888127 0.291799 -1.336011
 17
 66.744157
  C 0.858541 -0.108594 0.261552
  C 2.332928 0.100388 0.010692
  H 2.949733 0.017601 0.898861
  C 3.012680 0.105873 -1.198372
  C 2.293665 0.106838 -2.516066
  H 1.197727 0.096440 -2.381075
  C 4.441983 0.172886 -1.196043
  C 5.232061 0.208995 -2.277704
  O 6.595130 0.300623 -2.244129
  H 0.542515 -0.272401 1.261003
  H 0.188244 -0.314168 -0.551615
  H 1.648950 0.957509 0.117025
  H 2.573258 -0.763290 -3.096281
  H 2.557345 0.981284 -3.090657
  H 4.919656 0.198314 -0.219578
  H 4.870611 0.198852 -3.290006
  H 6.888556 0.313753 -1.326220
 17
 68.247891
  C 0.853625 -0.143724 0.258463
  C 2.335454 0.115157 0.014698
  H 2.956138 0.021724 0.907548
  C 3.016276 0.115937 -1.200581
  C 2.295687 0.107781 -2.514975
  H 1.226113 0.094161 -2.379688
  C 4.442504 0.196149 -1.198167
  C 5.232367 0.224231 -2.280593
  O 6.595331 0.282330 -2.246702
  H 0.519617 -0.289244 1.264249
  H 0.183923 -0.314837 -0.551379
  H 1.673678 0.980058 0.117492
  H 2.576442 -0.772400 -3.096437
  H 2.557300 0.992745 -3.104130
  H 4.926703 0.220442 -0.211242
  H 4.870761 0.198552 -3.294180
  H 6.890079 0.292766 -1.325808
