19
 0
 C -1.53184148 1.80710740 1.49590040
 C -1.64884392 0.29129637 1.39251300
 C -1.07725184 -0.18994840 0.05990897
 C -1.01457854 -0.50964305 2.53094096
 C -0.19623561 0.16617748 3.60125645
 O -1.15239136 -1.73775553 2.56972067
 H -2.07351026 2.29306551 0.67697964
 H -0.48813891 2.13551859 1.44319945
 H -1.96064278 2.17268458 2.43481077
 H -2.71905808 0.04789893 1.42211355
 H 0.00000000 0.00000000 0.00000000
 H -1.56278324 0.31745975 -0.78050574
 H -1.22963693 -1.26700273 -0.06965167
 H -0.18649578 1.25151267 3.51994935
 H 0.83507538 -0.19101782 3.53747078
 H -0.61678469 -0.09179519 4.57759081
 O 2.30000000 0.00000000 0.00000000
 H 2.98474093 0.23913281 0.64258244
 H 2.78881206 -0.44606170 -0.70784698
