15

C -3.504435 0.981349 -0.132732
C -2.059395 0.587426 -0.039582
C -1.648014 -0.473289 0.634842
C -0.237334 -0.94447 0.800754
C 0.811056 -0.079697 0.104698
H 1.2348706402825598 -0.24042719081418867 0.1764495050263673
H -4.110219 0.165919 -0.523837
H -3.643699 1.863677 -0.749358
H -3.8848 1.214953 0.861523
H -1.353944 1.224059 -0.547274
H -2.384578 -1.095775 1.134756
H -0.014526 -0.99166 1.873157
H -0.174917 -1.968392 0.40965
H 0.606975 -0.065003 -0.968815
H 0.749323 0.944003 0.482999
