 23
 0.000000
  C 0.995798 0.132321 0.380257
  C 2.467955 0.143907 0.411311
  C 3.226677 0.617479 1.589336
  C 2.429386 1.103538 2.796032
  C 3.368032 1.551677 3.912542
  C 3.123842 -0.314818 -0.728178
  C 4.507086 -0.385574 -0.906482
  C 5.098215 -0.848522 -2.060233
  H 4.553187 -1.198799 -2.928436
  O 6.384224 -0.920405 -2.247264
  H 0.541549 0.499673 1.292313
  H 0.637860 -0.881568 0.194135
  H 0.638935 0.735220 -0.456340
  H 3.887987 1.429958 1.266999
  H 3.886796 -0.192682 1.919838
  H 1.791466 0.303700 3.175955
  H 1.792962 1.944688 2.515948
  H 4.002865 0.732048 4.241521
  H 2.796221 1.897087 4.770179
  H 4.004456 2.369791 3.582868
  H 2.500651 -0.644959 -1.548588
  H 5.152599 -0.061031 -0.101158
  H 6.919463 -0.612408 -1.487966
 23
 9.834795
  C 0.993931 0.136529 0.390330
  C 2.466917 0.151550 0.430696
  C 3.218218 0.627593 1.614975
  C 2.411653 1.111933 2.816682
  C 3.342601 1.562105 3.938714
  C 3.132314 -0.306021 -0.705432
  C 4.502890 -0.371056 -0.869754
  C 5.151653 -0.889463 -2.161784
  H 4.585265 -1.234300 -3.015178
  O 6.421845 -0.961428 -2.350604
  H 0.533820 0.502958 1.299661
  H 0.639551 -0.877962 0.200898
  H 0.641005 0.737633 -0.449186
  H 3.879980 1.441474 1.297251
  H 3.878425 -0.180593 1.949983
  H 1.773463 0.310470 3.192695
  H 1.775397 1.951812 2.532456
  H 3.977206 0.743684 4.271315
  H 2.765197 1.906428 4.793133
  H 3.979249 2.381523 3.612540
  H 2.516847 -0.638360 -1.531143
  H 5.154713 -0.050329 -0.074383
  H 6.966115 -0.654099 -1.595367
 23
 29.605318
  C 1.001336 0.138648 0.394413
  C 2.472439 0.158537 0.449940
  C 3.211329 0.636449 1.639172
  C 2.389928 1.118668 2.832447
  C 3.309353 1.571898 3.962904
  C 3.151146 -0.295419 -0.675567
  C 4.517518 -0.349882 -0.813560
  C 5.190321 -0.928235 -2.258106
  H 4.558788 -1.254686 -3.063860
  O 6.433136 -0.999413 -2.450846
  H 0.534707 0.504032 1.300440
  H 0.651573 -0.876995 0.203233
  H 0.654112 0.739200 -0.447751
  H 3.873498 1.452158 1.328580
  H 3.870565 -0.168825 1.981548
  H 1.751607 0.314745 3.202741
  H 1.755084 1.957162 2.541357
  H 3.943416 0.755008 4.300264
  H 2.724302 1.915189 4.812486
  H 3.947006 2.392180 3.641040
  H 2.547455 -0.629487 -1.506626
  H 5.211626 -0.043965 -0.054858
  H 7.000254 -0.698462 -1.715439
 23
 52.373942
  C 0.995254 0.141903 0.401898
  C 2.471506 0.166864 0.470851
  C 3.203447 0.648892 1.670552
  C 2.371506 1.129069 2.858109
  C 3.280849 1.584909 3.995792
  C 3.166447 -0.287436 -0.654920
  C 4.512404 -0.334529 -0.774849
  C 5.229133 -0.970586 -2.362695
  H 4.563258 -1.289904 -3.147744
  O 6.482949 -1.043240 -2.561936
  H 0.519527 0.506069 1.304176
  H 0.650247 -0.874901 0.207070
  H 0.653315 0.740885 -0.443720
  H 3.865989 1.466889 1.365123
  H 3.862618 -0.154762 2.018383
  H 1.732705 0.323243 3.223449
  H 1.736657 1.965840 2.562002
  H 3.914479 0.769531 4.337881
  H 2.688390 1.926609 4.840974
  H 3.918614 2.407065 3.678569
  H 2.571616 -0.624251 -1.492336
  H 5.226408 -0.036395 -0.036559
  H 7.068988 -0.742690 -1.830535
 23
 74.333995
  C 0.997929 0.149153 0.419307
  C 2.468611 0.177834 0.498755
  C 3.189852 0.659947 1.698938
  C 2.347048 1.137394 2.878464
  C 3.245413 1.595856 4.023268
  C 3.175973 -0.276404 -0.626121
  C 4.533137 -0.318559 -0.733768
  C 5.281678 -1.013641 -2.469431
  H 4.584871 -1.323238 -3.227864
  O 6.508957 -1.086246 -2.671769
  H 0.516842 0.512402 1.318520
  H 0.656859 -0.868365 0.222293
  H 0.660574 0.747308 -0.428579
  H 3.852123 1.479554 1.398292
  H 3.848119 -0.141945 2.051654
  H 1.707700 0.329552 3.238285
  H 1.712364 1.972199 2.576636
  H 3.878463 0.782180 4.370374
  H 2.645132 1.935951 4.863536
  H 3.883317 2.419716 3.710899
  H 2.585168 -0.614626 -1.467046
  H 5.276159 -0.030040 -0.019847
  H 7.105656 -0.790385 -1.954857
 23
 93.391986
  C 1.014373 0.148302 0.415964
  C 2.478699 0.188301 0.523835
  C 3.184603 0.671555 1.727619
  C 2.323940 1.143986 2.894960
  C 3.203473 1.606767 4.052013
  C 3.206012 -0.257164 -0.579115
  C 4.546532 -0.286277 -0.654777
  C 5.287580 -1.047360 -2.550782
  H 4.536801 -1.340776 -3.261468
  O 6.504528 -1.130867 -2.784609
  H 0.518267 0.508833 1.308091
  H 0.682642 -0.871049 0.214774
  H 0.686725 0.745312 -0.436012
  H 3.846533 1.493576 1.434346
  H 3.842005 -0.127560 2.087118
  H 1.683771 0.332383 3.244978
  H 1.689086 1.975322 2.583734
  H 3.835850 0.796002 4.407240
  H 2.589705 1.943518 4.883893
  H 3.841265 2.433919 3.748110
  H 2.627789 -0.598224 -1.425210
  H 5.356153 -0.025742 -0.012218
  H 7.141330 -0.844656 -2.097293
 23
 110.452933
  C 0.988828 0.154034 0.430058
  C 2.467388 0.198240 0.548604
  C 3.171778 0.687826 1.768302
  C 2.303661 1.159872 2.934445
  C 3.177199 1.624595 4.096540
  C 3.214598 -0.251791 -0.565624
  C 4.545407 -0.278651 -0.635372
  C 5.346744 -1.094627 -2.668414
  H 4.598056 -1.391603 -3.386762
  O 6.574343 -1.180906 -2.910086
  H 0.485144 0.513409 1.319296
  H 0.659226 -0.867199 0.227141
  H 0.663371 0.751281 -0.424437
  H 3.834556 1.512295 1.478414
  H 3.829902 -0.110754 2.131940
  H 1.663304 0.347078 3.281701
  H 1.668744 1.990255 2.620397
  H 3.809389 0.815108 4.454703
  H 2.558887 1.960295 4.925670
  H 3.814973 2.452809 3.795697
  H 2.642481 -0.594898 -1.416745
  H 5.356546 -0.020263 0.002081
  H 7.216145 -0.893112 -2.219906
 23
 123.910404
  C 1.007864 0.161380 0.448793
  C 2.471606 0.211455 0.581910
  C 3.159227 0.698920 1.796282
  C 2.277246 1.165802 2.949167
  C 3.134680 1.634227 4.120060
  C 3.227821 -0.233030 -0.518524
  C 4.555243 -0.255846 -0.577360
  C 5.376730 -1.130959 -2.761249
  H 4.609216 -1.423169 -3.468713
  O 6.586512 -1.226068 -3.023151
  H 0.497324 0.519094 1.333791
  H 0.684337 -0.859933 0.244184
  H 0.688562 0.757529 -0.406953
  H 3.820525 1.524972 1.512393
  H 3.815876 -0.096618 2.165427
  H 1.636894 0.350060 3.288477
  H 1.642368 1.992791 2.627196
  H 3.766452 0.827509 4.485329
  H 2.505354 1.967073 4.941732
  H 3.772038 2.465307 3.826102
  H 2.660020 -0.577260 -1.373077
  H 5.394694 -0.009789 0.030438
  H 7.245137 -0.944473 -2.345964
 23
 132.108228
  C 0.990433 0.171357 0.473160
  C 2.457504 0.225220 0.615279
  C 3.138136 0.716367 1.839168
  C 2.249471 1.183423 2.993220
  C 3.103432 1.653159 4.168006
  C 3.233099 -0.225048 -0.499685
  C 4.551552 -0.249923 -0.563713
  C 5.441656 -1.179734 -2.881631
  H 4.698309 -1.484392 -3.617315
  O 6.660093 -1.282853 -3.164086
  H 0.469900 0.527684 1.355122
  H 0.671389 -0.852072 0.265163
  H 0.675356 0.766714 -0.386353
  H 3.800412 1.543585 1.557656
  H 3.795848 -0.078380 2.210590
  H 1.608991 0.366701 3.331039
  H 1.614355 2.010140 2.669895
  H 3.735228 0.847489 4.535295
  H 2.471064 1.985045 4.987889
  H 3.740716 2.485078 3.876581
  H 2.667786 -0.570810 -1.357159
  H 5.381135 0.000084 0.053352
  H 7.316458 -0.998259 -2.481587
 23
 136.289279
  C 0.995654 0.184100 0.504677
  C 2.446916 0.241349 0.653535
  C 3.113067 0.729284 1.869779
  C 2.220644 1.192993 3.017971
  C 3.069995 1.663106 4.194151
  C 3.228753 -0.206892 -0.457576
  C 4.547917 -0.232023 -0.523060
  C 5.493349 -1.219410 -2.978897
  H 4.765788 -1.532602 -3.733263
  O 6.705991 -1.331276 -3.281513
  H 0.467532 0.538175 1.382213
  H 0.683485 -0.839435 0.292360
  H 0.686634 0.776586 -0.357626
  H 3.775090 1.556007 1.590500
  H 3.771316 -0.063294 2.241695
  H 1.581141 0.375396 3.353227
  H 1.585646 2.018320 2.693142
  H 3.702104 0.858466 4.563147
  H 2.434713 1.993386 5.011879
  H 3.706781 2.496304 3.905200
  H 2.663855 -0.554021 -1.317413
  H 5.376611 0.019652 0.097414
  H 7.362747 -1.047263 -2.600970
 23
 138.834319
  C 0.975828 0.193598 0.528238
  C 2.429759 0.253861 0.685490
  C 3.089831 0.744690 1.908832
  C 2.194333 1.209580 3.058923
  C 3.044095 1.680274 4.236442
  C 3.220159 -0.195345 -0.427400
  C 4.539897 -0.222114 -0.496495
  C 5.556672 -1.262266 -3.085948
  H 4.855533 -1.585264 -3.864004
  O 6.775571 -1.380176 -3.405017
  H 0.437011 0.546152 1.401352
  H 0.668756 -0.831891 0.310058
  H 0.672255 0.783330 -0.339848
  H 3.754433 1.571338 1.630528
  H 3.750336 -0.047266 2.281721
  H 1.554514 0.391816 3.394750
  H 1.559407 2.035559 2.734051
  H 3.676105 0.876018 4.606374
  H 2.408308 2.010790 5.053983
  H 3.681114 2.513509 3.948226
  H 2.657736 -0.542897 -1.288712
  H 5.356145 0.034954 0.138017
  H 7.425031 -1.094573 -2.721405
 23
 140.378163
  C 0.974946 0.206930 0.561575
  C 2.417385 0.269212 0.723819
  C 3.064762 0.757981 1.941918
  C 2.165288 1.220305 3.085729
  C 3.009806 1.691816 4.265077
  C 3.211945 -0.178042 -0.384189
  C 4.533270 -0.204804 -0.453153
  C 5.607521 -1.300009 -3.180683
  H 4.918493 -1.629164 -3.973614
  O 6.824401 -1.423764 -3.513630
  H 0.429815 0.557815 1.430410
  H 0.673249 -0.818212 0.338647
  H 0.676722 0.793007 -0.309716
  H 3.730086 1.583647 1.666087
  H 3.726120 -0.031493 2.315883
  H 1.526067 0.401955 3.419052
  H 1.530847 2.044907 2.758678
  H 3.641636 0.888727 4.637580
  H 2.370645 2.021245 5.079974
  H 3.646533 2.526102 3.979461
  H 2.651410 -0.526358 -1.247565
  H 5.346898 0.054369 0.186964
  H 7.473620 -1.138062 -2.828848
 23
 141.408518
  C 0.956972 0.216694 0.585956
  C 2.401952 0.281969 0.757541
  C 3.042244 0.773724 1.982662
  C 2.137140 1.236581 3.125297
  C 2.978218 1.709616 4.308054
  C 3.203711 -0.164716 -0.347504
  C 4.525737 -0.191658 -0.415900
  C 5.663056 -1.339307 -3.280334
  H 4.989255 -1.673496 -4.086481
  O 6.883712 -1.466857 -3.624504
  H 0.402036 0.566251 1.449957
  H 0.659923 -0.810009 0.357171
  H 0.664278 0.799618 -0.291095
  H 3.710400 1.599458 1.709098
  H 3.705646 -0.014512 2.359083
  H 1.497319 0.417605 3.457524
  H 1.502956 2.061206 2.796122
  H 3.609510 0.907406 4.683448
  H 2.335991 2.038972 5.120896
  H 3.615217 2.544448 4.024645
  H 2.647271 -0.513498 -1.212821
  H 5.332987 0.070138 0.231824
  H 7.527315 -1.180724 -2.938774
 23
 142.090667
  C 0.950169 0.230424 0.619958
  C 2.387033 0.298065 0.797903
  C 3.015988 0.788903 2.020673
  C 2.105598 1.249192 3.156595
  C 2.939899 1.723417 4.342361
  C 3.194962 -0.146734 -0.301991
  C 4.517043 -0.172112 -0.366346
  C 5.709983 -1.374828 -3.369577
  H 5.042081 -1.712187 -4.183109
  O 6.929869 -1.506094 -3.723148
  H 0.389125 0.578433 1.479635
  H 0.657867 -0.795920 0.386690
  H 0.662454 0.809885 -0.260176
  H 3.685074 1.614050 1.750429
  H 3.680196 0.003286 2.399164
  H 1.466168 0.429368 3.485623
  H 1.471959 2.072272 2.824450
  H 3.570765 0.922506 4.721033
  H 2.293273 2.051521 5.151843
  H 3.576617 2.559472 4.062215
  H 2.642481 -0.496736 -1.170302
  H 5.323946 0.090090 0.282705
  H 7.575229 -1.219672 -3.036755
