 20
 0.000000
  H 1.428334 0.154707 0.437531
  C 2.507117 0.139264 0.397949
  C 3.240463 0.612908 1.575012
  H 2.572404 0.930724 2.366442
  C 3.075433 -0.327368 -0.763963
  C 4.451211 -0.414759 -0.981784
  C 5.127432 -0.870080 -2.117247
  C 4.614933 -1.389423 -3.412340
  C 3.124406 -1.499724 -3.688276
  H 2.990142 -1.900590 -4.687867
  O 6.442323 -0.866651 -2.109089
  H 3.896297 1.444544 1.308231
  H 3.897365 -0.171235 1.957938
  H 2.405748 -0.640763 -1.544238
  H 5.086819 -0.087809 -0.167040
  H 5.076206 -2.375715 -3.541006
  H 5.076690 -0.765707 -4.186915
  H 2.638688 -0.528425 -3.654454
  H 2.638224 -2.178285 -2.992730
  H 6.854252 -0.537664 -1.287386
 20
 14.247839
  H 1.491764 0.061458 0.207421
  C 2.568972 0.095827 0.289448
  C 3.141813 0.593484 1.527462
  H 2.371385 0.879445 2.244703
  C 3.325170 -0.350304 -0.822650
  C 4.669369 -0.360114 -0.850386
  C 5.101674 -0.834664 -2.029380
  C 4.498073 -1.341919 -3.293092
  C 3.017237 -1.468043 -3.610401
  H 2.940486 -1.873120 -4.619479
  O 6.451697 -0.913478 -2.222186
  H 3.792214 1.458092 1.333025
  H 3.795617 -0.163559 1.983276
  H 2.742951 -0.681148 -1.644512
  H 5.316921 -0.037398 -0.050435
  H 4.958196 -2.326581 -3.429254
  H 4.959881 -0.725945 -4.072202
  H 2.507978 -0.506051 -3.617976
  H 2.506771 -2.167512 -2.951013
  H 6.980622 -0.608147 -1.457969
 20
 48.370185
  H 1.555319 -0.016585 0.018222
  C 2.612580 0.059747 0.203159
  C 3.063187 0.574088 1.476600
  H 2.241576 0.833399 2.126949
  C 3.511986 -0.365568 -0.856888
  C 4.834207 -0.322341 -0.753397
  C 5.061106 -0.807007 -1.957247
  C 4.424813 -1.308697 -3.209160
  C 2.936195 -1.439102 -3.540382
  H 2.878252 -1.842323 -4.547128
  O 6.455347 -0.945569 -2.301572
  H 3.699357 1.447165 1.332016
  H 3.705090 -0.151551 1.976089
  H 2.976315 -0.707026 -1.703951
  H 5.497903 -0.011616 0.023133
  H 4.885019 -2.294942 -3.344494
  H 4.887441 -0.690830 -3.988124
  H 2.416645 -0.483564 -3.557880
  H 2.413730 -2.141205 -2.894059
  H 7.049901 -0.656565 -1.588583
 20
 92.076526
  H 1.589173 -0.046100 -0.062087
  C 2.626566 0.044551 0.161047
  C 3.038034 0.565051 1.459279
  H 2.190979 0.815627 2.089046
  C 3.593330 -0.379405 -0.897708
  C 4.906085 -0.292865 -0.690968
  C 4.976809 -0.784300 -1.906608
  C 4.388633 -1.298707 -3.184600
  C 2.911282 -1.431596 -3.519119
  H 2.859162 -1.837124 -4.528209
  O 6.461365 -0.965215 -2.348039
  H 3.670425 1.445849 1.335720
  H 3.673523 -0.155174 1.976589
  H 3.014347 -0.711759 -1.723852
  H 5.575425 0.017766 0.078143
  H 4.863181 -2.282157 -3.308775
  H 4.865089 -0.677163 -3.955543
  H 2.390463 -0.477242 -3.541007
  H 2.388745 -2.134678 -2.875128
  H 7.069335 -0.687866 -1.652615
 20
 130.626681
  H 1.570123 -0.043525 -0.048049
  C 2.618628 0.041050 0.161619
  C 3.038927 0.557036 1.446284
  H 2.188491 0.809107 2.079909
  C 3.557767 -0.377732 -0.892977
  C 4.912130 -0.276504 -0.668402
  C 4.814625 -0.767923 -1.871784
  C 4.375533 -1.292897 -3.165880
  C 2.898631 -1.435794 -3.534564
  H 2.856272 -1.847131 -4.547338
  O 6.603452 -0.989286 -2.400322
  H 3.671481 1.437286 1.324871
  H 3.676465 -0.160193 1.964302
  H 2.921653 -0.700187 -1.703270
  H 5.600125 0.028707 0.085945
  H 4.873176 -2.265467 -3.264063
  H 4.880316 -0.670180 -3.914479
  H 2.378649 -0.476874 -3.569765
  H 2.370595 -2.143365 -2.892998
  H 7.186409 -0.702010 -1.690969
 20
 134.617550
  H 1.474931 0.156003 0.056175
  C 2.544873 0.140015 0.191468
  C 3.090309 0.575789 1.488796
  H 2.294818 0.874386 2.161169
  C 3.311398 -0.301130 -0.856509
  C 4.802545 -0.403768 -0.628393
  C 4.517209 -0.705645 -1.834766
  C 4.349700 -1.273213 -3.135180
  C 2.934396 -1.530898 -3.623058
  H 2.990944 -1.964002 -4.619323
  O 6.899966 -0.923399 -2.531452
  H 3.787388 1.406243 1.363489
  H 3.659351 -0.224344 1.964478
  H 2.612659 -0.563826 -1.664843
  H 5.520970 -0.223942 0.135644
  H 4.938553 -2.199042 -3.139544
  H 4.889996 -0.632135 -3.842006
  H 2.364364 -0.607424 -3.717900
  H 2.415223 -2.254020 -2.995649
  H 7.536496 -0.623675 -1.879330
 20
 134.082794
  H 1.411859 0.207950 0.079808
  C 2.481030 0.156484 0.205695
  C 3.040057 0.567714 1.516859
  H 2.252328 0.882801 2.190019
  C 3.234376 -0.282563 -0.851223
  C 4.744646 -0.406327 -0.613496
  C 4.421584 -0.675260 -1.809503
  C 4.313047 -1.259082 -3.104946
  C 2.910355 -1.544679 -3.612034
  H 2.980333 -1.986254 -4.602545
  O 7.307431 -0.966906 -2.699712
  H 3.751966 1.383516 1.398203
  H 3.587650 -0.250117 1.984901
  H 2.533303 -0.537126 -1.671021
  H 5.415176 -0.227472 0.189473
  H 4.934380 -2.165241 -3.084552
  H 4.859069 -0.609709 -3.805436
  H 2.329226 -0.630675 -3.723333
  H 2.398967 -2.269819 -2.980827
  H 8.018603 -0.695775 -2.108331
 20
 135.121953
  H 1.341800 0.252662 0.111002
  C 2.414180 0.177760 0.237392
  C 2.971037 0.558246 1.552761
  H 2.183349 0.880231 2.227224
  C 3.160469 -0.255140 -0.825760
  C 4.693047 -0.370251 -0.578658
  C 4.329465 -0.635371 -1.766302
  C 4.292650 -1.236194 -3.072446
  C 2.909933 -1.560782 -3.611643
  H 3.013921 -2.011789 -4.594424
  O 7.666720 -1.059459 -2.917876
  H 3.701656 1.363232 1.451846
  H 3.498624 -0.279646 2.010317
  H 2.447616 -0.510757 -1.638237
  H 5.344262 -0.178807 0.232869
  H 4.930656 -2.129325 -3.017677
  H 4.837097 -0.573616 -3.758963
  H 2.308580 -0.663305 -3.748050
  H 2.402736 -2.286756 -2.985229
  H 8.433236 -0.821862 -2.383126
 20
 137.307147
  H 1.281923 0.254674 0.113940
  C 2.355930 0.194392 0.242454
  C 2.900474 0.547862 1.567886
  H 2.108144 0.858494 2.241874
  C 3.114528 -0.238860 -0.816911
  C 4.665671 -0.337095 -0.546889
  C 4.268348 -0.610072 -1.724161
  C 4.268855 -1.214720 -3.035597
  C 2.895823 -1.561903 -3.580308
  H 3.010328 -2.010443 -4.561782
  O 8.000451 -1.149599 -3.112238
  H 3.631797 1.353249 1.489547
  H 3.422614 -0.296954 2.011033
  H 2.397300 -0.492144 -1.628529
  H 5.312258 -0.141617 0.270505
  H 4.911078 -2.098829 -2.966472
  H 4.800131 -0.541175 -3.715062
  H 2.282834 -0.672211 -3.721458
  H 2.395447 -2.294178 -2.957185
  H 8.779946 -0.924499 -2.592962
 20
 111.111000
  H 1.244888 0.264995 0.143468
  C 2.317456 0.208624 0.285105
  C 2.844295 0.562236 1.617636
  H 2.042549 0.868859 2.282260
  C 3.161950 -0.259716 -0.862304
  C 4.667837 -0.347077 -0.567338
  C 4.262278 -0.610282 -1.720662
  C 4.253971 -1.215587 -3.031770
  C 2.877155 -1.560887 -3.568060
  H 2.985068 -2.010097 -4.549974
  O 8.104583 -1.173481 -3.169518
  H 3.573435 1.370521 1.549441
  H 3.364179 -0.281227 2.065983
  H 2.455915 -0.514491 -1.683218
  H 5.310781 -0.154096 0.253516
  H 4.895212 -2.100668 -2.966046
  H 4.782216 -0.543216 -3.714753
  H 2.264724 -0.670305 -3.705985
  H 2.379379 -2.292064 -2.941574
  H 8.886771 -0.950413 -2.653423
 20
 127.982829
  H 1.169246 0.295917 0.352005
  C 2.247387 0.227498 0.414324
  C 2.865119 0.605877 1.705726
  H 2.103709 0.927439 2.408914
  C 2.900288 -0.220089 -0.677299
  C 4.436832 -0.338445 -0.564417
  C 4.212956 -0.661508 -1.765426
  C 4.283451 -1.221042 -3.065295
  C 2.955267 -1.606163 -3.704339
  H 3.136006 -2.040922 -4.679845
  O 8.314815 -1.274439 -3.334615
  H 3.578385 1.422286 1.578603
  H 3.405566 -0.234275 2.145800
  H 2.241814 -0.493267 -1.500390
  H 5.015940 -0.086638 0.287216
  H 4.958720 -2.084790 -2.977251
  H 4.824219 -0.501317 -3.697023
  H 2.325697 -0.735261 -3.846946
  H 2.440243 -2.345030 -3.105098
  H 9.093376 -1.070033 -2.804696
