 28
 0.000000
  C 0.905902 0.048645 0.273637
  C 2.396777 0.059192 0.086655
  C 3.243057 -0.012105 1.350280
  C 2.526318 -0.087994 2.695106
  H 3.248294 -0.133562 3.502711
  C 2.990423 0.127453 -1.123052
  C 2.348416 0.204852 -2.494735
  C 0.837481 0.217328 -2.715757
  C 0.523890 0.301496 -4.207428
  C 4.451888 0.132571 -1.213695
  C 5.189010 0.194923 -2.318817
  H 6.266399 0.194341 -2.308441
  H 0.612424 -0.010176 1.316009
  H 0.461191 -0.815293 -0.213383
  H 0.461192 0.961886 -0.113101
  H 3.889216 0.870846 1.379131
  H 3.889216 -0.892694 1.279622
  H 1.898518 -0.976311 2.748612
  H 1.898510 0.788660 2.848207
  H 2.739170 -0.643478 -3.067540
  H 2.739169 1.112239 -2.968470
  H 0.383188 1.077915 -2.226518
  H 0.383189 -0.692834 -2.326437
  H 0.937127 1.209960 -4.641176
  H -0.552793 0.310321 -4.363808
  H 0.937128 -0.552411 -4.740622
  H 4.995446 0.080059 -0.283051
  H 4.804520 0.251651 -3.324107
 28
 7.179140
  C 0.783902 0.047619 0.291818
  C 2.432179 0.059593 0.079547
  C 3.270360 -0.011566 1.340734
  C 2.543318 -0.087118 2.679576
  H 3.262870 -0.132949 3.491863
  C 3.016320 0.127690 -1.127249
  C 2.367674 0.204854 -2.494767
  C 0.856331 0.216722 -2.705015
  C 0.534744 0.300807 -4.195207
  C 4.477912 0.133212 -1.225055
  C 5.208739 0.195677 -2.332176
  H 6.286818 0.195069 -2.321335
  H 0.502935 -0.011311 1.336120
  H 0.342724 -0.814647 -0.194922
  H 0.342725 0.959169 -0.094829
  H 3.916358 0.871227 1.372853
  H 3.916358 -0.892366 1.273340
  H 1.915830 -0.975066 2.730262
  H 1.915823 0.789487 2.829834
  H 2.756022 -0.643341 -3.069411
  H 2.756021 1.112312 -2.970343
  H 0.405324 1.076862 -2.212326
  H 0.405324 -0.693385 -2.312215
  H 0.945928 1.209320 -4.630859
  H -0.542646 0.309344 -4.346493
  H 0.945928 -0.552935 -4.730298
  H 5.025619 0.080848 -0.297032
  H 4.817992 0.252263 -3.334955
 28
 22.191105
  C 0.685360 0.046503 0.311591
  C 2.490253 0.060232 0.068252
  C 3.290659 -0.011127 1.332962
  C 2.518383 -0.085201 2.645621
  H 3.215953 -0.132277 3.479965
  C 3.053365 0.128245 -1.137052
  C 2.390712 0.204918 -2.495879
  C 0.879100 0.215174 -2.677588
  C 0.533758 0.298988 -4.162975
  C 4.517365 0.134550 -1.248748
  C 5.237676 0.197424 -2.363117
  H 6.316182 0.196673 -2.349826
  H 0.440331 -0.012751 1.361622
  H 0.260602 -0.814547 -0.177316
  H 0.260602 0.957088 -0.077345
  H 3.936105 0.871588 1.382101
  H 3.936110 -0.893766 1.282488
  H 1.889802 -0.971642 2.677817
  H 1.889796 0.791983 2.777336
  H 2.772897 -0.643146 -3.075113
  H 2.772898 1.112763 -2.976033
  H 0.437866 1.074020 -2.175124
  H 0.437866 -0.694746 -2.274929
  H 0.938322 1.207697 -4.604505
  H -0.545606 0.306642 -4.298612
  H 0.938323 -0.554289 -4.703932
  H 5.073038 0.082423 -0.324931
  H 4.834338 0.253702 -3.360487
 28
 38.597155
  C 0.567705 0.044622 0.344904
  C 2.528353 0.060426 0.064809
  C 3.314535 -0.011581 1.341002
  C 2.525374 -0.085160 2.644875
  H 3.214741 -0.132598 3.485631
  C 3.077405 0.129247 -1.154820
  C 2.409220 0.205838 -2.512185
  C 0.895823 0.215249 -2.678921
  C 0.536515 0.298873 -4.160957
  C 4.542214 0.135710 -1.269332
  C 5.259595 0.198594 -2.383856
  H 6.337340 0.197429 -2.363210
  H 0.357488 -0.014965 1.400860
  H 0.157460 -0.822233 -0.148962
  H 0.157459 0.961534 -0.048306
  H 3.960343 0.871847 1.397478
  H 3.960343 -0.895748 1.297737
  H 1.897162 -0.971849 2.670553
  H 1.897157 0.793005 2.770141
  H 2.789052 -0.642200 -3.093202
  H 2.789052 1.113854 -2.994112
  H 0.460742 1.073456 -2.170359
  H 0.460742 -0.694722 -2.270132
  H 0.937280 1.207624 -4.605784
  H -0.543904 0.306022 -4.287650
  H 0.937278 -0.554066 -4.705187
  H 5.097640 0.083514 -0.344275
  H 4.852095 0.254730 -3.378713
 28
 55.039782
  C 0.461515 0.045239 0.333988
  C 2.580646 0.062017 0.036620
  C 3.334874 -0.010238 1.317196
  C 2.515756 -0.082647 2.600352
  H 3.186428 -0.130963 3.456644
  C 3.109711 0.129559 -1.160351
  C 2.432967 0.205493 -2.506064
  C 0.917460 0.212922 -2.637680
  C 0.522508 0.296015 -4.110301
  C 4.575293 0.135964 -1.273820
  C 5.295681 0.198997 -2.390984
  H 6.373592 0.197388 -2.362456
  H 0.273573 -0.014501 1.392640
  H 0.073201 -0.823223 -0.167365
  H 0.073202 0.964588 -0.066480
  H 3.979660 0.872724 1.386236
  H 3.979668 -0.895363 1.286467
  H 1.886841 -0.968775 2.610757
  H 1.886830 0.796684 2.710379
  H 2.805156 -0.642410 -3.091718
  H 2.805156 1.113894 -2.992613
  H 0.495328 1.070307 -2.116197
  H 0.495329 -0.697681 -2.215963
  H 0.911843 1.205267 -4.564355
  H -0.560484 0.301741 -4.211756
  H 0.911843 -0.556390 -4.663761
  H 5.126960 0.083641 -0.346525
  H 4.886944 0.255103 -3.385320
 28
 68.353606
  C 0.328883 0.042478 0.382892
  C 2.601366 0.062205 0.033284
  C 3.332306 -0.010889 1.328734
  C 2.523312 -0.083639 2.617944
  H 3.205306 -0.131443 3.465178
  C 3.110131 0.131069 -1.187120
  C 2.448008 0.207392 -2.539749
  C 0.930025 0.214020 -2.657188
  C 0.514407 0.296711 -4.122601
  C 4.588565 0.136605 -1.285199
  C 5.324239 0.199932 -2.407549
  H 6.401653 0.196978 -2.355177
  H 0.235795 -0.017650 1.448443
  H 0.016684 -0.838181 -0.141715
  H 0.016684 0.976563 -0.039311
  H 3.978062 0.872288 1.399482
  H 3.978070 -0.896418 1.299683
  H 1.899305 -0.973252 2.633858
  H 1.899292 0.798533 2.733836
  H 2.822804 -0.640547 -3.122803
  H 2.822805 1.115536 -3.023712
  H 0.520967 1.070323 -2.124041
  H 0.520967 -0.696819 -2.223757
  H 0.898277 1.206080 -4.581186
  H -0.569620 0.301712 -4.211164
  H 0.898276 -0.555299 -4.680581
  H 5.118357 0.083625 -0.346227
  H 4.912859 0.255950 -3.400353
 28
 81.378574
  C 0.232864 0.042362 0.384951
  C 2.663992 0.063026 0.018721
  C 3.356757 -0.010419 1.320395
  C 2.487251 -0.081079 2.572568
  H 3.127975 -0.130662 3.451327
  C 3.172104 0.131988 -1.203413
  C 2.486627 0.207487 -2.541444
  C 0.967497 0.211443 -2.611533
  C 0.504833 0.293361 -4.063277
  C 4.641988 0.138700 -1.322342
  C 5.336364 0.200744 -2.421954
  H 6.411892 0.198740 -2.386344
  H 0.147185 -0.017949 1.453739
  H -0.070567 -0.840796 -0.143299
  H -0.070567 0.979342 -0.040593
  H 4.001893 0.873745 1.413817
  H 4.001894 -0.899470 1.313762
  H 1.859828 -0.968211 2.558300
  H 1.859821 0.802019 2.658188
  H 2.848275 -0.641038 -3.133268
  H 2.848276 1.117197 -3.034054
  H 0.574159 1.066788 -2.064393
  H 0.574160 -0.700016 -2.164091
  H 0.872171 1.203387 -4.533953
  H -0.581496 0.296396 -4.117002
  H 0.872165 -0.557932 -4.633337
  H 5.187771 0.086283 -0.393327
  H 4.908291 0.256250 -3.405670
 28
 91.116501
  C 0.111230 0.038423 0.454773
  C 2.689439 0.064036 0.000803
  C 3.367517 -0.010177 1.316002
  C 2.476419 -0.079902 2.551665
  H 3.098009 -0.130283 3.444545
  C 3.191206 0.132963 -1.220705
  C 2.504227 0.208963 -2.567544
  C 0.987128 0.211708 -2.616184
  C 0.496575 0.293075 -4.058203
  C 4.661913 0.138916 -1.326184
  C 5.375236 0.201600 -2.437096
  H 6.452569 0.199065 -2.392075
  H 0.093546 -0.021379 1.514535
  H -0.151529 -0.844599 -0.077388
  H -0.151525 0.975714 0.025331
  H 4.012233 0.874023 1.419409
  H 4.012232 -0.900386 1.319284
  H 1.849702 -0.965112 2.521158
  H 1.849687 0.803131 2.620933
  H 2.862684 -0.640179 -3.160435
  H 2.862684 1.119403 -3.061142
  H 0.607119 1.063519 -2.060015
  H 0.607129 -0.697240 -2.159387
  H 0.854186 1.203304 -4.535640
  H -0.590592 0.294951 -4.091400
  H 0.854196 -0.557687 -4.635028
  H 5.193553 0.085755 -0.384031
  H 4.950540 0.257285 -3.423905
 28
 99.435846
  C -0.019881 0.039632 0.433393
  C 2.721133 0.064853 -0.013630
  C 3.381254 -0.009813 1.309634
  C 2.479014 -0.078975 2.535321
  H 3.091582 -0.129687 3.434082
  C 3.226225 0.133497 -1.230141
  C 2.528820 0.208625 -2.561539
  C 1.005561 0.209413 -2.575520
  C 0.480672 0.290058 -4.004734
  C 4.709802 0.139847 -1.342661
  C 5.423534 0.203016 -2.462177
  H 6.500561 0.200661 -2.420386
  H -0.041656 -0.020774 1.503851
  H -0.262578 -0.850054 -0.110539
  H -0.262573 0.984860 -0.006994
  H 4.022575 0.871600 1.420258
  H 4.022587 -0.898084 1.320401
  H 1.851276 -0.965607 2.497734
  H 1.851277 0.806249 2.597712
  H 2.878121 -0.639159 -3.158477
  H 2.878130 1.118186 -3.059325
  H 0.636422 1.063844 -2.007248
  H 0.636415 -0.703537 -2.106965
  H 0.825675 1.200955 -4.490532
  H -0.606766 0.290465 -4.011924
  H 0.825673 -0.560407 -4.589920
  H 5.240904 0.087055 -0.407028
  H 4.994948 0.258541 -3.446189
 28
 105.507505
  C -0.137919 0.037477 0.471555
  C 2.756891 0.065313 -0.021809
  C 3.399036 -0.009443 1.303029
  C 2.467807 -0.077564 2.510265
  H 3.058391 -0.129083 3.423303
  C 3.259104 0.133930 -1.237823
  C 2.550327 0.209053 -2.569137
  C 1.031872 0.208501 -2.559366
  C 0.482539 0.288604 -3.978951
  C 4.734644 0.140593 -1.355894
  C 5.438696 0.203935 -2.478460
  H 6.516544 0.202034 -2.444706
  H -0.141676 -0.022430 1.533180
  H -0.370100 -0.847664 -0.070407
  H -0.370096 0.977972 0.032613
  H 4.040283 0.873912 1.424426
  H 4.040288 -0.900845 1.324279
  H 1.839828 -0.962011 2.457188
  H 1.839816 0.807247 2.557021
  H 2.893178 -0.639612 -3.171001
  H 2.893180 1.120034 -3.071709
  H 0.673606 1.059262 -1.985778
  H 0.673610 -0.701381 -2.085130
  H 0.818251 1.199741 -4.470521
  H -0.604998 0.287954 -3.967404
  H 0.818256 -0.561460 -4.569911
  H 5.271201 0.087640 -0.417424
  H 5.001238 0.259336 -3.460281
 28
 109.945455
  C -0.261561 0.037248 0.475646
  C 2.791597 0.066168 -0.036957
  C 3.413467 -0.009279 1.300140
  C 2.457619 -0.076228 2.486616
  H 3.027475 -0.128492 3.412874
  C 3.294812 0.134603 -1.249743
  C 2.572658 0.209174 -2.571272
  C 1.050559 0.206663 -2.526800
  C 0.466062 0.285997 -3.932782
  C 4.775463 0.141538 -1.372638
  C 5.477181 0.205098 -2.499085
  H 6.554995 0.203396 -2.468856
  H -0.257351 -0.022981 1.542978
  H -0.478265 -0.852628 -0.073539
  H -0.478259 0.983257 0.030062
  H 4.051590 0.872172 1.433860
  H 4.051602 -0.900186 1.333852
  H 1.829319 -0.959979 2.418391
  H 1.829310 0.809587 2.518243
  H 2.905898 -0.638392 -3.177660
  H 2.905908 1.119585 -3.078473
  H 0.704449 1.058944 -1.941902
  H 0.704452 -0.706006 -2.041494
  H 0.788364 1.197654 -4.432434
  H -0.620762 0.283840 -3.894532
  H 0.788369 -0.563672 -4.531830
  H 5.311079 0.088778 -0.437581
  H 5.036237 0.260316 -3.477655
 28
 112.980873
  C -0.383405 0.036020 0.497413
  C 2.825801 0.066791 -0.047987
  C 3.424849 -0.008899 1.293401
  C 2.438986 -0.074600 2.457737
  H 2.984285 -0.127668 3.398238
  C 3.329046 0.135174 -1.259852
  C 2.593240 0.209367 -2.574690
  C 1.075173 0.205030 -2.497851
  C 0.458578 0.283520 -3.888867
  C 4.805766 0.142419 -1.388254
  C 5.499597 0.206160 -2.517897
  H 6.577761 0.204867 -2.494901
  H -0.367623 -0.023899 1.559248
  H -0.586730 -0.850983 -0.052697
  H -0.586725 0.979283 0.050585
  H 4.061327 0.872989 1.439706
  H 4.061334 -0.901650 1.339569
  H 1.810740 -0.956897 2.372648
  H 1.810729 0.811669 2.472445
  H 2.917313 -0.638596 -3.186491
  H 2.917316 1.120767 -3.087216
  H 0.742660 1.054620 -1.905145
  H 0.742664 -0.705841 -2.004486
  H 0.768076 1.195542 -4.395702
  H -0.627040 0.279937 -3.825342
  H 0.768082 -0.565707 -4.495101
  H 5.344942 0.089592 -0.452005
  H 5.050648 0.261267 -3.494479
 28
 114.989965
  C -0.509341 0.035335 0.509585
  C 2.857375 0.067468 -0.059997
  C 3.435210 -0.008805 1.291731
  C 2.423299 -0.073250 2.433809
  H 2.945886 -0.127042 3.387134
  C 3.361150 0.135721 -1.269558
  C 2.610785 0.209466 -2.576469
  C 1.091752 0.203282 -2.466904
  C 0.442314 0.280975 -3.843787
  C 4.838929 0.143250 -1.403002
  C 5.528159 0.207212 -2.536550
  H 6.606341 0.206234 -2.519136
  H -0.485378 -0.024794 1.575133
  H -0.699238 -0.855087 -0.046094
  H -0.699231 0.982617 0.057609
  H 4.068869 0.872120 1.450703
  H 4.068876 -0.902025 1.350595
  H 1.795556 -0.954285 2.333058
  H 1.795542 0.813527 2.432814
  H 2.925368 -0.638007 -3.192870
  H 2.925379 1.120913 -3.093631
  H 0.771466 1.053463 -1.864533
  H 0.771470 -0.709265 -1.963999
  H 0.738746 1.193474 -4.357721
  H -0.641570 0.275965 -3.754975
  H 0.738751 -0.567926 -4.457124
  H 5.378725 0.090552 -0.469033
  H 5.074003 0.262106 -3.509370
 28
 116.206273
  C -0.637858 0.034420 0.525777
  C 2.886176 0.067983 -0.069116
  C 3.440650 -0.008599 1.288081
  C 2.400827 -0.071718 2.406675
  H 2.899069 -0.126221 3.372590
  C 3.390501 0.136196 -1.277962
  C 2.625405 0.209426 -2.575746
  C 1.110405 0.201398 -2.433486
  C 0.429511 0.278157 -3.793819
  C 4.865804 0.144095 -1.417952
  C 5.547048 0.208267 -2.555233
  H 6.625368 0.207735 -2.545706
  H -0.606517 -0.025493 1.587499
  H -0.814738 -0.853892 -0.031541
  H -0.814733 0.979795 0.071934
  H 4.071786 0.872064 1.459789
  H 4.071798 -0.902995 1.359629
  H 1.773817 -0.951503 2.289750
  H 1.773802 0.815638 2.389468
  H 2.930069 -0.638070 -3.197106
  H 2.930069 1.121433 -3.097819
  H 0.803512 1.049728 -1.823482
  H 0.803517 -0.710162 -1.922794
  H 0.712764 1.190954 -4.314324
  H -0.651863 0.271719 -3.679708
  H 0.712769 -0.570303 -4.413722
  H 5.409322 0.091423 -0.484456
  H 5.084691 0.263011 -3.525382
