 9
 0.000000
  C 1.012345 0.154317 0.394626
  C 2.453648 0.149306 0.371299
  H 3.017512 0.483818 1.232061
  C 3.104386 -0.294983 -0.758011
  H 4.171010 -0.372322 -0.883007
  H 0.585651 0.514762 1.325732
  H 0.625584 -0.853019 0.156955
  H 0.609897 0.720000 -0.460879
  H 2.500616 -0.613821 -1.598223
 9
 -1.099725
  C 0.993558 0.108767 0.414766
  C 2.431825 0.177464 0.302005
  H 2.991284 0.643947 1.102285
  C 3.104013 -0.339720 -0.766115
  H 4.171431 -0.517882 -0.758039
  H 0.611290 0.397661 1.388965
  H 0.585916 -0.847560 0.067483
  H 0.576171 0.796181 -0.345314
  H 2.582341 -0.589830 -1.680560
 9
 -1.559865
  C 0.986991 0.105786 0.404498
  C 2.422953 0.243195 0.243614
  H 2.960516 0.815774 0.997329
  C 3.112682 -0.371606 -0.745591
  H 4.154454 -0.647480 -0.646986
  H 0.656141 0.243060 1.431544
  H 0.613160 -0.818845 -0.032735
  H 0.525313 0.925570 -0.172402
  H 2.653749 -0.609011 -1.698529
 9
 1.828799
  C 0.994915 0.127774 0.366165
  C 2.425291 0.361614 0.186105
  H 2.958415 0.933191 0.941369
  C 3.077803 -0.393130 -0.724706
  H 4.038503 -0.860044 -0.535509
  H 0.731714 0.108165 1.422265
  H 0.721763 -0.802240 -0.129116
  H 0.423314 0.948462 -0.087007
  H 2.692813 -0.541112 -1.728062
 9
 12.193693
  C 1.042921 0.147721 0.342544
  C 2.471209 0.511658 0.190255
  H 3.021057 0.932415 1.021416
  C 2.983285 -0.380346 -0.691953
  H 3.838435 -1.014755 -0.464691
  H 0.793295 0.073093 1.398454
  H 0.905923 -0.834196 -0.128850
  H 0.375318 0.850476 -0.163988
  H 2.667868 -0.410304 -1.728241
 9
 28.105342
  C 1.129585 0.137909 0.288499
  C 2.542843 0.661188 0.234369
  H 3.103690 1.010248 1.080251
  C 2.828418 -0.365655 -0.630778
  H 3.540664 -1.153437 -0.376890
  H 0.857285 -0.081928 1.318030
  H 1.105570 -0.845638 -0.241715
  H 0.413344 0.787161 -0.221297
  H 2.598854 -0.293228 -1.687396
 9
 28.786217
  C 1.228575 0.138212 0.266260
  C 2.577768 0.765987 0.278080
  H 3.152629 1.065630 1.126066
  C 2.662882 -0.365018 -0.587019
  H 3.251854 -1.235603 -0.306545
  H 0.912664 -0.220505 1.245247
  H 1.323126 -0.842435 -0.362977
  H 0.476826 0.732727 -0.254510
  H 2.562454 -0.211077 -1.658645
 9
 27.150080
  C 1.226006 0.159820 0.310444
  C 2.566488 0.730132 0.324791
  H 3.200848 1.183133 1.045857
  C 2.607445 -0.403318 -0.580039
  H 3.159148 -1.292763 -0.274209
  H 0.890671 -0.364907 1.206166
  H 1.401552 -0.792907 -0.482178
  H 0.451729 0.746914 -0.182508
  H 2.680071 -0.178416 -1.643990
