 13
 0.000000
  C 1.048669 -0.112124 -0.038439
  C 2.545272 -0.137285 -0.039839
  C 3.258558 -1.264810 -0.046582
  C 4.700155 -1.292684 -0.046166
  C 5.412444 -2.418610 -0.052917
  H 6.486172 -2.432219 -0.052504
  H 0.687190 0.914525 -0.032549
  H 0.653010 -0.611480 0.845839
  H 0.651179 -0.603488 -0.925529
  H 3.046454 0.821030 -0.032938
  H 2.747078 -2.218887 -0.052839
  H 5.205554 -0.335229 -0.039934
  H 4.912536 -3.375585 -0.059142
 13
 3.640429
  C 1.048891 -0.089070 -0.070978
  C 2.519426 -0.137194 -0.047806
  C 3.236019 -1.263329 -0.055855
  C 4.679819 -1.297881 -0.034016
  C 5.393471 -2.418376 -0.043476
  H 6.469398 -2.413264 -0.030381
  H 0.653249 0.919138 -0.025762
  H 0.871637 -0.622139 0.839293
  H 0.612700 -0.612060 -0.918766
  H 3.042128 0.812003 -0.032336
  H 2.731381 -2.221918 -0.075122
  H 5.178719 -0.336968 -0.011469
  H 4.917899 -3.385385 -0.066806
 13
 11.484994
  C 1.033411 -0.077913 -0.093098
  C 2.509533 -0.132146 -0.064642
  C 3.221120 -1.259357 -0.077177
  C 4.666830 -1.298952 -0.018181
  C 5.378053 -2.416710 -0.034953
  H 6.456446 -2.410818 0.008220
  H 0.618020 0.913096 -0.022939
  H 1.071483 -0.602798 0.841692
  H 0.569573 -0.655884 -0.887088
  H 3.053037 0.810753 -0.043993
  H 2.716844 -2.216850 -0.122823
  H 5.166471 -0.340730 0.039776
  H 4.907494 -3.380683 -0.093986
 13
 21.757295
  C 1.016173 -0.069242 -0.110637
  C 2.503033 -0.135711 -0.062452
  C 3.218161 -1.265469 -0.081897
  C 4.653664 -1.299955 -0.004260
  C 5.374569 -2.418627 -0.031037
  H 6.450983 -2.407134 0.022170
  H 0.593325 0.916041 -0.036331
  H 1.218879 -0.565271 0.824094
  H 0.536842 -0.684138 -0.860768
  H 3.052976 0.804950 -0.031991
  H 2.718876 -2.222080 -0.146628
  H 5.147073 -0.342136 0.074720
  H 4.909276 -3.386284 -0.113821
 13
 31.861877
  C 1.001614 -0.058702 -0.125863
  C 2.490825 -0.151509 -0.057750
  C 3.210988 -1.279603 -0.089391
  C 4.652402 -1.306716 0.007120
  C 5.383043 -2.418465 -0.031662
  H 6.454790 -2.399504 0.038502
  H 0.585314 0.934753 -0.066733
  H 1.329061 -0.502618 0.813443
  H 0.502400 -0.712122 -0.818348
  H 3.038747 0.785121 -0.012154
  H 2.712990 -2.239913 -0.177670
  H 5.140621 -0.342647 0.112821
  H 4.925852 -3.388916 -0.139713
 13
 40.189957
  C 0.995919 -0.047632 -0.139813
  C 2.482712 -0.164966 -0.049454
  C 3.212400 -1.294727 -0.094098
  C 4.640126 -1.313557 0.016548
  C 5.383144 -2.419295 -0.034547
  H 6.470341 -2.391077 0.049685
  H 0.596009 0.947256 -0.109036
  H 1.420728 -0.439129 0.813798
  H 0.473215 -0.741300 -0.778189
  H 3.016700 0.767198 0.015807
  H 2.723672 -2.248259 -0.204527
  H 5.117188 -0.351556 0.144764
  H 4.938969 -3.385045 -0.164667
 13
 46.370305
  C 0.991768 -0.039869 -0.155508
  C 2.476935 -0.176057 -0.040262
  C 3.212852 -1.306847 -0.095064
  C 4.638373 -1.319713 0.030017
  C 5.391344 -2.420271 -0.032837
  H 6.466866 -2.383235 0.049307
  H 0.598856 0.957338 -0.151302
  H 1.491614 -0.385608 0.812994
  H 0.451425 -0.766304 -0.740268
  H 3.006875 0.760812 0.044669
  H 2.725344 -2.261542 -0.224492
  H 5.111744 -0.352007 0.173380
  H 4.958194 -3.384846 -0.188789
 13
 49.943039
  C 0.986533 -0.039752 -0.168650
  C 2.475978 -0.176523 -0.029441
  C 3.214650 -1.308665 -0.112140
  C 4.641699 -1.324864 0.042067
  C 5.399386 -2.419561 -0.039082
  H 6.466712 -2.381715 0.069617
  H 0.588603 0.955336 -0.231717
  H 1.552713 -0.296090 0.820897
  H 0.435467 -0.826901 -0.642693
  H 3.012186 0.763318 0.077545
  H 2.724922 -2.260076 -0.283766
  H 5.110794 -0.363703 0.225673
  H 4.968905 -3.389392 -0.231295
 13
 53.837831
  C 0.992835 -0.034220 -0.176621
  C 2.471907 -0.174408 -0.017853
  C 3.216783 -1.308286 -0.117013
  C 4.643489 -1.323647 0.041485
  C 5.403707 -2.415385 -0.044403
  H 6.467206 -2.375763 0.082794
  H 0.595098 0.948595 -0.252284
  H 1.604234 -0.264207 0.819520
  H 0.431443 -0.851395 -0.617121
  H 3.000710 0.756466 0.097184
  H 2.728148 -2.253759 -0.300692
  H 5.112895 -0.359376 0.243373
  H 4.970308 -3.400944 -0.241080
 13
 56.976642
  C 0.989240 -0.038516 -0.193204
  C 2.473916 -0.178060 -0.007284
  C 3.221443 -1.314559 -0.113284
  C 4.638183 -1.329434 0.052202
  C 5.404176 -2.420356 -0.040122
  H 6.481562 -2.377408 0.077750
  H 0.575151 0.956554 -0.276517
  H 1.642311 -0.253204 0.821227
  H 0.443226 -0.851602 -0.591156
  H 3.013895 0.770764 0.111801
  H 2.731568 -2.261312 -0.304638
  H 5.102531 -0.372075 0.254977
  H 4.985579 -3.377472 -0.249704
 13
 59.848126
  C 0.993921 -0.034352 -0.208667
  C 2.472193 -0.169635 0.004662
  C 3.224183 -1.310700 -0.105355
  C 4.646867 -1.331169 0.069294
  C 5.411087 -2.420431 -0.032241
  H 6.475416 -2.374665 0.066108
  H 0.575377 0.943921 -0.289568
  H 1.676385 -0.236276 0.822241
  H 0.442159 -0.874152 -0.581593
  H 3.009207 0.767081 0.115822
  H 2.743448 -2.230007 -0.298301
  H 5.120059 -0.364854 0.273268
  H 4.985734 -3.391748 -0.269982
 13
 61.983346
  C 0.998211 -0.030152 -0.232451
  C 2.480362 -0.163105 0.020624
  C 3.234583 -1.307318 -0.107172
  C 4.648130 -1.326815 0.065559
  C 5.415367 -2.417010 -0.038823
  H 6.484036 -2.373201 0.076286
  H 0.563923 0.944870 -0.296234
  H 1.709538 -0.228182 0.836793
  H 0.444869 -0.883726 -0.566884
  H 3.023402 0.773347 0.122663
  H 2.740711 -2.246503 -0.311023
  H 5.116173 -0.370739 0.279674
  H 4.992878 -3.381729 -0.268203
 13
 64.275829
  C 1.005407 -0.029369 -0.248768
  C 2.481555 -0.155637 0.032687
  C 3.240986 -1.301978 -0.117555
  C 4.652961 -1.321563 0.046285
  C 5.419725 -2.415033 -0.046521
  H 6.485681 -2.374631 0.089715
  H 0.557556 0.940027 -0.284389
  H 1.744211 -0.238616 0.847809
  H 0.458178 -0.890775 -0.568767
  H 3.025085 0.780275 0.138539
  H 2.744152 -2.239147 -0.315356
  H 5.120214 -0.370140 0.278237
  H 4.993078 -3.385064 -0.242460
 13
 65.968228
  C 1.010708 -0.027836 -0.272634
  C 2.488043 -0.149647 0.049334
  C 3.248949 -1.302506 -0.102041
  C 4.656375 -1.323860 0.070054
  C 5.423505 -2.418121 -0.031664
  H 6.492405 -2.373551 0.071668
  H 0.550888 0.934647 -0.290940
  H 1.776692 -0.236084 0.870554
  H 0.459288 -0.899183 -0.569283
  H 3.029505 0.788040 0.143003
  H 2.748793 -2.242574 -0.301023
  H 5.126505 -0.369965 0.292674
  H 4.997581 -3.384657 -0.254759
