 20
 0.000000
  H 1.509339 0.170412 0.475144
  C 2.590263 0.157522 0.443118
  C 3.314917 0.631579 1.622317
  C 2.429524 1.094634 2.773947
  C 3.264550 1.570235 3.958572
  C 3.175056 -0.308762 -0.716622
  C 4.553200 -0.399904 -0.944003
  C 5.084645 -0.874587 -2.126350
  H 4.475857 -1.209899 -2.959677
  O 6.349013 -0.975431 -2.379155
  H 3.982891 1.452786 1.331232
  H 3.982540 -0.162908 1.980641
  H 1.785146 0.274489 3.096058
  H 1.785741 1.910049 2.438888
  H 3.897538 0.770624 4.336197
  H 2.618516 1.896292 4.769613
  H 3.898221 2.408430 3.678232
  H 2.517160 -0.628879 -1.513130
  H 5.233409 -0.086480 -0.163601
  H 6.940345 -0.682409 -1.653464
 20
 13.690469
  H 1.486040 0.192735 0.530351
  C 2.563554 0.182597 0.505250
  C 3.288459 0.652821 1.675149
  C 2.400786 1.115817 2.826547
  C 3.235444 1.591064 4.010708
  C 3.207097 -0.326124 -0.759922
  C 4.563712 -0.406910 -0.961883
  C 5.149039 -0.927033 -2.256464
  H 4.531434 -1.259343 -3.081021
  O 6.403197 -1.023642 -2.499050
  H 3.957995 1.473036 1.383040
  H 3.957528 -0.141808 2.031989
  H 1.756234 0.295727 3.148408
  H 1.757034 1.931197 2.491372
  H 3.868317 0.791085 4.388102
  H 2.589445 1.917198 4.821813
  H 3.869197 2.429238 3.730077
  H 2.551250 -0.645357 -1.553853
  H 5.241418 -0.093970 -0.183630
  H 6.994489 -0.729716 -1.772259
 20
 41.429640
  H 1.423851 0.188318 0.516330
  C 2.502957 0.197084 0.542743
  C 3.257949 0.659745 1.695637
  C 2.383573 1.131834 2.862863
  C 3.238941 1.601574 4.037161
  C 3.221847 -0.350920 -0.816359
  C 4.560161 -0.394289 -0.925563
  C 5.208693 -0.958373 -2.332726
  H 4.531102 -1.277089 -3.118121
  O 6.454718 -1.036752 -2.541195
  H 3.941792 1.474348 1.393549
  H 3.937718 -0.139987 2.043080
  H 1.736385 0.315666 3.192688
  H 1.741457 1.952321 2.534268
  H 3.869630 0.795738 4.405808
  H 2.606795 1.933446 4.857432
  H 3.874965 2.434934 3.746477
  H 2.534010 -0.662169 -1.591739
  H 5.266036 -0.090882 -0.170773
  H 7.053314 -0.737665 -1.811506
 20
 75.266102
  H 1.384746 0.195425 0.533401
  C 2.456178 0.217835 0.593761
  C 3.224934 0.674192 1.731426
  C 2.361406 1.150131 2.907821
  C 3.229009 1.616204 4.074363
  C 3.244242 -0.366521 -0.855144
  C 4.550821 -0.389335 -0.914070
  C 5.273474 -1.000063 -2.435574
  H 4.583274 -1.312254 -3.201645
  O 6.510853 -1.067760 -2.618922
  H 3.906008 1.483689 1.422600
  H 3.901535 -0.127003 2.070437
  H 1.713700 0.335943 3.242857
  H 1.719389 1.973374 2.584304
  H 3.861420 0.807336 4.434611
  H 2.606571 1.950938 4.901310
  H 3.867296 2.445377 3.775912
  H 2.542961 -0.669354 -1.608315
  H 5.270026 -0.093090 -0.179064
  H 7.105181 -0.766733 -1.886832
 20
 108.980140
  H 1.344578 0.218717 0.590634
  C 2.414275 0.244946 0.661343
  C 3.187721 0.696232 1.786790
  C 2.330414 1.172853 2.963768
  C 3.203353 1.636345 4.124510
  C 3.260507 -0.379690 -0.886582
  C 4.562631 -0.395353 -0.927355
  C 5.347519 -1.051802 -2.564267
  H 4.651423 -1.364174 -3.330715
  O 6.584822 -1.114651 -2.737811
  H 3.869048 1.505501 1.473993
  H 3.863901 -0.107905 2.123137
  H 1.683357 0.360731 3.300609
  H 1.689717 1.996218 2.642660
  H 3.834995 0.826336 4.482028
  H 2.585297 1.971986 4.952930
  H 3.841629 2.464044 3.823301
  H 2.550759 -0.679840 -1.633560
  H 5.289651 -0.101962 -0.198719
  H 7.175378 -0.812956 -2.005675
 20
 139.081221
  H 1.300332 0.227894 0.612331
  C 2.358273 0.267169 0.715864
  C 3.149595 0.706438 1.812131
  C 2.309919 1.187452 2.999750
  C 3.204827 1.643661 4.143630
  C 3.250475 -0.383751 -0.897582
  C 4.532047 -0.376290 -0.881165
  C 5.418080 -1.088977 -2.654967
  H 4.728951 -1.404658 -3.424458
  O 6.653802 -1.139852 -2.802150
  H 3.831509 1.509954 1.492515
  H 3.825786 -0.098603 2.139994
  H 1.663436 0.379379 3.344647
  H 1.670371 2.013896 2.687234
  H 3.835565 0.829235 4.491510
  H 2.600287 1.982827 4.980615
  H 3.842774 2.467481 3.832687
  H 2.520511 -0.673036 -1.616729
  H 5.280226 -0.093953 -0.180976
  H 7.237047 -0.833783 -2.062051
 20
 162.916783
  H 1.269768 0.232017 0.624858
  C 2.326923 0.288081 0.752601
  C 3.134300 0.732328 1.861995
  C 2.282333 1.203431 3.052436
  C 3.174136 1.661785 4.203570
  C 3.246427 -0.366624 -0.898447
  C 4.500015 -0.341050 -0.852907
  C 5.496973 -1.152030 -2.787481
  H 4.832579 -1.492585 -3.564960
  O 6.727911 -1.208903 -2.939347
  H 3.806613 1.542125 1.552381
  H 3.811115 -0.065666 2.192134
  H 1.640515 0.387331 3.390943
  H 1.637706 2.027722 2.739736
  H 3.809869 0.849678 4.550215
  H 2.563116 1.993111 5.040904
  H 3.807235 2.492141 3.898301
  H 2.506908 -0.658501 -1.600397
  H 5.268877 -0.058516 -0.180328
  H 7.306526 -0.903027 -2.202427
 20
 142.442400
  H 1.635249 0.180978 0.662976
  C 2.699368 0.337361 0.755240
  C 3.219656 0.853188 2.025483
  C 2.141382 1.151210 3.064992
  C 2.757786 1.682435 4.355578
  C 3.520022 -0.038473 -0.349143
  C 4.815034 0.049499 -0.468916
  C 5.457550 -1.472063 -3.159118
  H 4.630154 -1.914319 -3.735347
  O 6.559807 -1.671055 -3.762809
  H 3.808997 1.758403 1.830866
  H 3.946289 0.151559 2.446670
  H 1.579200 0.241824 3.284113
  H 1.442605 1.891107 2.670158
  H 3.443642 0.954745 4.788440
  H 1.981142 1.889755 5.089217
  H 3.304177 2.607021 4.174364
  H 2.977415 -0.491187 -1.179346
  H 5.807801 0.350356 -0.211925
  H 7.344300 -1.300254 -3.317325
 20
 127.406144
  H 1.646015 0.031200 0.615701
  C 2.706746 0.201959 0.683762
  C 3.262909 0.726503 1.940287
  C 2.199641 1.162493 2.943082
  C 2.837659 1.704298 4.216938
  C 3.503221 -0.205134 -0.390201
  C 4.817714 -0.123146 -0.513014
  C 5.275984 -1.133417 -2.723346
  H 4.414586 -1.538216 -3.265123
  O 6.344376 -1.316357 -3.344277
  H 3.937256 1.562404 1.711284
  H 3.920518 -0.022305 2.398631
  H 1.559693 0.314327 3.192536
  H 1.571382 1.935299 2.496857
  H 3.451126 0.945140 4.696589
  H 2.070557 2.013238 4.922996
  H 3.462853 2.567428 3.999981
  H 2.971339 -0.739888 -1.170209
  H 5.807286 0.225328 -0.364256
  H 7.170316 -1.022095 -2.883972
