 20
 0.000000
  C 1.005937 0.117712 0.344707
  C 2.480632 0.119461 0.349427
  C 3.210601 0.597811 1.538017
  H 2.550565 0.918836 2.335985
  C 3.135185 -0.337729 -0.787305
  C 4.518723 -0.401518 -0.946946
  C 5.181076 -0.856736 -2.083508
  C 4.553909 -1.353617 -3.323742
  H 3.473087 -1.354134 -3.325490
  O 6.493780 -0.870208 -2.118373
  H 0.585725 0.491365 1.273114
  H 0.631445 -0.892201 0.171196
  H 0.631644 0.726169 -0.479890
  H 3.861024 1.430795 1.267008
  H 3.861259 -0.190500 1.919494
  H 2.512084 -0.666799 -1.606100
  H 5.142598 -0.072174 -0.125998
  H 4.918679 -2.364594 -3.511499
  H 4.918979 -0.752188 -4.157598
  H 6.906724 -0.541645 -1.297462
 20
 2.211046
  C 0.995657 0.213583 0.313531
  C 2.467995 0.145252 0.335335
  C 3.193058 0.437003 1.586200
  H 2.513044 0.673753 2.397905
  C 3.126115 -0.206345 -0.835613
  C 4.509394 -0.305448 -0.970038
  C 5.185640 -0.810436 -2.077192
  C 4.556399 -1.502650 -3.219501
  H 3.479054 -1.558578 -3.139174
  O 6.501355 -0.804270 -2.110686
  H 0.580164 0.500679 1.273768
  H 0.578079 -0.751187 0.020770
  H 0.661682 0.920520 -0.447567
  H 3.873314 1.277441 1.443981
  H 3.808645 -0.412859 1.881647
  H 2.512011 -0.402992 -1.702323
  H 5.140535 -0.004633 -0.146425
  H 4.966689 -2.509663 -3.298315
  H 4.838908 -0.993420 -4.141012
  H 6.940295 -0.080027 -1.629807
 20
 2.211046
  C 0.995657 0.213583 0.313531
  C 2.467995 0.145252 0.335335
  C 3.193058 0.437003 1.586200
  H 2.513044 0.673753 2.397905
  C 3.126115 -0.206345 -0.835613
  C 4.509394 -0.305448 -0.970038
  C 5.185640 -0.810436 -2.077192
  C 4.556399 -1.502650 -3.219501
  H 3.479054 -1.558578 -3.139174
  O 6.501355 -0.804270 -2.110686
  H 0.580164 0.500679 1.273768
  H 0.578079 -0.751187 0.020770
  H 0.661682 0.920520 -0.447567
  H 3.873314 1.277441 1.443981
  H 3.808645 -0.412859 1.881647
  H 2.512011 -0.402992 -1.702323
  H 5.140535 -0.004633 -0.146425
  H 4.966689 -2.509663 -3.298315
  H 4.838908 -0.993420 -4.141012
  H 6.940295 -0.080027 -1.629807
 20
 7.985352
  C 0.988172 0.244015 0.297906
  C 2.457278 0.149996 0.339038
  C 3.167770 0.388696 1.607853
  H 2.484283 0.656993 2.406759
  C 3.127663 -0.176717 -0.832976
  C 4.512185 -0.290450 -0.951331
  C 5.194132 -0.798464 -2.050133
  C 4.576057 -1.545419 -3.160945
  H 3.505086 -1.655966 -3.051919
  O 6.526971 -0.792945 -2.046336
  H 0.556642 0.423280 1.276961
  H 0.558095 -0.664606 -0.125322
  H 0.686621 1.049506 -0.374698
  H 3.904341 1.183944 1.490167
  H 3.723641 -0.500224 1.908193
  H 2.526776 -0.324606 -1.718801
  H 5.140874 -0.026176 -0.112241
  H 5.038179 -2.531584 -3.226177
  H 4.812772 -1.048592 -4.102584
  H 6.940495 0.085040 -2.037928
 20
 11.897933
  C 0.980356 0.271404 0.284868
  C 2.445912 0.150079 0.336019
  C 3.146313 0.273857 1.624946
  H 2.454571 0.403989 2.450475
  C 3.129001 -0.106576 -0.846052
  C 4.517203 -0.224740 -0.949035
  C 5.211568 -0.766253 -2.018920
  C 4.611057 -1.582377 -3.088678
  H 3.535710 -1.665001 -2.992724
  O 6.552136 -0.694416 -1.980313
  H 0.543251 0.432447 1.264770
  H 0.537276 -0.618842 -0.163981
  H 0.699138 1.097384 -0.371683
  H 3.827710 1.125714 1.600208
  H 3.767393 -0.601272 1.815061
  H 2.542909 -0.191461 -1.750580
  H 5.156690 0.166906 -0.168212
  H 5.056537 -2.578143 -3.060455
  H 4.869251 -1.173553 -4.066036
  H 6.955942 0.033048 -2.474832
 20
 12.640862
  C 0.953003 0.243543 0.318235
  C 2.424562 0.169564 0.320440
  C 3.158595 0.154602 1.597038
  H 2.489871 0.169247 2.451163
  C 3.085746 0.061934 -0.891833
  C 4.476663 -0.041186 -1.020817
  C 5.192923 -0.670425 -2.022801
  C 4.649717 -1.620680 -3.010155
  H 3.572237 -1.704901 -2.928287
  O 6.517601 -0.546359 -1.891163
  H 0.541373 0.281235 1.321350
  H 0.526851 -0.610230 -0.209822
  H 0.625574 1.123424 -0.239044
  H 3.825322 1.016423 1.653630
  H 3.801474 -0.722769 1.663271
  H 2.495300 0.120137 -1.796558
  H 5.174408 0.446315 -0.347607
  H 5.104051 -2.597576 -2.842506
  H 4.912977 -1.328075 -4.026859
  H 7.001916 -0.192106 -2.653542
 20
 24.580719
  C 0.924275 0.318930 0.397711
  C 2.390320 0.190589 0.314448
  C 3.189158 0.026049 1.540089
  H 2.569469 0.024210 2.430764
  C 2.985829 0.162688 -0.934097
  C 4.361164 0.000001 -1.132992
  C 5.131821 -0.660248 -2.062535
  C 4.765299 -1.753952 -2.974508
  H 3.697683 -1.946630 -2.929238
  O 6.433858 -0.357844 -1.861349
  H 0.567373 0.287053 1.422585
  H 0.438258 -0.472121 -0.175113
  H 0.605212 1.255532 -0.063401
  H 3.915670 0.836046 1.619551
  H 3.767611 -0.896268 1.507059
  H 2.369960 0.347452 -1.804712
  H 5.183598 0.478628 -0.577351
  H 5.308369 -2.655268 -2.694952
  H 5.038838 -1.513411 -4.001918
  H 6.903682 0.074654 -2.590576
 20
 49.454248
  C 0.903420 0.453231 0.492136
  C 2.347744 0.198665 0.310617
  C 3.190717 -0.141424 1.468018
  H 2.622856 -0.116653 2.394346
  C 2.873453 0.231481 -0.967121
  C 4.207424 -0.021631 -1.258955
  C 5.048995 -0.678621 -2.090664
  C 4.938945 -1.886958 -2.921140
  H 3.910717 -2.235059 -2.938585
  O 6.315147 -0.148983 -1.846297
  H 0.601228 0.373719 1.533052
  H 0.309803 -0.220022 -0.129223
  H 0.668617 1.461678 0.144256
  H 4.005596 0.575688 1.565552
  H 3.632260 -1.130143 1.355731
  H 2.236917 0.548629 -1.783486
  H 5.266237 0.493954 -0.840106
  H 5.579486 -2.671981 -2.530030
  H 5.238640 -1.666836 -3.944738
  H 6.695677 0.317724 -2.607500
 20
 65.983388
  C 0.885587 0.526800 0.538209
  C 2.308069 0.191792 0.300109
  C 3.178074 -0.197465 1.434330
  H 2.631085 -0.211636 2.371963
  C 2.798044 0.218774 -0.989803
  C 4.095640 -0.068461 -1.336660
  C 4.969822 -0.690912 -2.096818
  C 4.983630 -1.924598 -2.906321
  H 3.984689 -2.345069 -2.960604
  O 6.247411 -0.066286 -1.792772
  H 0.611637 0.415862 1.582675
  H 0.233772 -0.106023 -0.065681
  H 0.684717 1.554222 0.230542
  H 4.013446 0.495421 1.531654
  H 3.605672 -1.184712 1.260712
  H 2.141861 0.573425 -1.777876
  H 5.470503 0.517889 -0.992678
  H 5.659242 -2.655264 -2.464377
  H 5.329830 -1.711855 -3.917154
  H 6.662372 0.425375 -2.533321
 20
 56.176103
  C 0.873429 0.571423 0.552998
  C 2.286942 0.193588 0.291598
  C 3.159452 -0.239320 1.413096
  H 2.619401 -0.244428 2.355702
  C 2.760783 0.219107 -1.006212
  C 4.031330 -0.094272 -1.379495
  C 4.935002 -0.692164 -2.088085
  C 5.019717 -1.946289 -2.864171
  H 4.041349 -2.410902 -2.922003
  O 6.259997 -0.036755 -1.806948
  H 0.608076 0.452522 1.598678
  H 0.191954 -0.030232 -0.050166
  H 0.703301 1.612560 0.266824
  H 4.021619 0.417632 1.512258
  H 3.543770 -1.242431 1.224588
  H 2.101687 0.600940 -1.779569
  H 5.766225 0.540126 -1.107665
  H 5.715968 -2.634808 -2.384465
  H 5.375767 -1.747262 -3.874339
  H 6.650086 0.434210 -2.579422
 20
 48.359793
  C 0.860237 0.601686 0.555690
  C 2.265392 0.205114 0.282176
  C 3.133765 -0.274327 1.390309
  H 2.604424 -0.265790 2.338686
  C 2.729277 0.230122 -1.020956
  C 3.978816 -0.107306 -1.413266
  C 4.928430 -0.675551 -2.072475
  C 5.045458 -1.955057 -2.814075
  H 4.080388 -2.448463 -2.856540
  O 6.288544 -0.046219 -1.850120
  H 0.589236 0.436122 1.593550
  H 0.168485 0.047176 -0.079306
  H 0.712921 1.659053 0.325165
  H 4.020928 0.350334 1.488483
  H 3.477505 -1.289244 1.189261
  H 2.072464 0.631525 -1.785885
  H 6.014778 0.584436 -1.138761
  H 5.760911 -2.607704 -2.316555
  H 5.389288 -1.777654 -3.831461
  H 6.637363 0.408583 -2.651938
