 20
 0.000000
  C 0.983629 0.132465 0.380149
  C 2.455719 0.146031 0.416534
  C 3.206211 0.621303 1.599139
  C 2.393554 1.102264 2.794064
  H 3.064366 1.420293 3.586464
  C 3.113559 -0.312169 -0.722015
  C 4.496096 -0.382643 -0.898866
  C 5.090313 -0.845103 -2.051679
  H 4.545750 -1.195165 -2.920253
  O 6.376201 -0.916394 -2.236402
  H 0.527927 0.499445 1.291385
  H 0.627463 -0.881429 0.190388
  H 0.628707 0.733060 -0.458997
  H 3.867796 1.434542 1.280109
  H 3.866822 -0.187019 1.932286
  H 1.761383 0.308484 3.184939
  H 1.762580 1.946532 2.526491
  H 2.482502 -0.639785 -1.536892
  H 5.144920 -0.059238 -0.095649
  H 6.916214 -0.609958 -1.480071
 20
 -0.154315
  C 0.990515 0.076657 0.390843
  C 2.461514 0.118918 0.430625
  C 3.200425 0.631714 1.607371
  C 2.374521 1.144190 2.778352
  H 3.040733 1.499044 3.559532
  C 3.137168 -0.303753 -0.710546
  C 4.523188 -0.410430 -0.856223
  C 5.089239 -0.787344 -2.054468
  H 4.466759 -0.999190 -2.919465
  O 6.356841 -0.920070 -2.293699
  H 0.527797 0.391432 1.316330
  H 0.653415 -0.931448 0.146836
  H 0.624785 0.709315 -0.419696
  H 3.866243 1.431944 1.268753
  H 3.862740 -0.165081 1.968142
  H 1.754759 0.359606 3.204222
  H 1.738894 1.976449 2.482637
  H 2.531902 -0.563291 -1.570195
  H 5.166866 -0.204656 -0.014942
  H 6.939410 -0.736448 -1.528821
 20
 0.430289
  C 0.992514 0.031682 0.412861
  C 2.464023 0.076833 0.449225
  C 3.199603 0.610581 1.615902
  C 2.373283 1.192408 2.753944
  H 3.040720 1.558839 3.529999
  C 3.133645 -0.328673 -0.702658
  C 4.517937 -0.453762 -0.848831
  C 5.089642 -0.732897 -2.070641
  H 4.473554 -0.866574 -2.953283
  O 6.358377 -0.861713 -2.309345
  H 0.533001 0.331870 1.346475
  H 0.655172 -0.972297 0.155929
  H 0.622859 0.684806 -0.379629
  H 3.903604 1.369879 1.261870
  H 3.821786 -0.196540 2.016345
  H 1.724240 0.444929 3.203660
  H 1.768881 2.030375 2.416002
  H 2.523252 -0.502341 -1.580100
  H 5.154483 -0.349241 0.017970
  H 6.935226 -0.742316 -1.528801
 20
 0.860026
  C 0.992414 -0.009563 0.427784
  C 2.465081 0.056234 0.465099
  C 3.195999 0.597268 1.633230
  C 2.366624 1.222854 2.744085
  H 3.034375 1.589770 3.526688
  C 3.136432 -0.312834 -0.700491
  C 4.516728 -0.454890 -0.853257
  C 5.088183 -0.707036 -2.082859
  H 4.473628 -0.816705 -2.963207
  O 6.356780 -0.835186 -2.327988
  H 0.529765 0.285225 1.363748
  H 0.669596 -1.016739 0.170783
  H 0.614859 0.644516 -0.362122
  H 3.933182 1.321852 1.278912
  H 3.781790 -0.222261 2.060718
  H 1.686013 0.505679 3.194944
  H 1.795197 2.070471 2.375713
  H 2.518245 -0.451200 -1.579234
  H 5.151988 -0.382892 0.017265
  H 6.936339 -0.743136 -1.544146
 20
 1.381736
  C 0.999914 -0.066219 0.453039
  C 2.466185 0.059022 0.469700
  C 3.189210 0.603487 1.643215
  C 2.354942 1.252036 2.727630
  H 3.017972 1.629231 3.507942
  C 3.132502 -0.275381 -0.709656
  C 4.512406 -0.441412 -0.859451
  C 5.084350 -0.690055 -2.086917
  H 4.479812 -0.738553 -2.985326
  O 6.351333 -0.864869 -2.318632
  H 0.544073 0.161630 1.410056
  H 0.719670 -1.075652 0.151541
  H 0.582017 0.602865 -0.295490
  H 3.937982 1.324516 1.286122
  H 3.767903 -0.212042 2.088877
  H 1.671058 0.545976 3.190121
  H 1.792693 2.095903 2.337280
  H 2.521346 -0.316948 -1.605951
  H 5.142342 -0.405024 0.022640
  H 6.919405 -0.825635 -1.526925
 20
 2.468598
  C 1.009038 -0.107210 0.482971
  C 2.465992 0.046756 0.479414
  C 3.187282 0.631011 1.629467
  C 2.344481 1.289041 2.716044
  H 2.997855 1.703732 3.467940
  C 3.132634 -0.257572 -0.718334
  C 4.501639 -0.468521 -0.853430
  C 5.089198 -0.673089 -2.084356
  H 4.494742 -0.650968 -3.004599
  O 6.348983 -0.892806 -2.299183
  H 0.570364 0.017373 1.462240
  H 0.738175 -1.083631 0.082657
  H 0.557601 0.620486 -0.195892
  H 3.904198 1.362437 1.248511
  H 3.807397 -0.156905 2.092719
  H 1.684366 0.569623 3.215920
  H 1.747381 2.090573 2.311159
  H 2.534415 -0.203982 -1.615020
  H 5.111701 -0.512896 0.038343
  H 6.899035 -0.934623 -1.489236
 20
 3.562205
  C 1.001923 -0.121826 0.495509
  C 2.466927 0.035650 0.483193
  C 3.181898 0.690064 1.600401
  C 2.330154 1.276431 2.718208
  H 2.979915 1.739225 3.456118
  C 3.130490 -0.308586 -0.696666
  C 4.497329 -0.551045 -0.838562
  C 5.103913 -0.617911 -2.072566
  H 4.538418 -0.452524 -2.979776
  O 6.364415 -0.840974 -2.294096
  H 0.589010 -0.082975 1.497170
  H 0.710050 -1.052210 0.013354
  H 0.542788 0.684554 -0.079734
  H 3.827558 1.466648 1.186170
  H 3.869491 -0.039379 2.034971
  H 1.747373 0.510691 3.225589
  H 1.654298 2.041149 2.337982
  H 2.534316 -0.208298 -1.596709
  H 5.080600 -0.754343 0.050663
  H 6.897581 -0.999211 -1.487911
 20
 6.085476
  C 0.998869 -0.162007 0.515813
  C 2.462568 -0.011427 0.502127
  C 3.171200 0.645589 1.622951
  C 2.320937 1.311931 2.687909
  H 2.976399 1.789853 3.419538
  C 3.127924 -0.344666 -0.680858
  C 4.487023 -0.602915 -0.835682
  C 5.107554 -0.521412 -2.061537
  H 4.550695 -0.240201 -2.950194
  O 6.369305 -0.730299 -2.298818
  H 0.577948 -0.000428 1.501415
  H 0.708661 -1.140868 0.145900
  H 0.547639 0.576708 -0.147574
  H 3.869580 1.378875 1.204866
  H 3.812874 -0.108300 2.102472
  H 1.706780 0.591911 3.223167
  H 1.679954 2.073340 2.261721
  H 2.540586 -0.121570 -1.564090
  H 5.055635 -0.913721 0.026217
  H 6.882960 -1.033733 -1.522926
 20
 9.840863
  C 0.984344 -0.187668 0.540795
  C 2.445443 -0.024878 0.494945
  C 3.180597 0.630694 1.605015
  C 2.340267 1.343910 2.647910
  H 3.000202 1.840912 3.354385
  C 3.095107 -0.411326 -0.670962
  C 4.450548 -0.710542 -0.857592
  C 5.119438 -0.429740 -2.018866
  H 4.618889 0.063084 -2.852286
  O 6.386593 -0.609239 -2.227727
  H 0.578946 0.037719 1.522583
  H 0.696715 -1.193390 0.260513
  H 0.486778 0.488703 -0.165188
  H 3.901980 1.332488 1.173420
  H 3.793501 -0.140257 2.099346
  H 1.718467 0.649360 3.212898
  H 1.704306 2.099161 2.190921
  H 2.504620 -0.089612 -1.532517
  H 4.975043 -1.201899 -0.041919
  H 6.859712 -1.026965 -1.481701
 20
 14.943090
  C 0.999709 -0.166033 0.520188
  C 2.460442 -0.035742 0.516413
  C 3.151265 0.706017 1.597392
  C 2.291078 1.307931 2.694841
  H 2.932004 1.825840 3.395077
  C 3.132466 -0.441242 -0.630687
  C 4.456505 -0.779369 -0.864580
  C 5.126831 -0.428910 -2.009480
  H 4.640130 0.140180 -2.795276
  O 6.390620 -0.656115 -2.258093
  H 0.576411 0.109148 1.470666
  H 0.708479 -1.190431 0.282761
  H 0.556876 0.483089 -0.234532
  H 3.752951 1.500728 1.128860
  H 3.881423 0.027381 2.042433
  H 1.750310 0.542398 3.245888
  H 1.591929 2.029649 2.305284
  H 2.508193 -0.039784 -1.430492
  H 4.977161 -1.315300 -0.087071
  H 6.848440 -1.146895 -1.553482
 20
 20.820638
  C 1.071989 -0.197642 0.511776
  C 2.539609 0.026194 0.544681
  C 3.122479 0.773551 1.685089
  C 2.164597 1.347045 2.716436
  H 2.751091 1.831095 3.495700
  C 3.239871 -0.362744 -0.585633
  C 4.525284 -0.774166 -0.897699
  C 5.130078 -0.496646 -2.098597
  H 4.633772 0.111529 -2.847407
  O 6.344241 -0.824875 -2.433615
  H 0.647911 -0.114290 1.507168
  H 0.838044 -1.176581 0.105804
  H 0.565300 0.564138 -0.085763
  H 3.736517 1.590873 1.278506
  H 3.806102 0.085221 2.186680
  H 1.571488 0.574249 3.205643
  H 1.512820 2.095114 2.285419
  H 2.511411 0.074264 -1.274167
  H 5.069719 -1.316883 -0.133533
  H 6.825894 -1.330919 -1.749157
 20
 40.374166
  C 1.047523 -0.200430 0.506657
  C 2.514699 0.018972 0.531811
  C 3.103318 0.797138 1.667020
  C 2.147917 1.364586 2.709511
  H 2.732367 1.887509 3.462897
  C 3.274273 -0.438995 -0.530547
  C 4.511888 -0.883981 -0.937652
  C 5.140696 -0.471774 -2.096016
  H 4.694494 0.275339 -2.745126
  O 6.387807 -0.749252 -2.425820
  H 0.635810 -0.011310 1.490458
  H 0.816177 -1.223938 0.216419
  H 0.542269 0.497475 -0.161676
  H 3.709082 1.614907 1.259750
  H 3.809551 0.119124 2.160110
  H 1.602330 0.578959 3.226527
  H 1.445898 2.071398 2.276549
  H 2.473999 0.160552 -1.064056
  H 5.041353 -1.533273 -0.245993
  H 6.827323 -1.376545 -1.812931
