28

C 0.9557 0.140299 0.407383
C 2.430528 0.139736 0.399117
C 3.225972 0.608302 1.561834
C 2.459834 1.100379 2.787902
H 3.138669996335735 1.4096779590110347 3.5549846839614876
C 3.042649 -0.328508 -0.766081
C 4.423507 -0.412514 -0.972827
C 5.112135 -0.86221 -2.093395
C 4.618955 -1.384073 -3.397487
C 3.129527 -1.50243 -3.697952
C 2.927546 -2.064784 -5.102432
H 6.181998997212538 -0.8568304050791898 -2.077205885543124
H 0.530811 0.511058 1.33228
H 0.585462 -0.871198 0.234071
H 0.5786 0.748562 -0.416378
H 3.883134 1.417986 1.224026
H 3.885234 -0.208346 1.878116
H 1.824613 0.30568 3.18228
H 1.822568 1.945521 2.522872
H 2.372771 -0.642662 -1.548919
H 5.050971 -0.084008 -0.152885
H 5.081282 -2.37046 -3.521374
H 5.083589 -0.757265 -4.167745
H 2.652432 -0.523676 -3.648152
H 2.650241 -2.175025 -2.986718
H 3.3753 -1.415318 -5.850836
H 1.867266 -2.15226 -5.324337
H 3.373191 -3.052321 -5.195046
