 28
 0.000000
  C 0.952247 0.146179 0.423078
  C 2.424570 0.141085 0.403424
  C 3.225789 0.606134 1.556158
  C 2.466797 1.098674 2.782857
  H 3.165235 1.408556 3.550533
  C 3.028561 -0.327584 -0.762745
  C 4.410332 -0.414162 -0.976395
  C 5.081666 -0.860980 -2.089980
  C 4.610053 -1.379503 -3.385966
  C 3.127834 -1.506949 -3.709533
  C 2.944391 -2.070400 -5.117351
  H 6.162206 -0.847775 -2.054179
  H 0.535277 0.518705 1.350698
  H 0.577383 -0.864054 0.249675
  H 0.571844 0.752458 -0.400598
  H 3.884796 1.411453 1.212241
  H 3.887203 -0.211201 1.865340
  H 1.836511 0.310573 3.189651
  H 1.834197 1.947345 2.531054
  H 2.355788 -0.640909 -1.543255
  H 5.044249 -0.087799 -0.161581
  H 5.082655 -2.363567 -3.507460
  H 5.085086 -0.752699 -4.152753
  H 2.645567 -0.529631 -3.665567
  H 2.643205 -2.182674 -3.003711
  H 3.398070 -1.418863 -5.860655
  H 1.887177 -2.163135 -5.352752
  H 3.395798 -3.055964 -5.205131
 28
 1.812778
  C 1.003738 0.159870 0.350663
  C 2.474052 0.176834 0.420145
  C 3.237082 0.610538 1.609054
  C 2.423146 1.081262 2.804759
  H 3.092654 1.374015 3.608335
  C 3.070275 -0.289334 -0.738560
  C 4.446608 -0.381009 -0.982283
  C 5.090443 -0.847800 -2.117693
  C 4.601796 -1.382512 -3.399740
  C 3.114482 -1.515044 -3.694622
  C 2.897294 -2.093994 -5.090836
  H 6.174151 -0.824001 -2.077481
  H 0.497895 0.421877 1.273130
  H 0.731399 -0.852088 0.012089
  H 0.655509 0.825914 -0.443512
  H 3.917606 1.412998 1.303885
  H 3.886794 -0.214218 1.920170
  H 1.777427 0.290308 3.178996
  H 1.808315 1.941012 2.549617
  H 2.332712 -0.612338 -1.475472
  H 5.096089 -0.043081 -0.184643
  H 5.078388 -2.364974 -3.525528
  H 5.067493 -0.771484 -4.185813
  H 2.635413 -0.536291 -3.648545
  H 2.647228 -2.181483 -2.968576
  H 3.334164 -1.451696 -5.852227
  H 1.834989 -2.188693 -5.301360
  H 3.345959 -3.081005 -5.178459
 28
 5.905076
  C 1.054397 0.153023 0.295487
  C 2.514588 0.189848 0.426235
  C 3.241665 0.609080 1.630158
  C 2.381073 1.073030 2.806334
  H 3.016891 1.362265 3.633275
  C 3.106946 -0.281719 -0.739159
  C 4.477052 -0.375949 -1.008021
  C 5.100553 -0.843063 -2.136607
  C 4.594656 -1.380041 -3.395875
  C 3.102171 -1.514986 -3.660875
  C 2.857898 -2.098188 -5.048724
  H 6.176592 -0.816910 -2.110533
  H 0.482787 0.299330 1.203030
  H 0.886838 -0.806839 -0.199451
  H 0.740258 0.896758 -0.433258
  H 3.935926 1.416864 1.349382
  H 3.885360 -0.222575 1.950953
  H 1.725520 0.275511 3.154292
  H 1.772664 1.934064 2.532940
  H 2.305825 -0.602958 -1.422888
  H 5.137987 -0.028271 -0.215869
  H 5.071368 -2.360629 -3.528545
  H 5.046252 -0.775118 -4.193460
  H 2.623917 -0.535339 -3.606778
  H 2.651590 -2.179404 -2.921651
  H 3.279068 -1.457755 -5.820957
  H 1.791850 -2.194764 -5.237582
  H 3.306101 -3.085152 -5.141907
 28
 12.085217
  C 1.090014 0.141714 0.253505
  C 2.542310 0.199620 0.437348
  C 3.242192 0.618861 1.663462
  C 2.349378 1.071503 2.802066
  H 2.958139 1.366381 3.653438
  C 3.139833 -0.274794 -0.727974
  C 4.504165 -0.370529 -1.011292
  C 5.115939 -0.842329 -2.146706
  C 4.588040 -1.385522 -3.405255
  C 3.092552 -1.517995 -3.643209
  C 2.820423 -2.102436 -5.027022
  H 6.202032 -0.816665 -2.134264
  H 0.470063 0.165240 1.143139
  H 1.025867 -0.760677 -0.382197
  H 0.782200 0.966098 -0.399518
  H 3.936946 1.423632 1.408336
  H 3.875955 -0.206334 1.996915
  H 1.691543 0.271302 3.124995
  H 1.744961 1.923237 2.507993
  H 2.304342 -0.593702 -1.366380
  H 5.167235 -0.023777 -0.232830
  H 5.060594 -2.367450 -3.544367
  H 5.027060 -0.782164 -4.211498
  H 2.618508 -0.538926 -3.579768
  H 2.655978 -2.179622 -2.895086
  H 3.227945 -1.463739 -5.807348
  H 1.750792 -2.197237 -5.195724
  H 3.264796 -3.089972 -5.128084
 28
 20.666600
  C 1.120304 0.134848 0.216195
  C 2.561257 0.206423 0.431937
  C 3.237932 0.619600 1.667091
  C 2.318712 1.066079 2.798319
  H 2.910587 1.360000 3.663158
  C 3.167750 -0.267619 -0.733086
  C 4.529591 -0.366431 -1.024235
  C 5.132035 -0.845226 -2.163278
  C 4.587854 -1.388323 -3.404830
  C 3.089646 -1.511592 -3.614953
  C 2.789644 -2.099198 -4.991972
  H 6.208566 -0.824381 -2.165570
  H 0.477924 0.069287 1.083445
  H 1.144179 -0.718846 -0.517455
  H 0.804932 0.998644 -0.369099
  H 3.937643 1.429493 1.428797
  H 3.869304 -0.208991 2.006447
  H 1.653172 0.255263 3.107120
  H 1.710474 1.923224 2.493470
  H 2.281895 -0.596073 -1.338292
  H 5.202902 -0.018439 -0.244925
  H 5.051998 -2.372396 -3.547188
  H 5.016465 -0.790612 -4.218845
  H 2.623181 -0.528092 -3.545960
  H 2.662410 -2.168549 -2.855572
  H 3.187477 -1.465604 -5.781907
  H 1.716781 -2.187783 -5.141301
  H 3.226006 -3.089777 -5.097411
 28
 29.667723
  C 1.127775 0.122526 0.205455
  C 2.568612 0.209849 0.430784
  C 3.238073 0.631986 1.670920
  C 2.305806 1.073349 2.792021
  H 2.885283 1.376590 3.659424
  C 3.178975 -0.266502 -0.733804
  C 4.536347 -0.374247 -1.026030
  C 5.135677 -0.856054 -2.164798
  C 4.587028 -1.396407 -3.405632
  C 3.085792 -1.510371 -3.609973
  C 2.775933 -2.093357 -4.983729
  H 6.221265 -0.838548 -2.166475
  H 0.480285 -0.040061 1.063579
  H 1.225963 -0.670575 -0.621532
  H 0.783809 1.023548 -0.305098
  H 3.934718 1.447490 1.435415
  H 3.872952 -0.193143 2.016969
  H 1.650806 0.264820 3.095795
  H 1.696518 1.913900 2.481878
  H 2.248362 -0.601063 -1.306093
  H 5.209879 -0.035678 -0.246873
  H 5.045903 -2.383162 -3.549511
  H 5.016317 -0.799112 -4.220521
  H 2.626650 -0.524729 -3.537412
  H 2.658928 -2.165254 -2.850502
  H 3.173861 -1.461394 -5.774579
  H 1.701820 -2.174971 -5.127847
  H 3.205884 -3.086774 -5.092435
 28
 40.039645
  C 1.134244 0.080111 0.205745
  C 2.572315 0.194162 0.429593
  C 3.236072 0.657337 1.663187
  C 2.295512 1.102048 2.772876
  H 2.866434 1.439111 3.629538
  C 3.191871 -0.286858 -0.727198
  C 4.550798 -0.408578 -1.014173
  C 5.147600 -0.883790 -2.155280
  C 4.589075 -1.406672 -3.405481
  C 3.086888 -1.498051 -3.599957
  C 2.758099 -2.060580 -4.979375
  H 6.228335 -0.875710 -2.155703
  H 0.503957 -0.156527 1.050427
  H 1.291296 -0.666176 -0.693386
  H 0.748497 0.991735 -0.255749
  H 3.913501 1.480907 1.410823
  H 3.886969 -0.146746 2.026868
  H 1.659241 0.283551 3.097422
  H 1.664118 1.922003 2.442542
  H 2.212546 -0.621771 -1.281129
  H 5.225465 -0.094997 -0.223211
  H 5.034796 -2.397550 -3.563060
  H 5.021245 -0.804374 -4.215418
  H 2.642718 -0.507601 -3.511238
  H 2.657978 -2.156359 -2.844805
  H 3.157765 -1.425254 -5.765155
  H 1.682738 -2.126120 -5.115825
  H 3.173279 -3.056896 -5.103705
 28
 51.882378
  C 1.139456 0.064647 0.223705
  C 2.565095 0.183703 0.429554
  C 3.232750 0.672779 1.663128
  C 2.294674 1.122941 2.766668
  H 2.858879 1.475188 3.604576
  C 3.189042 -0.299487 -0.716643
  C 4.549045 -0.431111 -1.008612
  C 5.146084 -0.901497 -2.152783
  C 4.588183 -1.412966 -3.408746
  C 3.089673 -1.494471 -3.605115
  C 2.760542 -2.043246 -4.986755
  H 6.214949 -0.899083 -2.152540
  H 0.534838 -0.197048 1.066997
  H 1.318547 -0.680710 -0.728357
  H 0.724011 0.972293 -0.222965
  H 3.898931 1.499053 1.398246
  H 3.891328 -0.118816 2.037582
  H 1.669517 0.302591 3.107114
  H 1.653200 1.931111 2.426647
  H 2.149616 -0.638029 -1.267878
  H 5.227057 -0.133028 -0.209887
  H 5.028052 -2.404521 -3.573466
  H 5.023969 -0.806783 -4.212800
  H 2.651807 -0.503824 -3.508955
  H 2.657483 -2.155974 -2.856703
  H 3.163544 -1.405481 -5.764860
  H 1.687980 -2.102076 -5.124678
  H 3.169607 -3.037295 -5.118077
 28
 60.814539
  C 1.126006 0.025057 0.262855
  C 2.558277 0.164934 0.432052
  C 3.233950 0.698591 1.632587
  C 2.299794 1.164406 2.744145
  H 2.881194 1.562787 3.575499
  C 3.184547 -0.330292 -0.703422
  C 4.538301 -0.479204 -0.991028
  C 5.141786 -0.933930 -2.132193
  C 4.593367 -1.419190 -3.399910
  C 3.090536 -1.479708 -3.608836
  C 2.762329 -2.002979 -5.006363
  H 6.230770 -0.940456 -2.119602
  H 0.539334 -0.266340 1.126452
  H 1.329788 -0.722507 -0.751898
  H 0.673854 0.906594 -0.186946
  H 3.878385 1.533566 1.330446
  H 3.915459 -0.071391 2.018622
  H 1.699877 0.342708 3.121460
  H 1.635250 1.945714 2.392008
  H 2.095111 -0.675075 -1.259611
  H 5.209113 -0.214361 -0.175431
  H 5.023762 -2.412275 -3.576856
  H 5.042018 -0.802526 -4.188077
  H 2.663106 -0.482609 -3.498513
  H 2.645503 -2.151482 -2.872841
  H 3.179745 -1.353710 -5.774726
  H 1.684553 -2.047251 -5.152777
  H 3.163344 -3.005095 -5.152968
 28
 69.128512
  C 1.112704 -0.000079 0.314263
  C 2.548232 0.148483 0.441614
  C 3.236104 0.725655 1.616996
  C 2.310021 1.206967 2.728994
  H 2.895111 1.639132 3.534732
  C 3.178782 -0.357041 -0.680923
  C 4.531389 -0.523647 -0.973430
  C 5.140445 -0.965268 -2.116383
  C 4.601035 -1.426890 -3.400460
  C 3.092648 -1.471023 -3.624801
  C 2.772408 -1.965892 -5.030157
  H 6.220469 -0.978951 -2.094038
  H 0.548888 -0.306340 1.205616
  H 1.309576 -0.782345 -0.773815
  H 0.631245 0.859346 -0.143325
  H 3.859689 1.562542 1.280070
  H 3.931046 -0.018926 2.012120
  H 1.731181 0.385605 3.141479
  H 1.624556 1.966441 2.364498
  H 2.032222 -0.728275 -1.266947
  H 5.193485 -0.285502 -0.152307
  H 5.024952 -2.420352 -3.589199
  H 5.061963 -0.799527 -4.173049
  H 2.672344 -0.472450 -3.501406
  H 2.635952 -2.151882 -2.905998
  H 3.202329 -1.305958 -5.783951
  H 1.695740 -1.998486 -5.186092
  H 3.167225 -2.969729 -5.190664
 28
 77.191731
  C 1.115669 -0.012223 0.324150
  C 2.547208 0.134935 0.427854
  C 3.233041 0.738656 1.600836
  C 2.301395 1.226154 2.704159
  H 2.882167 1.677812 3.500127
  C 3.200990 -0.366618 -0.668517
  C 4.548870 -0.544426 -0.964943
  C 5.156348 -0.981029 -2.105357
  C 4.605922 -1.430845 -3.399014
  C 3.096602 -1.452716 -3.605003
  C 2.751746 -1.930658 -5.011200
  H 6.232651 -1.004495 -2.082360
  H 0.567728 -0.320216 1.220550
  H 1.315070 -0.841261 -0.832897
  H 0.613184 0.818006 -0.163023
  H 3.843401 1.576826 1.249898
  H 3.936223 0.005575 2.009204
  H 1.733228 0.404912 3.131874
  H 1.606562 1.972331 2.328185
  H 2.003183 -0.780155 -1.305383
  H 5.206545 -0.328972 -0.131513
  H 5.015791 -2.431202 -3.599245
  H 5.067999 -0.799151 -4.171535
  H 2.691937 -0.450278 -3.467229
  H 2.639856 -2.134162 -2.886623
  H 3.179925 -1.271739 -5.762341
  H 1.675333 -1.947461 -5.153772
  H 3.130149 -2.935296 -5.185226
 28
 84.055049
  C 1.084812 -0.034196 0.397336
  C 2.521935 0.111654 0.438575
  C 3.234374 0.770500 1.577694
  C 2.327305 1.281465 2.688560
  H 2.928115 1.776173 3.451199
  C 3.183980 -0.396255 -0.642055
  C 4.521477 -0.594504 -0.950900
  C 5.136669 -1.015034 -2.089012
  C 4.607051 -1.434136 -3.396202
  C 3.103896 -1.440282 -3.626641
  C 2.778685 -1.886201 -5.047384
  H 6.223273 -1.048080 -2.051482
  H 0.580199 -0.333895 1.301470
  H 1.251958 -0.938353 -0.854466
  H 0.547588 0.754872 -0.116207
  H 3.816003 1.605637 1.178653
  H 3.962137 0.059957 1.993391
  H 1.790563 0.468011 3.165226
  H 1.608043 1.999366 2.308181
  H 1.908747 -0.876343 -1.324049
  H 5.179105 -0.418647 -0.094222
  H 5.011729 -2.435084 -3.607550
  H 5.085752 -0.787612 -4.147917
  H 2.704268 -0.438307 -3.474291
  H 2.631169 -2.135230 -2.930266
  H 3.221898 -1.217157 -5.775441
  H 1.707026 -1.892981 -5.207386
  H 3.152749 -2.886528 -5.235329
 28
 90.024187
  C 1.071593 -0.056520 0.459524
  C 2.502933 0.086075 0.442380
  C 3.233937 0.799385 1.550053
  C 2.341574 1.341690 2.658569
  H 2.953140 1.873851 3.385094
  C 3.183255 -0.437014 -0.608180
  C 4.511886 -0.649293 -0.932538
  C 5.133591 -1.054814 -2.069997
  C 4.612563 -1.440548 -3.395158
  C 3.111125 -1.421576 -3.636794
  C 2.791122 -1.825538 -5.069436
  H 6.217748 -1.100814 -2.021513
  H 0.599803 -0.334581 1.387836
  H 1.198969 -1.068370 -0.882801
  H 0.504290 0.680178 -0.086989
  H 3.793591 1.626752 1.103976
  H 3.972740 0.116192 1.976186
  H 1.827130 0.541545 3.181316
  H 1.604459 2.035249 2.266250
  H 1.830886 -1.002352 -1.352500
  H 5.161880 -0.496267 -0.070796
  H 5.003900 -2.436992 -3.623759
  H 5.102369 -0.784571 -4.122961
  H 2.722857 -0.418982 -3.460831
  H 2.626044 -2.128251 -2.963782
  H 3.249290 -1.140933 -5.777816
  H 1.718301 -1.814889 -5.237360
  H 3.155857 -2.827870 -5.281204
 28
 94.191553
  C 1.051722 -0.055826 0.520480
  C 2.473433 0.065406 0.444892
  C 3.230463 0.821088 1.520045
  C 2.366633 1.393027 2.633001
  H 2.997007 1.950439 3.317817
  C 3.174468 -0.455890 -0.581400
  C 4.491774 -0.679470 -0.921725
  C 5.124157 -1.079663 -2.054232
  C 4.617153 -1.442781 -3.394051
  C 3.121431 -1.403166 -3.651343
  C 2.811363 -1.778189 -5.100026
  H 6.202506 -1.137590 -1.990661
  H 0.608084 -0.293453 1.478025
  H 1.127348 -1.205045 -0.909062
  H 0.457337 0.625150 -0.066582
  H 3.770159 1.634993 1.030127
  H 3.984274 0.155924 1.947795
  H 1.874514 0.608893 3.199814
  H 1.613285 2.069785 2.241061
  H 1.740717 -1.140658 -1.384670
  H 5.132589 -0.567080 -0.045096
  H 4.999599 -2.439104 -3.633030
  H 5.122011 -0.781215 -4.105370
  H 2.741488 -0.399277 -3.459095
  H 2.623179 -2.118031 -2.996876
  H 3.286381 -1.081379 -5.794180
  H 1.735401 -1.753569 -5.279881
  H 3.170049 -2.783807 -5.327613
