 15
 0.000000
  C 0.934403 0.146105 0.401320
  C 2.402148 0.142378 0.398685
  C 3.205640 0.603038 1.542816
  C 2.476578 1.088081 2.772446
  H 3.188505 1.394030 3.531954
  C 3.059651 -0.311194 -0.721562
  H 4.133544 -0.340424 -0.789122
  H 0.504606 0.527709 1.319945
  H 0.553190 -0.863127 0.227383
  H 0.562499 0.736744 -0.438984
  H 3.882369 1.393301 1.183176
  H 3.892434 -0.210800 1.821642
  H 1.843226 0.306548 3.191762
  H 1.834371 1.938345 2.543641
  H 2.498860 -0.655249 -1.575106
 15
 3.067647
  C 0.930695 0.202448 0.406100
  C 2.375372 0.145082 0.398917
  C 3.191433 0.592519 1.542245
  C 2.472583 1.079381 2.773490
  H 3.190087 1.383446 3.529972
  C 3.037835 -0.324532 -0.721353
  H 4.114042 -0.352673 -0.773297
  H 0.481897 0.558673 1.313550
  H 0.745963 -0.836548 0.232359
  H 0.520931 0.733418 -0.444860
  H 3.868187 1.378136 1.171326
  H 3.892901 -0.210510 1.812390
  H 1.844301 0.297083 3.198929
  H 1.828743 1.929254 2.550754
  H 2.493727 -0.681018 -1.582775
 15
 7.917525
  C 0.910426 0.259806 0.393949
  C 2.366645 0.159327 0.399190
  C 3.190777 0.576007 1.544766
  C 2.476828 1.064416 2.774551
  H 3.198240 1.362578 3.527116
  C 3.025598 -0.327109 -0.711580
  H 4.103927 -0.350454 -0.761135
  H 0.437644 0.609115 1.303167
  H 0.914551 -0.807209 0.266925
  H 0.462606 0.700080 -0.494471
  H 3.850811 1.366396 1.159540
  H 3.897614 -0.218458 1.811749
  H 1.856123 0.280186 3.204452
  H 1.836530 1.915663 2.554982
  H 2.488644 -0.701945 -1.568624
 15
 13.564843
  C 0.920437 0.299455 0.388170
  C 2.361094 0.158704 0.386860
  C 3.190815 0.563548 1.546711
  C 2.466499 1.052148 2.783216
  H 3.188631 1.348074 3.541288
  C 3.010176 -0.333202 -0.726787
  H 4.085938 -0.344406 -0.789492
  H 0.449772 0.676078 1.280187
  H 1.057658 -0.779609 0.340654
  H 0.444552 0.650568 -0.523674
  H 3.839131 1.364445 1.158936
  H 3.895354 -0.233397 1.813139
  H 1.846223 0.265213 3.212118
  H 1.829322 1.907261 2.563668
  H 2.468149 -0.719383 -1.574048
 15
 19.007364
  C 0.912435 0.330534 0.390833
  C 2.364858 0.152011 0.380388
  C 3.191754 0.557963 1.548704
  C 2.462948 1.043418 2.781942
  H 3.180735 1.338218 3.539310
  C 3.008666 -0.344677 -0.734691
  H 4.082604 -0.352011 -0.803304
  H 0.432439 0.713571 1.277069
  H 1.175600 -0.765087 0.365506
  H 0.418927 0.643189 -0.518655
  H 3.835437 1.361036 1.165183
  H 3.895054 -0.236472 1.816654
  H 1.844403 0.256918 3.207950
  H 1.828372 1.897254 2.562472
  H 2.462880 -0.735725 -1.577831
 15
 22.935545
  C 0.914797 0.363166 0.383553
  C 2.346760 0.154713 0.382530
  C 3.191906 0.548660 1.545891
  C 2.464089 1.030504 2.783194
  H 3.198035 1.320448 3.549441
  C 3.000498 -0.341958 -0.736928
  H 4.088778 -0.336474 -0.800827
  H 0.434320 0.761831 1.249131
  H 1.261871 -0.732374 0.438495
  H 0.398104 0.571935 -0.552297
  H 3.827817 1.357597 1.166613
  H 3.884809 -0.257384 1.805403
  H 1.838307 0.241646 3.209390
  H 1.837723 1.899630 2.567620
  H 2.457536 -0.737950 -1.586700
 15
 24.861236
  C 0.919773 0.386525 0.371660
  C 2.349238 0.147171 0.379006
  C 3.197634 0.539584 1.546293
  C 2.460732 1.020020 2.785124
  H 3.181916 1.290202 3.551387
  C 3.000287 -0.333644 -0.755393
  H 4.073856 -0.316471 -0.826678
  H 0.442923 0.840083 1.224634
  H 1.339068 -0.710273 0.546538
  H 0.391903 0.471246 -0.567148
  H 3.837861 1.346903 1.173183
  H 3.874907 -0.276421 1.809559
  H 1.822640 0.238684 3.198208
  H 1.854439 1.899801 2.573785
  H 2.455519 -0.720563 -1.600337
 15
 26.505631
  C 0.923213 0.402603 0.367796
  C 2.351231 0.140583 0.377516
  C 3.202285 0.533882 1.545424
  C 2.456758 1.012343 2.781428
  H 3.171220 1.262017 3.557012
  C 3.002455 -0.328116 -0.768385
  H 4.073399 -0.306899 -0.841204
  H 0.453888 0.886857 1.201443
  H 1.403976 -0.681525 0.635817
  H 0.377693 0.389800 -0.564710
  H 3.852120 1.337249 1.184134
  H 3.865533 -0.292605 1.809810
  H 1.801721 0.240214 3.178024
  H 1.872302 1.903709 2.575216
  H 2.454730 -0.701445 -1.615472
 15
 28.714325
  C 0.937559 0.409471 0.363792
  C 2.350815 0.131295 0.375520
  C 3.202937 0.525712 1.537610
  C 2.448692 1.009452 2.786870
  H 3.169593 1.254354 3.574561
  C 3.004728 -0.332329 -0.777369
  H 4.075533 -0.309060 -0.848959
  H 0.465460 0.908398 1.207922
  H 1.460136 -0.664551 0.663108
  H 0.391689 0.359931 -0.548864
  H 3.854525 1.326754 1.180438
  H 3.855753 -0.298750 1.797570
  H 1.786065 0.241639 3.179993
  H 1.868693 1.910441 2.582368
  H 2.453609 -0.701128 -1.628570
 15
 30.540249
  C 0.932223 0.418955 0.361740
  C 2.347547 0.127682 0.382471
  C 3.208647 0.527233 1.548918
  C 2.458337 1.006369 2.788104
  H 3.160267 1.240471 3.555352
  C 3.000196 -0.331080 -0.772087
  H 4.085480 -0.309708 -0.843268
  H 0.460964 0.911297 1.190615
  H 1.496581 -0.654449 0.681048
  H 0.377974 0.342064 -0.560148
  H 3.868786 1.338848 1.190022
  H 3.874730 -0.318572 1.816247
  H 1.791495 0.237426 3.179875
  H 1.884285 1.909770 2.585072
  H 2.445669 -0.698794 -1.627511
 15
 32.163698
  C 0.930291 0.426922 0.354149
  C 2.351124 0.120232 0.385244
  C 3.214826 0.524019 1.552363
  C 2.463977 1.002833 2.790779
  H 3.174192 1.235955 3.569373
  C 3.005386 -0.333810 -0.773522
  H 4.082614 -0.315281 -0.841687
  H 0.453578 0.916890 1.183593
  H 1.532685 -0.654122 0.689639
  H 0.377847 0.327005 -0.563268
  H 3.867546 1.326783 1.198700
  H 3.869877 -0.310883 1.816959
  H 1.796645 0.237539 3.178699
  H 1.893856 1.910044 2.588167
  H 2.454074 -0.696065 -1.627210
 15
 33.922901
  C 0.930651 0.434521 0.349519
  C 2.354508 0.112671 0.389844
  C 3.220470 0.522233 1.557930
  C 2.468959 1.000779 2.792500
  H 3.180926 1.233129 3.577114
  C 3.007989 -0.336463 -0.773069
  H 4.082575 -0.320995 -0.840717
  H 0.451683 0.921234 1.178696
  H 1.566721 -0.654973 0.698507
  H 0.376886 0.313779 -0.566513
  H 3.874146 1.325623 1.204449
  H 3.874799 -0.312859 1.824971
  H 1.797056 0.235809 3.177748
  H 1.903641 1.905578 2.588730
  H 2.455883 -0.691854 -1.628135
 15
 35.568501
  C 0.936096 0.439819 0.344805
  C 2.357639 0.102226 0.393307
  C 3.228392 0.517897 1.563158
  C 2.475417 0.998154 2.798848
  H 3.182412 1.227096 3.579525
  C 3.009451 -0.340597 -0.773850
  H 4.087047 -0.326343 -0.843141
  H 0.455049 0.921721 1.176122
  H 1.600306 -0.660101 0.705014
  H 0.382111 0.304128 -0.566849
  H 3.873139 1.310994 1.213475
  H 3.875237 -0.308561 1.828593
  H 1.806352 0.239543 3.180583
  H 1.905905 1.914920 2.592992
  H 2.456098 -0.684593 -1.630147
 15
 37.109390
  C 0.938885 0.447108 0.341618
  C 2.363939 0.094133 0.398315
  C 3.236157 0.516647 1.567517
  C 2.480166 0.997856 2.800457
  H 3.186097 1.227682 3.584140
  C 3.014786 -0.343543 -0.771274
  H 4.085191 -0.334609 -0.838700
  H 0.454527 0.924393 1.176131
  H 1.632208 -0.665387 0.713019
  H 0.382446 0.299522 -0.569994
  H 3.884226 1.314673 1.215060
  H 3.882459 -0.308348 1.835973
  H 1.802543 0.233331 3.184608
  H 1.917423 1.907468 2.593509
  H 2.456106 -0.682133 -1.636497
