 20
 0.000000
  H 1.381298 0.169046 0.471651
  C 2.452560 0.135635 0.388387
  H 3.067804 0.464874 1.207710
  C 3.003705 -0.330959 -0.773316
  C 4.388503 -0.409292 -0.969464
  C 5.100761 -0.859510 -2.092014
  C 4.615964 -1.381083 -3.391703
  C 3.131137 -1.506525 -3.704559
  C 2.944591 -2.071038 -5.111119
  O 6.408134 -0.842438 -2.050253
  H 2.332901 -0.645043 -1.554861
  H 5.000570 -0.074969 -0.137545
  H 5.087096 -2.364453 -3.515291
  H 5.087363 -0.756234 -4.160862
  H 2.648718 -0.529629 -3.660631
  H 2.648611 -2.181978 -2.997506
  H 3.395382 -1.420254 -5.856394
  H 1.886860 -2.163863 -5.342583
  H 3.395371 -3.056497 -5.199687
  H 6.786812 -0.507250 -1.213325
 20
 14.465180
  H 1.465214 0.248031 0.668763
  C 2.521736 0.167252 0.467115
  H 3.199279 0.481261 1.249144
  C 2.983322 -0.316758 -0.738792
  C 4.433073 -0.427400 -1.015070
  C 5.019139 -0.880337 -2.144389
  C 4.617884 -1.405494 -3.453023
  C 3.142401 -1.533346 -3.771231
  C 2.959014 -2.096874 -5.175281
  O 6.288989 -0.777599 -1.888701
  H 2.280469 -0.622615 -1.500410
  H 5.030619 -0.092062 -0.179877
  H 5.105295 -2.376967 -3.565686
  H 5.105301 -0.781664 -4.206227
  H 2.659908 -0.556802 -3.724440
  H 2.660124 -2.206742 -3.062217
  H 3.410028 -1.445664 -5.920201
  H 1.902073 -2.190392 -5.407967
  H 3.410350 -3.082282 -5.263416
  H 6.576274 -0.434060 -1.029033
 20
 52.991509
  H 1.533765 0.268383 0.721250
  C 2.580076 0.170594 0.476709
  H 3.284891 0.477536 1.243824
  C 2.983376 -0.306394 -0.713810
  C 4.494245 -0.436104 -1.037561
  C 4.958661 -0.890504 -2.170485
  C 4.617572 -1.417007 -3.482634
  C 3.146252 -1.545874 -3.804046
  C 2.963986 -2.109462 -5.205657
  O 6.192597 -0.733135 -1.779128
  H 2.272976 -0.607696 -1.465737
  H 5.014597 -0.090305 -0.176378
  H 5.117416 -2.389610 -3.584878
  H 5.118246 -0.786128 -4.229226
  H 2.664177 -0.568184 -3.750631
  H 2.663837 -2.214610 -3.088903
  H 3.414903 -1.458872 -5.950885
  H 1.908023 -2.202825 -5.437698
  H 3.415061 -3.094845 -5.292968
  H 6.449338 -0.397080 -0.935758
 20
 97.104539
  H 1.509348 0.233109 0.742117
  C 2.561883 0.180546 0.505754
  H 3.225620 0.507228 1.300883
  C 2.929764 -0.265734 -0.660306
  C 4.617888 -0.430940 -1.053001
  C 4.920544 -0.901430 -2.201950
  C 4.624031 -1.429315 -3.515583
  C 3.130846 -1.555088 -3.833421
  C 2.945127 -2.123857 -5.231971
  O 6.219349 -0.702767 -1.737338
  H 2.321028 -0.579810 -1.467624
  H 5.033795 -0.088028 -0.146370
  H 5.118930 -2.416087 -3.581788
  H 5.126396 -0.773419 -4.250857
  H 2.657595 -0.578556 -3.788872
  H 2.652252 -2.219869 -3.120191
  H 3.398827 -1.477691 -5.978542
  H 1.891016 -2.214806 -5.462918
  H 3.393931 -3.110005 -5.314103
  H 6.550428 -0.390148 -0.878825
 20
 121.968857
  H 1.468233 0.298661 0.839291
  C 2.511326 0.196763 0.555212
  H 3.202870 0.502791 1.326526
  C 2.818328 -0.255791 -0.610919
  C 4.738001 -0.435664 -1.065414
  C 4.904532 -0.910816 -2.229347
  C 4.646288 -1.440970 -3.545716
  C 3.140903 -1.565983 -3.857004
  C 2.943563 -2.134493 -5.257370
  O 6.262232 -0.689873 -1.728024
  H 2.270320 -0.585324 -1.455349
  H 5.007131 -0.064432 -0.112719
  H 5.129414 -2.426034 -3.606754
  H 5.133755 -0.779509 -4.275566
  H 2.670813 -0.585442 -3.806502
  H 2.668706 -2.231991 -3.136963
  H 3.393261 -1.488608 -6.005535
  H 1.884934 -2.224239 -5.481951
  H 3.391296 -3.120131 -5.343372
  H 6.676008 -0.408664 -0.889086
 20
 137.461436
  H 1.381446 0.303751 0.905602
  C 2.411942 0.210755 0.570897
  H 3.136728 0.502074 1.308891
  C 2.699409 -0.247303 -0.599541
  C 4.882107 -0.446341 -1.094853
  C 4.940444 -0.928251 -2.267944
  C 4.656710 -1.454948 -3.563441
  C 3.157598 -1.561557 -3.849101
  C 2.941834 -2.126829 -5.241637
  O 6.352436 -0.695731 -1.734891
  H 2.145775 -0.581165 -1.432690
  H 5.061291 -0.051971 -0.113008
  H 5.130943 -2.438392 -3.654443
  H 5.137161 -0.811120 -4.311097
  H 2.699543 -0.584402 -3.788641
  H 2.693277 -2.219417 -3.126836
  H 3.389899 -1.481507 -5.999970
  H 1.884530 -2.207832 -5.451385
  H 3.382803 -3.120249 -5.333227
  H 6.806257 -0.422735 -0.920454
 20
 142.077195
  H 1.280469 0.317383 0.977292
  C 2.302394 0.220511 0.608852
  H 3.048991 0.496021 1.336979
  C 2.571800 -0.218514 -0.574064
  C 5.016022 -0.448624 -1.135026
  C 4.985779 -0.935707 -2.301409
  C 4.692496 -1.466968 -3.584492
  C 3.179096 -1.558190 -3.844787
  C 2.935981 -2.129898 -5.236679
  O 6.448304 -0.691223 -1.759881
  H 1.989852 -0.538918 -1.408986
  H 5.120529 -0.095873 -0.139559
  H 5.158267 -2.452730 -3.687456
  H 5.162728 -0.831312 -4.343587
  H 2.728602 -0.569059 -3.775658
  H 2.719585 -2.214649 -3.106166
  H 3.375761 -1.495207 -6.002431
  H 1.869244 -2.202771 -5.429724
  H 3.366184 -3.123978 -5.331143
  H 6.951164 -0.434947 -0.963253
 20
 140.734809
  H 1.185802 0.296999 0.909524
  C 2.214061 0.187745 0.559378
  H 2.945948 0.469376 1.299854
  C 2.509602 -0.236934 -0.622887
  C 5.173398 -0.467675 -1.167586
  C 5.025658 -0.948300 -2.329135
  C 4.714528 -1.459235 -3.603780
  C 3.185053 -1.542488 -3.802419
  C 2.892560 -2.104072 -5.186947
  O 6.594341 -0.680395 -1.723067
  H 1.949511 -0.546934 -1.477135
  H 5.131339 -0.123389 -0.165299
  H 5.154239 -2.454900 -3.716555
  H 5.156012 -0.823841 -4.377753
  H 2.749679 -0.548697 -3.714757
  H 2.750956 -2.195929 -3.047481
  H 3.310900 -1.468570 -5.963220
  H 1.819574 -2.168335 -5.341750
  H 3.313051 -3.099840 -5.301612
  H 7.112101 -0.476829 -0.920061
 20
 108.895948
  H 1.455460 0.222304 0.540317
  C 2.488328 0.131236 0.197483
  H 3.199885 0.481489 0.931508
  C 2.757488 -0.398922 -0.933044
  C 5.376061 -0.412931 -1.114794
  C 4.836618 -0.997956 -2.138100
  C 4.477303 -1.389489 -3.458362
  C 2.978262 -1.618587 -3.762142
  C 2.800461 -2.073345 -5.202263
  O 6.773807 -0.563118 -1.213587
  H 2.328790 -0.807373 -1.809319
  H 5.134089 -0.045011 -0.139621
  H 4.984491 -2.345921 -3.651868
  H 4.837367 -0.624867 -4.156609
  H 2.457753 -0.666233 -3.639627
  H 2.559488 -2.359921 -3.084004
  H 3.193680 -1.335854 -5.897405
  H 1.743645 -2.205610 -5.414286
  H 3.305594 -3.019695 -5.378721
  H 7.200231 -0.361994 -0.368304
