 29
 0.000000
  C 0.971701 0.140018 0.399773
  C 2.447675 0.138698 0.396073
  C 3.234274 0.607358 1.562258
  C 2.458033 1.096740 2.780503
  H 3.133256 1.410936 3.562380
  C 3.063897 -0.325677 -0.760091
  C 4.441005 -0.410558 -0.971836
  C 5.116660 -0.862101 -2.097571
  C 4.620177 -1.384718 -3.400465
  C 3.129941 -1.503471 -3.696955
  C 2.910606 -2.065747 -5.098794
  O 6.439051 -0.858568 -2.089108
  H 0.538360 0.510359 1.321553
  H 0.600205 -0.871802 0.232841
  H 0.599923 0.754927 -0.420790
  H 3.890453 1.418604 1.227752
  H 3.890664 -0.209639 1.881975
  H 1.822112 0.302476 3.170066
  H 1.821966 1.939650 2.512321
  H 2.409509 -0.643882 -1.552596
  H 5.060102 -0.079188 -0.146410
  H 5.076249 -2.373324 -3.525861
  H 5.076466 -0.756979 -4.174320
  H 2.653760 -0.523547 -3.645042
  H 2.653537 -2.175770 -2.982283
  H 3.350604 -1.418016 -5.853545
  H 1.846430 -2.148376 -5.305161
  H 3.350416 -3.055619 -5.196673
  H 6.816246 -0.523996 -1.253952
 29
 -0.163037
  C 0.968810 -0.098847 0.513596
  C 2.436333 0.026934 0.434408
  C 3.221357 0.698246 1.499083
  C 2.445130 1.266925 2.679744
  H 3.139939 1.728073 3.377275
  C 3.052775 -0.505106 -0.696165
  C 4.427906 -0.523959 -0.926752
  C 5.110936 -0.996352 -2.042781
  C 4.609863 -1.431978 -3.375281
  C 3.121444 -1.464749 -3.697341
  C 2.918630 -1.854788 -5.159617
  O 6.426973 -1.068701 -2.004651
  H 0.549747 0.331316 1.414244
  H 0.684826 -1.150818 0.455313
  H 0.508697 0.376795 -0.353990
  H 3.798963 1.507707 1.039801
  H 3.958404 -0.016333 1.882010
  H 1.907143 0.488648 3.215218
  H 1.740093 2.030940 2.361953
  H 2.404123 -0.960579 -1.423528
  H 5.060556 -0.153264 -0.129304
  H 5.039438 -2.422814 -3.560639
  H 5.108422 -0.777148 -4.100518
  H 2.677579 -0.482175 -3.536362
  H 2.614409 -2.202859 -3.075716
  H 3.394377 -1.137243 -5.824088
  H 1.858982 -1.884905 -5.399582
  H 3.338216 -2.837471 -5.362032
  H 6.829719 -0.783537 -1.163219
 29
 0.643740
  C 1.027174 -0.388607 0.637424
  C 2.458026 -0.084180 0.451941
  C 3.183410 0.855554 1.340853
  C 2.386372 1.500711 2.466641
  H 3.036014 2.163700 3.032826
  C 3.104237 -0.696566 -0.615140
  C 4.474321 -0.661067 -0.868060
  C 5.131621 -1.170743 -1.984464
  C 4.609442 -1.442097 -3.350519
  C 3.122735 -1.332029 -3.664031
  C 2.895737 -1.517325 -5.162318
  O 6.430596 -1.387850 -1.924776
  H 0.590370 0.116593 1.489421
  H 0.891093 -1.465033 0.751736
  H 0.469848 -0.115089 -0.259783
  H 3.618334 1.646235 0.720241
  H 4.034277 0.321966 1.779054
  H 1.993456 0.755626 3.153956
  H 1.562817 2.096090 2.080578
  H 2.507648 -1.314762 -1.263378
  H 5.114514 -0.270085 -0.086343
  H 4.974156 -2.430226 -3.650113
  H 5.151608 -0.740233 -3.997347
  H 2.745644 -0.352076 -3.370211
  H 2.562431 -2.105622 -3.139549
  H 3.423624 -0.757534 -5.733978
  H 1.837282 -1.440307 -5.396830
  H 3.243721 -2.494068 -5.490239
  H 6.845772 -1.162145 -1.071481
 29
 3.658450
  C 1.154573 -0.732462 0.832575
  C 2.492595 -0.226470 0.472232
  C 3.091058 0.965197 1.122124
  C 2.276583 1.639820 2.217541
  H 2.823638 2.500511 2.594384
  C 3.179957 -0.883324 -0.537983
  C 4.534449 -0.760344 -0.836976
  C 5.142047 -1.357315 -1.942175
  C 4.599169 -1.442754 -3.324887
  C 3.137699 -1.108940 -3.601234
  C 2.872652 -1.147078 -5.103781
  O 6.377754 -1.802125 -1.879142
  H 0.700427 -0.185234 1.649011
  H 1.218377 -1.787737 1.100028
  H 0.492629 -0.684491 -0.033458
  H 3.312396 1.700959 0.341790
  H 4.064409 0.677104 1.534695
  H 2.099938 0.966794 3.052946
  H 1.321084 1.995838 1.840899
  H 2.660341 -1.645923 -1.098400
  H 5.189076 -0.307430 -0.102497
  H 4.840231 -2.429542 -3.731844
  H 5.224907 -0.742527 -3.894147
  H 2.900748 -0.113772 -3.223562
  H 2.478928 -1.831113 -3.122433
  H 3.497981 -0.428928 -5.629170
  H 1.833859 -0.903941 -5.310955
  H 3.075067 -2.135813 -5.508610
  H 6.828959 -1.649804 -1.027242
 29
 10.149787
  C 1.351621 -1.021299 1.091094
  C 2.526872 -0.342754 0.511194
  C 2.943109 1.023952 0.916327
  C 2.126038 1.701107 2.009344
  H 2.521856 2.698463 2.189680
  C 3.241268 -1.005384 -0.477128
  C 4.550059 -0.762640 -0.868999
  C 5.109827 -1.485987 -1.939086
  C 4.601353 -1.438120 -3.332459
  C 3.212797 -0.856011 -3.577240
  C 2.888687 -0.883686 -5.066380
  O 6.229426 -2.151069 -1.824064
  H 0.888382 -0.452081 1.886912
  H 1.641581 -1.999255 1.474813
  H 0.606508 -1.209283 0.316517
  H 2.933289 1.655555 0.021896
  H 3.992298 0.986187 1.231201
  H 2.178926 1.147832 2.944573
  H 1.083675 1.808048 1.718372
  H 2.791139 -1.864191 -0.957442
  H 5.209375 -0.175737 -0.243913
  H 4.683813 -2.429644 -3.784602
  H 5.338371 -0.816306 -3.855517
  H 3.172959 0.173415 -3.220828
  H 2.455973 -1.430244 -3.047312
  H 3.612312 -0.304549 -5.633933
  H 1.904117 -0.462086 -5.247273
  H 2.894565 -1.902274 -5.445228
  H 6.689566 -2.053109 -0.968518
 29
 17.977028
  C 1.597703 -1.207181 1.304638
  C 2.582083 -0.402381 0.555685
  C 2.782380 1.052394 0.786215
  C 1.975400 1.684230 1.912557
  H 2.190451 2.749302 1.958121
  C 3.315946 -1.027829 -0.446213
  C 4.571631 -0.698318 -0.913097
  C 5.061268 -1.530863 -1.958950
  C 4.578499 -1.452337 -3.359607
  C 3.227638 -0.774870 -3.582936
  C 2.933262 -0.651219 -5.073180
  O 6.065120 -2.350700 -1.786253
  H 1.128887 -0.651236 2.107117
  H 2.075216 -2.095089 1.716354
  H 0.817217 -1.563167 0.631003
  H 2.563202 1.572059 -0.149423
  H 3.847139 1.220742 0.984580
  H 2.234958 1.252155 2.877629
  H 0.907261 1.565782 1.749132
  H 2.931255 -1.929482 -0.918473
  H 5.237212 -0.007692 -0.415954
  H 4.598524 -2.444814 -3.820028
  H 5.355650 -0.862036 -3.861406
  H 3.226256 0.213375 -3.126312
  H 2.433426 -1.358244 -3.115161
  H 3.702574 -0.069007 -5.573437
  H 1.975503 -0.162667 -5.231265
  H 2.888702 -1.631891 -5.543768
  H 6.524432 -2.284828 -0.924123
 29
 30.992583
  C 1.845733 -1.380622 1.455426
  C 2.704937 -0.515572 0.623648
  C 2.700129 0.962774 0.709651
  C 1.743132 1.583840 1.716396
  H 1.802282 2.665650 1.644804
  C 3.495306 -1.105101 -0.353835
  C 4.676259 -0.672100 -0.931255
  C 4.984801 -1.600984 -1.968097
  C 4.512444 -1.394293 -3.351974
  C 3.282096 -0.502124 -3.522470
  C 2.859025 -0.457404 -4.986036
  O 5.931999 -2.476239 -1.844757
  H 1.357392 -0.827610 2.248796
  H 2.435240 -2.186192 1.896729
  H 1.078502 -1.858355 0.840242
  H 2.456979 1.344532 -0.288009
  H 3.714888 1.320423 0.900544
  H 1.998280 1.305956 2.735324
  H 0.716632 1.294369 1.513738
  H 3.197285 -2.050943 -0.828466
  H 5.343733 0.088813 -0.570737
  H 4.388167 -2.347925 -3.874100
  H 5.369535 -0.907489 -3.834079
  H 3.528335 0.511259 -3.197070
  H 2.456099 -0.873983 -2.915931
  H 3.657196 -0.066115 -5.608216
  H 1.994952 0.191192 -5.110494
  H 2.597047 -1.449445 -5.346871
  H 6.445467 -2.444251 -1.017927
 29
 49.120794
  C 2.205057 -1.480896 1.490921
  C 2.836252 -0.469969 0.613259
  C 2.499825 0.981562 0.641739
  C 1.532976 1.418343 1.730503
  H 1.359164 2.486049 1.642308
  C 3.725386 -0.888610 -0.380535
  C 4.871542 -0.512569 -1.004339
  C 4.870138 -1.627391 -1.951796
  C 4.389324 -1.432127 -3.342623
  C 3.253773 -0.423533 -3.499720
  C 2.903202 -0.231936 -4.971264
  O 5.580290 -2.691351 -1.766384
  H 1.576889 -1.022748 2.245152
  H 2.970483 -2.079690 1.985525
  H 1.590689 -2.173619 0.911550
  H 2.094695 1.262547 -0.334069
  H 3.434472 1.543501 0.748144
  H 1.937455 1.229333 2.719028
  H 0.572783 0.918315 1.634092
  H 3.456380 -1.840172 -0.968342
  H 5.657165 0.159778 -0.731191
  H 4.097546 -2.399359 -3.761178
  H 5.268990 -1.086332 -3.902965
  H 3.544643 0.537362 -3.068013
  H 2.369685 -0.778942 -2.968986
  H 3.760942 0.132209 -5.530619
  H 2.097866 0.490692 -5.078921
  H 2.579435 -1.167567 -5.416627
  H 6.175815 -2.682174 -0.995154
 29
 59.361958
  C 2.314559 -1.482447 1.417180
  C 2.945774 -0.421639 0.599751
  C 2.488862 1.005673 0.598454
  C 1.368557 1.340400 1.572256
  H 1.114123 2.392111 1.467901
  C 3.917404 -0.736309 -0.302119
  C 5.045459 -0.535957 -0.972793
  C 4.796773 -1.706611 -1.872618
  C 4.301701 -1.443764 -3.279446
  C 3.278378 -0.316129 -3.387131
  C 2.813999 -0.147826 -4.829568
  O 5.519227 -2.824878 -1.749048
  H 1.602877 -1.075021 2.124277
  H 3.075302 -2.040725 1.963369
  H 1.795087 -2.201301 0.781041
  H 2.174614 1.268369 -0.417056
  H 3.356919 1.637564 0.812967
  H 1.673141 1.173796 2.602202
  H 0.473562 0.759921 1.365216
  H 3.695470 -1.861963 -1.129824
  H 5.932051 0.025099 -0.765168
  H 3.896171 -2.370295 -3.688090
  H 5.188647 -1.188431 -3.868159
  H 3.720726 0.619612 -3.040993
  H 2.412965 -0.538910 -2.760237
  H 3.652059 0.088696 -5.481014
  H 2.089609 0.658976 -4.903798
  H 2.345949 -1.058886 -5.193860
  H 6.165756 -2.814143 -1.022486
 29
 51.565622
  C 2.455338 -1.384722 1.579155
  C 3.004538 -0.370531 0.650306
  C 2.413903 0.996813 0.493135
  C 1.254226 1.326373 1.413032
  H 0.916435 2.336854 1.202322
  C 3.995364 -0.687540 -0.193974
  C 5.064693 -0.680003 -0.942434
  C 4.730127 -1.829125 -1.874257
  C 4.275724 -1.445046 -3.284038
  C 3.256641 -0.313947 -3.319603
  C 2.817905 -0.029912 -4.752196
  O 5.502262 -2.956919 -1.828488
  H 1.670468 -0.978922 2.202137
  H 3.250751 -1.780796 2.216355
  H 2.054850 -2.233288 1.021884
  H 2.100617 1.116042 -0.547962
  H 3.213711 1.727650 0.644640
  H 1.549768 1.289839 2.456262
  H 0.417817 0.653766 1.255880
  H 3.735619 -2.053837 -1.282005
  H 5.997112 -0.150453 -0.838630
  H 3.881571 -2.336489 -3.771507
  H 5.175709 -1.142808 -3.829981
  H 3.691665 0.590013 -2.891910
  H 2.380677 -0.587567 -2.728498
  H 3.664326 0.272526 -5.362139
  H 2.082609 0.770478 -4.772946
  H 2.372192 -0.913616 -5.202411
  H 6.174051 -2.943413 -1.129132
 29
 42.413045
  C 2.404270 -1.335288 1.551820
  C 2.935762 -0.286328 0.653213
  C 2.349803 1.090318 0.584011
  C 1.211353 1.379600 1.546149
  H 0.864936 2.396788 1.381086
  C 3.926696 -0.568153 -0.192712
  C 4.970882 -0.726945 -0.950037
  C 4.699604 -1.893749 -1.878587
  C 4.348104 -1.449130 -3.312971
  C 3.250431 -0.396644 -3.381836
  C 2.893752 -0.088920 -4.832787
  O 5.628793 -2.917094 -1.871640
  H 1.679405 -0.937699 2.251510
  H 3.222558 -1.802379 2.100446
  H 1.932057 -2.128279 0.971609
  H 2.015762 1.254689 -0.446419
  H 3.154917 1.813885 0.747942
  H 1.532185 1.307995 2.582704
  H 0.372043 0.708280 1.384898
  H 3.742876 -2.261243 -1.418464
  H 5.942959 -0.282749 -0.817746
  H 4.057739 -2.345407 -3.861782
  H 5.263042 -1.061347 -3.767437
  H 3.582428 0.520475 -2.893081
  H 2.358365 -0.759627 -2.867691
  H 3.760827 0.284549 -5.372068
  H 2.113026 0.665608 -4.879634
  H 2.535455 -0.981125 -5.340419
  H 6.272781 -2.840893 -1.153090
 29
 36.625148
  C 2.357244 -1.258076 1.639892
  C 2.904441 -0.302939 0.652987
  C 2.375516 1.084242 0.496122
  C 1.260860 1.490260 1.441509
  H 0.953735 2.505984 1.204739
  C 3.901879 -0.682351 -0.149447
  C 4.915708 -0.962744 -0.899492
  C 4.732879 -2.031859 -1.955236
  C 4.390866 -1.361354 -3.308067
  C 3.123908 -0.518637 -3.287224
  C 2.800487 -0.006824 -4.688372
  O 5.826827 -2.877786 -2.122140
  H 1.634692 -0.792917 2.299253
  H 3.172816 -1.684568 2.225092
  H 1.879394 -2.097759 1.133093
  H 2.034720 1.180955 -0.541958
  H 3.208960 1.789270 0.589502
  H 1.589781 1.483459 2.478453
  H 0.393977 0.842518 1.338804
  H 3.858068 -2.620148 -1.633533
  H 5.903389 -0.548086 -0.752073
  H 4.284712 -2.183670 -4.018166
  H 5.244603 -0.756995 -3.619498
  H 3.254401 0.334030 -2.620579
  H 2.286990 -1.119147 -2.926203
  H 3.615424 0.601525 -5.072991
  H 1.898334 0.599067 -4.672152
  H 2.641102 -0.834603 -5.375201
  H 6.491531 -2.766682 -1.429560
 29
 35.061274
  C 2.164411 -1.159716 1.480289
  C 2.863548 -0.211817 0.587038
  C 2.486818 1.222962 0.486766
  C 1.335727 1.684818 1.363082
  H 1.151870 2.738419 1.179529
  C 3.886332 -0.661487 -0.153748
  C 4.891288 -1.125898 -0.808124
  C 4.796038 -2.119637 -1.954109
  C 4.455660 -1.338195 -3.236432
  C 3.059312 -0.731201 -3.241334
  C 2.750171 -0.083515 -4.591291
  O 5.980375 -2.842285 -2.165257
  H 1.459869 -0.657355 2.132725
  H 2.894860 -1.720146 2.069892
  H 1.624310 -1.907481 0.890892
  H 2.252332 1.425848 -0.566248
  H 3.374839 1.834147 0.693943
  H 1.566020 1.575684 2.419119
  H 0.424610 1.139279 1.142621
  H 3.980324 -2.824564 -1.739697
  H 5.900034 -0.803976 -0.574622
  H 4.543549 -2.070180 -4.045236
  H 5.214310 -0.570017 -3.405190
  H 2.983013 0.029536 -2.461615
  H 2.319557 -1.509221 -3.037218
  H 3.469558 0.700111 -4.816197
  H 1.755796 0.355557 -4.583448
  H 2.789418 -0.819915 -5.390347
  H 6.555448 -2.839966 -1.389261
 29
 35.510181
  C 1.862377 -1.141705 1.164485
  C 2.849197 -0.246561 0.519175
  C 2.739984 1.243704 0.584664
  C 1.505676 1.790727 1.279427
  H 1.530144 2.876802 1.229542
  C 3.873322 -0.778110 -0.153585
  C 4.954527 -1.184384 -0.735242
  C 4.989493 -2.051483 -1.968130
  C 4.455393 -1.258289 -3.187739
  C 2.985134 -0.889185 -3.089491
  C 2.487334 -0.285738 -4.401800
  O 6.246748 -2.571013 -2.278560
  H 1.205048 -0.600459 1.834453
  H 2.379340 -1.937054 1.701079
  H 1.250512 -1.634520 0.406571
  H 2.783948 1.623724 -0.441881
  H 3.637980 1.634472 1.075807
  H 1.477978 1.517108 2.332091
  H 0.593548 1.446920 0.798247
  H 4.296524 -2.886628 -1.782504
  H 5.912247 -0.965894 -0.272212
  H 4.615297 -1.920656 -4.041034
  H 5.072161 -0.370140 -3.333748
  H 2.833766 -0.156693 -2.296311
  H 2.395623 -1.777795 -2.856629
  H 3.059107 0.602387 -4.659807
  H 1.440237 -0.007686 -4.316587
  H 2.585828 -1.001008 -5.214539
  H 6.910921 -2.361053 -1.609226
 29
 28.664445
  C 1.899133 -1.068870 1.143537
  C 2.898196 -0.217922 0.464507
  C 2.760418 1.262432 0.425128
  C 1.454085 1.818296 0.964830
  H 1.438383 2.896281 0.825154
  C 3.954128 -0.793309 -0.132602
  C 4.987002 -1.360481 -0.636961
  C 5.017620 -2.178628 -1.938289
  C 4.469594 -1.285204 -3.069541
  C 2.964346 -1.114662 -2.987981
  C 2.444369 -0.119031 -4.018566
  O 6.272438 -2.698399 -2.202380
  H 1.472222 -0.557455 2.001126
  H 2.329126 -2.022691 1.436831
  H 1.073883 -1.280852 0.460539
  H 2.907597 1.594945 -0.607811
  H 3.598741 1.699609 0.980733
  H 1.341161 1.627767 2.029454
  H 0.600672 1.392428 0.443740
  H 4.362665 -3.047149 -1.805695
  H 5.946974 -1.311276 -0.139526
  H 4.734829 -1.778612 -4.008425
  H 4.961564 -0.309783 -3.050186
  H 2.702217 -0.751078 -1.986125
  H 2.475456 -2.080844 -3.121737
  H 2.912353 0.854198 -3.892501
  H 1.368754 0.001340 -3.923106
  H 2.658520 -0.468587 -5.025596
  H 6.922947 -1.992674 -2.342029
