 28
 0.000000
  C 0.953957 0.144534 0.410903
  C 2.427073 0.139861 0.398922
  C 3.222150 0.604992 1.556282
  C 2.462385 1.098293 2.784131
  C 3.432814 1.537067 3.876579
  C 3.038119 -0.326710 -0.762421
  C 4.420874 -0.411019 -0.973606
  C 5.091380 -0.857322 -2.086447
  C 4.628231 -1.377790 -3.383239
  C 3.147008 -1.506726 -3.703726
  H 3.023234 -1.907892 -4.703553
  H 6.172157 -0.840521 -2.045573
  H 0.528388 0.516100 1.335417
  H 0.579781 -0.865988 0.239715
  H 0.579502 0.755401 -0.411969
  H 3.881786 1.411423 1.215680
  H 3.881845 -0.212870 1.868323
  H 1.826405 0.304594 3.180343
  H 1.826492 1.945581 2.521133
  H 4.068439 0.711495 4.188997
  H 2.885346 1.887200 4.748182
  H 4.068562 2.349255 3.531077
  H 2.377801 -0.643783 -1.551028
  H 5.044253 -0.081405 -0.153369
  H 5.101585 -2.361393 -3.503059
  H 5.101314 -0.749749 -4.149843
  H 2.657935 -0.535756 -3.668703
  H 2.658358 -2.184463 -3.007257
 28
 0.878305
  C 0.921714 0.481956 0.266989
  C 2.394024 0.447473 0.233383
  C 3.210003 0.683757 1.442112
  C 2.479530 0.879642 2.765871
  C 3.476484 1.068381 3.903291
  C 2.995007 0.143081 -0.982083
  C 4.381695 0.136756 -1.220287
  C 5.069027 -0.522848 -2.203574
  C 4.638870 -1.519922 -3.192479
  C 3.175102 -1.907760 -3.305806
  H 3.073301 -2.708965 -4.035294
  H 6.139510 -0.342801 -2.231353
  H 0.521491 0.779873 1.226068
  H 0.523953 -0.503564 0.014543
  H 0.547946 1.151304 -0.509367
  H 3.833573 1.568593 1.255998
  H 3.920025 -0.140055 1.556068
  H 1.858034 0.010385 2.984563
  H 1.836024 1.759869 2.718667
  H 4.125226 0.201022 4.000903
  H 2.952913 1.204155 4.847444
  H 4.098092 1.945644 3.735834
  H 2.334115 -0.059639 -1.809526
  H 4.988019 0.718905 -0.538070
  H 5.241972 -2.419498 -3.001431
  H 5.002045 -1.172593 -4.169998
  H 2.569144 -1.073969 -3.649847
  H 2.791562 -2.268115 -2.353682
 28
 4.983994
  C 0.873692 0.654245 0.134599
  C 2.343837 0.638782 0.047292
  C 3.205846 0.709704 1.245990
  C 2.530592 0.651526 2.611411
  C 3.570888 0.679172 3.727815
  C 2.915157 0.512932 -1.207166
  C 4.313839 0.534422 -1.465893
  C 5.057803 -0.336438 -2.190850
  C 4.654607 -1.608406 -2.820820
  C 3.192906 -2.014735 -2.763044
  H 3.065850 -2.982279 -3.244760
  H 6.118895 -0.131500 -2.268248
  H 0.508739 0.799079 1.143002
  H 0.468287 -0.281816 -0.250240
  H 0.471345 1.432389 -0.516649
  H 3.781546 1.642506 1.178207
  H 3.960191 -0.080935 1.194147
  H 1.943384 -0.264218 2.700285
  H 1.858978 1.502425 2.741095
  H 4.249474 -0.166967 3.650247
  H 3.084817 0.631248 4.699556
  H 4.157394 1.594040 3.691458
  H 2.251340 0.449823 -2.055216
  H 4.853350 1.329791 -0.964044
  H 5.281638 -2.396891 -2.386195
  H 4.973526 -1.552581 -3.871154
  H 2.562503 -1.302513 -3.284790
  H 2.856241 -2.104257 -1.731546
 28
 10.132381
  C 0.850616 0.784834 0.011929
  C 2.318725 0.747638 -0.107915
  C 3.208690 0.699788 1.073040
  C 2.569473 0.463484 2.435349
  C 3.634344 0.372031 3.522905
  C 2.867556 0.737052 -1.377055
  C 4.280137 0.732069 -1.653078
  C 5.054935 -0.241582 -2.146552
  C 4.645738 -1.631033 -2.482766
  C 3.200810 -2.003081 -2.210859
  H 3.015714 -3.021067 -2.545277
  H 6.104928 -0.039064 -2.296941
  H 0.510690 0.837796 1.036334
  H 0.414711 -0.098426 -0.451594
  H 0.453312 1.630596 -0.552386
  H 3.761883 1.647594 1.102940
  H 3.985182 -0.056631 0.907867
  H 1.997924 -0.464609 2.422214
  H 1.887413 1.278386 2.685427
  H 4.325166 -0.444963 3.326219
  H 3.172308 0.194688 4.490198
  H 4.205697 1.296430 3.588891
  H 2.197125 0.833946 -2.223545
  H 4.768683 1.674610 -1.407350
  H 5.318881 -2.315992 -1.957142
  H 4.859196 -1.765010 -3.551749
  H 2.520680 -1.353096 -2.750373
  H 2.982632 -1.960309 -1.148025
 28
 9.822170
  C 0.851510 0.898090 -0.107592
  C 2.316596 0.826331 -0.241882
  C 3.217233 0.666710 0.924220
  C 2.589906 0.304828 2.264841
  C 3.665105 0.101142 3.327438
  C 2.880925 0.916329 -1.497648
  C 4.294122 0.838589 -1.783546
  C 5.055106 -0.220855 -2.070824
  C 4.590165 -1.632552 -2.186454
  C 3.190173 -1.911214 -1.691266
  H 2.916317 -2.941379 -1.911458
  H 6.094093 -0.067892 -2.315623
  H 0.519990 0.880309 0.922819
  H 0.387214 0.070787 -0.639548
  H 0.475504 1.802299 -0.592240
  H 3.785539 1.598540 1.049618
  H 3.986107 -0.069132 0.657653
  H 2.008181 -0.611703 2.165119
  H 1.919150 1.093229 2.600530
  H 4.345268 -0.699856 3.046776
  H 3.210559 -0.162770 4.278661
  H 4.247236 1.010683 3.474398
  H 2.243823 1.178483 -2.338390
  H 4.759290 1.822249 -1.858172
  H 5.305834 -2.256897 -1.637494
  H 4.683758 -1.923286 -3.239391
  H 2.471361 -1.265608 -2.198549
  H 3.110877 -1.760268 -0.617986
 28
 6.451704
  C 0.870631 1.074502 -0.133524
  C 2.329587 0.928135 -0.303721
  C 3.233811 0.703035 0.846741
  C 2.616704 0.175203 2.137436
  C 3.703763 -0.130836 3.163132
  C 2.872007 1.057274 -1.561796
  C 4.251011 0.885973 -1.911655
  C 5.012878 -0.224784 -1.954254
  C 4.569939 -1.638501 -1.907600
  C 3.152484 -1.926210 -1.451083
  H 2.908772 -2.966852 -1.653030
  H 6.060557 -0.106620 -2.197050
  H 0.565196 1.054658 0.905630
  H 0.349133 0.276810 -0.665510
  H 0.531715 2.004379 -0.589535
  H 3.736053 1.654023 1.070468
  H 4.048308 0.044245 0.522709
  H 2.049183 -0.734694 1.934563
  H 1.934005 0.909019 2.567970
  H 4.400484 -0.874593 2.784429
  H 3.261182 -0.519544 4.076757
  H 4.263752 0.766069 3.416996
  H 2.240755 1.447139 -2.356741
  H 4.711659 1.802633 -2.283492
  H 5.287463 -2.193161 -1.292257
  H 4.709503 -2.033027 -2.921583
  H 2.441065 -1.304177 -1.993442
  H 3.027928 -1.749256 -0.387926
 28
 4.769270
  C 0.922481 1.152288 -0.134514
  C 2.375454 0.982872 -0.328004
  C 3.280942 0.695805 0.807592
  C 2.668753 0.099725 2.072271
  C 3.761753 -0.252863 3.076035
  C 2.904504 1.189360 -1.586896
  C 4.221600 0.899353 -2.018632
  C 4.970526 -0.228080 -1.892867
  C 4.532634 -1.618603 -1.648729
  C 3.049539 -1.895479 -1.468775
  H 2.881602 -2.969959 -1.490858
  H 6.019979 -0.149370 -2.147318
  H 0.626296 1.084775 0.905044
  H 0.383796 0.390114 -0.699759
  H 0.595258 2.108688 -0.543288
  H 3.763793 1.644398 1.078549
  H 4.104468 0.066430 0.458502
  H 2.104879 -0.799791 1.827773
  H 1.985332 0.807715 2.542788
  H 4.457862 -0.977632 2.658859
  H 3.324504 -0.685096 3.973648
  H 4.321911 0.632447 3.368181
  H 2.295144 1.734040 -2.299846
  H 4.668516 1.695961 -2.609461
  H 5.104275 -2.015618 -0.801164
  H 4.897270 -2.193471 -2.509226
  H 2.477063 -1.449331 -2.279099
  H 2.670663 -1.520153 -0.524480
 28
 6.427539
  C 0.941812 1.057704 -0.111500
  C 2.401207 0.906580 -0.264880
  C 3.287081 0.565036 0.873902
  C 2.638356 0.291827 2.226071
  C 3.695353 -0.090915 3.257420
  C 2.969844 1.149789 -1.497881
  C 4.309091 0.873498 -1.887196
  C 4.988497 -0.294762 -1.960645
  C 4.480969 -1.682358 -1.907717
  C 2.998448 -1.917826 -1.669930
  H 2.796665 -2.984597 -1.724804
  H 6.042252 -0.236178 -2.207806
  H 0.599244 0.863059 0.897805
  H 0.425577 0.387907 -0.799864
  H 0.638777 2.064855 -0.398260
  H 4.017331 1.374332 0.991624
  H 3.903105 -0.295946 0.585558
  H 1.914225 -0.522662 2.144155
  H 2.113578 1.182006 2.579533
  H 4.239579 -0.980231 2.946697
  H 3.229632 -0.300795 4.215826
  H 4.409055 0.716520 3.401755
  H 2.389288 1.717243 -2.216922
  H 4.813700 1.738810 -2.314889
  H 5.079283 -2.228974 -1.170577
  H 4.756038 -2.133611 -2.871609
  H 2.407090 -1.427944 -2.441417
  H 2.669245 -1.566752 -0.698443
 28
 5.706096
  C 0.967355 1.146716 -0.118471
  C 2.420545 0.949744 -0.277270
  C 3.298022 0.597380 0.862767
  C 2.635772 0.207758 2.178040
  C 3.688670 -0.196676 3.205848
  C 2.990049 1.175817 -1.513682
  C 4.315794 0.854801 -1.917479
  C 4.981639 -0.324547 -1.918236
  C 4.454139 -1.703125 -1.803657
  C 2.960130 -1.908787 -1.593774
  H 2.736504 -2.973890 -1.650442
  H 6.037453 -0.292560 -2.167653
  H 0.627630 0.981096 0.892761
  H 0.426055 0.477005 -0.789587
  H 0.691802 2.155241 -0.425002
  H 3.962497 1.450479 1.046963
  H 3.980116 -0.197380 0.545320
  H 1.952160 -0.628158 2.023558
  H 2.064720 1.045363 2.579726
  H 4.274529 -1.039364 2.852787
  H 3.212789 -0.486764 4.141134
  H 4.364951 0.628306 3.415549
  H 2.422965 1.757959 -2.230397
  H 4.826834 1.681676 -2.403348
  H 5.028255 -2.221015 -1.022934
  H 4.747772 -2.205752 -2.731853
  H 2.393095 -1.406700 -2.376087
  H 2.620070 -1.549696 -0.628227
 28
 5.243585
  C 0.969032 1.199571 -0.129152
  C 2.418011 0.981878 -0.299537
  C 3.300352 0.637187 0.839760
  C 2.644761 0.132631 2.122398
  C 3.706156 -0.261495 3.143431
  C 2.978129 1.192036 -1.542977
  C 4.293016 0.849263 -1.961390
  C 4.972470 -0.321582 -1.888207
  C 4.453473 -1.694386 -1.709306
  C 2.957735 -1.895291 -1.509171
  H 2.730044 -2.957123 -1.568348
  H 6.025877 -0.294638 -2.139120
  H 0.640630 1.066832 0.891407
  H 0.412922 0.515825 -0.771047
  H 0.699644 2.201500 -0.464122
  H 3.887825 1.531346 1.081588
  H 4.048376 -0.082241 0.497902
  H 2.018296 -0.733918 1.908813
  H 2.015726 0.906112 2.561344
  H 4.348573 -1.049701 2.755495
  H 3.236887 -0.628060 4.053585
  H 4.329064 0.591434 3.406665
  H 2.409771 1.768480 -2.263647
  H 4.792483 1.654475 -2.499166
  H 5.017497 -2.168331 -0.898348
  H 4.763480 -2.241611 -2.606446
  H 2.396437 -1.388258 -2.291726
  H 2.615648 -1.537011 -0.544327
