 20
 0.000000
  C 1.006097 -0.072039 0.046876
  C 2.502501 -0.082770 0.025612
  C 3.220131 -0.594957 -0.979808
  C 4.657878 -0.605249 -1.000425
  C 5.378335 -1.120478 -2.012286
  C 6.816625 -1.130727 -2.031791
  C 7.534656 -1.642267 -3.036438
  C 9.024548 -1.662145 -3.074812
  H 0.645470 0.395249 0.962183
  H 0.608751 -1.086455 0.010464
  H 0.609691 0.492608 -0.796695
  H 3.001989 0.353470 0.880510
  H 2.710265 -1.028765 -1.831315
  H 5.163561 -0.171170 -0.146574
  H 4.874057 -1.555026 -2.866236
  H 7.323442 -0.696641 -1.178771
  H 7.035656 -2.078116 -3.892905
  H 9.458387 -1.209347 -2.185064
  H 9.383859 -1.116220 -3.948510
  H 9.383499 -2.689933 -3.147464
 20
 -0.640508
  C 1.003843 -0.082160 0.065513
  C 2.495673 -0.111241 0.040076
  C 3.220216 -0.548346 -0.993398
  C 4.655103 -0.597940 -1.004734
  C 5.381849 -1.082234 -2.026934
  C 6.817076 -1.134287 -2.036766
  C 7.540054 -1.618030 -3.049613
  C 9.027453 -1.679225 -3.075470
  H 0.640563 0.689179 0.740778
  H 0.615420 -1.041210 0.413581
  H 0.600743 0.096889 -0.929312
  H 2.997687 0.229225 0.936253
  H 2.718547 -0.892238 -1.890055
  H 5.159679 -0.215854 -0.125919
  H 4.877454 -1.463257 -2.905822
  H 7.319100 -0.751240 -1.156282
  H 7.039210 -2.001368 -3.930108
  H 9.452411 -1.274466 -2.159940
  H 9.414838 -1.113365 -3.923971
  H 9.361483 -2.710552 -3.192659
 20
 0.108595
  C 1.026482 0.043487 0.027156
  C 2.512889 -0.051332 -0.013302
  C 3.202939 -0.755849 -0.911186
  C 4.640519 -0.854803 -0.914281
  C 5.371274 -1.161475 -1.998264
  C 6.806997 -1.233539 -2.004129
  C 7.535672 -1.519962 -3.085017
  C 9.022958 -1.589163 -3.110453
  H 0.707507 1.059968 0.252436
  H 0.647054 -0.603036 0.820482
  H 0.585638 -0.270861 -0.915738
  H 3.041718 0.489890 0.761276
  H 2.678719 -1.276251 -1.703792
  H 5.136451 -0.642505 0.024960
  H 4.871749 -1.371477 -2.936167
  H 7.302630 -1.036428 -1.061011
  H 7.040819 -1.715445 -4.028162
  H 9.440578 -1.408875 -2.122979
  H 9.423522 -0.846900 -3.802414
  H 9.350966 -2.568741 -3.458616
 20
 4.514160
  C 1.064399 0.123457 0.031554
  C 2.540837 0.062909 -0.180341
  C 3.166707 -0.890378 -0.862025
  C 4.618565 -1.040599 -0.885146
  C 5.359169 -1.161943 -1.991401
  C 6.791524 -1.316660 -1.986749
  C 7.534329 -1.412066 -3.090025
  C 9.015727 -1.565053 -3.104197
  H 0.709460 1.149558 0.095231
  H 0.848676 -0.365066 0.982887
  H 0.527285 -0.398690 -0.756784
  H 3.122908 0.813237 0.340971
  H 2.591710 -1.633779 -1.403116
  H 5.087200 -1.050580 0.090930
  H 4.877476 -1.146665 -2.961149
  H 7.267115 -1.352551 -1.014279
  H 7.057798 -1.376099 -4.061543
  H 9.412502 -1.631488 -2.094088
  H 9.477361 -0.714595 -3.607447
  H 9.299438 -2.462454 -3.654740
 20
 9.864181
  C 1.126520 0.138151 0.143768
  C 2.523819 0.146359 -0.379155
  C 3.098181 -0.898308 -0.958014
  C 4.547078 -1.109506 -0.993873
  C 5.340614 -1.122676 -2.063160
  C 6.762167 -1.364495 -2.006789
  C 7.562411 -1.349719 -3.072274
  C 9.031151 -1.601908 -3.035109
  H 0.712393 1.134920 0.255880
  H 1.212173 -0.321473 1.130483
  H 0.466523 -0.471117 -0.470951
  H 3.140996 0.982022 -0.065579
  H 2.486789 -1.736193 -1.274423
  H 4.933107 -1.260402 0.006164
  H 4.919349 -0.933405 -3.042729
  H 7.175137 -1.556887 -1.024801
  H 7.148309 -1.131962 -4.049308
  H 9.360367 -1.847613 -2.029513
  H 9.576969 -0.724612 -3.382591
  H 9.287544 -2.430189 -3.698635
 20
 17.595502
  C 1.234277 0.100863 0.311206
  C 2.474464 0.227124 -0.507091
  C 3.013335 -0.799828 -1.159317
  C 4.450963 -1.072000 -1.169070
  C 5.312885 -1.077518 -2.184637
  C 6.711009 -1.409663 -2.049618
  C 7.590515 -1.344448 -3.047995
  C 9.041371 -1.660481 -2.921100
  H 0.784792 1.047847 0.592122
  H 1.630484 -0.393031 1.205107
  H 0.498518 -0.550729 -0.152624
  H 3.113300 1.066460 -0.255418
  H 2.377637 -1.645738 -1.418782
  H 4.743550 -1.270458 -0.141987
  H 4.968664 -0.818835 -3.178277
  H 7.032603 -1.729129 -1.065147
  H 7.261232 -1.041598 -4.033671
  H 9.286291 -1.974008 -1.908855
  H 9.643723 -0.786412 -3.173382
  H 9.315032 -2.457004 -3.611000
 20
 29.628398
  C 1.385951 0.023401 0.434625
  C 2.429205 0.296791 -0.596908
  C 2.943487 -0.689818 -1.331236
  C 4.355827 -1.001727 -1.308200
  C 5.285816 -0.995350 -2.283991
  C 6.655438 -1.410244 -2.081835
  C 7.590497 -1.349110 -3.014356
  C 9.012566 -1.751979 -2.808695
  H 0.941617 0.887813 0.916278
  H 2.024567 -0.513523 1.149803
  H 0.627129 -0.672870 0.072066
  H 3.078393 1.147658 -0.379139
  H 2.289143 -1.556705 -1.558620
  H 4.565410 -1.219107 -0.277334
  H 5.017560 -0.666230 -3.267861
  H 6.893060 -1.784161 -1.084161
  H 7.347035 -0.967629 -4.001822
  H 9.164472 -2.149288 -1.800498
  H 9.695713 -0.875977 -2.960530
  H 9.287132 -2.499089 -3.511393
 20
 43.174887
  C 1.585430 -0.081599 0.527054
  C 2.391032 0.380079 -0.648066
  C 2.866420 -0.557979 -1.506257
  C 4.251289 -0.918474 -1.474577
  C 5.238999 -0.925242 -2.365056
  C 6.578000 -1.436222 -2.083554
  C 7.586019 -1.373392 -2.960388
  C 8.967709 -1.812895 -2.672493
  H 1.174466 0.693232 1.178645
  H 2.447945 -0.593701 1.043813
  H 0.839821 -0.851151 0.300395
  H 3.016473 1.231413 -0.461461
  H 2.191262 -1.395113 -1.731252
  H 4.385358 -1.189892 -0.407817
  H 5.081630 -0.507325 -3.346526
  H 6.724916 -1.870465 -1.116317
  H 7.419195 -0.945431 -3.941700
  H 9.043779 -2.242895 -1.671358
  H 9.654471 -0.972400 -2.749660
  H 9.291395 -2.566379 -3.396321
 20
 59.761437
  C 1.852936 -0.195089 0.532898
  C 2.417818 0.407761 -0.679702
  C 2.787096 -0.460160 -1.604666
  C 4.157659 -0.845417 -1.596432
  C 5.180398 -0.872681 -2.438465
  C 6.476903 -1.389392 -2.085609
  C 7.510452 -1.349784 -2.871676
  C 8.864825 -1.856566 -2.515927
  H 1.575084 0.482611 1.336595
  H 2.844736 -0.708286 0.821919
  H 1.154592 -1.018483 0.395013
  H 3.064750 1.273438 -0.520140
  H 2.086439 -1.291427 -1.800257
  H 4.259094 -1.129675 -0.516934
  H 5.086369 -0.437933 -3.436206
  H 6.543301 -1.838012 -1.096285
  H 7.419062 -0.941505 -3.852518
  H 8.870289 -2.303858 -1.527326
  H 9.596412 -1.056777 -2.546651
  H 9.180116 -2.616950 -3.246796
 20
 78.373263
  C 2.036706 -0.249955 0.539640
  C 2.385569 0.416150 -0.673791
  C 2.694685 -0.448817 -1.683745
  C 4.056539 -0.760977 -1.696181
  C 5.145019 -0.807019 -2.478307
  C 6.407143 -1.380003 -2.068770
  C 7.495481 -1.373532 -2.833669
  C 8.817982 -1.899535 -2.415152
  H 1.877295 0.362311 1.448195
  H 3.200067 -0.774681 0.629226
  H 1.430031 -1.146094 0.498188
  H 2.994510 1.309497 -0.582175
  H 2.011140 -1.296954 -1.838372
  H 4.154854 -1.035325 -0.494657
  H 5.108469 -0.380557 -3.473999
  H 6.427837 -1.847593 -1.102621
  H 7.459341 -0.940534 -3.822701
  H 8.762844 -2.347439 -1.410433
  H 9.544403 -1.116609 -2.405444
  H 9.164478 -2.657794 -3.128826
 20
 89.049052
  C 2.112795 -0.242292 0.553671
  C 2.360217 0.394474 -0.652108
  C 2.673864 -0.478444 -1.716176
  C 4.019150 -0.743190 -1.777774
  C 5.118972 -0.791634 -2.505802
  C 6.379148 -1.333856 -2.055522
  C 7.481219 -1.364468 -2.803173
  C 8.789279 -1.920798 -2.358789
  H 2.039253 0.335336 1.463693
  H 3.524318 -0.908064 0.545109
  H 1.533675 -1.156401 0.558270
  H 2.898773 1.335490 -0.617077
  H 2.014726 -1.332405 -1.861564
  H 4.177259 -1.130748 -0.359144
  H 5.102518 -0.378293 -3.508364
  H 6.395658 -1.733771 -1.048657
  H 7.459920 -0.962466 -3.808540
  H 8.723720 -2.317995 -1.348681
  H 9.556386 -1.146028 -2.383181
  H 9.109333 -2.717247 -3.031167
 20
 84.552644
  C 2.082724 -0.224195 0.585660
  C 2.316512 0.349618 -0.616659
  C 2.673629 -0.540072 -1.734560
  C 4.002328 -0.736527 -1.852756
  C 5.129463 -0.759180 -2.534257
  C 6.395684 -1.298782 -2.053294
  C 7.502478 -1.393841 -2.807780
  C 8.816434 -1.931236 -2.339983
  H 2.023468 0.394404 1.473995
  H 3.731469 -0.980999 0.569557
  H 1.588704 -1.161553 0.658778
  H 2.792708 1.327990 -0.634584
  H 2.008840 -1.424955 -1.869836
  H 4.253781 -1.174001 -0.188624
  H 5.124930 -0.377563 -3.536488
  H 6.422874 -1.599078 -1.000218
  H 7.476359 -1.041131 -3.822691
  H 8.762827 -2.292410 -1.318061
  H 9.564099 -1.161271 -2.391667
  H 9.146561 -2.761714 -2.990244
 20
 72.598085
  C 2.022152 -0.156082 0.594662
  C 2.317946 0.295618 -0.630591
  C 2.724732 -0.658406 -1.667010
  C 4.009328 -0.791122 -1.920952
  C 5.135541 -0.800274 -2.580797
  C 6.391016 -1.329992 -2.083171
  C 7.506587 -1.377325 -2.807016
  C 8.815993 -1.909260 -2.325513
  H 1.887374 0.526288 1.412852
  H 4.000814 -0.976128 0.725857
  H 1.609247 -1.142732 0.746422
  H 2.733522 1.292418 -0.737324
  H 2.095876 -1.531973 -1.753447
  H 4.447280 -1.195448 0.070517
  H 5.150800 -0.383894 -3.583861
  H 6.390471 -1.687117 -1.059802
  H 7.501467 -0.989863 -3.817634
  H 8.732575 -2.312342 -1.319975
  H 9.565504 -1.118573 -2.328529
  H 9.171594 -2.701366 -2.990156
 20
 65.567274
  C 1.971676 -0.142884 0.623145
  C 2.330719 0.244646 -0.594694
  C 2.767157 -0.736142 -1.597005
  C 4.015260 -0.811513 -1.979210
  C 5.141470 -0.856318 -2.644085
  C 6.383468 -1.398208 -2.134273
  C 7.525954 -1.389071 -2.817943
  C 8.825023 -1.900065 -2.299991
  H 1.741367 0.569877 1.398690
  H 4.223082 -0.813665 0.872566
  H 1.693894 -1.164020 0.829604
  H 2.641175 1.268122 -0.770618
  H 2.154219 -1.630164 -1.666830
  H 4.678400 -1.000636 0.252390
  H 5.175421 -0.437490 -3.644576
  H 6.344466 -1.853144 -1.151621
  H 7.563234 -0.918037 -3.791359
  H 8.707667 -2.342324 -1.313654
  H 9.547547 -1.086873 -2.237744
  H 9.236301 -2.649931 -2.974062
 20
 62.800815
  C 1.996077 -0.117344 0.618472
  C 2.292892 0.232701 -0.622898
  C 2.733006 -0.771102 -1.624620
  C 3.956926 -0.783500 -2.058457
  C 5.118592 -0.809212 -2.660989
  C 6.339572 -1.376747 -2.128995
  C 7.503008 -1.345899 -2.775924
  C 8.772722 -1.923396 -2.254060
  H 1.784666 0.620439 1.379369
  H 4.508378 -0.906306 0.913900
  H 1.873597 -1.145858 0.913373
  H 2.453200 1.269060 -0.877513
  H 2.088934 -1.627440 -1.781924
  H 4.881357 -1.102999 0.242031
  H 5.203107 -0.340553 -3.640233
  H 6.279570 -1.844861 -1.154374
  H 7.568572 -0.870894 -3.744964
  H 8.624183 -2.382593 -1.277059
  H 9.531581 -1.143293 -2.165160
  H 9.157561 -2.678045 -2.941245
