 23
 0.000000
  H 1.534067 0.143424 0.407695
  C 2.614439 0.138678 0.397034
  C 3.330804 0.615957 1.584876
  C 2.430625 1.075766 2.727310
  C 3.253138 1.554545 3.919423
  C 3.216129 -0.324124 -0.754475
  C 4.595324 -0.408855 -0.965257
  C 5.204371 -0.876355 -2.132525
  C 4.505185 -1.359492 -3.337852
  H 3.425815 -1.338931 -3.286195
  O 6.507504 -0.917185 -2.236689
  H 3.993228 1.441814 1.298266
  H 3.992516 -0.178941 1.949873
  H 1.786734 0.254259 3.046545
  H 1.787729 1.890304 2.388795
  H 3.885440 0.756694 4.302244
  H 2.598644 1.878647 4.724600
  H 3.886424 2.394701 3.643694
  H 2.561395 -0.643926 -1.551611
  H 5.245716 -0.087167 -0.162671
  H 4.840701 -2.377004 -3.544665
  H 4.840518 -0.766388 -4.190213
  H 6.993955 -0.601219 -1.450573
 23
 0.080383
  H 1.559208 0.429941 0.349039
  C 2.631698 0.281862 0.338090
  C 3.346391 0.641679 1.569097
  C 2.433255 1.065766 2.713552
  C 3.236125 1.432672 3.958071
  C 3.208623 -0.207672 -0.811659
  C 4.588246 -0.298440 -1.017708
  C 5.207016 -0.850394 -2.141874
  C 4.504406 -1.535822 -3.246691
  H 3.434902 -1.587594 -3.107463
  O 6.503763 -0.811896 -2.278503
  H 4.048804 1.463724 1.352193
  H 3.978400 -0.196039 1.896385
  H 1.750437 0.254054 2.956198
  H 1.831174 1.924765 2.407853
  H 3.826911 0.585656 4.303821
  H 2.570744 1.728719 4.764964
  H 3.909052 2.263950 3.756456
  H 2.544270 -0.509567 -1.605240
  H 5.232189 0.133596 -0.261104
  H 4.909871 -2.544724 -3.352836
  H 4.730926 -1.030156 -4.182088
  H 6.990834 -0.360356 -1.562051
 23
 1.718798
  H 1.581236 0.799634 0.256076
  C 2.623528 0.508886 0.234505
  C 3.341193 0.668125 1.508065
  C 2.442905 1.045693 2.683810
  C 3.247302 1.196823 3.969843
  C 3.184460 0.001681 -0.911452
  C 4.567366 -0.086055 -1.104755
  C 5.200744 -0.773750 -2.140542
  C 4.529561 -1.781072 -2.981372
  H 3.484137 -1.909069 -2.729857
  O 6.470249 -0.611389 -2.393559
  H 4.108989 1.446260 1.393723
  H 3.892200 -0.247901 1.747977
  H 1.683434 0.274188 2.826211
  H 1.926715 1.983828 2.471173
  H 3.744928 0.265711 4.227944
  H 2.594482 1.468702 4.796083
  H 4.000207 1.973331 3.868418
  H 2.525261 -0.263673 -1.726028
  H 5.177657 0.500324 -0.427703
  H 5.050061 -2.732965 -2.873933
  H 4.631887 -1.506425 -4.031777
  H 6.926668 0.059032 -1.850982
 23
 7.271100
  H 1.711642 0.819033 0.218523
  C 2.694858 0.381602 0.330762
  C 3.339307 0.525255 1.641103
  C 2.449019 1.143006 2.714880
  C 3.171566 1.212494 4.055165
  C 3.270147 -0.246301 -0.761847
  C 4.591179 -0.089466 -1.157061
  C 5.201238 -0.742221 -2.228385
  C 4.550207 -1.759282 -3.081688
  H 3.468806 -1.755093 -3.001132
  O 6.441452 -0.490163 -2.553137
  H 4.246495 1.139464 1.534414
  H 3.710653 -0.450232 1.970785
  H 1.543051 0.546705 2.827941
  H 2.150733 2.149184 2.414563
  H 3.494985 0.224234 4.372886
  H 2.513534 1.610655 4.819324
  H 4.048698 1.860579 3.993965
  H 2.617299 -0.878416 -1.352357
  H 5.167106 0.672116 -0.644907
  H 4.920391 -2.742461 -2.801432
  H 4.850133 -1.606422 -4.114580
  H 6.898814 0.160567 -1.986005
 23
 23.945413
  H 2.029089 1.150322 0.117518
  C 2.885361 0.526793 0.349890
  C 3.374677 0.524351 1.732358
  C 2.438300 1.215886 2.719271
  C 2.964838 1.096631 4.145662
  C 3.461267 -0.226805 -0.708736
  C 4.604723 0.109283 -1.381734
  C 5.169116 -0.630878 -2.432525
  C 4.594941 -1.872372 -2.989253
  H 3.549883 -2.005755 -2.735088
  O 6.258436 -0.225635 -3.028390
  H 4.360739 1.012700 1.781920
  H 3.569924 -0.506373 2.041960
  H 1.446062 0.763691 2.664251
  H 2.339693 2.271125 2.458618
  H 3.124892 0.055057 4.415157
  H 2.251799 1.519980 4.849865
  H 3.905697 1.628642 4.258173
  H 2.943999 -1.146751 -0.966741
  H 5.088315 1.041715 -1.119457
  H 5.160332 -2.728778 -2.615247
  H 4.723514 -1.871490 -4.069657
  H 6.657522 0.585472 -2.661355
 23
 15.990482
  H 2.406571 1.466834 0.097736
  C 3.107811 0.688737 0.372878
  C 3.403890 0.508271 1.796237
  C 2.428680 1.199781 2.742866
  C 2.790118 0.925664 4.199171
  C 3.672560 -0.123711 -0.624908
  C 4.551293 0.277657 -1.606024
  C 5.077758 -0.555372 -2.594990
  C 4.637391 -1.944854 -2.852179
  H 3.663605 -2.162531 -2.437289
  O 6.023924 -0.138344 -3.395729
  H 4.415322 0.902389 1.972511
  H 3.480981 -0.555837 2.041689
  H 1.416766 0.842928 2.551375
  H 2.442909 2.276351 2.566923
  H 2.849219 -0.144153 4.388782
  H 2.037214 1.343725 4.862480
  H 3.749360 1.374099 4.454469
  H 3.443156 -1.183836 -0.550092
  H 4.905496 1.299904 -1.582414
  H 5.369659 -2.635610 -2.431273
  H 4.630480 -2.123549 -3.925130
  H 6.367963 0.754240 -3.206770
 23
 15.452545
  H 3.049111 1.797534 0.192754
  C 3.402146 0.800798 0.409566
  C 3.400813 0.407780 1.823023
  C 2.543733 1.298752 2.725342
  C 2.628348 0.843783 4.177140
  C 3.623699 -0.094504 -0.639898
  C 4.510882 0.267185 -1.636263
  C 4.988771 -0.548024 -2.669400
  C 4.935844 -2.023124 -2.643107
  H 4.342837 -2.403322 -1.824073
  O 5.611234 -0.043045 -3.700359
  H 4.441326 0.466717 2.172093
  H 3.114781 -0.643235 1.937153
  H 1.505059 1.256108 2.392519
  H 2.878252 2.334251 2.654091
  H 2.297671 -0.187593 4.282099
  H 1.993458 1.464340 4.806180
  H 3.647358 0.918183 4.547380
  H 3.083498 -1.029248 -0.667822
  H 5.005556 1.211328 -1.419345
  H 5.956153 -2.398926 -2.552733
  H 4.559597 -2.401382 -3.590452
  H 5.636253 0.933026 -3.733765
 23
 38.117356
  H 2.890433 1.764083 0.136987
  C 3.283919 0.774608 0.324047
  C 3.369839 0.364174 1.736305
  C 2.607326 1.293713 2.692139
  C 2.755546 0.830483 4.133963
  C 3.255402 -0.181375 -0.748299
  C 4.331263 0.121256 -1.530406
  C 4.978490 -0.511572 -2.601445
  C 5.113713 -1.979428 -2.660022
  H 4.534626 -2.464548 -1.890920
  O 5.641246 0.155426 -3.502519
  H 4.421476 0.360772 2.039846
  H 3.016720 -0.669068 1.846515
  H 1.554330 1.300271 2.425654
  H 2.987390 2.314088 2.601067
  H 2.378286 -0.182233 4.256504
  H 2.195152 1.482685 4.799862
  H 3.798299 0.847963 4.442002
  H 2.447188 -0.858096 -0.961801
  H 4.772105 0.997965 -1.008890
  H 6.165885 -2.242781 -2.550232
  H 4.811966 -2.340777 -3.644512
  H 5.524293 1.124047 -3.477194
 23
 56.823695
  H 2.823258 1.802189 0.050884
  C 3.193790 0.793175 0.178838
  C 3.381930 0.319038 1.584236
  C 2.735459 1.278108 2.592551
  C 2.943073 0.779685 4.017481
  C 2.866162 -0.182265 -0.886997
  C 4.022143 -0.005298 -1.520136
  C 4.932821 -0.483177 -2.443855
  C 5.207788 -1.939030 -2.527202
  H 4.496840 -2.513834 -1.945767
  O 5.724203 0.289197 -3.158848
  H 4.443163 0.241596 1.831015
  H 2.960754 -0.683350 1.691455
  H 1.666024 1.355349 2.391038
  H 3.172916 2.272588 2.491884
  H 2.510319 -0.209268 4.149129
  H 2.466362 1.453588 4.724940
  H 4.001785 0.726542 4.260223
  H 1.969946 -0.726504 -1.100854
  H 4.350689 0.887013 -0.623571
  H 6.220740 -2.141252 -2.177467
  H 5.173168 -2.246252 -3.571623
  H 5.520382 1.240955 -3.125705
 23
 50.355896
  H 2.844630 1.895453 0.072310
  C 3.255699 0.891844 0.172881
  C 3.430640 0.363548 1.575100
  C 2.733056 1.266096 2.583387
  C 2.936453 0.708121 3.974330
  C 2.836509 -0.062210 -0.899322
  C 3.971805 -0.041678 -1.577528
  C 4.894814 -0.533155 -2.479206
  C 5.251381 -1.986257 -2.433714
  H 4.595186 -2.541859 -1.813188
  O 5.643311 0.227869 -3.265810
  H 4.479551 0.291547 1.837787
  H 3.033192 -0.639416 1.650688
  H 1.678377 1.318941 2.366526
  H 3.138366 2.271542 2.535674
  H 2.531971 -0.301735 4.040284
  H 2.437505 1.329134 4.703239
  H 3.988039 0.680834 4.232725
  H 1.883109 -0.477741 -1.075326
  H 4.290591 1.021100 -0.395942
  H 6.294486 -2.121144 -2.089964
  H 5.217107 -2.358356 -3.458271
  H 5.414252 1.189539 -3.276678
 23
 37.770430
  H 2.855698 1.916114 0.131777
  C 3.381542 0.955422 0.207681
  C 3.498594 0.399322 1.646391
  C 2.687706 1.271756 2.623854
  C 2.829728 0.720617 4.018297
  C 2.974983 -0.030281 -0.867679
  C 3.996607 -0.149398 -1.652860
  C 4.911914 -0.592309 -2.596760
  C 5.261072 -2.013207 -2.536343
  H 4.673051 -2.554749 -1.836409
  O 5.609854 0.125632 -3.430873
  H 4.544638 0.374499 1.960815
  H 3.139938 -0.626683 1.696456
  H 1.651620 1.268108 2.341440
  H 3.039328 2.289424 2.597613
  H 2.497503 -0.310249 4.062407
  H 2.232443 1.307437 4.700131
  H 3.867324 0.765155 4.352077
  H 1.981678 -0.439158 -0.992102
  H 4.364776 1.180371 -0.194580
  H 6.343507 -2.114930 -2.248783
  H 5.156318 -2.423093 -3.518281
  H 5.311037 1.081676 -3.501767
 23
 26.079810
  H 2.823436 1.995104 0.171180
  C 3.485149 1.133842 0.218519
  C 3.575233 0.518772 1.621724
  C 2.652415 1.248567 2.600444
  C 2.732939 0.633196 3.994314
  C 3.091979 0.086736 -0.805760
  C 3.973187 -0.207963 -1.694416
  C 4.862534 -0.682513 -2.604311
  C 5.358612 -2.071377 -2.463282
  H 4.848574 -2.606462 -1.669802
  O 5.332243 -0.001881 -3.615761
  H 4.602557 0.578341 1.979065
  H 3.291570 -0.534693 1.601853
  H 1.621233 1.212885 2.246978
  H 2.955271 2.296338 2.660452
  H 2.443179 -0.415669 3.989072
  H 2.066520 1.161401 4.672809
  H 3.743433 0.707178 4.390446
  H 2.100887 -0.337674 -0.743241
  H 4.463837 1.465479 -0.128180
  H 6.430973 -2.048600 -2.262466
  H 5.232517 -2.590594 -3.412116
  H 4.986744 0.904503 -3.722200
 23
 22.803513
  H 2.793336 2.107754 0.226430
  C 3.562613 1.338473 0.211095
  C 3.660349 0.658355 1.584661
  C 2.609024 1.170504 2.564067
  C 2.726028 0.475545 3.915321
  C 3.183590 0.305995 -0.829825
  C 3.968272 -0.208596 -1.699040
  C 4.819833 -0.785860 -2.588027
  C 5.348688 -2.140573 -2.326130
  H 4.904615 -2.584401 -1.442526
  O 5.208043 -0.214844 -3.698379
  H 4.656684 0.829560 1.994363
  H 3.545512 -0.422779 1.491091
  H 1.608163 0.997195 2.163574
  H 2.732291 2.246444 2.699982
  H 2.582186 -0.597246 3.815136
  H 1.974055 0.854982 4.603051
  H 3.705761 0.649696 4.354605
  H 2.140625 0.004509 -0.770241
  H 4.508447 1.792767 -0.075774
  H 6.431622 -2.078429 -2.199078
  H 5.184527 -2.772914 -3.197895
  H 4.855510 0.679897 -3.865340
 23
 23.291689
  H 2.457058 2.112745 0.222592
  C 3.349411 1.505338 0.117948
  C 3.666995 0.805711 1.449314
  C 2.605294 1.068187 2.510737
  C 2.925635 0.333541 3.805194
  C 3.111567 0.460193 -0.949547
  C 3.985471 -0.118943 -1.682644
  C 4.872410 -0.801143 -2.451983
  C 5.230766 -2.195710 -2.105295
  H 4.684860 -2.550711 -1.240699
  O 5.446365 -0.301650 -3.515007
  H 4.637104 1.152999 1.808555
  H 3.753564 -0.272417 1.309855
  H 1.628795 0.740795 2.151763
  H 2.545203 2.139149 2.709437
  H 2.962964 -0.739655 3.643609
  H 2.165348 0.536607 4.553737
  H 3.884974 0.653234 4.201918
  H 2.060367 0.194824 -1.056836
  H 4.173457 2.144961 -0.199529
  H 6.305426 -2.250192 -1.913589
  H 5.045764 -2.843174 -2.963403
  H 5.203261 0.616726 -3.738092
 23
 24.285323
  H 2.165688 1.983931 0.240151
  C 3.144250 1.536965 0.086347
  C 3.645915 0.895753 1.393631
  C 2.612079 0.996145 2.511442
  C 3.093737 0.286344 3.772082
  C 3.064461 0.492376 -1.003551
  C 4.046400 -0.054775 -1.620969
  C 4.944819 -0.796929 -2.313884
  C 5.068643 -2.244655 -2.031397
  H 4.386336 -2.566829 -1.253533
  O 5.742746 -0.318298 -3.229804
  H 4.567491 1.390881 1.703408
  H 3.884642 -0.157958 1.242177
  H 1.670513 0.546232 2.191061
  H 2.420725 2.046907 2.739266
  H 3.267811 -0.769992 3.580991
  H 2.349857 0.370063 4.560753
  H 4.020735 0.726989 4.132350
  H 2.047642 0.247645 -1.306298
  H 3.835462 2.301342 -0.263861
  H 6.097396 -2.464195 -1.742049
  H 4.885276 -2.805259 -2.947657
  H 5.650483 0.633768 -3.420713
