 26
 0.000000
  H 1.439324 0.161009 0.455689
  C 2.518460 0.146673 0.417994
  C 3.267326 0.618960 1.590002
  C 2.399338 1.085290 2.750983
  H 3.017564 1.418409 3.577482
  C 3.087742 -0.322832 -0.750368
  C 4.464700 -0.415024 -0.981196
  C 5.132842 -0.870776 -2.118149
  C 4.615945 -1.389308 -3.411653
  C 3.122129 -1.500251 -3.689861
  C 2.894456 -2.061968 -5.091190
  O 6.448298 -0.870706 -2.118240
  H 3.927145 1.439794 1.284932
  H 3.928692 -0.183253 1.938074
  H 1.760683 0.278080 3.103181
  H 1.759186 1.910470 2.446391
  H 2.409623 -0.634699 -1.525668
  H 5.101420 -0.088100 -0.166509
  H 5.070036 -2.378441 -3.543503
  H 5.070762 -0.765688 -4.190294
  H 2.650656 -0.518537 -3.633828
  H 2.649969 -2.171034 -2.971329
  H 3.332997 -1.415255 -5.847391
  H 1.829775 -2.143038 -5.294517
  H 3.332398 -3.052270 -5.191111
  H 6.854782 -0.540698 -1.293641
 26
 -0.149270
  H 1.462693 0.097058 0.521765
  C 2.541612 0.105010 0.439020
  C 3.280548 0.648682 1.585379
  C 2.384084 1.118389 2.721547
  H 2.982092 1.509678 3.540988
  C 3.086924 -0.391330 -0.727097
  C 4.460347 -0.450162 -0.974116
  C 5.133241 -0.910071 -2.107637
  C 4.611780 -1.393977 -3.411443
  C 3.118578 -1.506842 -3.684463
  C 2.891186 -2.013061 -5.105232
  O 6.446440 -0.919674 -2.100873
  H 3.911075 1.480593 1.251391
  H 3.978801 -0.108369 1.961685
  H 1.780904 0.298664 3.103991
  H 1.712423 1.905576 2.386230
  H 2.400676 -0.755451 -1.470210
  H 5.101394 -0.087300 -0.179069
  H 5.078800 -2.370036 -3.583273
  H 5.060860 -0.743328 -4.171262
  H 2.639917 -0.533439 -3.586599
  H 2.658472 -2.211439 -2.992647
  H 3.319851 -1.331910 -5.834807
  H 1.827574 -2.098324 -5.309442
  H 3.340313 -2.992334 -5.246639
  H 6.863262 -0.607319 -1.275268
 26
 -0.083734
  H 1.469628 0.023195 0.552442
  C 2.545682 0.062716 0.454222
  C 3.279464 0.672251 1.570579
  C 2.381097 1.155514 2.697727
  H 2.974686 1.594307 3.495461
  C 3.091860 -0.456287 -0.700209
  C 4.464799 -0.484150 -0.961416
  C 5.137163 -0.949087 -2.093364
  C 4.614205 -1.395950 -3.410439
  C 3.119831 -1.513522 -3.677020
  C 2.886173 -1.964106 -5.116262
  O 6.449811 -0.971628 -2.081933
  H 3.880933 1.510766 1.198446
  H 4.004347 -0.046791 1.966211
  H 1.807680 0.332629 3.116517
  H 1.683217 1.908477 2.341714
  H 2.408969 -0.873216 -1.419061
  H 5.106040 -0.084552 -0.183655
  H 5.091755 -2.359531 -3.622108
  H 5.050638 -0.711475 -4.147747
  H 2.631725 -0.550311 -3.534797
  H 2.672962 -2.251023 -3.011036
  H 3.301640 -1.247671 -5.821716
  H 1.821970 -2.053448 -5.315495
  H 3.345974 -2.932802 -5.301328
  H 6.866885 -0.677016 -1.249424
 26
 0.069609
  H 1.476255 -0.050088 0.583693
  C 2.550757 0.022123 0.467985
  C 3.278276 0.695748 1.550641
  C 2.378179 1.191179 2.672155
  H 2.967645 1.671919 3.448017
  C 3.099289 -0.519098 -0.674463
  C 4.470064 -0.525804 -0.946355
  C 5.140787 -0.991864 -2.079064
  C 4.617926 -1.395424 -3.409486
  C 3.124721 -1.514407 -3.669025
  C 2.882324 -1.918242 -5.123315
  O 6.452735 -1.029565 -2.064596
  H 3.846207 1.538682 1.139869
  H 4.032820 0.014506 1.961688
  H 1.832344 0.366667 3.124922
  H 1.654887 1.913636 2.299562
  H 2.422754 -0.975346 -1.373488
  H 5.112673 -0.094213 -0.188043
  H 5.102243 -2.346268 -3.661760
  H 5.042778 -0.675772 -4.120161
  H 2.630432 -0.559451 -3.488525
  H 2.688004 -2.277810 -3.023401
  H 3.292029 -1.178154 -5.807334
  H 1.815463 -2.003143 -5.319236
  H 3.343093 -2.880010 -5.343796
  H 6.872216 -0.749046 -1.227300
 26
 0.386013
  H 1.483567 -0.074861 0.599699
  C 2.555202 0.000071 0.476271
  C 3.281686 0.706233 1.539630
  C 2.378900 1.225424 2.652616
  H 2.967166 1.733655 3.414062
  C 3.103224 -0.574511 -0.649581
  C 4.471556 -0.561240 -0.935463
  C 5.139860 -1.021918 -2.069726
  C 4.623181 -1.401003 -3.409061
  C 3.126531 -1.521458 -3.670955
  C 2.883696 -1.879700 -5.135672
  O 6.453082 -1.055104 -2.052028
  H 3.844609 1.543010 1.108555
  H 4.042409 0.040697 1.966727
  H 1.844023 0.409612 3.130670
  H 1.648949 1.928388 2.264867
  H 2.432743 -1.090994 -1.315686
  H 5.114496 -0.077084 -0.207685
  H 5.109833 -2.344949 -3.679626
  H 5.045748 -0.662061 -4.103515
  H 2.626788 -0.574376 -3.456332
  H 2.698359 -2.307400 -3.047341
  H 3.287581 -1.115237 -5.795239
  H 1.817747 -1.965320 -5.332660
  H 3.349760 -2.828503 -5.387162
  H 6.865560 -0.810700 -1.202084
 26
 0.807304
  H 1.491161 -0.145677 0.619036
  C 2.562488 -0.042434 0.488872
  C 3.279731 0.703534 1.529486
  C 2.371982 1.256333 2.619428
  H 2.954700 1.798839 3.360841
  C 3.119676 -0.619276 -0.630524
  C 4.481974 -0.583631 -0.931008
  C 5.147156 -1.044789 -2.070921
  C 4.634466 -1.400336 -3.416139
  C 3.135767 -1.521165 -3.657344
  C 2.871826 -1.838197 -5.126245
  O 6.459491 -1.084281 -2.046873
  H 3.844128 1.522836 1.071569
  H 4.038651 0.053401 1.981738
  H 1.841410 0.458339 3.125105
  H 1.639151 1.940089 2.202977
  H 2.460255 -1.154422 -1.292105
  H 5.131433 -0.087422 -0.216491
  H 5.123957 -2.335005 -3.703998
  H 5.053259 -0.649646 -4.099531
  H 2.637081 -0.582877 -3.408722
  H 2.719364 -2.325563 -3.048419
  H 3.264648 -1.052268 -5.771654
  H 1.801688 -1.921929 -5.308646
  H 3.338241 -2.779385 -5.411465
  H 6.872807 -0.857899 -1.190482
 26
 0.895424
  H 1.520801 -0.242502 0.654172
  C 2.579846 -0.102224 0.503544
  C 3.273557 0.734316 1.490106
  C 2.353543 1.292225 2.571737
  H 2.915203 1.897764 3.271279
  C 3.145712 -0.702278 -0.600084
  C 4.506731 -0.636316 -0.909129
  C 5.173085 -1.093812 -2.053993
  C 4.640609 -1.424242 -3.401672
  C 3.140042 -1.500752 -3.640549
  C 2.859141 -1.761886 -5.118361
  O 6.485234 -1.141133 -2.047268
  H 3.788242 1.557243 0.982049
  H 4.073190 0.146912 1.960559
  H 1.877101 0.488409 3.129508
  H 1.574573 1.911365 2.137845
  H 2.500211 -1.288524 -1.229559
  H 5.146937 -0.113897 -0.210333
  H 5.103169 -2.368469 -3.700384
  H 5.075558 -0.679200 -4.076308
  H 2.665151 -0.561902 -3.355541
  H 2.709090 -2.315385 -3.060524
  H 3.258589 -0.960587 -5.739502
  H 1.787064 -1.821293 -5.294469
  H 3.304952 -2.700550 -5.439269
  H 6.911763 -0.921203 -1.199206
 26
 0.901843
  H 1.551209 -0.340031 0.670626
  C 2.605050 -0.154813 0.501968
  C 3.266919 0.759573 1.443466
  C 2.330972 1.319100 2.503357
  H 2.869311 1.975645 3.175225
  C 3.189991 -0.774759 -0.579292
  C 4.539450 -0.650223 -0.911457
  C 5.206807 -1.146247 -2.038145
  C 4.648897 -1.473867 -3.377127
  C 3.142532 -1.516000 -3.600578
  C 2.840038 -1.650481 -5.089787
  O 6.515419 -1.216981 -2.037917
  H 3.721005 1.587121 0.888917
  H 4.101536 0.241219 1.927414
  H 1.891579 0.521259 3.092508
  H 1.525054 1.888431 2.047148
  H 2.568608 -1.427062 -1.168302
  H 5.164084 -0.094208 -0.221835
  H 5.090709 -2.426170 -3.688880
  H 5.083631 -0.730744 -4.053741
  H 2.679528 -0.601307 -3.232604
  H 2.705345 -2.365741 -3.085465
  H 3.253449 -0.812790 -5.650539
  H 1.765394 -1.670049 -5.256656
  H 3.259088 -2.571710 -5.490573
  H 6.947727 -0.989435 -1.193316
 26
 1.909012
  H 1.594048 -0.458193 0.725339
  C 2.628379 -0.222254 0.520377
  C 3.256135 0.781664 1.392988
  C 2.306787 1.353286 2.440298
  H 2.816957 2.092664 3.052602
  C 3.229823 -0.869867 -0.534931
  C 4.563830 -0.696211 -0.899894
  C 5.224609 -1.200314 -2.028739
  C 4.661653 -1.477101 -3.374692
  C 3.152074 -1.461595 -3.582125
  C 2.830285 -1.570319 -5.071381
  O 6.525212 -1.344166 -2.005969
  H 3.649325 1.600696 0.779191
  H 4.129036 0.338522 1.886258
  H 1.930859 0.570412 3.098036
  H 1.456098 1.838125 1.966655
  H 2.654067 -1.624358 -1.047241
  H 5.160871 -0.033443 -0.295962
  H 5.080129 -2.423165 -3.735714
  H 5.106562 -0.707056 -4.016641
  H 2.724398 -0.535825 -3.195755
  H 2.688867 -2.305782 -3.072967
  H 3.280999 -0.751720 -5.628280
  H 1.755073 -1.533804 -5.229707
  H 3.197971 -2.507523 -5.482545
  H 6.952228 -1.166303 -1.145814
 26
 2.312532
  H 1.569605 -0.382312 0.678330
  C 2.615180 -0.178674 0.490454
  C 3.261729 0.800347 1.374698
  C 2.321832 1.386138 2.421514
  H 2.841481 2.120464 3.029829
  C 3.217813 -0.860570 -0.543815
  C 4.566166 -0.739185 -0.879369
  C 5.221661 -1.233768 -2.014854
  C 4.667293 -1.436284 -3.375592
  C 3.157491 -1.519012 -3.578983
  C 2.834026 -1.556413 -5.067946
  O 6.518534 -1.414223 -1.987671
  H 3.687410 1.614029 0.771149
  H 4.116637 0.330710 1.874210
  H 1.941328 0.606580 3.082146
  H 1.473198 1.877005 1.950556
  H 2.617013 -1.575421 -1.083770
  H 5.177442 -0.093078 -0.259210
  H 5.150380 -2.318909 -3.805403
  H 5.054921 -0.588076 -3.961945
  H 2.664479 -0.651644 -3.132703
  H 2.765122 -2.424922 -3.118776
  H 3.218885 -0.672118 -5.573724
  H 1.759539 -1.589388 -5.219568
  H 3.267831 -2.435826 -5.538547
  H 6.944356 -1.281376 -1.118625
 26
 4.171225
  H 1.603063 -0.495266 0.721666
  C 2.640186 -0.270682 0.518185
  C 3.247613 0.808067 1.315089
  C 2.289450 1.427955 2.323402
  H 2.776053 2.238155 2.861990
  C 3.262437 -0.993254 -0.474380
  C 4.595926 -0.828033 -0.845940
  C 5.242037 -1.282428 -2.004207
  C 4.679719 -1.440823 -3.369207
  C 3.165716 -1.441507 -3.548914
  C 2.813245 -1.445630 -5.036368
  O 6.539076 -1.450625 -1.992007
  H 3.627459 1.589233 0.648120
  H 4.125414 0.417885 1.842010
  H 1.959040 0.689944 3.049548
  H 1.412152 1.832942 1.826287
  H 2.702542 -1.792303 -0.934639
  H 5.178074 -0.072182 -0.331653
  H 5.104876 -2.351861 -3.803140
  H 5.110052 -0.616713 -3.946450
  H 2.728104 -0.560994 -3.079464
  H 2.734374 -2.334074 -3.091027
  H 3.238794 -0.583062 -5.539346
  H 1.736377 -1.414816 -5.170179
  H 3.187230 -2.342705 -5.522654
  H 6.973999 -1.311913 -1.128092
 26
 5.422403
  H 1.629615 -0.563722 0.754462
  C 2.656133 -0.306883 0.529376
  C 3.236153 0.805976 1.294960
  C 2.260290 1.429249 2.288444
  H 2.729990 2.255982 2.815348
  C 3.291261 -1.029180 -0.454287
  C 4.612961 -0.826631 -0.845576
  C 5.256879 -1.262797 -2.016551
  C 4.681789 -1.448135 -3.370836
  C 3.171950 -1.321712 -3.545758
  C 2.807005 -1.423066 -5.024268
  O 6.556737 -1.400156 -2.020836
  H 3.590498 1.579477 0.605005
  H 4.126642 0.452369 1.829975
  H 1.937669 0.697070 3.028127
  H 1.377095 1.810219 1.778810
  H 2.757724 -1.861955 -0.887247
  H 5.175427 -0.032398 -0.372901
  H 5.013172 -2.429793 -3.741875
  H 5.189329 -0.710214 -4.001934
  H 2.827758 -0.361732 -3.160342
  H 2.661649 -2.118630 -3.008337
  H 3.303946 -0.646264 -5.603318
  H 1.735334 -1.309945 -5.157766
  H 3.095876 -2.389288 -5.430373
  H 6.997504 -1.290335 -1.155988
 26
 8.805344
  H 1.630148 -0.570661 0.766255
  C 2.656360 -0.323947 0.531789
  C 3.232956 0.832419 1.235728
  C 2.254875 1.502086 2.193535
  H 2.716618 2.361124 2.668296
  C 3.305123 -1.110677 -0.390002
  C 4.617281 -0.913975 -0.810658
  C 5.247706 -1.290606 -2.009347
  C 4.698152 -1.381883 -3.382708
  C 3.178584 -1.338903 -3.523205
  C 2.785914 -1.331679 -4.996443
  O 6.541763 -1.483981 -1.998045
  H 3.580005 1.570573 0.505064
  H 4.126128 0.511796 1.787885
  H 1.943593 0.811829 2.975255
  H 1.367271 1.842203 1.667214
  H 2.785155 -1.977469 -0.769547
  H 5.195266 -0.074149 -0.427016
  H 5.091027 -2.301287 -3.837167
  H 5.145609 -0.548832 -3.934251
  H 2.785256 -0.440601 -3.047543
  H 2.735064 -2.210864 -3.047387
  H 3.223455 -0.478445 -5.512757
  H 1.706333 -1.273302 -5.100458
  H 3.122438 -2.239461 -5.491885
  H 6.984581 -1.367380 -1.134078
 26
 16.778101
  H 1.666458 -0.634374 0.901980
  C 2.659062 -0.359476 0.602297
  C 3.218446 0.851628 1.212446
  C 2.257333 1.532475 2.175020
  H 2.703259 2.436084 2.582195
  C 3.283442 -1.147921 -0.310461
  C 4.562602 -0.913383 -0.818611
  C 5.212196 -1.241222 -2.020798
  C 4.705193 -1.354964 -3.409893
  C 3.189241 -1.236861 -3.569398
  C 2.809434 -1.285238 -5.045737
  O 6.502180 -1.408013 -1.989657
  H 3.501169 1.563689 0.424807
  H 4.142029 0.598682 1.739439
  H 2.011143 0.876152 3.004245
  H 1.332800 1.806343 1.672444
  H 2.798484 -2.072563 -0.603339
  H 5.143690 -0.015902 -0.581281
  H 5.050927 -2.316675 -3.793673
  H 5.208937 -0.576918 -3.994826
  H 2.843531 -0.292528 -3.147674
  H 2.697898 -2.059595 -3.054033
  H 3.302786 -0.489189 -5.602087
  H 1.735570 -1.168990 -5.165411
  H 3.094730 -2.237305 -5.488038
  H 6.935148 -1.312612 -1.115409
