 23
 0.000000
  C 0.980123 0.151630 0.429011
  C 2.454166 0.134450 0.386195
  C 3.232477 0.601811 1.548536
  H 2.619626 0.934852 2.377322
  C 3.057047 -0.332736 -0.776320
  C 4.434717 -0.414625 -0.980895
  C 5.121745 -0.865019 -2.104545
  C 4.629211 -1.387722 -3.408292
  C 3.141335 -1.505058 -3.701105
  H 3.007151 -1.905665 -4.700458
  O 6.442746 -0.858129 -2.088088
  H 0.591379 0.529742 1.369408
  H 0.588397 -0.853914 0.269446
  H 0.588278 0.766860 -0.382175
  H 3.885089 1.423499 1.247617
  H 3.885333 -0.199326 1.900026
  H 2.394146 -0.648737 -1.562692
  H 5.050889 -0.081947 -0.152025
  H 5.092588 -2.373196 -3.531421
  H 5.092734 -0.760397 -4.178147
  H 2.657387 -0.532560 -3.663299
  H 2.657344 -2.182163 -3.002031
  H 6.814761 -0.522833 -1.250522
 23
 1.296854
  C 0.980385 0.282758 0.400216
  C 2.448807 0.163007 0.370546
  C 3.223089 0.429362 1.596701
  H 2.577141 0.695169 2.426931
  C 3.045331 -0.205588 -0.827203
  C 4.421459 -0.347481 -1.004663
  C 5.118293 -0.789211 -2.127027
  C 4.631422 -1.415293 -3.386993
  C 3.146723 -1.629650 -3.630327
  H 3.026297 -2.140428 -4.582807
  O 6.441737 -0.774917 -2.095599
  H 0.607071 0.569153 1.377107
  H 0.518288 -0.660326 0.104444
  H 0.647765 1.014798 -0.337242
  H 3.932002 1.241721 1.433972
  H 3.809616 -0.445657 1.878346
  H 2.386678 -0.373879 -1.660378
  H 5.047272 -0.121729 -0.149150
  H 5.151820 -2.378126 -3.456259
  H 5.050652 -0.817456 -4.204494
  H 2.613058 -0.686347 -3.699466
  H 2.703211 -2.255860 -2.861293
  H 6.830366 -0.119316 -1.488684
 23
 6.133003
  C 0.964383 0.307696 0.397912
  C 2.430792 0.164754 0.375568
  C 3.200269 0.381548 1.614100
  H 2.553438 0.629367 2.449397
  C 3.032514 -0.180333 -0.829356
  C 4.407633 -0.339326 -0.996177
  C 5.113252 -0.787407 -2.105030
  C 4.640090 -1.434680 -3.353153
  C 3.155795 -1.629892 -3.612078
  H 3.036738 -2.162877 -4.552310
  O 6.448562 -0.802710 -2.019176
  H 0.587420 0.570853 1.380593
  H 0.489404 -0.618070 0.069269
  H 0.649740 1.066467 -0.320572
  H 3.921549 1.188419 1.480146
  H 3.776404 -0.508287 1.869640
  H 2.380263 -0.312717 -1.675263
  H 5.038845 -0.123590 -0.143915
  H 5.146728 -2.407657 -3.388321
  H 5.083079 -0.869063 -4.180952
  H 2.640906 -0.678798 -3.710377
  H 2.691187 -2.226707 -2.832351
  H 6.879327 0.046121 -1.827494
 23
 9.951027
  C 0.943209 0.274466 0.417424
  C 2.410242 0.150432 0.398342
  C 3.178553 0.425039 1.624162
  H 2.530388 0.689477 2.453319
  C 3.014968 -0.236161 -0.793806
  C 4.393098 -0.379738 -0.957346
  C 5.109011 -0.827881 -2.056914
  C 4.654104 -1.426253 -3.333558
  C 3.172248 -1.567357 -3.639211
  H 3.062650 -2.068102 -4.598283
  O 6.449851 -0.850932 -1.906293
  H 0.563493 0.572183 1.389085
  H 0.480350 -0.670020 0.126644
  H 0.617855 0.998339 -0.331818
  H 3.883927 1.240114 1.457743
  H 3.775610 -0.442497 1.906789
  H 2.362844 -0.415720 -1.631245
  H 5.030829 -0.105302 -0.125893
  H 5.127884 -2.416175 -3.373487
  H 5.135777 -0.862583 -4.141051
  H 2.689962 -0.597452 -3.720738
  H 2.668341 -2.172916 -2.891505
  H 6.939852 -0.053505 -2.152212
 23
 7.651647
  C 0.928251 0.187943 0.458996
  C 2.398469 0.121352 0.430163
  C 3.167881 0.553962 1.608182
  H 2.518009 0.863617 2.420564
  C 3.004734 -0.362581 -0.724576
  C 4.383910 -0.462026 -0.895759
  C 5.110464 -0.904745 -1.994638
  C 4.673086 -1.386672 -3.329118
  C 3.197175 -1.447326 -3.683885
  H 3.099955 -1.849417 -4.689421
  O 6.435487 -0.939479 -1.787343
  H 0.547714 0.573051 1.399414
  H 0.502130 -0.800637 0.279152
  H 0.564265 0.812801 -0.358532
  H 3.824317 1.385971 1.349193
  H 3.817202 -0.247846 1.960529
  H 2.350323 -0.666401 -1.521105
  H 5.021531 -0.095731 -0.098990
  H 5.102829 -2.391577 -3.426920
  H 5.192138 -0.787665 -4.084873
  H 2.747781 -0.458161 -3.681269
  H 2.654157 -2.106985 -3.014085
  H 7.007928 -0.387814 -2.344830
 23
 3.343828
  C 0.922994 0.283936 0.408753
  C 2.391970 0.161329 0.391156
  C 3.149717 0.310983 1.646684
  H 2.492441 0.447839 2.499051
  C 3.011488 -0.119531 -0.820127
  C 4.392049 -0.229524 -0.976710
  C 5.134625 -0.721319 -2.047890
  C 4.710773 -1.432407 -3.281881
  C 3.228572 -1.597569 -3.581223
  H 3.120800 -2.179356 -4.493314
  O 6.440740 -0.630413 -1.846265
  H 0.536513 0.488355 1.401593
  H 0.462064 -0.629313 0.030125
  H 0.604431 1.075867 -0.270854
  H 3.816891 1.172071 1.579718
  H 3.786973 -0.554616 1.824329
  H 2.372661 -0.229175 -1.678014
  H 5.029701 0.174841 -0.202226
  H 5.171734 -2.426393 -3.221733
  H 5.184124 -0.940132 -4.138120
  H 2.749107 -0.637374 -3.747687
  H 2.721156 -2.132001 -2.783957
  H 6.986707 -0.535529 -2.641527
 23
 10.744488
  C 0.918000 0.383097 0.364111
  C 2.379386 0.191264 0.314797
  C 3.141781 0.016086 1.564203
  H 2.493654 -0.004192 2.434498
  C 3.002411 0.141272 -0.922335
  C 4.381757 -0.041672 -1.089198
  C 5.130142 -0.615504 -2.103528
  C 4.724545 -1.519485 -3.203490
  C 3.228979 -1.740143 -3.378319
  H 3.061407 -2.443932 -4.189193
  O 6.439967 -0.435726 -1.886224
  H 0.536614 0.376866 1.380191
  H 0.410369 -0.395133 -0.206782
  H 0.648904 1.326283 -0.113913
  H 3.856246 0.833168 1.675174
  H 3.731383 -0.899316 1.540060
  H 2.391743 0.290688 -1.800464
  H 5.120859 0.391714 -0.418472
  H 5.229015 -2.475637 -3.026161
  H 5.136160 -1.134108 -4.143738
  H 2.724885 -0.813725 -3.631478
  H 2.787335 -2.152450 -2.475208
  H 6.980738 -0.162976 -2.645025
 23
 23.123237
  C 0.910350 0.519577 0.446459
  C 2.347480 0.215529 0.327481
  C 3.146059 -0.135249 1.516278
  H 2.536919 -0.184493 2.413928
  C 2.909337 0.221969 -0.923927
  C 4.273063 0.000945 -1.167549
  C 5.065515 -0.579252 -2.144587
  C 4.782336 -1.558901 -3.211666
  C 3.306972 -1.877599 -3.378222
  H 3.184066 -2.608569 -4.172375
  O 6.358160 -0.302905 -1.867940
  H 0.542987 0.460942 1.461785
  H 0.341297 -0.162182 -0.183154
  H 0.710769 1.521506 0.045412
  H 3.944305 0.590580 1.669789
  H 3.630346 -1.099072 1.367954
  H 2.274339 0.466115 -1.749191
  H 5.150454 0.416792 -0.624876
  H 5.345523 -2.459877 -2.984867
  H 5.202685 -1.157710 -4.144446
  H 2.743674 -0.991971 -3.650367
  H 2.901882 -2.276587 -2.455238
  H 6.908099 0.089306 -2.569433
 23
 47.553092
  C 0.911314 0.593819 0.529986
  C 2.324017 0.227984 0.313860
  C 3.131956 -0.303093 1.428382
  H 2.534824 -0.450809 2.322955
  C 2.866952 0.367559 -0.949679
  C 4.179933 0.053753 -1.270727
  C 4.998837 -0.540706 -2.166633
  C 4.829056 -1.597482 -3.185433
  C 3.367383 -1.987552 -3.380183
  H 3.288567 -2.765513 -4.134049
  O 6.279226 -0.140312 -1.816681
  H 0.598292 0.417910 1.554419
  H 0.260915 0.026600 -0.136911
  H 0.753757 1.646007 0.288512
  H 3.943869 0.385349 1.664595
  H 3.595048 -1.248998 1.150847
  H 2.255713 0.818396 -1.723331
  H 5.286735 0.484232 -0.808740
  H 5.423984 -2.470860 -2.903313
  H 5.235675 -1.236723 -4.135449
  H 2.780766 -1.134073 -3.706988
  H 2.944535 -2.367767 -2.454266
  H 6.816535 0.319915 -2.488357
 23
 61.837628
  C 0.904278 0.655091 0.595926
  C 2.296784 0.233884 0.317859
  C 3.115893 -0.374895 1.391341
  H 2.537608 -0.529850 2.296764
  C 2.807088 0.396409 -0.953843
  C 4.078378 0.045719 -1.335269
  C 4.920096 -0.522118 -2.169161
  C 4.843956 -1.603475 -3.180796
  C 3.407083 -2.059434 -3.409037
  H 3.382166 -2.853344 -4.149838
  O 6.229412 -0.050977 -1.766845
  H 0.617052 0.454481 1.623549
  H 0.208309 0.141904 -0.068854
  H 0.785274 1.721370 0.399337
  H 3.963192 0.266707 1.632773
  H 3.525877 -1.329539 1.063413
  H 2.195186 0.911470 -1.687041
  H 5.494132 0.494697 -0.911576
  H 5.459284 -2.445494 -2.851410
  H 5.264403 -1.238013 -4.122149
  H 2.795570 -1.236678 -3.768781
  H 2.972159 -2.436714 -2.487608
  H 6.755178 0.421614 -2.448513
 23
 54.657823
  C 0.904566 0.698154 0.627821
  C 2.280715 0.237725 0.312550
  C 3.099328 -0.430934 1.356248
  H 2.530230 -0.591567 2.266511
  C 2.778158 0.422548 -0.962629
  C 4.021226 0.051177 -1.376700
  C 4.879828 -0.502456 -2.174005
  C 4.858041 -1.611033 -3.158092
  C 3.434059 -2.099993 -3.404518
  H 3.439019 -2.907931 -4.130536
  O 6.234233 0.012195 -1.767756
  H 0.631165 0.479405 1.655748
  H 0.178604 0.224103 -0.034488
  H 0.816521 1.773247 0.464480
  H 3.970662 0.175706 1.604058
  H 3.470781 -1.389845 0.995473
  H 2.169631 0.976538 -1.670458
  H 5.727221 0.500295 -1.029421
  H 5.482584 -2.431283 -2.795777
  H 5.281368 -1.252658 -4.100669
  H 2.813240 -1.296224 -3.791531
  H 2.987178 -2.466311 -2.484523
  H 6.732425 0.507526 -2.457683
 23
 48.462151
  C 0.871854 0.676170 0.638860
  C 2.249359 0.245345 0.271551
  C 3.083762 -0.443707 1.278841
  H 2.523362 -0.642688 2.182866
  C 2.768081 0.468582 -1.004652
  C 4.010842 0.093441 -1.389330
  C 4.916670 -0.473232 -2.123209
  C 4.872445 -1.638810 -3.096839
  C 3.412959 -2.087643 -3.356032
  H 3.390378 -2.914106 -4.055984
  O 6.308253 -0.007762 -1.794537
  H 0.630358 0.388735 1.661024
  H 0.130443 0.220568 -0.027059
  H 0.759500 1.751668 0.538659
  H 3.953578 0.191868 1.519690
  H 3.466523 -1.376963 0.909502
  H 2.189230 1.055504 -1.682918
  H 6.005915 0.554504 -1.065772
  H 5.482477 -2.478783 -2.713989
  H 5.309060 -1.310486 -4.037258
  H 2.850134 -1.232014 -3.776434
  H 2.922394 -2.411965 -2.460056
  H 6.746666 0.427357 -2.533379
 23
 43.463919
  C 0.910540 0.779984 0.626733
  C 2.250501 0.248523 0.279976
  C 3.010545 -0.578722 1.248832
  H 2.417211 -0.792559 2.132810
  C 2.769098 0.522874 -0.972022
  C 3.964750 0.111381 -1.437721
  C 4.882272 -0.432060 -2.144800
  C 4.882052 -1.609767 -3.064507
  C 3.476033 -2.153119 -3.280238
  H 3.503462 -3.008344 -3.950326
  O 6.288814 0.028562 -1.907319
  H 0.608477 0.475841 1.623410
  H 0.160454 0.437244 -0.087200
  H 0.905526 1.871099 0.578433
  H 3.919044 -0.067543 1.561040
  H 3.316173 -1.523621 0.795691
  H 2.204972 1.179711 -1.624904
  H 6.136075 0.631143 -1.157752
  H 5.521978 -2.388090 -2.645109
  H 5.300221 -1.313387 -4.030616
  H 2.831407 -1.399485 -3.721422
  H 3.039088 -2.468809 -2.335341
  H 6.702683 0.469779 -2.687284
 23
 42.243080
  C 0.884908 0.727249 0.588227
  C 2.253421 0.247081 0.259974
  C 3.026477 -0.538350 1.258629
  H 2.438902 -0.734346 2.150473
  C 2.788084 0.523336 -0.987181
  C 4.014907 0.146029 -1.416093
  C 4.909097 -0.428576 -2.148159
  C 4.859719 -1.612386 -3.062007
  C 3.435674 -2.123347 -3.246815
  H 3.431819 -2.983535 -3.910674
  O 6.331801 0.011906 -1.925059
  H 0.582587 0.423655 1.586492
  H 0.158223 0.339204 -0.127487
  H 0.833719 1.815286 0.526705
  H 3.925702 0.002648 1.555413
  H 3.347943 -1.488897 0.833919
  H 2.211280 1.150131 -1.658756
  H 6.265081 0.575905 -1.122705
  H 5.489634 -2.403921 -2.648887
  H 5.266589 -1.327126 -4.034682
  H 2.803870 -1.352523 -3.681216
  H 3.004619 -2.422196 -2.295524
  H 6.737320 0.473410 -2.694226
 23
 42.207928
  C 0.856519 0.674052 0.554827
  C 2.248280 0.240985 0.258780
  C 3.042444 -0.468507 1.297906
  H 2.466533 -0.613022 2.207208
  C 2.777874 0.484583 -0.993409
  C 4.022816 0.148752 -1.405894
  C 4.926608 -0.418236 -2.128554
  C 4.843562 -1.580696 -3.074392
  C 3.412922 -2.073130 -3.248312
  H 3.390175 -2.915967 -3.933587
  O 6.359821 -0.056641 -1.931944
  H 0.560898 0.409011 1.565870
  H 0.153219 0.216797 -0.142821
  H 0.757390 1.754546 0.437141
  H 3.937771 0.099491 1.547006
  H 3.367313 -1.443129 0.931532
  H 2.174372 1.052387 -1.693988
  H 6.476085 0.408926 -1.074040
  H 5.468990 -2.390604 -2.691568
  H 5.238126 -1.274042 -4.045471
  H 2.780295 -1.286935 -3.651597
  H 2.995968 -2.393018 -2.297074
  H 6.743394 0.445031 -2.687256
