 26
 0.000000
  C 0.907436 0.048672 0.273168
  C 2.401958 0.059087 0.088517
  C 3.245299 -0.012295 1.353652
  C 2.525649 -0.088071 2.696471
  H 3.244305 -0.133770 3.506397
  C 2.994207 0.127339 -1.121039
  C 2.354261 0.204818 -2.494144
  C 0.843740 0.217098 -2.711698
  H 0.627680 0.276980 -3.772958
  C 4.453165 0.132387 -1.210421
  C 5.192899 0.194952 -2.319311
  O 6.552521 0.195809 -2.334436
  H 0.596516 -0.010019 1.313242
  H 0.466178 -0.815181 -0.217096
  H 0.466180 0.962194 -0.116802
  H 3.891645 0.871140 1.384067
  H 3.891644 -0.893542 1.284495
  H 1.897359 -0.976228 2.747307
  H 1.897355 0.788722 2.846900
  H 2.745242 -0.643540 -3.066489
  H 2.745242 1.112183 -2.967418
  H 0.385184 1.076207 -2.230738
  H 0.385186 -0.690663 -2.330440
  H 4.999912 0.079868 -0.279653
  H 4.815334 0.251795 -3.326660
  H 6.883238 0.144676 -1.428196
 26
 3.493914
  C 0.893387 0.050691 0.237336
  C 2.364465 0.059466 0.081774
  C 3.223113 -0.011737 1.343740
  C 2.528328 -0.088433 2.702899
  H 3.286109 -0.132456 3.483072
  C 2.980858 0.126974 -1.114561
  C 2.351151 0.204832 -2.494354
  C 0.841071 0.217315 -2.715584
  H 0.655099 0.277802 -3.787569
  C 4.438356 0.131833 -1.200612
  C 5.186189 0.194192 -2.305833
  O 6.547989 0.194369 -2.308918
  H 0.816240 -0.008480 1.285918
  H 0.413581 -0.814774 -0.222984
  H 0.413582 0.962450 -0.122699
  H 3.869488 0.871943 1.365364
  H 3.869490 -0.892241 1.265806
  H 1.909238 -0.980363 2.788317
  H 1.909224 0.788234 2.888122
  H 2.750334 -0.643416 -3.060715
  H 2.750342 1.111416 -2.961694
  H 0.369928 1.076830 -2.248637
  H 0.369931 -0.689267 -2.348302
  H 4.986231 0.079282 -0.269300
  H 4.814908 0.251159 -3.315378
  H 6.874763 0.143139 -1.400969
 26
 11.814445
  C 0.858807 0.051808 0.217786
  C 2.339080 0.060367 0.065920
  C 3.192563 -0.010746 1.326053
  C 2.507185 -0.087863 2.692682
  H 3.279200 -0.130953 3.456250
  C 2.982931 0.127536 -1.124543
  C 2.356413 0.205055 -2.498402
  C 0.848829 0.216393 -2.699197
  H 0.651173 0.276519 -3.764810
  C 4.448595 0.131956 -1.202715
  C 5.202168 0.194149 -2.305193
  O 6.561634 0.194003 -2.302114
  H 1.007393 -0.006707 1.254732
  H 0.371441 -0.804696 -0.186797
  H 0.371456 0.948400 -0.087872
  H 3.837887 0.871648 1.345354
  H 3.837889 -0.889726 1.245957
  H 1.897947 -0.984694 2.798274
  H 1.897972 0.791382 2.898489
  H 2.751408 -0.643799 -3.063873
  H 2.751420 1.112120 -2.964804
  H 0.383648 1.079491 -2.229426
  H 0.383635 -0.694064 -2.329492
  H 4.993398 0.079608 -0.274416
  H 4.835644 0.251157 -3.316259
  H 6.884865 0.142674 -1.391882
 26
 24.939015
  C 0.822581 0.052540 0.204765
  C 2.320917 0.060802 0.058120
  C 3.189202 -0.010761 1.326283
  C 2.515299 -0.088050 2.696020
  H 3.294231 -0.130614 3.450319
  C 2.983614 0.127590 -1.125650
  C 2.361662 0.205469 -2.505865
  C 0.851484 0.216641 -2.703549
  H 0.651175 0.276743 -3.768775
  C 4.442824 0.131591 -1.196527
  C 5.200658 0.193593 -2.295548
  O 6.561474 0.193171 -2.287161
  H 1.147518 -0.003332 1.194882
  H 0.323759 -0.809800 -0.169407
  H 0.323774 0.951512 -0.070026
  H 3.833709 0.871678 1.343006
  H 3.833709 -0.889494 1.243624
  H 1.906446 -0.985317 2.809814
  H 1.906467 0.790707 2.910031
  H 2.755916 -0.642552 -3.068884
  H 2.755963 1.111473 -2.969958
  H 0.388260 1.078951 -2.232257
  H 0.388226 -0.693211 -2.332227
  H 4.985781 0.079105 -0.265786
  H 4.838527 0.250581 -3.305981
  H 6.882039 0.141799 -1.376049
