12

C -3.480931 0.987964 -0.142586
C -2.038788 0.587544 -0.043991
C -1.655119 -0.477254 0.639752
C -0.241501 -0.958429 0.808364
H 0.46223308123117235 -0.28707091659931394 0.29451901679370684
H -4.08668 0.162316 -0.513165
H -3.617056 1.865457 -0.765362
H -3.836128 1.214604 0.863344
H -1.325823 1.218182 -0.549911
H -2.401082 -1.087535 1.133943
H -0.016107 -1.007564 1.878338
H -0.188502 -1.976245 0.409803
