10

H 0.025738 1.038293 -0.420103
C -1.05458 0.184457 0.206133
O -0.8517 -0.616384 1.080125
C -2.439778 0.433185 -0.36336
C -3.509948 -0.40024 0.336032
H -2.407758 0.183199 -1.428515
H -2.670493 1.498203 -0.283859
H -3.09628 -1.372327 0.601598
H -3.835041 0.08295 1.253442
H -4.371244 -0.54405 -0.310124
