 23
 0.000000
  C 1.010603 0.111285 0.328321
  C 2.485458 0.126710 0.367515
  C 3.234841 0.604201 1.555233
  C 2.415645 1.083471 2.746982
  H 3.080286 1.402891 3.541776
  C 3.149315 -0.328716 -0.765397
  C 4.532017 -0.394321 -0.929372
  C 5.181883 -0.851115 -2.069575
  C 4.530004 -1.344819 -3.301007
  H 3.450037 -1.336985 -3.281338
  O 6.492199 -0.876033 -2.133825
  H 0.552958 0.477549 1.238936
  H 0.655565 -0.903522 0.142200
  H 0.656017 0.715108 -0.508455
  H 3.893987 1.419826 1.237747
  H 3.893831 -0.204251 1.890801
  H 1.783126 0.288359 3.134971
  H 1.783456 1.926079 2.476576
  H 2.527765 -0.657710 -1.584559
  H 5.149035 -0.063708 -0.105667
  H 4.884836 -2.358235 -3.496208
  H 4.884791 -0.746789 -4.142204
  H 6.943442 -0.554204 -1.331767
 23
 4.991894
  C 1.005047 0.120672 0.349454
  C 2.481937 0.125219 0.364802
  C 3.246822 0.600048 1.547120
  C 2.440752 1.083286 2.746920
  H 3.122280 1.398921 3.533885
  C 3.120875 -0.337106 -0.784328
  C 4.481930 -0.419905 -0.991093
  C 5.201735 -0.858540 -2.088492
  C 4.581501 -1.359258 -3.334963
  H 3.498683 -1.345535 -3.296635
  O 6.527265 -0.856121 -2.090412
  H 0.566560 0.490209 1.267216
  H 0.639592 -0.891089 0.163389
  H 0.641597 0.723090 -0.485355
  H 3.906746 1.415806 1.226996
  H 3.905247 -0.211213 1.881350
  H 1.812667 0.292435 3.149377
  H 1.814511 1.933850 2.489498
  H 2.455661 -0.657230 -1.582301
  H 4.883314 -0.054945 -0.080841
  H 4.933156 -2.372710 -3.528264
  H 4.930841 -0.759264 -4.175237
  H 6.942318 -0.523746 -1.266260
 23
 15.229990
  C 1.004519 0.127039 0.369970
  C 2.484207 0.125653 0.362913
  C 3.261137 0.599479 1.538925
  C 2.462761 1.083092 2.746563
  H 3.150898 1.396201 3.524416
  C 3.095540 -0.340132 -0.795676
  C 4.451419 -0.433297 -1.028876
  C 5.214892 -0.861711 -2.095799
  C 4.631107 -1.366453 -3.357614
  H 3.547496 -1.356502 -3.339859
  O 6.516574 -0.846642 -2.054378
  H 0.580219 0.497906 1.292236
  H 0.631899 -0.884911 0.188709
  H 0.630121 0.730472 -0.461586
  H 3.917986 1.421701 1.219437
  H 3.920897 -0.213249 1.876344
  H 1.840133 0.293074 3.156185
  H 1.837813 1.935633 2.497066
  H 2.383753 -0.653510 -1.572091
  H 4.662990 -0.049535 -0.076533
  H 4.990003 -2.381278 -3.541528
  H 4.994201 -0.762003 -4.191160
  H 6.890977 -0.518769 -1.228571
 23
 28.873446
  C 1.015858 0.133135 0.381980
  C 2.483114 0.127696 0.368857
  C 3.260534 0.600973 1.545748
  C 2.462418 1.083468 2.748824
  H 3.155832 1.398737 3.534251
  C 3.088203 -0.342278 -0.799780
  C 4.443657 -0.447399 -1.062521
  C 5.221703 -0.868002 -2.112303
  C 4.650186 -1.373919 -3.372800
  H 3.567450 -1.366040 -3.355787
  O 6.539166 -0.843773 -2.054753
  H 0.595888 0.506246 1.308759
  H 0.642367 -0.872127 0.203266
  H 0.642531 0.734475 -0.443299
  H 3.914161 1.420804 1.232175
  H 3.915450 -0.206978 1.885995
  H 1.837102 0.291164 3.157887
  H 1.836749 1.938503 2.497051
  H 2.358056 -0.646371 -1.555221
  H 4.500569 -0.056471 -0.090182
  H 5.010212 -2.381510 -3.553407
  H 5.012013 -0.772245 -4.200376
  H 6.901657 -0.508908 -1.218095
 23
 43.424500
  C 1.000950 0.134795 0.386814
  C 2.478291 0.129154 0.371928
  C 3.264565 0.603542 1.551254
  C 2.471078 1.088113 2.760631
  H 3.166980 1.401473 3.541080
  C 3.081077 -0.338836 -0.792218
  C 4.451342 -0.451853 -1.074696
  C 5.236055 -0.871343 -2.120990
  C 4.671263 -1.379452 -3.387006
  H 3.585534 -1.371707 -3.371980
  O 6.544591 -0.844778 -2.055792
  H 0.581900 0.508282 1.314826
  H 0.624616 -0.874449 0.208347
  H 0.624180 0.738736 -0.440995
  H 3.918785 1.424313 1.236149
  H 3.920651 -0.205805 1.890627
  H 1.847290 0.298218 3.172245
  H 1.846383 1.942990 2.512716
  H 2.337104 -0.638200 -1.535714
  H 4.371645 -0.060650 -0.101695
  H 5.033779 -2.390830 -3.566731
  H 5.036703 -0.775292 -4.216768
  H 6.901775 -0.507149 -1.210250
 23
 57.014493
  C 1.009218 0.132574 0.382425
  C 2.478684 0.132265 0.378322
  C 3.260507 0.611231 1.568588
  C 2.459725 1.093228 2.773981
  H 3.148606 1.407231 3.555454
  C 3.092080 -0.333568 -0.781403
  C 4.474635 -0.449505 -1.071036
  C 5.241816 -0.873182 -2.126091
  C 4.664999 -1.382454 -3.395048
  H 3.588645 -1.371917 -3.375976
  O 6.549039 -0.853004 -2.073359
  H 0.585028 0.503051 1.303785
  H 0.639768 -0.872042 0.203287
  H 0.638124 0.732253 -0.442537
  H 3.915528 1.435339 1.258971
  H 3.918744 -0.196144 1.913489
  H 1.836387 0.301951 3.182382
  H 1.834316 1.946220 2.523580
  H 2.342957 -0.636660 -1.533251
  H 4.285449 -0.064078 -0.113204
  H 5.022364 -2.393072 -3.576180
  H 5.026880 -0.781385 -4.225372
  H 6.913742 -0.518058 -1.230941
 23
 67.956487
  C 1.002314 0.134418 0.387461
  C 2.490506 0.136444 0.389195
  C 3.255502 0.612013 1.570661
  C 2.440372 1.091385 2.768998
  H 3.125009 1.410277 3.562382
  C 3.118967 -0.326617 -0.763140
  C 4.516519 -0.445461 -1.060905
  C 5.252956 -0.876173 -2.133494
  C 4.654157 -1.377413 -3.383404
  H 3.562854 -1.358759 -3.345590
  O 6.567439 -0.868009 -2.109638
  H 0.569956 0.509447 1.319264
  H 0.629567 -0.881465 0.206266
  H 0.627947 0.740250 -0.447145
  H 3.910486 1.435774 1.263599
  H 3.913749 -0.193106 1.917367
  H 1.814237 0.295689 3.172474
  H 1.812167 1.944184 2.511739
  H 2.377715 -0.633124 -1.522745
  H 4.241259 -0.063060 -0.110127
  H 5.002137 -2.392009 -3.569373
  H 5.007539 -0.777120 -4.220393
  H 6.952299 -0.536446 -1.275232
 23
 77.026240
  C 1.015020 0.123499 0.365791
  C 2.489678 0.136677 0.394760
  C 3.245873 0.623171 1.597732
  C 2.418546 1.103565 2.792517
  H 3.093656 1.425031 3.588282
  C 3.138065 -0.324509 -0.748476
  C 4.548497 -0.440286 -1.045380
  C 5.252219 -0.879635 -2.140486
  C 4.628479 -1.370942 -3.378792
  H 3.538021 -1.342773 -3.325156
  O 6.566246 -0.885902 -2.144010
  H 0.575512 0.486932 1.264224
  H 0.655816 -0.885735 0.181786
  H 0.654078 0.719510 -0.468352
  H 3.906441 1.453461 1.293509
  H 3.910095 -0.183380 1.954094
  H 1.794001 0.309355 3.191393
  H 1.791900 1.951167 2.529958
  H 2.406847 -0.638903 -1.521526
  H 4.201883 -0.065559 -0.112148
  H 4.964643 -2.388710 -3.571907
  H 4.974467 -0.772491 -4.219962
  H 6.970034 -0.560047 -1.317863
 23
 83.396727
  C 1.017873 0.079482 0.388243
  C 2.495597 0.116223 0.415002
  C 3.236956 0.642861 1.600497
  C 2.396501 1.139655 2.772299
  H 3.057086 1.494265 3.560062
  C 3.158009 -0.360415 -0.712208
  C 4.584855 -0.460616 -1.028338
  C 5.256502 -0.891031 -2.138544
  C 4.611567 -1.294392 -3.410136
  H 3.532555 -1.212131 -3.362284
  O 6.569213 -0.970374 -2.141776
  H 0.568336 0.466685 1.293674
  H 0.672455 -0.943269 0.233288
  H 0.644389 0.650759 -0.462930
  H 3.879034 1.469910 1.271243
  H 3.908888 -0.137965 1.977328
  H 1.783418 0.344907 3.189551
  H 1.755179 1.967854 2.481943
  H 2.439065 -0.714916 -1.471948
  H 4.183959 -0.069103 -0.099016
  H 4.894720 -2.321002 -3.639055
  H 4.990448 -0.681630 -4.226987
  H 6.986131 -0.708264 -1.298783
 23
 88.547529
  C 1.010637 0.016032 0.421387
  C 2.484358 0.088444 0.439032
  C 3.220932 0.686103 1.591467
  C 2.382129 1.203754 2.755850
  H 3.043274 1.606484 3.519223
  C 3.153930 -0.417620 -0.663470
  C 4.591344 -0.510975 -1.040183
  C 5.258077 -0.917283 -2.130622
  C 4.622781 -1.170199 -3.457742
  H 3.551070 -1.014202 -3.434333
  O 6.550217 -1.115272 -2.120767
  H 0.559673 0.444203 1.306090
  H 0.689636 -1.018482 0.334232
  H 0.617548 0.533034 -0.456843
  H 3.823647 1.518308 1.213359
  H 3.923391 -0.050408 1.994548
  H 1.798591 0.405044 3.213479
  H 1.714576 1.999661 2.445992
  H 2.448888 -0.830040 -1.412415
  H 4.162670 -0.096291 -0.102743
  H 4.847477 -2.202550 -3.739741
  H 5.064975 -0.535624 -4.213458
  H 6.964647 -0.966092 -1.251399
 23
 89.995535
  C 1.005889 -0.091201 0.478059
  C 2.479899 0.026328 0.475706
  C 3.208309 0.725352 1.576925
  C 2.352531 1.330051 2.685606
  H 3.001454 1.811065 3.415280
  C 3.151538 -0.533162 -0.574419
  C 4.587238 -0.606290 -1.032020
  C 5.254300 -0.962263 -2.137453
  C 4.644185 -0.956357 -3.487093
  H 3.606245 -0.645632 -3.460361
  O 6.526082 -1.321637 -2.141860
  H 0.553973 0.384171 1.341798
  H 0.710753 -1.145112 0.467965
  H 0.590493 0.356366 -0.420394
  H 3.810468 1.531294 1.131960
  H 3.916136 0.023924 2.045331
  H 1.782251 0.569335 3.206266
  H 1.671341 2.086195 2.299604
  H 2.484966 -1.051713 -1.259815
  H 4.143891 -0.156083 -0.095097
  H 4.726380 -1.962921 -3.887560
  H 5.211393 -0.293918 -4.148203
  H 6.927578 -1.342807 -1.265996
 23
 92.762741
  C 0.980363 -0.124436 0.506215
  C 2.463876 0.016140 0.494005
  C 3.201974 0.766903 1.576144
  C 2.354303 1.400750 2.671547
  H 3.006269 1.907785 3.378453
  C 3.142005 -0.581165 -0.552318
  C 4.574168 -0.649786 -1.047406
  C 5.246372 -0.978455 -2.143043
  C 4.668313 -0.863298 -3.517152
  H 3.639884 -0.502390 -3.496935
  O 6.503529 -1.388643 -2.126340
  H 0.529066 0.371719 1.340560
  H 0.701334 -1.173209 0.538992
  H 0.552702 0.280146 -0.407948
  H 3.793853 1.563926 1.103806
  H 3.919867 0.081824 2.054086
  H 1.789643 0.652523 3.224302
  H 1.669230 2.137356 2.268379
  H 2.490362 -1.136833 -1.217666
  H 4.115778 -0.218584 -0.098792
  H 4.710294 -1.850875 -3.993286
  H 5.288475 -0.186012 -4.111008
  H 6.875413 -1.480884 -1.242927
 23
 94.382683
  C 0.989103 -0.152410 0.536226
  C 2.463834 0.000067 0.512113
  C 3.191522 0.799576 1.548800
  C 2.336992 1.472223 2.617170
  H 2.983886 2.018417 3.299935
  C 3.143025 -0.636740 -0.504629
  C 4.572771 -0.706212 -1.031942
  C 5.237841 -0.994445 -2.142002
  C 4.679522 -0.732305 -3.512834
  H 3.681999 -0.316038 -3.468681
  O 6.474733 -1.478335 -2.156590
  H 0.531117 0.389981 1.358040
  H 0.719470 -1.204865 0.625091
  H 0.555183 0.202260 -0.399863
  H 3.773676 1.573997 1.038302
  H 3.912709 0.152671 2.055949
  H 1.781845 0.742929 3.203224
  H 1.640737 2.184831 2.181129
  H 2.491414 -1.222687 -1.157588
  H 4.101673 -0.312601 -0.047547
  H 4.667512 -1.669810 -4.064692
  H 5.339394 -0.052849 -4.039350
  H 6.832055 -1.670029 -1.275667
 23
 98.645573
  C 0.952689 -0.129214 0.563458
  C 2.431198 0.020460 0.530712
  C 3.171370 0.827961 1.562503
  C 2.325805 1.515228 2.630051
  H 2.979408 2.064094 3.304939
  C 3.102369 -0.628688 -0.488500
  C 4.600742 -0.716225 -1.074558
  C 5.267402 -0.996867 -2.183111
  C 4.718658 -0.709484 -3.553326
  H 3.722917 -0.283281 -3.507378
  O 6.499269 -1.483656 -2.195376
  H 0.501087 0.417730 1.381639
  H 0.680731 -1.180839 0.660675
  H 0.515540 0.219024 -0.369786
  H 3.756109 1.595462 1.042009
  H 3.892814 0.180596 2.073224
  H 1.770265 0.795289 3.224741
  H 1.630994 2.228056 2.191300
  H 2.451014 -1.208985 -1.131555
  H 4.081742 -0.313115 -0.012617
  H 4.699527 -1.638288 -4.121580
  H 5.391469 -0.025717 -4.066557
  H 6.849956 -1.685919 -1.316535
