 26
 0.000000
  C 0.963535 0.053489 0.187809
  C 2.464094 0.058264 0.103145
  C 3.269645 -0.014043 1.384660
  C 2.499573 -0.088267 2.699952
  C 3.460225 -0.154979 3.882332
  C 3.078610 0.125837 -1.094396
  C 2.328389 0.199188 -2.394353
  H 1.251152 0.192979 -2.284276
  C 4.525505 0.132930 -1.220018
  C 5.212212 0.197326 -2.361396
  O 6.567292 0.202166 -2.447131
  H 0.610400 -0.004257 1.211149
  H 0.552263 -0.803480 -0.344582
  H 0.552264 0.964912 -0.244796
  H 3.918387 0.865817 1.434183
  H 3.918380 -0.893878 1.334895
  H 1.864318 -0.976372 2.715132
  H 1.864329 0.792462 2.814947
  H 4.096248 -1.035100 3.812648
  H 2.907585 -0.207764 4.817703
  H 4.096240 0.727391 3.912103
  H 2.611686 -0.645772 -3.024009
  H 2.611684 1.109613 -2.924952
  H 5.100178 0.081247 -0.304036
  H 4.774696 0.252860 -3.345611
  H 6.947012 0.152185 -1.561266
 26
 10.262160
  C 0.839342 0.056106 0.141417
  C 2.469304 0.061275 0.049767
  C 3.331261 -0.017729 1.449981
  C 2.538601 -0.090968 2.747820
  C 3.478376 -0.158627 3.946942
  C 3.083458 0.128018 -1.133040
  C 2.335917 0.201466 -2.434733
  H 1.259027 0.195086 -2.321628
  C 4.531534 0.134630 -1.250160
  C 5.225244 0.198834 -2.388125
  O 6.580800 0.203236 -2.466099
  H 0.492186 -0.001716 1.166107
  H 0.433180 -0.799956 -0.391210
  H 0.433182 0.966654 -0.291523
  H 3.977437 0.861374 1.503596
  H 3.977435 -0.897277 1.404365
  H 1.902009 -0.978285 2.750634
  H 1.902007 0.790383 2.850443
  H 4.114841 -1.039465 3.888291
  H 2.909333 -0.210857 4.872445
  H 4.114833 0.723219 3.987759
  H 2.618095 -0.643419 -3.063664
  H 2.618095 1.111740 -2.964623
  H 5.100072 0.082750 -0.330688
  H 4.793280 0.254479 -3.374308
  H 6.956033 0.153096 -1.577412
