 20
 0.000000
  H 1.493754 0.140038 0.400253
  C 2.574433 0.134284 0.386322
  C 3.272742 0.616055 1.584234
  C 2.345517 1.066822 2.704800
  H 2.920691 1.410182 3.559074
  C 3.180770 -0.327596 -0.762542
  C 4.562561 -0.404844 -0.954996
  C 5.203489 -0.865463 -2.104987
  C 4.529271 -1.353118 -3.322560
  H 3.449178 -1.336148 -3.280935
  O 6.507794 -0.894888 -2.179562
  H 3.934968 1.445405 1.306766
  H 3.934787 -0.174541 1.958314
  H 1.705780 0.249604 3.029570
  H 1.706124 1.881633 2.373337
  H 2.528332 -0.647938 -1.560602
  H 5.187646 -0.076081 -0.135032
  H 4.872577 -2.368799 -3.525853
  H 4.873021 -0.758848 -4.170822
  H 6.974889 -0.575563 -1.383613
 20
 0.431325
  H 1.523240 0.452166 0.299285
  C 2.593869 0.295780 0.322485
  C 3.265696 0.533856 1.605675
  C 2.322890 0.966602 2.718810
  H 2.873364 1.131144 3.641075
  C 3.198404 -0.146324 -0.832119
  C 4.582502 -0.252323 -1.011449
  C 5.212054 -0.834264 -2.113828
  C 4.515153 -1.531858 -3.210983
  H 3.443735 -1.587041 -3.070674
  O 6.511283 -0.807610 -2.238854
  H 4.041154 1.296362 1.468636
  H 3.807007 -0.369774 1.910123
  H 1.569536 0.205269 2.906475
  H 1.812083 1.891928 2.458065
  H 2.556363 -0.344142 -1.676992
  H 5.218887 0.169020 -0.244346
  H 4.923623 -2.537449 -3.306916
  H 4.741868 -1.031340 -4.154081
  H 6.993030 -0.333584 -1.534285
 20
 2.470267
  H 1.571957 0.725841 0.219006
  C 2.609180 0.427070 0.269333
  C 3.235470 0.422189 1.597620
  C 2.310752 0.878731 2.716331
  H 2.824776 0.843691 3.673104
  C 3.218595 0.005022 -0.886024
  C 4.605118 -0.087580 -1.078885
  C 5.219667 -0.781222 -2.121160
  C 4.502994 -1.673463 -3.053442
  H 3.444485 -1.744147 -2.837570
  O 6.509244 -0.715382 -2.319558
  H 4.126664 1.061785 1.570555
  H 3.619756 -0.580236 1.816499
  H 1.434299 0.237226 2.781296
  H 1.972977 1.898689 2.548868
  H 2.598137 -0.062237 -1.769430
  H 5.245905 0.436029 -0.380100
  H 4.951338 -2.665719 -3.011126
  H 4.656759 -1.324620 -4.075527
  H 6.998331 -0.129924 -1.710935
 20
 6.918470
  H 1.673322 0.987822 0.170069
  C 2.649955 0.529833 0.242649
  C 3.191713 0.318777 1.594921
  C 2.276559 0.805051 2.708761
  H 2.731389 0.626405 3.678457
  C 3.266060 0.104743 -0.901956
  C 4.647212 0.054652 -1.161295
  C 5.231752 -0.745153 -2.138925
  C 4.489657 -1.771186 -2.899517
  H 3.446549 -1.828415 -2.610065
  O 6.502096 -0.658970 -2.435169
  H 4.165877 0.823791 1.660324
  H 3.416754 -0.741682 1.733164
  H 1.322201 0.282163 2.684531
  H 2.084232 1.869259 2.615676
  H 2.665655 0.164761 -1.804968
  H 5.300387 0.665153 -0.549237
  H 4.963746 -2.740693 -2.749408
  H 4.575602 -1.561917 -3.964762
  H 7.010329 -0.008773 -1.914666
 20
 13.873874
  H 1.761486 1.124625 0.155571
  C 2.713235 0.615776 0.235123
  C 3.154341 0.244221 1.596180
  C 2.221956 0.738151 2.690937
  H 2.584166 0.423318 3.665150
  C 3.354091 0.225852 -0.896126
  C 4.718698 0.177810 -1.257633
  C 5.250751 -0.742204 -2.147305
  C 4.451965 -1.833780 -2.740459
  H 3.428631 -1.830663 -2.383683
  O 6.511694 -0.726198 -2.500501
  H 4.167356 0.642383 1.747471
  H 3.251598 -0.841102 1.660170
  H 1.218378 0.337095 2.559518
  H 2.161364 1.822716 2.686499
  H 2.799832 0.431756 -1.819961
  H 5.389000 0.901363 -0.806183
  H 4.918066 -2.791031 -2.509020
  H 4.474925 -1.748956 -3.830535
  H 7.040129 0.009411 -2.135351
 20
 19.194171
  H 1.792678 1.173888 0.153454
  C 2.719126 0.624137 0.225822
  C 3.137711 0.237005 1.589341
  C 2.212146 0.759872 2.679407
  H 2.568646 0.458099 3.654112
  C 3.352304 0.221964 -0.902147
  C 4.731707 0.151283 -1.237394
  C 5.259252 -0.781811 -2.118787
  C 4.439197 -1.852035 -2.733246
  H 3.422463 -1.856573 -2.346571
  O 6.509438 -0.758115 -2.497933
  H 4.151380 0.612685 1.744618
  H 3.212154 -0.851592 1.654594
  H 1.205851 0.367684 2.558464
  H 2.166838 1.847052 2.661009
  H 2.876508 0.553308 -1.831437
  H 5.409150 0.844642 -0.762314
  H 4.901009 -2.814796 -2.556281
  H 4.427253 -1.722511 -3.812209
  H 7.046985 -0.029149 -2.136231
 20
 26.787046
  H 1.923850 1.276667 0.158258
  C 2.847557 0.715525 0.249202
  C 3.137121 0.191504 1.614883
  C 2.100654 0.634721 2.635089
  H 2.349732 0.238923 3.619192
  C 3.555202 0.447854 -0.844340
  C 4.864734 0.305299 -1.398398
  C 5.253108 -0.766418 -2.190708
  C 4.322552 -1.843154 -2.552807
  H 3.334327 -1.677866 -2.138875
  O 6.476709 -0.907784 -2.634956
  H 4.129911 0.539408 1.912279
  H 3.178888 -0.901086 1.588573
  H 1.106230 0.269116 2.366563
  H 2.062200 1.718521 2.708738
  H 3.176920 0.855332 -1.808659
  H 5.618800 1.019924 -1.077061
  H 4.710790 -2.794447 -2.199041
  H 4.266052 -1.926654 -3.645023
  H 7.106962 -0.217351 -2.357017
 20
 29.121472
  H 1.891771 1.266874 0.131266
  C 2.857534 0.797375 0.212438
  C 3.188753 0.235626 1.569119
  C 2.095747 0.525334 2.585403
  H 2.364152 0.106625 3.555867
  C 3.604683 0.631349 -0.853876
  C 4.905991 0.349548 -1.398220
  C 5.226565 -0.803554 -2.121745
  C 4.222808 -1.831142 -2.458648
  H 3.247610 -1.590883 -2.047106
  O 6.435228 -1.034137 -2.566547
  H 4.134822 0.675466 1.911472
  H 3.345490 -0.841522 1.485987
  H 1.147704 0.070815 2.277073
  H 1.941813 1.600129 2.701287
  H 3.359679 1.082468 -1.856465
  H 5.695902 1.055977 -1.171945
  H 4.552467 -2.799365 -2.094898
  H 4.152812 -1.928084 -3.549917
  H 7.121437 -0.414886 -2.266093
 20
 41.077461
  H 2.052067 1.312551 0.123802
  C 2.969536 0.762521 0.285285
  C 3.132050 0.203636 1.676915
  C 1.941651 0.546674 2.561614
  H 2.088944 0.137253 3.558072
  C 3.832983 0.608082 -0.672088
  C 4.995901 0.353518 -1.447668
  C 5.228382 -0.801922 -2.197296
  C 4.199710 -1.848324 -2.390377
  H 3.300089 -1.634101 -1.824638
  O 6.371810 -1.004662 -2.826429
  H 4.049247 0.601704 2.113925
  H 3.243049 -0.880480 1.613228
  H 1.022685 0.127164 2.158973
  H 1.822490 1.623543 2.655140
  H 3.764552 1.054119 -1.781193
  H 5.837216 1.018318 -1.274007
  H 4.600806 -2.814358 -2.085511
  H 3.960335 -1.943708 -3.449568
  H 7.039442 -0.307663 -2.697474
 20
 47.960766
  H 2.105499 1.288111 0.129260
  C 3.025478 0.748892 0.324640
  C 3.126459 0.191029 1.729234
  C 1.885493 0.514669 2.548741
  H 1.984252 0.100426 3.548350
  C 3.932695 0.611636 -0.578453
  C 5.001593 0.410197 -1.488932
  C 5.201355 -0.799280 -2.214972
  C 4.148090 -1.828408 -2.349645
  H 3.264306 -1.570696 -1.777964
  O 6.331029 -1.037712 -2.866133
  H 4.011674 0.609876 2.212060
  H 3.264337 -0.889275 1.671881
  H 0.995059 0.087685 2.094671
  H 1.748755 1.589486 2.642320
  H 4.084662 1.060804 -1.923219
  H 5.868090 1.053369 -1.350716
  H 4.530100 -2.792041 -2.011744
  H 3.884854 -1.961302 -3.399852
  H 7.013723 -0.351224 -2.763100
 20
 46.166461
  H 2.095642 1.109272 0.110137
  C 3.052031 0.659545 0.367662
  C 3.147844 0.240859 1.823775
  C 1.865229 0.556574 2.582159
  H 1.967434 0.256637 3.621353
  C 3.982861 0.509676 -0.500135
  C 4.949508 0.421725 -1.546443
  C 5.183493 -0.805919 -2.269107
  C 4.175635 -1.880942 -2.339305
  H 3.307801 -1.655942 -1.728251
  O 6.292830 -0.997957 -2.953750
  H 3.989507 0.758622 2.284760
  H 3.354912 -0.827663 1.871538
  H 1.017535 0.020434 2.158945
  H 1.651450 1.622690 2.560089
  H 4.083303 0.956913 -2.050743
  H 5.791228 1.104273 -1.442451
  H 4.617527 -2.821247 -2.008510
  H 3.869218 -2.041309 -3.372929
  H 6.946298 -0.279364 -2.892010
 20
 42.440002
  H 2.446348 1.414983 0.171691
  C 3.215205 0.695984 0.454375
  C 2.982117 0.086357 1.825130
  C 1.712133 0.622405 2.469716
  H 1.572784 0.167658 3.447549
  C 4.193810 0.418256 -0.322924
  C 5.221446 0.259263 -1.305930
  C 5.209855 -0.896129 -2.200772
  C 3.955932 -1.560983 -2.591318
  H 3.099480 -1.130551 -2.082881
  O 6.308950 -1.344501 -2.749582
  H 3.842834 0.308284 2.458269
  H 2.919161 -0.998122 1.722621
  H 0.838961 0.390869 1.864189
  H 1.767896 1.700197 2.604926
  H 4.771714 1.077531 -1.912067
  H 6.202406 0.586874 -0.961116
  H 4.017716 -2.625980 -2.363847
  H 3.818147 -1.497344 -3.671912
  H 7.130210 -0.899009 -2.469872
 20
 40.653089
  H 2.068600 0.986341 0.139504
  C 3.043740 0.584621 0.417162
  C 3.130805 0.211781 1.886466
  C 1.828131 0.500471 2.617996
  H 1.926899 0.238603 3.669547
  C 3.975867 0.441356 -0.448892
  C 4.893683 0.455962 -1.542129
  C 5.143777 -0.790188 -2.287839
  C 4.126029 -1.847217 -2.386764
  H 3.255913 -1.622151 -1.783122
  O 6.253547 -0.976897 -2.943500
  H 3.945840 0.775251 2.342395
  H 3.375312 -0.847670 1.966723
  H 1.009325 -0.083651 2.202840
  H 1.571224 1.555956 2.555905
  H 4.305835 1.055511 -2.261146
  H 5.792617 1.034564 -1.318299
  H 4.552480 -2.799834 -2.071761
  H 3.831034 -1.987300 -3.426911
  H 6.928691 -0.278359 -2.852786
 20
 39.943807
  H 2.090040 0.926840 0.106910
  C 3.068693 0.555740 0.420812
  C 3.126733 0.228239 1.901080
  C 1.797576 0.494731 2.592072
  H 1.880066 0.270811 3.658136
  C 4.027275 0.422809 -0.417999
  C 4.921563 0.452146 -1.532535
  C 5.131408 -0.784202 -2.307121
  C 4.116067 -1.843492 -2.359311
  H 3.290331 -1.638246 -1.685412
  O 6.203751 -0.961671 -3.024143
  H 3.911009 0.829754 2.360822
  H 3.403043 -0.821220 2.019362
  H 1.010204 -0.129445 2.178642
  H 1.507123 1.537446 2.488200
  H 4.409083 1.120852 -2.246088
  H 5.855276 0.961480 -1.274132
  H 4.569886 -2.803584 -2.107652
  H 3.745356 -1.954232 -3.376655
  H 6.872741 -0.250572 -2.986664
 20
 39.818935
  H 2.103895 0.861184 0.085224
  C 3.092343 0.540722 0.419927
  C 3.143160 0.252608 1.908347
  C 1.787939 0.460839 2.571116
  H 1.863477 0.270069 3.637205
  C 4.075124 0.454342 -0.398490
  C 4.952963 0.463291 -1.526162
  C 5.121797 -0.780432 -2.298892
  C 4.084303 -1.820963 -2.327575
  H 3.284183 -1.608803 -1.628119
  O 6.177200 -0.982211 -3.031568
  H 3.884887 0.907570 2.367209
  H 3.474183 -0.775453 2.056991
  H 1.042035 -0.218403 2.159919
  H 1.440607 1.483869 2.435627
  H 4.457295 1.149998 -2.235317
  H 5.904151 0.942281 -1.275867
  H 4.526889 -2.791522 -2.101434
  H 3.679988 -1.913082 -3.336997
  H 6.862930 -0.288755 -3.005757
