 19
 0.000000
  C 0.964140 0.053643 0.185045
  C 2.464296 0.060068 0.071131
  C 3.225660 -0.013075 1.367427
  H 2.561303 -0.061466 2.224939
  C 3.077719 0.127450 -1.122974
  C 2.325033 0.200663 -2.420459
  H 1.247396 0.194297 -2.307709
  C 4.528907 0.133808 -1.235600
  C 5.230944 0.197493 -2.364321
  H 6.308432 0.197374 -2.362172
  H 0.648918 -0.004987 1.224049
  H 0.537441 -0.803982 -0.334380
  H 0.537444 0.964261 -0.234601
  H 3.865751 0.861286 1.486645
  H 3.865748 -0.895289 1.387526
  H 2.607044 -0.643688 -3.050277
  H 2.607047 1.110504 -2.951296
  H 5.080868 0.081462 -0.307906
  H 4.792608 0.252907 -3.346370
 19
 10.583873
  C 0.850511 0.054624 0.167664
  C 2.479954 0.061968 0.037469
  C 3.301918 -0.017674 1.448948
  H 2.629601 -0.065604 2.298296
  C 3.088551 0.128785 -1.146627
  C 2.333838 0.201929 -2.442897
  H 1.257079 0.195179 -2.323332
  C 4.539990 0.135022 -1.257120
  C 5.241716 0.198565 -2.383329
  H 6.319246 0.198312 -2.378801
  H 0.545088 -0.004073 1.207863
  H 0.427112 -0.802025 -0.350421
  H 0.427115 0.964121 -0.250760
  H 3.938008 0.856415 1.567754
  H 3.938011 -0.899577 1.468669
  H 2.612982 -0.642710 -3.073323
  H 2.612983 1.112121 -2.974303
  H 5.089835 0.082616 -0.328356
  H 4.803017 0.253967 -3.365162
 19
 31.939524
  C 0.754120 0.053120 0.194331
  C 2.504828 0.065287 -0.021364
  C 3.336378 -0.022505 1.534521
  H 2.573834 -0.065160 2.290480
  C 3.109096 0.131333 -1.191782
  C 2.336866 0.204104 -2.481458
  H 1.268100 0.193946 -2.301534
  C 4.567942 0.136403 -1.281574
  C 5.272750 0.199660 -2.402721
  H 6.349594 0.198549 -2.382992
  H 0.573587 -0.006632 1.253216
  H 0.381804 -0.814909 -0.324281
  H 0.381810 0.973983 -0.223335
  H 3.937516 0.868716 1.617221
  H 3.937525 -0.917372 1.516445
  H 2.595636 -0.643010 -3.116570
  H 2.595636 1.117290 -3.017246
  H 5.092731 0.083174 -0.338197
  H 4.824156 0.254738 -3.378864
 19
 59.815904
  C 0.638411 0.053311 0.190937
  C 2.516774 0.066930 -0.050476
  C 3.402564 -0.027562 1.624146
  H 2.624763 -0.069494 2.367268
  C 3.121173 0.132889 -1.219371
  C 2.348236 0.205599 -2.507930
  H 1.280047 0.195132 -2.322516
  C 4.579947 0.137728 -1.305062
  C 5.289116 0.201170 -2.429486
  H 6.366179 0.199939 -2.407624
  H 0.477336 -0.006638 1.253312
  H 0.276471 -0.816786 -0.328983
  H 0.276476 0.976378 -0.227797
  H 3.997334 0.866111 1.698004
  H 3.997340 -0.923868 1.597008
  H 2.604849 -0.641539 -3.142323
  H 2.604848 1.118720 -3.042993
  H 5.099484 0.084366 -0.359339
  H 4.839682 0.256308 -3.406659
 19
 89.434933
  C 0.526476 0.053420 0.189015
  C 2.531502 0.068813 -0.083872
  C 3.468557 -0.032474 1.711191
  H 2.673082 -0.073047 2.430252
  C 3.133655 0.134510 -1.248106
  C 2.355967 0.207150 -2.535438
  H 1.288707 0.196113 -2.339910
  C 4.592794 0.139032 -1.328183
  C 5.297259 0.201835 -2.441256
  H 6.373366 0.200432 -2.416358
  H 0.396033 -0.006621 1.253032
  H 0.180944 -0.820240 -0.333423
  H 0.180950 0.980309 -0.231820
  H 4.055207 0.866751 1.770196
  H 4.055215 -0.932627 1.668670
  H 2.609186 -0.641224 -3.170469
  H 2.609188 1.121573 -3.070995
  H 5.106363 0.085466 -0.378845
  H 4.847589 0.256882 -3.416803
 19
 117.858964
  C 0.408043 0.053274 0.191598
  C 2.539950 0.070267 -0.109649
  C 3.527797 -0.037833 1.806177
  H 2.712611 -0.077109 2.502258
  C 3.142144 0.135821 -1.271355
  C 2.360243 0.208361 -2.556910
  H 1.294523 0.196807 -2.352236
  C 4.606195 0.140049 -1.346210
  C 5.327943 0.204015 -2.479899
  H 6.405448 0.202433 -2.451830
  H 0.306902 -0.006874 1.257510
  H 0.081493 -0.822782 -0.334004
  H 0.081499 0.982900 -0.232112
  H 4.105107 0.864920 1.848515
  H 4.105116 -0.939617 1.746699
  H 2.610166 -0.640494 -3.191821
  H 2.610170 1.123254 -3.092298
  H 5.112596 0.086192 -0.391724
  H 4.878835 0.259200 -3.457877
 19
 142.721455
  C 0.295452 0.052896 0.198248
  C 2.550083 0.071794 -0.136699
  C 3.589972 -0.043289 1.902876
  H 2.727743 -0.079247 2.540087
  C 3.152739 0.137287 -1.297318
  C 2.365828 0.209570 -2.578297
  H 1.303492 0.197449 -2.363461
  C 4.613805 0.141045 -1.363896
  C 5.324949 0.203994 -2.479512
  H 6.402870 0.202361 -2.450564
  H 0.271628 -0.007484 1.268276
  H 0.024923 -0.833422 -0.340606
  H 0.024925 0.994215 -0.237477
  H 4.143918 0.873769 1.890553
  H 4.143925 -0.953132 1.787473
  H 2.612226 -0.640829 -3.211567
  H 2.612229 1.125805 -3.111875
  H 5.109809 0.086946 -0.405125
  H 4.874453 0.259162 -3.457259
 19
 164.850010
  C 0.178610 0.053079 0.195015
  C 2.560231 0.073127 -0.160322
  C 3.658901 -0.048595 1.996962
  H 2.789619 -0.083585 2.617034
  C 3.162765 0.138556 -1.319821
  C 2.373432 0.210959 -2.602948
  H 1.307828 0.198676 -2.385253
  C 4.622217 0.142159 -1.383643
  C 5.335161 0.205134 -2.499750
  H 6.410602 0.203444 -2.469769
  H 0.172615 -0.007139 1.262199
  H -0.077508 -0.834405 -0.346776
  H -0.077503 0.995879 -0.243496
  H 4.206867 0.871330 1.971013
  H 4.206881 -0.959765 1.867698
  H 2.619295 -0.640689 -3.236660
  H 2.619302 1.128502 -3.136841
  H 5.115618 0.087945 -0.422829
  H 4.886539 0.260195 -3.475597
 19
 183.250375
  C 0.059797 0.053279 0.191488
  C 2.568381 0.074404 -0.182963
  C 3.727866 -0.053918 2.091237
  H 2.845202 -0.087986 2.694969
  C 3.170976 0.139805 -1.341973
  C 2.379665 0.212079 -2.622789
  H 1.316682 0.199582 -2.401294
  C 4.632087 0.143305 -1.403987
  C 5.345851 0.206277 -2.519999
  H 6.423012 0.204530 -2.488958
  H 0.074924 -0.006973 1.259242
  H -0.178374 -0.835544 -0.354281
  H -0.178369 0.997860 -0.250825
  H 4.268085 0.868206 2.048015
  H 4.268088 -0.965315 1.944563
  H 2.623681 -0.639380 -3.255831
  H 2.623686 1.129346 -3.156026
  H 5.123107 0.089012 -0.441756
  H 4.896684 0.261441 -3.497606
 19
 197.681921
  C -0.059630 0.053449 0.188474
  C 2.576244 0.075526 -0.202832
  C 3.798008 -0.059349 2.187550
  H 2.905344 -0.092327 2.771972
  C 3.179365 0.140946 -1.362183
  C 2.385702 0.213213 -2.642901
  H 1.321639 0.200508 -2.417727
  C 4.639862 0.144341 -1.422333
  C 5.354273 0.207329 -2.538629
  H 6.430176 0.205543 -2.506941
  H -0.023134 -0.006673 1.253933
  H -0.278614 -0.836866 -0.361698
  H -0.278610 1.000005 -0.258048
  H 4.330534 0.865905 2.125945
  H 4.330549 -0.971805 2.022257
  H 2.628690 -0.639316 -3.276149
  H 2.628698 1.131576 -3.176230
  H 5.128671 0.089973 -0.458775
  H 4.905699 0.262434 -3.515228
 19
 208.432979
  C -0.180474 0.053619 0.185463
  C 2.583039 0.076560 -0.221142
  C 3.868736 -0.064818 2.284440
  H 2.964222 -0.096845 2.851986
  C 3.186776 0.142024 -1.381273
  C 2.391651 0.214224 -2.660782
  H 1.328919 0.201375 -2.433033
  C 4.647690 0.145389 -1.440898
  C 5.361822 0.208400 -2.557599
  H 6.438598 0.206613 -2.525909
  H -0.123392 -0.006470 1.250319
  H -0.380358 -0.837774 -0.368973
  H -0.380354 1.001727 -0.265173
  H 4.393292 0.862575 2.204566
  H 4.393301 -0.977334 2.100754
  H 2.633410 -0.638312 -3.293459
  H 2.633414 1.132515 -3.193532
  H 5.135431 0.090984 -0.476705
  H 4.912399 0.263535 -3.534711
 19
 216.016373
  C -0.302065 0.053740 0.183324
  C 2.589476 0.077489 -0.237597
  C 3.939756 -0.070354 2.382567
  H 3.026373 -0.101429 2.933239
  C 3.193859 0.143001 -1.398579
  C 2.397482 0.215197 -2.678017
  H 1.334305 0.202244 -2.448436
  C 4.654730 0.146385 -1.458565
  C 5.368038 0.209440 -2.576041
  H 6.444199 0.207690 -2.545033
  H -0.226051 -0.006230 1.246075
  H -0.483951 -0.838676 -0.375133
  H -0.483947 1.003311 -0.271189
  H 4.457038 0.859408 2.285559
  H 4.457049 -0.983298 2.181589
  H 2.638646 -0.638016 -3.310607
  H 2.638651 1.134157 -3.210612
  H 5.142249 0.091976 -0.494294
  H 4.918013 0.264523 -3.552255
 19
 221.046526
  C -0.424405 0.053801 0.182202
  C 2.595465 0.078354 -0.252932
  C 4.010705 -0.075924 2.481286
  H 3.088281 -0.106200 3.017775
  C 3.200272 0.143903 -1.414562
  C 2.403173 0.216078 -2.693627
  H 1.340603 0.203078 -2.463205
  C 4.661534 0.147375 -1.476107
  C 5.373160 0.210489 -2.594641
  H 6.449759 0.208817 -2.565015
  H -0.331387 -0.006104 1.243807
  H -0.590079 -0.839187 -0.379683
  H -0.590076 1.004333 -0.275657
  H 4.521169 0.855307 2.368940
  H 4.521179 -0.988601 2.264903
  H 2.643801 -0.637195 -3.325688
  H 2.643804 1.135038 -3.225690
  H 5.149919 0.092994 -0.512349
  H 4.921586 0.265556 -3.570568
 19
 224.125286
  C -0.547230 0.053753 0.183023
  C 2.601171 0.079142 -0.266878
  C 4.081076 -0.081562 2.581216
  H 3.152071 -0.111111 3.104826
  C 3.206098 0.144704 -1.428734
  C 2.408139 0.216876 -2.707744
  H 1.345360 0.203849 -2.476817
  C 4.667785 0.148309 -1.492667
  C 5.377051 0.211502 -2.612602
  H 6.453350 0.209942 -2.584984
  H -0.439478 -0.006047 1.242749
  H -0.698951 -0.839720 -0.381787
  H -0.698951 1.005101 -0.277689
  H 4.585764 0.851129 2.455679
  H 4.585778 -0.994209 2.351560
  H 2.648541 -0.636809 -3.339533
  H 2.648543 1.136209 -3.239487
  H 5.157816 0.093985 -0.529917
  H 4.923824 0.266509 -3.587469
