 15
 0.000000
  C 0.934555 0.052109 0.216887
  C 2.431373 0.061598 0.065325
  C 3.254034 -0.010211 1.325919
  H 2.630415 -0.063015 2.212822
  C 3.028202 0.127610 -1.118220
  C 2.359177 0.203560 -2.452693
  H 1.277385 0.200517 -2.380089
  H 4.109608 0.129190 -1.163711
  H 0.648351 0.002519 1.264784
  H 0.497630 -0.809272 -0.287477
  H 0.495117 0.955457 -0.204283
  H 3.897933 0.864873 1.410548
  H 3.901456 -0.886617 1.308729
  H 2.670201 -0.640018 -3.069888
  H 2.672134 1.110494 -2.971226
 15
 4.010114
  C 0.936206 0.087833 0.231999
  C 2.406906 0.060555 0.069001
  C 3.244220 -0.014920 1.326562
  H 2.621239 -0.081805 2.212617
  C 3.008186 0.117014 -1.115157
  C 2.344746 0.202901 -2.451684
  H 1.262120 0.221561 -2.372592
  H 4.090260 0.093594 -1.151977
  H 0.619625 0.009058 1.262911
  H 0.706993 -0.792529 -0.310964
  H 0.468535 0.957968 -0.217866
  H 3.876801 0.866498 1.419786
  H 3.899271 -0.884251 1.302050
  H 2.635493 -0.649362 -3.067102
  H 2.670470 1.104310 -2.971703
 15
 11.746988
  C 0.916647 0.116876 0.244705
  C 2.394685 0.065410 0.075650
  C 3.243248 -0.015960 1.324626
  H 2.626209 -0.106105 2.212659
  C 2.995205 0.104700 -1.108625
  C 2.334608 0.207522 -2.448051
  H 1.253333 0.263843 -2.371618
  H 4.074136 0.038170 -1.144266
  H 0.576165 0.011268 1.267704
  H 0.889041 -0.785012 -0.314078
  H 0.425963 0.950974 -0.249392
  H 3.857889 0.876565 1.427225
  H 3.913813 -0.872962 1.284260
  H 2.595920 -0.655608 -3.059972
  H 2.689237 1.095231 -2.970573
 15
 21.881647
  C 0.900361 0.140601 0.253353
  C 2.384431 0.064934 0.071810
  C 3.238647 -0.023937 1.327087
  H 2.620327 -0.130989 2.216386
  C 2.987727 0.096469 -1.112409
  C 2.327884 0.209498 -2.449893
  H 1.244560 0.282380 -2.370901
  H 4.066608 0.010742 -1.147112
  H 0.557739 0.031565 1.266954
  H 1.032046 -0.770204 -0.290293
  H 0.396150 0.936293 -0.274897
  H 3.841955 0.879376 1.439559
  H 3.922796 -0.874126 1.278706
  H 2.574901 -0.659544 -3.064402
  H 2.694814 1.093575 -2.974049
 15
 32.664726
  C 0.893606 0.161614 0.272002
  C 2.384654 0.060857 0.067086
  C 3.227675 -0.031471 1.322090
  H 2.606128 -0.147214 2.203191
  C 2.989004 0.090441 -1.119029
  C 2.327119 0.206356 -2.454449
  H 1.245678 0.282979 -2.372271
  H 4.067496 -0.000184 -1.154448
  H 0.539891 0.048652 1.281052
  H 1.154295 -0.756027 -0.279510
  H 0.367965 0.936206 -0.264306
  H 3.821887 0.871732 1.443061
  H 3.915371 -0.873960 1.273262
  H 2.569034 -0.662742 -3.069603
  H 2.695195 1.088805 -2.978933
 15
 41.853020
  C 0.880260 0.179909 0.277171
  C 2.366859 0.054124 0.069154
  C 3.221914 -0.043047 1.314557
  H 2.605175 -0.169920 2.207609
  C 2.986833 0.084712 -1.115283
  C 2.327695 0.210341 -2.456567
  H 1.243291 0.289124 -2.372436
  H 4.062904 -0.011471 -1.139373
  H 0.537033 0.082254 1.287701
  H 1.238422 -0.746033 -0.223031
  H 0.356408 0.907582 -0.308632
  H 3.807370 0.875560 1.431892
  H 3.927102 -0.887191 1.253837
  H 2.566337 -0.656949 -3.078015
  H 2.696085 1.095658 -2.979657
 15
 47.685538
  C 0.877044 0.193002 0.288729
  C 2.368381 0.048474 0.061683
  C 3.213487 -0.057448 1.308851
  H 2.597475 -0.215163 2.192353
  C 2.988139 0.077047 -1.127492
  C 2.331685 0.228208 -2.462440
  H 1.253387 0.320051 -2.376282
  H 4.059552 -0.046487 -1.154745
  H 0.558004 0.200539 1.310077
  H 1.321858 -0.772150 -0.096839
  H 0.316467 0.803744 -0.391714
  H 3.772637 0.867998 1.447576
  H 3.931223 -0.875850 1.236224
  H 2.553510 -0.630786 -3.093487
  H 2.710053 1.111600 -2.974175
 15
 52.997163
  C 0.879296 0.207352 0.297393
  C 2.356356 0.045947 0.054261
  C 3.202692 -0.063968 1.307321
  H 2.596392 -0.236970 2.179055
  C 2.985883 0.074046 -1.134096
  C 2.337754 0.234232 -2.470010
  H 1.261536 0.331119 -2.386711
  H 4.050864 -0.059862 -1.154226
  H 0.571055 0.254931 1.332525
  H 1.380446 -0.772248 -0.039416
  H 0.306733 0.750816 -0.405292
  H 3.743265 0.856567 1.456324
  H 3.933349 -0.873174 1.228175
  H 2.557671 -0.631780 -3.114135
  H 2.722634 1.122015 -2.978354
 15
 57.000167
  C 0.876698 0.217494 0.306068
  C 2.358051 0.036063 0.053773
  C 3.200265 -0.073735 1.301593
  H 2.588994 -0.260604 2.180257
  C 2.993332 0.065514 -1.135733
  C 2.342266 0.237280 -2.471169
  H 1.258027 0.340536 -2.383779
  H 4.069818 -0.079472 -1.154511
  H 0.577317 0.298606 1.323285
  H 1.431326 -0.779363 0.009060
  H 0.276642 0.716266 -0.435483
  H 3.739336 0.863759 1.460519
  H 3.934114 -0.870788 1.215644
  H 2.551752 -0.613714 -3.113366
  H 2.729174 1.123625 -2.974158
 15
 60.449780
  C 0.877680 0.234001 0.304836
  C 2.355335 0.033295 0.051252
  C 3.198719 -0.081656 1.305527
  H 2.589484 -0.279884 2.174854
  C 2.993877 0.066888 -1.141763
  C 2.346879 0.237388 -2.473605
  H 1.264190 0.338354 -2.387969
  H 4.056688 -0.077798 -1.158438
  H 0.573616 0.339084 1.330834
  H 1.472314 -0.773192 0.035380
  H 0.276657 0.681374 -0.445873
  H 3.729394 0.856854 1.474908
  H 3.944161 -0.879235 1.212099
  H 2.558812 -0.611360 -3.115830
  H 2.732211 1.122876 -2.973883
 15
 63.448376
  C 0.879505 0.242916 0.313547
  C 2.358611 0.022601 0.059366
  C 3.204248 -0.086690 1.314923
  H 2.598295 -0.293717 2.179973
  C 2.995922 0.058580 -1.136864
  C 2.344626 0.242877 -2.482906
  H 1.269922 0.350060 -2.397754
  H 4.061018 -0.095357 -1.153680
  H 0.574824 0.365657 1.324930
  H 1.508387 -0.773681 0.065806
  H 0.262275 0.653646 -0.463356
  H 3.720488 0.845677 1.485143
  H 3.947717 -0.865958 1.221388
  H 2.553568 -0.616317 -3.140859
  H 2.738387 1.137458 -2.982396
 15
 66.367989
  C 0.887585 0.256001 0.316893
  C 2.353175 0.017750 0.066003
  C 3.201942 -0.096130 1.315483
  H 2.605963 -0.311959 2.168978
  C 2.998005 0.059062 -1.131635
  C 2.351845 0.237374 -2.486108
  H 1.255283 0.340988 -2.407676
  H 4.052416 -0.090988 -1.140707
  H 0.578797 0.383678 1.320682
  H 1.535297 -0.763328 0.081368
  H 0.265884 0.638690 -0.477239
  H 3.719230 0.849344 1.494497
  H 3.952986 -0.874817 1.213796
  H 2.565555 -0.609074 -3.135251
  H 2.744195 1.133439 -2.984821
 15
 68.536755
  C 0.875952 0.271755 0.311716
  C 2.358138 0.011735 0.056321
  C 3.208617 -0.096304 1.308075
  H 2.597116 -0.323288 2.185460
  C 3.000732 0.055866 -1.144782
  C 2.355897 0.238930 -2.475103
  H 1.283788 0.344112 -2.391354
  H 4.085363 -0.103788 -1.160467
  H 0.555393 0.400302 1.330988
  H 1.555008 -0.766577 0.080146
  H 0.258057 0.619046 -0.477996
  H 3.718728 0.847995 1.487178
  H 3.960311 -0.866827 1.203757
  H 2.563899 -0.609009 -3.129717
  H 2.745729 1.128547 -2.968976
 15
 70.700500
  C 0.879829 0.298942 0.315739
  C 2.365263 0.002711 0.061563
  C 3.214453 -0.101332 1.314833
  H 2.604565 -0.337086 2.187595
  C 3.010548 0.054059 -1.142720
  C 2.362450 0.236653 -2.477230
  H 1.282688 0.340868 -2.391073
  H 4.075192 -0.104378 -1.158317
  H 0.551589 0.407436 1.324611
  H 1.577449 -0.770163 0.088679
  H 0.245319 0.609291 -0.488110
  H 3.712226 0.842890 1.497933
  H 3.981471 -0.870135 1.205509
  H 2.572627 -0.612142 -3.131696
  H 2.750580 1.126543 -2.971682
