8

H 0.5002758246755331 -0.33417422386969975 0.3129652465233042
C 0.813054 -0.0768 0.107014
C 2.223647 -0.614208 0.341484
H 2.5451897467691835 -0.36441729679680523 0.11979435414047684
H 0.61 -0.055088 -0.966369
H 0.752921 0.944151 0.489733
H 2.424161 -0.596072 1.415896
H 2.267211 -1.657784 0.021514
