 24
 0.000000
  H 1.521249 0.060519 0.063254
  C 2.596392 0.065812 -0.030595
  C 3.365220 -0.007008 1.259958
  C 2.464559 -0.076561 2.492483
  C 3.279134 -0.149271 3.781120
  C 3.174137 0.132742 -1.216709
  C 2.491297 0.207947 -2.549491
  C 0.964193 0.206436 -2.522641
  C 0.387729 0.286135 -3.935103
  H 4.256013 0.136413 -1.281750
  H 4.016649 0.869176 1.345226
  H 4.016654 -0.887226 1.246117
  H 1.821286 -0.958113 2.426140
  H 1.821299 0.806837 2.525729
  H 3.913815 -1.033599 3.784902
  H 2.620421 -0.198132 4.646989
  H 3.913827 0.729033 3.884357
  H 2.834152 -0.636298 -3.160125
  H 2.834146 1.115510 -3.061262
  H 0.604200 1.061150 -1.945014
  H 0.604187 -0.707857 -2.044824
  H 0.712361 1.198390 -4.432736
  H -0.701119 0.284311 -3.902723
  H 0.712369 -0.564371 -4.532217
 24
 7.153249
  H 1.553848 0.061922 0.038352
  C 2.628279 0.067986 -0.069145
  C 3.411498 -0.004022 1.207017
  C 2.426717 -0.081225 2.575146
  C 3.252433 -0.153159 3.850028
  C 3.191181 0.135390 -1.263674
  C 2.491446 0.210031 -2.586450
  C 0.966596 0.207212 -2.536430
  C 0.369238 0.286312 -3.938307
  H 4.272586 0.139830 -1.342343
  H 4.059720 0.870832 1.290484
  H 4.059725 -0.882713 1.191537
  H 1.786494 -0.961104 2.509157
  H 1.786497 0.800480 2.608556
  H 3.887424 -1.036831 3.847174
  H 2.602536 -0.202334 4.721460
  H 3.887427 0.725230 3.946596
  H 2.826369 -0.633648 -3.201138
  H 2.826366 1.117493 -3.102319
  H 0.615582 1.060945 -1.953086
  H 0.615577 -0.706736 -2.052827
  H 0.685622 1.198453 -4.440463
  H -0.717964 0.283560 -3.889529
  H 0.685627 -0.563559 -4.539890
 24
 22.166958
  H 1.594116 0.062943 0.020235
  C 2.667767 0.069850 -0.102188
  C 3.465616 -0.000791 1.149771
  C 2.383007 -0.085089 2.643612
  C 3.216535 -0.155793 3.896642
  C 3.213400 0.137685 -1.304370
  C 2.494560 0.211699 -2.616068
  C 0.972203 0.207256 -2.537279
  C 0.348329 0.285612 -3.925994
  H 4.294375 0.142952 -1.397695
  H 4.102727 0.872071 1.249789
  H 4.102726 -0.879357 1.150961
  H 1.752528 -0.962130 2.558368
  H 1.752516 0.795980 2.657571
  H 3.851912 -1.039130 3.888517
  H 2.572137 -0.205209 4.772369
  H 3.851906 0.722847 3.987937
  H 2.820450 -0.631696 -3.235124
  H 2.820450 1.119379 -3.136318
  H 0.633160 1.059857 -1.946064
  H 0.633163 -0.706432 -2.045736
  H 0.654566 1.197800 -4.433773
  H -0.736888 0.281710 -3.856862
  H 0.654566 -0.563660 -4.533155
 24
 38.706139
  H 1.630280 0.064162 -0.001331
  C 2.702160 0.071845 -0.137515
  C 3.520795 0.001906 1.101992
  C 2.341430 -0.089529 2.722303
  C 3.190912 -0.159614 3.964357
  C 3.231750 0.140300 -1.350698
  C 2.493822 0.213808 -2.653409
  C 0.971781 0.207983 -2.550137
  C 0.324461 0.285786 -3.929024
  H 4.311146 0.146383 -1.458501
  H 4.150454 0.879929 1.221924
  H 4.150457 -0.884037 1.122389
  H 1.717103 -0.971102 2.615417
  H 1.717102 0.798466 2.715267
  H 3.827019 -1.042888 3.951385
  H 2.552900 -0.209453 4.847579
  H 3.827023 0.719519 4.050831
  H 2.811728 -0.629815 -3.276785
  H 2.811732 1.122206 -3.177931
  H 0.642639 1.060281 -1.952142
  H 0.642635 -0.706178 -2.051814
  H 0.621962 1.198396 -4.441815
  H -0.760091 0.280901 -3.842442
  H 0.621965 -0.563355 -4.541224
 24
 55.186341
  H 1.669666 0.065436 -0.023924
  C 2.739385 0.073899 -0.173911
  C 3.572584 0.005158 1.044358
  C 2.298215 -0.093485 2.792403
  C 3.158936 -0.162482 4.015195
  C 3.249355 0.142397 -1.387854
  C 2.493491 0.215241 -2.678824
  C 0.973997 0.208082 -2.551897
  C 0.305246 0.285248 -3.919514
  H 4.327053 0.149291 -1.510020
  H 4.190863 0.883760 1.182708
  H 4.190868 -0.883429 1.082992
  H 1.684218 -0.974915 2.665938
  H 1.684210 0.796576 2.765896
  H 3.794660 -1.045096 3.996124
  H 2.529771 -0.212701 4.905150
  H 3.794653 0.716673 4.095533
  H 2.803155 -0.628110 -3.306022
  H 2.803152 1.123789 -3.207169
  H 0.654475 1.059631 -1.948224
  H 0.654476 -0.705964 -2.047852
  H 0.594100 1.197867 -4.436700
  H -0.777310 0.279415 -3.816145
  H 0.594101 -0.563401 -4.536076
 24
 70.136315
  H 1.701295 0.066130 -0.036188
  C 2.770040 0.075479 -0.201897
  C 3.623756 0.007467 1.003402
  C 2.258153 -0.098537 2.881918
  C 3.136072 -0.166754 4.090925
  C 3.267390 0.145421 -1.441431
  C 2.490307 0.217715 -2.722663
  C 0.972291 0.209187 -2.571501
  C 0.281170 0.285759 -3.928570
  H 4.343741 0.153279 -1.580687
  H 4.233223 0.890352 1.159870
  H 4.233229 -0.887416 1.059558
  H 1.651922 -0.983851 2.736841
  H 1.651921 0.797470 2.837357
  H 3.772218 -1.049805 4.064979
  H 2.517409 -0.217543 4.990982
  H 3.772218 0.713618 4.164480
  H 2.791217 -0.625763 -3.354418
  H 2.791220 1.126910 -3.255526
  H 0.662197 1.060549 -1.962088
  H 0.662193 -0.705333 -2.061722
  H 0.561132 1.198777 -4.450410
  H -0.799957 0.278954 -3.807974
  H 0.561130 -0.562755 -4.549798
 24
 83.028899
  H 1.747141 0.068583 -0.079672
  C 2.812332 0.078451 -0.254573
  C 3.674670 0.011506 0.931851
  C 2.212208 -0.101632 2.936756
  C 3.099252 -0.169007 4.130841
  C 3.281250 0.146618 -1.462648
  C 2.489744 0.218144 -2.730248
  C 0.974605 0.208450 -2.558403
  C 0.264927 0.284447 -3.905300
  H 4.353825 0.155096 -1.612892
  H 4.273281 0.895511 1.106011
  H 4.273281 -0.886473 1.005458
  H 1.615961 -0.987552 2.773737
  H 1.615954 0.797003 2.874434
  H 3.734632 -1.051655 4.099718
  H 2.489716 -0.220168 5.037501
  H 3.734624 0.711537 4.199208
  H 2.783274 -0.625119 -3.365203
  H 2.783272 1.127471 -3.266307
  H 0.672842 1.059257 -1.944503
  H 0.672842 -0.706012 -2.044112
  H 0.537079 1.197506 -4.430826
  H -0.814125 0.276810 -3.769940
  H 0.537081 -0.563707 -4.530208
