 22
 0.000000
  H 1.556226 0.156136 0.442812
  C 2.638616 0.136637 0.393634
  C 3.355324 0.612837 1.576376
  C 2.453322 1.071451 2.716919
  C 3.265231 1.553860 3.915166
  C 3.211557 -0.331848 -0.771890
  C 4.592104 -0.422368 -0.997299
  C 5.166994 -0.887524 -2.158673
  C 4.489271 -1.364299 -3.352167
  H 3.406208 -1.339323 -3.292945
  H 6.250848 -0.904844 -2.199868
  H 4.030081 1.432659 1.289848
  H 4.030751 -0.176443 1.937328
  H 1.808140 0.248389 3.030656
  H 1.807595 1.882137 2.373318
  H 3.897995 0.759344 4.303459
  H 2.604327 1.875822 4.715861
  H 3.897399 2.396303 3.644775
  H 2.544980 -0.648597 -1.560328
  H 5.255870 -0.105808 -0.206362
  H 4.828174 -2.380660 -3.576161
  H 4.829977 -0.783566 -4.215051
 22
 8.220055
  H 1.499488 0.166928 0.470193
  C 2.579980 0.141247 0.405576
  C 3.319015 0.613471 1.578164
  C 2.441857 1.077762 2.732598
  C 3.276239 1.554467 3.916216
  C 3.124848 -0.324813 -0.753861
  C 4.660227 -0.429957 -1.015760
  C 5.211427 -0.893054 -2.172278
  C 4.515261 -1.368129 -3.362329
  H 3.434817 -1.337790 -3.290188
  H 6.293131 -0.915219 -2.225239
  H 3.994304 1.427038 1.280755
  H 3.995077 -0.178769 1.926977
  H 1.795999 0.259163 3.057284
  H 1.795421 1.892691 2.399867
  H 3.910147 0.755739 4.294041
  H 2.630887 1.880839 4.727670
  H 3.909470 2.392685 3.635163
  H 2.458007 -0.639752 -1.537627
  H 5.322395 -0.114642 -0.227586
  H 4.845703 -2.385507 -3.590072
  H 4.847803 -0.789093 -4.228467
 22
 26.560663
  H 1.438139 0.179434 0.501789
  C 2.519547 0.147156 0.420734
  C 3.282195 0.616397 1.585577
  C 2.430270 1.086634 2.754672
  C 3.285339 1.558389 3.925459
  C 3.040875 -0.321842 -0.745896
  C 4.732131 -0.439495 -1.038725
  C 5.259221 -0.902797 -2.196246
  C 4.542954 -1.374540 -3.378988
  H 3.463734 -1.336688 -3.288459
  H 6.342021 -0.930967 -2.263912
  H 3.959396 1.424769 1.276024
  H 3.960251 -0.180355 1.922072
  H 1.783153 0.272402 3.090009
  H 1.782412 1.905653 2.432560
  H 3.920256 0.756166 4.293832
  H 2.654392 1.888718 4.746718
  H 3.919386 2.392653 3.634972
  H 2.382656 -0.638543 -1.534024
  H 5.383872 -0.122412 -0.245620
  H 4.862578 -2.394538 -3.611079
  H 4.864930 -0.796307 -4.249834
 22
 46.549952
  H 1.381460 0.186332 0.519189
  C 2.461010 0.145748 0.417393
  C 3.251100 0.610260 1.570294
  C 2.433475 1.087496 2.756766
  C 3.308213 1.553449 3.912684
  C 2.946521 -0.323848 -0.750538
  C 4.800319 -0.440071 -1.039659
  C 5.291374 -0.897419 -2.182634
  C 4.558140 -1.365941 -3.358077
  H 3.483185 -1.318736 -3.244697
  H 6.371123 -0.931616 -2.265024
  H 3.931125 1.409026 1.245034
  H 3.932154 -0.190365 1.888835
  H 1.782279 0.280278 3.103890
  H 1.781386 1.909415 2.448037
  H 3.945080 0.748019 4.271599
  H 2.692201 1.887593 4.743507
  H 3.943949 2.383569 3.613000
  H 2.342139 -0.652066 -1.566951
  H 5.391965 -0.110850 -0.215737
  H 4.865030 -2.387445 -3.592414
  H 4.867636 -0.787892 -4.231385
 22
 66.356035
  H 1.323625 0.202419 0.559253
  C 2.403054 0.154047 0.438265
  C 3.214290 0.611739 1.574156
  C 2.422158 1.094300 2.773598
  C 3.318333 1.554200 3.914394
  C 2.856904 -0.311687 -0.719813
  C 4.866001 -0.441599 -1.043530
  C 5.341465 -0.907490 -2.207837
  C 4.589136 -1.376174 -3.383965
  H 3.515365 -1.322701 -3.255221
  H 6.425747 -0.947858 -2.305309
  H 3.894913 1.404946 1.235007
  H 3.895849 -0.194473 1.878879
  H 1.770241 0.292026 3.131857
  H 1.769340 1.920431 2.476229
  H 3.955968 0.745045 4.263069
  H 2.718112 1.892319 4.754967
  H 3.954909 2.379885 3.604692
  H 2.259339 -0.642816 -1.543096
  H 5.446694 -0.107813 -0.208220
  H 4.886148 -2.400988 -3.620674
  H 4.888938 -0.797396 -4.261278
 22
 74.048307
  H 1.339293 0.208116 0.588261
  C 2.427407 0.138044 0.431063
  C 3.235035 0.595425 1.606715
  C 2.415504 1.096109 2.787724
  C 3.311996 1.570678 3.924760
  C 2.768740 -0.317444 -0.720599
  C 4.935656 -0.456632 -1.064842
  C 5.306839 -0.906951 -2.208698
  C 4.597030 -1.380993 -3.425286
  H 3.513171 -1.327754 -3.303288
  H 6.412898 -0.955178 -2.318331
  H 3.898903 1.403760 1.275169
  H 3.913492 -0.199085 1.929084
  H 1.760526 0.308933 3.150603
  H 1.771448 1.913103 2.474772
  H 3.941151 0.763021 4.285279
  H 2.709459 1.926224 4.760049
  H 3.949981 2.386512 3.600374
  H 2.297863 -0.665751 -1.607264
  H 5.384865 -0.107075 -0.170854
  H 4.888782 -2.407994 -3.645528
  H 4.896687 -0.780414 -4.284343
 22
 82.437819
  H 1.300600 0.227377 0.630189
  C 2.380750 0.146951 0.451619
  C 3.209492 0.598377 1.612434
  C 2.401399 1.104003 2.805590
  C 3.315837 1.573301 3.931969
  C 2.686577 -0.310463 -0.702315
  C 5.006589 -0.465938 -1.093218
  C 5.346575 -0.917317 -2.237442
  C 4.624211 -1.386948 -3.439894
  H 3.552489 -1.328793 -3.305818
  H 6.439461 -0.971812 -2.362643
  H 3.868292 1.405431 1.270061
  H 3.881855 -0.204604 1.927578
  H 1.743133 0.312471 3.180599
  H 1.754725 1.932535 2.497365
  H 3.947077 0.759216 4.284453
  H 2.728335 1.931229 4.773115
  H 3.956628 2.387687 3.597814
  H 2.230412 -0.663172 -1.596963
  H 5.440711 -0.110290 -0.187400
  H 4.906778 -2.413436 -3.659652
  H 4.914701 -0.787928 -4.299299
 22
 88.784580
  H 1.248980 0.245313 0.671565
  C 2.327486 0.155949 0.472170
  C 3.180641 0.603452 1.622224
  C 2.389813 1.111764 2.824457
  C 3.321370 1.575216 3.937100
  C 2.603157 -0.304351 -0.687796
  C 5.078754 -0.472353 -1.111424
  C 5.393865 -0.926544 -2.261357
  C 4.650650 -1.394797 -3.459513
  H 3.575485 -1.330077 -3.310102
  H 6.487414 -0.987514 -2.401796
  H 3.835379 1.408863 1.269648
  H 3.848488 -0.205299 1.928546
  H 1.737176 0.325949 3.206734
  H 1.747707 1.940851 2.525838
  H 3.952021 0.758734 4.279407
  H 2.747249 1.936329 4.787639
  H 3.960648 2.384817 3.594485
  H 2.168007 -0.660130 -1.588291
  H 5.487939 -0.114481 -0.201643
  H 4.924350 -2.425479 -3.681084
  H 4.932923 -0.794846 -4.323650
 22
 93.689641
  H 1.199314 0.264012 0.712334
  C 2.273169 0.165331 0.490239
  C 3.150221 0.607835 1.622582
  C 2.378605 1.117848 2.837898
  C 3.331595 1.574087 3.937988
  C 2.517812 -0.297424 -0.672004
  C 5.148542 -0.478098 -1.130802
  C 5.438149 -0.934548 -2.282730
  C 4.676769 -1.398705 -3.465892
  H 3.608088 -1.327362 -3.299788
  H 6.530391 -1.002502 -2.440919
  H 3.801448 1.410044 1.258599
  H 3.812582 -0.209133 1.918386
  H 1.727917 0.331959 3.229871
  H 1.736618 1.953797 2.549573
  H 3.963621 0.752432 4.268502
  H 2.773749 1.936497 4.798234
  H 3.970691 2.381426 3.586440
  H 2.101593 -0.657809 -1.579504
  H 5.536277 -0.114696 -0.211275
  H 4.940147 -2.429720 -3.687887
  H 4.948431 -0.800821 -4.332131
 22
 97.300853
  H 1.147631 0.282419 0.752478
  C 2.216684 0.174934 0.508212
  C 3.119127 0.613703 1.625268
  C 2.368795 1.124776 2.853292
  C 3.341712 1.572056 3.937783
  C 2.432878 -0.290961 -0.657549
  C 5.219886 -0.481792 -1.145877
  C 5.486381 -0.941305 -2.301014
  C 4.703073 -1.404384 -3.475536
  H 3.635124 -1.326136 -3.291747
  H 6.576023 -1.015778 -2.476097
  H 3.767409 1.412460 1.250145
  H 3.775758 -0.211254 1.910323
  H 1.722600 0.341691 3.253578
  H 1.729541 1.964792 2.577291
  H 3.973668 0.746167 4.255238
  H 2.800469 1.935540 4.808198
  H 3.979255 2.375899 3.577781
  H 2.038012 -0.655598 -1.570831
  H 5.582173 -0.114578 -0.221552
  H 4.956963 -2.439082 -3.698740
  H 4.964631 -0.807050 -4.347154
 22
 99.926532
  H 1.095287 0.301187 0.792567
  C 2.158297 0.184357 0.525267
  C 3.085682 0.617993 1.623645
  C 2.359308 1.130623 2.865516
  C 3.355513 1.568265 3.934477
  C 2.346632 -0.284154 -0.642025
  C 5.289616 -0.485034 -1.161630
  C 5.533603 -0.947340 -2.318456
  C 4.730392 -1.407775 -3.477894
  H 3.667987 -1.322986 -3.275576
  H 6.620672 -1.028543 -2.512305
  H 3.731205 1.412126 1.236524
  H 3.735784 -0.215746 1.896968
  H 1.716135 0.349260 3.275417
  H 1.722004 1.977080 2.602369
  H 3.987551 0.736668 4.238158
  H 2.832760 1.933046 4.815751
  H 3.992431 2.368963 3.565084
  H 1.970909 -0.653163 -1.561178
  H 5.629669 -0.112445 -0.229759
  H 4.974260 -2.443213 -3.701460
  H 4.980074 -0.812889 -4.352767
 22
 101.787484
  H 1.041812 0.319049 0.833206
  C 2.097923 0.193382 0.543704
  C 3.050952 0.621675 1.623941
  C 2.350586 1.136835 2.879606
  C 3.369137 1.564875 3.930186
  C 2.261526 -0.277548 -0.625872
  C 5.360695 -0.488756 -1.175444
  C 5.584847 -0.953535 -2.334801
  C 4.758699 -1.411277 -3.482755
  H 3.699349 -1.319071 -3.261590
  H 6.667700 -1.041778 -2.546652
  H 3.693695 1.411095 1.224131
  H 3.696020 -0.219994 1.884876
  H 1.711086 0.358571 3.299758
  H 1.715832 1.988652 2.629725
  H 4.000556 0.728355 4.220160
  H 2.865681 1.931350 4.821580
  H 4.004556 2.361590 3.550674
  H 1.902348 -0.649708 -1.549050
  H 5.680517 -0.113316 -0.240059
  H 4.992239 -2.449699 -3.708250
  H 4.997433 -0.817503 -4.362648
 22
 103.108767
  H 0.988355 0.336599 0.874298
  C 2.036794 0.201998 0.562707
  C 3.014760 0.623862 1.623164
  C 2.342149 1.142322 2.892215
  C 3.384279 1.561117 3.924118
  C 2.177026 -0.270709 -0.608048
  C 5.431685 -0.493651 -1.190929
  C 5.636714 -0.960322 -2.352173
  C 4.788273 -1.413183 -3.484674
  H 3.734830 -1.313144 -3.244173
  H 6.714931 -1.056258 -2.583198
  H 3.654600 1.408010 1.210152
  H 3.654964 -0.225147 1.871167
  H 1.705738 0.367385 3.323409
  H 1.709852 1.999911 2.655360
  H 4.014976 0.719219 4.200736
  H 2.900727 1.930004 4.825728
  H 4.018531 2.353788 3.533634
  H 1.830508 -0.645537 -1.534720
  H 5.736181 -0.115212 -0.250707
  H 5.010417 -2.452663 -3.712176
  H 5.015357 -0.821574 -4.367897
 22
 103.997414
  H 0.935739 0.353886 0.915803
  C 1.976064 0.210547 0.582797
  C 2.978848 0.625818 1.624191
  C 2.334302 1.148165 2.906083
  C 3.398955 1.557606 3.918019
  C 2.094183 -0.263830 -0.589459
  C 5.504123 -0.499015 -1.206559
  C 5.690993 -0.967436 -2.369934
  C 4.818943 -1.415736 -3.488950
  H 3.770241 -1.307664 -3.229121
  H 6.763807 -1.071058 -2.619708
  H 3.615941 1.404795 1.197969
  H 3.614641 -0.230124 1.859439
  H 1.701031 0.377192 3.348538
  H 1.704963 2.011186 2.681985
  H 4.028183 0.710670 4.181653
  H 2.935644 1.929092 4.828818
  H 4.031674 2.345684 3.516361
  H 1.758558 -0.640634 -1.518615
  H 5.794818 -0.118982 -0.264246
  H 5.029808 -2.457644 -3.719023
  H 5.034849 -0.825418 -4.376593
