 19
 0.000000
  H 1.435005 0.203209 0.558941
  C 2.498443 0.141745 0.405041
  H 3.149679 0.462123 1.201727
  C 2.996893 -0.329914 -0.769775
  C 4.389755 -0.416109 -0.985373
  C 5.061837 -0.863672 -2.101178
  C 4.601404 -1.377954 -3.383599
  C 3.131133 -1.513695 -3.723579
  C 2.938409 -2.077118 -5.128350
  H 6.143822 -0.836179 -2.032303
  H 2.310520 -0.639099 -1.539310
  H 5.005776 -0.084302 -0.158641
  H 5.094613 -2.355268 -3.515236
  H 5.095558 -0.763152 -4.154083
  H 2.641839 -0.537996 -3.674677
  H 2.641149 -2.184760 -3.014134
  H 3.384950 -1.429056 -5.878656
  H 1.879436 -2.167564 -5.354971
  H 3.384393 -3.064336 -5.222704
 19
 9.601447
  H 1.402141 0.221065 0.603754
  C 2.466289 0.161629 0.454807
  H 3.110047 0.484123 1.256908
  C 2.975776 -0.309217 -0.718242
  C 4.360006 -0.389068 -0.918158
  C 5.108249 -0.888761 -2.163866
  C 4.632033 -1.395573 -3.427565
  C 3.152680 -1.521068 -3.742143
  C 2.933537 -2.083426 -5.144013
  H 6.186446 -0.858854 -2.088867
  H 2.296864 -0.621497 -1.495573
  H 4.980821 -0.059893 -0.097903
  H 5.119830 -2.375132 -3.567994
  H 5.120896 -0.785411 -4.206001
  H 2.671723 -0.542584 -3.683914
  H 2.670941 -2.187594 -3.023949
  H 3.371987 -1.438028 -5.901481
  H 1.870509 -2.166997 -5.353502
  H 3.371423 -3.073684 -5.245242
 19
 29.347027
  H 1.357895 0.208704 0.573416
  C 2.425206 0.157441 0.444297
  H 3.043571 0.486824 1.263244
  C 2.966684 -0.305730 -0.709642
  C 4.344861 -0.364440 -0.857265
  C 5.173332 -0.915566 -2.230710
  C 4.657780 -1.407861 -3.457639
  C 3.169302 -1.515564 -3.727936
  C 2.914284 -2.075512 -5.124617
  H 6.237526 -0.865618 -2.106148
  H 2.312666 -0.626227 -1.506840
  H 4.999692 -0.046330 -0.065010
  H 5.135996 -2.388638 -3.619183
  H 5.136715 -0.811529 -4.252229
  H 2.707523 -0.529972 -3.653710
  H 2.706448 -2.176305 -2.993285
  H 3.341667 -1.432765 -5.890833
  H 1.846046 -2.149604 -5.311051
  H 3.340681 -3.069940 -5.234289
 19
 51.936769
  H 1.320614 0.235747 0.640971
  C 2.388446 0.186725 0.517293
  H 2.999146 0.518359 1.341476
  C 2.948028 -0.282044 -0.650364
  C 4.316004 -0.334962 -0.783877
  C 5.218780 -0.938658 -2.288166
  C 4.683563 -1.428195 -3.508004
  C 3.186548 -1.528350 -3.759594
  C 2.911524 -2.086977 -5.153343
  H 6.284880 -0.880747 -2.144017
  H 2.302598 -0.604421 -1.451899
  H 4.987396 -0.023183 -0.007713
  H 5.158087 -2.413654 -3.677561
  H 5.158724 -0.833945 -4.311787
  H 2.731127 -0.540577 -3.679600
  H 2.730057 -2.186603 -3.019500
  H 3.332645 -1.446051 -5.924390
  H 1.841056 -2.155807 -5.326994
  H 3.331463 -3.083573 -5.267907
 19
 74.227916
  H 1.289338 0.240774 0.653582
  C 2.357725 0.196614 0.541834
  H 2.956058 0.530642 1.371709
  C 2.924500 -0.262452 -0.601492
  C 4.289976 -0.306791 -0.713904
  C 5.266503 -0.963233 -2.349287
  C 4.709374 -1.445377 -3.550468
  C 3.209565 -1.533375 -3.771727
  C 2.904249 -2.089401 -5.159645
  H 6.325288 -0.896782 -2.184161
  H 2.289349 -0.587529 -1.409346
  H 4.984135 -0.001370 0.046060
  H 5.174644 -2.433135 -3.729716
  H 5.175011 -0.856093 -4.362819
  H 2.764807 -0.541866 -3.682169
  H 2.763662 -2.187928 -3.022189
  H 3.315642 -1.451191 -5.938270
  H 1.830078 -2.150034 -5.313202
  H 3.314191 -3.089238 -5.281800
 19
 93.065504
  H 1.231847 0.235338 0.640804
  C 2.302265 0.207411 0.569028
  H 2.867212 0.548598 1.416000
  C 2.921223 -0.250953 -0.572239
  C 4.273528 -0.278901 -0.645871
  C 5.322138 -0.989073 -2.412937
  C 4.742787 -1.462905 -3.593215
  C 3.231898 -1.535633 -3.777237
  C 2.883306 -2.087567 -5.155651
  H 6.373240 -0.897723 -2.185946
  H 2.312829 -0.582314 -1.394810
  H 5.032516 0.003496 0.055254
  H 5.196626 -2.458646 -3.785005
  H 5.197609 -0.876496 -4.420275
  H 2.803369 -0.538272 -3.673462
  H 2.802328 -2.184858 -3.014153
  H 3.279259 -1.453860 -5.945266
  H 1.804939 -2.136134 -5.279346
  H 3.277781 -3.091848 -5.289087
 19
 110.412848
  H 1.193050 0.256606 0.693825
  C 2.267863 0.232293 0.630991
  H 2.827747 0.576859 1.485944
  C 2.896979 -0.224401 -0.505843
  C 4.247281 -0.248585 -0.570406
  C 5.365826 -1.012166 -2.470531
  C 4.770337 -1.484452 -3.646972
  C 3.257694 -1.547579 -3.807068
  C 2.882624 -2.097424 -5.180479
  H 6.405900 -0.920256 -2.242205
  H 2.291519 -0.559324 -1.336902
  H 5.014004 0.028053 0.116069
  H 5.214885 -2.480168 -3.845588
  H 5.215752 -0.902967 -4.478698
  H 2.838531 -0.547963 -3.695593
  H 2.837175 -2.193452 -3.036409
  H 3.269862 -1.465812 -5.977169
  H 1.801677 -2.138834 -5.286390
  H 3.268292 -3.104946 -5.320511
 19
 124.666875
  H 1.158859 0.278968 0.749129
  C 2.231445 0.258376 0.695940
  H 2.781619 0.603290 1.552231
  C 2.872312 -0.197659 -0.439433
  C 4.217692 -0.219096 -0.496905
  C 5.402248 -1.036892 -2.532024
  C 4.796287 -1.505529 -3.699521
  C 3.280021 -1.560674 -3.839412
  C 2.882803 -2.107982 -5.206745
  H 6.449470 -0.943644 -2.300354
  H 2.273969 -0.532692 -1.271250
  H 5.001226 0.052493 0.177273
  H 5.233946 -2.504036 -3.904342
  H 5.234777 -0.926172 -4.537659
  H 2.868353 -0.558098 -3.721406
  H 2.867236 -2.204163 -3.062160
  H 3.261968 -1.478734 -6.008343
  H 1.800613 -2.143341 -5.297330
  H 3.260602 -3.117172 -5.352211
 19
 135.869149
  H 1.121277 0.298862 0.798037
  C 2.196131 0.283457 0.758281
  H 2.736637 0.631123 1.621922
  C 2.851607 -0.170517 -0.372176
  C 4.191632 -0.188121 -0.419892
  C 5.439451 -1.060772 -2.591271
  C 4.822507 -1.526833 -3.752566
  C 3.303229 -1.573757 -3.871449
  C 2.882788 -2.118451 -5.232917
  H 6.482543 -0.967738 -2.360242
  H 2.258712 -0.508053 -1.210740
  H 4.989519 0.075315 0.234375
  H 5.252814 -2.527248 -3.964182
  H 5.253457 -0.950504 -4.596754
  H 2.899844 -0.569134 -3.746544
  H 2.898933 -2.214381 -3.087834
  H 3.253733 -1.490858 -6.040305
  H 1.798890 -2.147540 -5.307459
  H 3.252612 -3.130167 -5.384208
 19
 144.192673
  H 1.085747 0.321633 0.853454
  C 2.159661 0.310989 0.826707
  H 2.689199 0.660050 1.693875
  C 2.829546 -0.141500 -0.299787
  C 4.164528 -0.156801 -0.341741
  C 5.469797 -1.085327 -2.652180
  C 4.847130 -1.548874 -3.807489
  C 3.325372 -1.588829 -3.908384
  C 2.885042 -2.130956 -5.264184
  H 6.519906 -0.994748 -2.427457
  H 2.243160 -0.480006 -1.141240
  H 4.979983 0.099798 0.295940
  H 5.271984 -2.550314 -4.025292
  H 5.272399 -0.975655 -4.656688
  H 2.928768 -0.582121 -3.777329
  H 2.928201 -2.227110 -3.119171
  H 3.248495 -1.505154 -6.075936
  H 1.800389 -2.154642 -5.324761
  H 3.247712 -3.144242 -5.420465
 19
 149.773645
  H 1.047527 0.345268 0.911105
  C 2.123248 0.339142 0.896737
  H 2.644104 0.690898 1.769682
  C 2.806585 -0.111240 -0.223654
  C 4.140202 -0.124927 -0.262155
  C 5.501184 -1.109564 -2.712375
  C 4.873670 -1.572429 -3.866160
  C 3.349016 -1.605023 -3.948382
  C 2.887459 -2.144455 -5.298021
  H 6.553241 -1.024418 -2.501357
  H 2.225335 -0.452036 -1.070614
  H 4.966594 0.125737 0.360836
  H 5.293202 -2.575133 -4.089885
  H 5.293493 -1.002055 -4.720407
  H 2.959663 -0.596658 -3.810858
  H 2.959252 -2.240350 -3.153562
  H 3.243290 -1.520254 -6.114811
  H 1.801708 -2.162345 -5.343844
  H 3.242650 -3.159888 -5.459432
 19
 153.619373
  H 1.012039 0.370812 0.972984
  C 2.087416 0.368196 0.968965
  H 2.600182 0.721680 1.845174
  C 2.782429 -0.080468 -0.146020
  C 4.115479 -0.093471 -0.183344
  C 5.530144 -1.134374 -2.774236
  C 4.898734 -1.596908 -3.927371
  C 3.372637 -1.622763 -3.992362
  C 2.891570 -2.159538 -5.335792
  H 6.587903 -1.055374 -2.578660
  H 2.206705 -0.422745 -0.996706
  H 4.952650 0.152756 0.429024
  H 5.312431 -2.600328 -4.155753
  H 5.312570 -1.028932 -4.785372
  H 2.989985 -0.612600 -3.848878
  H 2.989737 -2.255617 -3.192120
  H 3.240244 -1.537061 -6.156765
  H 1.805350 -2.172104 -5.367994
  H 3.239801 -3.176525 -5.501747
 19
 156.291707
  H 0.978553 0.398385 1.039480
  C 2.054734 0.398210 1.043481
  H 2.562105 0.753686 1.923002
  C 2.758504 -0.049151 -0.066509
  C 4.091351 -0.061988 -0.104323
  C 5.557436 -1.159449 -2.836823
  C 4.922488 -1.621979 -3.990099
  C 3.394954 -1.642306 -4.040880
  C 2.897768 -2.176852 -5.379192
  H 6.618495 -1.086894 -2.657524
  H 2.186664 -0.393019 -0.920756
  H 4.936618 0.179804 0.497364
  H 5.330929 -2.626419 -4.222041
  H 5.330926 -1.055409 -4.851283
  H 3.017886 -0.630779 -3.892440
  H 3.017874 -2.273038 -3.236373
  H 3.240711 -1.555551 -6.203718
  H 1.811085 -2.185092 -5.400247
  H 3.240437 -3.195277 -5.548847
 19
 158.107717
  H 0.948562 0.427104 1.108408
  C 2.024457 0.428490 1.118915
  H 2.527176 0.785301 2.000248
  C 2.735470 -0.017928 0.012877
  C 4.067659 -0.030854 -0.026496
  C 5.582316 -1.185348 -2.901740
  C 4.944266 -1.647821 -4.054916
  C 3.415953 -1.663589 -4.093961
  C 2.905736 -2.196242 -5.427829
  H 6.647785 -1.119206 -2.738623
  H 2.167059 -0.362907 -0.844079
  H 4.921636 0.206716 0.565503
  H 5.347799 -2.653056 -4.289452
  H 5.347682 -1.082271 -4.918475
  H 3.043536 -0.650924 -3.941522
  H 3.043633 -2.292666 -3.285784
  H 3.244030 -1.576030 -6.255004
  H 1.818992 -2.200962 -5.439875
  H 3.243877 -3.215641 -5.600374
