 22
 0.000000
  H 1.451362 0.169023 0.473166
  C 2.531075 0.148794 0.421713
  C 3.278697 0.619007 1.590493
  C 2.407310 1.083743 2.748156
  H 3.023180 1.416973 3.576594
  C 3.084057 -0.321807 -0.749777
  C 4.465594 -0.418450 -0.990725
  C 5.102220 -0.872327 -2.122347
  C 4.601374 -1.385238 -3.401634
  C 3.115062 -1.500774 -3.691156
  H 2.974566 -1.901374 -4.690256
  H 6.184894 -0.864894 -2.103392
  H 3.944640 1.436316 1.285857
  H 3.945557 -0.181061 1.935955
  H 1.767600 0.277015 3.099599
  H 1.766709 1.908732 2.443934
  H 2.398275 -0.631193 -1.519867
  H 5.106812 -0.094065 -0.181968
  H 5.068307 -2.371410 -3.536455
  H 5.069025 -0.765948 -4.180487
  H 2.629712 -0.528219 -3.650942
  H 2.629018 -2.175756 -2.990253
 22
 -0.082146
  H 1.463616 0.299170 0.449758
  C 2.542541 0.232985 0.390795
  C 3.282365 0.600070 1.598714
  C 2.397901 1.012882 2.763746
  H 3.002559 1.268250 3.628309
  C 3.083033 -0.191568 -0.801739
  C 4.465188 -0.339679 -1.027991
  C 5.095535 -0.799567 -2.161591
  C 4.598408 -1.407908 -3.391752
  C 3.110920 -1.566588 -3.654150
  H 2.968535 -2.079715 -4.606802
  H 6.179731 -0.752693 -2.134183
  H 3.986709 1.408714 1.364637
  H 3.922959 -0.236451 1.900891
  H 1.725788 0.206735 3.046404
  H 1.794600 1.879013 2.505338
  H 2.396131 -0.404966 -1.604920
  H 5.119488 -0.062241 -0.211489
  H 5.085920 -2.393907 -3.456238
  H 5.064835 -0.861821 -4.225689
  H 2.615069 -0.598372 -3.724274
  H 2.632287 -2.164966 -2.880945
 22
 0.206309
  H 1.473401 0.422606 0.399637
  C 2.548785 0.315716 0.353177
  C 3.282388 0.574240 1.595121
  C 2.392839 0.935834 2.773594
  H 2.991462 1.105272 3.663918
  C 3.093273 -0.058688 -0.854325
  C 4.469466 -0.257640 -1.067576
  C 5.094762 -0.718449 -2.202205
  C 4.597323 -1.427365 -3.379817
  C 3.109571 -1.630341 -3.598490
  H 2.959033 -2.261259 -4.471340
  H 6.175610 -0.635141 -2.196707
  H 4.014617 1.373184 1.426707
  H 3.890998 -0.304338 1.848542
  H 1.687546 0.138513 2.986789
  H 1.826670 1.841264 2.569775
  H 2.419036 -0.169953 -1.686502
  H 5.129199 -0.031674 -0.238568
  H 5.096979 -2.408425 -3.362883
  H 5.043877 -0.948577 -4.262176
  H 2.606155 -0.684633 -3.785643
  H 2.645774 -2.123798 -2.746879
 22
 1.233583
  H 1.490641 0.559910 0.338607
  C 2.561790 0.409763 0.299973
  C 3.279614 0.513615 1.573714
  C 2.384161 0.843795 2.758226
  H 2.968581 0.898921 3.672773
  C 3.113654 0.115545 -0.925097
  C 4.483419 -0.120897 -1.136196
  C 5.099858 -0.614862 -2.260367
  C 4.599789 -1.447080 -3.353247
  C 3.109554 -1.711870 -3.480849
  H 2.938832 -2.435899 -4.273813
  H 6.172197 -0.459064 -2.306516
  H 4.073450 1.265759 1.488221
  H 3.807633 -0.428869 1.767942
  H 1.617098 0.083469 2.891328
  H 1.889886 1.801768 2.615199
  H 2.458358 0.122966 -1.780360
  H 5.142497 0.017682 -0.284991
  H 5.133520 -2.405360 -3.250927
  H 4.995636 -1.043755 -4.295752
  H 2.570747 -0.805193 -3.741953
  H 2.697608 -2.117672 -2.560751
 22
 4.178861
  H 1.518575 0.729553 0.268387
  C 2.578231 0.516282 0.237216
  C 3.269867 0.443306 1.530805
  C 2.371099 0.749358 2.721614
  H 2.930356 0.670482 3.649250
  C 3.143240 0.308799 -0.997476
  C 4.499123 0.017181 -1.208245
  C 5.107207 -0.528454 -2.315610
  C 4.600478 -1.456211 -3.325260
  C 3.122674 -1.808491 -3.312565
  H 2.926294 -2.572290 -4.059052
  H 6.163992 -0.301255 -2.430931
  H 4.126929 1.125903 1.529069
  H 3.697209 -0.559089 1.651839
  H 1.537134 0.053466 2.769534
  H 1.969661 1.757224 2.654665
  H 2.519437 0.454829 -1.864667
  H 5.146634 0.021793 -0.334877
  H 5.203451 -2.369411 -3.210841
  H 4.889242 -1.074885 -4.313827
  H 2.510695 -0.945751 -3.554174
  H 2.815903 -2.195796 -2.344569
 22
 8.391758
  H 1.536879 0.928214 0.270241
  C 2.567817 0.602784 0.225643
  C 3.228067 0.346015 1.513816
  C 2.383587 0.753879 2.715345
  H 2.915777 0.548899 3.640028
  C 3.125679 0.428646 -1.015899
  C 4.457161 0.066278 -1.244689
  C 5.079565 -0.451482 -2.360819
  C 4.624176 -1.431889 -3.345348
  C 3.191341 -1.927882 -3.223858
  H 3.008678 -2.701372 -3.963375
  H 6.101828 -0.120876 -2.517671
  H 4.193096 0.864159 1.545400
  H 3.460717 -0.722637 1.589552
  H 1.445078 0.204488 2.737101
  H 2.156561 1.816431 2.684939
  H 2.528072 0.678193 -1.880836
  H 5.102566 -0.097095 -0.382530
  H 5.326251 -2.274703 -3.284235
  H 4.797511 -1.009145 -4.345662
  H 2.480796 -1.126693 -3.396579
  H 3.002802 -2.348966 -2.240449
 22
 16.270912
  H 1.552823 1.138482 0.293705
  C 2.544428 0.723542 0.208524
  C 3.188485 0.281009 1.458480
  C 2.405173 0.668184 2.710588
  H 2.927554 0.335380 3.601587
  C 3.097397 0.640787 -1.044802
  C 4.382218 0.189242 -1.317972
  C 5.025022 -0.367061 -2.408473
  C 4.651878 -1.452227 -3.315142
  C 3.259500 -2.036104 -3.126568
  H 3.126081 -2.900039 -3.769276
  H 6.015410 0.037294 -2.600591
  H 4.202173 0.698146 1.513171
  H 3.311370 -0.804362 1.436337
  H 1.419530 0.211888 2.707080
  H 2.282037 1.748153 2.770471
  H 2.526205 1.023708 -1.877235
  H 5.061804 -0.162997 -0.521789
  H 5.418825 -2.230208 -3.197977
  H 4.791464 -1.101120 -4.346757
  H 2.495229 -1.309064 -3.374056
  H 3.104289 -2.345126 -2.098704
 22
 27.522777
  H 1.556969 1.293310 0.325813
  C 2.518690 0.830331 0.184714
  C 3.173345 0.254440 1.376190
  C 2.428400 0.559405 2.670582
  H 2.937503 0.111827 3.515025
  C 3.031769 0.776444 -1.092221
  C 4.261957 0.297930 -1.449368
  C 5.039337 -0.315663 -2.405274
  C 4.700319 -1.484656 -3.233688
  C 3.327795 -2.085845 -2.969030
  H 3.157401 -2.931500 -3.631174
  H 5.999930 0.136920 -2.642566
  H 4.200845 0.630366 1.447903
  H 3.249845 -0.834731 1.260196
  H 1.414997 0.163851 2.638871
  H 2.372504 1.632199 2.840799
  H 2.456756 1.216341 -1.896497
  H 4.999391 -0.188857 -0.740163
  H 5.486513 -2.238722 -3.123439
  H 4.763404 -1.137312 -4.272975
  H 2.541127 -1.356499 -3.141979
  H 3.247845 -2.440114 -1.946527
 22
 33.107220
  H 1.596236 1.417339 0.368453
  C 2.521912 0.900746 0.179195
  C 3.168562 0.221680 1.324334
  C 2.441173 0.458255 2.641062
  H 2.954944 -0.046466 3.457728
  C 3.005476 0.876578 -1.109458
  C 4.195135 0.366263 -1.524426
  C 5.018867 -0.267139 -2.421542
  C 4.710011 -1.485462 -3.196963
  C 3.367968 -2.129453 -2.870452
  H 3.220656 -3.009277 -3.482733
  H 5.972961 0.194381 -2.659949
  H 4.205070 0.569507 1.416530
  H 3.216866 -0.854413 1.137075
  H 1.422335 0.076667 2.595083
  H 2.398102 1.521454 2.874673
  H 2.435178 1.375951 -1.883888
  H 4.962312 -0.199486 -0.865287
  H 5.526042 -2.203691 -3.074234
  H 4.734580 -1.174594 -4.248907
  H 2.549587 -1.444998 -3.062093
  H 3.325183 -2.435482 -1.826656
 22
 35.509064
  H 1.611251 1.497621 0.419675
  C 2.520845 0.968025 0.186319
  C 3.181067 0.217372 1.278243
  C 2.457797 0.361243 2.612594
  H 2.971980 -0.201691 3.387645
  C 2.976486 0.990246 -1.120275
  C 4.077737 0.418343 -1.624371
  C 4.994303 -0.232243 -2.394115
  C 4.730669 -1.510717 -3.131385
  C 3.399182 -2.160951 -2.780784
  H 3.261928 -3.064180 -3.368539
  H 5.941159 0.248447 -2.637447
  H 4.215091 0.562141 1.391355
  H 3.233009 -0.845781 1.014504
  H 1.437981 -0.012626 2.542627
  H 2.418908 1.402287 2.920778
  H 2.405354 1.548820 -1.855283
  H 4.952376 -0.331757 -1.091804
  H 5.556827 -2.203049 -2.963589
  H 4.751395 -1.250007 -4.193477
  H 2.573099 -1.489830 -2.992560
  H 3.360139 -2.438163 -1.730337
 22
 34.237856
  H 1.598197 1.497429 0.449197
  C 2.491940 0.942684 0.217765
  C 3.156640 0.204070 1.314784
  C 2.459965 0.395101 2.656773
  H 2.976708 -0.159153 3.436013
  C 2.947934 0.947027 -1.090676
  C 4.018091 0.378040 -1.627321
  C 4.999081 -0.264245 -2.325106
  C 4.748371 -1.513422 -3.151266
  C 3.426335 -2.196185 -2.831314
  H 3.308449 -3.078408 -3.453490
  H 5.910814 0.271844 -2.593202
  H 4.201030 0.529061 1.400415
  H 3.184197 -0.866661 1.073545
  H 1.435037 0.041268 2.613688
  H 2.448160 1.445953 2.939694
  H 2.395541 1.532805 -1.821329
  H 5.099407 -0.513408 -1.172496
  H 5.578835 -2.206667 -3.009949
  H 4.764577 -1.207237 -4.197814
  H 2.587316 -1.530974 -3.025252
  H 3.385337 -2.513680 -1.792322
 22
 31.647686
  H 1.606008 1.495446 0.436737
  C 2.497020 0.936145 0.212511
  C 3.138549 0.172182 1.302678
  C 2.423932 0.343460 2.635553
  H 2.924354 -0.230452 3.410236
  C 2.981913 0.952745 -1.086352
  C 4.035102 0.403966 -1.648003
  C 5.038477 -0.278565 -2.289320
  C 4.727937 -1.517700 -3.141881
  C 3.449990 -2.228345 -2.724845
  H 3.292724 -3.100279 -3.354144
  H 5.896331 0.293921 -2.649591
  H 4.182836 0.484667 1.407388
  H 3.162432 -0.890786 1.039899
  H 1.394166 -0.001412 2.570583
  H 2.417154 1.386300 2.938856
  H 2.442243 1.558310 -1.818835
  H 5.317963 -0.616265 -1.241331
  H 5.572948 -2.200013 -3.083020
  H 4.646292 -1.191671 -4.178972
  H 2.585872 -1.576499 -2.831053
  H 3.505631 -2.567865 -1.692972
 22
 29.984096
  H 1.657277 1.579542 0.420497
  C 2.525441 0.973882 0.223101
  C 3.091304 0.167930 1.323172
  C 2.334080 0.353268 2.631005
  H 2.779789 -0.253248 3.414602
  C 3.061101 0.967801 -1.055252
  C 4.085327 0.384204 -1.618831
  C 5.080833 -0.305614 -2.282568
  C 4.671046 -1.479868 -3.196148
  C 3.502350 -2.284016 -2.641541
  H 3.276774 -3.115702 -3.309683
  H 5.824558 0.341057 -2.765314
  H 4.144767 0.432246 1.467867
  H 3.082817 -0.892180 1.041962
  H 1.294189 0.054967 2.522689
  H 2.361754 1.392251 2.950629
  H 2.571517 1.606569 -1.801171
  H 5.599729 -0.719267 -1.392562
  H 5.537570 -2.129162 -3.325643
  H 4.409597 -1.077169 -4.175554
  H 2.608217 -1.672658 -2.553453
  H 3.739839 -2.697545 -1.663678
 22
 29.529121
  H 1.734264 1.677364 0.410851
  C 2.569463 1.027950 0.208972
  C 3.054017 0.139610 1.285914
  C 2.266081 0.306185 2.578280
  H 2.651332 -0.362195 3.344377
  C 3.140901 1.039132 -1.053203
  C 4.147999 0.425335 -1.614284
  C 5.094444 -0.295007 -2.316412
  C 4.593629 -1.455723 -3.204055
  C 3.564621 -2.327668 -2.496314
  H 3.269290 -3.149120 -3.143090
  H 5.789914 0.356881 -2.865441
  H 4.115867 0.335623 1.473431
  H 2.997203 -0.904462 0.952008
  H 1.214435 0.073619 2.424195
  H 2.341667 1.325356 2.949561
  H 2.712789 1.734597 -1.787126
  H 5.721105 -0.707384 -1.501042
  H 5.453197 -2.059802 -3.489299
  H 4.160825 -1.039597 -4.113460
  H 2.671615 -1.759501 -2.246131
  H 3.975217 -2.753904 -1.583607
