17

C 0.957716 -0.016055 -0.004385
C 2.454071 4e-06 0.009553
C 3.169732 0.812431 0.7948
C 4.607725 0.8291 0.811449
C 5.327693 1.645635 1.600663
C 6.766362 1.660591 1.615713
C 7.484225 2.471562 2.399544
H 8.553789690952362 2.493289113016131 2.4209753888482206
H 0.595784 -0.754935 -0.718569
H 0.560905 0.955856 -0.297547
H 0.562527 -0.278873 0.977455
H 2.952997 -0.690984 -0.657224
H 2.658368 1.49936 1.458261
H 5.112517 0.139901 0.145772
H 4.823393 2.334969 2.266472
H 7.273386 0.972073 0.950694
H 6.98527 3.162952 3.067342
