 22
 0.000000
  C 0.999776 0.119375 0.349515
  C 2.471333 0.131108 0.378221
  C 3.227816 0.604732 1.555731
  C 2.423651 1.087087 2.755921
  H 3.097181 1.403892 3.543927
  C 3.121648 -0.328486 -0.765175
  C 4.509283 -0.400616 -0.945881
  C 5.138190 -0.854959 -2.079114
  C 4.530174 -1.350498 -3.315298
  H 3.450474 -1.366984 -3.357072
  H 6.218180 -0.862670 -2.098607
  H 0.548963 0.486767 1.263126
  H 0.641616 -0.894324 0.162497
  H 0.641317 0.721246 -0.487179
  H 3.889693 1.416361 1.232740
  H 3.890015 -0.204299 1.884394
  H 1.790977 0.293274 3.147685
  H 1.790811 1.931095 2.489383
  H 2.481364 -0.653197 -1.572492
  H 5.144227 -0.074531 -0.134136
  H 4.916782 -2.356038 -3.500983
  H 4.917277 -0.752011 -4.144173
 22
 4.795694
  C 1.032503 0.100532 0.303116
  C 2.506305 0.127473 0.369129
  C 3.213776 0.614550 1.579383
  C 2.372458 1.086235 2.753549
  H 3.026153 1.410698 3.559962
  C 3.218718 -0.312114 -0.724303
  C 4.601192 -0.401441 -0.947091
  C 5.179871 -0.871850 -2.120287
  C 4.486801 -1.350815 -3.316917
  H 3.405144 -1.319455 -3.241161
  H 6.263742 -0.891240 -2.167353
  H 0.560614 0.464096 1.207038
  H 0.685686 -0.914830 0.106011
  H 0.685251 0.696374 -0.542121
  H 3.879316 1.428841 1.272585
  H 3.880211 -0.184767 1.921509
  H 1.742088 0.287979 3.137594
  H 1.741447 1.927746 2.478445
  H 2.439013 -0.582016 -1.395242
  H 5.261320 -0.082634 -0.152091
  H 4.815978 -2.369436 -3.539125
  H 4.817405 -0.768097 -4.180875
 22
 15.292156
  C 1.076616 0.085818 0.266080
  C 2.540045 0.123839 0.358741
  C 3.203077 0.620444 1.593312
  C 2.327721 1.085957 2.753914
  H 2.960919 1.416326 3.575474
  C 3.290143 -0.306321 -0.711991
  C 4.654241 -0.407395 -0.962954
  C 5.189690 -0.879515 -2.139103
  C 4.443435 -1.346844 -3.305964
  H 3.364655 -1.294804 -3.178599
  H 6.272225 -0.911913 -2.217786
  H 0.590920 0.446079 1.162840
  H 0.734456 -0.937711 0.067813
  H 0.733542 0.687011 -0.585360
  H 3.874799 1.440606 1.301774
  H 3.876339 -0.172549 1.949675
  H 1.697863 0.281625 3.126031
  H 1.696690 1.923673 2.466613
  H 2.411097 -0.521245 -1.246950
  H 5.330154 -0.095024 -0.183017
  H 4.744903 -2.371732 -3.540638
  H 4.746308 -0.768604 -4.183547
 22
 29.652751
  C 1.083808 0.078321 0.246723
  C 2.557547 0.121840 0.352881
  C 3.189810 0.625699 1.606300
  C 2.299337 1.085252 2.752872
  H 2.918481 1.417911 3.580833
  C 3.346653 -0.303942 -0.707115
  C 4.698869 -0.412114 -0.975254
  C 5.204784 -0.889123 -2.163257
  C 4.422360 -1.346586 -3.304157
  H 3.353515 -1.280446 -3.140198
  H 6.282082 -0.931950 -2.268688
  H 0.592864 0.437689 1.141793
  H 0.739916 -0.947355 0.050843
  H 0.738815 0.682864 -0.604272
  H 3.861563 1.447933 1.325064
  H 3.863082 -0.161899 1.971126
  H 1.670741 0.279272 3.116332
  H 1.669601 1.918334 2.458581
  H 2.389875 -0.470032 -1.121187
  H 5.391352 -0.103535 -0.205061
  H 4.703233 -2.373133 -3.546609
  H 4.703854 -0.772468 -4.188784
 22
 44.760253
  C 1.088289 0.074429 0.237281
  C 2.571005 0.119049 0.345890
  C 3.177061 0.630587 1.618120
  C 2.270212 1.085102 2.752308
  H 2.875854 1.420895 3.587924
  C 3.388851 -0.305465 -0.710536
  C 4.733722 -0.415692 -0.983433
  C 5.218197 -0.896475 -2.181123
  C 4.404683 -1.348360 -3.308873
  H 3.341966 -1.270710 -3.116344
  H 6.294259 -0.947633 -2.307083
  H 0.601084 0.435306 1.136010
  H 0.737643 -0.950565 0.045729
  H 0.736386 0.681271 -0.610179
  H 3.849209 1.456436 1.345913
  H 3.850863 -0.153174 1.992040
  H 1.641609 0.275699 3.108283
  H 1.640185 1.915372 2.450284
  H 2.388863 -0.428343 -1.017179
  H 5.436002 -0.113066 -0.227557
  H 4.669113 -2.377975 -3.557658
  H 4.669902 -0.775979 -4.199934
 22
 57.902092
  C 1.068877 0.076734 0.244803
  C 2.548177 0.116281 0.339583
  C 3.165866 0.625070 1.602842
  C 2.270168 1.082969 2.745153
  H 2.887281 1.417420 3.576117
  C 3.380853 -0.311653 -0.723331
  C 4.733744 -0.419597 -0.989196
  C 5.223773 -0.896937 -2.180579
  C 4.416535 -1.348125 -3.310862
  H 3.348725 -1.271332 -3.121049
  H 6.299016 -0.946278 -2.301015
  H 0.594814 0.439513 1.147422
  H 0.712174 -0.941997 0.060401
  H 0.710721 0.683272 -0.593550
  H 3.838731 1.445642 1.325130
  H 3.840831 -0.158009 1.969393
  H 1.640842 0.273629 3.108841
  H 1.639062 1.917788 2.448481
  H 2.336191 -0.396686 -0.936534
  H 5.445340 -0.113239 -0.221166
  H 4.683905 -2.379289 -3.559205
  H 4.685339 -0.772469 -4.201288
 22
 69.572274
  C 1.043864 0.078091 0.254686
  C 2.524529 0.112141 0.328021
  C 3.158158 0.624767 1.595533
  C 2.279892 1.083420 2.740810
  H 2.905732 1.415346 3.562870
  C 3.359428 -0.323623 -0.747994
  C 4.718978 -0.424388 -0.989606
  C 5.227939 -0.896861 -2.175890
  C 4.435528 -1.346699 -3.315022
  H 3.369031 -1.271914 -3.134315
  H 6.305471 -0.942881 -2.282962
  H 0.588851 0.444264 1.165657
  H 0.677238 -0.940648 0.078207
  H 0.673143 0.687976 -0.578199
  H 3.829336 1.443058 1.312293
  H 3.833021 -0.159429 1.955542
  H 1.653729 0.277337 3.110601
  H 1.650157 1.918987 2.450808
  H 2.292315 -0.372554 -0.876777
  H 5.413825 -0.123090 -0.220349
  H 4.706227 -2.374775 -3.562418
  H 4.711144 -0.768809 -4.199103
 22
 78.903218
  C 1.001206 0.060995 0.277050
  C 2.497814 0.107537 0.306112
  C 3.163481 0.638231 1.562093
  C 2.296031 1.102274 2.728636
  H 2.942117 1.439928 3.539105
  C 3.328043 -0.352127 -0.758374
  C 4.692684 -0.465928 -0.972101
  C 5.230156 -0.905647 -2.155075
  C 4.463753 -1.320427 -3.329127
  H 3.394323 -1.238911 -3.172975
  H 6.309840 -0.959464 -2.235295
  H 0.577001 0.436522 1.196698
  H 0.630747 -0.957739 0.126612
  H 0.604609 0.662193 -0.545342
  H 3.826443 1.463997 1.267173
  H 3.843598 -0.151134 1.909522
  H 1.677132 0.292809 3.116216
  H 1.657583 1.940799 2.449302
  H 2.239209 -0.358226 -0.834978
  H 5.377731 -0.208079 -0.162685
  H 4.727150 -2.344842 -3.597015
  H 4.767954 -0.720161 -4.188187
 22
 82.469708
  C 0.960225 0.020298 0.313667
  C 2.476110 0.089471 0.274832
  C 3.185696 0.670763 1.515681
  C 2.312825 1.130823 2.667900
  H 2.969649 1.484166 3.463703
  C 3.306866 -0.392379 -0.704171
  C 4.671336 -0.544624 -0.937919
  C 5.231084 -0.920841 -2.111488
  C 4.485704 -1.252704 -3.335976
  H 3.415311 -1.145896 -3.203079
  H 6.311549 -1.009585 -2.165403
  H 0.584797 0.427653 1.243714
  H 0.585516 -0.995044 0.222886
  H 0.531855 0.604583 -0.494705
  H 3.823657 1.507168 1.214459
  H 3.859614 -0.121926 1.852780
  H 1.708585 0.318981 3.072052
  H 1.667500 1.963625 2.389152
  H 2.186531 -0.373890 -0.795306
  H 5.328561 -0.385639 -0.085306
  H 4.714402 -2.268628 -3.657128
  H 4.832060 -0.607091 -4.143918
 22
 84.361226
  C 0.955286 -0.007302 0.314344
  C 2.488418 0.076324 0.269732
  C 3.186486 0.700220 1.528355
  C 2.291721 1.169997 2.659959
  H 2.943903 1.549678 3.454175
  C 3.352722 -0.424479 -0.650097
  C 4.697549 -0.613176 -0.921427
  C 5.237734 -0.955038 -2.115661
  C 4.475175 -1.195824 -3.347513
  H 3.401904 -1.054353 -3.196650
  H 6.310466 -1.087673 -2.184268
  H 0.586123 0.417187 1.244284
  H 0.595414 -1.042513 0.253638
  H 0.506616 0.565159 -0.507153
  H 3.802888 1.534015 1.195785
  H 3.856215 -0.077222 1.887249
  H 1.695687 0.353293 3.085803
  H 1.634633 1.996688 2.356257
  H 2.182970 -0.394813 -0.765440
  H 5.356617 -0.520016 -0.055784
  H 4.660428 -2.208067 -3.710777
  H 4.833580 -0.521815 -4.128755
 22
 86.547065
  C 0.973030 -0.035440 0.319120
  C 2.505617 0.074838 0.284877
  C 3.169945 0.732327 1.538448
  C 2.251314 1.210042 2.638057
  H 2.874757 1.611348 3.425092
  C 3.397818 -0.455845 -0.592559
  C 4.733881 -0.688725 -0.900110
  C 5.233231 -0.991646 -2.109886
  C 4.435469 -1.131248 -3.357346
  H 3.393326 -0.952331 -3.192774
  H 6.307864 -1.174751 -2.201665
  H 0.599631 0.404489 1.235461
  H 0.635295 -1.073529 0.284569
  H 0.520757 0.506449 -0.506904
  H 3.781757 1.574279 1.189866
  H 3.847158 -0.031246 1.931441
  H 1.671427 0.404507 3.066497
  H 1.597820 2.007007 2.311713
  H 2.202557 -0.407384 -0.718665
  H 5.411132 -0.669686 -0.042029
  H 4.568248 -2.127388 -3.772580
  H 4.810482 -0.438357 -4.105868
 22
 88.483944
  C 0.979444 -0.070977 0.332048
  C 2.519948 0.069295 0.294028
  C 3.167698 0.763096 1.530188
  C 2.226651 1.257273 2.612467
  H 2.838678 1.689697 3.401880
  C 3.427473 -0.496074 -0.549121
  C 4.741296 -0.769383 -0.877191
  C 5.221658 -1.031138 -2.115356
  C 4.422210 -1.055533 -3.353403
  H 3.379810 -0.832205 -3.172308
  H 6.269497 -1.263407 -2.221756
  H 0.606753 0.384258 1.234376
  H 0.661396 -1.115585 0.327183
  H 0.509598 0.445777 -0.511350
  H 3.765026 1.596867 1.169690
  H 3.845720 0.029348 1.945892
  H 1.646006 0.441849 3.060838
  H 1.554560 2.048146 2.252719
  H 2.226507 -0.424607 -0.676083
  H 5.418183 -0.831535 -0.038170
  H 4.507050 -2.031585 -3.827390
  H 4.829881 -0.338454 -4.062772
 22
 89.227601
  C 0.954775 -0.117845 0.355669
  C 2.489706 0.051641 0.290093
  C 3.157348 0.795939 1.491798
  C 2.233064 1.320771 2.571491
  H 2.854199 1.788999 3.334004
  C 3.410557 -0.566898 -0.521489
  C 4.709917 -0.881748 -0.844952
  C 5.205273 -1.068119 -2.097002
  C 4.430569 -0.949296 -3.344053
  H 3.388528 -0.691747 -3.160760
  H 6.250565 -1.336478 -2.203888
  H 0.582042 0.369304 1.253458
  H 0.657940 -1.171051 0.394364
  H 0.467891 0.355254 -0.494453
  H 3.744458 1.632610 1.092303
  H 3.858391 0.077881 1.927945
  H 1.676310 0.527284 3.053642
  H 1.554975 2.078619 2.199217
  H 2.204407 -0.459306 -0.651304
  H 5.374103 -1.046450 0.005144
  H 4.481664 -1.885070 -3.901927
  H 4.886103 -0.192098 -3.984055
 22
 90.499368
  C 0.923247 -0.125152 0.380209
  C 2.452759 0.051630 0.285223
  C 3.153878 0.813773 1.442554
  C 2.258357 1.358701 2.541013
  H 2.897491 1.845424 3.273806
  C 3.375275 -0.601499 -0.505743
  C 4.666226 -0.950166 -0.820232
  C 5.187894 -1.084341 -2.070711
  C 4.450640 -0.875198 -3.327124
  H 3.422353 -0.599571 -3.158637
  H 6.216347 -1.360836 -2.163103
  H 0.566769 0.372380 1.253823
  H 0.636775 -1.179868 0.447256
  H 0.423232 0.317815 -0.465210
  H 3.727537 1.645008 1.013432
  H 3.865965 0.111462 1.870789
  H 1.714546 0.562046 3.061099
  H 1.555389 2.114383 2.167104
  H 2.182872 -0.450902 -0.636873
  H 5.299693 -1.178564 0.023567
  H 4.491033 -1.786595 -3.936471
  H 4.945386 -0.096051 -3.919757
