 23
 0.000000
  H 1.538383 0.150184 0.425726
  C 2.618740 0.138337 0.397270
  C 3.337813 0.615618 1.584211
  C 2.436156 1.075509 2.725881
  C 3.256765 1.555095 3.919268
  C 3.209602 -0.326383 -0.758371
  C 4.587982 -0.411096 -0.969063
  C 5.197123 -0.877872 -2.135347
  C 4.494434 -1.359676 -3.338747
  H 3.415305 -1.334829 -3.276776
  O 6.499405 -0.918769 -2.239485
  H 4.001441 1.441030 1.297981
  H 4.000661 -0.178538 1.949629
  H 1.792259 0.253550 3.044191
  H 1.793356 1.889652 2.385949
  H 3.889073 0.757647 4.303036
  H 2.601160 1.879150 4.723631
  H 3.890169 2.395396 3.644098
  H 2.550884 -0.644908 -1.552287
  H 5.238168 -0.089703 -0.166345
  H 4.826277 -2.377680 -3.549220
  H 4.826326 -0.768206 -4.193622
  H 6.987220 -0.603245 -1.454365
 23
 13.717696
  H 1.494131 0.174635 0.485957
  C 2.571649 0.160940 0.453045
  C 3.302684 0.629697 1.619181
  C 2.416000 1.093711 2.771120
  C 3.252824 1.569034 3.954378
  C 3.204087 -0.347873 -0.812360
  C 4.573610 -0.429873 -1.016371
  C 5.176669 -0.893589 -2.174548
  C 4.505688 -1.376793 -3.380685
  H 3.426284 -1.355985 -3.328532
  O 6.615483 -0.931995 -2.272799
  H 3.969450 1.450581 1.324031
  H 3.968548 -0.167566 1.974938
  H 1.771798 0.274844 3.096273
  H 1.773090 1.910528 2.438323
  H 3.885658 0.768554 4.330713
  H 2.608451 1.896133 4.766253
  H 3.886941 2.406285 3.671891
  H 2.535935 -0.662144 -1.595658
  H 5.223173 -0.107656 -0.211964
  H 4.845489 -2.393520 -3.587093
  H 4.845363 -0.783626 -4.231902
  H 7.075172 -0.613202 -1.480508
 23
 42.207733
  H 1.410988 0.177215 0.500354
  C 2.487382 0.170498 0.482648
  C 3.259109 0.632259 1.627073
  C 2.417685 1.107866 2.806959
  C 3.300874 1.573263 3.959649
  C 3.149962 -0.374638 -0.872861
  C 4.514882 -0.441331 -1.040051
  C 5.111202 -0.894972 -2.177624
  C 4.548622 -1.390566 -3.422817
  H 3.465396 -1.388031 -3.419149
  O 6.712967 -0.908786 -2.210415
  H 3.935800 1.437192 1.311800
  H 3.936595 -0.165708 1.957941
  H 1.774827 0.301925 3.163049
  H 1.774371 1.935022 2.504200
  H 3.935775 0.765452 4.315761
  H 2.688893 1.909151 4.792609
  H 3.935111 2.402430 3.655235
  H 2.457493 -0.680996 -1.635585
  H 5.147224 -0.117849 -0.229480
  H 4.915077 -2.400445 -3.611012
  H 4.916514 -0.787244 -4.253622
  H 7.068438 -0.576682 -1.376762
 23
 74.678292
  H 1.350637 0.192048 0.516911
  C 2.430275 0.188255 0.513361
  C 3.226089 0.630238 1.620335
  C 2.410982 1.119196 2.833178
  C 3.330891 1.570014 3.963618
  C 3.100581 -0.380563 -0.899487
  C 4.467286 -0.443714 -1.053712
  C 5.041396 -0.901523 -2.193093
  C 4.566183 -1.402033 -3.432678
  H 3.477317 -1.418257 -3.466070
  O 6.844093 -0.893300 -2.190333
  H 3.909743 1.433645 1.281895
  H 3.905914 -0.186937 1.931759
  H 1.766635 0.317927 3.199283
  H 1.771686 1.954778 2.542619
  H 3.963421 0.753256 4.302478
  H 2.745016 1.912736 4.813086
  H 3.968369 2.391030 3.645113
  H 2.381680 -0.675632 -1.637981
  H 5.100583 -0.117566 -0.243018
  H 4.967385 -2.409304 -3.604266
  H 4.963048 -0.793276 -4.255416
  H 7.121478 -0.542562 -1.328594
 23
 99.373153
  H 1.351144 0.226334 0.494007
  C 2.428713 0.194460 0.467724
  C 3.219566 0.623408 1.593801
  C 2.416121 1.114445 2.792510
  C 3.342658 1.528661 3.934658
  C 2.991379 -0.323101 -0.797257
  C 4.376569 -0.420630 -1.018948
  C 4.878436 -0.896070 -2.165522
  C 4.518209 -1.429481 -3.400322
  H 3.433718 -1.490960 -3.497707
  O 7.126689 -0.835803 -2.164036
  H 3.920493 1.406412 1.272158
  H 3.881532 -0.195546 1.905913
  H 1.754519 0.318164 3.143651
  H 1.804862 1.972846 2.500947
  H 3.950020 0.691020 4.270913
  H 2.760838 1.878807 4.783790
  H 4.004351 2.336607 3.629705
  H 2.266088 -0.612449 -1.534522
  H 5.053048 -0.093396 -0.238852
  H 4.965448 -2.418904 -3.532401
  H 4.936508 -0.826949 -4.211654
  H 7.377813 -0.438185 -1.339024
 23
 107.612347
  H 1.320258 0.257633 0.575613
  C 2.395896 0.188145 0.472226
  C 3.230661 0.615173 1.599893
  C 2.454510 1.115985 2.798926
  C 3.378973 1.537533 3.926341
  C 2.838646 -0.304036 -0.726259
  C 4.244317 -0.457915 -1.053472
  C 4.629304 -0.922351 -2.194298
  C 4.564387 -1.447305 -3.469874
  H 3.501134 -1.580253 -3.719078
  O 7.239544 -0.767368 -2.059316
  H 3.932854 1.398290 1.257830
  H 3.878832 -0.219807 1.903277
  H 1.788270 0.324263 3.156925
  H 1.835172 1.970329 2.500898
  H 3.988176 0.703087 4.271616
  H 2.797020 1.894220 4.773089
  H 4.033481 2.349579 3.615325
  H 2.109524 -0.578279 -1.458928
  H 4.966880 -0.147324 -0.301099
  H 5.073604 -2.419007 -3.544068
  H 5.034506 -0.789760 -4.214622
  H 7.470048 -0.415510 -1.205184
 23
 107.780680
  H 1.244269 0.290990 0.670484
  C 2.305341 0.184065 0.480383
  C 3.206492 0.597943 1.571585
  C 2.485313 1.122335 2.815084
  C 3.468504 1.539001 3.906376
  C 2.664411 -0.307470 -0.711997
  C 4.051103 -0.498394 -1.112668
  C 4.441259 -0.950839 -2.247867
  C 4.646470 -1.454739 -3.510304
  H 3.651943 -1.654307 -3.936002
  O 7.318399 -0.702184 -1.897036
  H 3.894611 1.369199 1.207014
  H 3.845975 -0.244816 1.859155
  H 1.819838 0.345208 3.211676
  H 1.866684 1.986356 2.545378
  H 4.079028 0.701132 4.227318
  H 2.932118 1.908021 4.774816
  H 4.120733 2.336311 3.562544
  H 1.922377 -0.571821 -1.438464
  H 4.789407 -0.192592 -0.373681
  H 5.198070 -2.395840 -3.498137
  H 5.163735 -0.749984 -4.160330
  H 7.589271 -0.362349 -1.039966
 23
 107.436804
  H 1.181377 0.305386 0.724995
  C 2.227852 0.176493 0.497591
  C 3.181287 0.576391 1.550382
  C 2.514185 1.123720 2.807481
  C 3.540356 1.538381 3.859524
  C 2.542238 -0.328609 -0.706240
  C 3.912066 -0.538314 -1.143747
  C 4.335941 -0.984451 -2.261415
  C 4.681400 -1.430368 -3.512932
  H 3.737191 -1.651432 -4.042343
  O 7.444410 -0.659681 -1.744815
  H 3.863583 1.339455 1.160804
  H 3.811273 -0.274361 1.828901
  H 1.846028 0.371613 3.235925
  H 1.900336 1.991728 2.548368
  H 4.150009 0.692047 4.167630
  H 3.040608 1.928628 4.742767
  H 4.197685 2.317481 3.479014
  H 1.776549 -0.587946 -1.407860
  H 4.668693 -0.247271 -0.414409
  H 5.253153 -2.368758 -3.484315
  H 5.218928 -0.669891 -4.098348
  H 7.759794 -0.335020 -0.895003
 23
 106.640387
  H 1.097734 0.315393 0.806758
  C 2.131350 0.173449 0.522031
  C 3.150757 0.569891 1.514971
  C 2.568379 1.128254 2.807848
  C 3.658324 1.530904 3.792594
  C 2.378256 -0.345871 -0.700154
  C 3.705662 -0.580330 -1.210498
  C 4.146550 -1.051127 -2.319024
  C 4.747450 -1.412556 -3.499675
  H 3.952108 -1.667638 -4.211574
  O 7.464446 -0.586846 -1.533583
  H 3.822708 1.319373 1.077502
  H 3.785786 -0.292185 1.756747
  H 1.922459 0.380486 3.274526
  H 1.945542 1.998359 2.586611
  H 4.279357 0.677960 4.058927
  H 3.218792 1.923466 4.706156
  H 4.299455 2.302735 3.371303
  H 1.565318 -0.608101 -1.358902
  H 4.521622 -0.317908 -0.526042
  H 5.375421 -2.305006 -3.395648
  H 5.313165 -0.589765 -3.954373
  H 7.862586 -0.278526 -0.716261
 23
 111.111000
  H 1.086598 0.337863 0.855719
  C 2.120374 0.196014 0.571524
  C 3.139221 0.591968 1.565234
  C 2.556115 1.149760 2.858028
  C 3.645505 1.551924 3.843587
  C 2.391830 -0.372751 -0.768551
  C 3.719523 -0.607023 -1.278236
  C 4.161034 -1.077328 -2.386722
  C 4.762604 -1.438238 -3.567191
  H 3.967664 -1.692968 -4.279665
  O 7.603989 -0.595972 -1.569361
  H 3.811449 1.341628 1.128494
  H 3.774081 -0.270239 1.806982
  H 1.909900 0.401802 3.323992
  H 1.933435 2.019987 2.636830
  H 4.266355 0.698838 4.109890
  H 3.205458 1.944084 4.757075
  H 4.286904 2.323926 3.423020
  H 1.579264 -0.634654 -1.427888
  H 4.535096 -0.344940 -0.593190
  H 5.390485 -2.330756 -3.463209
  H 5.328609 -0.615259 -4.021187
  H 8.001667 -0.288038 -0.751668
 23
 106.966386
  H 1.075659 0.325255 0.807688
  C 2.113745 0.193860 0.514354
  C 3.131607 0.576590 1.498813
  C 2.554375 1.112852 2.808854
  C 3.646696 1.502605 3.791604
  C 2.352297 -0.302516 -0.713511
  C 3.679776 -0.529763 -1.244992
  C 4.123546 -0.980000 -2.353632
  C 4.686435 -1.457821 -3.507780
  H 3.855699 -1.728128 -4.180828
  O 7.958447 -0.500000 -1.460103
  H 3.798065 1.340191 1.064985
  H 3.775336 -0.291625 1.723608
  H 1.920009 0.361637 3.263176
  H 1.933200 1.976924 2.607434
  H 4.270411 0.649634 4.039235
  H 3.212901 1.877600 4.712250
  H 4.281400 2.280958 3.379926
  H 1.533961 -0.552375 -1.361463
  H 4.513538 -0.282162 -0.571979
  H 5.256591 -2.379073 -3.351489
  H 5.275395 -0.698320 -4.038687
  H 8.461200 -0.190503 -0.701301
 23
 107.508985
  H 1.065064 0.308914 0.811586
  C 2.107165 0.170975 0.512873
  C 3.132620 0.568967 1.503280
  C 2.559111 1.114163 2.787330
  C 3.645007 1.512953 3.762501
  C 2.343406 -0.337057 -0.699635
  C 3.656163 -0.571679 -1.223120
  C 4.107576 -1.032011 -2.326513
  C 4.638141 -1.434787 -3.535240
  H 3.773190 -1.668566 -4.194328
  O 8.202021 -0.502393 -1.373396
  H 3.790669 1.314895 1.069877
  H 3.765068 -0.281808 1.734190
  H 1.920562 0.365799 3.251109
  H 1.937356 1.979747 2.572890
  H 4.265430 0.664341 4.020851
  H 3.210127 1.898547 4.674407
  H 4.279426 2.283430 3.342932
  H 1.511913 -0.602490 -1.363100
  H 4.491816 -0.307050 -0.557380
  H 5.210963 -2.350988 -3.459572
  H 5.196553 -0.652825 -4.037396
  H 8.761739 -0.217581 -0.645134
 23
 10000.000000
  H 1.046509 0.331570 0.857598
  C 2.088572 0.192956 0.559066
  C 3.114101 0.589499 1.549979
  C 2.540712 1.134382 2.834215
  C 3.626686 1.531682 3.809907
  C 2.347719 -0.363986 -0.771883
  C 3.660416 -0.599368 -1.295176
  C 4.111733 -1.059398 -2.398736
  C 4.642276 -1.461871 -3.607573
  H 3.777301 -1.694535 -4.267025
  O 8.332162 -0.517582 -1.414926
  H 3.772875 1.335150 1.117200
  H 3.745790 -0.261937 1.780530
  H 1.901429 0.386260 3.297373
  H 1.919724 2.000608 2.620145
  H 4.246345 0.682402 4.067896
  H 3.191891 1.917077 4.721938
  H 4.261846 2.301893 3.390971
  H 1.516177 -0.628330 -1.435723
  H 4.496116 -0.335834 -0.629062
  H 5.214324 -2.378589 -3.532318
  H 5.201459 -0.680062 -4.109108
  H 8.891928 -0.233675 -0.686346
