17

C 1.006343 -0.071183 0.048315
C 2.50263 -0.082861 0.025392
C 3.217013 -0.596028 -0.982044
C 4.655457 -0.606405 -1.002412
C 5.379281 -1.120656 -2.011972
C 6.818458 -1.129845 -2.03001
C 7.535415 -1.642002 -3.035466
H 8.604938860702937 -1.6564919268321796 -3.063904590110658
H 0.645182 0.395178 0.963856
H 0.610328 -1.085753 0.009911
H 0.610329 0.494278 -0.79494
H 3.004053 0.352283 0.879655
H 2.702206 -1.028961 -1.831952
H 5.158067 -0.171101 -0.147843
H 4.877258 -1.556064 -2.86675
H 7.328501 -0.69581 -1.177923
H 7.035569 -2.077975 -3.891338
