 23
 0.000000
  C 0.987600 0.149954 0.415896
  C 2.461914 0.133196 0.390135
  C 3.232735 0.600766 1.557260
  H 2.617943 0.934191 2.383658
  C 3.072986 -0.331702 -0.767934
  C 4.449382 -0.412391 -0.976775
  C 5.123343 -0.863413 -2.107455
  C 4.622834 -1.386154 -3.408181
  C 3.133721 -1.505276 -3.694923
  H 2.995878 -1.905885 -4.693086
  O 6.444491 -0.856718 -2.101375
  H 0.585294 0.533387 1.348423
  H 0.594861 -0.855296 0.256185
  H 0.607819 0.762409 -0.403240
  H 3.887658 1.421609 1.258482
  H 3.884064 -0.201024 1.910653
  H 2.412909 -0.647892 -1.556750
  H 5.078662 -0.084316 -0.157993
  H 5.086219 -2.371336 -3.533718
  H 5.081806 -0.758437 -4.180463
  H 2.648769 -0.533173 -3.655305
  H 2.653334 -2.182998 -2.993732
  H 6.837331 -0.524083 -1.272643
 23
 0.971558
  C 1.028603 -0.158375 0.610309
  C 2.461556 0.109326 0.380895
  C 3.187872 0.988057 1.315112
  H 2.633487 1.142347 2.233312
  C 3.053553 -0.448717 -0.745918
  C 4.426496 -0.581670 -0.934556
  C 5.114734 -1.092933 -2.030821
  C 4.633407 -1.400418 -3.405300
  C 3.186163 -1.138614 -3.790918
  H 3.079219 -1.313829 -4.857017
  O 6.410396 -1.317850 -1.929147
  H 0.676301 0.265496 1.544843
  H 0.858395 -1.236336 0.617728
  H 0.424511 0.238583 -0.207464
  H 3.333443 1.962322 0.842291
  H 4.182875 0.613972 1.551612
  H 2.384368 -0.854402 -1.485478
  H 5.052191 -0.326106 -0.085018
  H 4.880909 -2.451437 -3.599330
  H 5.290489 -0.832723 -4.073223
  H 2.901735 -0.109033 -3.592420
  H 2.506052 -1.818519 -3.284907
  H 6.794797 -1.122770 -1.054137
 23
 6.899344
  C 1.149253 -0.429991 0.831631
  C 2.441528 0.117165 0.380310
  C 3.085921 1.208486 1.123243
  H 2.664731 1.338430 2.115565
  C 3.010027 -0.398083 -0.789514
  C 4.351374 -0.724036 -0.905102
  C 5.054828 -1.247607 -1.983678
  C 4.642146 -1.416987 -3.405189
  C 3.274084 -0.937633 -3.862289
  H 3.201349 -1.082302 -4.936993
  O 6.296081 -1.664143 -1.804051
  H 0.871403 -0.055205 1.811228
  H 1.231793 -1.515883 0.865374
  H 0.347451 -0.197110 0.129010
  H 2.929213 2.134252 0.563208
  H 4.166519 1.083778 1.185193
  H 2.333960 -0.609470 -1.602971
  H 4.925302 -0.646085 0.012939
  H 4.752204 -2.481442 -3.640195
  H 5.417620 -0.916776 -3.996912
  H 3.135776 0.120562 -3.659253
  H 2.474916 -1.515696 -3.406997
  H 6.624112 -1.579651 -0.890002
 23
 18.782236
  C 1.333528 -0.604480 0.991918
  C 2.449718 0.146754 0.402483
  C 2.924186 1.401218 0.995708
  H 2.555389 1.548943 2.006586
  C 3.029182 -0.326613 -0.809817
  C 4.287234 -0.873662 -0.875109
  C 4.989952 -1.376563 -1.967857
  C 4.625392 -1.423211 -3.412428
  C 3.333492 -0.781771 -3.894129
  H 3.280038 -0.889239 -4.974844
  O 6.178035 -1.929295 -1.769925
  H 1.094947 -0.256566 1.991983
  H 1.591516 -1.662820 1.014220
  H 0.433266 -0.516766 0.377552
  H 2.566199 2.225260 0.373657
  H 4.012494 1.471571 0.975080
  H 2.414866 -0.247006 -1.694186
  H 4.803357 -0.967411 0.075619
  H 4.629771 -2.481403 -3.696721
  H 5.472804 -0.983256 -3.949197
  H 3.309767 0.281103 -3.668436
  H 2.462852 -1.278518 -3.477642
  H 6.466369 -1.938664 -0.839389
 23
 22.066263
  C 1.582266 -0.686489 1.132613
  C 2.508635 0.189918 0.411413
  C 2.707693 1.582282 0.838408
  H 2.322894 1.751601 1.840075
  C 3.150973 -0.256510 -0.786908
  C 4.278734 -1.041183 -0.842336
  C 4.943065 -1.503806 -1.978375
  C 4.600389 -1.395140 -3.425859
  C 3.384607 -0.602653 -3.880570
  H 3.343484 -0.636447 -4.968347
  O 6.086206 -2.162073 -1.826986
  H 1.337033 -0.305605 2.122083
  H 1.916446 -1.720869 1.190461
  H 0.659161 -0.730386 0.546250
  H 2.199681 2.275426 0.160367
  H 3.762895 1.846085 0.784851
  H 2.706134 0.108282 -1.701388
  H 4.729032 -1.303975 0.104455
  H 4.514021 -2.424340 -3.786845
  H 5.493375 -0.996736 -3.919795
  H 3.459468 0.441035 -3.593231
  H 2.462527 -1.036928 -3.506579
  H 6.360630 -2.278003 -0.899695
 23
 9.586023
  C 1.854889 -0.761822 1.236677
  C 2.581998 0.206997 0.408656
  C 2.483142 1.646601 0.723778
  H 2.080618 1.811973 1.719648
  C 3.260137 -0.181209 -0.754987
  C 4.247565 -1.151749 -0.845405
  C 4.877605 -1.600882 -1.999874
  C 4.546046 -1.383829 -3.437623
  C 3.420271 -0.449964 -3.848740
  H 3.351101 -0.459208 -4.933443
  O 5.938328 -2.386145 -1.889132
  H 1.649264 -0.384529 2.236462
  H 2.315737 -1.741886 1.276937
  H 0.890836 -0.927857 0.745707
  H 1.835342 2.156223 0.007051
  H 3.457643 2.121895 0.633063
  H 3.029170 0.399941 -1.635461
  H 4.610319 -1.561314 0.091560
  H 4.343735 -2.384832 -3.838709
  H 5.474667 -1.068315 -3.925156
  H 3.621153 0.575682 -3.550953
  H 2.462787 -0.779659 -3.454435
  H 6.200697 -2.582057 -0.971011
 23
 2.211385
  C 2.146200 -0.789859 1.346661
  C 2.653051 0.223322 0.412001
  C 2.247632 1.630289 0.613684
  H 1.836686 1.796998 1.609301
  C 3.378415 -0.102894 -0.726105
  C 4.220247 -1.206046 -0.870324
  C 4.808610 -1.676197 -2.039614
  C 4.496488 -1.360696 -3.460879
  C 3.472425 -0.294778 -3.811882
  H 3.341775 -0.289298 -4.890113
  O 5.745420 -2.604442 -1.964781
  H 2.053419 -0.401124 2.355338
  H 2.715641 -1.714529 1.337944
  H 1.137559 -1.053480 1.021381
  H 1.485150 1.907519 -0.119453
  H 3.083244 2.300113 0.444748
  H 3.332439 0.608319 -1.532989
  H 4.487823 -1.729995 0.033722
  H 4.181609 -2.313111 -3.898513
  H 5.448433 -1.131661 -3.950345
  H 3.810902 0.697168 -3.525831
  H 2.508105 -0.505029 -3.360843
  H 5.979429 -2.876394 -1.058571
 23
 0.966576
  C 2.250933 -0.800126 1.332707
  C 2.722010 0.230867 0.393478
  C 2.188872 1.597613 0.557428
  H 1.968004 1.818722 1.599462
  C 3.535581 -0.046946 -0.689940
  C 4.270306 -1.222198 -0.880914
  C 4.807452 -1.693764 -2.072953
  C 4.484273 -1.290398 -3.467305
  C 3.372324 -0.279272 -3.729587
  H 3.135904 -0.291879 -4.792874
  O 5.657027 -2.701657 -2.055630
  H 2.353680 -0.463795 2.363170
  H 2.743021 -1.755700 1.195349
  H 1.178418 -0.953002 1.172748
  H 1.244019 1.683980 0.008028
  H 2.862225 2.346259 0.151188
  H 3.639502 0.736431 -1.425236
  H 4.496712 -1.808887 0.002516
  H 4.255483 -2.222012 -3.987646
  H 5.417071 -0.939831 -3.923263
  H 3.676929 0.732142 -3.482061
  H 2.473906 -0.530601 -3.183137
  H 5.920812 -3.002798 -1.166283
 23
 5.552609
  C 2.191349 -0.875645 0.994881
  C 2.784794 0.295621 0.324522
  C 2.285716 1.646055 0.650523
  H 1.889831 1.687568 1.661165
  C 3.719930 0.108554 -0.665485
  C 4.474642 -1.074131 -0.844502
  C 4.872901 -1.638722 -2.043062
  C 4.303799 -1.391933 -3.396825
  C 3.162518 -0.399310 -3.546961
  H 2.790763 -0.448883 -4.567054
  O 5.768274 -2.608768 -2.063085
  H 2.001020 -0.700291 2.049278
  H 2.809846 -1.750290 0.813867
  H 1.228107 -1.098538 0.528972
  H 1.466286 1.905542 -0.023583
  H 3.056967 2.401222 0.520708
  H 3.919338 0.936955 -1.331940
  H 4.922369 -1.487544 0.053295
  H 3.996239 -2.371930 -3.776652
  H 5.137014 -1.089311 -4.040739
  H 3.487392 0.619760 -3.369776
  H 2.341765 -0.635964 -2.876118
  H 6.189002 -2.795780 -1.203921
 23
 15.996757
  C 2.217642 -0.890189 0.680724
  C 2.822923 0.375019 0.235908
  C 2.306436 1.677851 0.718790
  H 1.838372 1.570203 1.697875
  C 3.835222 0.257647 -0.670551
  C 4.540897 -0.970844 -0.809736
  C 4.867596 -1.622848 -1.989033
  C 4.195977 -1.478287 -3.299503
  C 3.023918 -0.512512 -3.394483
  H 2.600308 -0.577493 -4.395147
  O 5.793104 -2.561012 -2.007660
  H 1.882397 -0.892570 1.712376
  H 2.976383 -1.631685 0.375673
  H 1.391108 -1.190830 0.042683
  H 1.546159 2.051563 0.041618
  H 3.097443 2.430837 0.772671
  H 4.137276 1.099123 -1.279009
  H 5.184569 -1.200134 0.047014
  H 3.897914 -2.476722 -3.623315
  H 4.969597 -1.167510 -4.011476
  H 3.337217 0.519218 -3.234367
  H 2.246785 -0.755055 -2.688350
  H 6.309342 -2.673460 -1.169683
 23
 31.489883
  C 2.340194 -0.894170 0.540731
  C 2.848925 0.443907 0.171466
  C 2.246280 1.683309 0.694188
  H 1.828715 1.523224 1.675001
  C 3.888036 0.374585 -0.698862
  C 4.532894 -0.948779 -0.769468
  C 4.809736 -1.635455 -1.934033
  C 4.137992 -1.473806 -3.231484
  C 2.972064 -0.518119 -3.281496
  H 2.556077 -0.518352 -4.275231
  O 5.724089 -2.564971 -1.949742
  H 1.974604 -1.006823 1.535192
  H 3.300435 -1.498744 0.120335
  H 1.668066 -1.368773 -0.196713
  H 1.433183 1.998510 0.036478
  H 2.978449 2.503303 0.736640
  H 4.298317 1.200632 -1.215951
  H 5.293792 -1.060346 -0.017151
  H 3.844414 -2.474308 -3.583779
  H 4.893681 -1.142330 -3.927518
  H 3.264769 0.490623 -3.037059
  H 2.178860 -0.830880 -2.597921
  H 6.229789 -2.664368 -1.134435
 23
 39.784454
  C 2.291574 -0.828435 0.505395
  C 2.824079 0.460878 0.144098
  C 2.223468 1.712181 0.692240
  H 1.763436 1.525294 1.658922
  C 3.905178 0.406279 -0.666938
  C 4.521096 -0.952321 -0.714415
  C 4.854520 -1.606469 -1.938893
  C 4.153186 -1.435502 -3.233321
  C 2.898675 -0.575325 -3.255633
  H 2.472966 -0.602512 -4.255093
  O 5.796755 -2.510149 -1.981861
  H 1.884274 -0.955765 1.497603
  H 3.607666 -1.477823 -0.079642
  H 1.790738 -1.424444 -0.244310
  H 1.442693 2.064967 0.018922
  H 2.967261 2.497042 0.793295
  H 4.381620 1.255148 -1.124287
  H 5.316492 -1.032578 0.032455
  H 3.922496 -2.439986 -3.603644
  H 4.886585 -1.038322 -3.944369
  H 3.114125 0.459960 -3.015611
  H 2.148775 -0.949330 -2.566460
  H 6.286159 -2.656852 -1.149411
 23
 37.077864
  C 2.150952 -0.778449 0.529519
  C 2.786125 0.429435 0.153455
  C 2.244150 1.737164 0.649403
  H 1.743895 1.608901 1.606027
  C 3.901378 0.346939 -0.622056
  C 4.541543 -1.002421 -0.691347
  C 4.911970 -1.571684 -1.969042
  C 4.191733 -1.363882 -3.241677
  C 2.868129 -0.616531 -3.197561
  H 2.438928 -0.601986 -4.195838
  O 5.915336 -2.386554 -2.066155
  H 1.650720 -0.832222 1.484203
  H 3.738912 -1.600297 -0.148455
  H 1.767707 -1.461268 -0.209398
  H 1.508468 2.109627 -0.061621
  H 3.028076 2.480041 0.752598
  H 4.392172 1.201635 -1.051688
  H 5.367552 -1.050490 0.026622
  H 4.046395 -2.353002 -3.687654
  H 4.883584 -0.853283 -3.922513
  H 2.994803 0.411165 -2.874603
  H 2.158821 -1.107824 -2.538734
  H 6.422783 -2.548582 -1.246013
 23
 31.849873
  C 2.000446 -0.720380 0.537435
  C 2.741404 0.397431 0.164833
  C 2.285619 1.755969 0.610754
  H 1.745935 1.691452 1.549912
  C 3.892177 0.272636 -0.575223
  C 4.550018 -1.061570 -0.675626
  C 4.963845 -1.523912 -1.997797
  C 4.228560 -1.272366 -3.249120
  C 2.837619 -0.665207 -3.144933
  H 2.406351 -0.598224 -4.137114
  O 6.032193 -2.233244 -2.145571
  H 1.366110 -0.675009 1.411627
  H 3.814864 -1.748365 -0.210694
  H 1.789293 -1.526851 -0.137998
  H 1.605406 2.163643 -0.136440
  H 3.117857 2.441033 0.726491
  H 4.410402 1.136877 -0.965402
  H 5.395197 -1.085065 0.022337
  H 4.180848 -2.225038 -3.784586
  H 4.865243 -0.639162 -3.877091
  H 2.864935 0.332632 -2.724327
  H 2.182301 -1.282812 -2.538164
  H 6.550411 -2.421747 -1.337679
 23
 29.936525
  C 1.899629 -0.664081 0.472608
  C 2.691615 0.411483 0.178772
  C 2.359544 1.771964 0.732058
  H 1.699401 1.688066 1.595145
  C 3.823848 0.282687 -0.626346
  C 4.528713 -1.021586 -0.707658
  C 4.997187 -1.465093 -2.015911
  C 4.265027 -1.251012 -3.275965
  C 2.819099 -0.779243 -3.172821
  H 2.395805 -0.702874 -4.172555
  O 6.115410 -2.090072 -2.144947
  H 1.138659 -0.596432 1.232792
  H 3.867130 -1.762687 -0.224070
  H 1.826766 -1.520667 -0.171026
  H 1.844900 2.351838 -0.028571
  H 3.253142 2.313047 1.020822
  H 4.300806 1.156359 -1.038836
  H 5.370091 -0.991246 0.003012
  H 4.309406 -2.193404 -3.829388
  H 4.848332 -0.548317 -3.883454
  H 2.746238 0.200184 -2.700707
  H 2.218951 -1.479936 -2.612672
  H 6.624768 -2.259399 -1.325397
