 19
 0.000000
  C -1.410433 1.332807 -0.931606
  C -1.089544 0.238021 0.038791
  C -1.467859 0.564330 1.465838
  C -1.735996 -1.185679 -0.220768
  C -2.738166 -1.237445 -1.315098
  O -1.416111 -2.097526 0.465727
  H -0.824993 2.213962 -0.658026
  H -2.452751 1.641186 -0.886555
  H -1.130890 1.078504 -1.950215
  H -0.017129 0.004023 -0.029810
  H -2.536050 0.743226 1.584154
  H -0.967540 1.491590 1.752317
  H -1.173169 -0.231352 2.144775
  H -2.857160 -0.316726 -1.866167
  H -3.684889 -1.530017 -0.854369
  H -2.438104 -2.049904 -1.980494
  O 2.956186 -0.192464 0.033915
  H 2.012941 -0.007016 -0.023731
  H 3.356995 0.129050 -0.777328
 19
 1.964922
  C -1.369432 1.339040 -0.944969
  C -1.036827 0.238440 0.036987
  C -1.425212 0.558312 1.470502
  C -1.679305 -1.191551 -0.221619
  C -2.691386 -1.237413 -1.311132
  O -1.350854 -2.100452 0.464934
  H -0.779711 2.226008 -0.681282
  H -2.412892 1.650453 -0.890329
  H -1.096301 1.088639 -1.966307
  H 0.043212 -0.011367 -0.032863
  H -2.496035 0.741609 1.580177
  H -0.928730 1.486590 1.768651
  H -1.134041 -0.235914 2.152614
  H -2.815631 -0.314546 -1.857424
  H -3.637654 -1.530548 -0.846173
  H -2.399606 -2.048833 -1.984881
  O 2.711641 -0.197474 0.041057
  H 1.762991 -0.009498 -0.022047
  H 3.114273 0.130385 -0.766157
 19
 3.125006
  C -1.337098 1.338735 -0.941510
  C -1.003514 0.257977 0.042098
  C -1.402400 0.564214 1.462964
  C -1.621875 -1.184416 -0.227635
  C -2.641747 -1.232426 -1.301110
  O -1.263980 -2.097178 0.438362
  H -0.747316 2.224337 -0.683289
  H -2.378646 1.651739 -0.882095
  H -1.064504 1.076500 -1.962574
  H 0.083883 -0.004229 -0.028473
  H -2.473726 0.745095 1.562087
  H -0.913629 1.492836 1.766198
  H -1.109823 -0.232190 2.144958
  H -2.790137 -0.304827 -1.828306
  H -3.571754 -1.553945 -0.830296
  H -2.344040 -2.025976 -1.986817
  O 2.488961 -0.237566 0.033262
  H 1.546364 -0.006187 -0.029608
  H 2.917372 0.105087 -0.760245
 19
 6.809705
  C -1.288805 1.349131 -0.929723
  C -0.968395 0.264555 0.038895
  C -1.371885 0.568772 1.453471
  C -1.587847 -1.196522 -0.236788
  C -2.623207 -1.254092 -1.301634
  O -1.230194 -2.110078 0.425923
  H -0.693957 2.232910 -0.665506
  H -2.327052 1.671999 -0.867889
  H -1.021750 1.099045 -1.956018
  H 0.113408 -0.005312 -0.033256
  H -2.441263 0.752458 1.542717
  H -0.886827 1.496970 1.768725
  H -1.089723 -0.226098 2.140574
  H -2.787018 -0.341896 -1.827087
  H -3.540903 -1.576320 -0.822825
  H -2.333612 -2.041418 -1.986632
  O 2.314347 -0.235650 0.030528
  H 1.369988 0.013748 -0.035068
  H 2.758978 0.112796 -0.745867
 19
 11.900701
  C -1.282591 1.349170 -0.941738
  C -0.969322 0.258722 0.040003
  C -1.360446 0.569692 1.464484
  C -1.563230 -1.187069 -0.235940
  C -2.601944 -1.245674 -1.298516
  O -1.197227 -2.107223 0.418542
  H -0.686571 2.229645 -0.679345
  H -2.318128 1.677124 -0.881340
  H -1.020032 1.085636 -1.963642
  H 0.154520 -0.005866 -0.025024
  H -2.428490 0.746203 1.566756
  H -0.878805 1.503112 1.770532
  H -1.067179 -0.225293 2.145491
  H -2.771781 -0.318855 -1.818959
  H -3.522705 -1.584239 -0.817712
  H -2.300405 -2.030562 -1.997206
  O 2.226953 -0.255933 0.029974
  H 1.258933 0.018231 -0.037119
  H 2.688315 0.099972 -0.736592
 19
 21.949768
  C -1.273031 1.344541 -0.942406
  C -0.971233 0.254857 0.039180
  C -1.361028 0.567534 1.465060
  C -1.549650 -1.177840 -0.236801
  C -2.593671 -1.238990 -1.294489
  O -1.194137 -2.101658 0.424254
  H -0.676627 2.222198 -0.678836
  H -2.304575 1.675090 -0.883447
  H -1.010916 1.078660 -1.964418
  H 0.210309 -0.022360 -0.023578
  H -2.425170 0.742121 1.564580
  H -0.881561 1.501637 1.774469
  H -1.071091 -0.227592 2.144795
  H -2.764575 -0.310787 -1.814802
  H -3.516051 -1.577806 -0.806045
  H -2.294812 -2.029441 -1.997792
  O 2.197563 -0.253049 0.021506
  H 1.182095 0.016771 -0.035247
  H 2.655390 0.116796 -0.741240
 19
 33.908130
  C -1.274567 1.341402 -0.936780
  C -0.985998 0.256293 0.042942
  C -1.361416 0.574389 1.464353
  C -1.547475 -1.173835 -0.236658
  C -2.592267 -1.238237 -1.294830
  O -1.203178 -2.108119 0.420864
  H -0.681422 2.216303 -0.674283
  H -2.306408 1.674190 -0.879317
  H -1.013759 1.070146 -1.959653
  H 0.269474 -0.028645 -0.021345
  H -2.428682 0.747901 1.568422
  H -0.884315 1.505936 1.768728
  H -1.069803 -0.222140 2.144162
  H -2.765928 -0.307095 -1.813092
  H -3.510675 -1.581697 -0.811102
  H -2.291424 -2.021210 -1.996024
  O 2.209251 -0.259276 0.019476
  H 1.136757 0.013718 -0.032523
  H 2.657605 0.121499 -0.745217
 19
 49.220510
  C -1.299585 1.349862 -0.934426
  C -1.014894 0.263122 0.045693
  C -1.379692 0.578747 1.463918
  C -1.561144 -1.165108 -0.234917
  C -2.605529 -1.240391 -1.294413
  O -1.210516 -2.099708 0.421390
  H -0.706761 2.228449 -0.669866
  H -2.335455 1.682919 -0.877761
  H -1.039133 1.079547 -1.955414
  H 0.347593 -0.034056 -0.024824
  H -2.450490 0.748753 1.573314
  H -0.903551 1.512807 1.767739
  H -1.083095 -0.220006 2.141986
  H -2.788647 -0.311343 -1.813090
  H -3.520563 -1.593564 -0.812849
  H -2.295810 -2.020103 -1.995308
  O 2.309219 -0.286678 0.019779
  H 1.139377 0.013272 -0.035441
  H 2.754971 0.097565 -0.743039
 19
 67.285407
  C -1.332740 1.357309 -0.928352
  C -1.055817 0.273757 0.049462
  C -1.403822 0.587807 1.465600
  C -1.580673 -1.154298 -0.232737
  C -2.621007 -1.242556 -1.295776
  O -1.218529 -2.090628 0.418390
  H -0.742290 2.235263 -0.662563
  H -2.368840 1.689218 -0.872094
  H -1.072428 1.086644 -1.949451
  H 0.429853 -0.034538 -0.030613
  H -2.476030 0.752739 1.582672
  H -0.930077 1.522853 1.765833
  H -1.100299 -0.211306 2.141189
  H -2.816456 -0.314889 -1.813294
  H -3.531777 -1.611332 -0.820333
  H -2.297338 -2.014151 -1.996313
  O 2.434564 -0.322080 0.020144
  H 1.154611 0.014745 -0.041565
  H 2.879173 0.062269 -0.743913
 19
 85.159192
  C -1.388726 1.368162 -0.921630
  C -1.125596 0.298605 0.053748
  C -1.446270 0.600281 1.468395
  C -1.609980 -1.128696 -0.228862
  C -2.647039 -1.242417 -1.295182
  O -1.225562 -2.066497 0.414787
  H -0.806706 2.248874 -0.658396
  H -2.425560 1.693556 -0.864159
  H -1.130500 1.094678 -1.944218
  H 0.540406 -0.027191 -0.043429
  H -2.518828 0.751225 1.594738
  H -0.982386 1.536231 1.774298
  H -1.134471 -0.202849 2.134344
  H -2.867446 -0.319048 -1.812556
  H -3.549646 -1.639497 -0.828999
  H -2.298691 -2.001164 -1.996747
  O 2.643261 -0.386798 0.023345
  H 1.224267 0.016958 -0.055311
  H 3.084963 -0.004510 -0.744965
 19
 93.486582
  C -1.496554 1.390850 -0.915587
  C -1.269362 0.355575 0.072884
  C -1.521732 0.634327 1.485205
  C -1.668021 -1.090577 -0.229510
  C -2.699891 -1.254498 -1.302573
  O -1.237093 -2.021678 0.399932
  H -0.935609 2.285954 -0.660058
  H -2.535865 1.717807 -0.860820
  H -1.250117 1.093489 -1.929133
  H 0.704688 -0.005191 -0.063376
  H -2.601710 0.755254 1.652357
  H -1.073214 1.577761 1.799331
  H -1.190222 -0.191785 2.125131
  H -2.964507 -0.341753 -1.813370
  H -3.579570 -1.711952 -0.862151
  H -2.291839 -1.966926 -2.018475
  O 3.030081 -0.511014 0.032324
  H 1.407135 0.027044 -0.085412
  H 3.475182 -0.155513 -0.748753
 19
 98.457806
  C -1.572886 1.427006 -0.909835
  C -1.377618 0.394452 0.079630
  C -1.593595 0.649656 1.485624
  C -1.718675 -1.056382 -0.235156
  C -2.747217 -1.266348 -1.302339
  O -1.236845 -1.967802 0.395052
  H -1.017569 2.329576 -0.650851
  H -2.617896 1.757213 -0.879655
  H -1.320005 1.119970 -1.925822
  H 0.838876 -0.009307 -0.081204
  H -2.667592 0.738035 1.684756
  H -1.154074 1.585649 1.822309
  H -1.258507 -0.193697 2.098384
  H -3.069562 -0.369584 -1.809520
  H -3.597907 -1.781866 -0.855029
  H -2.313741 -1.965633 -2.017182
  O 3.333927 -0.599541 0.026357
  H 1.530445 0.027120 -0.104021
  H 3.793539 -0.247183 -0.743796
 19
 98.697122
  C -1.652089 1.431474 -0.907975
  C -1.511188 0.396735 0.073246
  C -1.666364 0.654360 1.481502
  C -1.804220 -1.053950 -0.255920
  C -2.850789 -1.274529 -1.297758
  O -1.280649 -1.950316 0.358977
  H -1.098551 2.326900 -0.632899
  H -2.699955 1.762157 -0.917896
  H -1.386456 1.117474 -1.922848
  H 1.000682 -0.042728 -0.091326
  H -2.729730 0.737034 1.724903
  H -1.220572 1.592885 1.799748
  H -1.317720 -0.189449 2.080710
  H -3.214787 -0.372039 -1.769363
  H -3.680296 -1.811492 -0.836283
  H -2.425615 -1.941032 -2.043658
  O 3.741815 -0.635404 0.050570
  H 1.703238 0.035091 -0.106668
  H 4.213583 -0.263776 -0.706004
 19
 98.959304
  C -1.743250 1.436339 -0.905676
  C -1.629921 0.398101 0.064127
  C -1.717783 0.659679 1.478017
  C -1.895798 -1.059146 -0.272608
  C -2.945609 -1.291146 -1.302093
  O -1.327274 -1.940656 0.324435
  H -1.182870 2.327732 -0.618760
  H -2.788700 1.774005 -0.930689
  H -1.481743 1.128337 -1.922278
  H 1.140788 -0.067992 -0.104925
  H -2.777223 0.743734 1.771138
  H -1.259424 1.609703 1.775411
  H -1.344143 -0.186272 2.072064
  H -3.339391 -0.391945 -1.743012
  H -3.758822 -1.849916 -0.837109
  H -2.521649 -1.935320 -2.069859
  O 4.099762 -0.663499 0.091788
  H 1.838453 0.058429 -0.111304
  H 4.597159 -0.283908 -0.645912
