 16
 0.000000
  C 1.003776 0.133354 0.382952
  C 2.457566 0.087738 0.269180
  H 3.047251 0.426910 1.113038
  C 3.095193 -0.367344 -0.863559
  C 4.494245 -0.413895 -0.981212
  C 5.178462 -0.860773 -2.094892
  C 4.611747 -1.358887 -3.336078
  H 3.525433 -1.366988 -3.357343
  H 6.260683 -0.839508 -2.041977
  H 0.672091 0.518511 1.342070
  H 0.579146 -0.861366 0.218475
  H 0.579325 0.738371 -0.423671
  H 2.483244 -0.700572 -1.691911
  H 5.076632 -0.073774 -0.134722
  H 4.999070 -2.362004 -3.533772
  H 4.999661 -0.771391 -4.172324
 16
 11.815386
  C 1.086882 -0.079156 0.295305
  C 2.562602 0.106186 0.284756
  H 2.872469 0.450495 1.254592
  C 3.178113 0.135204 -0.949365
  C 4.534477 -0.231264 -1.032173
  C 5.151968 -0.882846 -2.062718
  C 4.495937 -1.488013 -3.214417
  H 3.412730 -1.399893 -3.198368
  H 6.231781 -0.969638 -2.029895
  H 0.663318 0.110562 1.276887
  H 0.838402 -1.103336 0.001428
  H 0.624114 0.567229 -0.454750
  H 2.580581 0.223931 -1.842867
  H 5.151248 0.091224 -0.201086
  H 4.760921 -2.545033 -3.282716
  H 4.909472 -1.047871 -4.127029
 16
 55.302435
  C 1.134118 -0.140505 0.198946
  C 2.809123 0.110937 0.282935
  H 2.552592 0.191927 1.312760
  C 3.212696 0.285018 -0.978909
  C 4.595117 -0.150025 -1.016728
  C 5.126382 -0.879605 -2.038892
  C 4.377886 -1.553780 -3.096704
  H 3.296410 -1.500477 -2.961921
  H 6.208091 -0.956425 -2.092875
  H 0.708224 -0.063691 1.189452
  H 1.026728 -1.132932 -0.209556
  H 0.780350 0.632056 -0.464918
  H 2.670415 0.595628 -1.858623
  H 5.254457 0.264523 -0.280293
  H 4.671462 -2.606770 -3.152836
  H 4.663100 -1.135692 -4.058426
 16
 96.911985
  C 0.747773 -0.075664 0.397453
  C 3.018872 0.095858 0.108715
  H 2.851845 0.081765 1.155002
  C 3.217739 0.313071 -1.168943
  C 4.654073 -0.121986 -1.044323
  C 5.196888 -0.882816 -2.039312
  C 4.435053 -1.592184 -3.103711
  H 3.345890 -1.536460 -2.954903
  H 6.287298 -0.988623 -2.064770
  H 0.672651 -0.026834 1.471901
  H 0.703472 -1.036384 -0.072252
  H 0.515304 0.812838 -0.181559
  H 2.695519 0.484691 -2.081217
  H 5.360450 0.301276 -0.351119
  H 4.727560 -2.650880 -3.132464
  H 4.710440 -1.186931 -4.089005
 16
 101.007784
  C 0.584419 -0.204510 0.407027
  C 3.415679 0.084828 -0.174092
  H 3.358612 -0.057135 0.883218
  C 3.371109 0.630770 -1.327231
  C 4.746506 0.002756 -1.044077
  C 5.163729 -0.921262 -1.985718
  C 4.297759 -1.658273 -2.894706
  H 3.240308 -1.515568 -2.686679
  H 6.230837 -1.069289 -2.094245
  H 0.566916 -0.298590 1.473770
  H 0.509808 -1.083710 -0.193236
  H 0.321015 0.740764 -0.010642
  H 2.817862 0.962626 -2.175386
  H 5.515301 0.514088 -0.486428
  H 4.541689 -2.717418 -2.822352
  H 4.517582 -1.384735 -3.933569
 16
 101.395868
  C 0.036329 -0.234997 0.658749
  C 3.718494 0.199552 -0.261678
  H 3.624570 0.092488 0.788346
  C 3.601551 0.734310 -1.411584
  C 5.016611 -0.013996 -1.124804
  C 5.287511 -0.954152 -2.081091
  C 4.323767 -1.681003 -2.893425
  H 3.285103 -1.479743 -2.631500
  H 6.333105 -1.156869 -2.284400
  H 0.138214 -0.343409 1.716098
  H 0.050694 -1.102314 0.035804
  H -0.229847 0.711164 0.244067
  H 3.183578 1.033253 -2.335884
  H 5.841539 0.489390 -0.639044
  H 4.528216 -2.749190 -2.787591
  H 4.490486 -1.474156 -3.954436
 16
 100.294423
  C -0.285958 -0.322401 0.685771
  C 3.827249 0.161839 -0.276010
  H 3.686511 -0.004090 0.759977
  C 3.734470 0.802399 -1.372566
  C 5.089795 -0.029541 -1.120252
  C 5.318711 -0.996692 -2.072274
  C 4.304318 -1.693801 -2.846881
  H 3.284560 -1.446145 -2.550503
  H 6.342531 -1.223880 -2.301933
  H -0.167080 -0.487410 1.728576
  H -0.258661 -1.149511 0.011372
  H -0.502453 0.656218 0.318992
  H 3.330751 1.207937 -2.266576
  H 5.958034 0.442543 -0.667227
  H 4.471372 -2.769470 -2.756808
  H 4.445276 -1.496186 -3.908576
 16
 100.429593
  C -0.645191 -0.381310 0.735928
  C 3.910349 0.115722 -0.281656
  H 3.736701 -0.090286 0.743852
  C 3.851100 0.831530 -1.327087
  C 5.152646 -0.071210 -1.100955
  C 5.341063 -1.041785 -2.066629
  C 4.302288 -1.690157 -2.843678
  H 3.295888 -1.390024 -2.568177
  H 6.360592 -1.311966 -2.295042
  H -0.517859 -0.591460 1.773296
  H -0.616251 -1.178404 0.027895
  H -0.820879 0.616970 0.400434
  H 3.469279 1.316258 -2.189387
  H 6.044072 0.357907 -0.657238
  H 4.415362 -2.771090 -2.745770
  H 4.472426 -1.508144 -3.905275
 16
 101.109188
  C -1.013001 -0.438692 0.770875
  C 3.983654 0.079872 -0.287514
  H 3.768033 -0.169791 0.720892
  C 3.984218 0.874493 -1.277215
  C 5.214200 -0.122099 -1.076468
  C 5.344996 -1.102111 -2.055885
  C 4.268631 -1.675922 -2.834533
  H 3.284723 -1.297594 -2.574336
  H 6.345059 -1.438616 -2.279167
  H -0.892567 -0.683557 1.801728
  H -0.985199 -1.215111 0.039026
  H -1.173809 0.569663 0.458388
  H 3.644829 1.440850 -2.105656
  H 6.137738 0.229414 -0.631418
  H 4.299062 -2.761988 -2.727593
  H 4.462313 -1.521636 -3.896979
