 16
 0.000000
  C 1.012190 0.136265 0.389896
  C 2.476147 0.129805 0.382196
  C 3.220087 0.599967 1.549560
  H 2.565967 0.923617 2.355344
  C 3.120878 -0.332639 -0.771672
  C 4.513431 -0.399249 -0.941240
  C 5.104077 -0.850979 -2.076638
  H 4.553860 -1.190675 -2.942431
  H 6.178405 -0.890581 -2.165301
  H 0.595023 0.525161 1.314467
  H 0.627573 -0.871801 0.216985
  H 0.636852 0.736639 -0.443507
  H 3.881239 1.424096 1.272168
  H 3.880471 -0.187078 1.920669
  H 2.500435 -0.661577 -1.595316
  H 5.143982 -0.077958 -0.123874
 16
 0.288732
  C 1.023786 0.054994 0.404664
  C 2.481842 0.180514 0.367956
  C 3.208141 0.699430 1.525936
  H 2.542501 0.988129 2.328055
  C 3.143910 -0.220362 -0.797513
  C 4.525258 -0.455284 -0.907925
  C 5.085661 -0.898554 -2.064743
  H 4.500323 -1.038367 -2.952996
  H 6.136078 -1.120362 -2.130543
  H 0.612244 0.257970 1.386005
  H 0.724175 -0.940696 0.070130
  H 0.570638 0.742395 -0.322345
  H 3.828825 1.553343 1.241707
  H 3.911818 -0.050714 1.900480
  H 2.542926 -0.416174 -1.674611
  H 5.154600 -0.323739 -0.033870
 16
 1.993072
  C 1.044815 0.017250 0.406202
  C 2.491581 0.232833 0.360421
  C 3.198868 0.786998 1.515756
  H 2.545893 0.924446 2.373140
  C 3.164440 -0.111596 -0.814503
  C 4.505347 -0.521172 -0.890997
  C 5.071553 -0.920403 -2.059042
  H 4.549584 -0.828851 -2.998806
  H 6.064708 -1.331671 -2.087823
  H 0.640821 0.140287 1.407033
  H 0.812024 -0.982013 0.027682
  H 0.535055 0.707547 -0.272448
  H 3.649280 1.746416 1.250217
  H 4.046186 0.155796 1.795045
  H 2.584557 -0.159282 -1.730671
  H 5.074126 -0.611409 0.023341
 16
 4.908569
  C 1.078735 -0.070978 0.417375
  C 2.504229 0.264800 0.360232
  C 3.187896 0.844394 1.511970
  H 2.556885 0.891388 2.391630
  C 3.196753 -0.015392 -0.824959
  C 4.460163 -0.617095 -0.883032
  C 5.050476 -0.975141 -2.055491
  H 4.632201 -0.691409 -3.006313
  H 5.956698 -1.552234 -2.070687
  H 0.687390 -0.020572 1.433139
  H 0.934538 -1.071867 0.001991
  H 0.492641 0.602701 -0.219222
  H 3.518811 1.853660 1.258128
  H 4.112029 0.310091 1.733514
  H 2.675001 0.135705 -1.763361
  H 4.934739 -0.899025 0.047457
 16
 9.370878
  C 1.122168 -0.154335 0.431857
  C 2.518195 0.283515 0.369082
  C 3.170833 0.919845 1.508039
  H 2.543726 0.945130 2.394307
  C 3.231821 0.060655 -0.823179
  C 4.398067 -0.701706 -0.895928
  C 5.027697 -0.997670 -2.064782
  H 4.730420 -0.543301 -2.996906
  H 5.840385 -1.700202 -2.096571
  H 0.755098 -0.190460 1.453650
  H 1.040612 -1.131809 -0.043807
  H 0.473764 0.514976 -0.141398
  H 3.444276 1.941601 1.228293
  H 4.130524 0.443438 1.728014
  H 2.791423 0.408471 -1.750322
  H 4.754718 -1.157644 0.017252
 16
 15.411469
  C 1.185251 -0.247021 0.461070
  C 2.535580 0.295266 0.393355
  C 3.136146 0.996403 1.515092
  H 2.507379 1.004580 2.398327
  C 3.282027 0.111504 -0.803285
  C 4.324855 -0.793856 -0.934853
  C 4.990885 -1.019378 -2.103261
  H 4.792349 -0.437499 -2.987028
  H 5.731487 -1.793947 -2.178672
  H 0.809625 -0.289012 1.477549
  H 1.158151 -1.226205 -0.017094
  H 0.498488 0.379500 -0.121154
  H 3.357174 2.022887 1.208372
  H 4.123616 0.584075 1.746861
  H 2.957779 0.658710 -1.681376
  H 4.581692 -1.391687 -0.069486
 16
 21.434001
  C 1.269270 -0.352668 0.513727
  C 2.562560 0.289632 0.432453
  C 3.087691 1.084765 1.518700
  H 2.454595 1.084380 2.399837
  C 3.340440 0.134255 -0.769467
  C 4.245703 -0.886395 -0.995375
  C 4.937034 -1.041527 -2.166631
  H 4.823156 -0.352146 -2.983554
  H 5.614783 -1.862852 -2.304778
  H 0.889346 -0.419568 1.529197
  H 1.266339 -1.317797 0.005889
  H 0.559452 0.253385 -0.064853
  H 3.248647 2.112393 1.175669
  H 4.101410 0.755762 1.763820
  H 3.157849 0.850841 -1.561137
  H 4.412479 -1.602290 -0.200176
 16
 16.137097
  C 1.388880 -0.465133 0.542922
  C 2.619303 0.304892 0.453896
  C 3.046631 1.181822 1.535197
  H 2.392071 1.132162 2.398673
  C 3.413398 0.180270 -0.723368
  C 4.174027 -0.941452 -1.045235
  C 4.818622 -1.076029 -2.238782
  H 4.742516 -0.326557 -3.007570
  H 5.419692 -1.941053 -2.451672
  H 1.019031 -0.569245 1.558910
  H 1.455361 -1.421682 0.022398
  H 0.634712 0.086272 -0.032163
  H 3.113008 2.217992 1.187888
  H 4.074634 0.942671 1.812203
  H 3.378051 0.995478 -1.437478
  H 4.273569 -1.718993 -0.300842
 16
 9.474535
  C 1.465124 -0.538950 0.587463
  C 2.660843 0.289663 0.471092
  C 2.999992 1.257509 1.513610
  H 2.319408 1.210265 2.357007
  C 3.476852 0.175529 -0.674284
  C 4.097612 -1.005865 -1.108627
  C 4.771283 -1.072738 -2.285618
  H 4.796961 -0.239631 -2.967518
  H 5.295634 -1.965424 -2.579754
  H 1.124712 -0.656742 1.611351
  H 1.547992 -1.488295 0.062549
  H 0.673384 -0.005033 0.043372
  H 3.010503 2.273366 1.112052
  H 4.024075 1.091254 1.846472
  H 3.637776 1.070974 -1.267512
  H 4.076010 -1.863882 -0.449648
 16
 5.865280
  C 1.571454 -0.598746 0.578798
  C 2.713069 0.307886 0.496367
  C 2.935676 1.329203 1.521509
  H 2.208330 1.269519 2.324231
  C 3.573316 0.194606 -0.601480
  C 4.043551 -1.024174 -1.126317
  C 4.654195 -1.093265 -2.336689
  H 4.722495 -0.234056 -2.982953
  H 5.065058 -2.017001 -2.704765
  H 1.238537 -0.778877 1.597054
  H 1.744025 -1.509357 0.010018
  H 0.739600 -0.105351 0.061951
  H 2.909361 2.328852 1.080796
  H 3.944605 1.234397 1.926300
  H 3.902582 1.102884 -1.093016
  H 3.967778 -1.911587 -0.513674
 16
 6.220295
  C 1.654043 -0.620533 0.510174
  C 2.762967 0.333313 0.514768
  C 2.875832 1.367292 1.544802
  H 2.086073 1.294236 2.285157
  C 3.705754 0.208025 -0.503694
  C 4.042083 -1.030250 -1.102567
  C 4.517655 -1.125513 -2.366792
  H 4.574505 -0.265973 -3.014126
  H 4.784173 -2.076519 -2.793835
  H 1.321024 -0.896251 1.506592
  H 1.913607 -1.455873 -0.137468
  H 0.799117 -0.141086 0.020620
  H 2.852271 2.360314 1.089261
  H 3.850379 1.309408 2.031993
  H 4.185684 1.096471 -0.896018
  H 3.988500 -1.920480 -0.489734
