 26
 0.000000
  C 1.014041 0.112286 0.332504
  C 2.488546 0.128582 0.364392
  C 3.242185 0.603658 1.549959
  C 2.437224 1.086093 2.753747
  C 3.371683 1.535416 3.873344
  C 3.151043 -0.327617 -0.771328
  C 4.534871 -0.392609 -0.930474
  C 5.189233 -0.850633 -2.066575
  C 4.529072 -1.348108 -3.292653
  H 3.450276 -1.328161 -3.238042
  O 6.495680 -0.872424 -2.127431
  H 0.562588 0.467735 1.250346
  H 0.659465 -0.900395 0.134097
  H 0.650304 0.722541 -0.495915
  H 3.902320 1.418961 1.233207
  H 3.902915 -0.204333 1.883739
  H 1.801182 0.283438 3.130788
  H 1.800407 1.926238 2.471678
  H 4.007616 0.716507 4.202203
  H 2.797839 1.878865 4.730515
  H 4.007051 2.355103 3.545162
  H 2.528480 -0.656687 -1.589458
  H 5.153376 -0.059122 -0.109161
  H 4.870243 -2.364858 -3.491135
  H 4.867164 -0.754542 -4.142920
  H 6.950591 -0.547816 -1.328306
 26
 0.244035
  C 1.023186 0.320114 0.261693
  C 2.491509 0.210896 0.329556
  C 3.240267 0.561693 1.559668
  C 2.434132 1.058733 2.756099
  C 3.353426 1.333451 3.942520
  C 3.149809 -0.276148 -0.793158
  C 4.526483 -0.245174 -1.001439
  C 5.184329 -0.767330 -2.111727
  C 4.560363 -1.617497 -3.147488
  H 3.534662 -1.876221 -2.921699
  O 6.462489 -0.549384 -2.306498
  H 0.618459 0.971920 1.027406
  H 0.574037 -0.667161 0.393646
  H 0.716126 0.674927 -0.720088
  H 3.991304 1.320157 1.311829
  H 3.810696 -0.320837 1.871540
  H 1.695430 0.311620 3.049771
  H 1.908829 1.981158 2.502069
  H 3.876738 0.429841 4.247092
  H 2.777816 1.690206 4.792973
  H 4.092299 2.092666 3.695761
  H 2.524385 -0.669737 -1.581950
  H 5.132767 0.285864 -0.279698
  H 5.151145 -2.525854 -3.259597
  H 4.609130 -1.107185 -4.109674
  H 6.893648 0.008342 -1.632565
 26
 3.835751
  C 1.067640 0.544581 0.178007
  C 2.497495 0.221289 0.327713
  C 3.222553 0.447838 1.598539
  C 2.445370 1.089059 2.742611
  C 3.315834 1.189555 3.991805
  C 3.155378 -0.336679 -0.766644
  C 4.479408 -0.100472 -1.110195
  C 5.144291 -0.648237 -2.202760
  C 4.656912 -1.800833 -2.989801
  H 3.753913 -2.236101 -2.579665
  O 6.296903 -0.171387 -2.611492
  H 0.774016 1.348610 0.844816
  H 0.443486 -0.318416 0.419190
  H 0.863148 0.828575 -0.851820
  H 4.121790 1.042575 1.401125
  H 3.603928 -0.523510 1.935527
  H 1.562548 0.495723 2.976281
  H 2.120255 2.091691 2.461865
  H 3.636768 0.204033 4.322981
  H 2.760464 1.652305 4.804268
  H 4.201300 1.794012 3.803217
  H 2.548181 -0.923674 -1.441037
  H 5.002784 0.666525 -0.552770
  H 5.439928 -2.556213 -3.028961
  H 4.484787 -1.490650 -4.020409
  H 6.629816 0.590059 -2.101561
 26
 11.816722
  C 1.162395 0.703177 0.125987
  C 2.524811 0.201677 0.368458
  C 3.210422 0.338572 1.668178
  C 2.463666 1.075761 2.775192
  C 3.276301 1.066961 4.066289
  C 3.183814 -0.444907 -0.695349
  C 4.393879 -0.032232 -1.213130
  C 5.082723 -0.611391 -2.273857
  C 4.761789 -1.929476 -2.865558
  H 3.971814 -2.443959 -2.334325
  O 6.096259 0.000991 -2.847738
  H 0.952055 1.562948 0.754676
  H 0.402977 -0.048624 0.351819
  H 1.074456 0.978149 -0.922238
  H 4.189353 0.809606 1.511234
  H 3.451366 -0.673626 2.014202
  H 1.500846 0.598463 2.960824
  H 2.282660 2.111600 2.482835
  H 3.452648 0.049624 4.408350
  H 2.744578 1.597814 4.851992
  H 4.239050 1.552835 3.924456
  H 2.649675 -1.258912 -1.170403
  H 4.791472 0.896545 -0.822031
  H 5.659552 -2.546133 -2.866481
  H 4.481373 -1.798923 -3.910764
  H 6.312271 0.871744 -2.467365
 26
 23.274170
  C 1.315735 0.894840 0.070662
  C 2.597928 0.259278 0.392983
  C 3.202779 0.303012 1.734755
  C 2.440089 1.070092 2.810470
  C 3.156878 0.963105 4.152948
  C 3.270657 -0.469285 -0.645435
  C 4.300230 0.046728 -1.383555
  C 4.991946 -0.594496 -2.413941
  C 4.821108 -2.014238 -2.795423
  H 4.156422 -2.548850 -2.129844
  O 5.861182 0.060615 -3.159315
  H 1.187905 1.807159 0.647523
  H 0.470771 0.250108 0.330995
  H 1.268817 1.110368 -0.993375
  H 4.223108 0.703916 1.655036
  H 3.347959 -0.732669 2.064129
  H 1.431898 0.667549 2.913811
  H 2.361817 2.124269 2.539634
  H 3.228584 -0.073336 4.474969
  H 2.614567 1.514937 4.916617
  H 4.162372 1.373287 4.091722
  H 2.892159 -1.462955 -0.853704
  H 4.570295 1.077566 -1.188450
  H 5.794954 -2.501804 -2.804648
  H 4.442249 -2.070332 -3.816292
  H 5.971436 0.997888 -2.918032
 26
 18.536137
  C 1.520929 1.091800 0.046928
  C 2.726772 0.340140 0.410030
  C 3.221429 0.276433 1.798986
  C 2.422742 1.037241 2.852741
  C 3.032926 0.834678 4.235956
  C 3.419034 -0.417931 -0.580786
  C 4.220500 0.120709 -1.562447
  C 4.892230 -0.612926 -2.539492
  C 4.844145 -2.083586 -2.696973
  H 4.284742 -2.575568 -1.911562
  O 5.657392 -0.012317 -3.430026
  H 1.418133 2.016908 0.611651
  H 0.661747 0.470142 0.317171
  H 1.450476 1.276526 -1.021942
  H 4.259156 0.628085 1.799795
  H 3.293492 -0.777723 2.099758
  H 1.390311 0.687039 2.866114
  H 2.418910 2.103991 2.626350
  H 3.027155 -0.216817 4.514476
  H 2.465839 1.383259 4.984034
  H 4.060198 1.191115 4.264548
  H 3.296243 -1.492777 -0.525289
  H 4.355741 1.194594 -1.563348
  H 5.861687 -2.472171 -2.722452
  H 4.400294 -2.325665 -3.662398
  H 5.695100 0.957115 -3.339251
 26
 7.785236
  C 1.749451 1.271421 0.031350
  C 2.873774 0.412565 0.427578
  C 3.243457 0.255875 1.853428
  C 2.409226 1.023723 2.873082
  C 2.890259 0.728946 4.288923
  C 3.567069 -0.351801 -0.520817
  C 4.122556 0.133006 -1.697553
  C 4.771141 -0.656852 -2.641374
  C 4.835868 -2.135050 -2.631065
  H 4.381738 -2.576555 -1.754685
  O 5.398242 -0.113471 -3.663185
  H 1.711888 2.202530 0.589399
  H 0.836350 0.725999 0.292445
  H 1.706917 1.447685 -1.039061
  H 4.293721 0.546938 1.957034
  H 3.225909 -0.811383 2.111954
  H 1.360929 0.740172 2.789158
  H 2.487047 2.095987 2.696588
  H 2.798893 -0.332433 4.519415
  H 2.296025 1.284273 5.015621
  H 3.930416 1.018033 4.414142
  H 3.727332 -1.394635 -0.270287
  H 4.101274 1.202356 -1.858370
  H 5.876003 -2.448242 -2.708602
  H 4.336299 -2.514963 -3.522079
  H 5.365132 0.860509 -3.688204
 26
 1.469404
  C 2.024774 1.491676 0.037399
  C 3.029560 0.500396 0.447704
  C 3.252209 0.230033 1.887103
  C 2.404544 1.017855 2.880172
  C 2.725316 0.601461 4.313949
  C 3.725624 -0.271912 -0.473613
  C 4.050070 0.106349 -1.777605
  C 4.646548 -0.731229 -2.714399
  C 4.839364 -2.189177 -2.559340
  H 4.536259 -2.559050 -1.588927
  O 5.070722 -0.265770 -3.866992
  H 2.129095 2.427894 0.584910
  H 1.042068 1.096174 0.311690
  H 2.012765 1.664653 -1.033791
  H 4.311856 0.409986 2.104065
  H 3.108806 -0.841044 2.070128
  H 1.343424 0.843084 2.689763
  H 2.594978 2.088157 2.777265
  H 2.517047 -0.455545 4.468858
  H 2.121497 1.169579 5.018434
  H 3.774350 0.782061 4.547566
  H 4.107761 -1.218975 -0.117224
  H 3.872975 1.134440 -2.067740
  H 5.883474 -2.436858 -2.746144
  H 4.264944 -2.700622 -3.332411
  H 4.944738 0.693623 -3.994374
 26
 2.765160
  C 2.178316 1.486701 -0.000406
  C 3.200088 0.543663 0.475808
  C 3.318182 0.232473 1.922567
  C 2.426771 1.023326 2.873356
  C 2.610765 0.546999 4.310570
  C 4.008574 -0.140164 -0.411028
  C 4.213573 0.185056 -1.763677
  C 4.568426 -0.744619 -2.730967
  C 4.535879 -2.208825 -2.526115
  H 4.125979 -2.486043 -1.563441
  O 4.894789 -0.384055 -3.951535
  H 2.122863 2.376771 0.623484
  H 1.202651 0.999622 0.069692
  H 2.330449 1.740317 -1.043942
  H 4.364694 0.356190 2.220534
  H 3.110550 -0.835525 2.060566
  H 1.379208 0.906686 2.593617
  H 2.674864 2.084642 2.823483
  H 2.336935 -0.500892 4.411730
  H 1.983984 1.124806 4.985726
  H 3.643917 0.662766 4.629544
  H 4.557854 -0.988719 -0.022230
  H 4.195060 1.229831 -2.047032
  H 5.546634 -2.605847 -2.628518
  H 3.949860 -2.667570 -3.321766
  H 4.944695 0.578405 -4.096571
 26
 9.623748
  C 2.318275 1.339329 -0.070637
  C 3.336218 0.457904 0.529447
  C 3.399179 0.217730 1.990540
  C 2.420435 1.012661 2.846676
  C 2.526069 0.606659 4.313400
  C 4.207164 -0.179981 -0.317487
  C 4.418623 0.209975 -1.673254
  C 4.525666 -0.696247 -2.711919
  C 4.164441 -2.127353 -2.578393
  H 3.758653 -2.355930 -1.600047
  O 4.866013 -0.334812 -3.929910
  H 2.114835 2.224645 0.519261
  H 1.381167 0.787000 -0.185349
  H 2.634358 1.549962 -1.091497
  H 4.422095 0.401374 2.335582
  H 3.222277 -0.849424 2.165692
  H 1.398706 0.842744 2.504126
  H 2.634702 2.080639 2.763725
  H 2.283718 -0.445606 4.444748
  H 1.836774 1.188528 4.919633
  H 3.531091 0.775152 4.691869
  H 4.811417 -0.995757 0.064401
  H 4.749380 1.224949 -1.844041
  H 5.051983 -2.733183 -2.763516
  H 3.447545 -2.399252 -3.350958
  H 5.128668 0.599200 -4.022759
 26
 20.345144
  C 2.439752 1.163229 -0.117766
  C 3.430923 0.329477 0.588839
  C 3.456677 0.177229 2.066337
  C 2.424237 1.001660 2.828523
  C 2.471128 0.689916 4.320734
  C 4.339202 -0.274567 -0.229999
  C 4.484017 0.213958 -1.588753
  C 4.455432 -0.626411 -2.688482
  C 3.948903 -2.015751 -2.611347
  H 3.562119 -2.247390 -1.625572
  O 4.781743 -0.225412 -3.897431
  H 2.140179 2.063205 0.397875
  H 1.564972 0.592654 -0.439326
  H 2.931232 1.270221 -1.111344
  H 4.458688 0.412218 2.436161
  H 3.292127 -0.882206 2.294052
  H 1.423258 0.786089 2.451034
  H 2.621336 2.066029 2.688274
  H 2.244530 -0.357943 4.506616
  H 1.743830 1.292774 4.859297
  H 3.456166 0.903582 4.730977
  H 5.009069 -1.046994 0.119499
  H 5.054418 1.130867 -1.681909
  H 4.761097 -2.699985 -2.860131
  H 3.179524 -2.177964 -3.365356
  H 5.124400 0.685633 -3.951946
 26
 34.104619
  C 2.557683 1.077954 -0.127198
  C 3.510078 0.259355 0.630976
  C 3.488937 0.140381 2.120630
  C 2.431812 0.991400 2.819681
  C 2.419579 0.719467 4.318812
  C 4.426045 -0.336584 -0.165095
  C 4.473110 0.234094 -1.523541
  C 4.387430 -0.585438 -2.658146
  C 3.840357 -1.955954 -2.587350
  H 3.477506 -2.189880 -1.592575
  O 4.706235 -0.169457 -3.859864
  H 2.228709 2.002802 0.319268
  H 1.758262 0.545413 -0.641452
  H 3.238367 1.051948 -1.175977
  H 4.475591 0.387312 2.520087
  H 3.308656 -0.911877 2.363963
  H 1.445892 0.768586 2.409194
  H 2.639724 2.050354 2.659282
  H 2.182900 -0.322436 4.521971
  H 1.674972 1.337631 4.813129
  H 3.388976 0.940792 4.759535
  H 5.138784 -1.077160 0.153637
  H 5.162966 1.070809 -1.607929
  H 4.617941 -2.665721 -2.869621
  H 3.045364 -2.082040 -3.321980
  H 5.068105 0.735251 -3.911127
 26
 40.819923
  C 2.501205 1.052972 -0.082067
  C 3.491313 0.288634 0.633188
  C 3.500603 0.164622 2.130423
  C 2.419537 0.965433 2.852177
  C 2.447608 0.685455 4.350480
  C 4.431791 -0.274182 -0.159816
  C 4.444592 0.291662 -1.542297
  C 4.391248 -0.598339 -2.658310
  C 3.854164 -1.962565 -2.524048
  H 3.466250 -2.142104 -1.527645
  O 4.744059 -0.242805 -3.858572
  H 2.119511 1.960978 0.357322
  H 1.782322 0.527512 -0.694162
  H 3.433041 0.955143 -1.375504
  H 4.480860 0.455851 2.514736
  H 3.370865 -0.895567 2.368083
  H 1.436246 0.700705 2.457400
  H 2.577141 2.033713 2.693402
  H 2.261233 -0.367457 4.551284
  H 1.685319 1.267781 4.862606
  H 3.415010 0.947446 4.773977
  H 5.172829 -0.983067 0.164472
  H 5.172774 1.099830 -1.644615
  H 4.640251 -2.685825 -2.744515
  H 3.081207 -2.134180 -3.272902
  H 5.100883 0.661463 -3.949629
 26
 36.868744
  C 2.312519 1.060390 -0.009051
  C 3.383189 0.377569 0.597301
  C 3.489887 0.227018 2.098868
  C 2.399943 0.923940 2.907995
  C 2.545526 0.611908 4.392286
  C 4.364852 -0.136305 -0.200239
  C 4.419722 0.356226 -1.611151
  C 4.453865 -0.651550 -2.654430
  C 3.905127 -1.993039 -2.425302
  H 3.418346 -2.065257 -1.459547
  O 4.921762 -0.415798 -3.830881
  H 1.822697 1.867379 0.509664
  H 1.727273 0.600042 -0.779971
  H 3.477270 0.969516 -1.646160
  H 4.465618 0.585628 2.435168
  H 3.453838 -0.844416 2.311220
  H 1.416231 0.593223 2.567834
  H 2.465002 2.003976 2.769753
  H 2.453285 -0.457642 4.573916
  H 1.775346 1.120655 4.966334
  H 3.515658 0.939211 4.762180
  H 5.133805 -0.788681 0.168838
  H 5.198067 1.117547 -1.724912
  H 4.706450 -2.733407 -2.482457
  H 3.217008 -2.253435 -3.228322
  H 5.284122 0.480035 -3.989289
 26
 32.082983
  C 2.127497 0.914252 0.042194
  C 3.265955 0.374817 0.593004
  C 3.477336 0.283543 2.091065
  C 2.373146 0.877815 2.954436
  C 2.665355 0.654633 4.437815
  C 4.294622 -0.088352 -0.215698
  C 4.414761 0.370491 -1.627794
  C 4.496328 -0.678163 -2.643070
  C 3.961681 -2.014103 -2.381847
  H 3.476824 -2.067464 -1.415028
  O 5.030269 -0.482945 -3.792996
  H 1.451220 1.507758 0.626928
  H 1.762537 0.612185 -0.919444
  H 3.532233 1.020745 -1.789333
  H 4.423606 0.760346 2.352093
  H 3.578243 -0.776126 2.335853
  H 1.418581 0.415972 2.706564
  H 2.293457 1.952340 2.769990
  H 2.713131 -0.407116 4.666788
  H 1.885917 1.098135 5.050829
  H 3.614600 1.107441 4.717008
  H 5.075907 -0.713061 0.189129
  H 5.247425 1.081433 -1.714712
  H 4.761753 -2.754828 -2.435916
  H 3.266370 -2.292788 -3.179944
  H 5.396940 0.408888 -3.972548
