 10
 0.000000
  H 1.432764 -0.077174 0.036554
  C 2.507684 -0.082992 0.025136
  C 3.217816 -0.593333 -0.976751
  C 4.661965 -0.607917 -1.005381
  C 5.370907 -1.118999 -2.008720
  H 6.445815 -1.126148 -2.022751
  H 3.001565 0.352341 0.879767
  H 2.707957 -1.026886 -1.827880
  H 5.168191 -0.173541 -0.152631
  H 4.871579 -1.553230 -2.861187
 10
 0.954258
  H 1.420735 -0.120523 -0.048550
  C 2.492838 -0.075829 0.039200
  C 3.255613 -0.568041 -0.927092
  C 4.713619 -0.599580 -0.989015
  C 5.368288 -1.128505 -2.027389
  H 6.446066 -1.175611 -2.119861
  H 2.849456 0.389743 0.953190
  H 2.768542 -1.009547 -1.793843
  H 5.247375 -0.170117 -0.145903
  H 4.823610 -1.549897 -2.854637
 10
 3.966020
  H 1.407535 -0.161802 -0.129580
  C 2.470237 -0.067683 0.055197
  C 3.299884 -0.544154 -0.880188
  C 4.776813 -0.593507 -0.977063
  C 5.375674 -1.133401 -2.036985
  H 6.435376 -1.222808 -2.212548
  H 2.676528 0.420704 1.013949
  H 2.834229 -0.985625 -1.746908
  H 5.334569 -0.178126 -0.161621
  H 4.764738 -1.546078 -2.847132
 10
 9.264586
  H 1.405102 -0.191280 -0.187451
  C 2.448871 -0.058274 0.073674
  C 3.318913 -0.519116 -0.831039
  C 4.825229 -0.590521 -0.971187
  C 5.381308 -1.143677 -2.057134
  H 6.447372 -1.273509 -2.312108
  H 2.516978 0.436028 1.044024
  H 2.856059 -0.967583 -1.711505
  H 5.416162 -0.180860 -0.166986
  H 4.733934 -1.533745 -2.822919
 10
 17.641190
  H 1.393081 -0.219112 -0.242090
  C 2.421337 -0.048067 0.093715
  C 3.336457 -0.495669 -0.785005
  C 4.873687 -0.591533 -0.973161
  C 5.392934 -1.152971 -2.075375
  H 6.460574 -1.318401 -2.400238
  H 2.357413 0.454434 1.080141
  H 2.889608 -0.946484 -1.670083
  H 5.491517 -0.184260 -0.173665
  H 4.697160 -1.535815 -2.827005
 10
 29.218245
  H 1.374404 -0.227891 -0.258546
  C 2.379682 -0.037924 0.113452
  C 3.318544 -0.479256 -0.752607
  C 4.915891 -0.599791 -0.988918
  C 5.417291 -1.164979 -2.099092
  H 6.495018 -1.352170 -2.466960
  H 2.236273 0.472569 1.115008
  H 2.885698 -0.933144 -1.644474
  H 5.539793 -0.196345 -0.196965
  H 4.703075 -1.539740 -2.834508
 10
 42.939712
  H 1.365410 -0.234663 -0.272347
  C 2.340570 -0.026730 0.135553
  C 3.297917 -0.462306 -0.719445
  C 4.964662 -0.607084 -1.003444
  C 5.445147 -1.177111 -2.122774
  H 6.513719 -1.386357 -2.533842
  H 2.102012 0.484654 1.139129
  H 2.876519 -0.918337 -1.615144
  H 5.589897 -0.211628 -0.227251
  H 4.716383 -1.542876 -2.840788
 10
 58.578173
  H 1.318579 -0.234542 -0.272359
  C 2.290417 -0.015417 0.157775
  C 3.256270 -0.447405 -0.690292
  C 5.013638 -0.620424 -1.029825
  C 5.479291 -1.191609 -2.151233
  H 6.554277 -1.413515 -2.587029
  H 2.005699 0.496049 1.161758
  H 2.851656 -0.905619 -1.590040
  H 5.641572 -0.222945 -0.249566
  H 4.738755 -1.554892 -2.864366
 10
 75.141500
  H 1.251659 -0.224645 -0.252918
  C 2.227568 -0.005365 0.177503
  C 3.189654 -0.439205 -0.674196
  C 5.070025 -0.635455 -1.059340
  C 5.527400 -1.208114 -2.183645
  H 6.602553 -1.432107 -2.623523
  H 1.941155 0.507875 1.184972
  H 2.787922 -0.895860 -1.570886
  H 5.699078 -0.239092 -0.281265
  H 4.786950 -1.568662 -2.891399
 10
 90.820692
  H 1.180361 -0.216254 -0.236534
  C 2.159917 0.005988 0.199797
  C 3.119081 -0.421592 -0.639639
  C 5.132173 -0.655786 -1.099313
  C 5.569537 -1.225431 -2.217634
  H 6.644736 -1.447870 -2.654413
  H 1.879535 0.515178 1.199394
  H 2.760162 -0.884005 -1.547540
  H 5.741945 -0.254912 -0.312372
  H 4.829891 -1.585915 -2.925294
 10
 104.711126
  H 1.107213 -0.203475 -0.211492
  C 2.089974 0.016047 0.219554
  C 3.044811 -0.411572 -0.619975
  C 5.193289 -0.673146 -1.133423
  C 5.620424 -1.243042 -2.252203
  H 6.693836 -1.463315 -2.684713
  H 1.824177 0.524098 1.216951
  H 2.698957 -0.873797 -1.527461
  H 5.799446 -0.270793 -0.343578
  H 4.881056 -1.602693 -2.958239
 10
 115.751662
  H 1.021088 -0.190805 -0.186555
  C 2.008243 0.027048 0.241139
  C 2.961437 -0.389536 -0.576715
  C 5.275885 -0.694096 -1.174552
  C 5.670194 -1.261409 -2.288288
  H 6.722649 -1.475419 -2.708496
  H 1.773528 0.522405 1.213611
  H 2.677981 -0.861892 -1.504127
  H 5.857250 -0.286063 -0.373528
  H 4.923436 -1.622014 -2.996128
 10
 124.443723
  H 0.935643 -0.177088 -0.159551
  C 1.933003 0.035426 0.257580
  C 2.882337 -0.379992 -0.557970
  C 5.342847 -0.712591 -1.210832
  C 5.724515 -1.280088 -2.324969
  H 6.769500 -1.489580 -2.736323
  H 1.728177 0.531077 1.230600
  H 2.621048 -0.851302 -1.483370
  H 5.916309 -0.303084 -0.406923
  H 4.980961 -1.637578 -3.026664
 10
 130.257360
  H 0.835820 -0.160833 -0.127714
  C 1.844587 0.041579 0.269670
  C 2.798311 -0.365667 -0.529855
  C 5.422737 -0.730923 -1.246856
  C 5.777872 -1.298663 -2.361406
  H 6.809115 -1.502911 -2.762428
  H 1.694165 0.536255 1.240840
  H 2.597940 -0.842727 -1.466445
  H 5.976422 -0.316605 -0.433530
  H 5.026877 -1.653227 -3.057441
