 23
 0.000000
  C 0.926252 0.047155 0.300007
  C 2.412267 0.060780 0.058567
  C 3.233513 -0.010705 1.325537
  H 2.583531 -0.059722 2.194235
  C 3.004069 0.128873 -1.148158
  C 2.358655 0.206169 -2.518011
  C 0.844467 0.216005 -2.692274
  H 0.627412 0.276167 -3.758472
  C 4.461664 0.133426 -1.228814
  C 5.207814 0.195621 -2.331168
  O 6.566771 0.195884 -2.335810
  H 0.720938 -0.013004 1.366093
  H 0.453082 -0.809658 -0.172695
  H 0.453080 0.951707 -0.073304
  H 3.871594 0.865677 1.435604
  H 3.871634 -0.893931 1.336316
  H 2.747972 -0.641508 -3.091739
  H 2.747976 1.113007 -2.992742
  H 0.386979 1.074369 -2.212149
  H 0.386966 -0.690936 -2.311747
  H 5.001168 0.080647 -0.293432
  H 4.833340 0.252529 -3.339736
  H 6.895067 0.144705 -1.428719
 23
 7.194388
  C 0.805823 0.045731 0.325200
  C 2.448209 0.061108 0.052729
  C 3.261410 -0.010338 1.318998
  H 2.608180 -0.059250 2.185796
  C 3.031374 0.129128 -1.152695
  C 2.378855 0.206199 -2.518547
  C 0.864456 0.215427 -2.682043
  H 0.639372 0.275483 -3.746374
  C 4.489355 0.134045 -1.239809
  C 5.231345 0.196524 -2.347176
  O 6.589975 0.197150 -2.358256
  H 0.610308 -0.014424 1.391223
  H 0.336445 -0.810447 -0.146013
  H 0.336444 0.949486 -0.046702
  H 3.898566 0.866488 1.431155
  H 3.898588 -0.894221 1.331802
  H 2.764749 -0.641470 -3.094563
  H 2.764751 1.113284 -2.995550
  H 0.410551 1.073818 -2.198426
  H 0.410543 -0.691924 -2.298054
  H 5.033209 0.081397 -0.306744
  H 4.852121 0.253338 -3.354075
  H 6.922687 0.146057 -1.452691
 23
 22.486870
  C 0.697012 0.044830 0.341179
  C 2.495942 0.061892 0.038798
  C 3.264932 -0.010089 1.314513
  H 2.588371 -0.058068 2.164748
  C 3.062572 0.129649 -1.161965
  C 2.398512 0.206258 -2.519615
  C 0.884502 0.213942 -2.655756
  H 0.638428 0.273729 -3.715349
  C 4.521862 0.134995 -1.256641
  C 5.255380 0.197667 -2.367425
  O 6.612346 0.198786 -2.387248
  H 0.530069 -0.015356 1.407735
  H 0.245747 -0.812409 -0.131249
  H 0.245749 0.949777 -0.031809
  H 3.898170 0.867723 1.442503
  H 3.898172 -0.896715 1.342937
  H 2.776849 -0.641601 -3.100509
  H 2.776853 1.114088 -3.001448
  H 0.440714 1.071994 -2.162576
  H 0.440713 -0.694141 -2.262231
  H 5.071408 0.082504 -0.326365
  H 4.869293 0.254334 -3.371778
  H 6.951513 0.147824 -1.483952
 23
 39.295067
  C 0.578248 0.042436 0.383652
  C 2.531075 0.062040 0.036224
  C 3.275112 -0.010795 1.327025
  H 2.585554 -0.058140 2.166052
  C 3.087569 0.130677 -1.180148
  C 2.417787 0.207204 -2.536353
  C 0.902252 0.214005 -2.656844
  H 0.643105 0.273630 -3.713540
  C 4.549483 0.136114 -1.276456
  C 5.282257 0.199002 -2.391062
  O 6.640621 0.200315 -2.414303
  H 0.449771 -0.018077 1.455987
  H 0.139806 -0.822198 -0.089991
  H 0.139808 0.954865 0.010290
  H 3.906319 0.868247 1.465470
  H 3.906331 -0.899830 1.365702
  H 2.792324 -0.640844 -3.119688
  H 2.792320 1.115479 -3.020581
  H 0.465318 1.071648 -2.157626
  H 0.465313 -0.694358 -2.257269
  H 5.099438 0.083572 -0.345248
  H 4.893352 0.255620 -3.394540
  H 6.982859 0.149414 -1.512123
 23
 56.047773
  C 0.471155 0.042792 0.377313
  C 2.580858 0.063970 0.002006
  C 3.292177 -0.009212 1.298963
  H 2.587018 -0.055811 2.124716
  C 3.113800 0.131026 -1.186347
  C 2.432144 0.206743 -2.528228
  C 0.914880 0.211259 -2.608247
  H 0.625004 0.270410 -3.656578
  C 4.572973 0.136476 -1.282895
  C 5.300303 0.199126 -2.393284
  O 6.656274 0.200544 -2.418390
  H 0.370514 -0.017710 1.449480
  H 0.051743 -0.824716 -0.100910
  H 0.051744 0.958595 -0.000279
  H 3.920558 0.870044 1.448287
  H 3.920564 -0.899677 1.348426
  H 2.796504 -0.641171 -3.117543
  H 2.796508 1.115573 -3.018422
  H 0.492431 1.068419 -2.094615
  H 0.492435 -0.698229 -2.194303
  H 5.121634 0.083906 -0.351177
  H 4.909317 0.255673 -3.395520
  H 7.000107 0.149696 -1.517100
 23
 69.423362
  C 0.355597 0.039539 0.434971
  C 2.612107 0.065274 -0.021096
  C 3.252975 -0.009805 1.309473
  H 2.519124 -0.054839 2.107481
  C 3.132620 0.133615 -1.232224
  C 2.455801 0.209043 -2.568978
  C 0.934636 0.210896 -2.601771
  H 0.601358 0.269299 -3.636763
  C 4.598160 0.138115 -1.311936
  C 5.321184 0.199973 -2.408273
  O 6.677665 0.201423 -2.433966
  H 0.404130 -0.020958 1.507035
  H 0.002054 -0.847504 -0.056526
  H 0.002057 0.976242 0.046391
  H 3.877203 0.869663 1.483955
  H 3.877200 -0.903303 1.383902
  H 2.812971 -0.639727 -3.161019
  H 2.812976 1.119027 -3.061780
  H 0.536207 1.067218 -2.065943
  H 0.536199 -0.700274 -2.165667
  H 5.126532 0.084994 -0.370464
  H 4.925971 0.256439 -3.409060
  H 7.022609 0.150577 -1.532748
