 22
 0.000000
  C 0.998446 0.128302 0.372021
  C 2.466513 0.141366 0.403676
  C 3.226053 0.612415 1.574592
  C 2.444240 1.099724 2.787320
  C 3.390329 1.546186 3.898247
  C 3.131908 -0.317501 -0.738021
  C 4.528473 -0.390652 -0.922131
  C 5.062166 -0.855381 -2.080236
  H 4.435965 -1.181948 -2.892629
  H 6.127153 -0.914158 -2.227814
  H 0.541475 0.494495 1.282487
  H 0.641688 -0.885287 0.169648
  H 0.641476 0.719653 -0.475557
  H 3.901582 1.414191 1.246086
  H 3.901921 -0.193328 1.892313
  H 1.805874 0.301417 3.171623
  H 1.805765 1.941945 2.512430
  H 4.026503 0.726786 4.224380
  H 2.825004 1.892188 4.759583
  H 4.026430 2.363562 3.566648
  H 2.521137 -0.651494 -1.568248
  H 5.190398 -0.072128 -0.129667
 22
 9.343180
  C 0.972754 0.141234 0.404177
  C 2.426873 0.159627 0.449162
  C 3.194096 0.623173 1.601456
  C 2.424990 1.113786 2.822326
  C 3.385770 1.555631 3.921743
  C 3.170257 -0.351062 -0.821483
  C 4.556826 -0.415764 -0.984784
  C 5.110009 -0.878891 -2.138791
  H 4.496830 -1.209437 -2.960814
  H 6.176366 -0.931413 -2.270952
  H 0.508471 0.506236 1.311713
  H 0.621339 -0.873232 0.197760
  H 0.621139 0.730439 -0.446949
  H 3.870428 1.421136 1.265145
  H 3.870791 -0.185261 1.910901
  H 1.787985 0.318316 3.213442
  H 1.787942 1.958677 2.554282
  H 4.021879 0.733039 4.240495
  H 2.831827 1.904267 4.789525
  H 4.021795 2.370120 3.582591
  H 2.558874 -0.683041 -1.646643
  H 5.205908 -0.093351 -0.182816
 22
 27.751878
  C 0.921520 0.144088 0.411306
  C 2.354534 0.180138 0.500342
  C 3.165008 0.624632 1.605521
  C 2.431261 1.121954 2.842548
  C 3.426083 1.552537 3.913813
  C 3.175399 -0.382411 -0.899530
  C 4.549069 -0.419952 -0.995841
  C 5.160256 -0.869813 -2.116525
  H 4.591255 -1.212945 -2.969584
  H 6.230643 -0.901119 -2.195669
  H 0.434363 0.504832 1.308922
  H 0.586915 -0.868736 0.190745
  H 0.586666 0.722493 -0.448887
  H 3.840445 1.408450 1.244965
  H 3.840897 -0.190609 1.887770
  H 1.796883 0.330916 3.241611
  H 1.797139 1.969209 2.583020
  H 4.061331 0.722319 4.215063
  H 2.899606 1.907427 4.796414
  H 4.061341 2.359891 3.556642
  H 2.541884 -0.704798 -1.700341
  H 5.154580 -0.087690 -0.169336
 22
 48.751228
  C 0.889842 0.158701 0.447750
  C 2.315091 0.198103 0.545209
  C 3.139158 0.636236 1.634652
  C 2.411892 1.138815 2.884519
  C 3.415686 1.566667 3.949074
  C 3.208232 -0.417405 -0.986493
  C 4.582779 -0.447766 -1.065104
  C 5.226412 -0.903702 -2.201035
  H 4.674474 -1.248844 -3.059234
  H 6.299936 -0.928807 -2.264859
  H 0.397853 0.519976 1.346834
  H 0.556837 -0.859508 0.223403
  H 0.556659 0.738399 -0.418770
  H 3.817257 1.418908 1.265165
  H 3.817459 -0.184282 1.909597
  H 1.777103 0.348603 3.289632
  H 1.777460 1.989776 2.629801
  H 4.050265 0.734704 4.245679
  H 2.896754 1.923107 4.835294
  H 4.050642 2.372129 3.587207
  H 2.559885 -0.736656 -1.779414
  H 5.178224 -0.110548 -0.226294
 22
 68.476985
  C 0.821820 0.155408 0.439489
  C 2.238786 0.212988 0.582374
  C 3.109477 0.637470 1.638356
  C 2.426203 1.152379 2.918774
  C 3.470841 1.567522 3.950715
  C 3.212070 -0.453688 -1.077277
  C 4.565431 -0.454969 -1.083147
  C 5.285380 -0.894229 -2.177312
  H 4.795624 -1.250299 -3.062457
  H 6.360599 -0.892104 -2.173409
  H 0.294758 0.511117 1.325421
  H 0.508830 -0.870295 0.198778
  H 0.508597 0.729527 -0.443718
  H 3.788248 1.410589 1.241496
  H 3.788214 -0.195190 1.886712
  H 1.794549 0.368613 3.344877
  H 1.794703 2.013069 2.683527
  H 4.102714 0.727573 4.228619
  H 2.983971 1.930468 4.853012
  H 4.103008 2.365841 3.569343
  H 2.527221 -0.760416 -1.839322
  H 5.110101 -0.105311 -0.213571
 22
 87.015444
  C 0.799001 0.175616 0.489636
  C 2.205187 0.232967 0.631784
  C 3.074801 0.649278 1.667434
  C 2.405268 1.163143 2.945813
  C 3.456943 1.574108 3.967084
  C 3.250249 -0.486740 -1.159959
  C 4.617120 -0.484409 -1.156489
  C 5.342035 -0.917138 -2.233963
  H 4.859325 -1.276560 -3.127047
  H 6.416001 -0.910551 -2.218837
  H 0.270917 0.530733 1.374268
  H 0.489280 -0.844445 0.249066
  H 0.488883 0.745762 -0.389593
  H 3.750167 1.416197 1.266598
  H 3.750410 -0.181657 1.908514
  H 1.776792 0.382998 3.373651
  H 1.776626 2.022199 2.714552
  H 4.088835 0.731981 4.239489
  H 2.978277 1.938200 4.872526
  H 4.088559 2.370331 3.580328
  H 2.555440 -0.790285 -1.914279
  H 5.153443 -0.134895 -0.287410
 22
 102.955161
  C 0.759006 0.183993 0.510446
  C 2.167055 0.246786 0.666076
  C 3.052627 0.662560 1.700414
  C 2.394027 1.182206 2.993598
  C 3.458537 1.590042 4.006693
  C 3.293646 -0.523866 -1.252894
  C 4.635384 -0.512078 -1.225324
  C 5.394799 -0.943325 -2.298842
  H 4.935478 -1.306251 -3.200673
  H 6.468740 -0.927265 -2.259774
  H 0.217121 0.537597 1.391520
  H 0.455652 -0.840429 0.264427
  H 0.455172 0.753571 -0.375665
  H 3.730271 1.427940 1.291099
  H 3.730662 -0.173018 1.934119
  H 1.765260 0.402138 3.427642
  H 1.764813 2.045335 2.767044
  H 4.090117 0.745771 4.273327
  H 2.989265 1.956007 4.917097
  H 4.089555 2.384172 3.614211
  H 2.591604 -0.823256 -1.997172
  H 5.152847 -0.157446 -0.343246
 22
 115.950291
  C 0.732811 0.203142 0.558021
  C 2.130008 0.265679 0.713309
  C 3.015374 0.673541 1.728092
  C 2.374930 1.195155 3.025973
  C 3.451137 1.597248 4.024551
  C 3.327685 -0.558107 -1.338120
  C 4.681175 -0.540407 -1.295868
  C 5.453304 -0.964259 -2.351001
  H 5.009380 -1.329358 -3.258038
  H 6.524762 -0.941087 -2.294515
  H 0.185574 0.555659 1.436413
  H 0.433649 -0.820181 0.309799
  H 0.433269 0.770514 -0.328890
  H 3.690963 1.433139 1.311141
  H 3.691303 -0.163192 1.952469
  H 1.748671 0.418595 3.464969
  H 1.748170 2.059141 2.805332
  H 4.081773 0.750229 4.283701
  H 2.993905 1.965166 4.939629
  H 4.081086 2.388180 3.624673
  H 2.611628 -0.853849 -2.073338
  H 5.187896 -0.184017 -0.409760
 22
 126.273293
  C 0.691165 0.213364 0.583434
  C 2.092510 0.279584 0.748055
  C 2.990296 0.687868 1.763985
  C 2.363426 1.214421 3.074081
  C 3.452188 1.612832 4.063208
  C 3.371705 -0.595217 -1.430576
  C 4.701832 -0.568610 -1.365939
  C 5.508545 -0.989803 -2.414614
  H 5.087357 -1.359503 -3.333272
  H 6.579635 -0.956484 -2.332904
  H 0.129915 0.563915 1.456876
  H 0.399050 -0.811800 0.330261
  H 0.398727 0.778634 -0.308362
  H 3.667132 1.444797 1.339313
  H 3.667442 -0.152292 1.980977
  H 1.737672 0.438981 3.518741
  H 1.737089 2.081449 2.858272
  H 4.082298 0.763269 4.316675
  H 3.004750 1.982685 4.983063
  H 4.081470 2.401736 3.657376
  H 2.648944 -0.886269 -2.154377
  H 5.188689 -0.207972 -0.469198
 22
 134.026495
  C 0.665439 0.234393 0.635880
  C 2.058354 0.297848 0.793615
  C 2.951832 0.700616 1.795947
  C 2.341760 1.228918 3.110355
  C 3.441121 1.622276 4.086572
  C 3.407444 -0.630122 -1.518158
  C 4.752216 -0.599262 -1.442422
  C 5.568286 -1.013588 -2.473638
  H 5.160866 -1.383989 -3.394055
  H 6.636104 -0.974512 -2.377167
  H 0.101088 0.584048 1.507338
  H 0.375988 -0.790275 0.381385
  H 0.375628 0.798508 -0.256370
  H 3.626693 1.452817 1.364700
  H 3.627003 -0.140665 2.004915
  H 1.717944 0.456140 3.559841
  H 1.717244 2.097288 2.899813
  H 4.070149 0.770328 4.333340
  H 3.004764 1.993828 5.010571
  H 4.069170 2.408354 3.674142
  H 2.672658 -0.918607 -2.235907
  H 5.231073 -0.236920 -0.541334
 22
 139.666327
  C 0.625266 0.247867 0.669532
  C 2.025584 0.312670 0.830372
  C 2.926440 0.718419 1.840076
  C 2.325215 1.249707 3.162244
  C 3.432209 1.640653 4.132252
  C 3.456722 -0.666107 -1.608378
  C 4.784955 -0.631092 -1.521715
  C 5.623801 -1.044441 -2.550105
  H 5.228660 -1.418617 -3.480091
  H 6.693035 -0.999517 -2.438600
  H 0.051192 0.595940 1.537245
  H 0.340767 -0.777811 0.412181
  H 0.340188 0.810733 -0.225489
  H 3.602238 1.469506 1.404439
  H 3.602657 -0.125009 2.044976
  H 1.701934 0.477639 3.614965
  H 1.701036 2.119663 2.954650
  H 4.060911 0.786946 4.375418
  H 3.002040 2.013312 5.059295
  H 4.059702 2.425661 3.716069
  H 2.722327 -0.952763 -2.321837
  H 5.250318 -0.266307 -0.614360
 22
 143.737811
  C 0.602691 0.271106 0.727487
  C 1.997393 0.331777 0.878009
  C 2.891419 0.734512 1.880168
  C 2.298806 1.265919 3.202810
  C 3.410738 1.654318 4.166209
  C 3.497567 -0.700394 -1.694294
  C 4.842245 -0.664929 -1.606013
  C 5.680418 -1.073957 -2.623348
  H 5.290425 -1.446927 -3.550508
  H 6.746561 -1.027372 -2.507288
  H 0.030237 0.619114 1.595003
  H 0.317882 -0.754258 0.470826
  H 0.317395 0.834236 -0.166753
  H 3.565694 1.483262 1.441728
  H 3.566205 -0.109077 2.081353
  H 1.676390 0.494797 3.657506
  H 1.675285 2.136444 2.997338
  H 4.038802 0.799559 4.405945
  H 2.986082 2.027671 5.095121
  H 4.037419 2.437890 3.746795
  H 2.757415 -0.986877 -2.407643
  H 5.305965 -0.299508 -0.696867
 22
 146.561774
  C 0.567591 0.287990 0.769729
  C 1.969417 0.348516 0.919946
  C 2.866987 0.754853 1.931057
  C 2.276353 1.287827 3.257398
  C 3.390432 1.675727 4.219317
  C 3.550178 -0.734690 -1.780102
  C 4.883927 -0.698955 -1.690742
  C 5.732124 -1.108760 -2.709952
  H 5.344477 -1.484110 -3.643402
  H 6.800984 -1.060481 -2.589290
  H -0.009772 0.635385 1.635764
  H 0.284880 -0.737966 0.511979
  H 0.284408 0.850891 -0.125723
  H 3.542304 1.503772 1.491449
  H 3.542746 -0.089690 2.131611
  H 1.653948 0.516774 3.712628
  H 1.652816 2.158620 3.052261
  H 4.018451 0.820371 4.458294
  H 2.967214 2.049482 5.149122
  H 4.017002 2.459160 3.798876
  H 2.814317 -1.021246 -2.494068
  H 5.341683 -0.332749 -0.779297
 22
 148.488638
  C 0.546092 0.312470 0.830808
  C 1.944292 0.369171 0.971624
  C 2.834815 0.774058 1.979145
  C 2.246479 1.306496 3.303966
  C 3.361376 1.693752 4.264086
  C 3.594136 -0.767410 -1.861949
  C 4.940661 -0.733527 -1.776978
  C 5.782939 -1.141486 -2.791404
  H 5.394663 -1.514861 -3.719983
  H 6.849463 -1.094118 -2.672693
  H -0.028118 0.660141 1.697493
  H 0.262045 -0.713145 0.574256
  H 0.261669 0.876019 -0.063511
  H 3.509242 1.521940 1.539242
  H 3.509644 -0.069976 2.178878
  H 1.624111 0.535390 3.759114
  H 1.622944 2.177215 3.098637
  H 3.989129 0.838272 4.502241
  H 2.939375 2.067650 5.194136
  H 3.987663 2.476725 3.842877
  H 2.856051 -1.054732 -2.578178
  H 5.400914 -0.367409 -0.865670
