 15
 0.000000
  C 0.876375 0.044111 0.353963
  C 2.341281 0.062154 0.034152
  H 2.987349 0.013231 0.901239
  C 2.928543 0.129080 -1.151887
  C 2.382032 0.207695 -2.545106
  C 0.873931 0.219460 -2.753581
  H 0.661806 0.279527 -3.818120
  H 4.013057 0.129833 -1.165224
  H 0.725587 -0.016610 1.430026
  H 0.385037 -0.816902 -0.094155
  H 0.385039 0.950073 0.005551
  H 2.799938 -0.638115 -3.103051
  H 2.799950 1.110916 -3.004367
  H 0.415909 1.077431 -2.270033
  H 0.415902 -0.687466 -2.369619
 15
 -0.071453
  C 0.873961 -0.005803 0.362540
  C 2.333609 0.067499 0.027446
  H 2.986949 0.034767 0.892941
  C 2.923924 0.146570 -1.156274
  C 2.385295 0.198231 -2.555644
  C 0.878400 0.274644 -2.750964
  H 0.655082 0.298977 -3.819382
  H 4.011750 0.172109 -1.156065
  H 0.738286 0.037396 1.441552
  H 0.441101 -0.939481 0.008800
  H 0.318120 0.814911 -0.080896
  H 2.764714 -0.688234 -3.078863
  H 2.844772 1.065002 -3.046942
  H 0.473569 1.177412 -2.303359
  H 0.380558 -0.590375 -2.321024
 15
 -0.076097
  C 0.879511 -0.022365 0.371876
  C 2.334415 0.057686 0.026516
  H 2.990340 0.006878 0.886935
  C 2.921407 0.146212 -1.158199
  C 2.382181 0.208581 -2.558026
  C 0.877713 0.296655 -2.754295
  H 0.653653 0.306057 -3.826487
  H 4.010066 0.167262 -1.158582
  H 0.743539 0.138620 1.441273
  H 0.482753 -1.010172 0.129284
  H 0.292355 0.719045 -0.160569
  H 2.753541 -0.678976 -3.081944
  H 2.848346 1.070649 -3.046613
  H 0.482918 1.211878 -2.322177
  H 0.373176 -0.555211 -2.310501
 15
 -0.040292
  C 0.881991 -0.031385 0.383628
  C 2.335547 0.040200 0.025009
  H 2.996128 -0.033765 0.881973
  C 2.918551 0.130203 -1.161024
  C 2.381613 0.225058 -2.560244
  C 0.876531 0.311770 -2.761898
  H 0.657217 0.330146 -3.829269
  H 4.003773 0.143333 -1.162651
  H 0.747569 0.245274 1.427662
  H 0.515249 -1.050471 0.260562
  H 0.271586 0.626169 -0.224622
  H 2.758123 -0.649347 -3.102762
  H 2.846760 1.100207 -3.028346
  H 0.477145 1.222241 -2.323836
  H 0.372908 -0.546664 -2.328108
 15
 -0.046404
  C 0.884392 -0.022195 0.394990
  C 2.333446 0.019588 0.023711
  H 2.994481 -0.085274 0.876904
  C 2.916160 0.121503 -1.162033
  C 2.381975 0.245618 -2.560458
  C 0.875016 0.306207 -2.769022
  H 0.662892 0.336848 -3.836613
  H 4.002874 0.108629 -1.165885
  H 0.753395 0.354753 1.406785
  H 0.528339 -1.052394 0.378544
  H 0.263873 0.564874 -0.271244
  H 2.776586 -0.607635 -3.124469
  H 2.834365 1.140809 -3.003597
  H 0.454044 1.201234 -2.320173
  H 0.388109 -0.569398 -2.352885
 15
 -0.039407
  C 0.876316 -0.025072 0.403695
  C 2.322904 -0.004063 0.026006
  H 2.981089 -0.134324 0.878819
  C 2.909699 0.106126 -1.157880
  C 2.388333 0.265228 -2.556868
  C 0.884433 0.312855 -2.783127
  H 0.683796 0.362007 -3.852547
  H 3.994961 0.075194 -1.156925
  H 0.745890 0.458833 1.370592
  H 0.541150 -1.056513 0.506865
  H 0.241167 0.470423 -0.318697
  H 2.801217 -0.564785 -3.141959
  H 2.834362 1.179912 -2.967191
  H 0.447186 1.193174 -2.322236
  H 0.404318 -0.576735 -2.390444
 15
 0.007147
  C 0.878896 -0.005066 0.419581
  C 2.321039 -0.031852 0.024240
  H 2.980100 -0.194362 0.870583
  C 2.902990 0.065855 -1.160653
  C 2.388854 0.289318 -2.554093
  C 0.884211 0.300527 -2.797270
  H 0.695024 0.401370 -3.863750
  H 3.987744 -0.006250 -1.165313
  H 0.764652 0.579227 1.331074
  H 0.544637 -1.021051 0.639921
  H 0.232029 0.412167 -0.343235
  H 2.835495 -0.488338 -3.179932
  H 2.806308 1.241601 -2.902155
  H 0.411803 1.142647 -2.297093
  H 0.427247 -0.624813 -2.457387
 15
 0.025872
  C 0.883146 -0.004297 0.417600
  C 2.324345 -0.023383 0.024084
  H 2.984316 -0.184189 0.870053
  C 2.906828 0.082298 -1.161039
  C 2.385815 0.281328 -2.554495
  C 0.880342 0.298140 -2.785493
  H 0.682278 0.358376 -3.855228
  H 3.993376 0.020432 -1.166539
  H 0.769084 0.533415 1.360106
  H 0.540284 -1.026090 0.582814
  H 0.243205 0.454931 -0.322347
  H 2.824251 -0.512783 -3.170223
  H 2.806136 1.223761 -2.924703
  H 0.420952 1.163981 -2.314226
  H 0.419415 -0.606429 -2.407219
 15
 0.018580
  C 0.876825 0.015421 0.414119
  C 2.324206 -0.011003 0.029329
  H 2.980136 -0.165077 0.879657
  C 2.908705 0.076887 -1.155123
  C 2.389096 0.277331 -2.548595
  C 0.885930 0.277644 -2.782207
  H 0.690162 0.331401 -3.850960
  H 3.993148 0.002055 -1.162542
  H 0.768406 0.485451 1.390205
  H 0.503193 -1.004724 0.499616
  H 0.256445 0.548493 -0.296177
  H 2.837004 -0.509988 -3.164147
  H 2.800083 1.226109 -2.914708
  H 0.416111 1.139866 -2.315527
  H 0.434117 -0.632261 -2.397714
 15
 0.100438
  C 0.870871 -0.010144 0.405881
  C 2.319775 0.039177 0.039024
  H 2.975856 -0.069090 0.895123
  C 2.910373 0.089184 -1.145984
  C 2.394521 0.231716 -2.548082
  C 0.889592 0.304878 -2.774989
  H 0.691552 0.372107 -3.843902
  H 3.995612 0.072595 -1.137832
  H 0.730759 0.406410 1.403171
  H 0.534344 -1.047255 0.433832
  H 0.239027 0.533804 -0.284284
  H 2.795394 -0.609132 -3.123805
  H 2.853314 1.137487 -2.965440
  H 0.466707 1.187225 -2.301484
  H 0.393512 -0.583409 -2.391662
 15
 0.015273
  C 0.873402 -0.009650 0.395752
  C 2.324274 0.040396 0.038759
  H 2.978548 -0.050619 0.897168
  C 2.916021 0.121964 -1.143314
  C 2.394345 0.218208 -2.547439
  C 0.887344 0.301502 -2.762778
  H 0.677770 0.327989 -3.831570
  H 4.000419 0.117779 -1.135433
  H 0.735724 0.305363 1.430493
  H 0.504609 -1.032495 0.312015
  H 0.263090 0.623526 -0.236312
  H 2.779686 -0.650499 -3.091340
  H 2.860926 1.099371 -3.006865
  H 0.480839 1.206982 -2.320454
  H 0.384210 -0.564263 -2.339115
 15
 0.067168
  C 0.876971 -0.006070 0.391343
  C 2.332124 0.053174 0.042478
  H 2.988473 -0.025589 0.899246
  C 2.922859 0.125055 -1.142660
  C 2.400674 0.217755 -2.543177
  C 0.897533 0.279271 -2.762007
  H 0.688678 0.266992 -3.833535
  H 4.011313 0.137670 -1.131340
  H 0.751185 0.176347 1.457002
  H 0.470788 -0.989403 0.171711
  H 0.290591 0.728717 -0.152963
  H 2.795978 -0.652853 -3.081536
  H 2.858402 1.099212 -3.005415
  H 0.483887 1.198045 -2.350995
  H 0.399214 -0.571950 -2.307828
 15
 1.089258
  C 0.869276 -0.010009 0.372076
  C 2.325236 0.112101 0.032319
  H 2.976030 0.083801 0.898797
  C 2.926339 0.072109 -1.150115
  C 2.402017 0.186098 -2.552671
  C 0.893710 0.266728 -2.753952
  H 0.664631 0.181512 -3.815087
  H 4.010033 0.137688 -1.134093
  H 0.746480 -0.078250 1.450005
  H 0.439768 -0.905201 -0.073140
  H 0.297838 0.845206 0.016343
  H 2.789191 -0.663282 -3.127570
  H 2.865892 1.079279 -2.986821
  H 0.505571 1.217146 -2.398499
  H 0.384487 -0.540715 -2.239568
 15
 0.930815
  C 0.876890 -0.029165 0.382002
  C 2.329414 0.107951 0.033896
  H 2.984663 0.071111 0.896858
  C 2.924784 0.075234 -1.150701
  C 2.391960 0.197711 -2.549260
  C 0.883357 0.300963 -2.736219
  H 0.644559 0.236587 -3.796760
  H 4.008196 0.146939 -1.139266
  H 0.756339 -0.031109 1.462258
  H 0.475217 -0.965348 -0.003087
  H 0.279293 0.780851 -0.029976
  H 2.760349 -0.658365 -3.127156
  H 2.866510 1.081889 -2.989636
  H 0.510493 1.250212 -2.361695
  H 0.369182 -0.509906 -2.231692
