20

C      1.949202   -0.199324    0.863655
C      3.323478    0.461146    1.004676
H      4.076132    0.585879   -0.320999
C      0.965403    0.659553    0.071194
C     -0.493605    0.136783    0.102705
C     -1.335591    1.112548   -0.647151
C     -4.215358    0.855247    0.007353
H     -4.809165    1.871960   -0.686648
H     -0.572338   -1.278970   -0.472537
H      1.543657   -0.370302    1.863719
H      2.074605   -1.167241    0.377514
H      3.213949    1.458385    1.435067
H      3.931806   -0.133417    1.694156
H      1.289218    0.729174   -0.968178
H      0.975088    1.667572    0.494711
H     -0.816951    0.107306    1.148771
H     -1.230118    2.135876   -0.314122
H     -1.324351    1.025981   -1.723753
H     -4.165628    0.947755    1.084510
H     -4.518598   -0.109365   -0.366715
