14

H -0.6379610073170969 -0.8117845204469529 0.7518710563929291
C -0.236652 -0.945747 0.797224
C 0.812019 -0.080276 0.109748
C 2.221267 -0.616397 0.345022
C 3.278477 0.213764 -0.395068
H -0.011413 -1.001889 1.868972
H -0.174309 -1.966771 0.403697
H 0.610108 -0.052561 -0.961156
H 0.752647 0.93958 0.4954
H 2.422817 -0.582718 1.417625
H 2.270273 -1.661292 0.032792
H 3.982992 0.670796 0.299439
H 3.846194 -0.402852 -1.092713
H 2.811068 1.013369 -0.967846
