 16
 0.000000
  C 1.004969 0.137815 0.394441
  C 2.468705 0.133135 0.382755
  C 3.214374 0.602185 1.549539
  H 2.559463 0.925595 2.354664
  C 3.108473 -0.330282 -0.770603
  C 4.503123 -0.400389 -0.946368
  C 5.097579 -0.854666 -2.079106
  H 4.546082 -1.200663 -2.941373
  H 6.171831 -0.889410 -2.166384
  H 0.596707 0.513058 1.328016
  H 0.621599 -0.870309 0.216377
  H 0.621487 0.742299 -0.431708
  H 3.875040 1.427095 1.273015
  H 3.875212 -0.184572 1.920787
  H 2.472886 -0.656596 -1.582545
  H 5.127990 -0.071259 -0.126972
 16
 1.801094
  C 0.996791 0.155062 0.384882
  C 2.459148 0.131175 0.404229
  C 3.199883 0.582898 1.584038
  H 2.538387 0.909315 2.379921
  C 3.126059 -0.338081 -0.723308
  C 4.517164 -0.354362 -0.945850
  C 5.055823 -0.858725 -2.086974
  H 4.449982 -1.253124 -2.886950
  H 6.121534 -0.881458 -2.235274
  H 0.566957 0.542509 1.302487
  H 0.610341 -0.846912 0.180724
  H 0.643635 0.749096 -0.462579
  H 3.872830 1.400355 1.316051
  H 3.846838 -0.212022 1.960352
  H 2.647612 -0.738746 -1.602900
  H 5.192266 0.035642 -0.195407
 16
 5.346438
  C 0.985211 0.195878 0.377355
  C 2.453090 0.115592 0.405369
  C 3.195839 0.519148 1.593974
  H 2.548793 0.857396 2.402749
  C 3.109025 -0.372026 -0.709889
  C 4.497158 -0.260462 -0.984876
  C 5.065896 -0.878076 -2.058786
  H 4.490535 -1.413662 -2.794664
  H 6.129380 -0.818330 -2.233184
  H 0.575681 0.577525 1.301067
  H 0.569089 -0.794977 0.165586
  H 0.649287 0.815179 -0.461428
  H 3.900753 1.297283 1.326245
  H 3.836177 -0.294951 1.942228
  H 2.687484 -0.832765 -1.589052
  H 5.138588 0.301729 -0.329260
 16
 10.550879
  C 0.990040 0.203138 0.384523
  C 2.451398 0.099128 0.404548
  C 3.213410 0.478204 1.600405
  H 2.561368 0.846790 2.378271
  C 3.099885 -0.395322 -0.705065
  C 4.470645 -0.215063 -1.040860
  C 5.056196 -0.882460 -2.043663
  H 4.523329 -1.539717 -2.706310
  H 6.111903 -0.754962 -2.250635
  H 0.583627 0.578654 1.310891
  H 0.549952 -0.762326 0.115982
  H 0.679488 0.869624 -0.426290
  H 3.918729 1.267820 1.350851
  H 3.790771 -0.362952 1.994792
  H 2.746045 -0.898314 -1.594896
  H 5.084735 0.469802 -0.450471
 16
 16.955470
  C 0.974232 0.244376 0.361352
  C 2.438322 0.114215 0.376476
  C 3.202725 0.418771 1.603061
  H 2.551927 0.762037 2.402077
  C 3.102049 -0.363748 -0.700540
  C 4.451746 -0.129221 -1.104213
  C 5.068570 -0.928958 -2.000470
  H 4.568589 -1.732349 -2.522042
  H 6.095023 -0.749151 -2.265010
  H 0.595838 0.556036 1.339403
  H 0.531087 -0.731570 0.133913
  H 0.647720 0.956793 -0.391586
  H 3.882334 1.241293 1.374799
  H 3.807948 -0.419309 1.938601
  H 2.855603 -0.885920 -1.620448
  H 5.071484 0.634879 -0.637760
 16
 19.799796
  C 0.976499 0.233906 0.376317
  C 2.440962 0.155298 0.361709
  C 3.214181 0.422439 1.593433
  H 2.562515 0.698014 2.422235
  C 3.094475 -0.290705 -0.732063
  C 4.447360 -0.057055 -1.199628
  C 5.085578 -0.973869 -1.963954
  H 4.602383 -1.862220 -2.333662
  H 6.130615 -0.858042 -2.202573
  H 0.598490 0.459345 1.373290
  H 0.575398 -0.737974 0.075907
  H 0.601462 0.965953 -0.329598
  H 3.925996 1.228727 1.393558
  H 3.786934 -0.438017 1.905785
  H 2.787256 -0.726197 -1.678015
  H 5.043656 0.756179 -0.806907
 16
 23.652527
  C 0.982013 0.262680 0.363558
  C 2.451613 0.166563 0.393464
  C 3.199706 0.371656 1.646173
  H 2.536548 0.649155 2.461973
  C 3.129349 -0.291220 -0.693116
  C 4.436852 -0.094616 -1.255713
  C 5.139568 -1.000248 -1.956237
  H 4.761643 -1.982026 -2.191497
  H 6.121734 -0.757808 -2.319851
  H 0.593806 0.595639 1.326452
  H 0.547913 -0.698354 0.102606
  H 0.657858 0.995115 -0.380042
  H 3.977005 1.132727 1.487472
  H 3.708276 -0.538197 1.945967
  H 2.788678 -0.719936 -1.618334
  H 4.878156 0.885925 -1.070572
 16
 31.530802
  C 1.025068 0.282221 0.325792
  C 2.500652 0.142070 0.440876
  C 3.159951 0.325115 1.740363
  H 2.446864 0.589872 2.513705
  C 3.223406 -0.249003 -0.629920
  C 4.436654 -0.054594 -1.360291
  C 5.137795 -1.030733 -1.992829
  H 4.782504 -2.046821 -2.008083
  H 6.082922 -0.796559 -2.443947
  H 0.600949 0.663492 1.254681
  H 0.569400 -0.681822 0.108707
  H 0.749187 0.976139 -0.471206
  H 3.925445 1.089267 1.658829
  H 3.661625 -0.585731 2.060290
  H 2.829326 -0.613557 -1.584197
  H 4.815952 0.964581 -1.379690
 16
 43.220801
  C 1.028996 0.269895 0.325389
  C 2.520132 0.165452 0.425804
  C 3.145100 0.325567 1.776852
  H 2.382873 0.530745 2.529569
  C 3.266275 -0.145254 -0.579742
  C 4.425334 -0.043842 -1.425501
  C 5.113693 -1.088021 -1.965527
  H 4.767915 -2.098367 -1.937117
  H 6.056294 -0.900111 -2.465837
  H 0.595318 0.559657 1.284237
  H 0.599689 -0.693659 0.036061
  H 0.745075 1.012410 -0.416971
  H 3.855593 1.147929 1.749566
  H 3.681422 -0.568687 2.077522
  H 2.953793 -0.452733 -1.629642
  H 4.848373 0.948568 -1.560888
 16
 48.441739
  C 1.060709 0.235398 0.300777
  C 2.556116 0.187828 0.461522
  C 3.126269 0.346595 1.851062
  H 2.329805 0.493976 2.573354
  C 3.361239 -0.048049 -0.522957
  C 4.401503 -0.041421 -1.474259
  C 5.063598 -1.143320 -1.973456
  H 4.682698 -2.142676 -1.860624
  H 5.991836 -1.016945 -2.501849
  H 0.578330 0.448987 1.248875
  H 0.686921 -0.720204 -0.062798
  H 0.780375 1.007928 -0.410461
  H 3.792174 1.205183 1.880143
  H 3.693708 -0.536593 2.133680
  H 3.087056 -0.249315 -1.724556
  H 4.831085 0.932128 -1.703749
 16
 50.485519
  C 1.066076 0.219858 0.305522
  C 2.558227 0.199290 0.469444
  C 3.132928 0.336912 1.859714
  H 2.333128 0.430162 2.585268
  C 3.373871 0.032287 -0.520407
  C 4.341639 -0.008088 -1.528613
  C 5.033085 -1.174622 -1.924014
  H 4.645401 -2.156709 -1.722367
  H 5.971886 -1.106662 -2.440216
  H 0.583801 0.382897 1.260607
  H 0.713634 -0.727508 -0.101326
  H 0.771845 1.014609 -0.374730
  H 3.764441 1.218127 1.919913
  H 3.739270 -0.530975 2.109086
  H 3.192517 -0.142582 -1.930984
  H 4.813343 0.941295 -1.775203
 16
 50.610065
  C 1.060806 0.246970 0.296660
  C 2.556213 0.205949 0.477308
  C 3.108468 0.319287 1.886656
  H 2.290631 0.420447 2.591477
  C 3.385022 0.056926 -0.491787
  C 4.308401 0.000400 -1.549798
  C 5.009687 -1.213073 -1.898825
  H 4.573234 -2.180160 -1.730469
  H 5.983384 -1.157644 -2.355787
  H 0.566288 0.415530 1.254256
  H 0.706176 -0.695229 -0.116504
  H 0.785115 1.046637 -0.390055
  H 3.753187 1.190246 1.966671
  H 3.695438 -0.562047 2.139627
  H 3.388340 -0.151076 -2.197844
  H 4.846054 0.933137 -1.744491
 16
 55.719477
  C 1.023140 0.241751 0.359649
  C 2.511764 0.192157 0.498507
  C 3.107012 0.333195 1.891442
  H 2.305347 0.462936 2.616247
  C 3.309417 0.031553 -0.500648
  C 4.247871 -0.012459 -1.555709
  C 5.068807 -1.252727 -1.977093
  H 4.660396 -2.249583 -1.998437
  H 6.082964 -1.098439 -2.292609
  H 0.557854 0.419995 1.307030
  H 0.659606 -0.708085 -0.034439
  H 0.736273 1.032527 -0.324241
  H 3.756464 1.202449 1.914494
  H 3.696102 -0.535277 2.161540
  H 3.498380 -0.270981 -2.366129
  H 4.769465 0.943183 -1.668119
