 25
 0.000000
  C 0.904905 0.048558 0.271626
  C 2.396174 0.057185 0.085223
  C 3.242294 -0.013306 1.349418
  C 2.522851 -0.086978 2.693317
  H 3.252418 -0.131687 3.495725
  C 2.991349 0.126445 -1.122985
  C 2.351250 0.204630 -2.496294
  C 0.840685 0.216111 -2.710552
  H 0.634345 0.277193 -3.775562
  C 4.453389 0.131916 -1.213257
  C 5.193809 0.195252 -2.316825
  H 6.271058 0.194060 -2.290312
  H 0.619622 -0.016669 1.315317
  H 0.456633 -0.808707 -0.223814
  H 0.459168 0.962708 -0.112162
  H 3.889694 0.868594 1.378171
  H 3.888467 -0.893949 1.280797
  H 1.897002 -0.975906 2.754035
  H 1.898099 0.790682 2.851331
  H 2.745474 -0.642779 -3.067788
  H 2.744586 1.112185 -2.967217
  H 0.377862 1.074438 -2.232714
  H 0.378821 -0.691875 -2.334365
  H 4.994745 0.078666 -0.281438
  H 4.808825 0.252650 -3.321311
 25
 3.795879
  C 0.908582 0.020384 0.282436
  C 2.376419 0.050351 0.091391
  C 3.239526 -0.026281 1.348808
  C 2.531041 -0.079038 2.695754
  H 3.280917 -0.129649 3.481809
  C 2.974166 0.124766 -1.117820
  C 2.335183 0.205489 -2.496527
  C 0.825649 0.205120 -2.725539
  H 0.648625 0.270920 -3.798504
  C 4.433991 0.141768 -1.206053
  C 5.179518 0.212164 -2.303464
  H 6.254620 0.212447 -2.233885
  H 0.600752 -0.010901 1.315518
  H 0.420510 -0.789029 -0.241772
  H 0.681068 0.957629 -0.145718
  H 3.902371 0.841864 1.367848
  H 3.870004 -0.916311 1.280075
  H 1.898964 -0.960051 2.782763
  H 1.928940 0.810916 2.866840
  H 2.742580 -0.636049 -3.067207
  H 2.728339 1.118510 -2.957268
  H 0.337502 1.055534 -2.261344
  H 0.360883 -0.708824 -2.372987
  H 4.968684 0.087276 -0.271410
  H 4.789692 0.270466 -3.304320
 25
 10.968072
  C 0.924365 0.024055 0.277640
  C 2.390043 0.042384 0.094927
  C 3.232320 -0.052442 1.347557
  C 2.489957 -0.076768 2.671620
  H 3.221242 -0.145322 3.482511
  C 2.988523 0.121353 -1.111646
  C 2.328226 0.203546 -2.478356
  C 0.814295 0.162988 -2.674022
  H 0.611547 0.239150 -3.749331
  C 4.451387 0.155823 -1.216241
  C 5.187756 0.240946 -2.322820
  H 6.267083 0.250586 -2.258770
  H 0.592333 0.022798 1.286948
  H 0.405085 -0.708851 -0.287918
  H 0.924606 1.004544 -0.167771
  H 3.919403 0.790474 1.377972
  H 3.830953 -0.962394 1.290619
  H 1.833193 -0.937434 2.745565
  H 1.913056 0.830418 2.821978
  H 2.743828 -0.622131 -3.063706
  H 2.689375 1.131171 -2.934113
  H 0.309295 0.987479 -2.188619
  H 0.387496 -0.770042 -2.329743
  H 4.996472 0.097015 -0.290477
  H 4.786268 0.304142 -3.317972
 25
 21.398440
  C 0.887414 0.017114 0.291098
  C 2.375830 0.038580 0.094270
  C 3.235498 -0.056961 1.348485
  C 2.510155 -0.070234 2.684044
  H 3.245744 -0.139973 3.478641
  C 2.976661 0.119944 -1.115911
  C 2.327454 0.206882 -2.485223
  C 0.818744 0.152240 -2.699947
  H 0.630740 0.238274 -3.767373
  C 4.438584 0.156814 -1.211294
  C 5.178609 0.250631 -2.313952
  H 6.253698 0.263465 -2.247174
  H 0.540617 0.036131 1.309730
  H 0.333526 -0.685569 -0.300004
  H 1.063595 0.971802 -0.150862
  H 3.933872 0.781335 1.368658
  H 3.825833 -0.972875 1.285917
  H 1.847716 -0.928210 2.771500
  H 1.941480 0.844060 2.839031
  H 2.757726 -0.609254 -3.074857
  H 2.685138 1.142896 -2.930542
  H 0.294548 0.968711 -2.209592
  H 0.398160 -0.794818 -2.373150
  H 4.978463 0.092698 -0.282516
  H 4.778601 0.319665 -3.310308
 25
 31.319573
  C 0.884731 -0.004803 0.299002
  C 2.377301 0.037528 0.086830
  C 3.231184 -0.057557 1.350050
  C 2.501522 -0.060794 2.691238
  H 3.242169 -0.132179 3.492191
  C 2.981879 0.120336 -1.124098
  C 2.327437 0.210810 -2.496062
  C 0.814784 0.150867 -2.698545
  H 0.615419 0.242393 -3.770289
  C 4.435559 0.159064 -1.215012
  C 5.178428 0.257481 -2.317024
  H 6.255063 0.269075 -2.247649
  H 0.528394 0.022361 1.303167
  H 0.310031 -0.682790 -0.299464
  H 1.191994 0.949865 -0.150596
  H 3.937617 0.777631 1.368646
  H 3.816764 -0.980447 1.292053
  H 1.834510 -0.913484 2.782503
  H 1.938247 0.856897 2.842831
  H 2.757760 -0.600813 -3.092083
  H 2.678953 1.149559 -2.939956
  H 0.292768 0.960300 -2.199304
  H 0.402420 -0.797490 -2.373416
  H 4.974816 0.091237 -0.281263
  H 4.780996 0.330085 -3.313260
 25
 39.956244
  C 0.881151 -0.022183 0.311940
  C 2.366962 0.039371 0.087851
  C 3.224497 -0.047290 1.348310
  C 2.490926 -0.051916 2.672774
  H 3.219876 -0.118662 3.471697
  C 2.984553 0.117503 -1.121531
  C 2.330370 0.211303 -2.491849
  C 0.819875 0.146238 -2.691649
  H 0.617636 0.247381 -3.757070
  C 4.441100 0.151839 -1.217346
  C 5.178421 0.258600 -2.324827
  H 6.255088 0.266400 -2.261534
  H 0.541287 0.002718 1.334032
  H 0.294103 -0.650620 -0.326005
  H 1.282914 0.923499 -0.095193
  H 3.925266 0.784973 1.371611
  H 3.804674 -0.963636 1.289713
  H 1.829319 -0.903319 2.758875
  H 1.924593 0.859428 2.817736
  H 2.763171 -0.593173 -3.094792
  H 2.677158 1.153597 -2.931332
  H 0.294944 0.949219 -2.181266
  H 0.415742 -0.809673 -2.377429
  H 4.990293 0.073050 -0.290013
  H 4.774757 0.343542 -3.317925
 25
 46.255297
  C 0.868578 -0.035872 0.310166
  C 2.354295 0.038194 0.079993
  C 3.216468 -0.042393 1.349607
  C 2.499361 -0.042452 2.696128
  H 3.246588 -0.102464 3.486980
  C 2.980291 0.112303 -1.129072
  C 2.334017 0.211166 -2.502240
  C 0.823530 0.140290 -2.705717
  H 0.621783 0.255593 -3.770678
  C 4.432683 0.145567 -1.217600
  C 5.171928 0.261157 -2.323648
  H 6.248510 0.267087 -2.259085
  H 0.540025 -0.030010 1.319147
  H 0.271868 -0.607671 -0.361543
  H 1.354544 0.917451 -0.050499
  H 3.920976 0.792869 1.362563
  H 3.797529 -0.964847 1.287881
  H 1.840111 -0.900669 2.801137
  H 1.930239 0.872799 2.848418
  H 2.774070 -0.586019 -3.110854
  H 2.677430 1.159513 -2.933911
  H 0.294500 0.933656 -2.184588
  H 0.424154 -0.823871 -2.406378
  H 4.980834 0.055655 -0.290651
  H 4.768630 0.357349 -3.316344
 25
 50.812082
  C 0.872162 -0.056491 0.323374
  C 2.353993 0.034225 0.081875
  C 3.212022 -0.035443 1.341322
  C 2.492548 -0.028540 2.680448
  H 3.235882 -0.076401 3.471489
  C 2.985500 0.105521 -1.132939
  C 2.337981 0.210520 -2.502624
  C 0.827599 0.140050 -2.700944
  H 0.619939 0.268510 -3.765701
  C 4.432304 0.137873 -1.219087
  C 5.175060 0.262527 -2.323763
  H 6.251558 0.265801 -2.256524
  H 0.548341 -0.078584 1.341553
  H 0.251705 -0.571681 -0.384131
  H 1.421186 0.906446 0.008942
  H 3.912142 0.798760 1.348280
  H 3.795366 -0.955747 1.284420
  H 1.842920 -0.885166 2.790951
  H 1.919789 0.878324 2.822572
  H 2.777111 -0.580875 -3.117041
  H 2.677520 1.161341 -2.928557
  H 0.301675 0.925867 -2.168307
  H 0.431425 -0.827646 -2.412212
  H 4.980705 0.036215 -0.290697
  H 4.773728 0.370418 -3.315598
 25
 54.170895
  C 0.865090 -0.079903 0.315492
  C 2.346817 0.033335 0.074709
  C 3.215100 -0.027988 1.342602
  C 2.505658 -0.017321 2.693607
  H 3.254460 -0.051632 3.474196
  C 2.981209 0.100838 -1.141519
  C 2.330424 0.209943 -2.516272
  C 0.820270 0.143688 -2.711016
  H 0.611876 0.278296 -3.765123
  C 4.434434 0.131171 -1.217045
  C 5.190913 0.263453 -2.311897
  H 6.263516 0.259149 -2.231319
  H 0.534858 -0.133917 1.326898
  H 0.246468 -0.530216 -0.408165
  H 1.465200 0.896478 0.046423
  H 3.913297 0.812211 1.340033
  H 3.803155 -0.946353 1.287190
  H 1.860759 -0.887129 2.819905
  H 1.921137 0.892600 2.836087
  H 2.767012 -0.581565 -3.134320
  H 2.670136 1.162273 -2.941813
  H 0.296545 0.930390 -2.171003
  H 0.421670 -0.828011 -2.427035
  H 4.969646 0.020666 -0.293220
  H 4.801211 0.383852 -3.309861
 25
 57.084585
  C 0.879038 -0.101957 0.335047
  C 2.351536 0.033810 0.085002
  C 3.213142 -0.018549 1.337839
  C 2.497062 -0.004306 2.686063
  H 3.243028 -0.024499 3.471371
  C 2.987970 0.099331 -1.140351
  C 2.342768 0.212242 -2.510407
  C 0.836176 0.151675 -2.709605
  H 0.630598 0.293798 -3.768600
  C 4.423155 0.128891 -1.218239
  C 5.174739 0.264744 -2.318620
  H 6.249714 0.246831 -2.245969
  H 0.555979 -0.180843 1.334405
  H 0.230379 -0.514736 -0.424929
  H 1.513561 0.884294 0.096990
  H 3.902008 0.822505 1.329354
  H 3.811200 -0.939611 1.286516
  H 1.861407 -0.878828 2.816376
  H 1.903112 0.898088 2.818141
  H 2.778220 -0.575767 -3.127254
  H 2.684751 1.160871 -2.932144
  H 0.317329 0.934143 -2.170287
  H 0.432978 -0.820945 -2.431830
  H 4.961199 0.009276 -0.298049
  H 4.777189 0.389693 -3.316790
 25
 59.371163
  C 0.867901 -0.126337 0.323436
  C 2.348902 0.032600 0.077575
  C 3.217938 -0.014783 1.339314
  C 2.503709 0.005769 2.694311
  H 3.250947 -0.002301 3.478243
  C 2.986965 0.091550 -1.148023
  C 2.335363 0.207728 -2.520972
  C 0.823304 0.157937 -2.714404
  H 0.612503 0.303754 -3.775345
  C 4.437988 0.115969 -1.221766
  C 5.195700 0.260329 -2.313553
  H 6.266790 0.266523 -2.230379
  H 0.531744 -0.226738 1.332940
  H 0.228609 -0.482181 -0.439684
  H 1.541977 0.877704 0.114094
  H 3.909744 0.834427 1.324530
  H 3.817868 -0.935128 1.292170
  H 1.880857 -0.863130 2.833463
  H 1.907226 0.897662 2.819519
  H 2.763839 -0.585139 -3.140231
  H 2.682355 1.155076 -2.946074
  H 0.310537 0.946818 -2.168610
  H 0.415725 -0.809685 -2.436869
  H 4.980730 -0.005330 -0.286572
  H 4.809565 0.404467 -3.302397
 25
 61.568568
  C 0.875069 -0.154484 0.325476
  C 2.357028 0.035720 0.084638
  C 3.221808 -0.006246 1.350959
  C 2.499633 0.014164 2.689875
  H 3.245694 0.018386 3.486451
  C 2.999119 0.094315 -1.145748
  C 2.346397 0.213606 -2.518469
  C 0.834901 0.167311 -2.707503
  H 0.621211 0.319058 -3.764695
  C 4.434043 0.123549 -1.222893
  C 5.188000 0.264307 -2.322876
  H 6.265760 0.236759 -2.249529
  H 0.530327 -0.263941 1.335313
  H 0.231988 -0.475049 -0.456025
  H 1.574809 0.868830 0.137116
  H 3.908126 0.846390 1.338651
  H 3.819186 -0.909805 1.312847
  H 1.878041 -0.870388 2.827903
  H 1.886348 0.909757 2.803701
  H 2.773968 -0.580949 -3.142925
  H 2.694533 1.165720 -2.943884
  H 0.326774 0.952143 -2.157126
  H 0.427861 -0.797113 -2.435278
  H 4.972622 -0.005093 -0.306636
  H 4.791935 0.399543 -3.320182
 25
 63.617657
  C 0.872924 -0.186384 0.329873
  C 2.348673 0.036986 0.084158
  C 3.224644 0.003894 1.344595
  C 2.513016 0.026791 2.689860
  H 3.261791 0.046025 3.477968
  C 2.990618 0.092367 -1.149818
  C 2.337001 0.216223 -2.522578
  C 0.826910 0.181890 -2.714881
  H 0.615156 0.340778 -3.778272
  C 4.440260 0.118708 -1.218347
  C 5.205464 0.260857 -2.306074
  H 6.279120 0.234322 -2.218828
  H 0.532206 -0.294080 1.328803
  H 0.217803 -0.477509 -0.464016
  H 1.588110 0.856462 0.149982
  H 3.904309 0.861274 1.321279
  H 3.833373 -0.902825 1.306424
  H 1.906877 -0.857478 2.838911
  H 1.893573 0.909815 2.801124
  H 2.757965 -0.577474 -3.144933
  H 2.690286 1.162689 -2.945514
  H 0.325683 0.966292 -2.163898
  H 0.410968 -0.781919 -2.446838
  H 4.974256 -0.013863 -0.292718
  H 4.824652 0.401430 -3.299487
 25
 65.396324
  C 0.880831 -0.221273 0.327241
  C 2.349386 0.041289 0.086493
  C 3.226432 0.015799 1.349500
  C 2.507960 0.036436 2.698989
  H 3.256326 0.069002 3.492763
  C 2.995868 0.097523 -1.151526
  C 2.350731 0.224345 -2.514635
  C 0.844182 0.196568 -2.714253
  H 0.638491 0.363072 -3.776584
  C 4.432007 0.125027 -1.223578
  C 5.192539 0.260104 -2.318972
  H 6.268529 0.211764 -2.240284
  H 0.529691 -0.323811 1.334219
  H 0.233090 -0.485129 -0.468030
  H 1.605922 0.849189 0.156173
  H 3.899679 0.880554 1.323393
  H 3.843656 -0.885332 1.315410
  H 1.912296 -0.854510 2.850215
  H 1.876640 0.911993 2.803969
  H 2.772661 -0.569902 -3.138942
  H 2.708847 1.171723 -2.933506
  H 0.343747 0.978156 -2.161079
  H 0.424120 -0.763505 -2.455715
  H 4.968450 -0.015953 -0.307081
  H 4.800149 0.387212 -3.320230
