 22
 0.000000
  C 0.999657 0.048960 0.184284
  C 2.503993 0.052882 0.163649
  C 3.290223 -0.023110 1.449319
  C 2.498675 -0.086093 2.753098
  C 3.441282 -0.156406 3.950324
  C 3.124622 0.121033 -1.021438
  H 2.513190 0.170680 -1.911385
  C 4.548272 0.136780 -1.256042
  C 5.083793 0.206812 -2.473822
  H 6.147671 0.217924 -2.630906
  H 0.598225 -0.022653 1.188939
  H 0.618571 -0.789652 -0.395073
  H 0.610025 0.961894 -0.267305
  H 3.950202 0.850236 1.498004
  H 3.935498 -0.907575 1.403201
  H 1.856077 -0.969098 2.761090
  H 1.869230 0.800713 2.853661
  H 4.071532 -1.041587 3.890519
  H 2.876368 -0.201158 4.879010
  H 4.084951 0.720481 3.983618
  H 5.198324 0.088874 -0.391542
  H 4.469062 0.255535 -3.357681
 22
 5.626278
  C 1.007089 -0.004666 0.203970
  C 2.468920 0.034202 0.172594
  C 3.280977 -0.043874 1.446345
  C 2.494097 -0.074318 2.752252
  C 3.436767 -0.147405 3.946515
  C 3.101778 0.111865 -1.030738
  H 2.489311 0.152448 -1.928497
  C 4.527828 0.156926 -1.258965
  C 5.064897 0.232434 -2.464236
  H 6.128979 0.258637 -2.613955
  H 0.559389 -0.027046 1.199022
  H 0.580757 -0.804527 -0.420832
  H 0.875393 0.947462 -0.265101
  H 3.960356 0.811993 1.479110
  H 3.904750 -0.941401 1.403818
  H 1.834738 -0.944153 2.771478
  H 1.882310 0.825785 2.840190
  H 4.049304 -1.044999 3.896147
  H 2.873846 -0.169105 4.876396
  H 4.097662 0.716514 3.966687
  H 5.176844 0.120993 -0.391033
  H 4.456271 0.268573 -3.349828
 22
 17.823999
  C 0.993803 -0.046440 0.211272
  C 2.449956 0.020978 0.177219
  C 3.274910 -0.057906 1.444616
  C 2.494013 -0.064400 2.745978
  C 3.436220 -0.138655 3.939858
  C 3.088218 0.104894 -1.024771
  H 2.484310 0.132093 -1.922539
  C 4.505981 0.171541 -1.247220
  C 5.050783 0.251429 -2.460355
  H 6.114810 0.294137 -2.605353
  H 0.520218 -0.038516 1.178813
  H 0.549029 -0.786232 -0.442882
  H 1.097512 0.913231 -0.242847
  H 3.964879 0.779214 1.468485
  H 3.874456 -0.962078 1.403955
  H 1.822372 -0.925419 2.772499
  H 1.894373 0.845510 2.823548
  H 4.036879 -1.046055 3.897335
  H 2.873627 -0.143696 4.870461
  H 4.109823 0.717234 3.951327
  H 5.151053 0.149123 -0.381362
  H 4.445360 0.272803 -3.351441
 22
 31.478004
  C 0.975379 -0.079533 0.220441
  C 2.434339 0.018288 0.167696
  C 3.260532 -0.058560 1.431281
  C 2.482169 -0.055445 2.752430
  C 3.436848 -0.128442 3.944581
  C 3.083231 0.101700 -1.042875
  H 2.481647 0.115657 -1.941562
  C 4.501107 0.178582 -1.257456
  C 5.055999 0.257558 -2.468193
  H 6.120845 0.307516 -2.604621
  H 0.498886 -0.107355 1.189308
  H 0.508988 -0.729599 -0.498148
  H 1.252694 0.896267 -0.149791
  H 3.958075 0.769945 1.449322
  H 3.851553 -0.969927 1.386020
  H 1.807413 -0.913728 2.789597
  H 1.887134 0.856517 2.831362
  H 4.034611 -1.040153 3.901382
  H 2.880708 -0.127310 4.881221
  H 4.115343 0.726371 3.947586
  H 5.141286 0.165249 -0.388551
  H 4.457863 0.270054 -3.363883
 22
 42.445324
  C 0.965398 -0.106784 0.228716
  C 2.428574 0.008430 0.161571
  C 3.251666 -0.065237 1.431533
  C 2.477600 -0.050454 2.748075
  C 3.434547 -0.111860 3.937177
  C 3.079463 0.090816 -1.052555
  H 2.475149 0.093746 -1.951018
  C 4.493454 0.181210 -1.263960
  C 5.054915 0.262560 -2.473195
  H 6.117279 0.320568 -2.603031
  H 0.495881 -0.208334 1.186753
  H 0.469088 -0.627788 -0.571952
  H 1.389694 0.888232 -0.017295
  H 3.960822 0.763320 1.446889
  H 3.837968 -0.986687 1.386872
  H 1.803210 -0.909353 2.796385
  H 1.880065 0.863002 2.820852
  H 4.030129 -1.018431 3.900726
  H 2.883049 -0.103241 4.870881
  H 4.108883 0.739003 3.931597
  H 5.132272 0.175581 -0.392659
  H 4.462977 0.268268 -3.369545
 22
 49.877139
  C 0.960370 -0.128291 0.235833
  C 2.427984 -0.003819 0.155884
  C 3.247484 -0.076589 1.428624
  C 2.471298 -0.052189 2.744279
  C 3.428519 -0.090992 3.934137
  C 3.079124 0.078894 -1.064660
  H 2.469941 0.077867 -1.961752
  C 4.489678 0.179913 -1.274567
  C 5.055565 0.267308 -2.481521
  H 6.120896 0.333801 -2.606713
  H 0.493193 -0.309595 1.183780
  H 0.435413 -0.494437 -0.624969
  H 1.505446 0.871129 0.114483
  H 3.959658 0.751344 1.441639
  H 3.831532 -1.003035 1.387982
  H 1.806188 -0.914712 2.803090
  H 1.866282 0.855579 2.805177
  H 4.032156 -0.992219 3.908387
  H 2.877024 -0.076566 4.867427
  H 4.094902 0.765328 3.919139
  H 5.128065 0.176912 -0.401682
  H 4.465980 0.269876 -3.381177
 22
 56.060768
  C 0.952485 -0.149730 0.237549
  C 2.417132 0.000040 0.156227
  C 3.240158 -0.076790 1.431536
  C 2.474476 -0.051143 2.736557
  C 3.431979 -0.080969 3.916060
  C 3.073572 0.081561 -1.064926
  H 2.474871 0.085229 -1.955961
  C 4.484260 0.178720 -1.269775
  C 5.057557 0.267665 -2.474268
  H 6.120464 0.330396 -2.592329
  H 0.484819 -0.356268 1.173813
  H 0.417684 -0.443848 -0.646351
  H 1.580203 0.856426 0.169249
  H 3.953484 0.752880 1.443715
  H 3.817524 -0.995532 1.391546
  H 1.810517 -0.921130 2.801355
  H 1.864327 0.856352 2.795681
  H 4.040986 -0.981314 3.890619
  H 2.881554 -0.065895 4.856003
  H 4.096912 0.781608 3.895292
  H 5.122401 0.170944 -0.389651
  H 4.470738 0.274325 -3.382070
 22
 60.531442
  C 0.946664 -0.173389 0.233354
  C 2.413496 0.007126 0.156286
  C 3.242433 -0.079749 1.431435
  C 2.473045 -0.053412 2.740386
  C 3.433783 -0.071634 3.929601
  C 3.076500 0.079543 -1.079472
  H 2.465233 0.076095 -1.975436
  C 4.478987 0.183527 -1.278491
  C 5.059170 0.268360 -2.483209
  H 6.129611 0.335134 -2.597017
  H 0.469552 -0.391953 1.157780
  H 0.401541 -0.375603 -0.672388
  H 1.641586 0.853774 0.215189
  H 3.957886 0.748113 1.442597
  H 3.822894 -1.006098 1.388258
  H 1.816478 -0.924878 2.807759
  H 1.854720 0.850032 2.795701
  H 4.049945 -0.967409 3.908833
  H 2.882321 -0.057419 4.866110
  H 4.090782 0.794696 3.907105
  H 5.112436 0.183743 -0.399479
  H 4.479274 0.266625 -3.386924
 22
 64.381425
  C 0.943658 -0.204769 0.228952
  C 2.409851 0.020158 0.161498
  C 3.245249 -0.077961 1.434753
  C 2.476780 -0.054537 2.743420
  C 3.432203 -0.067513 3.924816
  C 3.078713 0.080902 -1.082519
  H 2.464081 0.074932 -1.975558
  C 4.478606 0.187425 -1.279249
  C 5.063240 0.267252 -2.484944
  H 6.127749 0.334378 -2.594577
  H 0.451303 -0.405075 1.149556
  H 0.395914 -0.341971 -0.681724
  H 1.688663 0.861031 0.234396
  H 3.963778 0.751708 1.447026
  H 3.819232 -0.999893 1.387222
  H 1.825045 -0.928345 2.811058
  H 1.854423 0.845674 2.798998
  H 4.056377 -0.965539 3.902378
  H 2.876773 -0.056430 4.867057
  H 4.087593 0.807829 3.900868
  H 5.110003 0.193990 -0.400961
  H 4.484428 0.259306 -3.392327
 22
 67.254019
  C 0.947726 -0.240954 0.222982
  C 2.405226 0.035927 0.164115
  C 3.244376 -0.073144 1.430252
  C 2.473166 -0.051293 2.748680
  C 3.434680 -0.064987 3.936615
  C 3.079953 0.089288 -1.088646
  H 2.464175 0.086505 -1.977524
  C 4.478077 0.193524 -1.283808
  C 5.065026 0.269069 -2.489808
  H 6.132396 0.327759 -2.598175
  H 0.441654 -0.409462 1.147364
  H 0.399170 -0.340289 -0.693256
  H 1.728332 0.880394 0.236461
  H 3.963480 0.751169 1.441624
  H 3.815628 -1.000407 1.376346
  H 1.823431 -0.923823 2.815507
  H 1.852657 0.846589 2.806011
  H 4.055580 -0.955950 3.913204
  H 2.883942 -0.056045 4.874100
  H 4.086456 0.806442 3.914166
  H 5.109964 0.197749 -0.405809
  H 4.486596 0.259035 -3.398005
 22
 68.809002
  C 0.951938 -0.284197 0.215572
  C 2.397549 0.050011 0.167233
  C 3.241496 -0.071758 1.433208
  C 2.473658 -0.046558 2.752727
  C 3.439265 -0.062977 3.943426
  C 3.081449 0.095311 -1.094520
  H 2.463110 0.096343 -1.984086
  C 4.476625 0.195383 -1.285084
  C 5.067318 0.271136 -2.491700
  H 6.132147 0.328009 -2.596286
  H 0.432833 -0.405237 1.137205
  H 0.402808 -0.354499 -0.704215
  H 1.766209 0.913889 0.231201
  H 3.966512 0.750733 1.444270
  H 3.806375 -1.002240 1.375334
  H 1.821767 -0.914737 2.820247
  H 1.855475 0.853154 2.809775
  H 4.059190 -0.957069 3.919397
  H 2.889189 -0.052377 4.882737
  H 4.093813 0.807511 3.920547
  H 5.108539 0.198420 -0.404694
  H 4.487545 0.266952 -3.406353
 22
 69.732644
  C 0.959847 -0.323714 0.210917
  C 2.390056 0.060560 0.170633
  C 3.239417 -0.070023 1.432991
  C 2.476607 -0.036795 2.755234
  C 3.441705 -0.057493 3.934129
  C 3.077191 0.100720 -1.091446
  H 2.460618 0.108503 -1.978309
  C 4.471242 0.192809 -1.279416
  C 5.066046 0.275099 -2.486112
  H 6.135920 0.334375 -2.587585
  H 0.430014 -0.402585 1.133989
  H 0.415649 -0.376854 -0.709575
  H 1.807237 0.943013 0.225915
  H 3.968883 0.743910 1.439072
  H 3.797280 -1.006808 1.372928
  H 1.818041 -0.901112 2.828040
  H 1.862009 0.871484 2.813266
  H 4.058260 -0.959897 3.908517
  H 2.897134 -0.041488 4.873678
  H 4.097197 0.802770 3.906291
  H 5.100479 0.192872 -0.401220
  H 4.493517 0.286510 -3.393686
 22
 69.578624
  C 0.972323 -0.365949 0.204836
  C 2.380818 0.079755 0.171527
  C 3.236268 -0.062910 1.434236
  C 2.477440 -0.026936 2.757229
  C 3.445873 -0.058175 3.936837
  C 3.077389 0.113755 -1.094514
  H 2.459232 0.121764 -1.981925
  C 4.467673 0.192930 -1.277496
  C 5.067105 0.275207 -2.485389
  H 6.135357 0.337097 -2.584315
  H 0.435399 -0.403458 1.123255
  H 0.427244 -0.408183 -0.715525
  H 1.846572 0.989753 0.216782
  H 3.972824 0.748383 1.439612
  H 3.787345 -1.006967 1.369849
  H 1.810362 -0.888308 2.828967
  H 1.873484 0.880727 2.817752
  H 4.050601 -0.958934 3.907590
  H 2.901492 -0.040480 4.878887
  H 4.115571 0.806476 3.910330
  H 5.095364 0.191101 -0.397556
  H 4.491990 0.294824 -3.395281
 22
 68.484666
  C 0.988335 -0.410626 0.200938
  C 2.372843 0.100770 0.175003
  C 3.234681 -0.055530 1.433902
  C 2.479671 -0.017850 2.759660
  C 3.451089 -0.056588 3.937634
  C 3.078724 0.133796 -1.096060
  H 2.460136 0.146489 -1.982487
  C 4.464708 0.212995 -1.275885
  C 5.066748 0.284403 -2.485307
  H 6.135419 0.312038 -2.583592
  H 0.435580 -0.411614 1.112402
  H 0.441756 -0.450997 -0.721072
  H 1.887878 1.038879 0.209981
  H 3.975910 0.749812 1.440074
  H 3.777207 -1.003336 1.363621
  H 1.810007 -0.871180 2.830713
  H 1.878662 0.897284 2.822546
  H 4.048412 -0.957915 3.905477
  H 2.907202 -0.038094 4.884559
  H 4.125333 0.803032 3.910976
  H 5.093516 0.199181 -0.396299
  H 4.492129 0.297507 -3.397250
