 16
 0.000000
  C 0.975997 0.127160 0.368801
  C 2.433874 0.103123 0.309037
  H 3.007127 0.444930 1.158940
  C 3.070378 -0.352212 -0.823929
  C 4.465381 -0.404828 -0.956842
  C 5.143282 -0.851630 -2.071237
  C 4.577261 -1.350686 -3.315642
  H 3.495866 -1.373843 -3.373845
  H 6.225474 -0.841473 -2.046406
  H 0.598012 0.506737 1.312781
  H 0.577106 -0.876135 0.198662
  H 0.577029 0.733468 -0.448439
  H 2.437267 -0.679785 -1.638187
  H 5.056748 -0.066724 -0.115516
  H 4.978475 -2.352211 -3.498466
  H 4.978828 -0.753276 -4.139792
 16
 0.173366
  C 0.968307 0.173811 0.387428
  C 2.415474 0.038068 0.293092
  H 3.008024 0.230980 1.180097
  C 3.051776 -0.373976 -0.855737
  C 4.449312 -0.376874 -0.982186
  C 5.149874 -0.840736 -2.075344
  C 4.603097 -1.348202 -3.321618
  H 3.519407 -1.346603 -3.372534
  H 6.230965 -0.827891 -2.008107
  H 0.653108 0.641217 1.311566
  H 0.502039 -0.816333 0.320287
  H 0.569603 0.715415 -0.473611
  H 2.443997 -0.759439 -1.662645
  H 5.016855 0.028322 -0.155169
  H 4.989898 -2.355876 -3.500630
  H 5.011723 -0.764585 -4.153347
 16
 1.888455
  C 0.965999 0.218732 0.377744
  C 2.400523 -0.028105 0.303465
  H 2.964995 -0.007217 1.227290
  C 3.050842 -0.370891 -0.862932
  C 4.447282 -0.342051 -0.995462
  C 5.150266 -0.797111 -2.088025
  C 4.608761 -1.362824 -3.316327
  H 3.525512 -1.365935 -3.370000
  H 6.230025 -0.753641 -2.029534
  H 0.684065 0.723460 1.294483
  H 0.431493 -0.737092 0.352097
  H 0.608342 0.764466 -0.498805
  H 2.457144 -0.799355 -1.657853
  H 5.007774 0.088156 -0.178133
  H 4.995596 -2.381914 -3.440437
  H 5.014691 -0.824196 -4.168119
 16
 6.121011
  C 0.981960 0.300605 0.351808
  C 2.372463 -0.135456 0.324081
  H 2.859160 -0.299328 1.279044
  C 3.052171 -0.427708 -0.840947
  C 4.439674 -0.318295 -1.004045
  C 5.142482 -0.759739 -2.098461
  C 4.610918 -1.393936 -3.299043
  H 3.531490 -1.503478 -3.305985
  H 6.217554 -0.626492 -2.078286
  H 0.730162 0.779524 1.294889
  H 0.318403 -0.567672 0.257637
  H 0.748941 0.944890 -0.491458
  H 2.480747 -0.961030 -1.594027
  H 4.985187 0.198004 -0.225347
  H 5.081525 -2.371285 -3.422644
  H 4.925657 -0.825373 -4.175960
 16
 11.899954
  C 0.980551 0.346734 0.366356
  C 2.327741 -0.210081 0.300169
  H 2.738438 -0.601581 1.226135
  C 3.051337 -0.371257 -0.871483
  C 4.432452 -0.230567 -1.044546
  C 5.145724 -0.729765 -2.105280
  C 4.627940 -1.461942 -3.260171
  H 3.552517 -1.618282 -3.241152
  H 6.213337 -0.546969 -2.109301
  H 0.771415 0.727508 1.364305
  H 0.234904 -0.432682 0.184329
  H 0.823928 1.110274 -0.389356
  H 2.492223 -0.924655 -1.616207
  H 4.964363 0.341850 -0.293696
  H 5.135462 -2.426201 -3.336240
  H 4.905274 -0.926958 -4.171884
 16
 19.598055
  C 0.987916 0.390100 0.351045
  C 2.274752 -0.296159 0.273320
  H 2.572999 -0.847528 1.156543
  C 3.083111 -0.362976 -0.856388
  C 4.436781 -0.170019 -1.072971
  C 5.148482 -0.674773 -2.129724
  C 4.634368 -1.497990 -3.222387
  H 3.571351 -1.700942 -3.149551
  H 6.206038 -0.442114 -2.163599
  H 0.827576 0.743605 1.368907
  H 0.161860 -0.290263 0.161629
  H 0.917673 1.208452 -0.367780
  H 2.490688 -0.967949 -1.549123
  H 4.961252 0.418121 -0.332129
  H 5.180010 -2.444517 -3.258035
  H 4.845110 -1.005117 -4.171807
 16
 31.047972
  C 0.989417 0.415068 0.305674
  C 2.218239 -0.362832 0.241835
  H 2.392079 -1.044265 1.075665
  C 3.165761 -0.319134 -0.778871
  C 4.478291 -0.106358 -1.083887
  C 5.161049 -0.628866 -2.160888
  C 4.612071 -1.535524 -3.174242
  H 3.566369 -1.768900 -3.010860
  H 6.200819 -0.355836 -2.257843
  H 0.837588 0.722151 1.342280
  H 0.113146 -0.187399 0.059341
  H 1.010945 1.273287 -0.359561
  H 2.495739 -0.998032 -1.369698
  H 5.021054 0.516017 -0.382907
  H 5.191138 -2.459164 -3.197554
  H 4.728541 -1.086959 -4.168357
 16
 38.441441
  C 0.994398 0.409534 0.229543
  C 2.213284 -0.408638 0.226948
  H 2.294362 -1.140209 1.039211
  C 3.262877 -0.297330 -0.652392
  C 4.534110 -0.084054 -1.054521
  C 5.160161 -0.599188 -2.174571
  C 4.556933 -1.533411 -3.138196
  H 3.529775 -1.791663 -2.891818
  H 6.182763 -0.299932 -2.344246
  H 0.810844 0.730548 1.253773
  H 0.122778 -0.181897 -0.054209
  H 1.066964 1.266548 -0.434021
  H 2.486129 -1.040331 -1.141910
  H 5.096024 0.590171 -0.414762
  H 5.151529 -2.446800 -3.192272
  H 4.583057 -1.097017 -4.139244
 16
 38.921428
  C 1.002811 0.403572 0.160162
  C 2.193705 -0.478913 0.214453
  H 2.189937 -1.212999 1.023156
  C 3.314054 -0.337973 -0.548012
  C 4.548977 -0.093766 -1.014675
  C 5.148973 -0.576145 -2.162326
  C 4.531487 -1.507399 -3.124218
  H 3.529089 -1.812066 -2.841187
  H 6.153736 -0.250665 -2.378783
  H 0.935983 0.913392 1.119629
  H 0.091420 -0.178927 0.054227
  H 1.068654 1.143787 -0.631621
  H 2.433554 -1.094866 -0.973443
  H 5.110813 0.596780 -0.396562
  H 5.155744 -2.395297 -3.233856
  H 4.496370 -1.046861 -4.113371
 16
 36.941716
  C 1.027079 0.405038 0.118883
  C 2.190379 -0.566899 0.177557
  H 2.199708 -1.196699 1.069366
  C 3.371354 -0.324680 -0.467327
  C 4.546600 -0.082396 -1.020189
  C 5.136903 -0.544485 -2.183687
  C 4.517955 -1.495450 -3.121805
  H 3.524762 -1.810134 -2.819747
  H 6.125877 -0.192808 -2.425507
  H 0.923015 0.882649 1.089523
  H 0.102398 -0.125384 -0.088885
  H 1.183205 1.168632 -0.636418
  H 2.187401 -1.265948 -0.738608
  H 5.108749 0.629443 -0.413072
  H 5.156109 -2.376259 -3.229846
  H 4.463417 -1.048867 -4.115473
 16
 35.285091
  C 1.063056 0.418239 0.074184
  C 2.178249 -0.623101 0.190011
  H 2.212425 -1.107030 1.167416
  C 3.387088 -0.387747 -0.420473
  C 4.517333 -0.102243 -1.022752
  C 5.112734 -0.522572 -2.197259
  C 4.509756 -1.492333 -3.129088
  H 3.534365 -1.841401 -2.803294
  H 6.080181 -0.124910 -2.451689
  H 0.846072 0.827805 1.055897
  H 0.152253 -0.035933 -0.304880
  H 1.348979 1.230247 -0.586706
  H 2.007645 -1.451678 -0.549746
  H 5.067296 0.620709 -0.409743
  H 5.176554 -2.349876 -3.255619
  H 4.417879 -1.042592 -4.122426
 16
 34.783109
  C 1.094835 0.446660 0.095969
  C 2.138248 -0.687867 0.195394
  H 2.218489 -1.102715 1.206945
  C 3.351026 -0.479659 -0.433343
  C 4.454946 -0.130582 -1.041849
  C 5.107401 -0.518220 -2.198824
  C 4.561275 -1.495172 -3.150824
  H 3.627257 -1.926386 -2.815265
  H 6.057574 -0.062346 -2.435847
  H 0.823816 0.778814 1.090347
  H 0.193892 0.103986 -0.399420
  H 1.486542 1.293831 -0.455842
  H 1.810295 -1.529190 -0.448995
  H 4.942831 0.635962 -0.424986
  H 5.288788 -2.289338 -3.320868
  H 4.410269 -1.022585 -4.123164
 16
 33.835415
  C 1.102941 0.422316 0.012870
  C 2.136721 -0.701481 0.210974
  H 2.239724 -0.983849 1.267372
  C 3.366043 -0.541967 -0.398249
  C 4.476141 -0.183182 -0.990576
  C 5.113431 -0.514224 -2.172645
  C 4.535179 -1.420151 -3.176839
  H 3.587356 -1.841332 -2.858906
  H 6.071913 -0.071717 -2.387030
  H 0.959934 0.961399 0.943711
  H 0.144344 0.010585 -0.289227
  H 1.429117 1.127544 -0.745559
  H 1.771241 -1.642874 -0.242293
  H 5.000903 0.507074 -0.316438
  H 5.238413 -2.226324 -3.397077
  H 4.394082 -0.886623 -4.120659
