 19
 0.000000
  H 1.405785 0.160568 0.452721
  C 2.485996 0.142322 0.406324
  C 3.234393 0.610772 1.570441
  H 2.582116 0.933486 2.373939
  C 3.045912 -0.327869 -0.763586
  C 4.427113 -0.417159 -0.986992
  C 5.078902 -0.868342 -2.112273
  C 4.606537 -1.383025 -3.396350
  C 3.127106 -1.507676 -3.708379
  H 3.006752 -1.909479 -4.711008
  H 6.161526 -0.846388 -2.057487
  H 3.896564 1.434305 1.293003
  H 3.897331 -0.175004 1.940112
  H 2.367431 -0.639614 -1.538471
  H 5.068103 -0.092459 -0.178415
  H 5.089064 -2.363191 -3.526993
  H 5.089696 -0.764954 -4.167902
  H 2.633360 -0.539538 -3.676996
  H 2.632893 -2.185958 -3.017169
 19
 0.340607
  H 1.420703 0.029058 0.513329
  C 2.500224 0.079946 0.428176
  C 3.223361 0.697477 1.535561
  H 2.556264 1.008849 2.331088
  C 3.054346 -0.429943 -0.726464
  C 4.437243 -0.542916 -0.949251
  C 5.088004 -0.921077 -2.101227
  C 4.607966 -1.363298 -3.409400
  C 3.127651 -1.451979 -3.722552
  H 2.996611 -1.810524 -4.740251
  H 6.168354 -0.883086 -2.046637
  H 3.795502 1.559411 1.189977
  H 3.973620 0.011597 1.931795
  H 2.344277 -0.735029 -1.477295
  H 5.074399 -0.296009 -0.110087
  H 5.080788 -2.343150 -3.590986
  H 5.109610 -0.722728 -4.152727
  H 2.651219 -0.475462 -3.648251
  H 2.620971 -2.148368 -3.055412
 19
 1.863713
  H 1.429296 0.036463 0.498834
  C 2.511025 0.093772 0.414688
  C 3.216622 0.663786 1.559873
  H 2.529478 0.940353 2.349644
  C 3.067788 -0.380592 -0.761248
  C 4.443214 -0.488918 -0.977584
  C 5.098182 -0.891328 -2.127973
  C 4.607486 -1.365932 -3.413589
  C 3.122984 -1.474881 -3.708978
  H 2.981142 -1.877654 -4.707247
  H 6.180745 -0.861338 -2.069182
  H 3.797102 1.539866 1.264476
  H 3.949611 -0.050214 1.954604
  H 2.325212 -0.625630 -1.497436
  H 5.082348 -0.225165 -0.143805
  H 5.079371 -2.353678 -3.559448
  H 5.109527 -0.768872 -4.181776
  H 2.639031 -0.498216 -3.667245
  H 2.627351 -2.141202 -3.007151
 19
 2.179991
  H 1.444950 -0.076298 0.537010
  C 2.510402 0.038160 0.433631
  C 3.195626 0.720634 1.536823
  H 2.514309 1.019216 2.317258
  C 3.076189 -0.459202 -0.721263
  C 4.448960 -0.555424 -0.953835
  C 5.101349 -0.912511 -2.117466
  C 4.609572 -1.355125 -3.418340
  C 3.119513 -1.433415 -3.709080
  H 2.966450 -1.796964 -4.723919
  H 6.187773 -0.871268 -2.066996
  H 3.750925 1.588231 1.173292
  H 3.973144 0.076605 1.946245
  H 2.321530 -0.723214 -1.447420
  H 5.079702 -0.347253 -0.110601
  H 5.064574 -2.339163 -3.588444
  H 5.103121 -0.726004 -4.171113
  H 2.657869 -0.451329 -3.638449
  H 2.613073 -2.110779 -3.021587
 19
 1.914239
  H 1.450658 -0.150426 0.636452
  C 2.513487 -0.011540 0.486251
  C 3.195739 0.748754 1.531625
  H 2.522107 1.069000 2.307704
  C 3.056531 -0.498122 -0.692680
  C 4.436537 -0.597775 -0.936487
  C 5.083181 -0.910761 -2.106960
  C 4.598310 -1.335660 -3.415128
  C 3.121989 -1.407949 -3.724983
  H 2.994793 -1.748880 -4.752483
  H 6.162219 -0.881222 -2.065101
  H 3.666999 1.622468 1.106570
  H 4.017960 0.164739 1.946039
  H 2.343463 -0.736121 -1.456376
  H 5.088597 -0.429137 -0.075379
  H 5.054629 -2.334187 -3.585620
  H 5.093645 -0.708029 -4.171708
  H 2.659190 -0.433159 -3.651157
  H 2.611852 -2.118982 -3.079300
 19
 2.047520
  H 1.458435 -0.165622 0.638594
  C 2.513448 -0.010956 0.487206
  C 3.198130 0.763229 1.517976
  H 2.503203 1.142311 2.258660
  C 3.046784 -0.507975 -0.686322
  C 4.426394 -0.614359 -0.935656
  C 5.076123 -0.906948 -2.110161
  C 4.594675 -1.311978 -3.425798
  C 3.118475 -1.433473 -3.713515
  H 2.978708 -1.773485 -4.723977
  H 6.157532 -0.847046 -2.067535
  H 3.763688 1.583205 1.094542
  H 3.944187 0.126447 2.016800
  H 2.326283 -0.727786 -1.443852
  H 5.063574 -0.446874 -0.074007
  H 5.092901 -2.274332 -3.651327
  H 5.061338 -0.627229 -4.158620
  H 2.624661 -0.478959 -3.610760
  H 2.646456 -2.161814 -3.053207
 19
 3.740339
  H 1.493749 -0.268763 0.635548
  C 2.543535 -0.087909 0.501655
  C 3.159170 0.807611 1.487873
  H 2.422570 1.243001 2.147646
  C 3.104231 -0.594798 -0.639865
  C 4.474461 -0.678083 -0.911968
  C 5.099175 -0.938135 -2.105660
  C 4.587170 -1.290577 -3.427251
  C 3.092042 -1.374152 -3.691532
  H 2.930538 -1.661702 -4.713940
  H 6.177438 -0.918169 -2.066735
  H 3.721265 1.584198 1.001292
  H 3.901818 0.246291 2.084171
  H 2.346813 -0.808436 -1.401548
  H 5.120860 -0.548244 -0.051572
  H 5.048334 -2.242927 -3.684240
  H 5.056955 -0.591745 -4.135870
  H 2.607551 -0.400546 -3.535158
  H 2.617904 -2.118529 -3.064608
 19
 3.459113
  H 1.503842 -0.304785 0.663729
  C 2.551967 -0.077674 0.509837
  C 3.136860 0.838884 1.480552
  H 2.392507 1.257560 2.137404
  C 3.106989 -0.621880 -0.633921
  C 4.478663 -0.721979 -0.899351
  C 5.095143 -1.048429 -2.085723
  C 4.577359 -1.320675 -3.420058
  C 3.087815 -1.276463 -3.698767
  H 2.914431 -1.494295 -4.757044
  H 6.186175 -1.096921 -2.038605
  H 3.702346 1.634272 0.987799
  H 3.879775 0.298941 2.089927
  H 2.349335 -0.860107 -1.356983
  H 5.132198 -0.554302 -0.046910
  H 4.973442 -2.303337 -3.717820
  H 5.098175 -0.634901 -4.106664
  H 2.677536 -0.285071 -3.488082
  H 2.551816 -2.023864 -3.114340
 19
 4.146250
  H 1.552092 -0.500776 0.794052
  C 2.559515 -0.171607 0.564237
  C 3.112500 0.880207 1.401647
  H 2.385846 1.254915 2.114567
  C 3.112972 -0.725656 -0.571228
  C 4.480695 -0.756472 -0.864906
  C 5.092938 -1.059745 -2.055899
  C 4.561309 -1.291528 -3.403172
  C 3.071349 -1.200478 -3.682481
  H 2.894620 -1.383890 -4.741274
  H 6.176332 -1.131348 -2.014856
  H 3.500182 1.698461 0.799265
  H 3.988010 0.499242 1.947841
  H 2.394188 -0.985074 -1.326542
  H 5.139068 -0.596699 -0.024098
  H 4.937340 -2.279133 -3.727007
  H 5.096555 -0.598082 -4.061246
  H 2.682923 -0.209685 -3.442329
  H 2.516043 -1.954630 -3.128445
 19
 6.833575
  H 1.580936 -0.512636 0.808547
  C 2.583202 -0.181905 0.571163
  C 3.084568 0.937086 1.369644
  H 2.310971 1.374153 1.983174
  C 3.142691 -0.749197 -0.553074
  C 4.504308 -0.885151 -0.850854
  C 5.101220 -1.071264 -2.074590
  C 4.550675 -1.214175 -3.417845
  C 3.046471 -1.229354 -3.638504
  H 2.843934 -1.350011 -4.698477
  H 6.185694 -1.039509 -2.069495
  H 3.543866 1.699282 0.737349
  H 3.895272 0.582045 2.022298
  H 2.374668 -0.915108 -1.283324
  H 5.164291 -0.876251 0.013752
  H 4.986805 -2.143108 -3.824848
  H 5.005079 -0.433970 -4.030827
  H 2.591101 -0.291419 -3.318609
  H 2.578850 -2.064702 -3.120213
 19
 12.804018
  H 1.647152 -0.600625 0.839846
  C 2.616198 -0.203367 0.551261
  C 2.992711 1.007995 1.268083
  H 2.182712 1.383245 1.879146
  C 3.232897 -0.856039 -0.479892
  C 4.577280 -1.011043 -0.832567
  C 5.141402 -1.105690 -2.078928
  C 4.540269 -1.183423 -3.416769
  C 3.029541 -1.131900 -3.572454
  H 2.773076 -1.223632 -4.630185
  H 6.224659 -1.110665 -2.099864
  H 3.330669 1.790399 0.587412
  H 3.851862 0.783697 1.915694
  H 2.381320 -0.979320 -1.158547
  H 5.253398 -1.061471 0.014589
  H 4.918824 -2.108404 -3.864238
  H 5.007030 -0.392599 -4.027459
  H 2.636380 -0.187636 -3.216515
  H 2.549491 -1.957232 -3.045016
 19
 24.925850
  H 1.631293 -0.654171 0.827151
  C 2.584483 -0.237398 0.528885
  C 2.917018 1.020410 1.226110
  H 2.095382 1.358798 1.848838
  C 3.324084 -0.833139 -0.463894
  C 4.646736 -0.971612 -0.852571
  C 5.185263 -1.120713 -2.118794
  C 4.531435 -1.188141 -3.435518
  C 3.016422 -1.081319 -3.517227
  H 2.705260 -1.152509 -4.557856
  H 6.267307 -1.177720 -2.166663
  H 3.186329 1.818076 0.537530
  H 3.793810 0.830343 1.851326
  H 2.371451 -0.910579 -1.014681
  H 5.339439 -1.015300 -0.018102
  H 4.858651 -2.128627 -3.899024
  H 4.992804 -0.413030 -4.062361
  H 2.675107 -0.122085 -3.133290
  H 2.538416 -1.894123 -2.971671
