 21
 0.000000
  C 0.833289 0.046383 0.313713
  C 2.320661 0.058201 0.104228
  C 3.228699 -0.010619 1.323961
  C 2.572252 -0.088148 2.697875
  H 3.336645 -0.131575 3.467567
  C 2.914108 0.125298 -1.084850
  C 2.376649 0.204602 -2.490297
  C 0.875760 0.219728 -2.758284
  H 0.703078 0.280169 -3.829466
  H 3.997967 0.125901 -1.095513
  H 0.567283 -0.012880 1.363941
  H 0.381794 -0.814439 -0.172878
  H 0.381795 0.956483 -0.072949
  H 3.876644 0.871324 1.313275
  H 3.876647 -0.885763 1.214129
  H 1.951525 -0.978788 2.784699
  H 1.951529 0.787055 2.884342
  H 2.802748 -0.643098 -3.041011
  H 2.802749 1.108877 -2.942154
  H 0.400882 1.078921 -2.293582
  H 0.400875 -0.686296 -2.393185
 21
 13.197593
  C 0.690669 0.043476 0.365219
  C 2.352496 0.056798 0.129099
  C 3.258255 -0.011231 1.334791
  C 2.594679 -0.088547 2.704908
  H 3.359375 -0.132104 3.476894
  C 2.961032 0.128737 -1.145795
  C 2.412477 0.207328 -2.538594
  C 0.907266 0.220268 -2.767873
  H 0.709018 0.280555 -3.836286
  H 4.044329 0.128983 -1.150121
  H 0.456151 -0.016002 1.419244
  H 0.257173 -0.817585 -0.128151
  H 0.257174 0.954576 -0.028150
  H 3.907441 0.870303 1.322695
  H 3.907445 -0.885807 1.223603
  H 1.975661 -0.979194 2.790643
  H 1.975656 0.786797 2.890294
  H 2.832786 -0.639493 -3.095398
  H 2.832785 1.111409 -2.996597
  H 0.444181 1.078614 -2.291061
  H 0.444175 -0.686271 -2.390646
 21
 39.531766
  C 0.522489 0.040602 0.416310
  C 2.443531 0.057328 0.119898
  C 3.306059 -0.009988 1.312924
  C 2.596075 -0.085559 2.652140
  H 3.330235 -0.130411 3.446932
  C 3.009070 0.130071 -1.169232
  C 2.445401 0.207660 -2.544316
  C 0.933212 0.218631 -2.738676
  H 0.711584 0.278414 -3.798213
  H 4.086622 0.129525 -1.159615
  H 0.370756 -0.020127 1.492545
  H 0.139337 -0.834307 -0.092846
  H 0.139337 0.967249 0.008813
  H 3.960054 0.869482 1.313958
  H 3.960061 -0.883996 1.215008
  H 1.974670 -0.977826 2.714032
  H 1.974728 0.793988 2.814000
  H 2.865623 -0.636806 -3.107021
  H 2.865630 1.110066 -3.008459
  H 0.481368 1.080530 -2.250050
  H 0.481290 -0.692880 -2.350050
 21
 66.931390
  C 0.328824 0.039924 0.428338
  C 2.534946 0.060008 0.072365
  C 3.372390 -0.010132 1.315333
  C 2.615650 -0.085261 2.646500
  H 3.326692 -0.131621 3.468261
  C 3.053721 0.132000 -1.203374
  C 2.470000 0.208622 -2.561339
  C 0.961101 0.216771 -2.705849
  H 0.703978 0.276061 -3.756232
  H 4.131831 0.132576 -1.213559
  H 0.249218 -0.020621 1.501349
  H 0.004004 -0.847505 -0.093036
  H 0.004009 0.980404 0.010105
  H 4.029183 0.877552 1.340836
  H 4.029175 -0.895038 1.240804
  H 1.991350 -0.978842 2.687103
  H 1.991379 0.798046 2.787376
  H 2.874106 -0.632326 -3.134997
  H 2.874098 1.108759 -3.036755
  H 0.527604 1.078463 -2.199920
  H 0.527511 -0.696504 -2.299979
 21
 88.887433
  C 0.157931 0.039340 0.438698
  C 2.660051 0.062067 0.035919
  C 3.432371 -0.009386 1.302165
  C 2.613990 -0.082416 2.596258
  H 3.278616 -0.130269 3.444398
  C 3.142438 0.132487 -1.211969
  C 2.510188 0.209330 -2.573948
  C 0.973455 0.212484 -2.629905
  H 0.649146 0.270470 -3.657425
  H 4.223881 0.134994 -1.256284
  H 0.117170 -0.021195 1.511435
  H -0.112563 -0.847618 -0.101390
  H -0.112561 0.981445 0.001813
  H 4.087743 0.878102 1.360104
  H 4.087784 -0.897802 1.259879
  H 1.984612 -0.974658 2.602820
  H 1.984638 0.803388 2.703150
  H 2.886598 -0.638579 -3.166177
  H 2.886562 1.118452 -3.067031
  H 0.568399 1.072620 -2.091138
  H 0.568350 -0.702873 -2.191259
 21
 103.845835
  C -0.013018 0.036371 0.491465
  C 2.761052 0.064713 -0.011133
  C 3.486584 -0.008511 1.286441
  C 2.599507 -0.079153 2.538115
  H 3.222141 -0.129752 3.434736
  C 3.211745 0.134323 -1.244679
  C 2.533443 0.210127 -2.588080
  C 1.019754 0.208979 -2.567854
  H 0.637163 0.266557 -3.588110
  H 4.317150 0.139141 -1.330008
  H -0.002148 -0.024693 1.573538
  H -0.250513 -0.861274 -0.062784
  H -0.250508 0.990704 0.041697
  H 4.133038 0.870434 1.369129
  H 4.132977 -0.891105 1.269708
  H 1.968290 -0.965435 2.505000
  H 1.968312 0.805202 2.604914
  H 2.888027 -0.633508 -3.187351
  H 2.888021 1.115834 -3.088647
  H 0.646060 1.065712 -2.005341
  H 0.645998 -0.705729 -2.105227
 21
 112.437634
  C -0.169280 0.031154 0.584010
  C 2.839782 0.066474 -0.042350
  C 3.514830 -0.007389 1.266573
  C 2.577778 -0.075405 2.471779
  H 3.157997 -0.127660 3.397850
  C 3.282827 0.136596 -1.284982
  C 2.577205 0.211003 -2.603619
  C 1.065970 0.206831 -2.529919
  H 0.641351 0.263596 -3.535803
  H 4.376812 0.143667 -1.410228
  H -0.116589 -0.029394 1.657009
  H -0.371330 -0.859694 0.030064
  H -0.371322 0.978678 0.133789
  H 4.156614 0.874372 1.375980
  H 4.156599 -0.895831 1.276087
  H 1.946038 -0.957558 2.405954
  H 1.946042 0.808531 2.505611
  H 2.914025 -0.632393 -3.209447
  H 2.914018 1.117204 -3.110713
  H 0.714424 1.060090 -1.951306
  H 0.714407 -0.706184 -2.050945
 21
 117.765335
  C -0.325001 0.027960 0.640323
  C 2.954873 0.069495 -0.096256
  C 3.566796 -0.005559 1.233827
  C 2.549838 -0.070984 2.393127
  H 3.072120 -0.125329 3.356122
  C 3.371466 0.138483 -1.318787
  C 2.612515 0.210749 -2.599332
  C 1.104572 0.201371 -2.433190
  H 0.615441 0.256754 -3.414454
  H 4.464039 0.147669 -1.481609
  H -0.253396 -0.030956 1.684408
  H -0.512030 -0.875444 0.075883
  H -0.512020 0.989142 0.181089
  H 4.204728 0.874377 1.376230
  H 4.204669 -0.895832 1.276323
  H 1.919185 -0.949117 2.287196
  H 1.919086 0.813601 2.386658
  H 2.918535 -0.638600 -3.226097
  H 2.918548 1.125234 -3.126562
  H 0.784641 1.052226 -1.832712
  H 0.784648 -0.711631 -1.932264
 21
 119.942239
  C -0.473411 0.023901 0.712306
  C 3.048912 0.071470 -0.130994
  C 3.595430 -0.005255 1.228862
  C 2.525031 -0.066246 2.309788
  H 2.981348 -0.121336 3.286199
  C 3.451922 0.140709 -1.358046
  C 2.642363 0.211587 -2.614376
  C 1.141776 0.198001 -2.373824
  H 0.609457 0.250887 -3.311439
  H 4.532302 0.151994 -1.557818
  H -0.389443 -0.037086 1.793263
  H -0.633664 -0.862942 0.152227
  H -0.633649 0.968073 0.255567
  H 4.224157 0.874064 1.410788
  H 4.224212 -0.899495 1.310714
  H 1.902777 -0.935961 2.164858
  H 1.902752 0.814259 2.263605
  H 2.922448 -0.638856 -3.254421
  H 2.922383 1.128518 -3.154590
  H 0.853902 1.033099 -1.766268
  H 0.854075 -0.699818 -1.864310
 21
 120.636574
  C -0.616363 0.018346 0.811036
  C 3.148775 0.073066 -0.158794
  C 3.631060 -0.004480 1.215467
  C 2.496313 -0.062046 2.235353
  H 2.901758 -0.119390 3.252009
  C 3.536006 0.142250 -1.384728
  C 2.667967 0.212930 -2.637451
  C 1.176217 0.195782 -2.333831
  H 0.592832 0.248294 -3.264596
  H 4.601491 0.154964 -1.609812
  H -0.529458 -0.041717 1.875449
  H -0.759548 -0.871754 0.244745
  H -0.759545 0.966547 0.348463
  H 4.251242 0.875378 1.433064
  H 4.251410 -0.903411 1.332808
  H 1.871756 -0.939875 2.050811
  H 1.871705 0.830914 2.150725
  H 2.921797 -0.626464 -3.280083
  H 2.921741 1.119237 -3.181504
  H 0.909723 1.046311 -1.700832
  H 0.909710 -0.720701 -1.800496
 21
 120.285343
  C -0.757358 0.013249 0.901788
  C 3.236856 0.075089 -0.195005
  C 3.648370 -0.003330 1.194632
  C 2.455119 -0.057303 2.151187
  H 2.799012 -0.115389 3.180501
  C 3.603959 0.144986 -1.433601
  C 2.691431 0.212905 -2.637294
  C 1.217133 0.191572 -2.259572
  H 0.593565 0.241830 -3.150354
  H 4.669788 0.160337 -1.705574
  H -0.677908 -0.046763 1.965256
  H -0.879401 -0.878592 0.328143
  H -0.879358 0.963875 0.432177
  H 4.257812 0.875753 1.445059
  H 4.257853 -0.905053 1.344591
  H 1.841424 -0.925734 1.934507
  H 1.841402 0.829993 2.033573
  H 2.919102 -0.629265 -3.292138
  H 2.919081 1.123434 -3.193232
  H 0.980311 1.040485 -1.614290
  H 0.980309 -0.724651 -1.713862
 21
 120.533846
  C -0.906705 0.006505 1.019627
  C 3.326721 0.077661 -0.241182
  C 3.660959 -0.001205 1.156461
  C 2.402700 -0.051423 2.046155
  H 2.688526 -0.111265 3.106348
  C 3.669576 0.147085 -1.471268
  C 2.717964 0.212315 -2.627372
  C 1.262314 0.187183 -2.183534
  H 0.606763 0.235236 -3.035386
  H 4.747126 0.164640 -1.781935
  H -0.827268 -0.053094 2.075511
  H -1.024806 -0.888291 0.444057
  H -1.024862 0.960898 0.548122
  H 4.267505 0.889862 1.445570
  H 4.267522 -0.919104 1.343436
  H 1.795233 -0.922488 1.792763
  H 1.795143 0.842724 1.892348
  H 2.921619 -0.637530 -3.296010
  H 2.921676 1.132448 -3.196467
  H 1.051444 1.025437 -1.536675
  H 1.051499 -0.718596 -1.635042
 21
 120.196163
  C -1.048626 -0.001875 1.171292
  C 3.392718 0.078714 -0.259381
  C 3.663823 -0.001309 1.158773
  C 2.365646 -0.048250 1.990797
  H 2.600968 -0.107931 3.048596
  C 3.716715 0.149069 -1.506245
  C 2.743159 0.213876 -2.654923
  C 1.295631 0.187747 -2.191973
  H 0.622024 0.235781 -3.043414
  H 4.772684 0.167675 -1.836042
  H -0.966580 -0.061737 2.232315
  H -1.164373 -0.894352 0.596836
  H -1.164253 0.949151 0.701112
  H 4.250204 0.876366 1.473230
  H 4.250172 -0.908759 1.372483
  H 1.769044 -0.914459 1.713997
  H 1.769078 0.843572 1.813197
  H 2.938172 -0.631530 -3.322950
  H 2.938195 1.129202 -3.223691
  H 1.093896 1.029950 -1.538808
  H 1.093915 -0.722545 -1.637738
