 19
 0.000000
  H 1.542884 0.055032 0.160404
  C 2.623465 0.058524 0.098506
  C 3.329269 -0.015906 1.417624
  C 2.344918 -0.081575 2.581381
  H 2.875268 -0.135007 3.528401
  C 3.188358 0.126900 -1.113251
  C 2.330360 0.196245 -2.342191
  H 1.277797 0.181201 -2.075667
  C 4.630464 0.137268 -1.296929
  C 5.260764 0.203151 -2.464592
  H 6.335194 0.206296 -2.520335
  H 3.977298 0.858342 1.544056
  H 3.977311 -0.898831 1.444907
  H 1.709462 -0.959725 2.494063
  H 1.709460 0.800814 2.593398
  H 2.542547 -0.645966 -3.001081
  H 2.542557 1.107246 -2.902171
  H 5.219789 0.086106 -0.390200
  H 4.745955 0.256403 -3.408317
 19
 7.216106
  H 1.562171 0.055652 0.149422
  C 2.642375 0.059607 0.079313
  C 3.358322 -0.014307 1.389272
  C 2.277537 -0.087136 2.679923
  H 2.815892 -0.140194 3.620279
  C 3.198900 0.128154 -1.135452
  C 2.332919 0.197284 -2.360582
  H 1.281607 0.181919 -2.088349
  C 4.641066 0.138933 -1.326437
  C 5.266931 0.205000 -2.497364
  H 6.342047 0.208394 -2.557511
  H 4.002756 0.858654 1.516068
  H 4.002762 -0.895988 1.417060
  H 1.645623 -0.964962 2.591721
  H 1.645621 0.795032 2.691026
  H 2.540778 -0.645014 -3.020066
  H 2.540785 1.108427 -2.921133
  H 5.234104 0.087948 -0.422853
  H 4.747958 0.258116 -3.438677
