17

H 1.433048488104437 -0.07453163877004351 0.04174186704286033
C 2.502916 -0.082175 0.026739
C 3.219639 -0.594706 -0.979448
C 4.657053 -0.605681 -1.000992
C 5.378067 -1.120873 -2.012398
C 6.816197 -1.130857 -2.031995
C 7.534976 -1.642519 -3.03648
C 9.024821 -1.66208 -3.074875
H 3.002959 0.353247 0.881547
H 2.709058 -1.028238 -1.830533
H 5.161466 -0.170837 -0.147324
H 4.874094 -1.555783 -2.8662
H 7.322582 -0.696369 -1.179022
H 7.036287 -2.078741 -3.892841
H 9.458072 -1.208897 -2.185206
H 9.384158 -1.116478 -3.948682
H 9.384155 -2.689681 -3.147321
