 19
 0.000000
  H 1.505719 0.145516 0.416294
  C 2.587338 0.133452 0.384546
  C 3.281415 0.614223 1.576886
  C 2.358370 1.063970 2.698181
  H 2.934866 1.407653 3.551329
  C 3.182048 -0.330490 -0.769097
  C 4.571658 -0.412609 -0.973253
  C 5.175098 -0.873238 -2.122395
  C 4.528283 -1.356611 -3.332334
  H 3.444637 -1.342940 -3.302293
  H 6.258206 -0.881048 -2.139047
  H 3.956817 1.436505 1.298797
  H 3.959088 -0.169784 1.945095
  H 1.719787 0.247859 3.027401
  H 1.717719 1.879458 2.371416
  H 2.527815 -0.651314 -1.566972
  H 5.218776 -0.090905 -0.169091
  H 4.882289 -2.370170 -3.546689
  H 4.884683 -0.771772 -4.186420
 19
 14.015087
  H 1.465884 0.175745 0.491453
  C 2.544783 0.166793 0.467492
  C 3.242978 0.642893 1.648258
  C 2.324468 1.094211 2.773487
  H 2.905923 1.436919 3.624207
  C 3.198951 -0.340607 -0.794214
  C 4.564484 -0.414071 -0.976909
  C 5.225911 -0.917877 -2.233636
  C 4.571284 -1.395939 -3.430323
  H 3.487455 -1.378520 -3.391105
  H 6.305506 -0.923232 -2.244031
  H 3.918453 1.462767 1.366373
  H 3.920800 -0.142013 2.012015
  H 1.686182 0.278875 3.105793
  H 1.684128 1.911275 2.449500
  H 2.544339 -0.660057 -1.588644
  H 5.212648 -0.094015 -0.177004
  H 4.920498 -2.410113 -3.646921
  H 4.922989 -0.812293 -4.286481
 19
 42.568966
  H 1.404621 0.173362 0.485846
  C 2.480555 0.186226 0.516036
  C 3.210794 0.648637 1.662754
  C 2.321629 1.111410 2.816470
  H 2.929346 1.446901 3.649232
  C 3.213434 -0.361019 -0.844946
  C 4.545667 -0.398129 -0.937726
  C 5.280915 -0.942405 -2.294696
  C 4.585922 -1.408605 -3.461841
  H 3.497648 -1.378859 -3.392940
  H 6.359926 -0.926594 -2.251731
  H 3.893842 1.462843 1.359779
  H 3.896300 -0.146653 2.007147
  H 1.685310 0.302371 3.166282
  H 1.683282 1.936235 2.509462
  H 2.529139 -0.672698 -1.619959
  H 5.225335 -0.085971 -0.158257
  H 4.928266 -2.430931 -3.696614
  H 4.931220 -0.831930 -4.336830
 19
 76.489891
  H 1.352624 0.188244 0.522863
  C 2.419527 0.214185 0.585620
  C 3.168243 0.671697 1.720286
  C 2.303437 1.138639 2.884168
  H 2.929919 1.470649 3.708395
  C 3.223998 -0.374074 -0.877481
  C 4.539845 -0.394357 -0.928683
  C 5.344140 -0.979896 -2.388235
  C 4.628679 -1.442949 -3.547402
  H 3.543256 -1.404373 -3.456235
  H 6.413163 -0.950840 -2.312125
  H 3.845997 1.472452 1.408519
  H 3.848662 -0.120379 2.049046
  H 1.667527 0.331561 3.244093
  H 1.665727 1.969135 2.585805
  H 2.523775 -0.675859 -1.628031
  H 5.235728 -0.092303 -0.174853
  H 4.952129 -2.462070 -3.786418
  H 4.955190 -0.871727 -4.423522
 19
 110.394989
  H 1.296494 0.205175 0.565384
  C 2.357650 0.242455 0.655989
  C 3.123377 0.690704 1.767531
  C 2.283656 1.164398 2.948505
  H 2.930198 1.490974 3.759138
  C 3.232266 -0.387194 -0.910331
  C 4.533391 -0.390432 -0.919104
  C 5.402428 -1.017885 -2.482717
  C 4.669989 -1.471032 -3.617291
  H 3.592027 -1.422420 -3.501491
  H 6.464729 -0.977969 -2.379308
  H 3.805217 1.489566 1.438787
  H 3.807689 -0.111352 2.082378
  H 1.650042 0.363128 3.319938
  H 1.648175 1.998554 2.662591
  H 2.513531 -0.678249 -1.634298
  H 5.249218 -0.099767 -0.193598
  H 4.977917 -2.497167 -3.862941
  H 4.981215 -0.899448 -4.503045
 19
 141.389417
  H 1.237486 0.224060 0.612848
  C 2.299359 0.270515 0.725821
  C 3.078978 0.711556 1.818983
  C 2.262899 1.192387 3.018183
  H 2.927918 1.513179 3.813790
  C 3.243436 -0.401071 -0.944851
  C 4.527448 -0.388210 -0.913107
  C 5.458611 -1.057622 -2.581158
  C 4.714932 -1.501194 -3.692622
  H 3.637345 -1.444402 -3.556905
  H 6.519302 -1.009060 -2.455764
  H 3.759865 1.502507 1.477951
  H 3.763001 -0.093177 2.119613
  H 1.630743 0.395182 3.401534
  H 1.628290 2.031532 2.743785
  H 2.497050 -0.684420 -1.650005
  H 5.273200 -0.105624 -0.207633
  H 5.007619 -2.528192 -3.941227
  H 5.011248 -0.930848 -4.580934
 19
 167.603280
  H 1.183344 0.245138 0.665883
  C 2.243778 0.298811 0.796590
  C 3.035270 0.737851 1.884256
  C 2.236178 1.222942 3.094024
  H 2.915727 1.540356 3.880872
  C 3.259612 -0.414842 -0.978436
  C 4.520481 -0.386327 -0.907787
  C 5.514599 -1.096960 -2.678691
  C 4.759652 -1.538194 -3.785231
  H 3.686531 -1.476889 -3.638560
  H 6.571553 -1.040755 -2.533937
  H 3.717182 1.526813 1.534974
  H 3.720212 -0.070704 2.177823
  H 1.605216 0.428150 3.484637
  H 1.602549 2.065161 2.826553
  H 2.488726 -0.688313 -1.659049
  H 5.292240 -0.113910 -0.227781
  H 5.040991 -2.568840 -4.035342
  H 5.044886 -0.965917 -4.676874
 19
 188.224919
  H 1.125918 0.267035 0.720313
  C 2.188054 0.325410 0.862927
  C 2.991023 0.765066 1.952623
  C 2.207210 1.256328 3.177128
  H 2.899997 1.569618 3.954148
  C 3.275873 -0.431697 -1.020904
  C 4.515112 -0.385731 -0.907448
  C 5.568226 -1.136946 -2.778502
  C 4.807809 -1.575711 -3.878401
  H 3.740180 -1.511049 -3.723448
  H 6.621113 -1.073450 -2.615604
  H 3.675127 1.553625 1.595504
  H 3.677902 -0.048856 2.240308
  H 1.577891 0.465387 3.574782
  H 1.575727 2.100921 2.917291
  H 2.477833 -0.691878 -1.668032
  H 5.314098 -0.126422 -0.260893
  H 5.077989 -2.609753 -4.127473
  H 5.081968 -1.000533 -4.771806
 19
 202.734815
  H 1.078098 0.305546 0.817212
  C 2.145376 0.356364 0.941344
  C 2.922908 0.796201 2.030719
  C 2.169369 1.299170 3.282276
  H 2.876867 1.605821 4.042006
  C 3.302026 -0.449471 -1.062925
  C 4.515683 -0.392104 -0.921342
  C 5.617006 -1.180713 -2.888008
  C 4.868636 -1.620384 -3.991066
  H 3.785708 -1.557485 -3.840488
  H 6.674452 -1.117511 -2.725711
  H 3.606703 1.573353 1.659227
  H 3.609876 -0.019880 2.301093
  H 1.541566 0.514356 3.694424
  H 1.539547 2.149503 3.036228
  H 2.473354 -0.692235 -1.666541
  H 5.342803 -0.149578 -0.316287
  H 5.142899 -2.655474 -4.239865
  H 5.146944 -1.043758 -4.884633
 19
 207.061735
  H 1.025804 0.361493 0.959403
  C 2.104292 0.392975 1.036925
  C 2.842778 0.836214 2.132160
  C 2.128759 1.343179 3.386085
  H 2.850028 1.646011 4.134932
  C 3.313936 -0.466622 -1.094394
  C 4.513766 -0.402043 -0.935640
  C 5.655246 -1.226332 -3.003477
  C 4.939023 -1.670300 -4.120921
  H 3.854617 -1.616414 -3.990232
  H 6.727034 -1.177639 -2.879488
  H 3.536775 1.599816 1.745417
  H 3.537553 0.019406 2.385004
  H 1.498457 0.563963 3.807754
  H 1.498495 2.196566 3.147702
  H 2.449535 -0.691501 -1.653462
  H 5.374741 -0.176162 -0.371853
  H 5.233115 -2.703233 -4.372121
  H 5.235970 -1.093737 -5.013002
 19
 209.335035
  H 0.981636 0.406914 1.073113
  C 2.062410 0.429239 1.128229
  C 2.792833 0.876103 2.231238
  C 2.079193 1.386730 3.492009
  H 2.803609 1.689661 4.240577
  C 3.322925 -0.478865 -1.120672
  C 4.515102 -0.410485 -0.952429
  C 5.703504 -1.275946 -3.128015
  C 5.002060 -1.721170 -4.250319
  H 3.914240 -1.673231 -4.133843
  H 6.780241 -1.235442 -3.025123
  H 3.488775 1.635447 1.838803
  H 3.489345 0.058126 2.478013
  H 1.448837 0.608654 3.916459
  H 1.449198 2.241307 3.255487
  H 2.442547 -0.693598 -1.654522
  H 5.391190 -0.194284 -0.412358
  H 5.310059 -2.748186 -4.503022
  H 5.312647 -1.148834 -5.138811
 19
 210.824896
  H 0.935293 0.449716 1.180034
  C 2.018829 0.466181 1.221055
  C 2.745618 0.914579 2.326508
  C 2.036083 1.425005 3.584555
  H 2.761970 1.727050 4.330281
  C 3.332369 -0.489924 -1.143375
  C 4.518011 -0.416311 -0.961798
  C 5.753843 -1.322790 -3.245845
  C 5.058872 -1.768496 -4.371387
  H 3.973190 -1.724127 -4.263086
  H 6.830882 -1.287621 -3.156872
  H 3.443710 1.670942 1.929983
  H 3.443892 0.095927 2.569171
  H 1.406405 0.647917 4.010199
  H 1.407147 2.279628 3.348629
  H 2.436311 -0.695515 -1.654781
  H 5.409621 -0.208984 -0.443338
  H 5.375156 -2.792793 -4.626409
  H 5.377440 -1.198468 -5.258937
 19
 211.781055
  H 0.889698 0.489240 1.278281
  C 1.973808 0.502039 1.310760
  C 2.700428 0.951198 2.417219
  C 1.993940 1.463327 3.677395
  H 2.723863 1.764993 4.421853
  C 3.342679 -0.501137 -1.167692
  C 4.522402 -0.421352 -0.970555
  C 5.806184 -1.369289 -3.363127
  C 5.113810 -1.814334 -4.488436
  H 4.027846 -1.771576 -4.383681
  H 6.884981 -1.337427 -3.282791
  H 3.400494 1.704210 2.016812
  H 3.400249 0.132084 2.655614
  H 1.364104 0.686659 4.105179
  H 1.365318 2.319263 3.442425
  H 2.433583 -0.697645 -1.656650
  H 5.427177 -0.223075 -0.474447
  H 5.434469 -2.836440 -4.745572
  H 5.436580 -1.246519 -5.375514
 19
 212.241258
  H 0.843586 0.527726 1.373687
  C 1.928177 0.538161 1.400861
  C 2.655790 0.987238 2.506279
  C 1.954038 1.500503 3.767302
  H 2.686752 1.800895 4.508259
  C 3.353919 -0.511693 -1.190793
  C 4.527714 -0.425359 -0.977067
  C 5.859711 -1.414812 -3.478078
  C 5.166559 -1.858904 -4.602458
  H 4.081517 -1.816452 -4.498252
  H 6.938114 -1.385203 -3.403472
  H 3.357730 1.737135 2.102219
  H 3.357106 0.167706 2.740698
  H 1.324897 0.725172 4.196922
  H 1.326560 2.356838 3.533754
  H 2.431944 -0.699347 -1.657942
  H 5.445726 -0.235996 -0.503083
  H 5.489006 -2.879858 -4.862076
  H 5.491103 -1.292868 -5.490104
