 17
 0.000000
  C 1.001700 0.131037 0.371515
  C 2.473104 0.135056 0.387173
  C 3.188112 0.613288 1.581161
  H 2.500215 0.925212 2.359672
  C 3.146302 -0.318487 -0.743863
  C 4.534439 -0.374815 -0.879537
  C 5.130460 -0.834545 -2.037314
  H 4.526270 -1.163198 -2.874569
  O 6.403329 -0.925360 -2.258503
  H 0.574299 0.511887 1.293115
  H 0.630234 -0.880230 0.195872
  H 0.631894 0.721612 -0.468833
  H 3.836857 1.453244 1.329705
  H 3.837041 -0.167768 1.979312
  H 2.550571 -0.651975 -1.582299
  H 5.159840 -0.052361 -0.059015
  H 6.970608 -0.631649 -1.518867
 17
 0.513596
  C 1.012401 0.032825 0.399029
  C 2.475082 0.186355 0.375058
  C 3.177358 0.712182 1.554893
  H 2.484351 0.984877 2.348290
  C 3.154174 -0.198657 -0.777010
  C 4.537268 -0.359543 -0.881203
  C 5.124820 -0.803787 -2.048200
  H 4.530566 -0.965890 -2.941042
  O 6.382547 -1.066165 -2.218063
  H 0.590209 0.248230 1.373393
  H 0.747366 -0.982010 0.098726
  H 0.547587 0.691081 -0.342707
  H 3.773883 1.585243 1.286038
  H 3.879332 -0.027432 1.945241
  H 2.561652 -0.443843 -1.645541
  H 5.161405 -0.178683 -0.017999
  H 6.944258 -0.920993 -1.425782
 17
 2.351839
  C 1.033787 -0.037445 0.405568
  C 2.479526 0.248827 0.367275
  C 3.158555 0.786254 1.554550
  H 2.478305 0.901176 2.393524
  C 3.171426 -0.058554 -0.801820
  C 4.530899 -0.347634 -0.880008
  C 5.117376 -0.762140 -2.062521
  H 4.562515 -0.740786 -2.995778
  O 6.329989 -1.195245 -2.201002
  H 0.601297 0.153457 1.380727
  H 0.880779 -1.085847 0.134764
  H 0.499326 0.543950 -0.343342
  H 3.603442 1.757875 1.320017
  H 3.988493 0.146619 1.857023
  H 2.586578 -0.190249 -1.703364
  H 5.130434 -0.337032 0.019465
  H 6.856175 -1.207765 -1.375648
 17
 5.321790
  C 1.088634 -0.132565 0.417314
  C 2.493007 0.293585 0.368228
  C 3.139023 0.865531 1.551295
  H 2.483009 0.867971 2.415803
  C 3.201142 0.054823 -0.812150
  C 4.520463 -0.379626 -0.875056
  C 5.119325 -0.728667 -2.066357
  H 4.631161 -0.527505 -3.015199
  O 6.271846 -1.313928 -2.199299
  H 0.658676 -0.010304 1.404852
  H 1.058870 -1.184305 0.126860
  H 0.475940 0.401252 -0.309594
  H 3.436666 1.892273 1.332896
  H 4.065255 0.346093 1.794715
  H 2.641385 0.079651 -1.740749
  H 5.063989 -0.545921 0.043494
  H 6.740253 -1.494946 -1.351850
 17
 9.464344
  C 1.147814 -0.228661 0.426182
  C 2.507217 0.326407 0.379132
  C 3.118748 0.938875 1.557603
  H 2.472460 0.894009 2.430948
  C 3.228304 0.165502 -0.815018
  C 4.490054 -0.400869 -0.881659
  C 5.108881 -0.709811 -2.073598
  H 4.690011 -0.385601 -3.021257
  O 6.211048 -1.389396 -2.207935
  H 0.730991 -0.205728 1.423864
  H 1.226906 -1.256879 0.071163
  H 0.470737 0.279558 -0.257720
  H 3.341162 1.985549 1.333427
  H 4.087717 0.490084 1.785805
  H 2.707812 0.359456 -1.745372
  H 4.963602 -0.711285 0.041006
  H 6.606362 -1.689106 -1.364261
 17
 14.177465
  C 1.209748 -0.321307 0.450766
  C 2.513530 0.346658 0.390170
  C 3.093433 1.015515 1.558263
  H 2.449080 0.962276 2.431707
  C 3.252429 0.225869 -0.809014
  C 4.459989 -0.442837 -0.894537
  C 5.111368 -0.673929 -2.086116
  H 4.759984 -0.231807 -3.010723
  O 6.162817 -1.428541 -2.246432
  H 0.809963 -0.343583 1.457909
  H 1.361766 -1.335526 0.075919
  H 0.476017 0.145142 -0.210119
  H 3.276161 2.063609 1.308273
  H 4.081235 0.612403 1.795739
  H 2.773146 0.549249 -1.725716
  H 4.858927 -0.892321 0.006216
  H 6.501039 -1.825520 -1.416507
 17
 19.765121
  C 1.277368 -0.409251 0.482854
  C 2.542377 0.332644 0.421837
  C 3.062996 1.086147 1.562923
  H 2.434150 0.996866 2.442667
  C 3.285066 0.261544 -0.787502
  C 4.430183 -0.493814 -0.919112
  C 5.100973 -0.667963 -2.112001
  H 4.797957 -0.142091 -3.007063
  O 6.119977 -1.463512 -2.303798
  H 0.870642 -0.448725 1.488357
  H 1.477803 -1.411526 0.104182
  H 0.523537 0.020335 -0.183075
  H 3.148561 2.139515 1.280789
  H 4.086603 0.783706 1.801039
  H 2.873380 0.757566 -1.658769
  H 4.786809 -1.022829 -0.046186
  H 6.407178 -1.941577 -1.500125
 17
 27.229465
  C 1.390535 -0.517826 0.557309
  C 2.566170 0.339510 0.460293
  C 2.995495 1.199507 1.555583
  H 2.366326 1.101336 2.433777
  C 3.353439 0.293815 -0.754707
  C 4.380737 -0.589075 -0.961596
  C 5.090154 -0.655964 -2.152161
  H 4.859056 -0.001766 -2.982123
  O 6.073972 -1.485719 -2.406631
  H 0.994095 -0.566796 1.566500
  H 1.610322 -1.514657 0.169054
  H 0.606628 -0.134195 -0.103761
  H 3.004848 2.243669 1.228663
  H 4.037759 0.991017 1.810471
  H 3.065600 0.968145 -1.552322
  H 4.657583 -1.259993 -0.158622
  H 6.291090 -2.075626 -1.660149
 17
 18.497389
  C 1.542407 -0.624402 0.605002
  C 2.633357 0.345127 0.479935
  C 2.903860 1.321769 1.536024
  H 2.238903 1.204158 2.384994
  C 3.440969 0.326018 -0.692553
  C 4.345190 -0.677502 -1.006789
  C 5.049058 -0.671579 -2.191361
  H 4.868431 0.083413 -2.945512
  O 5.975901 -1.526585 -2.535304
  H 1.156152 -0.690645 1.614931
  H 1.788035 -1.610502 0.213607
  H 0.736176 -0.280792 -0.050277
  H 2.827613 2.346140 1.159293
  H 3.942137 1.222356 1.854410
  H 3.323949 1.150077 -1.388060
  H 4.532449 -1.457171 -0.282395
  H 6.157352 -2.210179 -1.858887
 17
 11.130997
  C 1.698273 -0.699243 0.649315
  C 2.693060 0.375631 0.515612
  C 2.809072 1.426375 1.533068
  H 2.105183 1.285149 2.346838
  C 3.533777 0.375529 -0.610391
  C 4.302755 -0.708925 -1.020177
  C 4.995834 -0.678127 -2.202947
  H 4.881429 0.149207 -2.893117
  O 5.841826 -1.585744 -2.626547
  H 1.319342 -0.810817 1.659801
  H 2.048183 -1.638074 0.231065
  H 0.853428 -0.425612 0.007165
  H 2.661159 2.418434 1.098046
  H 3.828684 1.436876 1.922936
  H 3.576147 1.278456 -1.206737
  H 4.411101 -1.553486 -0.355827
  H 5.950163 -2.347685 -2.021580
 17
 11.168942
  C 1.856503 -0.718530 0.574350
  C 2.730166 0.459407 0.516311
  C 2.727732 1.473491 1.578411
  H 2.031364 1.224378 2.371914
  C 3.655969 0.480033 -0.531539
  C 4.294321 -0.678564 -0.989857
  C 4.916099 -0.744337 -2.215031
  H 4.778188 0.036937 -2.952875
  O 5.642072 -1.733275 -2.654291
  H 1.498262 -0.966871 1.566159
  H 2.337762 -1.523638 0.020757
  H 0.976991 -0.495302 -0.041661
  H 2.469751 2.458301 1.181972
  H 3.733839 1.581744 1.982726
  H 3.821865 1.400709 -1.075678
  H 4.436637 -1.488176 -0.286470
  H 5.783690 -2.448599 -2.003615
