 23
 0.000000
  C 0.965019 0.150926 0.427977
  C 2.439194 0.136059 0.390718
  C 3.220712 0.602546 1.550333
  H 2.616957 0.937835 2.384394
  C 3.041197 -0.331667 -0.772676
  C 4.417310 -0.413134 -0.976702
  C 5.110577 -0.862230 -2.097295
  C 4.621912 -1.385230 -3.402131
  C 3.134779 -1.503244 -3.696919
  H 3.005063 -1.903709 -4.696313
  O 6.429543 -0.852609 -2.074119
  H 0.574027 0.528728 1.367248
  H 0.575845 -0.854816 0.263279
  H 0.575601 0.762437 -0.387211
  H 3.875420 1.421162 1.244719
  H 3.875694 -0.199518 1.896530
  H 2.370989 -0.645733 -1.553349
  H 5.044003 -0.083383 -0.156413
  H 5.088721 -2.369272 -3.524718
  H 5.088994 -0.758495 -4.170464
  H 2.650940 -0.530748 -3.659163
  H 2.650847 -2.180548 -2.998112
  H 6.821967 -0.521253 -1.245015
 23
 4.779642
  C 0.974495 0.124653 0.361878
  C 2.455768 0.122350 0.356576
  C 3.174469 0.606664 1.561271
  H 2.495193 0.922341 2.346702
  C 3.119520 -0.326389 -0.759795
  C 4.492936 -0.416407 -0.984673
  C 5.165032 -0.875139 -2.129623
  C 4.614219 -1.389807 -3.413313
  C 3.110695 -1.472799 -3.620486
  H 2.922554 -1.871329 -4.614791
  O 6.494270 -0.880813 -2.145322
  H 0.568910 0.499964 1.295265
  H 0.591324 -0.881377 0.189530
  H 0.591279 0.731472 -0.458834
  H 3.823790 1.442022 1.303933
  H 3.823984 -0.174244 1.953701
  H 2.315150 -0.583434 -1.399268
  H 5.127385 -0.088910 -0.169116
  H 5.057813 -2.382423 -3.557625
  H 5.058059 -0.772050 -4.203541
  H 2.648037 -0.492972 -3.562755
  H 2.647833 -2.141448 -2.901957
  H 6.918784 -0.553943 -1.328532
 23
 15.345663
  C 1.005591 0.096413 0.286705
  C 2.475248 0.111639 0.329332
  C 3.130118 0.606506 1.566498
  H 2.418980 0.910487 2.324396
  C 3.191436 -0.325160 -0.759728
  C 4.546977 -0.418903 -0.992517
  C 5.194535 -0.881581 -2.147985
  C 4.598932 -1.388186 -3.408379
  C 3.086616 -1.443919 -3.543489
  H 2.843105 -1.838010 -4.524390
  O 6.497595 -0.897917 -2.193621
  H 0.568732 0.465469 1.206535
  H 0.636879 -0.912551 0.106596
  H 0.638926 0.702804 -0.540378
  H 3.776338 1.451104 1.336702
  H 3.775136 -0.164199 1.983311
  H 2.300556 -0.528507 -1.269321
  H 5.190105 -0.092380 -0.177339
  H 5.021880 -2.387611 -3.569146
  H 5.020476 -0.777111 -4.216055
  H 2.647020 -0.455657 -3.462248
  H 2.648616 -2.102274 -2.801115
  H 6.938895 -0.574126 -1.389302
 23
 28.992627
  C 0.988989 0.095317 0.280829
  C 2.475011 0.111782 0.329540
  C 3.119701 0.612589 1.584743
  H 2.399842 0.916778 2.343353
  C 3.218265 -0.318716 -0.744225
  C 4.570771 -0.420016 -0.994766
  C 5.199630 -0.881055 -2.147796
  C 4.593722 -1.393608 -3.421748
  C 3.084694 -1.454604 -3.566924
  H 2.847330 -1.852247 -4.555311
  O 6.517137 -0.897777 -2.197018
  H 0.550010 0.465729 1.204891
  H 0.613185 -0.920453 0.103110
  H 0.616582 0.710062 -0.548751
  H 3.771204 1.461778 1.358719
  H 3.769012 -0.159898 2.006946
  H 2.254338 -0.472697 -1.132946
  H 5.223635 -0.100002 -0.194460
  H 5.016918 -2.389896 -3.581629
  H 5.014391 -0.783734 -4.227004
  H 2.643098 -0.468619 -3.487301
  H 2.645940 -2.112700 -2.826402
  H 6.958483 -0.574571 -1.396792
 23
 43.528364
  C 0.994736 0.087493 0.260299
  C 2.472651 0.107086 0.317968
  C 3.084643 0.613516 1.587916
  H 2.353051 0.912780 2.333990
  C 3.248965 -0.324156 -0.757334
  C 4.597380 -0.424860 -1.005696
  C 5.210022 -0.887335 -2.163605
  C 4.586933 -1.392321 -3.418615
  C 3.079132 -1.443194 -3.537426
  H 2.823198 -1.838762 -4.520383
  O 6.523027 -0.910389 -2.229945
  H 0.555658 0.455913 1.179380
  H 0.619266 -0.923469 0.085461
  H 0.623101 0.701137 -0.563858
  H 3.733487 1.464246 1.372769
  H 3.731061 -0.152808 2.019115
  H 2.243979 -0.433897 -1.036416
  H 5.260893 -0.108610 -0.213306
  H 5.001064 -2.389109 -3.585389
  H 4.997988 -0.786495 -4.229142
  H 2.646289 -0.453218 -3.448757
  H 2.649700 -2.098078 -2.787558
  H 6.982704 -0.582927 -1.420845
 23
 56.764127
  C 0.980065 0.084871 0.255045
  C 2.460843 0.103035 0.308845
  C 3.070686 0.612090 1.582563
  H 2.339995 0.910480 2.325577
  C 3.262008 -0.330970 -0.771421
  C 4.611647 -0.426972 -1.008430
  C 5.223156 -0.889823 -2.168687
  C 4.589659 -1.391957 -3.418080
  C 3.077225 -1.434481 -3.517433
  H 2.805742 -1.827371 -4.494555
  O 6.536850 -0.915241 -2.241577
  H 0.546638 0.454796 1.175987
  H 0.599705 -0.927688 0.083820
  H 0.603437 0.700810 -0.568463
  H 3.719519 1.462539 1.367980
  H 3.717592 -0.152713 2.014793
  H 2.214804 -0.405676 -0.962319
  H 5.279221 -0.109954 -0.213717
  H 4.998158 -2.391944 -3.587909
  H 4.995475 -0.785499 -4.232560
  H 2.651736 -0.442441 -3.421292
  H 2.654507 -2.085793 -2.761220
  H 6.996108 -0.591086 -1.440314
 23
 68.134245
  C 0.958691 0.087322 0.263851
  C 2.447077 0.099316 0.299849
  C 3.070293 0.609981 1.573944
  H 2.349440 0.909165 2.319541
  C 3.254170 -0.340671 -0.793275
  C 4.607318 -0.428273 -1.009257
  C 5.229306 -0.890926 -2.170316
  C 4.599499 -1.390983 -3.415960
  C 3.079005 -1.430813 -3.511119
  H 2.803816 -1.821348 -4.483178
  O 6.542159 -0.915439 -2.240289
  H 0.541399 0.460530 1.191564
  H 0.568359 -0.926744 0.099593
  H 0.571234 0.707483 -0.556382
  H 3.719480 1.458827 1.354421
  H 3.718964 -0.155741 2.001530
  H 2.184055 -0.382285 -0.901273
  H 5.271019 -0.110136 -0.209575
  H 5.008788 -2.394877 -3.586222
  H 5.007293 -0.782196 -4.233265
  H 2.655696 -0.438236 -3.412213
  H 2.657228 -2.080187 -2.752907
  H 6.995521 -0.592715 -1.441456
 23
 77.903792
  C 0.947585 0.088274 0.271770
  C 2.429396 0.092334 0.281762
  C 3.082836 0.610557 1.567723
  H 2.366998 0.916778 2.331588
  C 3.224451 -0.353535 -0.821537
  C 4.585920 -0.428758 -1.005417
  C 5.221356 -0.888066 -2.160670
  C 4.596537 -1.390867 -3.417016
  C 3.088423 -1.429861 -3.514000
  H 2.813365 -1.821507 -4.491190
  O 6.535637 -0.908576 -2.218746
  H 0.557788 0.463845 1.203466
  H 0.549624 -0.916026 0.118284
  H 0.550127 0.705940 -0.535078
  H 3.732152 1.455355 1.340419
  H 3.734110 -0.155658 1.986905
  H 2.152062 -0.365513 -0.855999
  H 5.243540 -0.110103 -0.199597
  H 5.005378 -2.390981 -3.585769
  H 5.005331 -0.783397 -4.229385
  H 2.669708 -0.443715 -3.413923
  H 2.669266 -2.074091 -2.760040
  H 6.979705 -0.583942 -1.412517
 23
 81.885612
  C 0.925360 0.035497 0.317649
  C 2.429850 0.099531 0.286848
  C 3.072115 0.696189 1.505554
  H 2.357804 1.004663 2.255854
  C 3.238665 -0.390248 -0.792274
  C 4.593933 -0.487262 -0.981633
  C 5.223795 -0.921365 -2.144137
  C 4.601132 -1.372050 -3.414060
  C 3.089318 -1.371261 -3.530292
  H 2.817592 -1.725660 -4.517790
  O 6.538326 -0.973130 -2.195589
  H 0.540509 0.453349 1.248837
  H 0.553875 -0.993238 0.228635
  H 0.488147 0.600858 -0.513495
  H 3.687201 1.559626 1.245655
  H 3.750777 -0.041275 1.936330
  H 2.149470 -0.412105 -0.799402
  H 5.254333 -0.220887 -0.157546
  H 4.988794 -2.377592 -3.609693
  H 5.031520 -0.747087 -4.203712
  H 2.689811 -0.371464 -3.405867
  H 2.642967 -2.033132 -2.796638
  H 6.986917 -0.680838 -1.377800
 23
 84.551402
  C 0.915630 -0.101323 0.338346
  C 2.425673 0.070700 0.249019
  C 3.055984 0.864200 1.393620
  H 2.316218 1.190307 2.117263
  C 3.272164 -0.464556 -0.724730
  C 4.625577 -0.606978 -0.929566
  C 5.242134 -0.985611 -2.108782
  C 4.590102 -1.318235 -3.408370
  C 3.075088 -1.217174 -3.499745
  H 2.764964 -1.486183 -4.510054
  O 6.556296 -1.103216 -2.169518
  H 0.539029 0.399679 1.221078
  H 0.610606 -1.150392 0.394077
  H 0.421262 0.341524 -0.529189
  H 3.595951 1.746068 1.047248
  H 3.785961 0.215748 1.878958
  H 2.161855 -0.552207 -0.727019
  H 5.280436 -0.448662 -0.070470
  H 4.916568 -2.329726 -3.678174
  H 5.048011 -0.661571 -4.157396
  H 2.738450 -0.202470 -3.302211
  H 2.597593 -1.905950 -2.806928
  H 7.016806 -0.886885 -1.337389
 23
 86.313491
  C 0.908320 -0.160309 0.327520
  C 2.431194 0.053053 0.225873
  C 3.019558 0.938598 1.327967
  H 2.262031 1.270851 2.006610
  C 3.322522 -0.500795 -0.660510
  C 4.664566 -0.668901 -0.901095
  C 5.253526 -1.016270 -2.099560
  C 4.566400 -1.275906 -3.394345
  C 3.070776 -1.123840 -3.434072
  H 2.724817 -1.337194 -4.439444
  O 6.565811 -1.166791 -2.196947
  H 0.518220 0.398691 1.184827
  H 0.637169 -1.213306 0.464715
  H 0.398369 0.211124 -0.570732
  H 3.525631 1.818896 0.923220
  H 3.764017 0.349769 1.864035
  H 2.179378 -0.617982 -0.685006
  H 5.319297 -0.571796 -0.040689
  H 4.850062 -2.279251 -3.711416
  H 5.021313 -0.604238 -4.124751
  H 2.777654 -0.111916 -3.185879
  H 2.593108 -1.827254 -2.760517
  H 7.047573 -0.996558 -1.364868
 23
 87.666833
  C 0.925515 -0.224172 0.329617
  C 2.434947 0.052901 0.217776
  C 2.966758 1.035508 1.272688
  H 2.177341 1.376970 1.927740
  C 3.374922 -0.525576 -0.598466
  C 4.706387 -0.734642 -0.870621
  C 5.264181 -1.054647 -2.083160
  C 4.548367 -1.233366 -3.386394
  C 3.041947 -1.022564 -3.397555
  H 2.667078 -1.179027 -4.422357
  O 6.571286 -1.245017 -2.203701
  H 0.517451 0.369974 1.132880
  H 0.707400 -1.273415 0.546009
  H 0.402850 0.057407 -0.590284
  H 3.429343 1.902365 0.812378
  H 3.723768 0.526529 1.852320
  H 2.201497 -0.671393 -0.631936
  H 5.370462 -0.706489 -0.012518
  H 4.792278 -2.243293 -3.752027
  H 5.023635 -0.541059 -4.099649
  H 2.789560 -0.011187 -3.098340
  H 2.546904 -1.737658 -2.749481
  H 7.065960 -1.128614 -1.370782
 23
 88.844663
  C 0.915370 -0.295999 0.357911
  C 2.425360 0.041460 0.212385
  C 2.927855 1.128852 1.173713
  H 2.123494 1.500698 1.812771
  C 3.401266 -0.556197 -0.545467
  C 4.712406 -0.802582 -0.838243
  C 5.258892 -1.090097 -2.077110
  C 4.539602 -1.175763 -3.372236
  C 3.042917 -0.912284 -3.361176
  H 2.661879 -1.000911 -4.380625
  O 6.562470 -1.321155 -2.216958
  H 0.491534 0.339399 1.122130
  H 0.747200 -1.336283 0.653324
  H 0.373370 -0.105230 -0.567351
  H 3.353814 1.970189 0.632688
  H 3.714567 0.699450 1.791766
  H 2.206281 -0.710153 -0.585958
  H 5.382466 -0.831617 0.019848
  H 4.742572 -2.161741 -3.782720
  H 5.030787 -0.476915 -4.044798
  H 2.826501 0.096196 -3.005513
  H 2.524444 -1.646941 -2.745689
  H 7.061463 -1.267441 -1.386796
 23
 89.510083
  C 0.917266 -0.354797 0.422901
  C 2.400286 0.038430 0.200729
  C 2.880231 1.221875 1.052673
  H 2.081108 1.609733 1.677808
  C 3.409005 -0.585156 -0.499171
  C 4.705921 -0.873294 -0.809918
  C 5.247185 -1.120574 -2.056081
  C 4.535677 -1.108128 -3.364434
  C 3.050057 -0.788031 -3.346170
  H 2.671083 -0.805352 -4.376407
  O 6.543066 -1.395303 -2.196683
  H 0.486661 0.329776 1.143644
  H 0.813675 -1.365052 0.813606
  H 0.337161 -0.273865 -0.498969
  H 3.252200 2.033576 0.430646
  H 3.697690 0.882820 1.679867
  H 2.204540 -0.764171 -0.525391
  H 5.371084 -0.967993 0.045234
  H 4.703301 -2.088912 -3.829641
  H 5.062807 -0.388119 -4.002207
  H 2.871399 0.200970 -2.938977
  H 2.501581 -1.531365 -2.778017
  H 7.033773 -1.406385 -1.357994
