 29
 0.000000
  H 1.383975 0.137746 0.394054
  C 2.453972 0.138831 0.396445
  C 3.235887 0.609601 1.567949
  C 2.454651 1.098519 2.785050
  C 3.400218 1.544794 3.895611
  C 3.074760 -0.323868 -0.755623
  C 4.452396 -0.411652 -0.974602
  C 5.123831 -0.863395 -2.100714
  C 4.621920 -1.386396 -3.404454
  C 3.129954 -1.502980 -3.695876
  C 2.901042 -2.064737 -5.096300
  O 6.448567 -0.861790 -2.097024
  H 3.892013 1.422462 1.236076
  H 3.892206 -0.206765 1.890660
  H 1.816409 0.300727 3.170305
  H 1.816264 1.941012 2.511316
  H 4.036296 0.723883 4.220901
  H 2.831617 1.890430 4.756103
  H 4.036115 2.362679 3.562473
  H 2.419633 -0.642347 -1.548686
  H 5.073532 -0.080521 -0.149771
  H 5.075895 -2.376004 -3.531813
  H 5.076265 -0.759449 -4.180462
  H 2.655656 -0.522022 -3.641480
  H 2.655252 -2.174151 -2.978669
  H 3.338077 -1.417822 -5.854009
  H 1.834884 -2.144599 -5.296051
  H 3.337677 -3.056130 -5.196764
  H 6.820588 -0.526463 -1.260938
 29
 0.000000
  H 1.432234 0.128801 0.371787
  C 2.502173 0.133168 0.382336
  C 3.273686 0.606317 1.559763
  C 2.481698 1.092818 2.770869
  C 3.417397 1.541975 3.888603
  C 3.133143 -0.327608 -0.764962
  C 4.449646 -0.425927 -1.010230
  C 5.064158 -0.851719 -2.071657
  C 4.595830 -1.379029 -3.386118
  C 3.111756 -1.508818 -3.710419
  C 2.918831 -2.072451 -5.115505
  O 6.290569 -0.822780 -1.999833
  H 3.929828 1.421191 1.232896
  H 3.930027 -0.208037 1.887476
  H 1.842987 0.293067 3.151254
  H 1.842835 1.933353 2.492269
  H 4.053492 0.723014 4.218740
  H 2.841195 1.885853 4.744733
  H 4.053304 2.361812 3.560316
  H 2.485061 -0.648085 -1.562993
  H 5.088799 -0.099578 -0.197341
  H 5.061271 -2.364559 -3.503318
  H 5.061629 -0.748002 -4.151963
  H 2.627687 -0.532111 -3.666612
  H 2.627298 -2.184242 -3.003806
  H 3.366743 -1.421612 -5.863440
  H 1.858094 -2.161750 -5.338754
  H 3.366358 -3.059922 -5.206200
  H 6.581821 -0.455546 -1.084184
 29
 0.000000
  H 1.479630 0.119970 0.349785
  C 2.549427 0.127867 0.369116
  C 3.309684 0.603537 1.552833
  C 2.506179 1.087402 2.757393
  C 3.431186 1.539623 3.882766
  C 3.191310 -0.330804 -0.772960
  C 4.454812 -0.439686 -1.044567
  C 5.013940 -0.841887 -2.047189
  C 4.574353 -1.372623 -3.370172
  C 3.097645 -1.513574 -3.722260
  C 2.935380 -2.078550 -5.130681
  O 6.140475 -0.791631 -1.922232
  H 3.965794 1.420578 1.231355
  H 3.965996 -0.208652 1.885929
  H 1.867010 0.285540 3.132529
  H 1.866855 1.925829 2.473550
  H 4.067248 0.722760 4.218121
  H 2.846843 1.881583 4.734134
  H 4.067058 2.361559 3.559702
  H 2.550861 -0.653407 -1.576281
  H 5.113484 -0.118758 -0.245211
  H 5.049329 -2.354608 -3.478545
  H 5.049674 -0.738050 -4.127186
  H 2.605489 -0.540547 -3.687617
  H 2.605115 -2.192680 -3.024815
  H 3.392332 -1.424301 -5.870126
  H 1.879721 -2.175828 -5.373793
  H 3.391963 -3.062613 -5.212890
  H 6.337839 -0.391879 -0.925497
 29
 0.000000
  H 1.525846 0.111310 0.328195
  C 2.595392 0.123046 0.357085
  C 3.343329 0.601418 1.547544
  C 2.527360 1.082369 2.744871
  C 3.440643 1.537884 3.878461
  C 3.249098 -0.333293 -0.779205
  C 4.469622 -0.452605 -1.076813
  C 4.975639 -0.834216 -2.028104
  C 4.558407 -1.367455 -3.357307
  C 3.087812 -1.517002 -3.730789
  C 2.949307 -2.082859 -5.141394
  O 6.001434 -0.768810 -1.865378
  H 3.999348 1.420816 1.231933
  H 3.999549 -0.208418 1.886501
  H 1.887746 0.278210 3.114289
  H 1.887592 1.918502 2.455317
  H 4.076612 0.723302 4.219496
  H 2.847492 1.877726 4.724570
  H 4.076423 2.362105 3.561084
  H 2.617016 -0.658178 -1.588212
  H 5.148913 -0.137689 -0.292460
  H 5.040626 -2.346649 -3.458729
  H 5.040959 -0.730090 -4.107370
  H 2.589537 -0.546863 -3.703337
  H 2.589177 -2.198996 -3.040536
  H 3.413122 -1.425928 -5.874157
  H 1.897873 -2.186283 -5.399800
  H 3.412767 -3.064240 -5.216921
  H 6.090285 -0.336970 -0.788629
 29
 0.000000
  H 1.570280 0.103042 0.307570
  C 2.639443 0.118944 0.346837
  C 3.373924 0.600196 1.544492
  C 2.544507 1.077935 2.733839
  C 3.444967 1.536977 3.876232
  C 3.305917 -0.334817 -0.783051
  C 4.495299 -0.464155 -1.105647
  C 4.951675 -0.829137 -2.015477
  C 4.548943 -1.363926 -3.348524
  C 3.082489 -1.519011 -3.735782
  C 2.959357 -2.085368 -5.147612
  O 5.876227 -0.754779 -1.830423
  H 4.029779 1.422151 1.235251
  H 4.029975 -0.207086 1.889811
  H 1.904476 0.271282 3.097043
  H 1.904326 1.911578 2.438080
  H 4.080765 0.724869 4.223432
  H 2.842314 1.874484 4.716542
  H 4.080581 2.363675 3.565029
  H 2.682985 -0.662144 -1.598149
  H 5.195619 -0.155689 -0.337387
  H 5.035780 -2.341294 -3.445398
  H 5.036104 -0.724737 -4.094041
  H 2.580325 -0.550758 -3.713027
  H 2.579975 -2.202890 -3.050222
  H 3.427547 -1.426682 -5.876007
  H 1.910791 -2.192750 -5.415869
  H 3.427202 -3.064993 -5.218768
  H 5.841612 -0.292425 -0.677586
 29
 0.000000
  H 1.612072 0.095535 0.288828
  C 2.680694 0.115894 0.339203
  C 3.400678 0.600170 1.544419
  C 2.556962 1.074414 2.725076
  C 3.443581 1.537174 3.876759
  C 3.360760 -0.335054 -0.783692
  C 4.532175 -0.473406 -1.128746
  C 4.944180 -0.827240 -2.010776
  C 4.546807 -1.362593 -3.345205
  C 3.081919 -1.519720 -3.737533
  C 2.964461 -2.086250 -5.149777
  O 5.767232 -0.750017 -1.818557
  H 4.056278 1.424861 1.241997
  H 4.056465 -0.204379 1.896549
  H 1.916559 0.265090 3.081622
  H 1.916419 1.905389 2.422668
  H 4.079118 0.727715 4.230559
  H 2.830827 1.872143 4.710755
  H 4.078943 2.366524 3.572164
  H 2.747701 -0.664955 -1.605214
  H 5.252822 -0.171498 -0.376848
  H 5.035336 -2.339282 -3.440387
  H 5.035654 -0.722728 -4.089037
  H 2.578332 -0.552166 -3.716522
  H 2.577989 -2.204296 -3.053711
  H 3.434250 -1.426915 -5.876552
  H 1.916979 -2.195093 -5.421659
  H 3.433912 -3.065223 -5.219307
  H 5.595491 -0.259721 -0.596048
 29
 0.000000
  H 1.648244 0.089617 0.274040
  C 2.716197 0.114388 0.335419
  C 3.421722 0.601602 1.547980
  C 2.563938 1.072326 2.719877
  C 3.436728 1.538713 3.880625
  C 3.409651 -0.333717 -0.780405
  C 4.576702 -0.478541 -1.141579
  C 4.954040 -0.829273 -2.015863
  C 4.552247 -1.364175 -3.349149
  C 3.086066 -1.519628 -3.737293
  C 2.963929 -2.086028 -5.149192
  O 5.681532 -0.754659 -1.830119
  H 4.076992 1.429002 1.252315
  H 4.077165 -0.200241 1.906859
  H 1.923244 0.260353 3.069820
  H 1.923116 1.900655 2.410874
  H 4.071924 0.731876 4.240965
  H 2.814037 1.871126 4.708260
  H 4.071763 2.370688 3.582578
  H 2.806454 -0.666128 -1.608192
  H 5.314445 -0.182415 -0.404097
  H 5.039385 -2.341423 -3.445719
  H 5.039700 -0.724872 -4.094378
  H 2.583648 -0.551499 -3.714850
  H 2.583308 -2.203625 -3.052031
  H 3.432396 -1.427233 -5.877309
  H 1.915551 -2.193674 -5.418082
  H 3.432060 -3.065537 -5.220056
  H 5.370432 -0.240472 -0.548046
 29
 0.000000
  H 1.675524 0.086046 0.265104
  C 2.742789 0.114650 0.336049
  C 3.435668 0.604371 1.554877
  C 2.565732 1.071989 2.719036
  C 3.426408 1.541484 3.887552
  C 3.447818 -0.330941 -0.773511
  C 4.620115 -0.478268 -1.140915
  C 4.976508 -0.835104 -2.030405
  C 4.562919 -1.368763 -3.360579
  C 3.093350 -1.519724 -3.737523
  C 2.958710 -2.085736 -5.148441
  O 5.625838 -0.766279 -1.859066
  H 4.090585 1.434123 1.265085
  H 4.090744 -0.195121 1.919625
  H 1.924848 0.257714 3.063235
  H 1.924735 1.898018 2.404293
  H 4.061243 0.736926 4.253580
  H 2.795136 1.871643 4.709571
  H 4.061096 2.375740 3.595197
  H 2.853259 -0.665501 -1.606665
  H 5.369220 -0.186126 -0.413363
  H 5.046312 -2.347497 -3.460848
  H 5.046626 -0.730949 -4.109515
  H 2.594083 -0.550062 -3.711262
  H 2.593742 -2.202185 -3.048434
  H 3.423622 -1.428372 -5.880121
  H 1.907987 -2.190170 -5.409322
  H 3.423287 -3.066673 -5.222859
  H 5.193417 -0.232616 -0.528439
 29
 0.000000
  H 1.696209 0.084546 0.261337
  C 2.762774 0.116579 0.340841
  C 3.444276 0.608506 1.565184
  C 2.563531 1.073310 2.722322
  C 3.413292 1.545552 3.897701
  C 3.478109 -0.326728 -0.763024
  C 4.659707 -0.472884 -1.127499
  C 5.006658 -0.844497 -2.053816
  C 4.576282 -1.376316 -3.379396
  C 3.102048 -1.520847 -3.740314
  C 2.949583 -2.086235 -5.149670
  O 5.594519 -0.782658 -1.899866
  H 4.098828 1.440363 1.280645
  H 4.098972 -0.188882 1.935184
  H 1.922526 0.256975 3.061378
  H 1.922428 1.897279 2.402439
  H 4.047754 0.743032 4.268819
  H 2.774388 1.873668 4.714627
  H 4.047622 2.381847 3.610437
  H 2.891332 -0.663186 -1.600917
  H 5.415330 -0.183081 -0.405773
  H 5.054276 -2.357150 -3.484898
  H 5.054590 -0.740605 -4.133571
  H 2.607337 -0.549013 -3.708643
  H 2.606995 -2.201133 -3.045808
  H 3.409369 -1.430894 -5.886386
  H 1.895633 -2.186072 -5.399093
  H 3.409032 -3.069192 -5.229117
  H 5.058301 -0.230182 -0.522346
 29
 0.000000
  H 1.712137 0.085361 0.263337
  C 2.777945 0.120723 0.351159
  C 3.448337 0.614761 1.580776
  C 2.557145 1.076798 2.731004
  C 3.396234 1.551677 3.912970
  C 3.503251 -0.320335 -0.747088
  C 4.696108 -0.462230 -1.100935
  C 5.043979 -0.858715 -2.089245
  C 4.591603 -1.387999 -3.408504
  C 3.111538 -1.524037 -3.748258
  C 2.935647 -2.088485 -5.155266
  O 5.586643 -0.804256 -1.953673
  H 4.102488 1.448662 1.301341
  H 4.102614 -0.180583 1.955881
  H 1.916066 0.258461 3.065059
  H 1.915985 1.898765 2.406119
  H 4.030285 0.751139 4.289035
  H 2.749955 1.877787 4.724884
  H 4.030171 2.389953 3.630654
  H 2.924080 -0.658614 -1.589530
  H 5.454572 -0.173461 -0.381779
  H 5.062389 -2.371562 -3.520804
  H 5.062705 -0.755020 -4.169484
  H 2.622926 -0.549375 -3.709543
  H 2.622581 -2.201492 -3.046700
  H 3.388593 -1.435769 -5.898523
  H 1.877671 -2.182250 -5.389560
  H 3.388252 -3.074064 -5.241247
  H 4.959001 -0.228450 -0.517999
 29
 0.000000
  H 1.723124 0.089867 0.274536
  C 2.788059 0.128709 0.371054
  C 3.446774 0.624920 1.606096
  C 2.544716 1.084029 2.749005
  C 3.372573 1.561633 3.937775
  C 3.523743 -0.309963 -0.721229
  C 4.730804 -0.445440 -1.059062
  C 5.091307 -0.881046 -2.144885
  C 4.609316 -1.406694 -3.455083
  C 3.121922 -1.531178 -3.766052
  C 2.914380 -2.094135 -5.169342
  O 5.609996 -0.834133 -2.028106
  H 4.100457 1.460957 1.331999
  H 4.100562 -0.168287 1.986541
  H 1.903609 0.263598 3.077827
  H 1.903549 1.903902 2.418885
  H 4.006145 0.763165 4.319015
  H 2.718625 1.885620 4.744382
  H 4.006052 2.401978 3.660631
  H 2.952577 -0.650123 -1.568366
  H 5.489420 -0.156730 -0.340042
  H 5.070164 -2.393885 -3.576419
  H 5.070483 -0.777345 -4.225106
  H 2.641756 -0.552744 -3.717939
  H 2.641405 -2.204858 -3.055089
  H 3.357892 -1.444910 -5.921297
  H 1.851359 -2.179642 -5.383063
  H 3.357546 -3.083203 -5.264013
  H 4.900350 -0.222495 -0.503117
 29
 0.000000
  H 1.726679 0.098832 0.296845
  C 2.790704 0.140993 0.401662
  C 3.438221 0.639243 1.641794
  C 2.525854 1.095526 2.777630
  C 3.342926 1.575697 3.972811
  C 3.536244 -0.295372 -0.684848
  C 4.759474 -0.424819 -1.007628
  C 5.142986 -0.910560 -2.218415
  C 4.626615 -1.431661 -3.517286
  C 3.131470 -1.542557 -3.794408
  C 2.887015 -2.103456 -5.192572
  O 5.666795 -0.870542 -2.118818
  H 4.091411 1.477317 1.372789
  H 4.091493 -0.151926 2.027335
  H 1.884763 0.273097 3.101456
  H 1.884726 1.913400 2.442510
  H 3.975993 0.779204 4.358990
  H 2.681704 1.897635 4.774291
  H 3.975923 2.418016 3.700601
  H 2.972762 -0.637302 -1.536407
  H 5.516973 -0.135708 -0.287593
  H 5.075579 -2.422998 -3.648949
  H 5.075904 -0.806461 -4.297644
  H 2.661453 -0.559794 -3.735511
  H 2.661094 -2.211904 -3.072653
  H 3.319246 -1.458222 -5.954467
  H 1.818680 -2.179253 -5.382105
  H 3.318889 -3.096511 -5.297175
  H 4.894237 -0.208624 -0.468498
 29
 0.000000
  H 1.726400 0.109351 0.323029
  C 2.789466 0.154739 0.435912
  C 3.426045 0.654939 1.680913
  C 2.503711 1.108443 2.809790
  C 3.310235 1.591078 4.011127
  C 3.544545 -0.279354 -0.644907
  C 4.780554 -0.403466 -0.954364
  C 5.188582 -0.940025 -2.291819
  C 4.639412 -1.456454 -3.579054
  C 3.137653 -1.554207 -3.823442
  C 2.857805 -2.112808 -5.215883
  O 5.731250 -0.906318 -2.207948
  H 4.078712 1.494993 1.416857
  H 4.078772 -0.134248 2.071408
  H 1.862681 0.284070 3.128757
  H 1.862665 1.924370 2.469807
  H 3.942769 0.796507 4.402107
  H 2.641980 1.911003 4.807565
  H 3.942721 2.435317 3.743714
  H 2.988577 -0.622983 -1.500710
  H 5.536691 -0.113866 -0.233095
  H 5.076683 -2.451677 -3.720399
  H 5.077015 -0.835143 -4.369100
  H 2.677669 -0.567365 -3.754385
  H 2.677300 -2.219472 -3.091519
  H 3.278934 -1.471316 -5.987099
  H 1.784959 -2.179215 -5.382028
  H 3.278568 -3.109602 -5.329800
  H 4.906213 -0.190906 -0.424294
 29
 0.000000
  H 1.724213 0.120542 0.350887
  C 2.786183 0.169356 0.472332
  C 3.411092 0.671593 1.722415
  C 2.478233 1.122108 2.843817
  C 3.273490 1.607329 4.051607
  C 3.551344 -0.262289 -0.602360
  C 4.796731 -0.380826 -0.897894
  C 5.227931 -0.967909 -2.361286
  C 4.647367 -1.479553 -3.636604
  C 3.140008 -1.564559 -3.849243
  C 2.826120 -2.120646 -5.235423
  O 5.793857 -0.940617 -2.293402
  H 4.063154 1.513749 1.463616
  H 4.063192 -0.115490 2.118170
  H 1.837314 0.295670 3.157620
  H 1.837320 1.935969 2.498666
  H 3.905410 0.814796 4.447684
  H 2.597809 1.925089 4.842629
  H 3.905385 2.453605 3.789287
  H 3.003401 -0.607699 -1.462611
  H 5.551240 -0.090643 -0.175156
  H 5.073112 -2.478433 -3.787056
  H 5.073452 -0.861902 -4.435764
  H 2.689959 -0.573862 -3.770584
  H 2.689581 -2.225966 -3.107711
  H 3.236303 -1.482676 -6.015411
  H 1.749481 -2.177947 -5.378889
  H 3.235927 -3.120959 -5.358105
  H 4.914787 -0.171539 -0.375983
