 20
 0.000000
  C 0.986474 0.132610 0.380167
  C 2.457367 0.141061 0.402131
  C 3.220279 0.612839 1.576940
  C 2.419142 1.095392 2.777603
  H 3.098761 1.411222 3.564104
  C 3.106786 -0.317655 -0.739819
  C 4.490020 -0.386743 -0.912282
  C 5.119630 -0.843393 -2.050421
  H 4.620502 -1.201892 -2.942382
  O 6.412952 -0.894999 -2.181219
  H 0.542160 0.500852 1.296522
  H 0.624528 -0.879702 0.193631
  H 0.625015 0.734876 -0.454819
  H 3.882074 1.423560 1.251713
  H 3.882109 -0.197479 1.903012
  H 1.786586 0.305420 3.175990
  H 1.786942 1.941672 2.518669
  H 2.480068 -0.646390 -1.557979
  H 5.127180 -0.060641 -0.100372
  H 6.917380 -0.581699 -1.403375
 20
 11.056807
  C 1.067652 0.101216 0.302642
  C 2.530192 0.149264 0.422506
  C 3.210093 0.635972 1.633288
  C 2.339048 1.097404 2.782091
  H 2.972248 1.426693 3.601383
  C 3.288753 -0.296757 -0.688289
  C 4.647021 -0.317535 -0.737356
  C 4.951723 -0.800961 -1.945534
  H 4.259068 -1.107971 -2.712199
  O 6.198367 -0.980874 -2.395449
  H 0.549806 0.455383 1.183921
  H 0.750074 -0.916026 0.085550
  H 0.750155 0.685375 -0.557965
  H 3.871772 1.457088 1.349870
  H 3.872323 -0.152425 1.996758
  H 1.709603 0.293096 3.152648
  H 1.709437 1.934275 2.493287
  H 2.698734 -0.631220 -1.523317
  H 5.333258 -0.017147 0.016719
  H 6.879439 -0.726328 -1.764002
 20
 44.075474
  C 1.120984 0.085584 0.265138
  C 2.574081 0.157275 0.439944
  C 3.207725 0.653321 1.672982
  C 2.281212 1.101073 2.792110
  H 2.871034 1.440686 3.635831
  C 3.422156 -0.297030 -0.692181
  C 4.753480 -0.286332 -0.658525
  C 4.848675 -0.769774 -1.870398
  H 4.108538 -1.060858 -2.604770
  O 6.055545 -1.029011 -2.515066
  H 0.572779 0.431340 1.126210
  H 0.823138 -0.943053 0.038367
  H 0.821196 0.669602 -0.610690
  H 3.871276 1.485548 1.405759
  H 3.873945 -0.130505 2.054819
  H 1.653017 0.288017 3.134639
  H 1.650171 1.923686 2.478101
  H 2.792201 -0.619600 -1.500532
  H 5.469325 0.003505 0.073613
  H 6.829135 -0.817789 -1.976086
 20
 89.565428
  C 1.137429 0.075626 0.240128
  C 2.580617 0.156581 0.438767
  C 3.210761 0.650759 1.666926
  C 2.278637 1.100925 2.791682
  H 2.868731 1.440521 3.635141
  C 3.469495 -0.308813 -0.721141
  C 4.803817 -0.260997 -0.593837
  C 4.747573 -0.741819 -1.800623
  H 4.084700 -1.056234 -2.593600
  O 6.022588 -1.041670 -2.546988
  H 0.575370 0.418172 1.092241
  H 0.845672 -0.958854 0.012206
  H 0.844173 0.662758 -0.640972
  H 3.872983 1.492030 1.407587
  H 3.875707 -0.133963 2.060948
  H 1.649879 0.288884 3.133912
  H 1.646851 1.922740 2.477965
  H 2.771201 -0.610049 -1.475501
  H 5.521071 0.024267 0.126918
  H 6.807021 -0.839694 -2.032765
 20
 131.943471
  C 1.126847 0.072538 0.234242
  C 2.580404 0.153902 0.433461
  C 3.213766 0.647050 1.658510
  C 2.285781 1.096524 2.780375
  H 2.877887 1.436224 3.624419
  C 3.471089 -0.314648 -0.734586
  C 4.829502 -0.242788 -0.548734
  C 4.639983 -0.717164 -1.739513
  H 4.111071 -1.059220 -2.597352
  O 6.072722 -1.058496 -2.591777
  H 0.565082 0.420048 1.094344
  H 0.830278 -0.948153 0.010036
  H 0.829979 0.655576 -0.634246
  H 3.872150 1.478858 1.396137
  H 3.874487 -0.133281 2.044304
  H 1.656111 0.281961 3.123977
  H 1.653924 1.921118 2.465804
  H 2.720286 -0.606153 -1.461340
  H 5.567948 0.042748 0.170340
  H 6.854719 -0.852076 -2.065176
 20
 149.960314
  C 1.074070 0.089886 0.254587
  C 2.547808 0.132150 0.409814
  C 3.202044 0.631116 1.645554
  C 2.282355 1.102088 2.763211
  H 2.882070 1.434251 3.605743
  C 3.332999 -0.308334 -0.680827
  C 4.833958 -0.271392 -0.489771
  C 4.484300 -0.678337 -1.636787
  H 4.186052 -1.102877 -2.566409
  O 6.406377 -1.087260 -2.766027
  H 0.564896 0.464565 1.133390
  H 0.730219 -0.927782 0.066627
  H 0.756901 0.684428 -0.603625
  H 3.879851 1.451017 1.382423
  H 3.851519 -0.157304 2.043726
  H 1.637359 0.300925 3.112430
  H 1.666296 1.938812 2.445860
  H 2.560330 -0.612557 -1.399287
  H 5.586896 0.004759 0.208580
  H 7.191179 -0.820722 -2.283082
 20
 143.274778
  C 0.966822 0.119137 0.346998
  C 2.455899 0.151582 0.453032
  C 3.131833 0.648062 1.685589
  C 2.233374 1.129701 2.818175
  H 2.853902 1.459380 3.648745
  C 3.153639 -0.292083 -0.631533
  C 4.775183 -0.275404 -0.480219
  C 4.371675 -0.667230 -1.599779
  H 4.415460 -1.028319 -2.595348
  O 7.048794 -1.241921 -3.180771
  H 0.490404 0.500391 1.238649
  H 0.615709 -0.896388 0.184162
  H 0.629481 0.712819 -0.499675
  H 3.799190 1.470173 1.407477
  H 3.771149 -0.150143 2.076519
  H 1.585808 0.335130 3.184362
  H 1.616054 1.972428 2.512066
  H 2.465233 -0.655888 -1.441720
  H 5.371347 0.025665 0.336394
  H 7.919203 -1.050039 -2.824619
 20
 137.831002
  C 0.954701 0.105950 0.375272
  C 2.431670 0.177579 0.509553
  C 3.084552 0.685054 1.747424
  C 2.161228 1.156539 2.859559
  H 2.759476 1.500811 3.699175
  C 3.168599 -0.252281 -0.550875
  C 4.688595 -0.296586 -0.476011
  C 4.576434 -0.631110 -1.683362
  H 4.574763 -0.923960 -2.708533
  O 7.082614 -1.289701 -3.321442
  H 0.452054 0.493941 1.252059
  H 0.633426 -0.923835 0.223228
  H 0.621697 0.669109 -0.495501
  H 3.749722 1.512916 1.479306
  H 3.726907 -0.103865 2.154254
  H 1.519852 0.353988 3.216296
  H 1.535597 1.985724 2.536899
  H 2.605465 -0.635645 -1.405454
  H 5.297039 -0.055912 0.368089
  H 8.014651 -1.241550 -3.097737
