 13
 0.000000
  C 1.007503 -0.070708 0.049249
  C 2.503708 -0.083959 0.023237
  C 3.217181 -0.595127 -0.980273
  C 4.660032 -0.608539 -1.006603
  C 5.371123 -1.118186 -2.007123
  H 6.446173 -1.124105 -2.018740
  H 0.644470 0.394737 0.962987
  H 0.611920 -1.084555 0.006781
  H 0.611921 0.491040 -0.795811
  H 3.007308 0.350416 0.875989
  H 2.706342 -1.028274 -1.830605
  H 5.165280 -0.173913 -0.153362
  H 4.873136 -1.552487 -2.859731
 13
 7.505979
  C 0.906260 -0.062941 0.064497
  C 2.561531 -0.082504 0.026094
  C 3.260768 -0.594331 -0.978711
  C 4.703776 -0.613587 -1.016513
  C 5.405316 -1.126206 -2.022868
  H 6.480447 -1.135538 -2.041185
  H 0.554589 0.403157 0.979517
  H 0.513018 -1.074805 0.023286
  H 0.513019 0.498657 -0.778219
  H 3.067908 0.350069 0.875307
  H 2.742115 -1.025621 -1.825398
  H 5.216770 -0.180721 -0.166725
  H 4.901287 -1.559051 -2.872615
 13
 23.587857
  C 0.806315 -0.057253 0.075664
  C 2.620858 -0.078998 0.032974
  C 3.296665 -0.591413 -0.972984
  C 4.742236 -0.618076 -1.025323
  C 5.429524 -1.133655 -2.037488
  H 6.504756 -1.146463 -2.062639
  H 0.476708 0.409173 0.991328
  H 0.435844 -1.069634 0.032350
  H 0.435843 0.502949 -0.768707
  H 3.113309 0.353868 0.882764
  H 2.768951 -1.020783 -1.815902
  H 5.264638 -0.187332 -0.179702
  H 4.920142 -1.565108 -2.884506
 13
 45.124548
  C 0.673687 -0.060948 0.068648
  C 2.696746 -0.053906 0.072416
  C 3.331529 -0.577588 -0.946484
  C 4.777435 -0.623637 -1.034262
  C 5.430307 -1.149977 -2.063481
  H 6.508213 -1.171652 -2.105562
  H 0.415086 0.423061 1.000623
  H 0.427766 -1.107128 0.014724
  H 0.427590 0.509054 -0.808906
  H 3.089695 0.394363 0.960163
  H 2.790012 -0.999409 -1.780840
  H 5.321845 -0.204384 -0.197043
  H 4.904819 -1.579868 -2.910776
 13
 62.707048
  C 0.563494 -0.051932 0.086459
  C 2.745904 -0.048405 0.082080
  C 3.376390 -0.578487 -0.950020
  C 4.827103 -0.631116 -1.048538
  C 5.468968 -1.159216 -2.081645
  H 6.544170 -1.185636 -2.131857
  H 0.317078 0.430146 1.017134
  H 0.322670 -1.098107 0.033604
  H 0.321883 0.517875 -0.790548
  H 3.138640 0.399922 0.969741
  H 2.827185 -0.999019 -1.782234
  H 5.379290 -0.214132 -0.215586
  H 4.937010 -1.585486 -2.922084
 13
 78.742227
  C 0.467722 -0.047736 0.092822
  C 2.809433 -0.049219 0.077773
  C 3.410736 -0.570247 -0.937017
  C 4.858361 -0.632241 -1.050258
  C 5.487112 -1.166075 -2.094266
  H 6.561676 -1.199528 -2.156070
  H 0.240186 0.432230 1.024709
  H 0.241263 -1.099757 0.040596
  H 0.234903 0.522537 -0.786463
  H 3.198278 0.398973 0.965988
  H 2.851712 -0.986584 -1.762774
  H 5.422157 -0.219747 -0.224002
  H 4.945694 -1.587303 -2.925822
 13
 91.659427
  C 0.353535 -0.047224 0.090001
  C 2.854495 -0.031901 0.112628
  C 3.449480 -0.562750 -0.922677
  C 4.894720 -0.638625 -1.060748
  C 5.494933 -1.177026 -2.115907
  H 6.564894 -1.222191 -2.197363
  H 0.173709 0.432931 1.029260
  H 0.208591 -1.108740 0.035203
  H 0.197568 0.521810 -0.797783
  H 3.188196 0.423725 1.014093
  H 2.883968 -0.976888 -1.743243
  H 5.475777 -0.228924 -0.243752
  H 4.934726 -1.590848 -2.936040
 13
 102.802396
  C 0.242078 -0.040939 0.105650
  C 2.902481 -0.029821 0.117396
  C 3.487072 -0.561668 -0.920545
  C 4.940544 -0.644555 -1.072298
  C 5.528700 -1.184731 -2.131244
  H 6.601878 -1.234496 -2.221980
  H 0.076367 0.439710 1.046874
  H 0.104914 -1.103042 0.051716
  H 0.091216 0.532491 -0.787912
  H 3.238212 0.427675 1.022316
  H 2.910874 -0.975264 -1.740024
  H 5.529852 -0.238239 -0.261970
  H 4.957638 -1.597767 -2.949316
 13
 111.678346
  C 0.132598 -0.034869 0.116749
  C 2.952374 -0.026183 0.122665
  C 3.528197 -0.559338 -0.917992
  C 4.976952 -0.649526 -1.081947
  C 5.552591 -1.192929 -2.146887
  H 6.622130 -1.248028 -2.247019
  H -0.017595 0.446544 1.059953
  H 0.008719 -1.098398 0.062915
  H -0.005880 0.536824 -0.773504
  H 3.283449 0.430192 1.025804
  H 2.946879 -0.969551 -1.731963
  H 5.575022 -0.246186 -0.275926
  H 4.973192 -1.602497 -2.958559
 13
 118.538929
  C 0.019501 -0.029169 0.130543
  C 2.998632 -0.023036 0.128229
  C 3.565433 -0.557244 -0.914813
  C 5.015361 -0.655043 -1.092523
  C 5.577824 -1.201029 -2.162506
  H 6.647714 -1.261464 -2.272617
  H -0.115159 0.452651 1.075271
  H -0.091476 -1.093704 0.077116
  H -0.108830 0.545152 -0.763277
  H 3.327873 0.434484 1.033719
  H 2.975569 -0.965856 -1.726289
  H 5.622449 -0.254958 -0.292030
  H 4.988388 -1.608067 -2.969502
 13
 123.685182
  C -0.094850 -0.022907 0.143304
  C 3.043616 -0.019569 0.133546
  C 3.602299 -0.554960 -0.911829
  C 5.050156 -0.660415 -1.102746
  C 5.599545 -1.209246 -2.178127
  H 6.667168 -1.275162 -2.297904
  H -0.214306 0.459471 1.089333
  H -0.192709 -1.088410 0.090006
  H -0.211613 0.550824 -0.749098
  H 3.369628 0.437519 1.038480
  H 3.005914 -0.960820 -1.718855
  H 5.665919 -0.263578 -0.307523
  H 5.001073 -1.612885 -2.979352
 13
 127.447867
  C -0.212011 -0.016712 0.157849
  C 3.085759 -0.016657 0.138549
  C 3.636622 -0.553249 -0.909242
  C 5.083371 -0.666023 -1.113375
  C 5.619935 -1.217362 -2.193673
  H 6.686733 -1.288561 -2.323072
  H -0.317063 0.466112 1.104942
  H -0.298168 -1.082775 0.104838
  H -0.319268 0.558651 -0.736622
  H 3.410552 0.441001 1.044664
  H 3.032600 -0.957134 -1.712950
  H 5.707739 -0.272142 -0.323419
  H 5.012280 -1.617936 -2.989670
 13
 130.121431
  C -0.332025 -0.009746 0.172728
  C 3.125015 -0.013830 0.143017
  C 3.668465 -0.551669 -0.907133
  C 5.113320 -0.671634 -1.123990
  C 5.637445 -1.225425 -2.209030
  H 6.702412 -1.301830 -2.347606
  H -0.423404 0.473546 1.120628
  H -0.407586 -1.076252 0.119864
  H -0.430180 0.565472 -0.721007
  H 3.448688 0.443537 1.048715
  H 3.057531 -0.953141 -1.706777
  H 5.745849 -0.280726 -0.339282
  H 5.021154 -1.622751 -2.999687
 13
 131.928700
  C -0.456107 -0.002497 0.189299
  C 3.160149 -0.011440 0.147081
  C 3.696365 -0.550575 -0.905544
  C 5.139320 -0.677356 -1.134789
  C 5.651407 -1.233400 -2.224255
  H 6.715050 -1.314791 -2.371801
  H -0.534701 0.481231 1.137915
  H -0.522595 -1.069192 0.136651
  H -0.546906 0.573769 -0.705580
  H 3.484113 0.446064 1.053071
  H 3.078188 -0.949924 -1.701442
  H 5.779825 -0.289177 -0.355188
  H 5.026708 -1.627661 -3.009758
