 23
 0.000000
  H 1.554968 0.152944 0.433634
  C 2.636547 0.138536 0.398187
  C 3.350367 0.616007 1.585210
  C 2.436256 1.072281 2.718670
  C 3.243065 1.555675 3.920496
  C 3.220670 -0.326334 -0.758346
  C 4.596303 -0.411996 -0.971707
  C 5.200534 -0.880341 -2.142017
  C 4.485022 -1.359173 -3.339019
  H 3.406860 -1.323887 -3.251793
  O 6.505244 -0.919383 -2.240120
  H 4.015043 1.442614 1.303437
  H 4.014876 -0.175552 1.954470
  H 1.792798 0.247858 3.031252
  H 1.793226 1.883770 2.373005
  H 3.874924 0.761069 4.310376
  H 2.578586 1.877000 4.718575
  H 3.875333 2.398638 3.651409
  H 2.560794 -0.644592 -1.551461
  H 5.261607 -0.094564 -0.178786
  H 4.807404 -2.377900 -3.557229
  H 4.807978 -0.772496 -4.199793
  H 6.977077 -0.600648 -1.444129
 23
 1.540080
  H 1.555888 0.411447 0.355778
  C 2.632476 0.319677 0.335326
  C 3.342471 0.646520 1.577064
  C 2.423502 1.001868 2.744331
  C 3.218466 1.475094 3.955195
  C 3.211756 -0.104494 -0.839051
  C 4.586965 -0.283482 -1.015054
  C 5.195747 -0.865970 -2.128116
  C 4.474992 -1.525139 -3.234230
  H 3.399956 -1.493688 -3.122273
  O 6.498044 -0.945727 -2.215446
  H 4.025222 1.485189 1.390904
  H 3.992152 -0.185700 1.867102
  H 1.833727 0.127142 3.024222
  H 1.728037 1.786183 2.442450
  H 3.868661 0.686507 4.325228
  H 2.546502 1.762444 4.761805
  H 3.829575 2.337161 3.706418
  H 2.553624 -0.297983 -1.673737
  H 5.245973 0.050715 -0.226462
  H 4.801075 -2.563523 -3.308634
  H 4.769964 -1.058850 -4.173656
  H 7.014478 -0.305622 -1.691233
 23
 8.031918
  H 1.544467 0.504194 0.318677
  C 2.621259 0.422787 0.289991
  C 3.337267 0.689093 1.544238
  C 2.422260 0.973814 2.730946
  C 3.221968 1.325474 3.980535
  C 3.203288 0.070973 -0.903513
  C 4.576572 -0.135441 -1.075875
  C 5.195472 -0.837180 -2.106616
  C 4.495072 -1.685079 -3.082894
  H 3.418874 -1.650919 -2.969080
  O 6.509009 -0.920910 -2.126592
  H 4.017719 1.539760 1.399453
  H 3.989695 -0.157757 1.783794
  H 1.804339 0.096181 2.940192
  H 1.752601 1.796756 2.485800
  H 3.846735 0.488727 4.291591
  H 2.550742 1.568016 4.805847
  H 3.862101 2.186802 3.803597
  H 2.555352 -0.062463 -1.759774
  H 5.292511 0.302026 -0.396795
  H 4.835935 -2.718333 -2.979734
  H 4.783828 -1.378821 -4.088284
  H 7.094951 -0.146894 -2.093854
 23
 14.541999
  H 1.517973 0.594973 0.341941
  C 2.585410 0.440548 0.311886
  C 3.307651 0.634527 1.566372
  C 2.420161 1.085510 2.712608
  C 3.221654 1.244107 3.989649
  C 3.155691 0.082831 -0.885973
  C 4.529239 -0.109817 -1.078053
  C 5.182813 -0.782811 -2.119932
  C 4.578671 -1.791095 -3.022766
  H 3.513995 -1.901686 -2.851309
  O 6.508198 -0.667698 -2.136821
  H 4.108963 1.369341 1.395930
  H 3.817498 -0.284544 1.859795
  H 1.632588 0.338706 2.863393
  H 1.945973 2.036045 2.473898
  H 3.771857 0.335286 4.216617
  H 2.569299 1.462782 4.828342
  H 3.941215 2.054202 3.889727
  H 2.502419 -0.059464 -1.735417
  H 5.294832 0.336572 -0.456644
  H 5.060307 -2.761254 -2.878275
  H 4.772694 -1.508889 -4.062169
  H 6.970757 0.123809 -2.429397
 23
 25.278819
  H 1.463356 0.591818 0.319436
  C 2.545545 0.542887 0.258478
  C 3.290537 0.696136 1.510358
  C 2.413470 0.923656 2.739069
  C 3.265813 1.179208 3.969086
  C 3.104563 0.285065 -0.966618
  C 4.461829 0.027204 -1.166528
  C 5.125822 -0.778562 -2.079561
  C 4.577428 -1.852067 -2.915099
  H 3.497449 -1.902376 -2.814118
  O 6.448981 -0.651723 -1.987877
  H 3.949648 1.573402 1.382593
  H 3.973860 -0.142141 1.674723
  H 1.796780 0.041495 2.906757
  H 1.765712 1.788234 2.570257
  H 3.899727 0.325971 4.186506
  H 2.642047 1.373713 4.837536
  H 3.912260 2.043423 3.810410
  H 2.453351 0.280857 -1.834738
  H 5.341432 0.446326 -0.630838
  H 4.988878 -2.812955 -2.605437
  H 4.855754 -1.697588 -3.957323
  H 7.012362 0.024132 -2.391980
 23
 45.393275
  H 1.426055 0.725732 0.394007
  C 2.486961 0.580695 0.294612
  C 3.304011 0.766912 1.497570
  C 2.483912 1.025177 2.740777
  C 3.317818 1.061592 4.005392
  C 2.973712 0.230040 -0.934937
  C 4.317808 -0.004652 -1.204985
  C 5.070991 -0.761800 -2.106345
  C 4.737144 -1.937557 -2.916665
  H 3.688647 -2.165421 -2.883073
  O 6.356218 -0.427126 -1.945040
  H 4.067460 1.547341 1.331391
  H 3.835073 -0.181840 1.660608
  H 1.716350 0.264969 2.831207
  H 1.919599 1.958605 2.678845
  H 3.827867 0.121270 4.208402
  H 2.666902 1.271111 4.849040
  H 4.032566 1.871460 3.961326
  H 2.269351 0.150195 -1.753720
  H 5.303853 0.455840 -0.906227
  H 5.306180 -2.820022 -2.604078
  H 5.048564 -1.761596 -3.950476
  H 6.768973 0.293742 -2.472429
 23
 68.540557
  H 1.317274 0.776181 0.416114
  C 2.382622 0.580434 0.280332
  C 3.236988 0.680174 1.473103
  C 2.474967 1.022482 2.750495
  C 3.409371 1.076690 3.957487
  C 2.820220 0.263052 -0.970521
  C 4.127452 -0.061963 -1.291486
  C 4.928252 -0.755595 -2.060529
  C 4.817263 -1.972062 -2.892305
  H 3.781832 -2.283333 -2.969795
  O 6.260772 -0.287743 -1.737556
  H 4.011266 1.431919 1.305196
  H 3.753677 -0.274539 1.616257
  H 1.704750 0.271454 2.924783
  H 1.981375 1.986720 2.641907
  H 3.900177 0.116017 4.112917
  H 2.851522 1.316239 4.862991
  H 4.173286 1.839110 3.818118
  H 2.090984 0.311542 -1.781925
  H 5.535904 0.343796 -0.922562
  H 5.401426 -2.788109 -2.463355
  H 5.209700 -1.775585 -3.890747
  H 6.684773 0.349111 -2.352265
 23
 55.692922
  H 1.281945 0.852269 0.425270
  C 2.319460 0.623173 0.265523
  C 3.212605 0.672290 1.448068
  C 2.478175 1.006593 2.745206
  C 3.433493 1.027902 3.934019
  C 2.721002 0.304592 -1.001383
  C 3.990744 -0.043562 -1.359503
  C 4.862894 -0.717537 -2.049375
  C 4.855235 -2.014199 -2.756048
  H 3.850375 -2.413793 -2.791040
  O 6.240116 -0.156276 -1.842501
  H 3.995514 1.417968 1.280763
  H 3.715212 -0.292646 1.562278
  H 1.697433 0.264532 2.922367
  H 1.997577 1.984873 2.660811
  H 3.910970 0.058096 4.063458
  H 2.895152 1.254680 4.851408
  H 4.205790 1.778832 3.794413
  H 1.983201 0.386316 -1.797056
  H 5.896144 0.416435 -1.111368
  H 5.504174 -2.726379 -2.251093
  H 5.225410 -1.879419 -3.770042
  H 6.703570 0.444347 -2.486901
 23
 54.924140
  H 1.191061 1.022699 0.477304
  C 2.197516 0.693440 0.273970
  C 3.136609 0.653502 1.403458
  C 2.501232 0.993545 2.746430
  C 3.532555 0.925239 3.866946
  C 2.525980 0.369540 -1.016153
  C 3.734263 -0.117702 -1.439670
  C 4.626537 -0.783874 -2.031662
  C 4.948366 -2.035742 -2.698429
  H 4.035497 -2.613788 -2.810073
  O 6.178193 0.025138 -1.794916
  H 3.949638 1.357603 1.216056
  H 3.604751 -0.339323 1.456420
  H 1.696971 0.285365 2.956530
  H 2.059029 1.995767 2.717694
  H 3.968358 -0.073024 3.934708
  H 3.072500 1.156384 4.823626
  H 4.329343 1.639770 3.696597
  H 1.803371 0.551537 -1.800083
  H 5.805647 0.595775 -1.101715
  H 5.675179 -2.608397 -2.129292
  H 5.350201 -1.831907 -3.685916
  H 6.828091 0.525070 -2.334160
 23
 52.613980
  H 1.128710 1.049655 0.530218
  C 2.105807 0.667302 0.281979
  C 3.106219 0.617893 1.350981
  C 2.575083 1.000978 2.728733
  C 3.674926 0.923440 3.782666
  C 2.340871 0.288062 -1.015785
  C 3.497358 -0.293736 -1.487761
  C 4.363443 -0.954622 -2.056042
  C 4.988184 -2.028963 -2.751480
  H 4.218866 -2.753389 -3.020274
  O 6.216983 0.160847 -1.602267
  H 3.927572 1.301174 1.094228
  H 3.558992 -0.382512 1.380015
  H 1.761885 0.328955 3.005497
  H 2.170513 2.012715 2.704201
  H 4.078521 -0.085999 3.850569
  H 3.284511 1.195523 4.760899
  H 4.486851 1.602582 3.545092
  H 1.577819 0.462761 -1.762416
  H 5.639247 0.602458 -0.972548
  H 5.755646 -2.507655 -2.144749
  H 5.435761 -1.656614 -3.672576
  H 6.936205 0.772789 -1.811029
 23
 49.713167
  H 1.079083 0.964841 0.576003
  C 2.051823 0.591378 0.285614
  C 3.103922 0.581648 1.303258
  C 2.648280 1.022520 2.688189
  C 3.798896 0.994662 3.687852
  C 2.219074 0.175333 -1.013284
  C 3.352842 -0.405700 -1.529841
  C 4.255007 -1.026130 -2.089006
  C 5.025968 -1.948495 -2.829332
  H 4.351964 -2.666186 -3.300741
  O 6.209717 0.118362 -1.336896
  H 3.930605 1.225040 0.978585
  H 3.534048 -0.428714 1.353110
  H 1.850200 0.364643 3.037631
  H 2.242135 2.034992 2.640753
  H 4.211452 -0.007390 3.778870
  H 3.454166 1.304784 4.670584
  H 4.595630 1.669484 3.384095
  H 1.405275 0.301125 -1.716339
  H 5.552088 0.429934 -0.705669
  H 5.756811 -2.455952 -2.203753
  H 5.551400 -1.421572 -3.627754
  H 6.881722 0.811955 -1.340054
