 23
 0.000000
  C 0.970939 0.177295 0.494191
  C 2.429282 0.124197 0.360792
  H 3.053691 0.453002 1.177711
  C 3.002967 -0.343088 -0.801937
  C 4.385111 -0.418868 -0.991705
  C 5.098642 -0.865288 -2.104876
  C 4.627195 -1.389719 -3.412863
  C 3.143332 -1.517670 -3.733237
  C 2.960064 -2.081700 -5.140102
  O 6.413414 -0.847956 -2.061718
  H 0.646402 0.563829 1.455513
  H 0.546334 -0.819036 0.355534
  H 0.545609 0.799843 -0.295584
  H 2.338767 -0.659440 -1.588371
  H 4.986245 -0.081895 -0.153118
  H 5.096941 -2.373275 -3.531545
  H 5.097555 -0.761069 -4.178175
  H 2.659987 -0.541169 -3.690666
  H 2.659408 -2.193989 -3.027970
  H 3.411867 -1.430261 -5.884410
  H 1.902212 -2.174380 -5.372228
  H 3.411332 -3.067153 -5.228088
  H 6.785367 -0.512810 -1.223544
 23
 8.992521
  C 0.966389 0.191661 0.529575
  C 2.416036 0.124375 0.361706
  H 3.058549 0.448888 1.168228
  C 2.970750 -0.345640 -0.807736
  C 4.354331 -0.423696 -1.003062
  C 5.052431 -0.867483 -2.110127
  C 4.611802 -1.389049 -3.411065
  C 3.134318 -1.525057 -3.751309
  C 2.975821 -2.090008 -5.160857
  O 6.525945 -0.842974 -2.050184
  H 0.671227 0.581448 1.498805
  H 0.527656 -0.799884 0.398010
  H 0.527334 0.815868 -0.251824
  H 2.298134 -0.659493 -1.588364
  H 4.960167 -0.087896 -0.166890
  H 5.092408 -2.369334 -3.524018
  H 5.092875 -0.758645 -4.169913
  H 2.645100 -0.551135 -3.715686
  H 2.644621 -2.204499 -3.052954
  H 3.434835 -1.435968 -5.898223
  H 1.922425 -2.189172 -5.409112
  H 3.434370 -3.072501 -5.242257
  H 6.872660 -0.506715 -1.209910
 23
 26.237444
  C 0.983662 0.209244 0.573172
  C 2.416784 0.120739 0.353331
  H 3.084071 0.437995 1.143342
  C 2.943730 -0.346916 -0.811122
  C 4.315864 -0.422873 -1.000684
  C 4.963086 -0.868114 -2.111669
  C 4.602625 -1.392168 -3.418628
  C 3.130795 -1.539016 -3.785525
  C 2.994818 -2.104437 -5.196577
  O 6.594046 -0.828452 -2.015366
  H 0.741972 0.603238 1.553675
  H 0.519905 -0.773142 0.458663
  H 0.520286 0.839721 -0.189168
  H 2.268093 -0.660120 -1.591425
  H 4.925603 -0.090467 -0.172319
  H 5.106955 -2.362075 -3.522825
  H 5.107178 -0.763114 -4.164030
  H 2.634890 -0.568621 -3.753037
  H 2.634499 -2.218126 -3.091912
  H 3.460144 -1.448353 -5.928150
  H 1.945340 -2.209384 -5.459244
  H 3.459583 -3.084345 -5.272568
  H 6.851013 -0.484009 -1.154931
 23
 45.124968
  C 0.964057 0.229589 0.623736
  C 2.395157 0.130055 0.376853
  H 3.075905 0.442666 1.156664
  C 2.910901 -0.342676 -0.801235
  C 4.307308 -0.425310 -1.007061
  C 4.905941 -0.877367 -2.135502
  C 4.602299 -1.394898 -3.426296
  C 3.134091 -1.550532 -3.814224
  C 3.012115 -2.116168 -5.225194
  O 6.695668 -0.832449 -2.026185
  H 0.740957 0.625267 1.609793
  H 0.487908 -0.748426 0.506951
  H 0.488633 0.856180 -0.136704
  H 2.233393 -0.652952 -1.575404
  H 4.934521 -0.096383 -0.186686
  H 5.124631 -2.358705 -3.524823
  H 5.124682 -0.766280 -4.163466
  H 2.632802 -0.581892 -3.781122
  H 2.632765 -2.228014 -3.121092
  H 3.480415 -1.459050 -5.953445
  H 1.965315 -2.224336 -5.495322
  H 3.480244 -3.094523 -5.297894
  H 6.896740 -0.482399 -1.148938
 23
 62.884090
  C 0.957983 0.239190 0.648494
  C 2.387096 0.136134 0.391382
  H 3.073976 0.448068 1.168911
  C 2.899968 -0.340565 -0.796915
  C 4.287351 -0.423964 -1.005139
  C 4.863021 -0.875517 -2.131791
  C 4.587880 -1.397137 -3.432354
  C 3.121296 -1.558653 -3.835034
  C 3.016304 -2.124466 -5.245586
  O 6.811111 -0.823910 -2.003894
  H 0.742397 0.634723 1.634472
  H 0.478096 -0.735960 0.530971
  H 0.478167 0.862847 -0.110366
  H 2.218381 -0.652822 -1.575336
  H 4.917044 -0.097149 -0.190719
  H 5.117501 -2.357024 -3.525793
  H 5.117667 -0.768202 -4.163295
  H 2.618138 -0.591450 -3.805804
  H 2.618015 -2.237410 -3.145464
  H 3.489009 -1.465699 -5.969690
  H 1.972294 -2.236453 -5.525226
  H 3.488647 -3.101151 -5.313686
  H 6.984903 -0.476014 -1.129283
 23
 78.834287
  C 0.949996 0.241361 0.654091
  C 2.373057 0.135439 0.389646
  H 3.064295 0.445290 1.162014
  C 2.873852 -0.337464 -0.789384
  C 4.273565 -0.424942 -1.007913
  C 4.824887 -0.880046 -2.143332
  C 4.579602 -1.396332 -3.430491
  C 3.111698 -1.560177 -3.838862
  C 3.014725 -2.125863 -5.248919
  O 6.931978 -0.824547 -2.005747
  H 0.740434 0.637573 1.641971
  H 0.466081 -0.732626 0.535157
  H 0.466092 0.863262 -0.104918
  H 2.192335 -0.647631 -1.562642
  H 4.914261 -0.099444 -0.197056
  H 5.113587 -2.353523 -3.520004
  H 5.113662 -0.766652 -4.156821
  H 2.609014 -0.592483 -3.809870
  H 2.608917 -2.239393 -3.149076
  H 3.488916 -1.466504 -5.971413
  H 1.971787 -2.239096 -5.531628
  H 3.488546 -3.101928 -5.315366
  H 7.087779 -0.472941 -1.119886
 23
 91.681157
  C 0.940235 0.256998 0.693183
  C 2.367730 0.144625 0.412591
  H 3.068265 0.452239 1.179314
  C 2.859271 -0.333833 -0.780283
  C 4.248887 -0.425819 -1.010221
  C 4.772629 -0.878821 -2.140286
  C 4.565550 -1.399598 -3.438590
  C 3.096780 -1.572883 -3.870482
  C 3.026941 -2.138742 -5.280969
  O 7.037667 -0.813922 -1.979699
  H 0.742316 0.653605 1.682062
  H 0.449811 -0.714088 0.576914
  H 0.449838 0.878630 -0.061881
  H 2.171118 -0.643426 -1.552065
  H 4.896234 -0.103648 -0.208130
  H 5.107324 -2.355487 -3.520472
  H 5.107346 -0.765525 -4.158470
  H 2.590377 -0.607739 -3.847624
  H 2.590260 -2.254504 -3.186894
  H 3.507616 -1.476554 -5.996472
  H 1.988417 -2.257816 -5.578290
  H 3.507158 -3.112022 -5.340394
  H 7.172103 -0.465311 -1.099564
 23
 101.107186
  C 0.933208 0.260971 0.702926
  C 2.351351 0.143934 0.411241
  H 3.058713 0.448448 1.170534
  C 2.822340 -0.329453 -0.768952
  C 4.230432 -0.429347 -1.018664
  C 4.728475 -0.885154 -2.155774
  C 4.557820 -1.399956 -3.439280
  C 3.088887 -1.575765 -3.877448
  C 3.031528 -2.140766 -5.285973
  O 7.152176 -0.814253 -1.981514
  H 0.746582 0.658414 1.693939
  H 0.438099 -0.707293 0.589548
  H 0.438410 0.882796 -0.048113
  H 2.128740 -0.636199 -1.533897
  H 4.891961 -0.109062 -0.221694
  H 5.099613 -2.353241 -3.515735
  H 5.099515 -0.763835 -4.153417
  H 2.583211 -0.610360 -3.855089
  H 2.583129 -2.257969 -3.194158
  H 3.514283 -1.477341 -5.998916
  H 1.994501 -2.261479 -5.587431
  H 3.513814 -3.113212 -5.342786
  H 7.277730 -0.461251 -1.089030
 23
 104.933537
  C 0.941359 0.329885 0.873769
  C 2.344463 0.185151 0.515325
  H 3.090372 0.475634 1.242329
  C 2.730871 -0.301653 -0.699579
  C 4.117116 -0.444539 -1.055724
  C 4.545539 -0.899116 -2.190698
  C 4.540804 -1.413570 -3.474289
  C 3.088057 -1.625885 -4.001286
  C 3.157671 -2.191071 -5.410708
  O 7.125375 -0.810583 -1.975192
  H 0.814490 0.731183 1.875967
  H 0.427120 -0.631105 0.795498
  H 0.428811 0.972539 0.153693
  H 1.990951 -0.593148 -1.428289
  H 4.827183 -0.138634 -0.293336
  H 5.086938 -2.365454 -3.516848
  H 5.086065 -0.754272 -4.162893
  H 2.566514 -0.669949 -4.009492
  H 2.567139 -2.322918 -3.346434
  H 3.667762 -1.513354 -6.089450
  H 2.144277 -2.338147 -5.776639
  H 3.668143 -3.149767 -5.433154
  H 7.302679 -0.458121 -1.079648
 23
 107.588013
  C 0.919089 0.339122 0.896717
  C 2.333970 0.186432 0.518579
  H 3.087987 0.473723 1.238445
  C 2.705301 -0.296485 -0.687288
  C 4.095940 -0.445575 -1.058306
  C 4.516872 -0.901935 -2.197978
  C 4.547264 -1.416764 -3.482798
  C 3.089952 -1.631824 -4.015798
  C 3.161942 -2.195703 -5.421748
  O 7.254664 -0.805200 -1.961642
  H 0.805178 0.739646 1.897880
  H 0.399111 -0.619059 0.825197
  H 0.401034 0.984928 0.183847
  H 1.960083 -0.585845 -1.411287
  H 4.813542 -0.142392 -0.301815
  H 5.091872 -2.369672 -3.517351
  H 5.090754 -0.750998 -4.166331
  H 2.568253 -0.676490 -4.023418
  H 2.569447 -2.328164 -3.360801
  H 3.671896 -1.517198 -6.099775
  H 2.148576 -2.343303 -5.788164
  H 3.672830 -3.154216 -5.443151
  H 7.438916 -0.464844 -1.095254
 23
 108.646367
  C 0.925151 0.350799 0.925933
  C 2.325184 0.191081 0.530039
  H 3.088550 0.474477 1.240376
  C 2.673490 -0.295482 -0.685247
  C 4.054688 -0.456007 -1.084453
  C 4.453498 -0.907164 -2.211314
  C 4.537576 -1.416728 -3.483266
  C 3.082023 -1.640315 -4.036742
  C 3.181247 -2.203617 -5.441084
  O 7.348860 -0.800756 -1.950654
  H 0.830462 0.751923 1.929068
  H 0.401078 -0.603965 0.864640
  H 0.402978 1.001400 0.222997
  H 1.917119 -0.580942 -1.399849
  H 4.786345 -0.157529 -0.339133
  H 5.082150 -2.367849 -3.506424
  H 5.080753 -0.744203 -4.157342
  H 2.556145 -0.687452 -4.049785
  H 2.557765 -2.338881 -3.387168
  H 3.696612 -1.521805 -6.111829
  H 2.173177 -2.356727 -5.820479
  H 3.698010 -3.159215 -5.454910
  H 7.560971 -0.448898 -1.053118
 23
 108.021433
  C 0.925553 0.394735 1.035411
  C 2.302974 0.212450 0.583286
  H 3.096116 0.483985 1.264400
  C 2.593651 -0.280162 -0.647324
  C 3.947593 -0.465857 -1.109555
  C 4.347251 -0.919276 -2.242077
  C 4.538324 -1.424864 -3.504228
  C 3.096229 -1.668683 -4.107013
  C 3.259148 -2.230447 -5.507443
  O 7.398323 -0.797084 -1.940641
  H 0.880718 0.796683 2.041479
  H 0.386693 -0.551876 1.001007
  H 0.388694 1.058433 0.357900
  H 1.804649 -0.553677 -1.331785
  H 4.714492 -0.178629 -0.392407
  H 5.084314 -2.373258 -3.497979
  H 5.082556 -0.733808 -4.155297
  H 2.558655 -0.723006 -4.138909
  H 2.560869 -2.375302 -3.475754
  H 3.787797 -1.539789 -6.158407
  H 2.267395 -2.398387 -5.922848
  H 3.789872 -3.178360 -5.500875
  H 7.686306 -0.463595 -1.087108
 23
 106.041545
  C 0.918374 0.409126 1.106542
  C 2.285138 0.206932 0.603179
  H 3.104661 0.443938 1.267649
  C 2.538541 -0.258707 -0.642103
  C 3.873401 -0.460528 -1.136547
  C 4.306223 -0.884874 -2.269797
  C 4.583630 -1.414710 -3.508638
  C 3.143706 -1.657914 -4.122661
  C 3.325718 -2.251557 -5.508132
  O 7.171441 -0.816400 -2.014207
  H 0.913316 0.786104 2.123107
  H 0.354801 -0.524539 1.064327
  H 0.373363 1.100838 0.461867
  H 1.729676 -0.499488 -1.315849
  H 4.680151 -0.206155 -0.444206
  H 5.117140 -2.367175 -3.454001
  H 5.139128 -0.729494 -4.153890
  H 2.613389 -0.710228 -4.185814
  H 2.592421 -2.347220 -3.486768
  H 3.869988 -1.577938 -6.163060
  H 2.340764 -2.421986 -5.937573
  H 3.849267 -3.201975 -5.469755
  H 7.673934 -0.525826 -1.249837
