 20
 0.000000
  C 0.992835 0.118562 0.345409
  C 2.466405 0.118068 0.345760
  C 3.190943 0.598426 1.539893
  H 2.502848 0.912556 2.320319
  C 3.125251 -0.339890 -0.792795
  C 4.510765 -0.398580 -0.940906
  C 5.184944 -0.853173 -2.075704
  C 4.540609 -1.347395 -3.308699
  H 3.459467 -1.326119 -3.256209
  O 6.493180 -0.868949 -2.116585
  H 0.580261 0.493222 1.276005
  H 0.614961 -0.889116 0.167613
  H 0.615810 0.722814 -0.480769
  H 3.839965 1.437101 1.284884
  H 3.839757 -0.183128 1.936905
  H 2.505444 -0.670195 -1.614302
  H 5.126005 -0.067472 -0.116436
  H 4.882840 -2.362887 -3.508634
  H 4.883245 -0.751397 -4.154758
  H 6.930578 -0.544247 -1.306292
 20
 -0.508005
  C 1.003139 0.179318 0.297038
  C 2.477679 0.146984 0.324908
  C 3.192491 0.615512 1.527321
  H 2.506082 0.985600 2.280544
  C 3.144063 -0.328163 -0.797050
  C 4.529395 -0.418669 -0.920888
  C 5.196537 -0.871571 -2.058161
  C 4.531642 -1.365104 -3.284228
  H 3.556335 -1.797371 -3.085224
  O 6.504704 -0.895224 -2.114133
  H 0.578605 0.528048 1.232643
  H 0.604986 -0.808976 0.068135
  H 0.659352 0.827303 -0.509593
  H 3.897794 1.408699 1.274992
  H 3.776852 -0.195600 1.961086
  H 2.532715 -0.640378 -1.629970
  H 5.138062 -0.092112 -0.087213
  H 5.171806 -2.092477 -3.770623
  H 4.407158 -0.535195 -3.980322
  H 6.960838 -0.522987 -1.335757
 20
 2.756651
  C 1.011669 0.167811 0.265954
  C 2.485245 0.172598 0.306689
  C 3.175864 0.631403 1.527016
  H 2.474305 1.015144 2.262354
  C 3.171574 -0.284440 -0.810843
  C 4.559936 -0.373174 -0.910875
  C 5.213603 -0.864483 -2.038675
  C 4.506455 -1.357982 -3.243355
  H 3.644325 -1.960782 -2.980365
  O 6.513628 -0.740343 -2.190221
  H 0.570869 0.541015 1.183499
  H 0.644429 -0.842317 0.079303
  H 0.654071 0.768865 -0.571467
  H 3.903355 1.408941 1.297181
  H 3.728094 -0.193391 1.979154
  H 2.576376 -0.545945 -1.674273
  H 5.129636 -0.129487 -0.024244
  H 5.197428 -1.938132 -3.849078
  H 4.162443 -0.520452 -3.850271
  H 7.044722 -0.784902 -1.374834
 20
 15.201482
  C 1.027215 0.155369 0.227920
  C 2.497674 0.167323 0.307896
  C 3.148043 0.612878 1.557420
  H 2.420302 0.982336 2.273637
  C 3.212431 -0.246555 -0.808655
  C 4.619149 -0.303134 -0.879349
  C 5.220820 -0.825627 -2.018097
  C 4.479341 -1.386311 -3.169430
  H 3.582826 -1.915445 -2.874036
  O 6.493635 -0.537855 -2.294500
  H 0.558215 0.466862 1.157004
  H 0.667914 -0.841006 -0.031790
  H 0.694363 0.809281 -0.580123
  H 3.875284 1.397231 1.364712
  H 3.683745 -0.217056 2.026502
  H 2.633109 -0.467747 -1.691618
  H 5.022063 -0.132703 0.102495
  H 5.141383 -2.054651 -3.715839
  H 4.207482 -0.585354 -3.859724
  H 7.155059 -0.922491 -1.692018
 20
 43.694839
  C 1.056622 0.110176 0.186663
  C 2.529738 0.194012 0.298567
  C 3.127925 0.593264 1.588984
  H 2.361918 0.815360 2.320197
  C 3.275772 -0.147812 -0.809434
  C 4.729553 -0.232076 -0.821025
  C 5.179502 -0.873200 -1.949034
  C 4.454625 -1.459824 -3.092477
  H 3.550226 -1.995641 -2.798545
  O 6.443363 -0.443109 -2.278270
  H 0.559214 0.371234 1.115913
  H 0.748591 -0.881151 -0.104205
  H 0.714164 0.779594 -0.610344
  H 3.760115 1.469456 1.474293
  H 3.734648 -0.210367 2.009190
  H 2.758812 -0.247432 -1.749601
  H 4.792284 -0.122638 0.249826
  H 5.123336 -2.131431 -3.624024
  H 4.215137 -0.665544 -3.787770
  H 7.123813 -1.118170 -2.058590
 20
 85.336549
  C 1.058498 0.052122 0.260278
  C 2.535742 0.170769 0.323914
  C 3.154092 0.658889 1.580824
  H 2.394272 0.956032 2.297585
  C 3.242579 -0.214856 -0.771079
  C 4.797921 -0.288417 -0.820374
  C 5.047544 -0.986332 -1.950418
  C 4.479422 -1.400783 -3.239071
  H 3.473850 -1.813842 -3.155689
  O 6.395578 -0.544214 -2.175982
  H 0.598787 0.337518 1.198561
  H 0.754828 -0.968066 0.028503
  H 0.678577 0.697418 -0.532961
  H 3.801007 1.527927 1.401483
  H 3.743640 -0.125428 2.052581
  H 2.760045 -0.489057 -1.692432
  H 4.614747 0.067208 0.177236
  H 5.129476 -2.153870 -3.683156
  H 4.477413 -0.533905 -3.893604
  H 7.078427 -1.141840 -1.840298
 20
 115.591078
  C 0.945251 0.133054 0.393969
  C 2.455027 0.162932 0.330885
  C 3.188835 0.575540 1.571702
  H 2.499649 0.844859 2.362231
  C 3.021845 -0.187837 -0.801437
  C 4.849610 -0.289253 -0.960605
  C 5.001250 -0.975144 -2.052490
  C 4.627117 -1.479056 -3.358233
  H 3.608259 -1.858699 -3.355989
  O 6.382426 -0.425823 -1.983698
  H 0.603805 0.433605 1.381642
  H 0.565257 -0.864369 0.180405
  H 0.535421 0.813251 -0.347267
  H 3.812489 1.445634 1.378671
  H 3.804379 -0.231432 1.938315
  H 2.597020 -0.462506 -1.742814
  H 4.646907 0.162485 -0.007629
  H 5.297485 -2.273003 -3.655644
  H 4.718476 -0.662972 -4.079518
  H 7.049864 -1.054183 -1.627036
 20
 132.371514
  C 0.818075 0.203895 0.529965
  C 2.331109 0.177237 0.349577
  C 3.161944 0.549273 1.548068
  H 2.532270 0.838997 2.383652
  C 2.819400 -0.173459 -0.801277
  C 5.002846 -0.285155 -1.080613
  C 5.062435 -0.982045 -2.161563
  C 4.764969 -1.538581 -3.448043
  H 3.740235 -1.896013 -3.476461
  O 6.426002 -0.385394 -1.915889
  H 0.564024 0.494661 1.543703
  H 0.395789 -0.777306 0.329649
  H 0.371574 0.914129 -0.162095
  H 3.811060 1.393644 1.321164
  H 3.767648 -0.297229 1.869317
  H 2.390659 -0.443306 -1.737738
  H 4.831631 0.155877 -0.135550
  H 5.434314 -2.367169 -3.671759
  H 4.909538 -0.767423 -4.202509
  H 7.076194 -1.007371 -1.514448
 20
 136.624226
  C 0.764556 0.130335 0.495101
  C 2.277083 0.137384 0.267787
  C 3.129537 0.525382 1.449193
  H 2.511089 0.801684 2.299112
  C 2.742030 -0.195834 -0.900302
  C 5.323742 -0.175053 -1.132455
  C 5.042034 -0.903902 -2.146295
  C 4.668142 -1.546070 -3.354127
  H 3.598698 -1.802682 -3.296805
  O 6.654029 -0.194170 -1.741546
  H 0.536152 0.412550 1.518088
  H 0.358102 -0.859655 0.303592
  H 0.281664 0.835366 -0.178991
  H 3.757944 1.380404 1.203985
  H 3.759525 -0.308386 1.755155
  H 2.297527 -0.474864 -1.825427
  H 5.141131 0.193849 -0.153557
  H 5.232673 -2.473874 -3.505784
  H 4.839465 -0.893828 -4.216969
  H 7.286011 -0.779584 -1.263622
 20
 121.834390
  C 1.007058 0.139489 0.288613
  C 2.524064 0.103285 0.158596
  C 3.278457 0.391110 1.430258
  H 2.579487 0.621264 2.236885
  C 2.961186 -0.200886 -1.079177
  C 5.396611 -0.133461 -1.083209
  C 4.838960 -0.864035 -2.008928
  C 4.216180 -1.515935 -3.170521
  H 3.148065 -1.599818 -3.140291
  O 6.745823 -0.110506 -1.490405
  H 0.739703 0.380160 1.313787
  H 0.583047 -0.820664 0.016363
  H 0.589519 0.900921 -0.362442
  H 3.943475 1.244071 1.316567
  H 3.867272 -0.467470 1.740598
  H 2.427491 -0.370916 -1.980278
  H 5.184254 0.231101 -0.112924
  H 4.598972 -2.538201 -3.276801
  H 4.477551 -0.986516 -4.095757
  H 7.325334 -0.628882 -0.876568
 20
 90.461956
  C 1.217423 0.033297 0.134905
  C 2.708251 0.042506 0.072110
  C 3.399325 0.424163 1.327288
  H 2.671543 0.681377 2.095000
  C 3.201667 -0.306111 -1.164420
  C 5.313839 -0.147294 -0.975759
  C 4.593849 -0.867144 -1.865908
  C 3.948465 -1.408895 -3.090128
  H 2.871852 -1.366426 -3.140295
  O 6.661732 -0.079842 -1.199165
  H 0.856255 0.271126 1.127100
  H 0.821763 -0.932738 -0.156189
  H 0.811735 0.765573 -0.561697
  H 4.048799 1.291246 1.199914
  H 3.999383 -0.409541 1.707374
  H 2.430764 -0.483755 -1.899430
  H 5.025861 0.201064 -0.011633
  H 4.234888 -2.456036 -3.204111
  H 4.363612 -0.896329 -3.967913
  H 7.240077 -0.578654 -0.600210
 20
 38.842576
  C 1.109913 0.074798 0.208730
  C 2.590474 0.010623 0.096873
  C 3.355220 0.348349 1.307958
  H 2.684638 0.652352 2.106295
  C 3.049384 -0.405949 -1.146309
  C 5.331219 -0.217181 -1.037595
  C 4.341406 -0.916919 -1.665652
  C 4.099854 -1.347324 -3.077861
  H 3.130175 -1.052798 -3.461941
  O 6.588979 -0.230499 -1.437156
  H 0.791846 0.387067 1.196570
  H 0.669900 -0.896360 -0.016450
  H 0.702578 0.770566 -0.527552
  H 4.041108 1.179494 1.136367
  H 3.938600 -0.503946 1.648622
  H 2.266865 -0.605498 -1.858257
  H 5.127970 0.419295 -0.190524
  H 4.180006 -2.432328 -3.173413
  H 4.880643 -0.932014 -3.719961
  H 7.274638 -0.481637 -0.784784
 20
 12.707258
  C 1.024441 0.051934 0.325076
  C 2.487506 -0.036469 0.142079
  C 3.343036 0.396317 1.266394
  H 2.739593 0.726958 2.109594
  C 2.915541 -0.518601 -1.081255
  C 5.357481 -0.228578 -1.095200
  C 4.195801 -0.759343 -1.639845
  C 4.218254 -1.287623 -3.033380
  H 3.412209 -0.869251 -3.629287
  O 6.497483 -0.262449 -1.738390
  H 0.749357 0.453265 1.297342
  H 0.571558 -0.933982 0.207375
  H 0.580468 0.675387 -0.451687
  H 3.984348 1.224590 0.974508
  H 3.979966 -0.422418 1.602582
  H 2.103767 -0.787517 -1.747788
  H 5.344150 0.221799 -0.110987
  H 4.091593 -2.374258 -3.020922
  H 5.174640 -1.081221 -3.506638
  H 7.301933 -0.369205 -1.201722
 20
 8.188015
  C 0.999589 0.037437 0.328251
  C 2.464881 -0.001049 0.118524
  C 3.329929 0.456765 1.225340
  H 2.736611 0.755831 2.084527
  C 2.894128 -0.468861 -1.110173
  C 5.368225 -0.296064 -1.060290
  C 4.173511 -0.666263 -1.669404
  C 4.246221 -1.272700 -3.031079
  H 3.363985 -1.043088 -3.619999
  O 6.509999 -0.475762 -1.669890
  H 0.730144 0.395246 1.316438
  H 0.569189 -0.953578 0.179584
  H 0.529162 0.677999 -0.418975
  H 3.930522 1.312147 0.917468
  H 4.006679 -0.337802 1.539251
  H 2.093693 -0.754213 -1.782983
  H 5.373720 0.149875 -0.077103
  H 4.319083 -2.357792 -2.944589
  H 5.135686 -0.932524 -3.555945
  H 7.298169 -0.406269 -1.101106
 20
 7.466064
  C 0.994169 0.059134 0.338013
  C 2.457528 0.020966 0.116213
  C 3.332260 0.506205 1.203775
  H 2.745815 0.862275 2.045575
  C 2.879925 -0.469285 -1.106932
  C 5.364383 -0.397677 -1.028989
  C 4.155819 -0.670179 -1.666942
  C 4.249955 -1.241641 -3.041941
  H 3.276465 -1.352264 -3.507140
  O 6.491538 -0.628603 -1.645875
  H 0.733417 0.402573 1.333624
  H 0.556667 -0.926168 0.173034
  H 0.522430 0.717506 -0.393924
  H 3.963473 1.325072 0.859280
  H 3.979856 -0.295585 1.558096
  H 2.075103 -0.758745 -1.771706
  H 5.388001 0.007554 -0.028186
  H 4.737545 -2.216031 -3.004671
  H 4.878489 -0.608350 -3.666421
  H 7.290287 -0.517421 -1.097034
