 17
 0.000000
  C 1.002847 0.116556 0.340859
  C 2.467318 0.099789 0.299336
  H 3.019447 0.445863 1.160772
  C 3.121471 -0.351714 -0.824592
  C 4.508512 -0.405202 -0.958866
  C 5.199137 -0.857270 -2.085620
  C 4.576659 -1.354900 -3.325764
  H 3.496094 -1.352593 -3.320838
  O 6.505681 -0.867660 -2.112428
  H 0.615593 0.494588 1.282116
  H 0.609791 -0.888505 0.172833
  H 0.610026 0.726559 -0.475536
  H 2.508492 -0.683768 -1.650771
  H 5.096629 -0.066036 -0.114518
  H 4.940590 -2.365716 -3.515764
  H 4.941075 -0.756107 -4.161789
  H 6.939910 -0.542148 -1.300969
 17
 0.211116
  C 0.999838 0.177942 0.358155
  C 2.446962 -0.022861 0.287525
  H 3.034784 0.268318 1.147890
  C 3.087013 -0.499192 -0.831550
  C 4.476359 -0.453209 -0.962082
  C 5.199214 -0.845729 -2.092488
  C 4.608985 -1.348107 -3.347473
  H 3.527889 -1.357667 -3.343809
  O 6.503356 -0.777544 -2.111173
  H 0.701121 0.701791 1.259478
  H 0.486740 -0.787623 0.325566
  H 0.642201 0.715059 -0.521908
  H 2.483277 -0.847220 -1.656677
  H 5.043997 -0.085488 -0.116443
  H 4.984701 -2.354020 -3.537961
  H 4.969776 -0.738953 -4.176552
  H 6.920373 -0.448352 -1.291980
 17
 -0.237898
  C 1.002321 0.177556 0.364535
  C 2.442341 -0.047760 0.282174
  H 3.036125 0.184545 1.155655
  C 3.082104 -0.481170 -0.854107
  C 4.474587 -0.478094 -0.959812
  C 5.210368 -0.828830 -2.094536
  C 4.630343 -1.304749 -3.365134
  H 3.552235 -1.226061 -3.400096
  O 6.515245 -0.760045 -2.096976
  H 0.754573 0.925388 1.111732
  H 0.509741 -0.752217 0.670189
  H 0.577349 0.434838 -0.603871
  H 2.479087 -0.770187 -1.701696
  H 5.030230 -0.151297 -0.090536
  H 4.922167 -2.344964 -3.518483
  H 5.073253 -0.749473 -4.191299
  H 6.924219 -0.457282 -1.263638
 17
 0.224651
  C 0.996173 0.188191 0.334913
  C 2.426278 -0.096101 0.273418
  H 3.020805 0.191717 1.131129
  C 3.068371 -0.611433 -0.825433
  C 4.461292 -0.564834 -0.933835
  C 5.199920 -0.838406 -2.087919
  C 4.623304 -1.248884 -3.382684
  H 3.546172 -1.158253 -3.418725
  O 6.501635 -0.731812 -2.094273
  H 0.801348 1.088955 0.911682
  H 0.491431 -0.625503 0.867849
  H 0.544190 0.247872 -0.652189
  H 2.473812 -0.972474 -1.651511
  H 5.011380 -0.231970 -0.062625
  H 4.905213 -2.283998 -3.582490
  H 5.075732 -0.659533 -4.179178
  H 6.908783 -0.481926 -1.243403
 17
 1.269144
  C 1.008753 0.198306 0.289944
  C 2.434599 -0.122428 0.263930
  H 3.030227 0.261023 1.086115
  C 3.073792 -0.765054 -0.767290
  C 4.463943 -0.682068 -0.894575
  C 5.193244 -0.836489 -2.074780
  C 4.605249 -1.159678 -3.386979
  H 3.529695 -1.049995 -3.408391
  O 6.488987 -0.676169 -2.093756
  H 0.855445 1.227018 0.613633
  H 0.515643 -0.419693 1.048557
  H 0.519647 0.013415 -0.662958
  H 2.484750 -1.177978 -1.568577
  H 5.016395 -0.366326 -0.016979
  H 4.867047 -2.186722 -3.646556
  H 5.061803 -0.533336 -4.149775
  H 6.905917 -0.494867 -1.227229
 17
 5.231938
  C 1.047271 0.239826 0.206361
  C 2.450345 -0.160512 0.248230
  H 3.025072 0.235811 1.080564
  C 3.102866 -0.912359 -0.687872
  C 4.482463 -0.705515 -0.851874
  C 5.169806 -0.817874 -2.052832
  C 4.541444 -1.123817 -3.350895
  H 3.460825 -1.062247 -3.322114
  O 6.458085 -0.621824 -2.116395
  H 0.932802 1.264269 0.557043
  H 0.477539 -0.385770 0.900696
  H 0.606957 0.115455 -0.779605
  H 2.543442 -1.448155 -1.438058
  H 5.051981 -0.408181 0.016859
  H 4.839645 -2.125616 -3.659516
  H 4.934429 -0.447573 -4.109291
  H 6.895939 -0.435825 -1.268207
 17
 14.981939
  C 1.155527 0.300418 0.042817
  C 2.518903 -0.207236 0.213727
  H 3.040934 0.224062 1.062086
  C 3.175695 -1.155229 -0.520032
  C 4.519772 -0.755677 -0.754058
  C 5.131552 -0.761895 -2.002219
  C 4.437160 -1.024158 -3.280183
  H 3.359507 -1.027753 -3.178299
  O 6.409894 -0.492833 -2.134472
  H 1.098997 1.340707 0.350570
  H 0.481631 -0.263926 0.694467
  H 0.793023 0.183849 -0.975549
  H 2.658134 -1.760484 -1.249092
  H 5.133419 -0.476798 0.091115
  H 4.772165 -1.980036 -3.682358
  H 4.734047 -0.270591 -4.009005
  H 6.891230 -0.317668 -1.304571
 17
 30.079100
  C 1.340345 0.295110 -0.185188
  C 2.632991 -0.315200 0.177858
  H 3.073794 0.103509 1.075016
  C 3.201205 -1.426855 -0.384606
  C 4.479397 -0.811956 -0.641588
  C 5.011286 -0.701762 -1.918338
  C 4.242335 -0.927617 -3.163614
  H 3.176331 -0.992488 -2.987505
  O 6.275464 -0.380952 -2.115655
  H 1.326956 1.349380 0.071618
  H 0.553859 -0.200067 0.391198
  H 1.102008 0.162571 -1.236998
  H 2.716968 -2.117349 -1.052430
  H 5.134234 -0.572682 0.184919
  H 4.587270 -1.846803 -3.639184
  H 4.457060 -0.125874 -3.868409
  H 6.797566 -0.220823 -1.309014
 17
 37.908197
  C 1.577306 0.283111 -0.399068
  C 2.768448 -0.415307 0.153797
  H 3.132941 -0.004381 1.087745
  C 3.221958 -1.651475 -0.285495
  C 4.408048 -0.842701 -0.535114
  C 4.879908 -0.628213 -1.838152
  C 4.069184 -0.841851 -3.055565
  H 3.018293 -0.983467 -2.834996
  O 6.111146 -0.235262 -2.066581
  H 1.615086 1.347578 -0.186956
  H 0.695763 -0.130417 0.093453
  H 1.460559 0.125469 -1.466985
  H 2.758025 -2.353756 -0.948216
  H 5.080627 -0.622068 0.282554
  H 4.442534 -1.715885 -3.590970
  H 4.204087 0.003134 -3.729544
  H 6.660657 -0.082460 -1.275850
 17
 37.030036
  C 1.688801 0.285568 -0.477644
  C 2.823431 -0.470466 0.139859
  H 3.087455 -0.117155 1.130317
  C 3.235123 -1.753760 -0.257510
  C 4.355672 -0.831333 -0.492512
  C 4.812405 -0.578813 -1.806988
  C 4.002010 -0.807775 -3.017179
  H 2.961490 -1.008100 -2.794543
  O 6.023701 -0.158385 -2.036113
  H 1.755044 1.342064 -0.234266
  H 0.760109 -0.102243 -0.060773
  H 1.644613 0.165935 -1.555277
  H 2.804065 -2.467119 -0.927719
  H 5.061038 -0.648122 0.308253
  H 4.417053 -1.652161 -3.570593
  H 4.093056 0.052076 -3.680365
  H 6.581588 0.005146 -1.251738
 17
 36.262077
  C 1.770854 0.311554 -0.519945
  C 2.862143 -0.488999 0.133931
  H 3.028540 -0.184432 1.158035
  C 3.225423 -1.808967 -0.236456
  C 4.321873 -0.835928 -0.470676
  C 4.763106 -0.546005 -1.794582
  C 3.967409 -0.819823 -3.001000
  H 2.950574 -1.118919 -2.780415
  O 5.946684 -0.075521 -2.021224
  H 1.886213 1.365287 -0.280678
  H 0.812474 -0.023882 -0.123031
  H 1.750580 0.191294 -1.598906
  H 2.803483 -2.544470 -0.889888
  H 5.075153 -0.721218 0.301642
  H 4.455798 -1.614670 -3.568332
  H 3.982675 0.052546 -3.654328
  H 6.503670 0.117509 -1.238937
 17
 36.217487
  C 1.770928 0.311405 -0.521435
  C 2.862879 -0.489734 0.133125
  H 3.029631 -0.184494 1.160271
  C 3.226379 -1.808675 -0.237740
  C 4.321875 -0.836815 -0.471325
  C 4.762519 -0.546272 -1.793287
  C 3.966346 -0.819816 -3.000063
  H 2.949593 -1.119384 -2.779349
  O 5.947083 -0.074731 -2.019649
  H 1.886722 1.365199 -0.283157
  H 0.813706 -0.022825 -0.124266
  H 1.749907 0.190399 -1.599074
  H 2.805267 -2.542318 -0.890230
  H 5.074807 -0.722679 0.300948
  H 4.454889 -1.614367 -3.567905
  H 3.981156 0.052876 -3.653066
  H 6.502968 0.117585 -1.238589
