 25
 0.000000
  C 0.999905 0.160886 0.451908
  C 2.471460 0.142074 0.404289
  C 3.254565 0.606363 1.559229
  H 2.635612 0.937750 2.384632
  C 3.063151 -0.327892 -0.765776
  C 4.442869 -0.419159 -0.993873
  C 5.088600 -0.871369 -2.120574
  C 4.608812 -1.388339 -3.409054
  C 3.123984 -1.513224 -3.721697
  C 2.921471 -2.076805 -5.126433
  H 6.170823 -0.855776 -2.081638
  H 0.617265 0.539652 1.394692
  H 0.605721 -0.843708 0.290600
  H 0.605231 0.774377 -0.359560
  H 3.911649 1.425020 1.259412
  H 3.912194 -0.191723 1.909050
  H 2.389890 -0.641694 -1.546345
  H 5.084456 -0.094243 -0.184853
  H 5.079791 -2.372861 -3.537613
  H 5.080583 -0.766278 -4.182478
  H 2.644881 -0.534224 -3.672755
  H 2.644273 -2.186570 -3.009765
  H 3.367865 -1.427657 -5.876318
  H 1.860929 -2.165418 -5.348253
  H 3.367361 -3.064496 -5.219545
 25
 0.163602
  C 1.011151 0.187992 0.438913
  C 2.481903 0.186505 0.361478
  C 3.257717 0.439369 1.583695
  H 2.654105 0.932516 2.340185
  C 3.063214 -0.085229 -0.873202
  C 4.442935 -0.209222 -1.087585
  C 5.093497 -0.712270 -2.188442
  C 4.614426 -1.318604 -3.434360
  C 3.129020 -1.475848 -3.725673
  C 2.918427 -2.213386 -5.045661
  H 6.175721 -0.689607 -2.133860
  H 0.648127 0.345021 1.449217
  H 0.604738 -0.746761 0.050364
  H 0.609235 0.968893 -0.209819
  H 4.155724 1.021828 1.392528
  H 3.586278 -0.515407 2.002681
  H 2.390663 -0.248256 -1.698602
  H 5.086292 0.092335 -0.271457
  H 5.097120 -2.304514 -3.503818
  H 5.085269 -0.758089 -4.255016
  H 2.654867 -0.496140 -3.799510
  H 2.651185 -2.047205 -2.928220
  H 3.369244 -1.669758 -5.872921
  H 1.857139 -2.321605 -5.254628
  H 3.356877 -3.208263 -5.011616
 25
 1.480166
  C 1.027470 0.241639 0.320563
  C 2.499716 0.208590 0.267706
  C 3.229820 0.105506 1.534094
  H 2.727092 0.679686 2.312089
  C 3.097114 0.195956 -0.984813
  C 4.478953 0.051129 -1.198709
  C 5.134422 -0.514668 -2.258115
  C 4.633650 -1.243400 -3.424160
  C 3.139497 -1.430796 -3.634992
  C 2.873148 -2.376808 -4.802125
  H 6.217483 -0.475861 -2.218819
  H 0.649351 0.161310 1.333677
  H 0.601861 -0.562193 -0.283074
  H 0.664017 1.166843 -0.128323
  H 4.270204 0.405769 1.462494
  H 3.208948 -0.933699 1.866296
  H 2.443304 0.241396 -1.837646
  H 5.122089 0.372011 -0.382939
  H 5.122043 -2.227342 -3.413311
  H 5.068579 -0.758881 -4.309328
  H 2.667789 -0.472098 -3.852959
  H 2.689686 -1.849129 -2.733265
  H 3.301660 -1.988708 -5.723147
  H 1.803467 -2.499297 -4.955771
  H 3.300333 -3.358851 -4.614500
 25
 6.496796
  C 1.052853 0.137130 0.076065
  C 2.531511 0.109462 0.094431
  C 3.192194 -0.143743 1.381739
  H 2.690920 0.431049 2.161130
  C 3.186981 0.455744 -1.071532
  C 4.581866 0.243292 -1.267291
  C 5.220385 -0.415694 -2.262462
  C 4.651447 -1.251675 -3.333617
  C 3.140821 -1.399967 -3.419399
  C 2.749764 -2.418068 -4.488290
  H 6.301451 -0.408523 -2.245266
  H 0.628360 -0.147084 1.035674
  H 0.656335 -0.528244 -0.691985
  H 0.712280 1.139816 -0.191901
  H 4.252110 0.089996 1.373538
  H 3.073518 -1.192434 1.666101
  H 2.595194 0.806751 -1.902990
  H 5.217541 0.635797 -0.477099
  H 5.115506 -2.241904 -3.256491
  H 5.030346 -0.849713 -4.282208
  H 2.681530 -0.443293 -3.664621
  H 2.754609 -1.736300 -2.452449
  H 3.106276 -2.107406 -5.468441
  H 1.668338 -2.519811 -4.540991
  H 3.170724 -3.397548 -4.267121
 25
 18.691499
  C 1.153664 0.104862 -0.256486
  C 2.643548 0.081407 -0.086366
  C 3.106221 -0.322091 1.244316
  H 2.469218 0.135723 1.997609
  C 3.315601 0.770238 -1.070687
  C 4.678760 0.377032 -1.319388
  C 5.270319 -0.344368 -2.276327
  C 4.632366 -1.242956 -3.270969
  C 3.125970 -1.438422 -3.162961
  C 2.630935 -2.465142 -4.179823
  H 6.350185 -0.403277 -2.265807
  H 0.648096 -0.306800 0.610386
  H 0.854173 -0.478522 -1.126899
  H 0.825979 1.128302 -0.425941
  H 4.145845 -0.042275 1.423184
  H 3.020181 -1.402440 1.376375
  H 2.798592 1.378346 -1.791703
  H 5.335655 0.806323 -0.561277
  H 5.141275 -2.212349 -3.248737
  H 4.868747 -0.815561 -4.255069
  H 2.614033 -0.494565 -3.348622
  H 2.877091 -1.784595 -2.158429
  H 2.813185 -2.119426 -5.196285
  H 1.561700 -2.630958 -4.066670
  H 3.136183 -3.418507 -4.048592
 25
 49.897884
  C 1.341359 0.026705 -0.362300
  C 2.936954 0.085392 -0.050170
  C 3.025598 -0.274283 1.364494
  H 2.162301 0.082787 1.913296
  C 3.350390 0.913173 -1.025626
  C 4.707285 0.392717 -1.302611
  C 5.219041 -0.393068 -2.258587
  C 4.562291 -1.247963 -3.272904
  C 3.055942 -1.420869 -3.189338
  C 2.585849 -2.470915 -4.182697
  H 6.300219 -0.412370 -2.330791
  H 0.810581 -0.400593 0.479262
  H 1.169822 -0.584827 -1.235698
  H 1.017472 1.040130 -0.539254
  H 3.923985 0.142845 1.822963
  H 3.078656 -1.359606 1.470102
  H 2.791075 1.478292 -1.746193
  H 5.424113 0.902479 -0.661487
  H 5.009441 -2.244269 -3.173489
  H 4.876505 -0.905928 -4.265887
  H 2.545670 -0.482553 -3.381715
  H 2.803802 -1.770331 -2.189263
  H 2.834409 -2.183783 -5.202714
  H 1.509212 -2.603334 -4.120722
  H 3.055773 -3.430227 -3.975601
 25
 82.206993
  C 1.232023 0.154627 -0.422767
  C 3.125825 0.157380 -0.187062
  C 3.119060 -0.539114 1.096679
  H 2.214927 -0.371458 1.662600
  C 3.268941 1.081516 -1.113354
  C 4.674278 0.579366 -1.291364
  C 5.185640 -0.257115 -2.226254
  C 4.553241 -1.237164 -3.127965
  C 3.045910 -1.440618 -3.053442
  C 2.607660 -2.553378 -4.001889
  H 6.267964 -0.254391 -2.304907
  H 0.837855 -0.424935 0.393154
  H 1.084822 -0.311579 -1.387023
  H 1.000921 1.202928 -0.372743
  H 3.957262 -0.184202 1.704894
  H 3.249666 -1.610077 0.949080
  H 2.726070 1.688277 -1.804225
  H 5.386495 1.117104 -0.670085
  H 5.050631 -2.199044 -2.958844
  H 4.837147 -0.960935 -4.149528
  H 2.531795 -0.520702 -3.334213
  H 2.760193 -1.709857 -2.036014
  H 2.881597 -2.320013 -5.027579
  H 1.530237 -2.684403 -3.965684
  H 3.073679 -3.499707 -3.732340
 25
 95.122825
  C 0.785502 0.049262 -0.439261
  C 3.282479 0.169526 -0.237318
  C 3.382664 -0.531250 1.012603
  H 2.435470 -0.527229 1.541873
  C 3.210043 1.052672 -1.155900
  C 4.677923 0.589966 -1.198331
  C 5.203152 -0.214358 -2.161811
  C 4.576259 -1.162580 -3.095303
  C 3.078524 -1.436364 -2.995879
  C 2.675273 -2.536906 -3.972630
  H 6.280513 -0.158486 -2.271384
  H 0.603025 -0.522260 0.448740
  H 0.706139 -0.463215 -1.375740
  H 0.578957 1.098424 -0.403749
  H 4.126260 -0.037016 1.642276
  H 3.700421 -1.561479 0.855695
  H 2.670881 1.592063 -1.893927
  H 5.364476 1.191505 -0.617890
  H 5.120973 -2.109385 -2.991221
  H 4.820673 -0.824135 -4.110035
  H 2.515767 -0.534693 -3.233266
  H 2.821994 -1.751117 -1.984971
  H 2.918802 -2.258167 -4.995346
  H 1.605350 -2.720393 -3.920314
  H 3.187696 -3.468275 -3.743097
 25
 95.595998
  C 0.479345 0.244364 -0.737382
  C 3.411224 0.077979 -0.168840
  C 3.599780 -0.660312 1.047403
  H 2.640629 -0.801461 1.543634
  C 3.171083 0.980772 -1.023524
  C 4.693629 0.551818 -1.099996
  C 5.190256 -0.174834 -2.142691
  C 4.554659 -1.118063 -3.065331
  C 3.087588 -1.494943 -2.879838
  C 2.694943 -2.587668 -3.870002
  H 6.249929 -0.038216 -2.333757
  H 0.471705 -0.365593 0.138957
  H 0.425666 -0.228858 -1.694136
  H 0.213573 1.275732 -0.648210
  H 4.259921 -0.103301 1.712611
  H 4.048355 -1.631687 0.848585
  H 2.627140 1.524857 -1.751687
  H 5.385639 1.176333 -0.549038
  H 5.166095 -2.029524 -3.040099
  H 4.709536 -0.729220 -4.079893
  H 2.452291 -0.626160 -3.046467
  H 2.914437 -1.857736 -1.867254
  H 2.853152 -2.260263 -4.895201
  H 1.644491 -2.843380 -3.757296
  H 3.279268 -3.490433 -3.706971
 25
 92.600545
  C 0.836667 0.398135 -0.841509
  C 3.315266 0.010608 -0.137942
  C 3.622854 -0.677025 1.098738
  H 2.715024 -0.933654 1.642993
  C 2.853674 0.911120 -0.931821
  C 4.542786 0.473640 -1.010597
  C 5.068758 -0.150782 -2.095228
  C 4.495956 -1.094379 -3.075632
  C 3.062976 -1.576480 -2.890524
  C 2.723678 -2.654090 -3.916929
  H 6.110260 0.079088 -2.292745
  H 0.742646 -0.234366 0.018058
  H 0.719232 -0.073785 -1.798598
  H 0.433543 1.390896 -0.750961
  H 4.229426 -0.022432 1.722624
  H 4.184601 -1.585585 0.897545
  H 2.397192 1.542773 -1.645939
  H 5.194173 1.128048 -0.444029
  H 5.167937 -1.961859 -3.095638
  H 4.605072 -0.645978 -4.070375
  H 2.374906 -0.742962 -3.020174
  H 2.929451 -1.987336 -1.889241
  H 2.848357 -2.279113 -4.930440
  H 1.692712 -2.979331 -3.802005
  H 3.365562 -3.524000 -3.795169
 25
 76.381151
  C 0.968618 0.353228 -0.729944
  C 3.311844 0.036705 -0.268839
  C 3.580094 -0.648762 0.993705
  H 2.665913 -0.985742 1.478894
  C 2.636310 0.957921 -0.924015
  C 4.576609 0.446834 -1.036222
  C 5.120937 -0.142742 -2.109800
  C 4.557364 -1.085483 -3.099695
  C 3.122004 -1.556007 -2.899267
  C 2.761954 -2.635492 -3.915017
  H 6.157930 0.106943 -2.307132
  H 0.922718 -0.323853 0.108164
  H 0.728360 -0.121665 -1.671339
  H 0.390957 1.258855 -0.577111
  H 4.084475 0.044541 1.661640
  H 4.226652 -1.505688 0.825980
  H 2.111922 1.583654 -1.628212
  H 5.178855 1.140182 -0.464091
  H 5.226441 -1.954658 -3.121198
  H 4.658104 -0.633881 -4.093745
  H 2.441304 -0.713567 -3.028812
  H 2.995416 -1.959811 -1.893542
  H 2.882417 -2.267536 -4.932383
  H 1.728651 -2.949370 -3.789169
  H 3.397053 -3.511302 -3.792882
 25
 42.155990
  C 1.007140 0.418607 -0.609830
  C 3.348386 0.075082 -0.370568
  C 3.491344 -0.700765 0.868598
  H 2.543564 -1.076169 1.245186
  C 2.439441 0.976167 -0.823034
  C 4.628417 0.408212 -1.054827
  C 5.193426 -0.145061 -2.119987
  C 4.621688 -1.093405 -3.112258
  C 3.188022 -1.549547 -2.874465
  C 2.791785 -2.629131 -3.878471
  H 6.225602 0.118845 -2.330488
  H 0.956780 -0.308777 0.190077
  H 0.640458 -0.008942 -1.538664
  H 0.386431 1.284146 -0.375521
  H 3.911850 -0.055951 1.637648
  H 4.170440 -1.529550 0.707421
  H 2.145188 1.530152 -1.692291
  H 5.197406 1.131414 -0.481873
  H 5.289767 -1.960037 -3.151723
  H 4.695867 -0.632859 -4.103394
  H 2.513807 -0.701474 -2.990959
  H 3.079881 -1.947003 -1.864812
  H 2.897575 -2.267063 -4.898291
  H 1.756608 -2.926445 -3.728743
  H 3.418044 -3.511745 -3.763433
 25
 15.960055
  C 0.934062 0.438864 -0.498939
  C 3.418392 0.090562 -0.442785
  C 3.491347 -0.724954 0.789145
  H 2.522532 -1.117054 1.083167
  C 2.311024 0.813785 -0.830433
  C 4.711756 0.368851 -1.056855
  C 5.266890 -0.148474 -2.152135
  C 4.658717 -1.098339 -3.124652
  C 3.209406 -1.489436 -2.891394
  C 2.761847 -2.587119 -3.853225
  H 6.291808 0.110961 -2.378156
  H 0.859040 -0.295404 0.296940
  H 0.456169 0.039682 -1.397556
  H 0.344521 1.320860 -0.238097
  H 3.847959 -0.108028 1.617364
  H 4.204295 -1.536449 0.668345
  H 2.339821 1.457405 -1.700941
  H 5.328970 1.018432 -0.440858
  H 5.286498 -1.995760 -3.149726
  H 4.756017 -0.646885 -4.117074
  H 2.568478 -0.619368 -3.029576
  H 3.090877 -1.857269 -1.869170
  H 2.869480 -2.258789 -4.883549
  H 1.719901 -2.841900 -3.686597
  H 3.356155 -3.486479 -3.717156
 25
 8.566159
  C 0.978515 0.490635 -0.447924
  C 3.468060 0.011187 -0.354318
  C 3.468879 -0.620686 0.990241
  H 2.490055 -1.004511 1.257244
  C 2.356298 0.610844 -0.905624
  C 4.761719 0.180083 -0.960508
  C 5.198230 -0.148573 -2.194761
  C 4.553533 -0.983002 -3.230004
  C 3.150591 -1.520016 -2.982545
  C 2.798176 -2.615039 -3.985754
  H 6.211245 0.137017 -2.449021
  H 0.864234 -0.056984 0.480642
  H 0.406308 -0.018619 -1.230287
  H 0.510362 1.472816 -0.365329
  H 3.746401 0.114523 1.747469
  H 4.202667 -1.421271 1.035811
  H 2.497325 1.215262 -1.791840
  H 5.509985 0.572202 -0.277405
  H 5.233007 -1.824712 -3.415292
  H 4.570217 -0.410494 -4.165685
  H 2.417091 -0.721669 -3.068076
  H 3.093241 -1.937445 -1.973787
  H 2.838929 -2.233063 -5.003245
  H 1.793386 -2.988571 -3.806638
  H 3.487508 -3.452218 -3.907279
 25
 7.845883
  C 0.977316 0.336584 -0.422974
  C 3.500282 0.020760 -0.245611
  C 3.522193 -0.368852 1.189310
  H 2.528610 -0.524600 1.592559
  C 2.354579 0.432536 -0.892023
  C 4.774200 0.064008 -0.892134
  C 5.154593 -0.195232 -2.175207
  C 4.502369 -0.944970 -3.261862
  C 3.089912 -1.491420 -3.099224
  C 2.800812 -2.553738 -4.156465
  H 6.179983 0.064356 -2.418707
  H 0.870264 -0.042522 0.586884
  H 0.427792 -0.324648 -1.101380
  H 0.474473 1.300564 -0.521788
  H 4.001964 0.414782 1.776505
  H 4.112675 -1.272451 1.326397
  H 2.485804 0.901159 -1.854913
  H 5.592531 0.271108 -0.208620
  H 5.177350 -1.788795 -3.458556
  H 4.573295 -0.346153 -4.178751
  H 2.355174 -0.698823 -3.206665
  H 2.978121 -1.938322 -2.109052
  H 2.890571 -2.136903 -5.157825
  H 1.789645 -2.939318 -4.042270
  H 3.491457 -3.391414 -4.071542
