 20
 0.000000
  H 1.405224 0.134920 0.386628
  C 2.475139 0.140018 0.399085
  H 3.027530 0.481638 1.249414
  C 3.096863 -0.322475 -0.752613
  C 4.472906 -0.413204 -0.978851
  C 5.132414 -0.867699 -2.111643
  C 4.618673 -1.388937 -3.410716
  C 3.124514 -1.501358 -3.691727
  C 2.884273 -2.062550 -5.090453
  O 6.457488 -0.870547 -2.119086
  H 2.436796 -0.639606 -1.542199
  H 5.100515 -0.083792 -0.158214
  H 5.068655 -2.379864 -3.541239
  H 5.069011 -0.763340 -4.190016
  H 2.653353 -0.519100 -3.634327
  H 2.652914 -2.171265 -2.971344
  H 3.317761 -1.416949 -5.851212
  H 1.816603 -2.139379 -5.282649
  H 3.317322 -3.055145 -5.193870
  H 6.834017 -0.535875 -1.285013
 20
 0.000000
  H 1.472136 0.112657 0.331145
  C 2.572094 0.118451 0.345344
  H 3.123235 0.460349 1.196372
  C 3.158303 -0.330461 -0.772527
  C 4.468591 -0.418890 -0.993020
  C 5.095920 -0.858717 -2.089260
  C 4.598180 -1.382103 -3.393689
  C 3.107569 -1.500868 -3.690500
  C 2.884535 -2.063043 -5.091681
  O 6.358147 -0.847317 -2.061190
  H 2.491645 -0.645668 -1.557332
  H 5.101141 -0.090792 -0.175656
  H 5.053727 -2.371105 -3.519422
  H 5.054079 -0.754579 -4.168192
  H 2.631654 -0.520623 -3.638110
  H 2.631220 -2.172791 -2.975135
  H 3.323305 -1.415587 -5.847822
  H 1.819294 -2.144405 -5.295167
  H 3.322871 -3.053786 -5.190488
  H 6.694324 -0.495232 -1.183717
 20
 0.000000
  H 1.534788 0.090870 0.276850
  C 2.668319 0.097670 0.293563
  H 3.217646 0.439971 1.145602
  C 3.220995 -0.338052 -0.791458
  C 4.465245 -0.424580 -1.007201
  C 5.061185 -0.850286 -2.068250
  C 4.578995 -1.375687 -3.377704
  C 3.092003 -1.500579 -3.689772
  C 2.885656 -2.063635 -5.093156
  O 6.259926 -0.826119 -2.008358
  H 2.547319 -0.651177 -1.571088
  H 5.103514 -0.098023 -0.193674
  H 5.039874 -2.362803 -3.498743
  H 5.040222 -0.746274 -4.147507
  H 2.611547 -0.522301 -3.642281
  H 2.611118 -2.174472 -2.979313
  H 3.329483 -1.414362 -5.844775
  H 1.822898 -2.149376 -5.307547
  H 3.329055 -3.052564 -5.187448
  H 6.551966 -0.454962 -1.083351
 20
 0.000000
  H 1.592814 0.069403 0.223349
  C 2.763614 0.077583 0.243512
  H 3.310485 0.420427 1.096912
  C 3.284813 -0.345347 -0.809650
  C 4.463100 -0.430204 -1.021219
  C 5.028503 -0.842365 -2.048513
  C 4.561254 -1.369635 -3.362626
  C 3.077897 -1.500377 -3.689264
  C 2.887544 -2.064214 -5.094596
  O 6.163353 -0.806981 -1.960657
  H 2.603841 -0.656269 -1.583807
  H 5.107773 -0.105397 -0.212050
  H 5.027184 -2.354926 -3.479122
  H 5.027528 -0.738394 -4.127879
  H 2.593146 -0.524001 -3.646504
  H 2.592723 -2.176175 -2.983543
  H 3.336162 -1.413181 -5.841837
  H 1.827286 -2.154136 -5.319400
  H 3.335740 -3.051386 -5.184517
  H 6.406505 -0.415426 -0.984811
 20
 0.000000
  H 1.644515 0.048377 0.170948
  C 2.857694 0.058435 0.195802
  H 3.401323 0.401992 1.050986
  C 3.349742 -0.352287 -0.826959
  C 4.462476 -0.435690 -1.034891
  C 4.998342 -0.835088 -2.030380
  C 4.545161 -1.364057 -3.348731
  C 3.065364 -1.500276 -3.689006
  C 2.890041 -2.064787 -5.096024
  O 6.069241 -0.790094 -1.918567
  H 2.661215 -0.660886 -1.595344
  H 5.114317 -0.112874 -0.230681
  H 5.015783 -2.347617 -3.460918
  H 5.016121 -0.731083 -4.109670
  H 2.576634 -0.525700 -3.650725
  H 2.576217 -2.177876 -2.987771
  H 3.343108 -1.412087 -5.839114
  H 1.832235 -2.158624 -5.330576
  H 3.342692 -3.050294 -5.181801
  H 6.257866 -0.376502 -0.887799
 20
 0.000000
  H 1.687971 0.027782 0.119619
  C 2.950825 0.040395 0.150850
  H 3.490228 0.384872 1.008338
  C 3.416151 -0.358843 -0.843312
  C 4.463777 -0.440980 -1.048076
  C 4.971069 -0.828564 -2.014123
  C 4.530843 -1.359048 -3.336251
  C 3.054446 -1.500284 -3.689019
  C 2.892937 -2.065364 -5.097462
  O 5.977900 -0.775559 -1.882335
  H 2.719795 -0.664988 -1.605600
  H 5.123684 -0.120446 -0.249549
  H 5.005733 -2.341003 -3.444445
  H 5.006067 -0.724466 -4.093191
  H 2.562104 -0.527373 -3.654882
  H 2.561692 -2.179552 -2.991934
  H 3.350051 -1.411118 -5.836705
  H 1.837476 -2.162788 -5.340945
  H 3.349641 -3.049328 -5.179398
  H 6.104869 -0.337802 -0.791343
 20
 0.000000
  H 1.721400 0.007861 0.069967
  C 3.041354 0.023825 0.109566
  H 3.575493 0.369437 0.969889
  C 3.482874 -0.364922 -0.858475
  C 4.467251 -0.445914 -1.060374
  C 4.947439 -0.822915 -2.000047
  C 4.518666 -1.354697 -3.325413
  C 3.045366 -1.500347 -3.689170
  C 2.896048 -2.065891 -5.098772
  O 5.891350 -0.763599 -1.852521
  H 2.778631 -0.668546 -1.614502
  H 5.135959 -0.127920 -0.268173
  H 4.997286 -2.335225 -3.430057
  H 4.997615 -0.718687 -4.078798
  H 2.549874 -0.528914 -3.658711
  H 2.549468 -2.181095 -2.995769
  H 3.356696 -1.410270 -5.834596
  H 1.842725 -2.166470 -5.350111
  H 3.356292 -3.048482 -5.177294
  H 5.949252 -0.300114 -0.697412
 20
 0.000000
  H 1.742477 -0.011338 0.022111
  C 3.129131 0.009024 0.072687
  H 3.656780 0.356014 0.936456
  C 3.549917 -0.370429 -0.872212
  C 4.473248 -0.450403 -1.071564
  C 4.927843 -0.818272 -1.988479
  C 4.508740 -1.351122 -3.316508
  C 3.038125 -1.500484 -3.689504
  C 2.899084 -2.066389 -5.100012
  O 5.810166 -0.754283 -1.829294
  H 2.837745 -0.671469 -1.621820
  H 5.151575 -0.135249 -0.286433
  H 4.990478 -2.330439 -3.418138
  H 4.990802 -0.713898 -4.066875
  H 2.540003 -0.530304 -3.662163
  H 2.539602 -2.182487 -2.999225
  H 3.362687 -1.409601 -5.832934
  H 1.847617 -2.169622 -5.357957
  H 3.362288 -3.047815 -5.175637
  H 5.790130 -0.263182 -0.605363
 20
 0.000000
  H 1.748659 -0.029662 -0.023565
  C 3.213290 -0.003582 0.041280
  H 3.733091 0.345046 0.909141
  C 3.616700 -0.375210 -0.884140
  C 4.482039 -0.454314 -1.081313
  C 4.912749 -0.814793 -1.979811
  C 4.501174 -1.348455 -3.309865
  C 3.032692 -1.500697 -3.690030
  C 2.901642 -2.066865 -5.101197
  O 5.735468 -0.747717 -1.812919
  H 2.896632 -0.673625 -1.627230
  H 5.170806 -0.142317 -0.304043
  H 4.985322 -2.326825 -3.409142
  H 4.985641 -0.710283 -4.057875
  H 2.532542 -0.531495 -3.665122
  H 2.532147 -2.183680 -3.002188
  H 3.367526 -1.409165 -5.831851
  H 1.851651 -2.172157 -5.364267
  H 3.367133 -3.047381 -5.174558
  H 5.627580 -0.227097 -0.515431
 20
 0.000000
  H 1.737780 -0.046990 -0.066766
  C 3.292848 -0.013583 0.016363
  H 3.803377 0.336939 0.888955
  C 3.682446 -0.379100 -0.893845
  C 4.493737 -0.457513 -1.089285
  C 4.902415 -0.812592 -1.974326
  C 4.495906 -1.346791 -3.305722
  C 3.028881 -1.500967 -3.690699
  C 2.903204 -2.067302 -5.102287
  O 5.668188 -0.743913 -1.803425
  H 2.954603 -0.674878 -1.630386
  H 5.193715 -0.148997 -0.320685
  H 4.981666 -2.324521 -3.403410
  H 4.981981 -0.707978 -4.052140
  H 2.527374 -0.532426 -3.667431
  H 2.526984 -2.184612 -3.004501
  H 3.370613 -1.408986 -5.831410
  H 1.854221 -2.173978 -5.368797
  H 3.370225 -3.047204 -5.174121
  H 5.461778 -0.192072 -0.428143
 20
 0.000000
  H 1.707428 -0.063240 -0.107284
  C 3.366605 -0.020543 -0.000975
  H 3.866378 0.332121 0.876966
  C 3.746189 -0.381901 -0.900835
  C 4.508367 -0.459860 -1.095135
  C 4.896996 -0.811777 -1.972299
  C 4.492817 -1.346221 -3.304306
  C 3.026467 -1.501287 -3.691491
  C 2.903261 -2.067696 -5.103268
  O 5.609196 -0.742828 -1.800709
  H 3.010802 -0.675070 -1.630898
  H 5.220230 -0.155141 -0.335990
  H 4.979316 -2.323656 -3.401262
  H 4.979628 -0.707112 -4.049990
  H 2.524338 -0.533050 -3.668979
  H 2.523952 -2.185238 -3.006051
  H 3.371368 -1.409095 -5.831685
  H 1.854745 -2.175008 -5.371358
  H 3.370984 -3.047314 -5.174399
  H 5.293268 -0.158272 -0.343912
 20
 0.000000
  H 1.654129 -0.078083 -0.144300
  C 3.433341 -0.023786 -0.009051
  H 3.920967 0.331228 0.874755
  C 3.806965 -0.383311 -0.904358
  C 4.526315 -0.461247 -1.098591
  C 4.896882 -0.812646 -1.974466
  C 4.491641 -1.346978 -3.306195
  C 3.024982 -1.501642 -3.692373
  C 2.900650 -2.068016 -5.104065
  O 5.559858 -0.744638 -1.805206
  H 3.064253 -0.673898 -1.628010
  H 5.250784 -0.160681 -0.349786
  H 4.977806 -2.324546 -3.403487
  H 4.978113 -0.708002 -4.052214
  H 2.523134 -0.533268 -3.669514
  H 2.522751 -2.185456 -3.006588
  H 3.368436 -1.409543 -5.832804
  H 1.851920 -2.175040 -5.371434
  H 3.368056 -3.047761 -5.175518
  H 5.124014 -0.125684 -0.262711
 20
 0.000000
  H 1.625357 -0.082790 -0.156044
  C 3.450473 -0.023538 -0.008434
  H 3.933129 0.332416 0.877720
  C 3.823779 -0.383108 -0.903856
  C 4.530795 -0.461102 -1.098232
  C 4.896265 -0.813104 -1.975607
  C 4.490295 -1.347358 -3.307146
  C 3.023424 -1.501745 -3.692631
  C 2.898318 -2.068095 -5.104265
  O 5.543923 -0.745564 -1.807510
  H 3.079042 -0.672972 -1.625714
  H 5.259345 -0.161908 -0.352844
  H 4.976229 -2.325018 -3.404668
  H 4.976536 -0.708474 -4.053394
  H 2.521770 -0.533276 -3.669535
  H 2.521388 -2.185464 -3.006609
  H 3.365885 -1.409710 -5.833224
  H 1.849442 -2.174921 -5.371139
  H 3.365505 -3.047929 -5.175939
  H 5.064503 -0.114166 -0.234013
 20
 0.000000
  H 1.478507 -0.109515 -0.222711
  C 3.560601 -0.020789 -0.001572
  H 4.017352 0.339868 0.896325
  C 3.931269 -0.382207 -0.901616
  C 4.572229 -0.460947 -1.097840
  C 4.906610 -0.817875 -1.987499
  C 4.490027 -1.350994 -3.316212
  C 3.020121 -1.501336 -3.691604
  C 2.883756 -2.067323 -5.102341
  O 5.471692 -0.754757 -1.830396
  H 3.173101 -0.667178 -1.611330
  H 5.326103 -0.170599 -0.374481
  H 4.972585 -2.329988 -3.417064
  H 4.972885 -0.713443 -4.065789
  H 2.521307 -0.531489 -3.665067
  H 2.520931 -2.183677 -3.002142
  H 3.348113 -1.410220 -5.834502
  H 1.832780 -2.171257 -5.361998
  H 3.347739 -3.048439 -5.177218
  H 4.732800 -0.061110 -0.101828
