 23
 0.000000
  C 0.926836 0.049517 0.297844
  C 2.413437 0.058026 0.060240
  C 3.235426 -0.013518 1.327507
  H 2.588132 -0.067011 2.199652
  C 3.003924 0.127671 -1.146380
  C 2.357972 0.205544 -2.515704
  C 0.843904 0.213171 -2.692343
  H 0.628101 0.274207 -3.759448
  C 4.461579 0.132724 -1.228277
  C 5.207133 0.196369 -2.330773
  O 6.566195 0.197412 -2.336328
  H 0.713228 -0.014506 1.362360
  H 0.450856 -0.801235 -0.183082
  H 0.462923 0.958952 -0.075444
  H 3.869093 0.866400 1.438753
  H 3.875524 -0.895733 1.335786
  H 2.748665 -0.641344 -3.089293
  H 2.746197 1.113765 -2.988308
  H 0.383897 1.071461 -2.213714
  H 0.387267 -0.696198 -2.315550
  H 5.001544 0.079491 -0.293318
  H 4.832228 0.254186 -3.339063
  H 6.894733 0.145432 -1.429223
 23
 5.984982
  C 0.946787 0.027697 0.292528
  C 2.389690 0.052872 0.067374
  C 3.222157 -0.031813 1.323472
  H 2.578673 -0.049959 2.204309
  C 2.987920 0.122928 -1.134938
  C 2.339059 0.200433 -2.499578
  C 0.829433 0.188507 -2.678805
  H 0.616063 0.251146 -3.745615
  C 4.449126 0.145579 -1.215909
  C 5.198682 0.216950 -2.323351
  O 6.561639 0.223503 -2.326812
  H 0.677849 0.008477 1.332279
  H 0.422888 -0.747312 -0.216829
  H 0.767520 1.001089 -0.146454
  H 3.888355 0.822792 1.420735
  H 3.824955 -0.938263 1.337128
  H 2.737488 -0.637971 -3.076300
  H 2.715384 1.114047 -2.967549
  H 0.351085 1.037191 -2.199620
  H 0.385984 -0.731308 -2.309089
  H 4.987315 0.092988 -0.287224
  H 4.823428 0.273998 -3.335759
  H 6.888821 0.170792 -1.416801
 23
 18.241199
  C 0.937805 0.049011 0.310699
  C 2.377563 0.045377 0.081861
  C 3.231739 -0.054138 1.335591
  H 2.598640 -0.037466 2.222712
  C 2.983093 0.119320 -1.141768
  C 2.329024 0.204465 -2.511069
  C 0.817820 0.146400 -2.698859
  H 0.608394 0.227702 -3.767096
  C 4.433330 0.149489 -1.215737
  C 5.186690 0.238830 -2.316333
  O 6.549190 0.250565 -2.311183
  H 0.643368 0.079679 1.351450
  H 0.350217 -0.667179 -0.233772
  H 1.021963 1.010637 -0.147968
  H 3.932874 0.771207 1.417751
  H 3.794409 -0.983331 1.351168
  H 2.752136 -0.610515 -3.102174
  H 2.679555 1.135818 -2.963151
  H 0.302635 0.964024 -2.201107
  H 0.406043 -0.800556 -2.357040
  H 4.968727 0.081904 -0.282762
  H 4.818915 0.311483 -3.327598
  H 6.871194 0.182766 -1.395534
 23
 31.948905
  C 0.917197 0.040391 0.323265
  C 2.363206 0.050072 0.080352
  C 3.210780 -0.039272 1.332453
  H 2.580003 -0.006700 2.213011
  C 2.983507 0.116892 -1.144470
  C 2.332357 0.204835 -2.512810
  C 0.820401 0.123715 -2.695815
  H 0.604066 0.216317 -3.762036
  C 4.438310 0.143992 -1.217364
  C 5.185605 0.251217 -2.318572
  O 6.553417 0.256977 -2.320412
  H 0.619473 0.048231 1.362776
  H 0.292218 -0.592805 -0.277511
  H 1.199862 0.995059 -0.087979
  H 3.925097 0.780636 1.408015
  H 3.763329 -0.983709 1.355762
  H 2.767814 -0.595791 -3.113118
  H 2.668239 1.147083 -2.956246
  H 0.293741 0.925942 -2.181631
  H 0.428810 -0.839428 -2.366296
  H 4.978819 0.056657 -0.285833
  H 4.811120 0.347257 -3.327177
  H 6.876057 0.167200 -1.414722
 23
 43.360626
  C 0.899866 0.014662 0.347410
  C 2.353138 0.050969 0.078551
  C 3.194900 -0.012628 1.330117
  H 2.563070 0.033108 2.211587
  C 2.985563 0.110577 -1.154383
  C 2.336888 0.203047 -2.524377
  C 0.828874 0.114915 -2.701798
  H 0.605945 0.217222 -3.762549
  C 4.440167 0.135188 -1.223756
  C 5.186035 0.259020 -2.323127
  O 6.550706 0.255612 -2.327203
  H 0.612376 -0.025916 1.389235
  H 0.239696 -0.531676 -0.307722
  H 1.329798 0.968680 -0.000604
  H 3.908598 0.807470 1.391920
  H 3.742223 -0.952083 1.365857
  H 2.777776 -0.591879 -3.133628
  H 2.665864 1.152557 -2.962388
  H 0.303635 0.906649 -2.177502
  H 0.448664 -0.849890 -2.382796
  H 4.981754 0.026947 -0.294180
  H 4.813397 0.376465 -3.320301
  H 6.870505 0.144678 -1.427803
 23
 51.744648
  C 0.896095 -0.018083 0.357417
  C 2.348941 0.053876 0.069930
  C 3.186170 0.013580 1.329478
  H 2.550499 0.068805 2.211506
  C 2.986233 0.107087 -1.164673
  C 2.337479 0.200429 -2.534347
  C 0.827250 0.113457 -2.702885
  H 0.596518 0.220272 -3.759493
  C 4.435745 0.129779 -1.227658
  C 5.189628 0.263362 -2.325663
  O 6.555052 0.251873 -2.322271
  H 0.621083 -0.106492 1.389501
  H 0.215762 -0.475678 -0.334537
  H 1.433723 0.940717 0.067311
  H 3.893294 0.833242 1.379442
  H 3.734396 -0.918866 1.379490
  H 2.777262 -0.593640 -3.148262
  H 2.663415 1.151193 -2.972166
  H 0.309447 0.903066 -2.173165
  H 0.449889 -0.850471 -2.385879
  H 4.971672 0.007069 -0.302362
  H 4.822548 0.396287 -3.323514
  H 6.870676 0.124946 -1.414906
 23
 57.882853
  C 0.889385 -0.053250 0.369378
  C 2.342869 0.063478 0.068854
  C 3.189620 0.036357 1.325413
  H 2.562378 0.098586 2.207165
  C 2.983343 0.104401 -1.171052
  C 2.339712 0.196978 -2.540991
  C 0.821416 0.114804 -2.715239
  H 0.592389 0.224984 -3.774745
  C 4.429915 0.127504 -1.226833
  C 5.188689 0.266507 -2.319833
  O 6.559401 0.248039 -2.310245
  H 0.620458 -0.178700 1.398800
  H 0.192707 -0.424862 -0.345714
  H 1.506136 0.920255 0.123158
  H 3.894151 0.858988 1.360850
  H 3.745158 -0.900824 1.381948
  H 2.780992 -0.598474 -3.152913
  H 2.669983 1.147999 -2.980395
  H 0.304191 0.909433 -2.183551
  H 0.437078 -0.854635 -2.399056
  H 4.965577 -0.006396 -0.296080
  H 4.827165 0.409294 -3.315343
  H 6.868526 0.111114 -1.405335
 23
 63.246145
  C 0.888935 -0.084951 0.354715
  C 2.339341 0.073130 0.060596
  C 3.186438 0.049795 1.323401
  H 2.546534 0.118728 2.218625
  C 2.982724 0.104741 -1.176185
  C 2.339963 0.196712 -2.536736
  C 0.821604 0.121511 -2.699823
  H 0.584480 0.230919 -3.753217
  C 4.431619 0.122860 -1.231585
  C 5.195312 0.261963 -2.322438
  O 6.563466 0.247518 -2.303709
  H 0.615024 -0.213551 1.390524
  H 0.191513 -0.424219 -0.378118
  H 1.563218 0.905995 0.120444
  H 3.895399 0.878769 1.355102
  H 3.742465 -0.887871 1.386056
  H 2.774567 -0.597923 -3.145399
  H 2.672754 1.139221 -2.978490
  H 0.315933 0.914997 -2.169349
  H 0.438813 -0.836344 -2.382086
  H 4.965784 -0.012626 -0.301741
  H 4.835356 0.411488 -3.329831
  H 6.865662 0.109666 -1.397029
 23
 66.647873
  C 0.890315 -0.144162 0.366546
  C 2.334384 0.083872 0.072330
  C 3.187621 0.069009 1.333522
  H 2.559406 0.142271 2.215058
  C 2.990255 0.101407 -1.182522
  C 2.342141 0.197808 -2.547567
  C 0.826895 0.133024 -2.706590
  H 0.587826 0.253067 -3.760490
  C 4.429522 0.124668 -1.231017
  C 5.195715 0.260318 -2.322924
  O 6.563987 0.235429 -2.303398
  H 0.605195 -0.253973 1.394802
  H 0.186651 -0.435426 -0.375019
  H 1.595558 0.908709 0.135693
  H 3.893441 0.898032 1.356224
  H 3.740640 -0.861385 1.402013
  H 2.770345 -0.601181 -3.161421
  H 2.677186 1.142315 -2.991814
  H 0.325592 0.929046 -2.165185
  H 0.436834 -0.830275 -2.393936
  H 4.963870 -0.011337 -0.297143
  H 4.837392 0.404387 -3.329645
  H 6.864817 0.097713 -1.395525
 23
 69.202664
  C 0.899318 -0.210867 0.358789
  C 2.332081 0.097449 0.078862
  C 3.180220 0.088228 1.346773
  H 2.547050 0.168389 2.221524
  C 3.002419 0.097088 -1.186472
  C 2.347269 0.199816 -2.551772
  C 0.828022 0.147857 -2.696352
  H 0.579103 0.279908 -3.745282
  C 4.433193 0.123169 -1.233156
  C 5.201490 0.253783 -2.329259
  O 6.568762 0.225821 -2.309784
  H 0.591439 -0.286270 1.382255
  H 0.198996 -0.469503 -0.395400
  H 1.626693 0.927168 0.123908
  H 3.891169 0.922179 1.367484
  H 3.728234 -0.839359 1.424822
  H 2.765884 -0.604388 -3.171004
  H 2.686197 1.143555 -2.998706
  H 0.337482 0.944484 -2.141003
  H 0.432643 -0.816514 -2.387838
  H 4.967016 -0.009727 -0.302543
  H 4.842857 0.393418 -3.335936
  H 6.869088 0.092343 -1.401628
 23
 70.253632
  C 0.919537 -0.295029 0.359708
  C 2.326546 0.109961 0.081547
  C 3.181764 0.119117 1.346148
  H 2.546616 0.206470 2.227524
  C 3.003695 0.096126 -1.192162
  C 2.343458 0.206161 -2.555420
  C 0.829550 0.170782 -2.691996
  H 0.576275 0.317399 -3.739179
  C 4.428495 0.123832 -1.232279
  C 5.204548 0.246521 -2.325602
  O 6.571510 0.204794 -2.298080
  H 0.594333 -0.321615 1.378133
  H 0.218035 -0.538813 -0.403631
  H 1.649294 0.950383 0.101596
  H 3.881504 0.954125 1.352298
  H 3.738845 -0.808960 1.432652
  H 2.747852 -0.595693 -3.174640
  H 2.688960 1.149063 -3.003556
  H 0.351165 0.965692 -2.124997
  H 0.425117 -0.793738 -2.391278
  H 4.957819 -0.008713 -0.299945
  H 4.852501 0.378600 -3.333528
  H 6.865932 0.073823 -1.386863
 23
 69.958293
  C 0.949747 -0.398540 0.357256
  C 2.319598 0.116155 0.083253
  C 3.175333 0.162053 1.350012
  H 2.537574 0.259709 2.227170
  C 3.009476 0.085891 -1.197652
  C 2.345038 0.212039 -2.557228
  C 0.828933 0.208185 -2.680960
  H 0.568088 0.381044 -3.722634
  C 4.426615 0.109732 -1.233155
  C 5.208409 0.226844 -2.327248
  O 6.572470 0.189289 -2.293117
  H 0.593311 -0.362372 1.367217
  H 0.258755 -0.642440 -0.414057
  H 1.662603 0.968452 0.065076
  H 3.860981 1.004363 1.337786
  H 3.743163 -0.755389 1.456687
  H 2.731367 -0.594579 -3.185692
  H 2.704958 1.151587 -3.002843
  H 0.369262 1.001164 -2.089199
  H 0.409346 -0.751610 -2.396859
  H 4.953127 -0.015326 -0.299049
  H 4.858671 0.356711 -3.337515
  H 6.863930 0.065618 -1.378705
 23
 68.647992
  C 0.998526 -0.522848 0.358115
  C 2.309108 0.119136 0.083002
  C 3.160262 0.227460 1.347107
  H 2.517360 0.335042 2.217162
  C 3.015092 0.075879 -1.204470
  C 2.344765 0.223064 -2.559713
  C 0.826786 0.267591 -2.663353
  H 0.555375 0.472484 -3.700651
  C 4.424150 0.088360 -1.233234
  C 5.213420 0.201331 -2.326937
  O 6.576657 0.166863 -2.285894
  H 0.601984 -0.427870 1.350555
  H 0.327978 -0.799850 -0.421001
  H 1.660725 0.976411 0.018653
  H 3.821338 1.087233 1.307259
  H 3.753230 -0.672673 1.484826
  H 2.701169 -0.593832 -3.197317
  H 2.727687 1.152352 -3.006237
  H 0.401192 1.058803 -2.048303
  H 0.379620 -0.684318 -2.391935
  H 4.945864 -0.033276 -0.295797
  H 4.867138 0.335176 -3.336050
  H 6.864945 0.046513 -1.370284
 23
 67.510466
  C 1.052368 -0.626821 0.355624
  C 2.297139 0.132594 0.077148
  C 3.146006 0.293738 1.342421
  H 2.497848 0.396518 2.208580
  C 3.011700 0.095865 -1.206180
  C 2.342187 0.246805 -2.554417
  C 0.823868 0.321740 -2.649254
  H 0.549566 0.543732 -3.684574
  C 4.421954 0.101607 -1.230493
  C 5.215567 0.195014 -2.324881
  O 6.574355 0.116834 -2.284057
  H 0.618236 -0.500505 1.329887
  H 0.408806 -0.947229 -0.431427
  H 1.651143 0.977271 -0.015596
  H 3.779931 1.177991 1.284563
  H 3.767167 -0.581077 1.498794
  H 2.680256 -0.576063 -3.189560
  H 2.741913 1.172268 -3.006955
  H 0.418394 1.111099 -2.023409
  H 0.358891 -0.620619 -2.386476
  H 4.939546 -0.040677 -0.292889
  H 4.869677 0.317418 -3.338083
  H 6.860160 -0.006491 -1.367883
