 20
 0.000000
  C 0.980014 0.156236 0.430490
  C 2.442435 0.119887 0.361069
  H 3.035132 0.451702 1.199991
  C 3.048498 -0.338748 -0.786666
  C 4.428845 -0.411494 -0.973843
  C 5.118310 -0.860962 -2.101560
  C 4.629440 -1.384655 -3.403818
  C 3.143949 -1.510429 -3.705214
  H 3.017550 -1.911799 -4.704780
  O 6.434606 -0.847982 -2.081156
  H 0.602388 0.539516 1.373346
  H 0.575061 -0.844976 0.270140
  H 0.587687 0.774122 -0.379954
  H 2.397025 -0.655913 -1.583283
  H 5.045946 -0.079606 -0.145634
  H 5.098552 -2.367754 -3.526046
  H 5.093346 -0.755883 -4.172584
  H 2.654295 -0.540520 -3.670723
  H 2.659704 -2.190325 -3.008852
  H 6.820961 -0.513901 -1.249247
 20
 -0.272649
  C 0.990255 0.103069 0.570155
  C 2.412745 0.221128 0.256999
  H 3.052460 0.757264 0.956561
  C 2.973882 -0.339653 -0.867173
  C 4.357983 -0.363171 -1.049656
  C 5.106281 -0.917764 -2.088081
  C 4.663162 -1.433410 -3.410356
  C 3.197222 -1.399348 -3.803491
  H 3.113197 -1.720189 -4.836077
  O 6.412675 -0.992173 -1.964476
  H 0.717457 0.647961 1.468510
  H 0.740444 -0.955939 0.702678
  H 0.373599 0.435126 -0.270134
  H 2.318292 -0.800974 -1.586166
  H 4.938210 0.053360 -0.232044
  H 5.039209 -2.457061 -3.487838
  H 5.247358 -0.872639 -4.151251
  H 2.790099 -0.395884 -3.735240
  H 2.606643 -2.084420 -3.204992
  H 6.772579 -0.658231 -1.124087
 20
 1.828830
  C 1.037880 0.017634 0.671135
  C 2.365425 0.353091 0.160464
  H 2.945754 1.097004 0.690344
  C 2.929678 -0.278647 -0.927520
  C 4.310575 -0.310053 -1.101206
  C 5.072399 -0.963804 -2.073217
  C 4.659802 -1.452418 -3.413120
  C 3.222570 -1.277210 -3.876646
  H 3.162628 -1.555718 -4.926657
  O 6.353113 -1.160549 -1.862911
  H 0.755322 0.629062 1.520701
  H 1.054017 -1.033720 0.972141
  H 0.274592 0.084646 -0.106402
  H 2.281465 -0.825200 -1.592240
  H 4.883061 0.144316 -0.296350
  H 4.940896 -2.509698 -3.470150
  H 5.330805 -0.952468 -4.120585
  H 2.898405 -0.244556 -3.786773
  H 2.544290 -1.929102 -3.332669
  H 6.690442 -0.839859 -1.004016
 20
 6.561429
  C 1.127292 -0.069864 0.758130
  C 2.323173 0.439472 0.087706
  H 2.813794 1.315796 0.497540
  C 2.899081 -0.197234 -0.998625
  C 4.276047 -0.322455 -1.107470
  C 5.043416 -0.998454 -2.058161
  C 4.656970 -1.474298 -3.411401
  C 3.249664 -1.231246 -3.925131
  H 3.206175 -1.536475 -4.966498
  O 6.302548 -1.263221 -1.798272
  H 0.864820 0.515076 1.633999
  H 1.350854 -1.098668 1.052467
  H 0.267562 -0.131030 0.087529
  H 2.245694 -0.684025 -1.707760
  H 4.835716 0.060707 -0.259289
  H 4.885525 -2.543888 -3.453744
  H 5.377016 -1.011587 -4.096565
  H 2.984520 -0.180785 -3.875198
  H 2.519112 -1.827113 -3.387056
  H 6.622001 -0.950224 -0.929648
 20
 13.014337
  C 1.233886 -0.141776 0.838473
  C 2.281299 0.494373 0.043194
  H 2.656168 1.463443 0.346813
  C 2.877167 -0.140370 -1.048319
  C 4.240321 -0.349154 -1.104075
  C 5.009067 -1.024215 -2.051914
  C 4.639376 -1.470383 -3.421154
  C 3.253621 -1.166152 -3.967618
  H 3.220701 -1.469699 -5.011049
  O 6.249612 -1.346601 -1.762268
  H 0.976090 0.436570 1.718370
  H 1.626150 -1.120069 1.125891
  H 0.327886 -0.337526 0.260720
  H 2.225240 -0.548991 -1.807097
  H 4.786338 -0.025932 -0.223288
  H 4.825067 -2.549023 -3.467229
  H 5.394409 -1.031566 -4.083522
  H 3.033591 -0.103259 -3.924409
  H 2.486025 -1.730647 -3.446636
  H 6.553899 -1.065120 -0.879070
 20
 20.448142
  C 1.344834 -0.163510 0.946959
  C 2.244457 0.507024 0.011914
  H 2.422942 1.568465 0.115268
  C 2.864075 -0.180783 -1.054706
  C 4.210878 -0.439869 -1.086198
  C 4.981470 -1.087782 -2.054753
  C 4.628270 -1.453680 -3.454732
  C 3.257476 -1.089565 -4.012470
  H 3.236642 -1.345738 -5.069034
  O 6.224768 -1.405429 -1.776652
  H 1.096043 0.466021 1.796046
  H 1.834631 -1.080482 1.280711
  H 0.412481 -0.476497 0.465042
  H 2.210599 -0.549856 -1.836184
  H 4.750864 -0.161210 -0.189467
  H 4.785102 -2.534675 -3.548735
  H 5.408606 -1.005637 -4.081299
  H 3.064127 -0.023377 -3.926892
  H 2.463779 -1.657780 -3.530510
  H 6.517308 -1.181574 -0.872473
 20
 29.432599
  C 1.491545 -0.197448 1.034270
  C 2.192193 0.538834 -0.015577
  H 2.185833 1.619590 -0.005334
  C 2.869054 -0.116840 -1.099442
  C 4.180401 -0.482262 -1.067095
  C 4.947705 -1.121219 -2.062174
  C 4.596214 -1.462716 -3.464222
  C 3.251376 -1.056774 -4.045407
  H 3.243639 -1.314199 -5.101696
  O 6.176879 -1.480079 -1.778577
  H 1.202075 0.447204 1.857290
  H 2.090272 -1.037175 1.389992
  H 0.581333 -0.653343 0.625137
  H 2.258673 -0.321427 -1.970799
  H 4.712710 -0.271812 -0.146561
  H 4.720575 -2.547280 -3.559018
  H 5.398793 -1.039277 -4.081013
  H 3.091023 0.015628 -3.968136
  H 2.432304 -1.597515 -3.578268
  H 6.467327 -1.291260 -0.864908
 20
 19.456654
  C 1.612962 -0.197399 1.090323
  C 2.144070 0.518733 -0.060431
  H 1.889853 1.568868 -0.177013
  C 2.867342 -0.080266 -1.116203
  C 4.157767 -0.553134 -1.042032
  C 4.902610 -1.166286 -2.049357
  C 4.555549 -1.474349 -3.465658
  C 3.233411 -1.035516 -4.060822
  H 3.231106 -1.304371 -5.117191
  O 6.142143 -1.529085 -1.787407
  H 1.273549 0.472617 1.872743
  H 2.287215 -0.953087 1.489563
  H 0.747861 -0.775839 0.741188
  H 2.324011 -0.143047 -2.051639
  H 4.666091 -0.415984 -0.092529
  H 4.653602 -2.561500 -3.569254
  H 5.370280 -1.065979 -4.066025
  H 3.106664 0.043374 -3.999819
  H 2.393492 -1.547905 -3.595091
  H 6.419971 -1.409065 -0.860052
 20
 11.578624
  C 1.756237 -0.213109 1.084031
  C 2.106377 0.545105 -0.112087
  H 1.722915 1.552990 -0.204648
  C 2.873756 0.045444 -1.159139
  C 4.125688 -0.536207 -1.040362
  C 4.871231 -1.171753 -2.029314
  C 4.536388 -1.486883 -3.444549
  C 3.227680 -1.026981 -4.063942
  H 3.226756 -1.319551 -5.110803
  O 6.080765 -1.607077 -1.735249
  H 1.410664 0.420022 1.894290
  H 2.537328 -0.899151 1.406066
  H 0.925890 -0.874379 0.808946
  H 2.432983 0.147624 -2.141778
  H 4.599475 -0.450367 -0.069728
  H 4.612719 -2.576635 -3.530020
  H 5.369736 -1.103889 -4.042665
  H 3.127834 0.053840 -4.034930
  H 2.372619 -1.501629 -3.591747
  H 6.373003 -1.429457 -0.822471
 20
 5.135924
  C 1.877244 -0.197238 1.105549
  C 2.064975 0.511654 -0.156170
  H 1.483554 1.413945 -0.309017
  C 2.871970 0.082781 -1.189534
  C 4.100976 -0.561911 -1.044647
  C 4.861521 -1.185340 -2.027887
  C 4.535083 -1.487339 -3.448532
  C 3.236294 -1.013291 -4.070925
  H 3.220603 -1.332951 -5.110410
  O 6.055018 -1.648068 -1.716815
  H 1.556234 0.462703 1.905661
  H 2.736737 -0.803603 1.390660
  H 1.067794 -0.919847 0.951240
  H 2.520509 0.305979 -2.186440
  H 4.541446 -0.525498 -0.053977
  H 4.593241 -2.578450 -3.531991
  H 5.376905 -1.121801 -4.043126
  H 3.162455 0.071299 -4.070248
  H 2.374925 -1.449631 -3.579302
  H 6.340185 -1.480794 -0.797773
 20
 4.615055
  C 1.955572 -0.270420 1.028717
  C 2.022363 0.530490 -0.192046
  H 1.377549 1.392785 -0.281294
  C 2.877442 0.213407 -1.226827
  C 4.073694 -0.498818 -1.045995
  C 4.872372 -1.141771 -2.003908
  C 4.542691 -1.514778 -3.409834
  C 3.244341 -1.044035 -4.044201
  H 3.173125 -1.473129 -5.041013
  O 6.066742 -1.593228 -1.659154
  H 1.714832 0.317096 1.909457
  H 2.854104 -0.877684 1.128407
  H 1.137958 -0.991504 0.909131
  H 2.600615 0.535313 -2.219695
  H 4.494099 -0.461816 -0.046238
  H 4.574645 -2.611476 -3.434753
  H 5.390498 -1.200694 -4.026398
  H 3.223797 0.036562 -4.157893
  H 2.379222 -1.376167 -3.477150
  H 6.341626 -1.393518 -0.742363
