 16
 0.000000
  C 0.931814 0.052144 0.211592
  C 2.414404 0.063899 0.003276
  H 3.013474 0.013131 0.903014
  C 3.044892 0.130384 -1.174976
  C 2.313702 0.204374 -2.486272
  H 1.239731 0.195865 -2.335479
  C 4.500908 0.132003 -1.203621
  C 5.263185 0.193260 -2.289312
  H 6.338344 0.189246 -2.218156
  H 0.698672 -0.007661 1.271404
  H 0.474064 -0.802424 -0.287115
  H 0.474064 0.957392 -0.187811
  H 2.586504 -0.641712 -3.115324
  H 2.586511 1.115867 -3.016160
  H 4.975345 0.077118 -0.230917
  H 4.856937 0.249390 -3.284097
 16
 7.568911
  C 0.821617 0.051334 0.226184
  C 2.470965 0.062406 0.010465
  H 3.024641 0.010280 0.932608
  C 3.075040 0.130990 -1.171994
  C 2.335789 0.202374 -2.473243
  H 1.264676 0.198132 -2.315469
  C 4.531466 0.135210 -1.216328
  C 5.277972 0.196136 -2.312923
  H 6.353251 0.193098 -2.259151
  H 0.628234 -0.009366 1.287658
  H 0.411247 -0.811352 -0.284841
  H 0.412875 0.966049 -0.181709
  H 2.599989 -0.650526 -3.099223
  H 2.606691 1.112073 -3.006447
  H 5.018227 0.081351 -0.250195
  H 4.856513 0.252779 -3.302165
 16
 22.874126
  C 0.714505 0.049115 0.253547
  C 2.521358 0.062237 0.013492
  H 3.069666 0.010392 0.934648
  C 3.111276 0.131069 -1.174150
  C 2.355447 0.202201 -2.468712
  H 1.283380 0.197280 -2.296326
  C 4.572047 0.135755 -1.232746
  C 5.306821 0.197343 -2.336504
  H 6.382904 0.195192 -2.292525
  H 0.536071 -0.011718 1.315843
  H 0.315302 -0.813315 -0.257158
  H 0.316159 0.965281 -0.155458
  H 2.611402 -0.649202 -3.098747
  H 2.618391 1.112660 -3.006978
  H 5.068829 0.082584 -0.270902
  H 4.875873 0.252439 -3.321468
 16
 41.101990
  C 0.607388 0.047756 0.277380
  C 2.572396 0.062175 0.017847
  H 3.111677 0.010043 0.944355
  C 3.147057 0.131250 -1.175149
  C 2.377541 0.201910 -2.459368
  H 1.309919 0.196337 -2.272065
  C 4.606471 0.136359 -1.248728
  C 5.327805 0.198732 -2.361566
  H 6.404362 0.197441 -2.329340
  H 0.446464 -0.013206 1.341226
  H 0.223515 -0.819001 -0.237759
  H 0.225604 0.967713 -0.135135
  H 2.625388 -0.649311 -3.093928
  H 2.632285 1.113000 -3.002046
  H 5.113394 0.084005 -0.292717
  H 4.885256 0.252470 -3.341929
 16
 59.075165
  C 0.499572 0.046284 0.299100
  C 2.623106 0.061754 0.022953
  H 3.149830 0.009316 0.954320
  C 3.181403 0.131099 -1.174269
  C 2.394975 0.201288 -2.449262
  H 1.328788 0.194701 -2.244595
  C 4.643547 0.136939 -1.264214
  C 5.350048 0.200149 -2.385889
  H 6.427024 0.199823 -2.366361
  H 0.357616 -0.014938 1.364003
  H 0.135251 -0.822887 -0.220429
  H 0.137596 0.970255 -0.117908
  H 2.633820 -0.649055 -3.087895
  H 2.640558 1.113031 -2.996397
  H 5.161874 0.085376 -0.314122
  H 4.895515 0.252707 -3.360237
 16
 75.376078
  C 0.390765 0.045203 0.319552
  C 2.673102 0.061384 0.028987
  H 3.187420 0.008498 0.967059
  C 3.215855 0.130979 -1.172533
  C 2.414114 0.200612 -2.436572
  H 1.352146 0.193043 -2.214958
  C 4.677535 0.137607 -1.279874
  C 5.368004 0.201620 -2.411393
  H 6.445204 0.202249 -2.405966
  H 0.267618 -0.016242 1.385958
  H 0.046231 -0.828084 -0.205887
  H 0.049533 0.973648 -0.102496
  H 2.644250 -0.649503 -3.079070
  H 2.650705 1.112935 -2.987404
  H 5.207399 0.086800 -0.336817
  H 4.900029 0.253261 -3.379656
 16
 89.369761
  C 0.280845 0.044034 0.339424
  C 2.722124 0.060853 0.035661
  H 3.224079 0.007613 0.978994
  C 3.249692 0.130698 -1.169539
  C 2.430742 0.199806 -2.423469
  H 1.371455 0.191100 -2.184089
  C 4.712668 0.138324 -1.295622
  C 5.386217 0.203091 -2.436799
  H 6.463451 0.204714 -2.446189
  H 0.176026 -0.017620 1.406384
  H -0.043449 -0.831705 -0.191049
  H -0.039678 0.976153 -0.087419
  H 2.651885 -0.649835 -3.069420
  H 2.658017 1.112675 -2.977736
  H 5.254908 0.088180 -0.359639
  H 4.904629 0.253973 -3.397957
 16
 100.916822
  C 0.169708 0.043055 0.358734
  C 2.770067 0.060346 0.043061
  H 3.260989 0.006744 0.991880
  C 3.283375 0.130425 -1.165888
  C 2.448040 0.198965 -2.408635
  H 1.393073 0.189161 -2.152143
  C 4.745629 0.139112 -1.311715
  C 5.401467 0.204578 -2.462972
  H 6.478521 0.207185 -2.488051
  H 0.082191 -0.018775 1.426566
  H -0.135272 -0.835790 -0.177169
  H -0.130751 0.978782 -0.072866
  H 2.660395 -0.650504 -3.057755
  H 2.666186 1.112341 -2.965815
  H 5.300337 0.089585 -0.383592
  H 4.905433 0.254852 -3.416940
 16
 110.146135
  C 0.057342 0.042001 0.378185
  C 2.816791 0.059770 0.050842
  H 3.297910 0.005897 1.003730
  C 3.316260 0.130085 -1.161593
  C 2.463551 0.198086 -2.393642
  H 1.412110 0.187137 -2.120117
  C 4.778237 0.139951 -1.328001
  C 5.416013 0.206056 -2.489015
  H 6.492612 0.209650 -2.530057
  H -0.013758 -0.019971 1.446120
  H -0.229106 -0.838747 -0.162219
  H -0.224078 0.980516 -0.057631
  H 2.667126 -0.651154 -3.045657
  H 2.672549 1.111911 -2.953458
  H 5.345785 0.090962 -0.407734
  H 4.905705 0.255808 -3.435140
 16
 117.311508
  C -0.056490 0.041010 0.397965
  C 2.862017 0.059218 0.058850
  H 3.335099 0.005106 1.015409
  C 3.348235 0.129763 -1.157184
  C 2.478840 0.197202 -2.377899
  H 1.431827 0.185163 -2.088282
  C 4.808606 0.140835 -1.344569
  C 5.428145 0.207522 -2.515243
  H 6.504061 0.212077 -2.572465
  H -0.112147 -0.021087 1.466307
  H -0.325827 -0.841900 -0.146853
  H -0.320182 0.982156 -0.041787
  H 2.673905 -0.651921 -3.032511
  H 2.678984 1.111451 -2.939988
  H 5.388814 0.092349 -0.432609
  H 4.903397 0.256834 -3.453546
 16
 122.726726
  C -0.171922 0.039928 0.418821
  C 2.905491 0.058655 0.066743
  H 3.372150 0.004373 1.025774
  C 3.378686 0.129434 -1.152813
  C 2.492404 0.196340 -2.362568
  H 1.449369 0.183230 -2.057519
  C 4.837371 0.141752 -1.361231
  C 5.438898 0.208965 -2.541034
  H 6.513861 0.214456 -2.614201
  H -0.212868 -0.022261 1.486989
  H -0.425484 -0.844329 -0.129577
  H -0.419345 0.983038 -0.024263
  H 2.679200 -0.652681 -3.019568
  H 2.683928 1.110953 -2.926669
  H 5.430175 0.093708 -0.457431
  H 4.900247 0.257886 -3.471223
 16
 126.714758
  C -0.289406 0.038812 0.441055
  C 2.946715 0.058128 0.074343
  H 3.408698 0.003715 1.035273
  C 3.407192 0.129139 -1.148839
  C 2.504841 0.195506 -2.347349
  H 1.466215 0.181388 -2.027944
  C 4.863364 0.142689 -1.377995
  C 5.447241 0.210374 -2.566491
  H 6.521068 0.216762 -2.655288
  H -0.316296 -0.023463 1.509280
  H -0.528784 -0.846895 -0.110656
  H -0.522118 0.983756 -0.005012
  H 2.683723 -0.653441 -3.006464
  H 2.688142 1.110465 -2.913195
  H 5.468319 0.095059 -0.482504
  H 4.895016 0.258952 -3.488749
 16
 129.579622
  C -0.409387 0.037570 0.465392
  C 2.985145 0.057623 0.081450
  H 3.444021 0.003127 1.043376
  C 3.433034 0.128869 -1.145327
  C 2.514952 0.194725 -2.332972
  H 1.480424 0.179647 -2.000079
  C 4.886510 0.143635 -1.394656
  C 5.453355 0.211745 -2.591224
  H 6.525814 0.218988 -2.695067
  H -0.422662 -0.024764 1.533290
  H -0.636075 -0.849052 -0.088950
  H -0.628946 0.983851 0.016887
  H 2.686278 -0.654168 -2.994023
  H 2.690398 1.109988 -2.900354
  H 5.503248 0.096375 -0.507227
  H 4.888282 0.260011 -3.505565
 16
 131.562070
  C -0.532869 0.036187 0.492775
  C 3.019643 0.057173 0.087796
  H 3.477144 0.002632 1.050028
  C 3.455234 0.128651 -1.142582
  C 2.522459 0.194009 -2.319456
  H 1.492155 0.178045 -1.974207
  C 4.905640 0.144575 -1.411166
  C 5.456271 0.213066 -2.615176
  H 6.527288 0.221110 -2.733328
  H -0.532958 -0.026203 1.560468
  H -0.748834 -0.851389 -0.063804
  H -0.741245 0.983692 0.042256
  H 2.686670 -0.654822 -2.982207
  H 2.690539 1.109556 -2.888181
  H 5.533493 0.097660 -0.531662
  H 4.879044 0.261051 -3.521926
