 20
 0.000000
  C 0.957716 -0.016055 -0.004385
  C 2.454071 0.000004 0.009553
  C 3.169732 0.812431 0.794800
  C 4.607725 0.829100 0.811449
  C 5.327693 1.645635 1.600663
  C 6.766362 1.660591 1.615713
  C 7.484225 2.471562 2.399544
  C 8.974332 2.501832 2.429402
  H 0.595784 -0.754935 -0.718569
  H 0.560905 0.955856 -0.297547
  H 0.562527 -0.278873 0.977455
  H 2.952997 -0.690984 -0.657224
  H 2.658368 1.499360 1.458261
  H 5.112517 0.139901 0.145772
  H 4.823393 2.334969 2.266472
  H 7.273386 0.972073 0.950694
  H 6.985270 3.162952 3.067342
  H 9.408658 1.783702 1.735738
  H 9.333167 2.269756 3.433481
  H 9.333691 3.497193 2.163077
 20
 5.533866
  C 0.963302 -0.017064 -0.036053
  C 2.420479 0.010563 -0.008521
  C 3.145980 0.825534 0.771957
  C 4.594325 0.832417 0.808800
  C 5.323264 1.649008 1.588680
  C 6.748796 1.656504 1.618998
  C 7.479862 2.471282 2.396583
  C 8.968260 2.490937 2.439716
  H 0.543734 -0.774224 -0.707151
  H 0.497828 0.964103 -0.226679
  H 0.858738 -0.293095 0.987243
  H 2.955793 -0.662417 -0.665760
  H 2.636265 1.524247 1.430890
  H 5.100669 0.127927 0.154541
  H 4.822289 2.351038 2.238907
  H 7.247143 0.952004 0.965395
  H 6.982967 3.176022 3.050344
  H 9.389665 1.757504 1.757682
  H 9.320461 2.275780 3.449027
  H 9.341723 3.478867 2.168372
 20
 18.191558
  C 0.955892 -0.018505 -0.054356
  C 2.407334 0.014739 -0.022546
  C 3.140278 0.845931 0.765796
  C 4.570018 0.839931 0.813484
  C 5.302844 1.662494 1.587373
  C 6.739988 1.656202 1.626713
  C 7.472038 2.470938 2.391316
  C 8.961704 2.474011 2.442275
  H 0.513071 -0.771427 -0.692495
  H 0.459383 0.942940 -0.157005
  H 1.104352 -0.317794 0.965159
  H 2.972134 -0.635678 -0.688390
  H 2.635161 1.549204 1.414107
  H 5.073435 0.125705 0.175980
  H 4.802156 2.381768 2.223806
  H 7.234628 0.935565 0.986499
  H 6.977490 3.191401 3.030156
  H 9.377394 1.723988 1.773938
  H 9.306856 2.271409 3.456652
  H 9.348605 3.452923 2.156901
 20
 31.319115
  C 0.943233 -0.020339 -0.080230
  C 2.397498 0.024602 -0.004980
  C 3.129665 0.868370 0.775709
  C 4.556113 0.851428 0.829472
  C 5.295543 1.680250 1.589402
  C 6.730040 1.657207 1.634434
  C 7.470590 2.475981 2.384956
  C 8.965315 2.460593 2.440346
  H 0.514956 -0.737069 -0.757731
  H 0.413164 0.916104 -0.052153
  H 1.272120 -0.404304 0.880858
  H 2.966092 -0.633572 -0.655188
  H 2.622048 1.586189 1.406524
  H 5.054763 0.118536 0.207346
  H 4.801077 2.417982 2.210482
  H 7.218773 0.918985 1.010729
  H 6.984258 3.217169 3.010809
  H 9.374973 1.690160 1.785283
  H 9.306252 2.271959 3.460699
  H 9.367064 3.430092 2.136472
 20
 41.919472
  C 0.926397 -0.025757 -0.102303
  C 2.389677 0.031476 0.007411
  C 3.127699 0.894153 0.783411
  C 4.548686 0.863806 0.845528
  C 5.298375 1.700541 1.594196
  C 6.723786 1.659477 1.643454
  C 7.476097 2.483155 2.381636
  C 8.968298 2.447073 2.439237
  H 0.509365 -0.701537 -0.827480
  H 0.362001 0.874545 0.058304
  H 1.407077 -0.492198 0.794038
  H 2.954315 -0.638717 -0.629531
  H 2.621084 1.625071 1.391708
  H 5.041204 0.115891 0.241390
  H 4.811797 2.455348 2.199122
  H 7.203240 0.904413 1.035582
  H 6.999316 3.244170 2.993933
  H 9.367038 1.659290 1.799632
  H 9.305146 2.272483 3.461537
  H 9.384198 3.402975 2.118295
 20
 50.415665
  C 0.920160 -0.022227 -0.125361
  C 2.381753 0.031466 0.025674
  C 3.112647 0.896764 0.791736
  C 4.535623 0.862800 0.859113
  C 5.287555 1.703825 1.601263
  C 6.723020 1.659544 1.650502
  C 7.482299 2.486405 2.381339
  C 8.980986 2.444575 2.438075
  H 0.521644 -0.682361 -0.859506
  H 0.322609 0.873463 0.096932
  H 1.508810 -0.519060 0.742179
  H 2.947615 -0.652094 -0.605504
  H 2.604601 1.638720 1.395097
  H 5.038074 0.095268 0.250745
  H 4.805020 2.460994 2.195751
  H 7.192761 0.907414 1.055791
  H 7.014953 3.243194 2.978945
  H 9.376424 1.649762 1.804769
  H 9.317046 2.278340 3.453905
  H 9.400863 3.392793 2.110348
 20
 56.079895
  C 0.917500 -0.005965 -0.140729
  C 2.379512 0.023592 0.036061
  C 3.121173 0.906098 0.800264
  C 4.539364 0.868659 0.868969
  C 5.297455 1.712606 1.605171
  C 6.720877 1.659086 1.653890
  C 7.483367 2.486145 2.377828
  C 8.970735 2.434564 2.432292
  H 0.506948 -0.665886 -0.895197
  H 0.331667 0.842389 0.144237
  H 1.590876 -0.545466 0.709953
  H 2.940024 -0.660755 -0.593506
  H 2.614474 1.651296 1.391034
  H 5.033300 0.105867 0.277551
  H 4.815644 2.481165 2.197465
  H 7.199033 0.877625 1.047926
  H 7.012664 3.264172 2.981023
  H 9.356917 1.636361 1.807076
  H 9.307986 2.272778 3.450528
  H 9.395768 3.375181 2.097632
 20
 60.132810
  C 0.913397 0.014032 -0.164725
  C 2.377781 -0.002066 0.039293
  C 3.126102 0.908499 0.794523
  C 4.538538 0.867723 0.870306
  C 5.299144 1.718130 1.601929
  C 6.723850 1.658431 1.657894
  C 7.488711 2.488850 2.376401
  C 8.975424 2.430207 2.435475
  H 0.481031 -0.625719 -0.910196
  H 0.322119 0.824142 0.220717
  H 1.656482 -0.593589 0.681742
  H 2.941463 -0.674484 -0.601851
  H 2.606596 1.660609 1.371192
  H 5.033281 0.099075 0.293372
  H 4.817067 2.492607 2.183081
  H 7.198896 0.874201 1.066526
  H 7.023477 3.271240 2.967620
  H 9.357634 1.624736 1.819194
  H 9.311628 2.275180 3.462575
  H 9.407642 3.370030 2.090184
 20
 63.245600
  C 0.918735 0.046389 -0.195040
  C 2.376819 -0.026477 0.045881
  C 3.132389 0.904353 0.794229
  C 4.536084 0.860870 0.875053
  C 5.298722 1.715840 1.605321
  C 6.723308 1.655954 1.661197
  C 7.490595 2.489052 2.375956
  C 8.976916 2.428481 2.433918
  H 0.462692 -0.600410 -0.918426
  H 0.334367 0.826806 0.248364
  H 1.716494 -0.625054 0.692545
  H 2.939847 -0.685260 -0.608533
  H 2.606751 1.656591 1.365888
  H 5.034284 0.088758 0.302125
  H 4.815147 2.493820 2.182209
  H 7.194676 0.874626 1.077782
  H 7.027763 3.273024 2.962859
  H 9.357728 1.618141 1.819847
  H 9.313945 2.277287 3.462570
  H 9.411295 3.367778 2.083643
 20
 64.410980
  C 0.926678 0.083479 -0.229827
  C 2.373295 -0.049067 0.052861
  C 3.137477 0.898544 0.795694
  C 4.533611 0.854694 0.877022
  C 5.298849 1.714604 1.606891
  C 6.722080 1.653496 1.663665
  C 7.491515 2.489008 2.376213
  C 8.977241 2.426224 2.433291
  H 0.451177 -0.580486 -0.918317
  H 0.343033 0.837517 0.263148
  H 1.782469 -0.662890 0.728784
  H 2.937535 -0.688884 -0.621625
  H 2.608751 1.648358 1.362429
  H 5.037053 0.077611 0.306791
  H 4.814239 2.493021 2.179829
  H 7.192390 0.871771 1.085199
  H 7.029070 3.276076 2.960999
  H 9.357176 1.611262 1.820193
  H 9.314641 2.278118 3.462510
  H 9.413420 3.364772 2.079422
 20
 64.349190
  C 0.945473 0.123354 -0.258016
  C 2.372470 -0.067751 0.061402
  C 3.144283 0.887454 0.801505
  C 4.529690 0.841493 0.884813
  C 5.298250 1.706753 1.614069
  C 6.715708 1.649019 1.664617
  C 7.486321 2.488380 2.372499
  C 8.974615 2.424063 2.429190
  H 0.451169 -0.555371 -0.920392
  H 0.372543 0.853842 0.264410
  H 1.853813 -0.693115 0.767582
  H 2.933774 -0.691978 -0.629081
  H 2.612348 1.637190 1.366382
  H 5.034221 0.068832 0.317674
  H 4.810671 2.489754 2.185817
  H 7.188612 0.861628 1.084877
  H 7.022723 3.280233 2.955521
  H 9.353057 1.606582 1.820341
  H 9.313166 2.281440 3.457589
  H 9.409419 3.357385 2.071585
 20
 62.278220
  C 0.960511 0.159092 -0.292982
  C 2.361861 -0.084326 0.071675
  C 3.144402 0.878063 0.810726
  C 4.523681 0.827472 0.895394
  C 5.297046 1.697234 1.625418
  C 6.714151 1.645557 1.666174
  C 7.488030 2.489795 2.370002
  C 8.974768 2.423303 2.427020
  H 0.458076 -0.536448 -0.932517
  H 0.384969 0.882119 0.248508
  H 1.939583 -0.737280 0.823082
  H 2.924386 -0.689316 -0.634384
  H 2.608575 1.629814 1.377510
  H 5.030058 0.058530 0.328088
  H 4.811036 2.476298 2.190710
  H 7.186778 0.859913 1.088566
  H 7.028017 3.278248 2.945861
  H 9.353604 1.599416 1.820625
  H 9.311551 2.286438 3.452375
  H 9.412528 3.356815 2.064508
 20
 60.353841
  C 0.972355 0.180945 -0.318710
  C 2.351598 -0.099668 0.084706
  C 3.147725 0.876489 0.817917
  C 4.520833 0.822362 0.901344
  C 5.298677 1.696060 1.629293
  C 6.714539 1.638360 1.673826
  C 7.490972 2.485014 2.373875
  C 8.977197 2.422235 2.420227
  H 0.458644 -0.526390 -0.939124
  H 0.390614 0.900717 0.222883
  H 2.029440 -0.773749 0.869571
  H 2.918457 -0.683156 -0.638931
  H 2.612223 1.632471 1.380596
  H 5.027878 0.046000 0.343020
  H 4.813090 2.476249 2.190595
  H 7.185940 0.850759 1.100295
  H 7.030377 3.276042 2.952434
  H 9.355017 1.598305 1.809778
  H 9.325634 2.286822 3.452915
  H 9.403451 3.344997 2.059029
