 20
 0.000000
  C 0.968112 0.125518 0.363260
  C 2.473072 0.124254 0.359713
  C 3.243953 0.609294 1.567118
  C 2.424714 1.088052 2.759285
  H 3.099923 1.406625 3.552294
  C 3.113049 -0.314659 -0.733290
  C 4.541341 -0.383701 -0.905607
  C 5.129173 -0.829940 -2.017482
  H 4.580905 -1.176370 -2.880444
  O 6.469247 -0.906133 -2.207628
  H 0.553041 0.498419 1.291820
  H 0.592758 -0.884119 0.203743
  H 0.592588 0.744262 -0.450275
  H 3.894272 1.430376 1.250346
  H 3.894449 -0.202673 1.906276
  H 1.798781 0.291459 3.154380
  H 1.798599 1.936556 2.493625
  H 2.529483 -0.654591 -1.579542
  H 5.167658 -0.054714 -0.086128
  H 6.904851 -0.586653 -1.411657
 20
 0.078331
  C 0.971753 0.167220 0.348809
  C 2.473361 0.096672 0.368529
  C 3.242955 0.577664 1.578762
  C 2.419997 1.062265 2.766955
  H 3.091369 1.339993 3.577859
  C 3.113932 -0.377610 -0.709234
  C 4.542511 -0.436363 -0.883805
  C 5.128734 -0.820753 -2.019047
  H 4.579016 -1.165987 -2.881484
  O 6.467977 -0.825758 -2.239096
  H 0.572626 0.739531 1.177266
  H 0.546440 -0.836350 0.394622
  H 0.631031 0.623176 -0.579566
  H 3.905045 1.391728 1.266304
  H 3.881682 -0.242276 1.922593
  H 1.758120 0.280425 3.132103
  H 1.829694 1.939121 2.510770
  H 2.531957 -0.715336 -1.557074
  H 5.168422 -0.118039 -0.059885
  H 6.906765 -0.447942 -1.465921
 20
 0.797396
  C 0.973478 0.207031 0.352406
  C 2.467614 0.070922 0.358912
  C 3.249488 0.529645 1.567262
  C 2.436852 1.043197 2.748879
  H 3.109758 1.276883 3.571861
  C 3.092054 -0.436409 -0.717609
  C 4.521389 -0.490798 -0.885009
  C 5.138843 -0.793989 -2.026495
  H 4.631205 -1.127930 -2.920808
  O 6.482423 -0.705223 -2.197747
  H 0.626690 0.952662 1.057544
  H 0.504628 -0.743784 0.610199
  H 0.627265 0.483414 -0.640293
  H 3.939818 1.318414 1.257507
  H 3.856253 -0.310662 1.917926
  H 1.729271 0.292847 3.094102
  H 1.896377 1.952165 2.496051
  H 2.505030 -0.760882 -1.568319
  H 5.134161 -0.211650 -0.036812
  H 6.840445 -0.282870 -1.405432
 20
 3.434872
  C 0.978345 0.243983 0.349540
  C 2.468867 0.067684 0.337209
  C 3.255322 0.468782 1.564489
  C 2.449672 1.018159 2.735315
  H 3.115509 1.188387 3.578236
  C 3.075225 -0.442291 -0.743530
  C 4.500601 -0.524176 -0.891657
  C 5.151035 -0.765815 -2.033916
  H 4.693595 -1.107628 -2.945885
  O 6.493698 -0.569817 -2.150337
  H 0.676239 1.096435 0.945934
  H 0.496876 -0.642095 0.768340
  H 0.603618 0.375652 -0.664916
  H 3.995289 1.223753 1.271935
  H 3.811642 -0.402804 1.918411
  H 1.681611 0.316373 3.047617
  H 1.985895 1.968371 2.489230
  H 2.487468 -0.715851 -1.609499
  H 5.092420 -0.440844 0.008886
  H 6.739868 -0.094912 -1.345328
 20
 12.249064
  C 0.986940 0.305917 0.331289
  C 2.477162 0.144384 0.293357
  C 3.279374 0.461517 1.549375
  C 2.481331 0.945996 2.752088
  H 3.145241 1.034112 3.613654
  C 3.058775 -0.377959 -0.799253
  C 4.476291 -0.460123 -0.938413
  C 5.167581 -0.874272 -2.011047
  H 4.803009 -1.448886 -2.835398
  O 6.484247 -0.509005 -2.086057
  H 0.678972 1.104560 0.992091
  H 0.517180 -0.617745 0.677314
  H 0.607663 0.514832 -0.661495
  H 4.046272 1.211337 1.302515
  H 3.803591 -0.456778 1.853592
  H 1.691876 0.239769 3.005325
  H 2.037364 1.924802 2.571671
  H 2.465042 -0.649684 -1.650991
  H 5.042938 -0.343858 -0.024299
  H 6.495597 0.105407 -1.322724
 20
 30.697005
  C 1.026061 0.280129 0.335183
  C 2.519532 0.094826 0.332372
  C 3.308978 0.475005 1.547749
  C 2.494027 0.949562 2.738166
  H 3.140399 1.118003 3.591656
  C 3.085045 -0.342384 -0.796997
  C 4.479170 -0.532116 -0.918256
  C 5.153578 -0.823764 -2.060294
  H 4.789974 -1.276572 -2.969099
  O 6.471907 -0.416690 -2.018453
  H 0.723262 1.161913 0.909070
  H 0.529256 -0.591093 0.765055
  H 0.667497 0.396304 -0.685867
  H 4.013825 1.267046 1.300379
  H 3.888360 -0.394350 1.896211
  H 1.761302 0.218917 3.000845
  H 1.964684 1.868786 2.510782
  H 2.480812 -0.445672 -1.712204
  H 4.975885 -0.825581 0.003530
  H 6.273255 0.058902 -1.189787
 20
 61.160630
  C 1.033014 0.326871 0.306309
  C 2.525591 0.176006 0.306897
  C 3.309707 0.484622 1.561646
  C 2.489071 0.896864 2.779433
  H 3.147163 1.015317 3.636909
  C 3.147240 -0.269649 -0.792557
  C 4.576188 -0.462018 -0.950988
  C 5.199711 -0.916361 -2.118318
  H 4.783787 -1.517755 -2.917807
  O 6.393485 -0.467225 -2.206357
  H 0.708597 1.146711 0.939438
  H 0.561871 -0.586686 0.673353
  H 0.670365 0.506395 -0.703465
  H 4.028486 1.280349 1.336647
  H 3.893968 -0.403090 1.831835
  H 1.746451 0.141389 3.023514
  H 1.984975 1.845382 2.614639
  H 2.563951 -0.461429 -1.684420
  H 5.101270 -0.737498 -0.035843
  H 5.893680 0.221952 -1.073695
 20
 36.438988
  C 1.088643 0.292093 0.283976
  C 2.577688 0.181058 0.353324
  C 3.315634 0.448270 1.652653
  C 2.446940 0.924378 2.810697
  H 3.059880 1.050048 3.699204
  C 3.249116 -0.218723 -0.753172
  C 4.720876 -0.417698 -0.964226
  C 5.223917 -0.922172 -2.249998
  H 4.637992 -1.448209 -3.015441
  O 6.358394 -0.570870 -2.449332
  H 0.711077 1.148572 0.825693
  H 0.630334 -0.610827 0.665249
  H 0.776206 0.405274 -0.756750
  H 4.042469 1.228225 1.432729
  H 3.912342 -0.439776 1.928010
  H 1.637395 0.230605 3.030968
  H 2.002116 1.890232 2.570867
  H 2.663023 -0.372307 -1.649388
  H 5.182928 -0.888798 -0.080823
  H 5.676724 0.271143 -0.966931
 20
 13.030207
  C 1.119210 0.377822 0.235203
  C 2.609132 0.252296 0.307699
  C 3.342855 0.568172 1.599358
  C 2.447566 0.815521 2.809232
  H 3.066932 0.950239 3.695703
  C 3.291407 -0.144226 -0.768435
  C 4.752919 -0.410696 -0.899882
  C 5.208595 -1.017430 -2.175500
  H 4.538163 -1.649909 -2.787315
  O 6.313905 -0.725983 -2.554058
  H 0.758280 1.216586 0.815080
  H 0.656767 -0.523646 0.636633
  H 0.792665 0.479993 -0.795309
  H 4.018605 1.407977 1.452372
  H 3.927456 -0.336831 1.835528
  H 1.800650 -0.045875 2.990348
  H 1.836672 1.699481 2.678969
  H 2.737006 -0.335332 -1.679051
  H 5.213004 -0.836528 -0.005003
  H 5.459146 0.454370 -0.983184
 20
 4.815855
  C 1.120573 0.334102 0.239016
  C 2.614638 0.223361 0.309574
  C 3.334454 0.536145 1.601531
  C 2.449449 0.846319 2.805534
  H 3.070210 0.949426 3.695211
  C 3.294306 -0.180320 -0.761714
  C 4.766300 -0.421451 -0.883804
  C 5.206660 -0.937587 -2.211690
  H 4.474166 -1.502555 -2.813486
  O 6.323208 -0.749925 -2.605557
  H 0.743487 1.108267 0.904479
  H 0.665250 -0.608156 0.543661
  H 0.799209 0.560857 -0.774911
  H 3.984279 1.399389 1.424544
  H 3.993338 -0.304238 1.853264
  H 1.733612 0.045794 2.982665
  H 1.913355 1.781732 2.670401
  H 2.748082 -0.347296 -1.681198
  H 5.173718 -1.012745 -0.060521
  H 5.392873 0.469607 -0.791542
 20
 1.589087
  C 1.115038 0.311017 0.231540
  C 2.612343 0.204722 0.298802
  C 3.348283 0.525042 1.577232
  C 2.488490 0.911955 2.775136
  H 3.124411 1.046973 3.648098
  C 3.280812 -0.220163 -0.772418
  C 4.759710 -0.435619 -0.848242
  C 5.240557 -0.874939 -2.196767
  H 4.479107 -1.382246 -2.822434
  O 6.356962 -0.698041 -2.600643
  H 0.721359 1.002004 0.969154
  H 0.665619 -0.666294 0.410850
  H 0.802880 0.644850 -0.755279
  H 4.055003 1.336294 1.371905
  H 3.950296 -0.348529 1.850550
  H 1.762590 0.134915 3.002247
  H 1.962345 1.847857 2.599551
  H 2.734002 -0.442095 -1.679875
  H 5.068967 -1.202373 -0.126005
  H 5.328186 0.458227 -0.582799
 20
 2.025526
  C 1.111831 0.298795 0.233070
  C 2.607503 0.159824 0.315854
  C 3.353140 0.530419 1.575502
  C 2.513245 1.005231 2.755002
  H 3.162745 1.185472 3.609272
  C 3.265823 -0.321091 -0.736321
  C 4.740561 -0.561343 -0.818942
  C 5.237037 -0.786093 -2.214602
  H 4.476068 -1.161570 -2.927343
  O 6.364149 -0.576180 -2.564903
  H 0.702421 0.838788 1.078397
  H 0.647440 -0.686482 0.201346
  H 0.831574 0.824778 -0.677724
  H 4.075186 1.314398 1.323701
  H 3.935468 -0.340275 1.894131
  H 1.780520 0.254929 3.042793
  H 1.999366 1.935804 2.524972
  H 2.709766 -0.576219 -1.629551
  H 5.015787 -1.447145 -0.231375
  H 5.327328 0.261519 -0.402680
 20
 2.161989
  C 1.108552 0.274770 0.240853
  C 2.603019 0.115890 0.324966
  C 3.356721 0.526156 1.568984
  C 2.534761 1.092424 2.720232
  H 3.193904 1.312381 3.557552
  C 3.250366 -0.411415 -0.711457
  C 4.721600 -0.666516 -0.798360
  C 5.243054 -0.689158 -2.204418
  H 4.486959 -0.935248 -2.976182
  O 6.380995 -0.455197 -2.501750
  H 0.686445 0.679067 1.152708
  H 0.641150 -0.688811 0.044373
  H 0.845757 0.940404 -0.580244
  H 4.102370 1.273874 1.278457
  H 3.909418 -0.345058 1.934650
  H 1.789020 0.378755 3.062428
  H 2.039950 2.016960 2.431291
  H 2.686588 -0.691550 -1.592370
  H 4.965020 -1.642828 -0.358031
  H 5.311311 0.068658 -0.243082
 20
 2.001549
  C 1.113911 0.287456 0.236165
  C 2.606308 0.122224 0.323813
  C 3.358974 0.528275 1.569755
  C 2.530491 1.079099 2.724942
  H 3.190008 1.312716 3.559199
  C 3.253234 -0.399033 -0.714416
  C 4.727058 -0.646220 -0.797354
  C 5.242832 -0.700315 -2.205023
  H 4.488213 -1.018093 -2.953005
  O 6.367130 -0.446958 -2.533614
  H 0.687497 0.678690 1.150579
  H 0.642591 -0.670909 0.021805
  H 0.859847 0.968350 -0.575686
  H 4.099788 1.284053 1.287774
  H 3.917526 -0.341940 1.928661
  H 1.800572 0.349522 3.070822
  H 2.014763 1.993474 2.440060
  H 2.688715 -0.694082 -1.590305
  H 4.961162 -1.624086 -0.355039
  H 5.306340 0.091336 -0.238532
