 20
 0.000000
  C -1.503870 -0.813599 0.871644
  C -0.863222 0.279194 0.021872
  C -1.311670 0.135318 -1.457072
  C -1.198902 1.659100 0.409633
  C -2.401088 2.015374 1.152329
  O -0.470970 2.628652 0.020697
  H -1.093429 -1.772069 0.577084
  H -2.579318 -0.858416 0.730525
  H -1.284291 -0.668138 1.922611
  H 0.224828 0.140625 0.049957
  H -2.393640 0.178668 -1.527696
  H -0.983177 -0.831701 -1.819698
  H -0.886846 0.900937 -2.094889
  H -2.864506 1.172243 1.644131
  H -3.117159 2.451029 0.450882
  H -2.184462 2.817750 1.858846
  H 0.331136 2.396469 -0.498969
  O 2.219118 -0.264571 -0.249324
  H 2.739500 0.177412 0.426101
  H 2.833079 -0.510784 -0.947527
 20
 -0.911437
  C -1.555118 -0.801675 0.800108
  C -0.898612 0.292904 -0.033928
  C -1.288667 0.128568 -1.522591
  C -1.222125 1.674954 0.368034
  C -2.306693 2.011737 1.279725
  O -0.575623 2.654443 -0.119445
  H -1.163093 -1.765653 0.488524
  H -2.631832 -0.819579 0.659154
  H -1.329994 -0.683769 1.856108
  H 0.193492 0.166389 0.035690
  H -2.369171 0.173122 -1.630960
  H -0.952439 -0.845224 -1.862655
  H -0.840686 0.883510 -2.161006
  H -2.565152 1.202973 1.952402
  H -3.190278 2.227866 0.670068
  H -2.087225 2.932454 1.817127
  H 0.154047 2.440971 -0.740587
  O 2.233783 -0.214743 -0.106645
  H 2.790297 0.067618 0.626482
  H 2.822397 -0.497680 -0.812473
 20
 -0.945649
  C -1.630739 -0.793505 0.702854
  C -0.940015 0.302390 -0.100468
  C -1.196404 0.096484 -1.608131
  C -1.247533 1.682090 0.312025
  C -2.110190 2.004739 1.440077
  O -0.769503 2.680411 -0.316667
  H -1.249284 -1.757942 0.384006
  H -2.703189 -0.786287 0.537592
  H -1.432428 -0.704560 1.765442
  H 0.150870 0.190480 0.051332
  H -2.264942 0.142264 -1.810950
  H -0.841162 -0.888936 -1.894162
  H -0.689690 0.824071 -2.235103
  H -2.120968 1.237238 2.202558
  H -3.130285 2.082083 1.051486
  H -1.862022 2.980154 1.850461
  H -0.203712 2.488363 -1.094244
  O 2.111735 -0.199967 0.105527
  H 2.652862 0.097443 0.843004
  H 2.709161 -0.457108 -0.602080
 20
 -1.376716
  C -1.680759 -0.797854 0.608103
  C -0.969292 0.312897 -0.159647
  C -1.134189 0.106382 -1.675408
  C -1.273331 1.680446 0.278897
  C -1.923832 1.973816 1.553205
  O -0.966390 2.697557 -0.423286
  H -1.300193 -1.758359 0.275032
  H -2.748857 -0.775236 0.419015
  H -1.509796 -0.737362 1.677628
  H 0.119207 0.210972 0.052951
  H -2.187842 0.163587 -1.946987
  H -0.775401 -0.882818 -1.937488
  H -0.575752 0.819348 -2.274624
  H -1.707660 1.239137 2.320524
  H -3.000033 1.941833 1.378950
  H -1.686143 2.982970 1.885158
  H -0.567354 2.527675 -1.303350
  O 2.005048 -0.197576 0.273744
  H 2.516380 0.115810 1.025429
  H 2.629194 -0.413052 -0.423915
 20
 -0.548347
  C -1.705646 -0.811764 0.600935
  C -1.004215 0.295448 -0.185157
  C -1.040458 0.011997 -1.691753
  C -1.283887 1.670082 0.207807
  C -1.779216 2.031517 1.540404
  O -1.067272 2.659175 -0.570561
  H -1.267288 -1.770855 0.334149
  H -2.763231 -0.845020 0.355174
  H -1.602915 -0.692735 1.670794
  H 0.081656 0.219039 0.099018
  H -2.073530 0.019523 -2.051125
  H -0.634313 -0.978548 -1.876394
  H -0.458723 0.712516 -2.279889
  H -1.554195 1.292041 2.299124
  H -2.866007 2.108793 1.467035
  H -1.415733 3.013774 1.828715
  H -0.799633 2.444210 -1.491277
  O 1.816332 -0.167574 0.462986
  H 2.290535 0.281395 1.168590
  H 2.440057 -0.294450 -0.259335
 20
 2.086776
  C -1.697327 -0.837456 0.586567
  C -1.049476 0.294418 -0.208370
  C -0.964245 -0.015254 -1.702536
  C -1.261175 1.653334 0.198286
  C -1.695073 2.031624 1.552686
  O -1.019259 2.658658 -0.572027
  H -1.205559 -1.776618 0.344959
  H -2.746495 -0.933970 0.320227
  H -1.634005 -0.689802 1.656948
  H 0.057775 0.221357 0.118542
  H -1.959607 -0.044257 -2.136430
  H -0.523999 -0.997680 -1.842298
  H -0.363175 0.704111 -2.261395
  H -1.499624 1.267120 2.294151
  H -2.774333 2.204699 1.521776
  H -1.231213 2.973083 1.839792
  H -0.866223 2.444123 -1.512727
  O 1.604776 -0.159475 0.508460
  H 2.004074 0.385798 1.194403
  H 2.214367 -0.206866 -0.234250
 20
 7.579585
  C -1.680725 -0.839622 0.583252
  C -1.081575 0.300952 -0.216756
  C -0.918156 -0.035096 -1.692851
  C -1.251208 1.607752 0.186437
  C -1.671308 2.022565 1.554602
  O -0.968972 2.661115 -0.582252
  H -1.186208 -1.773705 0.330609
  H -2.738104 -0.951832 0.340543
  H -1.601636 -0.692783 1.655146
  H 0.282205 0.185478 0.213474
  H -1.893624 -0.073254 -2.176399
  H -0.473998 -1.019127 -1.802631
  H -0.300701 0.675783 -2.235665
  H -1.491967 1.261388 2.304203
  H -2.739731 2.235573 1.536643
  H -1.164233 2.945821 1.824521
  H -0.827047 2.432139 -1.515293
  O 1.413738 -0.117288 0.499324
  H 1.788588 0.466209 1.179734
  H 1.994774 -0.143033 -0.279076
 20
 5.968516
  C -1.725489 -0.832360 0.583464
  C -1.176150 0.318536 -0.218725
  C -0.927312 -0.029742 -1.672818
  C -1.318001 1.601589 0.190121
  C -1.734209 2.031521 1.555539
  O -1.002543 2.680614 -0.577526
  H -1.215325 -1.756369 0.319774
  H -2.782452 -0.970084 0.361378
  H -1.633505 -0.684205 1.653240
  H 0.507072 0.157042 0.242121
  H -1.877332 -0.088858 -2.202532
  H -0.465513 -1.010684 -1.753477
  H -0.302188 0.693886 -2.195479
  H -1.588389 1.262435 2.305857
  H -2.793319 2.290843 1.534263
  H -1.187755 2.930761 1.829896
  H -0.892200 2.448424 -1.510363
  O 1.467809 -0.149646 0.433420
  H 1.892560 0.393547 1.126790
  H 2.027762 -0.186805 -0.365741
 20
 5.356447
  C -1.726011 -0.835786 0.588261
  C -1.214083 0.325548 -0.227198
  C -0.917569 -0.024828 -1.674810
  C -1.308582 1.600871 0.195276
  C -1.695812 2.039424 1.574689
  O -0.979364 2.677609 -0.578487
  H -1.170658 -1.741437 0.357454
  H -2.771768 -1.026444 0.342904
  H -1.672513 -0.657953 1.657303
  H 0.558907 0.161963 0.194335
  H -1.849186 -0.075006 -2.242492
  H -0.463910 -1.011434 -1.740358
  H -0.269094 0.695687 -2.171971
  H -1.503518 1.285062 2.328716
  H -2.759235 2.272197 1.591212
  H -1.159202 2.954858 1.818256
  H -0.940147 2.448452 -1.517732
  O 1.487409 -0.167039 0.423354
  H 1.861686 0.326401 1.182097
  H 2.096291 -0.126394 -0.348272
 20
 6.770173
  C -1.763704 -0.826830 0.645656
  C -1.198319 0.316707 -0.157242
  C -0.906009 -0.056753 -1.601965
  C -1.283563 1.594730 0.257847
  C -1.856895 2.051782 1.563417
  O -0.798614 2.659006 -0.450567
  H -1.243349 -1.750041 0.399988
  H -2.817724 -0.976394 0.411397
  H -1.685548 -0.665082 1.715959
  H 0.652316 0.156243 0.039204
  H -1.852968 -0.125612 -2.140070
  H -0.445539 -1.039900 -1.662684
  H -0.286359 0.659322 -2.134874
  H -1.855267 1.279250 2.321922
  H -2.887279 2.364776 1.397570
  H -1.304549 2.919243 1.919947
  H -0.619238 2.431426 -1.374215
  O 1.597381 -0.143410 0.205654
  H 1.983335 0.325462 0.973601
  H 2.175531 -0.052173 -0.578006
 20
 5.172627
  C -1.746586 -0.830608 0.584813
  C -1.251663 0.327638 -0.241239
  C -0.934338 -0.029122 -1.678386
  C -1.314180 1.600192 0.188292
  C -1.683357 2.041369 1.572114
  O -0.980008 2.675967 -0.589757
  H -1.183252 -1.732611 0.359582
  H -2.790781 -1.034171 0.345032
  H -1.692850 -0.641131 1.651173
  H 0.616744 0.163599 0.157498
  H -1.856971 -0.085511 -2.261216
  H -0.477472 -1.014317 -1.730167
  H -0.280469 0.688499 -2.167608
  H -1.446859 1.303012 2.327846
  H -2.753740 2.239936 1.616469
  H -1.168551 2.974699 1.791366
  H -0.980316 2.450848 -1.529803
  O 1.521166 -0.177326 0.420294
  H 1.837343 0.256165 1.238774
  H 2.169776 -0.055375 -0.302537
