 25
 0.000000
  C 1.002991 0.122521 0.356598
  C 2.474759 0.132067 0.380031
  C 3.239130 0.603717 1.553346
  C 2.448981 1.090312 2.764210
  C 3.392492 1.537377 3.876785
  C 3.122157 -0.327237 -0.763207
  C 4.510188 -0.401178 -0.948215
  C 5.137683 -0.855793 -2.081967
  C 4.551811 -1.355393 -3.327376
  H 3.471137 -1.379084 -3.386415
  H 6.219301 -0.861480 -2.096652
  H 0.552919 0.490022 1.270919
  H 0.642800 -0.891368 0.174091
  H 0.642603 0.727999 -0.476774
  H 3.900366 1.414792 1.226571
  H 3.900471 -0.207827 1.878702
  H 1.811566 0.291151 3.146913
  H 1.811585 1.932078 2.487526
  H 4.028390 0.717313 4.202717
  H 2.824259 1.882927 4.736785
  H 4.028399 2.354932 3.544634
  H 2.488936 -0.653825 -1.576054
  H 5.145886 -0.075308 -0.136373
  H 4.945263 -2.359790 -3.506041
  H 4.945304 -0.752950 -4.150643
 25
 5.262610
  C 0.957644 0.129865 0.374916
  C 2.426513 0.130105 0.375293
  C 3.215577 0.594451 1.530303
  C 2.455896 1.087475 2.756917
  C 3.427944 1.525793 3.848052
  C 3.057798 -0.330848 -0.771819
  C 4.444589 -0.406675 -0.962012
  C 5.146736 -0.832286 -2.023692
  C 4.606769 -1.341147 -3.291921
  H 3.524405 -1.362008 -3.343469
  H 6.228278 -0.818670 -1.990679
  H 0.526786 0.500439 1.296624
  H 0.588209 -0.880820 0.191474
  H 0.588062 0.732298 -0.456999
  H 3.881494 1.395436 1.188456
  H 3.881488 -0.220290 1.837886
  H 1.820409 0.293661 3.153454
  H 1.820642 1.935081 2.493841
  H 4.063513 0.699982 4.159543
  H 2.883307 1.876624 4.720992
  H 4.063778 2.337323 3.501564
  H 2.423214 -0.657479 -1.584368
  H 5.182039 -0.128644 -0.269753
  H 5.002827 -2.343434 -3.471854
  H 5.002574 -0.741044 -4.114681
 25
 15.335165
  C 0.914905 0.144558 0.410773
  C 2.382246 0.135652 0.388686
  C 3.189493 0.593668 1.528304
  C 2.454957 1.089601 2.762192
  C 3.447592 1.520977 3.837399
  C 3.005714 -0.331759 -0.774218
  C 4.386006 -0.409725 -0.971562
  C 5.147628 -0.827531 -2.013390
  C 4.670434 -1.345858 -3.302110
  H 3.590647 -1.377387 -3.377826
  H 6.240743 -0.792670 -1.929591
  H 0.501121 0.517625 1.338577
  H 0.537225 -0.861799 0.227636
  H 0.537214 0.744144 -0.417959
  H 3.860919 1.383777 1.174938
  H 3.860681 -0.221359 1.819918
  H 1.820920 0.299610 3.167924
  H 1.821653 1.941310 2.508502
  H 4.081953 0.691253 4.137926
  H 2.920385 1.875379 4.718975
  H 4.082957 2.327405 3.480620
  H 2.373883 -0.657740 -1.583759
  H 5.241130 -0.183173 -0.410108
  H 5.077668 -2.338122 -3.469857
  H 5.076068 -0.745061 -4.110015
 25
 29.169683
  C 0.886970 0.150013 0.424206
  C 2.353753 0.136397 0.390118
  C 3.177800 0.591633 1.522765
  C 2.460862 1.093332 2.771554
  C 3.469434 1.518937 3.832589
  C 2.966674 -0.332548 -0.776456
  C 4.332950 -0.408718 -0.969436
  C 5.146687 -0.817787 -1.989248
  C 4.719857 -1.344527 -3.298526
  H 3.641501 -1.389209 -3.407257
  H 6.207813 -0.777700 -1.891992
  H 0.481440 0.524809 1.356265
  H 0.504232 -0.856914 0.243842
  H 0.504030 0.751725 -0.402966
  H 3.849919 1.377452 1.159517
  H 3.849923 -0.227127 1.804076
  H 1.828376 0.307139 3.186245
  H 1.829022 1.948422 2.527228
  H 4.103730 0.684779 4.124522
  H 2.955997 1.876270 4.721691
  H 4.104590 2.322633 3.466689
  H 2.325155 -0.661274 -1.592138
  H 5.257703 -0.225416 -0.516124
  H 5.147406 -2.342597 -3.454427
  H 5.146116 -0.731699 -4.102349
 25
 44.215746
  C 0.860952 0.153164 0.432137
  C 2.328241 0.135809 0.389091
  C 3.167073 0.589361 1.517583
  C 2.464608 1.094594 2.774515
  C 3.489538 1.517278 3.828470
  C 2.930070 -0.332207 -0.774958
  C 4.299264 -0.405524 -0.961223
  C 5.152737 -0.811640 -1.974231
  C 4.759592 -1.342448 -3.293929
  H 3.673763 -1.393767 -3.419143
  H 6.228844 -0.773901 -1.882797
  H 0.462277 0.528787 1.366085
  H 0.474718 -0.853065 0.254176
  H 0.474592 0.755976 -0.392876
  H 3.841496 1.374162 1.146315
  H 3.841046 -0.234135 1.792793
  H 1.831582 0.309813 3.196585
  H 1.832434 1.953990 2.536251
  H 4.123243 0.680673 4.113978
  H 2.987028 1.877226 4.723633
  H 4.124446 2.318132 3.456115
  H 2.286627 -0.656987 -1.580515
  H 5.275973 -0.261922 -0.607024
  H 5.194184 -2.333663 -3.442770
  H 5.192755 -0.729910 -4.087890
 25
 56.994626
  C 0.860754 0.156891 0.442514
  C 2.331582 0.138821 0.398766
  C 3.165521 0.591489 1.524400
  C 2.463029 1.094691 2.773168
  C 3.481393 1.516106 3.823889
  C 2.935679 -0.330950 -0.767868
  C 4.302327 -0.402635 -0.950434
  C 5.169608 -0.809518 -1.968702
  C 4.761226 -1.342420 -3.298291
  H 3.679041 -1.390099 -3.417037
  H 6.257248 -0.780314 -1.895154
  H 0.461898 0.533721 1.377883
  H 0.473936 -0.849255 0.265236
  H 0.474226 0.759425 -0.382647
  H 3.838375 1.374134 1.157124
  H 3.836821 -0.227993 1.802425
  H 1.831208 0.312493 3.192952
  H 1.833084 1.951010 2.533854
  H 4.113231 0.680988 4.110146
  H 2.977894 1.875669 4.715868
  H 4.115453 2.315260 3.452528
  H 2.286082 -0.656441 -1.573485
  H 5.325768 -0.295330 -0.686181
  H 5.191509 -2.338443 -3.450771
  H 5.191274 -0.728677 -4.097294
 25
 67.338619
  C 0.866142 0.134188 0.425625
  C 2.336718 0.109843 0.395259
  C 3.171385 0.578225 1.530259
  C 2.460413 1.111834 2.776159
  C 3.482901 1.548631 3.833488
  C 2.947046 -0.376516 -0.751425
  C 4.316212 -0.450680 -0.925206
  C 5.174593 -0.841193 -1.953584
  C 4.747731 -1.280638 -3.312192
  H 3.687223 -1.280193 -3.427490
  H 6.258186 -0.862124 -1.892322
  H 0.463499 0.523440 1.346272
  H 0.478423 -0.868945 0.263558
  H 0.490331 0.724784 -0.407479
  H 3.851026 1.351554 1.148530
  H 3.836268 -0.241211 1.830127
  H 1.818107 0.336241 3.208894
  H 1.833368 1.972671 2.516978
  H 4.112107 0.709675 4.139853
  H 2.974033 1.928992 4.721656
  H 4.128099 2.342492 3.449704
  H 2.297363 -0.723080 -1.560831
  H 5.362621 -0.377111 -0.738292
  H 5.135242 -2.275078 -3.489398
  H 5.190861 -0.662357 -4.083778
 25
 69.572406
  C 0.867862 0.095453 0.435236
  C 2.343999 0.044007 0.404889
  C 3.182642 0.545349 1.528212
  C 2.470009 1.139129 2.729598
  C 3.482934 1.603810 3.771676
  C 2.948002 -0.494453 -0.708064
  C 4.310296 -0.608952 -0.902399
  C 5.218689 -0.923399 -1.890938
  C 4.738512 -1.101484 -3.315798
  H 3.661245 -0.974533 -3.394001
  H 6.300157 -1.074427 -1.824175
  H 0.477784 0.530173 1.343054
  H 0.462438 -0.906525 0.325992
  H 0.498804 0.662144 -0.415078
  H 3.867149 1.294057 1.118464
  H 3.822854 -0.267674 1.880506
  H 1.816486 0.394801 3.185223
  H 1.861103 1.992188 2.426403
  H 4.093061 0.773067 4.118071
  H 2.972733 2.027705 4.633477
  H 4.141153 2.367663 3.361597
  H 2.298925 -0.879932 -1.499024
  H 5.393178 -0.554609 -0.698155
  H 5.024256 -2.119171 -3.600898
  H 5.224948 -0.428087 -4.021511
 25
 70.445177
  C 0.843445 0.068775 0.459920
  C 2.321033 -0.000109 0.411215
  C 3.179915 0.521380 1.510047
  C 2.481934 1.163771 2.705759
  C 3.509756 1.643696 3.725328
  C 2.905868 -0.575118 -0.695726
  C 4.256430 -0.708634 -0.917857
  C 5.231803 -0.948296 -1.855403
  C 4.788514 -0.985813 -3.320386
  H 3.727579 -0.764417 -3.416797
  H 6.285632 -1.194112 -1.774906
  H 0.472324 0.533337 1.360041
  H 0.425558 -0.930544 0.387269
  H 0.468723 0.616711 -0.396922
  H 3.865961 1.252391 1.076378
  H 3.807125 -0.296584 1.879519
  H 1.821090 0.442244 3.189738
  H 1.883238 2.018432 2.381916
  H 4.109809 0.814801 4.091078
  H 3.013695 2.100206 4.577441
  H 4.176273 2.385803 3.286720
  H 2.249559 -0.993826 -1.452099
  H 5.359430 -0.659625 -0.674088
  H 4.992746 -1.993102 -3.667276
  H 5.350461 -0.307090 -3.945169
 25
 71.001612
  C 0.822846 0.039335 0.483412
  C 2.298401 -0.036204 0.416104
  C 3.175950 0.507571 1.487630
  C 2.497188 1.186528 2.672256
  C 3.542828 1.684273 3.671054
  C 2.864522 -0.651603 -0.682563
  C 4.202930 -0.805330 -0.924353
  C 5.231454 -0.984959 -1.823556
  C 4.836916 -0.858055 -3.298141
  H 3.807507 -0.533817 -3.402324
  H 6.259591 -1.334368 -1.730852
  H 0.463646 0.536628 1.382485
  H 0.399106 -0.964105 0.446077
  H 0.436355 0.565352 -0.386934
  H 3.864905 1.225983 1.031815
  H 3.797565 -0.309095 1.868824
  H 1.832467 0.483262 3.182985
  H 1.902362 2.040600 2.330008
  H 4.138726 0.859228 4.052136
  H 3.059986 2.168389 4.517100
  H 4.212350 2.408855 3.206484
  H 2.192620 -1.102363 -1.411258
  H 5.317081 -0.776645 -0.654072
  H 4.955436 -1.850951 -3.727057
  H 5.483383 -0.180619 -3.846383
 25
 70.732691
  C 0.806889 0.010193 0.496850
  C 2.283008 -0.071372 0.417330
  C 3.177815 0.497030 1.462627
  C 2.513802 1.209622 2.640068
  C 3.570831 1.727493 3.614952
  C 2.837471 -0.722091 -0.671285
  C 4.162840 -0.892392 -0.930020
  C 5.229370 -1.027724 -1.796244
  C 4.873952 -0.728121 -3.253312
  H 3.889380 -0.283930 -3.333884
  H 6.216047 -1.482253 -1.709450
  H 0.461133 0.532467 1.380086
  H 0.379549 -0.991335 0.493595
  H 0.410802 0.513233 -0.382879
  H 3.864776 1.200702 0.983722
  H 3.798958 -0.315041 1.855867
  H 1.852204 0.523954 3.174513
  H 1.920437 2.054936 2.283426
  H 4.169305 0.907275 4.011651
  H 3.097829 2.235142 4.454747
  H 4.238473 2.438082 3.124547
  H 2.158588 -1.199813 -1.375019
  H 5.292673 -0.884831 -0.642219
  H 4.883880 -1.684991 -3.765289
  H 5.600248 -0.083431 -3.739213
 25
 69.302148
  C 0.786612 -0.019937 0.521089
  C 2.259516 -0.089366 0.413896
  C 3.177312 0.503064 1.432706
  C 2.534808 1.226600 2.609091
  C 3.605935 1.763874 3.555327
  C 2.797231 -0.764231 -0.672516
  C 4.105435 -0.956409 -0.959057
  C 5.215878 -1.076754 -1.770007
  C 4.931546 -0.619744 -3.200098
  H 3.997125 -0.076440 -3.263959
  H 6.148561 -1.632452 -1.682219
  H 0.455625 0.518968 1.399784
  H 0.367500 -1.026382 0.549259
  H 0.365064 0.463046 -0.363265
  H 3.848032 1.204017 0.932299
  H 3.811421 -0.299203 1.826774
  H 1.889855 0.546788 3.162482
  H 1.930561 2.061253 2.252292
  H 4.218449 0.950773 3.952521
  H 3.144578 2.280387 4.398399
  H 4.261661 2.474173 3.040792
  H 2.108801 -1.236932 -1.365815
  H 5.252526 -0.950034 -0.635462
  H 4.860271 -1.524771 -3.789535
  H 5.732653 -0.011333 -3.616550
 25
 66.100750
  C 0.765938 -0.045065 0.552513
  C 2.232003 -0.138908 0.432512
  C 3.175651 0.484189 1.412385
  C 2.557192 1.243397 2.582149
  C 3.644838 1.807451 3.487117
  C 2.749671 -0.815053 -0.668003
  C 4.036851 -1.009002 -0.999015
  C 5.199122 -1.122905 -1.758730
  C 5.002873 -0.506509 -3.141995
  H 4.130873 0.136458 -3.171658
  H 6.074772 -1.767824 -1.677054
  H 0.453150 0.521641 1.424221
  H 0.330973 -1.044501 0.613224
  H 0.339856 0.421934 -0.338433
  H 3.834531 1.170336 0.877245
  H 3.820394 -0.307005 1.816924
  H 1.923893 0.579894 3.169805
  H 1.943613 2.069175 2.211815
  H 4.261952 1.012072 3.893288
  H 3.204075 2.345605 4.318937
  H 4.287574 2.500318 2.939009
  H 2.046716 -1.257249 -1.366211
  H 5.223596 -0.989325 -0.633138
  H 4.852935 -1.338862 -3.819636
  H 5.876954 0.049591 -3.481347
