 26
 0.000000
  H 1.452069 0.167027 0.467830
  C 2.530175 0.148245 0.420852
  C 3.297294 0.615391 1.582952
  C 2.458589 1.090588 2.765267
  C 3.348776 1.552538 3.914849
  C 3.087630 -0.322948 -0.752190
  C 4.460783 -0.418695 -0.991758
  C 5.121301 -0.876249 -2.133182
  C 4.591325 -1.392930 -3.421703
  C 3.096146 -1.495866 -3.678873
  H 2.938758 -1.895127 -4.674472
  O 6.435759 -0.879124 -2.140966
  H 3.959098 1.432168 1.270129
  H 3.959184 -0.190605 1.922375
  H 1.816921 0.281127 3.117357
  H 1.817015 1.918677 2.459271
  H 3.983661 0.742192 4.265779
  H 2.742398 1.888953 4.751914
  H 3.983780 2.380278 3.607412
  H 2.400144 -0.631466 -1.520053
  H 5.109901 -0.095208 -0.186274
  H 5.045563 -2.381626 -3.556963
  H 5.045934 -0.771961 -4.202661
  H 2.621644 -0.519144 -3.630485
  H 2.621439 -2.168441 -2.969085
  H 6.846078 -0.549762 -1.318265
 26
 17.654474
  H 1.423046 0.196210 0.542784
  C 2.571638 0.153560 0.436755
  C 3.350315 0.619819 1.595702
  C 2.495675 1.092300 2.768945
  C 3.361836 1.561171 3.934533
  C 3.070229 -0.323135 -0.750037
  C 4.486685 -0.439708 -1.042428
  C 5.038943 -0.893260 -2.175991
  C 4.600588 -1.415662 -3.480284
  C 3.117452 -1.524614 -3.751417
  H 2.977344 -1.925216 -4.751508
  O 6.289357 -0.807842 -1.963872
  H 4.015076 1.435461 1.286069
  H 4.014877 -0.183146 1.937245
  H 1.851328 0.278275 3.106182
  H 1.852013 1.913404 2.448026
  H 3.995727 0.755328 4.297039
  H 2.738514 1.893954 4.760651
  H 3.996321 2.393013 3.637756
  H 2.366211 -0.629061 -1.512714
  H 5.114526 -0.115134 -0.230309
  H 5.072970 -2.391761 -3.595156
  H 5.072274 -0.788911 -4.237685
  H 2.634556 -0.552379 -3.713064
  H 2.634847 -2.201751 -3.052475
  H 6.606587 -0.466819 -1.110941
 26
 65.478935
  H 1.364265 0.210392 0.588203
  C 2.583389 0.156732 0.449977
  C 3.359041 0.620702 1.597974
  C 2.510761 1.093664 2.774316
  C 3.381605 1.563856 3.935744
  C 3.038986 -0.320649 -0.737635
  C 4.553819 -0.455069 -1.076028
  C 5.002368 -0.908632 -2.210014
  C 4.624620 -1.428906 -3.513052
  C 3.124116 -1.539121 -3.796187
  H 2.982799 -1.939851 -4.797092
  O 6.197947 -0.769769 -1.864599
  H 4.019703 1.437587 1.284998
  H 4.022208 -0.183003 1.938390
  H 1.867202 0.279549 3.113002
  H 1.864318 1.913193 2.454103
  H 4.017661 0.758307 4.296347
  H 2.761132 1.896996 4.764320
  H 4.014470 2.396250 3.635397
  H 2.340717 -0.624752 -1.492153
  H 5.103059 -0.114697 -0.226169
  H 5.112586 -2.418190 -3.614323
  H 5.114991 -0.784362 -4.268143
  H 2.640819 -0.565299 -3.756432
  H 2.638197 -2.215150 -3.095209
  H 6.500328 -0.423712 -0.997706
 26
 120.647398
  H 1.363364 0.188270 0.665285
  C 2.543477 0.141502 0.472626
  C 3.355643 0.630397 1.622827
  C 2.519940 1.102807 2.808368
  C 3.403873 1.590846 3.947356
  C 2.867693 -0.323986 -0.690304
  C 4.665675 -0.487869 -1.102154
  C 4.951592 -0.942141 -2.251173
  C 4.638613 -1.452095 -3.570157
  C 3.146053 -1.544700 -3.877503
  H 3.017862 -1.931426 -4.882257
  O 6.201360 -0.753327 -1.784463
  H 3.988233 1.460693 1.301125
  H 4.026566 -0.158271 1.967795
  H 1.891518 0.284496 3.166221
  H 1.858419 1.912265 2.493873
  H 4.054557 0.794879 4.301670
  H 2.795217 1.923874 4.783824
  H 4.021594 2.426904 3.627928
  H 2.254575 -0.645796 -1.515790
  H 5.016900 -0.124545 -0.158947
  H 5.117312 -2.433904 -3.671898
  H 5.143792 -0.808384 -4.302252
  H 2.676920 -0.570642 -3.832046
  H 2.648718 -2.220288 -3.193805
  H 6.569474 -0.422019 -0.937490
 26
 147.580734
  H 1.262752 0.217255 0.774920
  C 2.380380 0.120623 0.530686
  C 3.269230 0.616043 1.621814
  C 2.497592 1.139298 2.836972
  C 3.439129 1.607588 3.938889
  C 2.661361 -0.362586 -0.632195
  C 4.859969 -0.523949 -1.127485
  C 5.004916 -0.965146 -2.303471
  C 4.675201 -1.450468 -3.615820
  C 3.177385 -1.533345 -3.889746
  H 3.024740 -1.896249 -4.897388
  O 6.310087 -0.755801 -1.790248
  H 3.910731 1.425329 1.251189
  H 3.925160 -0.192725 1.968369
  H 1.864813 0.338540 3.233019
  H 1.831238 1.953944 2.543706
  H 4.079321 0.795104 4.271904
  H 2.872965 1.963323 4.796158
  H 4.066780 2.425331 3.591030
  H 2.077139 -0.669036 -1.471707
  H 5.087749 -0.157257 -0.163133
  H 5.144389 -2.430332 -3.751713
  H 5.182080 -0.803987 -4.340470
  H 2.714246 -0.559472 -3.812223
  H 2.699375 -2.224159 -3.209936
  H 6.731753 -0.431038 -0.971262
 26
 152.824613
  H 1.080418 0.272967 0.924119
  C 2.138444 0.155269 0.604884
  C 3.127040 0.626715 1.635665
  C 2.452920 1.172117 2.898700
  C 3.472489 1.609484 3.947078
  C 2.384390 -0.356544 -0.555012
  C 5.105645 -0.561660 -1.202655
  C 5.118423 -1.002991 -2.396004
  C 4.752357 -1.478121 -3.692325
  C 3.236256 -1.525354 -3.880009
  H 3.017232 -1.872669 -4.881291
  O 6.518786 -0.802522 -1.879239
  H 3.771660 1.407581 1.224795
  H 3.761016 -0.212396 1.945200
  H 1.807479 0.392775 3.327456
  H 1.796239 2.006511 2.645495
  H 4.103792 0.777260 4.241659
  H 2.969535 1.984372 4.833569
  H 4.106254 2.409879 3.559795
  H 1.761337 -0.675829 -1.371777
  H 5.229883 -0.144836 -0.226439
  H 5.201279 -2.460671 -3.846386
  H 5.235998 -0.831112 -4.438778
  H 2.801473 -0.538707 -3.757286
  H 2.779274 -2.210676 -3.167516
  H 7.029410 -0.471040 -1.117638
 26
 144.818020
  H 0.946001 0.288665 1.004893
  C 1.958329 0.158902 0.615693
  C 3.025425 0.585522 1.600056
  C 2.436460 1.146122 2.889968
  C 3.529391 1.557300 3.871931
  C 2.155898 -0.348070 -0.561290
  C 5.380647 -0.525694 -1.250872
  C 5.131860 -0.937088 -2.426212
  C 4.798772 -1.536968 -3.653825
  C 3.260747 -1.429264 -3.776812
  H 2.982740 -1.870791 -4.728833
  O 6.752537 -0.719232 -1.834389
  H 3.653780 1.346635 1.135318
  H 3.648614 -0.278271 1.841617
  H 1.800447 0.391281 3.360638
  H 1.809688 2.011023 2.666394
  H 4.149943 0.704771 4.135165
  H 3.091898 1.952329 4.784351
  H 4.163992 2.329657 3.440374
  H 1.521219 -0.690081 -1.348170
  H 5.085753 -0.129977 -0.311109
  H 5.121548 -2.583618 -3.676570
  H 5.281460 -1.014406 -4.488343
  H 2.933128 -0.393297 -3.755449
  H 2.772303 -1.975433 -2.972140
  H 7.353828 -0.330521 -1.167995
 26
 118.123963
  H 1.070113 0.258766 0.827982
  C 2.096751 0.119022 0.471268
  C 3.122307 0.551013 1.486067
  C 2.490623 1.091747 2.767573
  C 3.558432 1.513455 3.769757
  C 2.260865 -0.352806 -0.704650
  C 5.483821 -0.513111 -1.166058
  C 4.954559 -0.860265 -2.294848
  C 4.624846 -1.472283 -3.526605
  C 3.091404 -1.436452 -3.749487
  H 2.887161 -1.893706 -4.711903
  O 6.851480 -0.627371 -1.334261
  H 3.747673 1.329984 1.043922
  H 3.753189 -0.304183 1.738052
  H 1.857722 0.324465 3.219259
  H 1.858019 1.951422 2.535898
  H 4.190183 0.670188 4.040106
  H 3.098473 1.895629 4.677165
  H 4.189191 2.297241 3.355563
  H 1.719610 -0.685434 -1.551712
  H 5.130097 -0.157798 -0.223008
  H 4.961799 -2.512952 -3.534863
  H 5.093452 -0.928107 -4.352199
  H 2.725038 -0.415227 -3.757231
  H 2.590928 -2.004310 -2.974090
  H 7.338672 -0.129429 -0.657307
 26
 116.683462
  H 1.087321 0.235416 0.819253
  C 2.115946 0.101522 0.464507
  C 3.134483 0.546008 1.479405
  C 2.495934 1.086526 2.756788
  C 3.558440 1.520678 3.758205
  C 2.278147 -0.374863 -0.712451
  C 5.492284 -0.511188 -1.158897
  C 4.949821 -0.858736 -2.285734
  C 4.603381 -1.464597 -3.512887
  C 3.074814 -1.421229 -3.749205
  H 2.876720 -1.874384 -4.713011
  O 6.862644 -0.630218 -1.286668
  H 3.754296 1.328760 1.035499
  H 3.771638 -0.302745 1.736549
  H 1.868659 0.314737 3.208301
  H 1.857063 1.939375 2.518195
  H 4.196202 0.683751 4.033064
  H 3.094388 1.902582 4.662938
  H 4.183382 2.307888 3.341842
  H 1.746488 -0.715321 -1.562093
  H 5.122472 -0.148500 -0.224715
  H 4.933137 -2.507343 -3.529733
  H 5.072981 -0.922766 -4.339296
  H 2.713884 -0.398726 -3.757624
  H 2.566342 -1.993003 -2.982268
  H 7.335539 -0.134129 -0.605576
