 22
 0.000000
  H 1.370453 0.070239 -0.109078
  C 2.449131 0.069425 -0.094687
  C 3.067468 -0.007519 1.268984
  H 2.320781 -0.051926 2.055928
  C 3.128694 0.134344 -1.245166
  C 2.456679 0.210406 -2.593126
  C 0.931595 0.211149 -2.606257
  C 0.401028 0.291726 -4.034275
  C 4.586059 0.135373 -1.263360
  C 5.363973 0.195959 -2.337151
  H 6.439373 0.191864 -2.264546
  H 3.697674 0.863799 1.451714
  H 3.697680 -0.893862 1.352536
  H 2.804281 -0.635594 -3.194765
  H 2.804284 1.118718 -3.095774
  H 0.553360 1.066673 -2.043078
  H 0.553358 -0.702305 -2.142894
  H 0.741992 1.202950 -4.521332
  H -0.686821 0.291780 -4.035218
  H 0.741993 -0.558926 -4.620749
  H 5.072644 0.080989 -0.299534
  H 4.999614 0.253071 -3.349273
 22
 12.534802
  H 1.329393 0.065907 -0.032324
  C 2.404339 0.064830 -0.013266
  C 3.035505 -0.011207 1.334339
  H 2.288967 -0.055662 2.122102
  C 3.159845 0.137648 -1.303710
  C 2.471558 0.212763 -2.634901
  C 0.946185 0.211785 -2.617545
  C 0.385453 0.291720 -4.034162
  C 4.601908 0.137726 -1.305059
  C 5.391886 0.198026 -2.373771
  H 6.465768 0.193088 -2.286246
  H 3.667145 0.860546 1.514717
  H 3.667148 -0.897712 1.415505
  H 2.810417 -0.633718 -3.241557
  H 2.810420 1.122117 -3.142480
  H 0.580371 1.066301 -2.044999
  H 0.580369 -0.701718 -2.144760
  H 0.715734 1.203287 -4.527971
  H -0.702179 0.290538 -4.013198
  H 0.715734 -0.558513 -4.627384
  H 5.076272 0.082929 -0.333925
  H 5.033845 0.255242 -3.387765
