 22
 0.000000
  H 1.420591 0.164087 0.463931
  C 2.500534 0.144776 0.413357
  C 3.252419 0.613664 1.576299
  H 2.607599 0.938507 2.385228
  C 3.053748 -0.326358 -0.758871
  C 4.433219 -0.418051 -0.988688
  C 5.081817 -0.869923 -2.115444
  C 4.604269 -1.384537 -3.399426
  C 3.122679 -1.511035 -3.717052
  C 2.921035 -2.074138 -5.122172
  H 6.164423 -0.851032 -2.068050
  H 3.913273 1.437020 1.293500
  H 3.915102 -0.174735 1.942242
  H 2.372869 -0.637495 -1.531739
  H 5.074066 -0.093298 -0.179954
  H 5.081523 -2.367301 -3.531278
  H 5.082606 -0.765666 -4.173534
  H 2.641508 -0.532639 -3.666715
  H 2.640605 -2.183339 -3.005091
  H 3.366670 -1.425100 -5.872374
  H 1.860621 -2.162573 -5.344250
  H 3.365920 -3.062026 -5.216274
 22
 10.407533
  H 1.403668 0.185237 0.517065
  C 2.483528 0.166207 0.466996
  C 3.232847 0.636083 1.631955
  H 2.584273 0.959924 2.438362
  C 3.037607 -0.304872 -0.704991
  C 4.406972 -0.394531 -0.929914
  C 5.123878 -0.900048 -2.190457
  C 4.632231 -1.407787 -3.457348
  C 3.144694 -1.524541 -3.750863
  C 2.916514 -2.086188 -5.152374
  H 6.203948 -0.882211 -2.145644
  H 3.893140 1.460289 1.351733
  H 3.895118 -0.150957 2.000427
  H 2.357228 -0.617239 -1.480744
  H 5.052435 -0.072326 -0.127593
  H 5.103116 -2.392829 -3.595881
  H 5.104289 -0.791940 -4.237862
  H 2.671182 -0.543161 -3.691874
  H 2.670184 -2.192990 -3.030599
  H 3.354115 -1.440001 -5.909836
  H 1.852170 -2.167649 -5.357158
  H 3.353310 -3.077060 -5.253668
 22
 29.681108
  H 1.400971 0.174914 0.494381
  C 2.481008 0.161712 0.457239
  C 3.199294 0.638549 1.636464
  H 2.512585 0.952017 2.417094
  C 3.050513 -0.300426 -0.691870
  C 4.411168 -0.366338 -0.858812
  C 5.199772 -0.924931 -2.251418
  C 4.647616 -1.424567 -3.498177
  C 3.151706 -1.524430 -3.750513
  C 2.882398 -2.081774 -5.142934
  H 6.269998 -0.873679 -2.123351
  H 3.851000 1.476194 1.381446
  H 3.854357 -0.139331 2.032969
  H 2.394078 -0.615314 -1.472421
  H 5.119805 -0.064313 -0.107496
  H 5.110582 -2.411467 -3.663831
  H 5.111789 -0.826135 -4.299505
  H 2.700928 -0.534534 -3.670548
  H 2.699428 -2.184783 -3.009645
  H 3.307176 -1.439568 -5.910655
  H 1.812521 -2.152349 -5.321543
  H 3.305774 -3.077028 -5.255060
 22
 52.175891
  H 1.366824 0.179217 0.508205
  C 2.451409 0.172883 0.486542
  C 3.157394 0.659455 1.686301
  H 2.460070 0.970561 2.461024
  C 3.052353 -0.293022 -0.670910
  C 4.403419 -0.350102 -0.817007
  C 5.259048 -0.962650 -2.343946
  C 4.683675 -1.448648 -3.557182
  C 3.185212 -1.527443 -3.757686
  C 2.862466 -2.079290 -5.138688
  H 6.318793 -0.899158 -2.185459
  H 3.809264 1.499820 1.437751
  H 3.813960 -0.114368 2.090036
  H 2.410305 -0.612890 -1.462166
  H 5.145396 -0.061255 -0.099429
  H 5.132018 -2.436110 -3.737056
  H 5.133358 -0.859385 -4.369051
  H 2.748877 -0.533345 -3.664269
  H 2.747084 -2.182245 -3.004863
  H 3.269502 -1.442370 -5.919952
  H 1.786592 -2.134865 -5.280737
  H 3.267709 -3.080196 -5.265238
 22
 74.793821
  H 1.352117 0.208812 0.582197
  C 2.430851 0.201445 0.557740
  C 3.134461 0.682706 1.744159
  H 2.442146 0.993247 2.517707
  C 3.031281 -0.266145 -0.603949
  C 4.381198 -0.323975 -0.752158
  C 5.299046 -0.991436 -2.415670
  C 4.714065 -1.471694 -3.614519
  C 3.202744 -1.543751 -3.798460
  C 2.857460 -2.096011 -5.180535
  H 6.360638 -0.928012 -2.257256
  H 3.785212 1.521322 1.492971
  H 3.790145 -0.091555 2.144710
  H 2.379300 -0.589810 -1.404412
  H 5.133878 -0.039494 -0.045649
  H 5.159283 -2.467226 -3.799869
  H 5.160736 -0.880534 -4.435955
  H 2.771647 -0.546015 -3.699066
  H 2.769813 -2.196942 -3.038874
  H 3.257743 -1.460821 -5.968192
  H 1.779019 -2.146053 -5.308861
  H 3.255789 -3.099937 -5.312839
 22
 95.141010
  H 1.325649 0.221055 0.612225
  C 2.408605 0.218292 0.599361
  C 3.104769 0.705889 1.802075
  H 2.401341 1.014609 2.571276
  C 3.023909 -0.247767 -0.558734
  C 4.365418 -0.299909 -0.692640
  C 5.347783 -1.021876 -2.491553
  C 4.738703 -1.498506 -3.681376
  C 3.227856 -1.556821 -3.831060
  C 2.846991 -2.104118 -5.200758
  H 6.406074 -0.953858 -2.321516
  H 3.756018 1.548826 1.557703
  H 3.760806 -0.066919 2.210401
  H 2.386366 -0.570739 -1.357582
  H 5.135510 -0.022484 -0.003730
  H 5.171309 -2.496490 -3.876250
  H 5.172812 -0.912201 -4.511438
  H 2.810361 -0.556952 -3.721060
  H 2.808486 -2.204269 -3.062218
  H 3.234476 -1.472993 -5.996570
  H 1.766217 -2.144075 -5.303866
  H 3.232556 -3.110769 -5.341782
 22
 112.537387
  H 1.308501 0.241475 0.662155
  C 2.388179 0.240707 0.654643
  C 3.075469 0.725945 1.852385
  H 2.369938 1.032527 2.616463
  C 3.011312 -0.224648 -0.501884
  C 4.350853 -0.274586 -0.630000
  C 5.391219 -1.052227 -2.567317
  C 4.767130 -1.522382 -3.740974
  C 3.250268 -1.569921 -3.863595
  C 2.838104 -2.115106 -5.228011
  H 6.448998 -0.982555 -2.393035
  H 3.724865 1.568487 1.610687
  H 3.729432 -0.045027 2.262150
  H 2.372128 -0.550724 -1.308797
  H 5.138026 -0.004430 0.040901
  H 5.189652 -2.523460 -3.942817
  H 5.191135 -0.938659 -4.578224
  H 2.842470 -0.564945 -3.744508
  H 2.840694 -2.214817 -3.084603
  H 3.215099 -1.486409 -6.032071
  H 1.754544 -2.146812 -5.310334
  H 3.213282 -3.125615 -5.376716
 22
 126.823460
  H 1.284617 0.256043 0.697236
  C 2.366325 0.260251 0.702672
  C 3.043913 0.750533 1.913955
  H 2.327511 1.054764 2.672279
  C 3.006379 -0.203810 -0.450789
  C 4.337319 -0.249182 -0.567087
  C 5.436437 -1.082313 -2.642375
  C 4.792648 -1.549527 -3.808725
  C 3.272479 -1.585041 -3.900970
  C 2.827252 -2.125762 -5.254411
  H 6.493213 -1.010089 -2.461670
  H 3.693536 1.597462 1.679311
  H 3.697743 -0.019109 2.331670
  H 2.377864 -0.530430 -1.259618
  H 5.142063 0.012723 0.083477
  H 5.204263 -2.555429 -4.019062
  H 5.205600 -0.968061 -4.655371
  H 2.877199 -0.578182 -3.772374
  H 2.875584 -2.224906 -3.113771
  H 3.191856 -1.500519 -6.065743
  H 1.742643 -2.148207 -5.313279
  H 3.190224 -3.138667 -5.410964
 22
 138.068455
  H 1.265961 0.274943 0.743540
  C 2.345109 0.282447 0.757429
  C 3.012259 0.771491 1.966536
  H 2.291456 1.073073 2.718631
  C 2.995796 -0.179705 -0.391624
  C 4.325665 -0.223114 -0.502961
  C 5.474270 -1.113588 -2.720218
  C 4.818418 -1.574898 -3.871831
  C 3.295878 -1.599299 -3.936196
  C 2.819842 -2.136662 -5.281498
  H 6.531905 -1.042407 -2.542095
  H 3.659892 1.618858 1.736088
  H 3.663924 0.004146 2.387292
  H 2.368362 -0.508672 -1.206507
  H 5.148994 0.030227 0.126356
  H 5.219077 -2.582567 -4.088865
  H 5.220369 -0.996669 -4.724517
  H 2.911187 -0.588168 -3.798731
  H 2.909672 -2.236235 -3.139699
  H 3.173375 -1.513751 -6.100467
  H 1.733538 -2.150582 -5.318905
  H 3.171825 -3.153052 -5.445360
 22
 145.987593
  H 1.242053 0.296050 0.796476
  C 2.322589 0.307798 0.820769
  C 2.979613 0.799153 2.035170
  H 2.251604 1.099037 2.783169
  C 2.987477 -0.153354 -0.325710
  C 4.312719 -0.196282 -0.436355
  C 5.507131 -1.144561 -2.797050
  C 4.844222 -1.603768 -3.943560
  C 3.317248 -1.618107 -3.982898
  C 2.813383 -2.151938 -5.319910
  H 6.572102 -1.079785 -2.634944
  H 3.627335 1.649134 1.808908
  H 3.631547 0.033002 2.460793
  H 2.365191 -0.483701 -1.143761
  H 5.147721 0.051272 0.178306
  H 5.238666 -2.614900 -4.167808
  H 5.239994 -1.027914 -4.803784
  H 2.942435 -0.605699 -3.837299
  H 2.940858 -2.250533 -3.179750
  H 3.156414 -1.531696 -6.144917
  H 1.727004 -2.158039 -5.337892
  H 3.154754 -3.170462 -5.490185
 22
 150.615644
  H 1.221051 0.321177 0.860478
  C 2.300636 0.335782 0.891321
  C 2.947742 0.826285 2.101956
  H 2.217793 1.124865 2.846678
  C 2.973936 -0.124361 -0.252164
  C 4.299765 -0.169146 -0.368411
  C 5.533700 -1.176019 -2.875081
  C 4.867967 -1.633431 -4.017294
  C 3.340888 -1.638342 -4.033549
  C 2.812054 -2.168655 -5.362232
  H 6.603061 -1.122057 -2.739892
  H 3.594972 1.675588 1.877172
  H 3.599717 0.062290 2.528472
  H 2.351709 -0.456862 -1.074806
  H 5.142810 0.074869 0.236966
  H 5.255752 -2.644516 -4.246933
  H 5.257281 -1.061362 -4.881342
  H 2.974786 -0.623282 -3.880278
  H 2.972993 -2.267407 -3.223179
  H 3.146013 -1.550385 -6.193022
  H 1.725057 -2.167581 -5.362709
  H 3.144085 -3.189828 -5.538111
 22
 153.603196
  H 1.198208 0.346160 0.924094
  C 2.279180 0.364182 0.962940
  C 2.917925 0.857344 2.178538
  H 2.183551 1.155091 2.921201
  C 2.962362 -0.095437 -0.178802
  C 4.284670 -0.141217 -0.298456
  C 5.561251 -1.205946 -2.949549
  C 4.889735 -1.665028 -4.096015
  C 3.360811 -1.662096 -4.093206
  C 2.810470 -2.189325 -5.414326
  H 6.636098 -1.161981 -2.839105
  H 3.566550 1.707742 1.956159
  H 3.571877 0.094859 2.607826
  H 2.344023 -0.429300 -1.004280
  H 5.132820 0.100387 0.300703
  H 5.271783 -2.677695 -4.330030
  H 5.273562 -1.095002 -4.964376
  H 3.002588 -0.645574 -3.933601
  H 3.000491 -2.287759 -3.277196
  H 3.136649 -1.573110 -6.249489
  H 1.723752 -2.182146 -5.400056
  H 3.134384 -3.212121 -5.594620
 22
 155.619316
  H 1.178290 0.373437 0.994046
  C 2.258397 0.393061 1.036117
  C 2.891273 0.885477 2.247291
  H 2.157385 1.182881 2.988914
  C 2.944121 -0.065854 -0.103007
  C 4.268944 -0.113933 -0.229648
  C 5.582056 -1.237332 -3.027493
  C 4.908662 -1.695350 -4.171560
  C 3.380939 -1.685915 -4.153099
  C 2.813478 -2.210313 -5.467588
  H 6.660655 -1.203964 -2.943326
  H 3.540640 1.734424 2.024563
  H 3.546752 0.124791 2.675805
  H 2.325391 -0.400704 -0.929787
  H 5.122843 0.125328 0.363331
  H 5.284814 -2.708000 -4.408118
  H 5.286827 -1.127193 -5.041716
  H 3.029223 -0.667671 -3.988260
  H 3.026891 -2.309199 -3.332302
  H 3.133658 -1.595421 -6.306351
  H 1.726834 -2.198188 -5.441441
  H 3.131095 -3.234735 -5.651417
 22
 156.964149
  H 1.157650 0.400500 1.062683
  C 2.238862 0.422146 1.109358
  C 2.867388 0.916771 2.324312
  H 2.131502 1.213940 3.065474
  C 2.929613 -0.036811 -0.029452
  C 4.251281 -0.085973 -0.159827
  C 5.605002 -1.267430 -3.102480
  C 4.926187 -1.727463 -4.251706
  C 3.396817 -1.713144 -4.221480
  C 2.815541 -2.235477 -5.531081
  H 6.687253 -1.242978 -3.040356
  H 3.518584 1.765827 2.102652
  H 3.525371 0.157421 2.753863
  H 2.312880 -0.372520 -0.857872
  H 5.108965 0.151271 0.428386
  H 5.298014 -2.741693 -4.490463
  H 5.300216 -1.159834 -5.124601
  H 3.050298 -0.693850 -4.052558
  H 3.047720 -2.334381 -3.396956
  H 3.130976 -1.621791 -6.372454
  H 1.729279 -2.219514 -5.495737
  H 3.128164 -3.260874 -5.717583
