20

H      1.949202   -0.199324    0.863655
C      0.965403    0.659553    0.071194
C     -0.493605    0.136783    0.102705
C     -1.335591    1.112548   -0.647151
C     -4.215358    0.855247    0.007353
H     -4.809165    1.871960   -0.686648
C     -0.572338   -1.278970   -0.472537
C     -1.994626   -1.824386   -0.541270
H     -2.571693   -1.779565    0.748675
H      1.289218    0.729174   -0.968178
H      0.975088    1.667572    0.494711
H     -0.816951    0.107306    1.148771
H     -1.230118    2.135876   -0.314122
H     -1.324351    1.025981   -1.723753
H     -4.165628    0.947755    1.084510
H     -4.518598   -0.109365   -0.366715
H      0.008397   -1.954465    0.156246
H     -0.145565   -1.289209   -1.477709
H     -2.588328   -1.234284   -1.251563
H     -1.957216   -2.863383   -0.902269
