 14
 0.000000
  C 0.967196 0.145269 0.411984
  C 2.420621 0.102801 0.307391
  H 3.011008 0.440507 1.148922
  C 3.067978 -0.350027 -0.820543
  C 4.460697 -0.391927 -0.925630
  C 5.155031 -0.837898 -2.036958
  H 4.695538 -1.204063 -2.948287
  O 6.446385 -0.866339 -2.109214
  H 0.630049 0.529468 1.369172
  H 0.546990 -0.851340 0.254599
  H 0.547704 0.757052 -0.390710
  H 2.472424 -0.686749 -1.659046
  H 5.038445 -0.049850 -0.074639
  H 6.919859 -0.546127 -1.312592
 14
 11.574539
  C 0.999045 0.105000 0.312585
  C 2.450194 0.110622 0.325911
  H 2.965605 0.464009 1.207917
  C 3.224746 -0.325096 -0.760438
  C 4.578091 -0.307221 -0.717967
  C 4.985870 -0.782929 -1.900411
  H 4.362128 -1.110288 -2.715123
  O 6.247331 -0.922372 -2.246289
  H 0.567698 0.473106 1.232615
  H 0.628786 -0.899119 0.105167
  H 0.628455 0.688618 -0.530263
  H 2.679356 -0.669745 -1.618771
  H 5.184714 0.017584 0.087921
  H 6.879566 -0.649287 -1.563384
 14
 44.134660
  C 1.029504 0.073782 0.236298
  C 2.464871 0.119723 0.346159
  H 2.919512 0.485862 1.256688
  C 3.336439 -0.308520 -0.721635
  C 4.658771 -0.257038 -0.593763
  C 4.858225 -0.738110 -1.790302
  H 4.183958 -1.045389 -2.559072
  O 6.110503 -0.961239 -2.342095
  H 0.530777 0.429942 1.124064
  H 0.697493 -0.945664 0.006021
  H 0.695123 0.649004 -0.635166
  H 2.763243 -0.645809 -1.562454
  H 5.296810 0.060013 0.196781
  H 6.851704 -0.728894 -1.754971
 14
 89.494119
  C 1.027908 0.065074 0.215977
  C 2.470794 0.122436 0.353579
  H 2.914226 0.491177 1.271551
  C 3.408616 -0.321437 -0.754975
  C 4.720477 -0.229893 -0.531157
  C 4.770960 -0.717262 -1.738958
  H 4.169980 -1.047085 -2.566362
  O 6.071908 -0.976556 -2.377474
  H 0.508550 0.417938 1.096539
  H 0.704577 -0.955388 -0.019993
  H 0.701902 0.637577 -0.659993
  H 2.762477 -0.642627 -1.556930
  H 5.363315 0.085795 0.254526
  H 6.828362 -0.752782 -1.805709
 14
 132.450203
  C 1.028466 0.061422 0.206825
  C 2.468905 0.116598 0.344309
  H 2.917178 0.481927 1.256041
  C 3.411222 -0.329585 -0.773308
  C 4.744705 -0.208959 -0.486222
  C 4.663710 -0.697090 -1.687826
  H 4.189532 -1.052894 -2.575771
  O 6.134905 -0.997111 -2.425622
  H 0.513565 0.414964 1.090310
  H 0.699092 -0.957276 -0.031313
  H 0.698143 0.634380 -0.668937
  H 2.707976 -0.635552 -1.539919
  H 5.398092 0.104922 0.292588
  H 6.877811 -0.771467 -1.851242
 14
 145.459457
  C 0.949472 0.082140 0.231689
  C 2.418944 0.106930 0.308267
  H 2.874313 0.478389 1.214673
  C 3.222340 -0.323306 -0.731214
  C 4.727264 -0.222319 -0.454202
  C 4.479753 -0.666832 -1.606673
  H 4.305018 -1.110233 -2.560481
  O 6.594281 -1.042142 -2.609342
  H 0.504621 0.454026 1.147004
  H 0.577656 -0.926320 0.037271
  H 0.585911 0.677747 -0.608916
  H 2.520294 -0.634404 -1.519469
  H 5.373404 0.071802 0.341208
  H 7.350812 -0.794094 -2.071885
 14
 142.119187
  C 0.831544 0.106832 0.304453
  C 2.314572 0.121789 0.339936
  H 2.780078 0.499018 1.239185
  C 3.061267 -0.312487 -0.708065
  C 4.652778 -0.221403 -0.434508
  C 4.355100 -0.654869 -1.575473
  H 4.464763 -1.085166 -2.542816
  O 7.155820 -1.141868 -2.858547
  H 0.423253 0.485022 1.228452
  H 0.448592 -0.896976 0.141029
  H 0.449271 0.710247 -0.514650
  H 2.414914 -0.636007 -1.547042
  H 5.158555 0.106186 0.446082
  H 7.987381 -0.937933 -2.415292
 14
 143.561088
  C 0.772107 0.087688 0.317962
  C 2.251449 0.128120 0.363532
  H 2.694035 0.522313 1.265867
  C 3.015118 -0.287160 -0.676310
  C 4.627710 -0.164370 -0.384909
  C 4.283124 -0.593389 -1.510634
  H 4.441794 -0.974934 -2.494457
  O 7.456670 -1.247719 -3.020880
  H 0.348643 0.465920 1.242196
  H 0.407966 -0.927774 0.158382
  H 0.383984 0.682002 -0.510101
  H 2.371339 -0.621065 -1.512223
  H 5.099864 0.173537 0.508952
  H 8.322006 -1.095834 -2.628451
 14
 145.905534
  C 0.707168 0.092968 0.335587
  C 2.179362 0.140918 0.389642
  H 2.621749 0.528967 1.296144
  C 2.949928 -0.271756 -0.651781
  C 4.588190 -0.146930 -0.330766
  C 4.214846 -0.557748 -1.449012
  H 4.366635 -0.935693 -2.435444
  O 7.809438 -1.328609 -3.197381
  H 0.276882 0.466468 1.258203
  H 0.346275 -0.923842 0.168244
  H 0.320751 0.690610 -0.492444
  H 2.307160 -0.614363 -1.481948
  H 5.049443 0.206596 0.557728
  H 8.680608 -1.191767 -2.821307
 14
 147.915812
  C 0.642183 0.122372 0.353001
  C 2.112046 0.153269 0.403078
  H 2.563163 0.533380 1.309076
  C 2.876091 -0.276464 -0.633181
  C 4.532385 -0.154996 -0.291351
  C 4.141831 -0.572635 -1.397068
  H 4.308037 -0.952472 -2.385459
  O 8.144243 -1.362396 -3.338667
  H 0.219956 0.501265 1.279991
  H 0.262320 -0.892464 0.186935
  H 0.257839 0.729329 -0.471412
  H 2.213384 -0.643611 -1.439376
  H 5.020686 0.195076 0.591100
  H 9.015428 -1.208152 -2.976734
 14
 144.291240
  C 0.518835 0.159842 0.447396
  C 1.994064 0.171397 0.464515
  H 2.457535 0.570574 1.354897
  C 2.707558 -0.271539 -0.589013
  C 4.333156 -0.141008 -0.262787
  C 4.069379 -0.577692 -1.404367
  H 4.191647 -0.949457 -2.396250
  O 8.912747 -1.479580 -3.647242
  H 0.115891 0.546071 1.383464
  H 0.130148 -0.841302 0.286284
  H 0.128942 0.755727 -0.375889
  H 2.082589 -0.652432 -1.420706
  H 4.731800 0.213390 0.661479
  H 9.774358 -1.304884 -3.245436
 14
 144.176031
  C 0.404400 0.195300 0.468359
  C 1.887305 0.219535 0.502956
  H 2.340688 0.642628 1.386813
  C 2.623043 -0.260673 -0.519133
  C 4.234505 -0.169811 -0.196714
  C 3.969587 -0.586272 -1.345101
  H 4.076473 -0.944407 -2.343857
  O 9.371162 -1.514713 -3.852895
  H -0.007092 0.599194 1.382660
  H 0.025503 -0.812694 0.328799
  H 0.017940 0.774415 -0.381985
  H 2.025627 -0.680737 -1.333819
  H 4.637003 0.132665 0.741035
  H 10.220878 -1.330081 -3.430351
 14
 10000.000000
  C 0.331296 0.201256 0.485683
  C 1.812791 0.237102 0.554122
  H 2.242564 0.658159 1.450658
  C 2.645512 -0.273725 -0.546654
  C 4.191711 -0.170783 -0.182705
  C 3.922236 -0.570253 -1.307030
  H 4.032067 -0.922397 -2.307596
  O 9.442382 -1.504539 -3.855111
  H -0.104090 0.596019 1.392880
  H -0.036140 -0.808821 0.331311
  H -0.040474 0.782675 -0.369624
  H 2.070362 -0.693576 -1.377317
  H 4.582240 0.130681 0.760416
  H 10.290866 -1.322847 -3.428833
