 20
 0.000000
  C 1.007466 -0.070479 0.049699
  C 2.503591 -0.082987 0.025146
  C 3.216379 -0.596687 -0.983338
  C 4.654522 -0.607636 -1.004832
  C 5.376847 -1.122234 -2.015074
  C 6.815747 -1.130371 -2.031041
  C 7.535986 -1.641530 -3.034539
  C 9.026199 -1.661123 -3.072995
  H 0.647832 0.396240 0.965943
  H 0.610706 -1.084989 0.012026
  H 0.610706 0.495540 -0.793079
  H 3.006301 0.351963 0.879029
  H 2.702948 -1.029618 -1.833244
  H 5.158385 -0.172498 -0.150584
  H 4.874778 -1.557743 -2.870047
  H 7.320498 -0.695358 -1.177038
  H 7.037961 -2.078060 -3.891503
  H 9.464166 -1.208534 -2.184494
  H 9.384191 -1.115535 -3.947577
  H 9.384191 -2.689341 -3.145906
 20
 0.830892
  C 1.063643 -0.070742 0.164841
  C 2.549816 -0.072088 0.004919
  C 3.184646 -0.583244 -1.055979
  C 4.610191 -0.593038 -1.175579
  C 5.314758 -1.137803 -2.179789
  C 6.746875 -1.158022 -2.154939
  C 7.552022 -1.662096 -3.090564
  C 9.033164 -1.649930 -2.940108
  H 0.770438 0.392926 1.103190
  H 0.674857 -1.089054 0.146709
  H 0.590450 0.474252 -0.652255
  H 3.126454 0.365667 0.808727
  H 2.602429 -1.023187 -1.856281
  H 5.149353 -0.130055 -0.356816
  H 4.812902 -1.603079 -3.017397
  H 7.195699 -0.701555 -1.279820
  H 7.148775 -2.124305 -3.981080
  H 9.274081 -1.213469 -1.972823
  H 9.501752 -1.061952 -3.728753
  H 9.436683 -2.660597 -2.990416
 20
 3.912757
  C 1.141389 -0.120686 0.275744
  C 2.604870 -0.044158 -0.044811
  C 3.154043 -0.552443 -1.155620
  C 4.561670 -0.496988 -1.377826
  C 5.260975 -1.095970 -2.356595
  C 6.688406 -1.143031 -2.267140
  C 7.561273 -1.689186 -3.114391
  C 9.011862 -1.675355 -2.783783
  H 0.922186 0.352307 1.232264
  H 0.809578 -1.161963 0.319486
  H 0.552024 0.375933 -0.499720
  H 3.238981 0.438323 0.690262
  H 2.504366 -1.036769 -1.874386
  H 5.114668 0.051215 -0.624676
  H 4.765813 -1.641182 -3.151355
  H 7.090639 -0.613439 -1.410002
  H 7.242615 -2.245506 -3.985433
  H 9.091833 -1.311369 -1.759788
  H 9.566494 -1.014611 -3.451109
  H 9.448325 -2.670589 -2.853758
 20
 7.797779
  C 1.217246 -0.117860 0.337520
  C 2.647107 -0.033173 -0.080600
  C 3.137653 -0.581705 -1.200674
  C 4.520950 -0.481391 -1.520427
  C 5.213799 -1.121780 -2.481621
  C 6.637969 -1.133068 -2.370149
  C 7.567742 -1.728102 -3.115977
  C 8.983061 -1.642767 -2.657946
  H 1.058050 0.379010 1.290467
  H 0.907889 -1.159677 0.437359
  H 0.570978 0.341976 -0.405381
  H 3.318310 0.486063 0.592789
  H 2.455831 -1.114576 -1.853501
  H 5.088016 0.129248 -0.823900
  H 4.726825 -1.736883 -3.212394
  H 6.998083 -0.511487 -1.548985
  H 7.325650 -2.389933 -3.935496
  H 8.922181 -1.218080 -1.658652
  H 9.577745 -1.005335 -3.312273
  H 9.454942 -2.624039 -2.610171
 20
 11.855464
  C 1.300683 -0.132733 0.409046
  C 2.690544 -0.010143 -0.123841
  C 3.128116 -0.586560 -1.253312
  C 4.483674 -0.466183 -1.650071
  C 5.162518 -1.123683 -2.612832
  C 6.586985 -1.121493 -2.471635
  C 7.571827 -1.784342 -3.081865
  C 8.944483 -1.606573 -2.523265
  H 1.190882 0.422825 1.332134
  H 1.048325 -1.179104 0.599551
  H 0.574422 0.245458 -0.311946
  H 3.378597 0.565477 0.467490
  H 2.436163 -1.165055 -1.847743
  H 5.068548 0.166033 -0.989436
  H 4.676151 -1.798122 -3.308046
  H 6.901932 -0.413987 -1.721636
  H 7.401385 -2.548354 -3.826740
  H 8.769398 -1.141524 -1.556740
  H 9.557237 -0.959903 -3.147526
  H 9.456451 -2.566305 -2.395342
 20
 15.359619
  C 1.454814 -0.203253 0.497263
  C 2.752309 0.057186 -0.200690
  C 3.129551 -0.572727 -1.319636
  C 4.428450 -0.380034 -1.860698
  C 5.117414 -1.131886 -2.741808
  C 6.538805 -1.037839 -2.627926
  C 7.543971 -1.812964 -3.034087
  C 8.850248 -1.602185 -2.329092
  H 1.365105 0.398744 1.391101
  H 1.374504 -1.255297 0.779490
  H 0.617028 0.017807 -0.152598
  H 3.427372 0.760824 0.274966
  H 2.422681 -1.235819 -1.793239
  H 4.989098 0.380753 -1.331830
  H 4.657482 -1.940353 -3.294700
  H 6.833485 -0.191260 -2.016191
  H 7.415152 -2.687575 -3.643900
  H 8.553615 -1.072121 -1.410626
  H 9.569221 -1.030734 -2.921403
  H 9.304874 -2.556383 -2.048740
 20
 19.260523
  C 1.590852 -0.189223 0.562980
  C 2.819987 0.062917 -0.250296
  C 3.142392 -0.652436 -1.338551
  C 4.369889 -0.396358 -2.009280
  C 5.089953 -1.153377 -2.863851
  C 6.504891 -0.984449 -2.741332
  C 7.515345 -1.829727 -2.950730
  C 8.759816 -1.562732 -2.164690
  H 1.564731 0.449232 1.450840
  H 1.550224 -1.229529 0.883228
  H 0.694956 0.004132 -0.028834
  H 3.487160 0.838007 0.101764
  H 2.436283 -1.395768 -1.687281
  H 4.876079 0.479141 -1.611411
  H 4.679104 -2.045756 -3.310946
  H 6.767406 -0.069572 -2.204817
  H 7.414334 -2.772418 -3.468143
  H 8.400064 -0.970802 -1.324380
  H 9.528922 -1.040667 -2.730115
  H 9.180305 -2.484870 -1.769219
 20
 20.382982
  C 1.657808 -0.185551 0.602243
  C 2.805928 0.112045 -0.293110
  C 3.167078 -0.649735 -1.328302
  C 4.350991 -0.350230 -2.052611
  C 5.069741 -1.153472 -2.866260
  C 6.491310 -0.960069 -2.804845
  C 7.502522 -1.838572 -2.898184
  C 8.713540 -1.560927 -2.060863
  H 1.620568 0.509461 1.424881
  H 1.733423 -1.195967 0.998638
  H 0.703436 -0.117823 0.050387
  H 3.425017 0.947236 -0.012809
  H 2.531370 -1.487637 -1.600976
  H 4.834760 0.564622 -1.730914
  H 4.671206 -2.086638 -3.249213
  H 6.766011 -0.009802 -2.351587
  H 7.404386 -2.807017 -3.357422
  H 8.341385 -0.931475 -1.264533
  H 9.512412 -1.078570 -2.610638
  H 9.098661 -2.486126 -1.624041
 20
 25.478527
  C 1.868252 -0.246386 0.635960
  C 2.975393 0.100262 -0.281714
  C 3.282010 -0.611203 -1.372559
  C 4.367714 -0.284056 -2.206004
  C 5.026400 -1.156215 -2.993421
  C 6.446030 -0.944342 -2.974906
  C 7.376792 -1.884688 -2.763424
  C 8.481007 -1.492963 -1.831605
  H 1.853252 0.421505 1.490242
  H 1.959244 -1.267729 0.999685
  H 0.916020 -0.169903 0.119142
  H 3.617341 0.911765 0.026778
  H 2.641875 -1.441479 -1.649954
  H 4.857027 0.659243 -1.981595
  H 4.615136 -2.123372 -3.251862
  H 6.716439 0.060192 -2.674142
  H 7.276375 -2.907060 -3.086889
  H 7.980712 -0.841107 -1.130186
  H 9.312008 -0.976285 -2.305168
  H 8.852102 -2.365458 -1.306737
 20
 28.513644
  C 1.886544 -0.208018 0.669676
  C 3.023850 0.119608 -0.251222
  C 3.320947 -0.590712 -1.344968
  C 4.434127 -0.283745 -2.187666
  C 5.053667 -1.174201 -2.974687
  C 6.466858 -0.983041 -3.154864
  C 7.315862 -1.900416 -2.662814
  C 8.402156 -1.476465 -1.726025
  H 1.851216 0.481939 1.508435
  H 1.975945 -1.224126 1.052950
  H 0.935173 -0.145171 0.137844
  H 3.652483 0.950028 0.030511
  H 2.702217 -1.446431 -1.582987
  H 4.931362 0.653735 -1.966614
  H 4.613094 -2.135833 -3.202783
  H 6.781754 0.049719 -3.025039
  H 7.191135 -2.953533 -2.872532
  H 7.877453 -0.809438 -1.027541
  H 9.236637 -0.943292 -2.180579
  H 8.777763 -2.338369 -1.185667
 20
 41.260397
  C 2.039413 -0.247351 0.714205
  C 3.153694 0.068526 -0.231347
  C 3.380653 -0.616677 -1.359373
  C 4.435097 -0.270233 -2.254484
  C 5.061232 -1.116802 -3.105832
  C 6.493927 -0.862825 -3.179701
  C 7.293486 -1.856605 -2.708360
  C 8.158719 -1.491970 -1.531969
  H 2.074055 0.393368 1.590867
  H 2.075658 -1.293499 1.033330
  H 1.084899 -0.093485 0.226624
  H 3.855916 0.830248 0.082810
  H 2.683816 -1.412544 -1.614918
  H 4.921379 0.663256 -2.008981
  H 4.661481 -2.072471 -3.374585
  H 6.768204 0.128815 -2.838369
  H 7.286419 -2.863933 -3.086008
  H 7.444992 -0.907014 -0.934372
  H 9.049236 -0.904370 -1.747242
  H 8.432786 -2.387865 -0.967587
