 26
 0.000000
  H 1.383975 0.137746 0.394054
  C 2.453972 0.138831 0.396445
  C 3.235887 0.609601 1.567949
  C 2.454651 1.098519 2.785050
  H 3.117958 1.411577 3.564099
  C 3.074760 -0.323868 -0.755623
  C 4.452396 -0.411652 -0.974602
  C 5.123831 -0.863395 -2.100714
  C 4.621920 -1.386396 -3.404454
  C 3.129954 -1.502980 -3.695876
  C 2.901042 -2.064737 -5.096300
  O 6.448567 -0.861790 -2.097024
  H 3.892013 1.422462 1.236076
  H 3.892206 -0.206765 1.890660
  H 1.816409 0.300727 3.170305
  H 1.816264 1.941012 2.511316
  H 2.419633 -0.642347 -1.548686
  H 5.073532 -0.080521 -0.149771
  H 5.075895 -2.376004 -3.531813
  H 5.076265 -0.759449 -4.180462
  H 2.655656 -0.522022 -3.641480
  H 2.655252 -2.174151 -2.978669
  H 3.338077 -1.417822 -5.854009
  H 1.834884 -2.144599 -5.296051
  H 3.337677 -3.056130 -5.196764
  H 6.820588 -0.526463 -1.260938
 26
 0.000000
  H 1.435349 0.129256 0.372919
  C 2.505297 0.133285 0.382629
  C 3.277882 0.606190 1.559451
  C 2.486996 1.092940 2.771177
  H 3.144095 1.407813 3.554744
  C 3.135223 -0.327689 -0.765163
  C 4.451503 -0.426423 -1.011463
  C 5.065047 -0.852409 -2.073372
  C 4.595524 -1.379571 -3.387465
  C 3.111156 -1.508891 -3.710603
  C 2.916952 -2.072462 -5.115538
  O 6.291523 -0.823857 -2.002510
  H 3.934024 1.420858 1.232070
  H 3.934223 -0.208371 1.886649
  H 1.848332 0.293390 3.152062
  H 1.848181 1.933677 2.493078
  H 2.486415 -0.647962 -1.562687
  H 5.091395 -0.100276 -0.199075
  H 5.060562 -2.365247 -3.505031
  H 5.060922 -0.748690 -4.153675
  H 2.627429 -0.532032 -3.666417
  H 2.627038 -2.184163 -3.003611
  H 3.364483 -1.421764 -5.863823
  H 1.856012 -2.161426 -5.337955
  H 3.364096 -3.060074 -5.206583
  H 6.583607 -0.456716 -1.087090
 26
 0.000000
  H 1.484913 0.120708 0.351626
  C 2.554739 0.128037 0.369545
  C 3.316810 0.603302 1.552258
  C 2.515152 1.087591 2.757877
  H 3.165246 1.404475 3.546461
  C 3.194871 -0.330974 -0.773377
  C 4.457957 -0.440526 -1.046651
  C 5.015546 -0.843023 -2.050011
  C 4.573933 -1.373523 -3.372413
  C 3.096687 -1.513689 -3.722553
  C 2.932264 -2.078577 -5.130759
  O 6.142271 -0.793366 -1.926541
  H 3.972929 1.419994 1.229915
  H 3.973129 -0.209237 1.884488
  H 1.876052 0.286069 3.133856
  H 1.875900 1.926359 2.474879
  H 2.553192 -0.653234 -1.575852
  H 5.117853 -0.119949 -0.248165
  H 5.048244 -2.355760 -3.481413
  H 5.048591 -0.739201 -4.130053
  H 2.605094 -0.540402 -3.687259
  H 2.604717 -2.192535 -3.024459
  H 3.388588 -1.424570 -5.870805
  H 1.876234 -2.175294 -5.372477
  H 3.388215 -3.062882 -5.213570
  H 6.341161 -0.393720 -0.930068
 26
 0.000000
  H 1.532138 0.112140 0.330269
  C 2.601735 0.123212 0.357510
  C 3.351804 0.601116 1.546814
  C 2.537982 1.082571 2.745398
  H 3.180067 1.401711 3.539614
  C 3.253404 -0.333531 -0.779788
  C 4.473392 -0.453601 -1.079279
  C 4.977704 -0.835524 -2.031351
  C 4.558091 -1.368500 -3.359909
  C 3.086829 -1.517132 -3.731123
  C 2.945796 -2.082900 -5.141512
  O 6.003788 -0.770757 -1.870208
  H 4.007845 1.420106 1.230193
  H 4.008043 -0.209129 1.884757
  H 1.898439 0.278809 3.115801
  H 1.898288 1.919102 2.456833
  H 2.619872 -0.658021 -1.587820
  H 5.154089 -0.139109 -0.295975
  H 5.039543 -2.347993 -3.462077
  H 5.039881 -0.731434 -4.110715
  H 2.589200 -0.546685 -3.702901
  H 2.588835 -2.198818 -3.040102
  H 3.408889 -1.426255 -5.874989
  H 1.893901 -2.185669 -5.398297
  H 3.408530 -3.064568 -5.217756
  H 6.094568 -0.338974 -0.793598
 26
 0.000000
  H 1.576263 0.103771 0.309398
  C 2.645489 0.119068 0.347166
  C 3.381920 0.599900 1.543791
  C 2.554442 1.078104 2.734300
  H 3.187412 1.399758 3.534795
  C 3.310122 -0.335066 -0.783657
  C 4.498977 -0.465076 -1.107921
  C 4.953870 -0.830313 -2.018391
  C 4.548967 -1.364870 -3.350873
  C 3.081885 -1.519124 -3.736076
  C 2.956454 -2.085405 -5.147733
  O 5.878722 -0.756479 -1.834634
  H 4.037805 1.421485 1.233633
  H 4.037998 -0.207753 1.888187
  H 1.914465 0.271812 3.098400
  H 1.914319 1.912109 2.439442
  H 2.685862 -0.662038 -1.597881
  H 5.200548 -0.157008 -0.340642
  H 5.035115 -2.342512 -3.448432
  H 5.035444 -0.725953 -4.097071
  H 2.580301 -0.550587 -3.712613
  H 2.579946 -2.202721 -3.049814
  H 3.423994 -1.426982 -5.876781
  H 1.907452 -2.192194 -5.414519
  H 3.423644 -3.065295 -5.219547
  H 5.845984 -0.294110 -0.681749
 26
 0.000000
  H 1.616349 0.095987 0.289975
  C 2.685021 0.115970 0.339423
  C 3.406220 0.599988 1.544016
  C 2.563695 1.074523 2.725406
  H 3.186465 1.398923 3.532764
  C 3.363955 -0.335212 -0.784063
  C 4.535022 -0.473973 -1.130134
  C 4.946137 -0.827948 -2.012522
  C 4.547420 -1.363155 -3.346608
  C 3.082138 -1.519766 -3.737667
  C 2.963256 -2.086249 -5.149810
  O 5.769382 -0.751015 -1.821017
  H 4.061847 1.424450 1.241029
  H 4.062030 -0.204793 1.895574
  H 1.923317 0.265421 3.082504
  H 1.923181 1.905723 2.423558
  H 2.750068 -0.664894 -1.605054
  H 5.256427 -0.172322 -0.378859
  H 5.035523 -2.340016 -3.442218
  H 5.035846 -0.723459 -4.090861
  H 2.578909 -0.552037 -3.716215
  H 2.578560 -2.204169 -3.053411
  H 3.432646 -1.427076 -5.876989
  H 1.915501 -2.194723 -5.420784
  H 3.432303 -3.065386 -5.219751
  H 5.598874 -0.260664 -0.598358
 26
 0.000000
  H 1.649619 0.089677 0.274223
  C 2.717572 0.114450 0.335616
  C 3.423080 0.601659 1.548188
  C 2.565280 1.072375 2.720077
  H 3.177525 1.399538 3.534341
  C 3.411040 -0.333647 -0.780202
  C 4.578096 -0.478467 -1.141363
  C 4.955446 -0.829193 -2.015645
  C 4.553671 -1.364089 -3.348938
  C 3.087496 -1.519543 -3.737101
  C 2.965377 -2.085935 -5.149004
  O 5.682935 -0.754578 -1.829891
  H 4.078352 1.429062 1.252536
  H 4.078521 -0.200185 1.907071
  H 1.924584 0.260399 3.070008
  H 1.924461 1.900705 2.411071
  H 2.807855 -0.666055 -1.607998
  H 5.315830 -0.182343 -0.403871
  H 5.040812 -2.341335 -3.445507
  H 5.041132 -0.724780 -4.094157
  H 2.585075 -0.551415 -3.714659
  H 2.584730 -2.203545 -3.051849
  H 3.433851 -1.427135 -5.877112
  H 1.917003 -2.193581 -5.417907
  H 3.433511 -3.065443 -5.219867
  H 5.371818 -0.240399 -0.547817
 26
 0.000000
  H 1.673461 0.085707 0.264302
  C 2.740639 0.114759 0.336372
  C 3.432028 0.604763 1.555932
  C 2.560671 1.072008 2.719177
  H 3.163425 1.401603 3.539518
  C 3.447022 -0.330528 -0.772449
  C 4.619768 -0.477360 -1.138619
  C 4.977246 -0.834040 -2.027736
  C 4.565282 -1.367864 -3.358347
  C 3.096175 -1.519440 -3.736839
  C 2.963259 -2.085499 -5.147901
  O 5.626366 -0.764943 -1.855712
  H 4.086901 1.434793 1.266834
  H 4.087056 -0.194456 1.921364
  H 1.919767 0.257462 3.062696
  H 1.919658 1.897770 2.403765
  H 2.853482 -0.665332 -1.606231
  H 5.367983 -0.184908 -0.410277
  H 5.049193 -2.346394 -3.458113
  H 5.049510 -0.729842 -4.106769
  H 2.596474 -0.549989 -3.711098
  H 2.596130 -2.202115 -3.048281
  H 3.428665 -1.427935 -5.879087
  H 1.912856 -2.190373 -5.409889
  H 3.428326 -3.066241 -5.221836
  H 5.192321 -0.231470 -0.525536
 26
 0.000000
  H 1.690309 0.083839 0.259625
  C 2.756668 0.116814 0.341483
  C 3.435032 0.609334 1.567330
  C 2.551325 1.073350 2.722525
  H 3.145312 1.405144 3.548359
  C 3.474830 -0.325852 -0.760804
  C 4.657358 -0.470960 -1.122672
  C 5.006679 -0.842259 -2.048224
  C 4.579700 -1.374448 -3.374752
  C 3.106395 -1.520279 -3.738923
  C 2.957540 -2.085790 -5.148615
  O 5.594142 -0.779901 -1.892975
  H 4.089475 1.441772 1.284242
  H 4.089615 -0.187478 1.938769
  H 1.910295 0.256446 3.060161
  H 1.910200 1.896755 2.401233
  H 2.890200 -0.662822 -1.599992
  H 5.411130 -0.180495 -0.399280
  H 5.058791 -2.354858 -3.479205
  H 5.059108 -0.738308 -4.127867
  H 2.610757 -0.548883 -3.708338
  H 2.610413 -2.201007 -3.045515
  H 3.418371 -1.430036 -5.884311
  H 1.904232 -2.186557 -5.400364
  H 3.418032 -3.068340 -5.227054
  H 5.054400 -0.227909 -0.516633
 26
 0.000000
  H 1.701681 0.084344 0.260861
  C 2.767120 0.121223 0.352466
  C 3.432438 0.616204 1.584459
  C 2.536510 1.076960 2.731519
  H 3.121702 1.410914 3.562745
  C 3.496948 -0.318790 -0.743202
  C 4.691255 -0.458984 -1.092813
  C 5.043194 -0.854963 -2.079884
  C 4.596259 -1.384878 -3.400742
  C 3.117606 -1.523019 -3.745749
  C 2.947515 -2.087702 -5.153373
  O 5.585293 -0.799732 -1.942383
  H 4.086389 1.451038 1.307353
  H 4.086512 -0.178211 1.961880
  H 1.895415 0.257707 3.063292
  H 1.895337 1.898017 2.404363
  H 2.921254 -0.657886 -1.587697
  H 5.446749 -0.169142 -0.370967
  H 5.068841 -2.367768 -3.511374
  H 5.069157 -0.751220 -4.160041
  H 2.627473 -0.549055 -3.708764
  H 2.627128 -2.201177 -3.045935
  H 3.402167 -1.434334 -5.895014
  H 1.890515 -2.182972 -5.391422
  H 3.401826 -3.072635 -5.237752
  H 4.951742 -0.224831 -0.508936
 26
 0.000000
  H 1.706741 0.088676 0.271634
  C 2.771073 0.129756 0.373728
  C 3.422267 0.627335 1.612204
  C 2.513273 1.084532 2.750375
  H 3.088927 1.420776 3.587319
  C 3.513388 -0.307355 -0.714690
  C 4.722484 -0.440290 -1.046198
  C 5.089577 -0.875124 -2.130123
  C 4.615560 -1.401766 -3.442826
  C 3.130081 -1.529372 -3.761579
  C 2.931074 -2.092744 -5.165936
  O 5.607546 -0.827120 -2.010626
  H 4.075618 1.464747 1.341536
  H 4.075720 -0.164501 1.996066
  H 1.872178 0.262750 3.075834
  H 1.872120 1.903059 2.416904
  H 2.947381 -0.648703 -1.564808
  H 5.476715 -0.149996 -0.323215
  H 5.079110 -2.387984 -3.561749
  H 5.079428 -0.771439 -4.210422
  H 2.647616 -0.551950 -3.715979
  H 2.647267 -2.204070 -3.053144
  H 3.377152 -1.442579 -5.915556
  H 1.869371 -2.180483 -5.385219
  H 3.376807 -3.080877 -5.258287
  H 4.888645 -0.216992 -0.489362
 26
 0.000000
  H 1.703313 0.097674 0.294031
  C 2.766438 0.142883 0.406438
  C 3.403658 0.642964 1.651160
  C 2.481904 1.096610 2.780456
  H 3.048108 1.435072 3.622935
  C 3.520962 -0.291325 -0.674723
  C 4.746831 -0.417260 -0.988766
  C 5.140357 -0.901879 -2.196789
  C 4.634764 -1.424433 -3.499308
  C 3.141962 -1.539608 -3.787091
  C 2.909099 -2.101180 -5.186960
  O 5.663321 -0.860361 -2.093453
  H 4.056347 1.482911 1.386822
  H 4.056428 -0.146336 2.041356
  H 1.840878 0.272341 3.099701
  H 1.840842 1.912649 2.440768
  H 2.964553 -0.634853 -1.530281
  H 5.498339 -0.125992 -0.263344
  H 5.087494 -2.414476 -3.627761
  H 5.087816 -0.797934 -4.276440
  H 2.668723 -0.558198 -3.731553
  H 2.668368 -2.210314 -3.068710
  H 3.344903 -1.454695 -5.945752
  H 1.842367 -2.180035 -5.384111
  H 3.344552 -3.092991 -5.288475
  H 4.877122 -0.200685 -0.448678
 26
 0.000000
  H 1.695845 0.108248 0.320362
  C 2.757682 0.157478 0.442811
  C 3.381213 0.659949 1.693490
  C 2.447117 1.110086 2.814015
  H 3.004049 1.450675 3.661801
  C 3.524029 -0.273854 -0.631163
  C 4.763215 -0.393488 -0.929479
  C 5.185196 -0.928537 -2.263208
  C 4.649510 -1.446916 -3.555328
  C 3.150378 -1.550094 -3.813224
  C 2.885101 -2.109669 -5.208121
  O 5.726956 -0.892868 -2.174453
  H 4.033189 1.502364 1.435315
  H 4.033249 -0.126882 2.089853
  H 1.806226 0.283392 3.127204
  H 1.806210 1.923698 2.468267
  H 2.977034 -0.619472 -1.491935
  H 5.511773 -0.101172 -0.201433
  H 5.091631 -2.440547 -3.692721
  H 5.091957 -0.824007 -4.341406
  H 2.686226 -0.564924 -3.748321
  H 2.685865 -2.217038 -3.085472
  H 3.310832 -1.466639 -5.975519
  H 1.814043 -2.179951 -5.383917
  H 3.310474 -3.104931 -5.318236
  H 4.883326 -0.180483 -0.398291
 26
 0.000000
  H 1.686135 0.119410 0.348152
  C 2.746501 0.172856 0.481130
  C 3.355591 0.677777 1.737924
  C 2.408642 1.124180 2.849116
  H 2.955777 1.466964 3.702379
  C 3.525174 -0.255409 -0.585178
  C 4.774204 -0.368499 -0.867161
  C 5.223827 -0.953650 -2.325780
  C 4.659395 -1.467782 -3.607320
  C 3.154825 -1.559361 -3.836323
  C 2.858449 -2.116768 -5.225819
  O 5.788850 -0.923889 -2.251749
  H 4.006744 1.522781 1.486212
  H 4.006783 -0.106463 2.140754
  H 1.767964 0.294941 3.155949
  H 1.767969 1.935245 2.497009
  H 2.988124 -0.603183 -1.451329
  H 5.519540 -0.075047 -0.136271
  H 5.091106 -2.464788 -3.753120
  H 5.091436 -0.848250 -4.401811
  H 2.699628 -0.570641 -3.762575
  H 2.699260 -2.222753 -3.099719
  H 3.274293 -1.476987 -6.001313
  H 1.783696 -2.178765 -5.380974
  H 3.273928 -3.115278 -5.344024
  H 4.885667 -0.158711 -0.343991
