19
 0
 C 1.09177405 -2.23718141 0.13588040
 C -0.34958396 -2.73029691 0.09865429
 C -0.65785416 -3.54698418 1.35250393
 C -1.42234508 -1.65422021 -0.07757644
 C -1.07023660 -0.18871143 -0.06033081
 O -2.60620950 -1.98313471 -0.21555026
 H 1.78747272 -3.08147254 0.19390974
 H 1.27628460 -1.59597279 1.00464603
 H 1.33840345 -1.67093311 -0.76833568
 H -0.44347011 -3.38566669 -0.77721825
 H -0.61154469 -2.92331464 2.25196640
 H 0.05481184 -4.37049234 1.46844420
 H -1.66230864 -3.98148095 1.30416187
 H 0.00000000 0.00000000 0.00000000
 H -1.54969712 0.28090968 0.80270631
 H -1.43873296 0.26993082 -0.98255526
 O 2.90000000 0.00000000 0.00000000
 H 3.46165789 -0.45890637 -0.64258244
 H 3.51189510 0.25197749 0.70784698
