 19
 0.000000
  C 1.094877 -2.305998 0.157366
  C -0.323255 -2.772277 0.115442
  C -0.760093 -3.525345 1.353952
  C -1.446046 -1.669261 -0.086849
  C -0.976841 -0.263717 -0.029245
  O -2.573420 -2.008843 -0.238615
  H 1.749334 -3.180178 0.183710
  H 1.325572 -1.738504 1.056524
  H 1.370982 -1.737958 -0.726739
  H -0.493171 -3.364742 -0.794930
  H -0.685532 -2.915516 2.254301
  H -0.085940 -4.371008 1.500285
  H -1.782183 -3.886315 1.260097
  H 0.095160 -0.144432 0.061751
  H -1.484468 0.199321 0.820001
  H -1.345936 0.233866 -0.927126
  O 2.931489 0.109843 -0.034799
  H 3.499345 -0.170868 -0.758781
  H 3.500442 0.505983 0.630224
 19
 -0.618138
  C 1.104943 -2.400801 0.142316
  C -0.330750 -2.809288 0.117126
  C -0.792334 -3.524728 1.368090
  C -1.399471 -1.648386 -0.085656
  C -0.857379 -0.270209 -0.037024
  O -2.543109 -1.933949 -0.228815
  H 1.726517 -3.295683 0.152386
  H 1.366482 -1.847116 1.038536
  H 1.385201 -1.837895 -0.739930
  H -0.540061 -3.399987 -0.786761
  H -0.674316 -2.911504 2.260151
  H -0.160094 -4.401840 1.515419
  H -1.828591 -3.836556 1.290578
  H 0.219824 -0.203595 0.026302
  H -1.316449 0.212346 0.824142
  H -1.223370 0.247689 -0.921216
  O 2.789233 0.173917 -0.022020
  H 3.391197 0.026366 -0.757421
  H 3.280732 0.664527 0.642849
 19
 -1.036404
  C 1.123685 -2.459953 0.119599
  C -0.325119 -2.823187 0.113495
  C -0.795522 -3.506364 1.378189
  C -1.362726 -1.635645 -0.093573
  C -0.789154 -0.272141 -0.034390
  O -2.512084 -1.893265 -0.244909
  H 1.713965 -3.379181 0.114846
  H 1.418094 -1.918469 1.015945
  H 1.413001 -1.903059 -0.766960
  H -0.560195 -3.419628 -0.779359
  H -0.646755 -2.885212 2.260453
  H -0.190329 -4.401435 1.529617
  H -1.843529 -3.786889 1.316415
  H 0.289092 -0.223107 0.036640
  H -1.244499 0.216233 0.829771
  H -1.140243 0.260116 -0.919689
  O 2.659910 0.200869 -0.006133
  H 3.266639 0.114663 -0.747302
  H 3.118621 0.710425 0.668438
 19
 -1.411348
  C 1.136721 -2.516094 0.089441
  C -0.321248 -2.839646 0.106596
  C -0.794970 -3.484058 1.390368
  C -1.329000 -1.627263 -0.106368
  C -0.723190 -0.278692 -0.033878
  O -2.482384 -1.858520 -0.268498
  H 1.699052 -3.453194 0.078405
  H 1.460219 -1.979463 0.978532
  H 1.429089 -1.972459 -0.804120
  H -0.583470 -3.446566 -0.771610
  H -0.614561 -2.851430 2.257872
  H -0.215086 -4.393778 1.549921
  H -1.851082 -3.735897 1.348319
  H 0.357205 -0.253821 0.033937
  H -1.164363 0.209870 0.837241
  H -1.064878 0.271026 -0.911704
  O 2.542821 0.219834 0.019509
  H 3.154262 0.208338 -0.722394
  H 2.951982 0.753792 0.706850
 19
 -1.634851
  C 1.143282 -2.558699 0.052854
  C -0.319867 -2.855465 0.096989
  C -0.788180 -3.455787 1.403942
  C -1.310021 -1.629959 -0.128458
  C -0.687726 -0.290861 -0.038820
  O -2.463720 -1.846520 -0.307161
  H 1.684673 -3.508247 0.051761
  H 1.492059 -2.011154 0.925138
  H 1.435235 -2.039662 -0.855694
  H -0.604130 -3.480507 -0.761163
  H -0.578416 -2.805708 2.251738
  H -0.226133 -4.375228 1.576757
  H -1.850007 -3.686994 1.385289
  H 0.394273 -0.281750 0.015824
  H -1.110753 0.184697 0.848486
  H -1.035691 0.280731 -0.901341
  O 2.484727 0.221650 0.071738
  H 3.070494 0.303211 -0.686208
  H 2.852550 0.773883 0.767925
 19
 -1.732333
  C 1.151304 -2.596452 0.026128
  C -0.316023 -2.868363 0.088115
  C -0.780878 -3.425225 1.413096
  C -1.290938 -1.633272 -0.153872
  C -0.661542 -0.301340 -0.034775
  O -2.441291 -1.838291 -0.361786
  H 1.673837 -3.557896 0.045064
  H 1.518444 -2.034437 0.879579
  H 1.449175 -2.106532 -0.898516
  H -0.616270 -3.514420 -0.749588
  H -0.545318 -2.759388 2.242131
  H -0.238608 -4.351789 1.599854
  H -1.848790 -3.635580 1.412733
  H 0.421544 -0.297646 -0.010266
  H -1.054937 0.140265 0.885251
  H -1.033387 0.303219 -0.862921
  O 2.446294 0.204170 0.110614
  H 2.971829 0.387760 -0.673340
  H 2.770386 0.783342 0.805639
 19
 -1.045904
  C 1.177942 -2.655977 0.020930
  C -0.301851 -2.873604 0.068876
  C -0.790381 -3.393910 1.407185
  C -1.223153 -1.630478 -0.194776
  C -0.602795 -0.300556 0.020439
  O -2.365633 -1.782406 -0.489334
  H 1.660014 -3.630505 0.103763
  H 1.552502 -2.059322 0.850991
  H 1.515020 -2.231105 -0.923651
  H -0.602637 -3.552336 -0.739727
  H -0.551453 -2.711985 2.222310
  H -0.277278 -4.331105 1.616062
  H -1.863502 -3.575824 1.400828
  H 0.482467 -0.295630 0.022858
  H -0.973979 0.051457 0.988636
  H -1.003213 0.372052 -0.740641
  O 2.368961 0.168817 0.098300
  H 2.732691 0.470014 -0.739615
  H 2.619995 0.813920 0.765289
 19
 2.017783
  C 1.188415 -2.688303 0.041274
  C -0.302000 -2.881160 0.058593
  C -0.790750 -3.436352 1.396961
  C -1.154581 -1.625528 -0.156622
  C -0.542497 -0.275732 0.001139
  O -2.326126 -1.684354 -0.390857
  H 1.658435 -3.670643 0.111666
  H 1.545624 -2.111058 0.888784
  H 1.536272 -2.251099 -0.891056
  H -0.600207 -3.564040 -0.746890
  H -0.538832 -2.772068 2.220556
  H -0.302673 -4.391746 1.579143
  H -1.865364 -3.588475 1.389594
  H 0.557476 -0.251290 0.005738
  H -0.884222 0.117742 0.963835
  H -0.927438 0.379677 -0.781741
  O 2.244654 0.171168 0.090897
  H 2.591659 0.454657 -0.762849
  H 2.431811 0.858441 0.734310
 19
 7.386365
  C 1.200439 -2.729081 0.054180
  C -0.302681 -2.891792 0.072373
  C -0.797259 -3.477882 1.403723
  C -1.080482 -1.625389 -0.150891
  C -0.492722 -0.254545 0.004311
  O -2.260478 -1.587300 -0.410684
  H 1.656941 -3.714839 0.142765
  H 1.552044 -2.135990 0.893408
  H 1.537877 -2.306105 -0.885902
  H -0.608577 -3.576677 -0.728361
  H -0.537693 -2.827612 2.233656
  H -0.329008 -4.442808 1.565949
  H -1.875761 -3.612669 1.391172
  H 0.686497 -0.176000 0.000945
  H -0.774466 0.142921 0.980027
  H -0.856939 0.407796 -0.777261
  O 2.102428 0.183040 0.059317
  H 2.417161 0.473870 -0.808219
  H 2.251507 0.890757 0.707350
 19
 11.661303
  C 1.196281 -2.739309 0.050908
  C -0.312231 -2.903568 0.077074
  C -0.792963 -3.486950 1.417635
  C -1.069756 -1.631988 -0.146416
  C -0.486789 -0.266759 -0.010799
  O -2.258307 -1.577075 -0.400852
  H 1.660663 -3.718249 0.132213
  H 1.540378 -2.144180 0.892120
  H 1.517430 -2.304035 -0.887627
  H -0.628563 -3.593051 -0.713182
  H -0.529418 -2.828534 2.241126
  H -0.320246 -4.451312 1.581943
  H -1.870959 -3.625433 1.415168
  H 0.821571 -0.130330 0.003639
  H -0.745554 0.156708 0.958046
  H -0.816703 0.385147 -0.814095
  O 2.035766 0.184479 0.059099
  H 2.356026 0.476891 -0.812242
  H 2.169556 0.897838 0.712304
 19
 11.798054
  C 1.199373 -2.740352 0.075985
  C -0.309692 -2.909737 0.069302
  C -0.816755 -3.479052 1.404340
  C -1.057111 -1.637742 -0.186379
  C -0.490455 -0.289680 0.051032
  O -2.225455 -1.586481 -0.532445
  H 1.664507 -3.717211 0.181828
  H 1.523729 -2.133327 0.914000
  H 1.534233 -2.318143 -0.863000
  H -0.605996 -3.607709 -0.721163
  H -0.557928 -2.817657 2.226893
  H -0.359022 -4.447383 1.583306
  H -1.897027 -3.606844 1.384352
  H 0.894407 -0.113286 -0.010843
  H -0.663888 0.020032 1.079069
  H -0.873343 0.441850 -0.654173
  O 2.026149 0.201288 0.002263
  H 2.315176 0.492531 -0.878435
  H 2.158697 0.922725 0.646857
 19
 11.327768
  C 1.196972 -2.737192 0.093610
  C -0.314397 -2.914459 0.069435
  C -0.835958 -3.475689 1.402204
  C -1.053034 -1.640574 -0.211062
  C -0.497989 -0.312484 0.090089
  O -2.199297 -1.593337 -0.634853
  H 1.667092 -3.710925 0.209387
  H 1.506643 -2.124514 0.932366
  H 1.536073 -2.315589 -0.845997
  H -0.597651 -3.618388 -0.720700
  H -0.585250 -2.810328 2.223926
  H -0.382854 -4.444774 1.592215
  H -1.916509 -3.601226 1.371114
  H 0.959183 -0.102123 -0.036908
  H -0.575124 -0.074900 1.147781
  H -0.905125 0.466605 -0.545434
  O 2.017610 0.223295 -0.033065
  H 2.299954 0.498028 -0.926243
  H 2.139261 0.962399 0.594922
