 23
 0.000000
  H 1.442444 0.162296 0.457832
  C 2.521459 0.147349 0.419301
  C 3.270624 0.619568 1.592027
  C 2.401850 1.085873 2.752652
  H 3.019368 1.418791 3.579383
  C 3.089874 -0.322561 -0.750074
  C 4.467171 -0.415119 -0.981320
  C 5.132300 -0.871470 -2.119978
  C 4.609338 -1.388985 -3.411490
  C 3.115831 -1.494882 -3.677010
  H 2.961965 -1.894210 -4.673541
  O 6.448432 -0.873422 -2.125117
  H 3.930682 1.440455 1.287486
  H 3.931737 -0.182733 1.940473
  H 1.762897 0.278601 3.104446
  H 1.761909 1.911226 2.447763
  H 2.410425 -0.633755 -1.524285
  H 5.100648 -0.087094 -0.163591
  H 5.063523 -2.377745 -3.544244
  H 5.064162 -0.766027 -4.190378
  H 2.638402 -0.519245 -3.631319
  H 2.637793 -2.168636 -2.970308
  H 6.842258 -0.541360 -1.295277
 23
 1.202434
  H 1.469889 0.372704 0.413850
  C 2.544932 0.262361 0.380072
  C 3.276364 0.579266 1.613249
  C 2.378162 1.016699 2.761595
  H 2.971138 1.244398 3.642471
  C 3.095059 -0.164666 -0.809568
  C 4.466079 -0.350533 -1.006733
  C 5.134145 -0.839013 -2.128446
  C 4.604802 -1.432286 -3.381911
  C 3.110371 -1.566701 -3.618932
  H 2.957334 -2.048065 -4.581158
  O 6.449941 -0.895347 -2.103918
  H 4.013739 1.364552 1.408117
  H 3.864036 -0.293429 1.922573
  H 1.671909 0.231924 3.022131
  H 1.812334 1.906086 2.494466
  H 2.414909 -0.351680 -1.622558
  H 5.107584 -0.124169 -0.161937
  H 5.075089 -2.419539 -3.464319
  H 5.049516 -0.852695 -4.199403
  H 2.623326 -0.596639 -3.659823
  H 2.639817 -2.187108 -2.861064
  H 6.893017 -0.273364 -1.496882
 23
 5.907592
  H 1.467634 0.450090 0.404883
  C 2.538818 0.301341 0.381216
  C 3.259756 0.551833 1.634405
  C 2.359678 0.980951 2.783986
  H 2.947520 1.163163 3.679242
  C 3.091629 -0.106719 -0.812968
  C 4.459726 -0.336774 -0.991348
  C 5.131493 -0.842283 -2.100252
  C 4.608251 -1.463018 -3.338718
  C 3.115382 -1.591748 -3.584348
  H 2.964785 -2.100149 -4.533508
  O 6.457359 -0.951241 -2.020682
  H 4.028363 1.316146 1.466809
  H 3.815603 -0.349298 1.921431
  H 1.626901 0.210484 3.011640
  H 1.824815 1.895217 2.538166
  H 2.420512 -0.241634 -1.642967
  H 5.097675 -0.161533 -0.134062
  H 5.075618 -2.454921 -3.392254
  H 5.067163 -0.912081 -4.169073
  H 2.637370 -0.619414 -3.657570
  H 2.633061 -2.185429 -2.812647
  H 6.939835 -0.136840 -1.797041
 23
 10.218015
  H 1.439773 0.315242 0.460057
  C 2.516727 0.217608 0.421367
  C 3.246668 0.580370 1.638982
  C 2.350707 1.042360 2.778305
  H 2.946986 1.311360 3.645674
  C 3.065827 -0.237262 -0.758332
  C 4.441738 -0.411762 -0.952101
  C 5.124444 -0.897079 -2.060244
  C 4.625076 -1.439075 -3.341238
  C 3.138089 -1.507807 -3.640986
  H 3.004232 -1.938519 -4.630421
  O 6.457478 -1.009628 -1.923687
  H 3.978555 1.363827 1.406229
  H 3.850835 -0.273987 1.969209
  H 1.660828 0.255306 3.073378
  H 1.766935 1.911828 2.485694
  H 2.385435 -0.462691 -1.560718
  H 5.091450 -0.162330 -0.122118
  H 5.061210 -2.443947 -3.425229
  H 5.124858 -0.870282 -4.135380
  H 2.687849 -0.519200 -3.651222
  H 2.616801 -2.145994 -2.932868
  H 7.000623 -0.228401 -2.103845
 23
 8.529080
  H 1.418980 0.175238 0.526050
  C 2.498779 0.132031 0.471147
  C 3.229678 0.605440 1.649476
  C 2.330671 1.092714 2.775871
  H 2.927048 1.444280 3.613097
  C 3.051286 -0.364825 -0.689966
  C 4.430107 -0.480407 -0.899207
  C 5.124655 -0.941148 -2.013011
  C 4.642069 -1.407068 -3.333312
  C 3.157625 -1.427965 -3.657177
  H 3.030498 -1.787214 -4.675653
  O 6.447857 -1.022729 -1.836509
  H 3.917707 1.407381 1.353961
  H 3.881948 -0.195594 2.019096
  H 1.686572 0.292381 3.132356
  H 1.698886 1.912318 2.442091
  H 2.370100 -0.676145 -1.462571
  H 5.085941 -0.152367 -0.100662
  H 5.052345 -2.418436 -3.455449
  H 5.159087 -0.811587 -4.096068
  H 2.724680 -0.432862 -3.604042
  H 2.615694 -2.104258 -3.002505
  H 7.025213 -0.445493 -2.359809
 23
 2.450808
  H 1.415894 0.095902 0.553992
  C 2.495493 0.095884 0.485714
  C 3.221294 0.637194 1.639664
  C 2.313980 1.118096 2.762815
  H 2.903916 1.516769 3.583418
  C 3.054663 -0.412692 -0.665615
  C 4.431379 -0.476262 -0.887728
  C 5.140867 -0.920892 -2.006138
  C 4.672552 -1.363746 -3.343853
  C 3.187157 -1.376676 -3.671729
  H 3.063580 -1.702365 -4.701955
  O 6.445085 -0.950312 -1.803493
  H 3.867611 1.459913 1.310367
  H 3.912045 -0.122852 2.024407
  H 1.707500 0.301894 3.147939
  H 1.645873 1.901845 2.414032
  H 2.378461 -0.778826 -1.417350
  H 5.087074 -0.100732 -0.110393
  H 5.073459 -2.376189 -3.483648
  H 5.184117 -0.746527 -4.092432
  H 2.752345 -0.384899 -3.585876
  H 2.645116 -2.076209 -3.042705
  H 7.014038 -0.809256 -2.581022
 23
 2.936242
  H 1.421961 0.522791 0.391574
  C 2.493832 0.381443 0.361332
  C 3.214097 0.539483 1.630511
  C 2.310530 0.865201 2.811027
  H 2.896996 0.976643 3.718770
  C 3.057926 0.046427 -0.847363
  C 4.429734 -0.147559 -1.026267
  C 5.140097 -0.735799 -2.073341
  C 4.678000 -1.508748 -3.249841
  C 3.185784 -1.581472 -3.539520
  H 3.027380 -2.209363 -4.412661
  O 6.440707 -0.670726 -1.862580
  H 3.967268 1.328654 1.512041
  H 3.790196 -0.367335 1.846091
  H 1.584070 0.072615 2.973545
  H 1.768798 1.792821 2.641716
  H 2.399915 -0.044582 -1.695738
  H 5.131088 0.260114 -0.304924
  H 5.064341 -2.526547 -3.111821
  H 5.186869 -1.115411 -4.137391
  H 2.779578 -0.599358 -3.763261
  H 2.641689 -2.021959 -2.709151
  H 7.030467 -0.732573 -2.635106
 23
 8.584620
  H 1.502673 0.878356 0.230634
  C 2.557971 0.641290 0.222629
  C 3.207713 0.466461 1.529958
  C 2.257898 0.596470 2.712829
  H 2.791067 0.444307 3.647839
  C 3.153398 0.406310 -0.990140
  C 4.511584 0.085253 -1.137176
  C 5.176977 -0.628521 -2.124555
  C 4.646180 -1.592382 -3.113992
  C 3.133681 -1.719487 -3.230802
  H 2.895301 -2.495725 -3.954033
  O 6.496159 -0.554842 -1.973402
  H 4.015023 1.205794 1.615421
  H 3.720864 -0.500935 1.571978
  H 1.461066 -0.141904 2.652740
  H 1.802300 1.584204 2.739291
  H 2.561746 0.553338 -1.881195
  H 5.256749 0.504287 -0.458093
  H 5.072299 -2.565688 -2.834337
  H 5.059945 -1.355383 -4.100587
  H 2.687797 -0.793821 -3.583567
  H 2.685075 -1.990549 -2.278453
  H 7.042930 -0.511883 -2.771305
 23
 19.443502
  H 1.478965 0.908520 0.273697
  C 2.522083 0.626381 0.220684
  C 3.218461 0.381053 1.496286
  C 2.308443 0.542869 2.705687
  H 2.857419 0.351715 3.620644
  C 3.099510 0.517713 -1.012238
  C 4.445645 0.168851 -1.214845
  C 5.134996 -0.616556 -2.122162
  C 4.668056 -1.662224 -3.053190
  C 3.159229 -1.744963 -3.216649
  H 2.906366 -2.552880 -3.897370
  O 6.441302 -0.436570 -1.926390
  H 4.049482 1.085486 1.564572
  H 3.636653 -0.629821 1.488754
  H 1.479743 -0.158177 2.666073
  H 1.904460 1.549346 2.755873
  H 2.511087 0.763998 -1.882142
  H 5.315608 0.598902 -0.702399
  H 5.066522 -2.619617 -2.709887
  H 5.127061 -1.507852 -4.031127
  H 2.762638 -0.821093 -3.619817
  H 2.674977 -1.943093 -2.261739
  H 7.015382 -0.303033 -2.692867
 23
 45.360877
  H 1.480826 1.112686 0.359789
  C 2.495314 0.755423 0.251615
  C 3.213447 0.386511 1.479634
  C 2.361930 0.476540 2.738358
  H 2.943432 0.191325 3.610850
  C 3.012745 0.652267 -1.012978
  C 4.284137 0.162824 -1.296610
  C 5.018914 -0.611608 -2.138621
  C 4.710902 -1.729678 -3.051315
  C 3.209493 -1.872319 -3.282095
  H 3.014003 -2.701331 -3.956032
  O 6.326710 -0.320538 -1.834070
  H 4.091859 1.033133 1.588921
  H 3.615797 -0.626915 1.375858
  H 1.500767 -0.184112 2.674841
  H 2.002891 1.491619 2.891446
  H 2.427730 1.031579 -1.842762
  H 5.424492 0.520858 -0.889903
  H 5.125835 -2.654828 -2.641976
  H 5.203826 -1.528129 -4.007405
  H 2.800883 -0.968557 -3.724565
  H 2.691466 -2.064745 -2.346402
  H 6.938385 -0.074022 -2.554839
 23
 60.337915
  H 1.479041 1.179538 0.416332
  C 2.473884 0.785827 0.269372
  C 3.219771 0.365961 1.473505
  C 2.401658 0.469744 2.754004
  H 2.990282 0.145027 3.608321
  C 2.950395 0.687129 -1.010673
  C 4.175417 0.159087 -1.352368
  C 4.935040 -0.580150 -2.132232
  C 4.716795 -1.724686 -3.047270
  C 3.235788 -1.948044 -3.330538
  H 3.109030 -2.795512 -3.997926
  O 6.284029 -0.228707 -1.773237
  H 4.121622 0.978737 1.573401
  H 3.569120 -0.663211 1.337663
  H 1.512135 -0.153394 2.698910
  H 2.088294 1.496220 2.931281
  H 2.360087 1.118120 -1.812756
  H 5.626861 0.490277 -0.978898
  H 5.156491 -2.626290 -2.610352
  H 5.242593 -1.525360 -3.985232
  H 2.799208 -1.073064 -3.803765
  H 2.692958 -2.151861 -2.411497
  H 6.889445 0.045393 -2.497143
 23
 49.884004
  H 1.496659 1.285077 0.432432
  C 2.467989 0.844449 0.267396
  C 3.199203 0.349554 1.458733
  C 2.379818 0.434004 2.739952
  H 2.953116 0.056421 3.583896
  C 2.936584 0.754654 -1.026331
  C 4.116817 0.188614 -1.400245
  C 4.893393 -0.537474 -2.125498
  C 4.709307 -1.722230 -3.005100
  C 3.235107 -1.982603 -3.293747
  H 3.130122 -2.856289 -3.929457
  O 6.307088 -0.180909 -1.795292
  H 4.119047 0.928990 1.586440
  H 3.513466 -0.685221 1.286659
  H 1.469027 -0.154805 2.657869
  H 2.102159 1.464195 2.954436
  H 2.360045 1.233823 -1.811991
  H 5.938719 0.478583 -1.114135
  H 5.157401 -2.599032 -2.529674
  H 5.239594 -1.547402 -3.944224
  H 2.786899 -1.133595 -3.803372
  H 2.686519 -2.160439 -2.373219
  H 6.868236 0.085391 -2.560399
 23
 39.825781
  H 1.542944 1.437265 0.433498
  C 2.474416 0.930450 0.238840
  C 3.154535 0.274941 1.391006
  C 2.331537 0.349795 2.674444
  H 2.852204 -0.142885 3.493027
  C 2.951506 0.904202 -1.055813
  C 4.080853 0.286361 -1.466671
  C 4.905967 -0.461475 -2.112733
  C 4.707909 -1.722514 -2.895991
  C 3.234442 -2.031948 -3.130106
  H 3.134712 -2.959629 -3.686276
  O 6.353480 -0.170876 -1.923002
  H 4.130840 0.743057 1.559494
  H 3.355979 -0.772599 1.143600
  H 1.368201 -0.138349 2.542882
  H 2.153472 1.384885 2.959994
  H 2.417553 1.472820 -1.809567
  H 6.338218 0.556898 -1.263499
  H 5.174656 -2.548254 -2.354323
  H 5.211928 -1.623354 -3.859472
  H 2.755669 -1.238293 -3.698800
  H 2.708565 -2.140938 -2.185845
  H 6.837861 0.031918 -2.757320
 23
 40.285142
  H 1.440805 1.268478 0.410296
  C 2.414734 0.841490 0.227838
  C 3.150265 0.301427 1.399558
  C 2.346631 0.380751 2.691802
  H 2.920963 -0.019961 3.523540
  C 2.890597 0.812213 -1.059561
  C 4.075484 0.282589 -1.452852
  C 4.925924 -0.429828 -2.109154
  C 4.724736 -1.657558 -2.948177
  C 3.247243 -1.984008 -3.129035
  H 3.135895 -2.878139 -3.736170
  O 6.364239 -0.170313 -1.929370
  H 4.083788 0.857808 1.527214
  H 3.427409 -0.739846 1.204015
  H 1.424945 -0.191342 2.610772
  H 2.089435 1.412231 2.923378
  H 2.299209 1.299827 -1.827712
  H 6.553657 0.502319 -1.240788
  H 5.232112 -2.502443 -2.476904
  H 5.170793 -1.489215 -3.930758
  H 2.729912 -1.166967 -3.624573
  H 2.768344 -2.160228 -2.169595
  H 6.928670 -0.174783 -2.733905
 23
 36.607534
  H 1.693264 1.671407 0.453259
  C 2.543498 1.061318 0.195063
  C 3.091242 0.162762 1.240978
  C 2.234920 0.131025 2.500525
  H 2.670918 -0.533746 3.242107
  C 3.049632 1.139163 -1.085642
  C 4.102962 0.437512 -1.548986
  C 4.942092 -0.350432 -2.121750
  C 4.719919 -1.687731 -2.763451
  C 3.251212 -2.090955 -2.739674
  H 3.125629 -3.065819 -3.202155
  O 6.395080 -0.033688 -2.111444
  H 4.102664 0.486496 1.504586
  H 3.192444 -0.849170 0.836131
  H 1.231340 -0.223652 2.275494
  H 2.155637 1.123559 2.939030
  H 2.591068 1.834484 -1.778442
  H 6.581095 0.807800 -1.634854
  H 5.314105 -2.430716 -2.226371
  H 5.061737 -1.658083 -3.799381
  H 2.644601 -1.371937 -3.283896
  H 2.879643 -2.145281 -1.719769
  H 6.771086 -0.019813 -3.021498
