 22
 0.000000
  C 0.954492 0.050602 0.171495
  C 2.456310 0.056634 0.088516
  C 3.254789 -0.015607 1.376911
  C 2.471451 -0.083765 2.683619
  H 3.173377 -0.128735 3.512272
  C 3.079112 0.125676 -1.105627
  C 2.329157 0.201602 -2.404774
  H 1.256351 0.194982 -2.267934
  C 4.531315 0.131848 -1.225452
  C 5.220943 0.197472 -2.359805
  H 6.296510 0.196437 -2.355181
  H 0.604211 -0.016702 1.193481
  H 0.544384 -0.797712 -0.376757
  H 0.542569 0.962648 -0.260812
  H 3.906573 0.861981 1.427156
  H 3.901865 -0.896982 1.331912
  H 1.847969 -0.973338 2.729088
  H 1.850526 0.797910 2.822343
  H 2.598541 -0.645792 -3.035949
  H 2.600246 1.115835 -2.933605
  H 5.091370 0.077478 -0.302529
  H 4.761610 0.254275 -3.331006
 22
 4.059549
  C 0.957860 0.016980 0.181312
  C 2.435289 0.049484 0.090369
  C 3.245534 -0.027032 1.375833
  C 2.469325 -0.074853 2.685250
  H 3.175712 -0.124453 3.511114
  C 3.060954 0.123139 -1.103831
  C 2.313073 0.193473 -2.409001
  H 1.237298 0.175493 -2.278523
  C 4.514157 0.144919 -1.217855
  C 5.211199 0.215837 -2.352796
  H 6.288248 0.222246 -2.341338
  H 0.574854 -0.016309 1.186734
  H 0.514383 -0.792500 -0.389085
  H 0.762241 0.954321 -0.272725
  H 3.911347 0.838738 1.417885
  H 3.878345 -0.917735 1.332590
  H 1.833519 -0.955299 2.740521
  H 1.862072 0.817181 2.821157
  H 2.591943 -0.649550 -3.039530
  H 2.577932 1.109281 -2.936093
  H 5.069664 0.095002 -0.293398
  H 4.755574 0.268218 -3.325651
 22
 11.512987
  C 0.954000 -0.001881 0.197346
  C 2.435735 0.033177 0.097417
  C 3.245320 -0.048318 1.370428
  C 2.452317 -0.068346 2.679078
  H 3.148117 -0.123820 3.514629
  C 3.058970 0.112506 -1.098262
  C 2.311193 0.167183 -2.400323
  H 1.240212 0.128618 -2.274019
  C 4.503459 0.165601 -1.219068
  C 5.192052 0.245303 -2.357775
  H 6.265979 0.273813 -2.351433
  H 0.552938 -0.006591 1.198786
  H 0.476413 -0.750663 -0.412660
  H 0.973551 0.969277 -0.251819
  H 3.932663 0.804032 1.409124
  H 3.857353 -0.958266 1.332126
  H 1.797956 -0.935142 2.734909
  H 1.860482 0.836434 2.799028
  H 2.606978 -0.671351 -3.027805
  H 2.558853 1.085727 -2.929369
  H 5.066927 0.128770 -0.297005
  H 4.730532 0.283883 -3.328720
 22
 22.138175
  C 0.924743 -0.022620 0.200446
  C 2.425106 0.027989 0.095960
  C 3.240900 -0.050327 1.369146
  C 2.460051 -0.059513 2.675728
  H 3.160994 -0.113366 3.505006
  C 3.052599 0.110445 -1.100085
  C 2.304151 0.163900 -2.401325
  H 1.233407 0.121916 -2.274931
  C 4.498578 0.170308 -1.215044
  C 5.193292 0.255285 -2.351295
  H 6.267220 0.291354 -2.339141
  H 0.508779 -0.013859 1.196720
  H 0.432035 -0.735046 -0.436131
  H 1.113732 0.934953 -0.232126
  H 3.932663 0.795328 1.401199
  H 3.844341 -0.961529 1.330534
  H 1.802301 -0.923993 2.740638
  H 1.872926 0.849387 2.794408
  H 2.601323 -0.672501 -3.030395
  H 2.549305 1.084222 -2.929163
  H 5.056789 0.135024 -0.291701
  H 4.736288 0.292370 -3.325367
 22
 32.395415
  C 0.924788 -0.045269 0.212870
  C 2.427496 0.029803 0.090020
  C 3.236196 -0.050150 1.372725
  C 2.446474 -0.051564 2.684535
  H 3.146203 -0.107518 3.518744
  C 3.054716 0.113511 -1.107276
  C 2.299419 0.165965 -2.411874
  H 1.223528 0.122430 -2.280322
  C 4.497161 0.176170 -1.222097
  C 5.189931 0.262037 -2.357571
  H 6.265792 0.297398 -2.346458
  H 0.500339 -0.034748 1.196701
  H 0.409538 -0.734427 -0.436028
  H 1.241502 0.918896 -0.215344
  H 3.936501 0.793508 1.406266
  H 3.835637 -0.968785 1.338294
  H 1.784235 -0.911116 2.749985
  H 1.864231 0.860171 2.799758
  H 2.595441 -0.670988 -3.043177
  H 2.541696 1.087410 -2.941874
  H 5.057036 0.140560 -0.297448
  H 4.732304 0.298652 -3.329843
 22
 40.995453
  C 0.918306 -0.065274 0.222359
  C 2.416359 0.029857 0.094344
  C 3.230461 -0.042078 1.372854
  C 2.442760 -0.044415 2.666659
  H 3.136691 -0.095031 3.501837
  C 3.058772 0.111682 -1.105620
  C 2.307730 0.161783 -2.407381
  H 1.237439 0.125802 -2.275216
  C 4.490305 0.176211 -1.220400
  C 5.179541 0.263749 -2.360714
  H 6.256193 0.301967 -2.354166
  H 0.503910 -0.070827 1.216375
  H 0.399934 -0.689235 -0.474403
  H 1.328860 0.895010 -0.138739
  H 3.923930 0.795921 1.408961
  H 3.822525 -0.951543 1.336372
  H 1.785731 -0.904838 2.728622
  H 1.856058 0.862603 2.774762
  H 2.596341 -0.672494 -3.033892
  H 2.552808 1.074653 -2.938961
  H 5.053652 0.141154 -0.301328
  H 4.715042 0.299388 -3.331975
 22
 47.176680
  C 0.915955 -0.085060 0.223352
  C 2.411385 0.029816 0.084917
  C 3.222837 -0.036617 1.371965
  C 2.434565 -0.036222 2.683005
  H 3.137114 -0.078751 3.518479
  C 3.057359 0.110291 -1.115242
  C 2.300911 0.160294 -2.420203
  H 1.225187 0.131772 -2.283918
  C 4.492327 0.175875 -1.227168
  C 5.184580 0.264899 -2.363722
  H 6.258891 0.305064 -2.352510
  H 0.515754 -0.123961 1.211552
  H 0.385572 -0.648333 -0.511947
  H 1.403306 0.892738 -0.079357
  H 3.920816 0.807651 1.404014
  H 3.820511 -0.953360 1.335318
  H 1.780173 -0.904041 2.756753
  H 1.841285 0.872398 2.791953
  H 2.584109 -0.681960 -3.049603
  H 2.549273 1.074851 -2.958172
  H 5.057231 0.140176 -0.304938
  H 4.724661 0.301564 -3.334606
 22
 51.722610
  C 0.917035 -0.099826 0.229803
  C 2.410694 0.033398 0.088304
  C 3.217253 -0.031195 1.372266
  C 2.429731 -0.028820 2.678321
  H 3.126539 -0.063597 3.506974
  C 3.061988 0.111627 -1.115068
  C 2.301888 0.156227 -2.418196
  H 1.229546 0.133561 -2.277183
  C 4.491579 0.180288 -1.227274
  C 5.184664 0.267731 -2.365923
  H 6.269272 0.306142 -2.355163
  H 0.518917 -0.173724 1.215473
  H 0.366700 -0.603016 -0.547920
  H 1.467303 0.891860 -0.013174
  H 3.908572 0.806633 1.402969
  H 3.816389 -0.948915 1.336109
  H 1.783310 -0.895197 2.756774
  H 1.835328 0.870979 2.783369
  H 2.579354 -0.692735 -3.046696
  H 2.550889 1.068292 -2.963256
  H 5.053067 0.146028 -0.313650
  H 4.721098 0.301728 -3.341248
 22
 55.100035
  C 0.907164 -0.117135 0.215439
  C 2.397314 0.033959 0.078518
  C 3.213666 -0.027349 1.369845
  C 2.438825 -0.022669 2.690090
  H 3.150851 -0.046394 3.515542
  C 3.053763 0.111870 -1.126149
  C 2.296917 0.153624 -2.424682
  H 1.229157 0.136850 -2.283701
  C 4.491236 0.184239 -1.230404
  C 5.193781 0.269812 -2.361350
  H 6.266097 0.301716 -2.340698
  H 0.500190 -0.231228 1.197262
  H 0.357292 -0.541984 -0.579920
  H 1.507890 0.885659 0.033526
  H 3.906187 0.816460 1.391913
  H 3.816032 -0.944257 1.331866
  H 1.794778 -0.903105 2.784759
  H 1.832663 0.881989 2.798091
  H 2.569769 -0.697699 -3.048651
  H 2.548316 1.060907 -2.972418
  H 5.048494 0.149075 -0.310823
  H 4.741177 0.301662 -3.337652
 22
 57.934515
  C 0.913934 -0.135690 0.230280
  C 2.398164 0.033731 0.086288
  C 3.211958 -0.021593 1.370954
  C 2.434532 -0.012575 2.681483
  H 3.139123 -0.024352 3.505851
  C 3.057613 0.107001 -1.126023
  C 2.305812 0.158074 -2.421817
  H 1.230680 0.157495 -2.281670
  C 4.484329 0.168443 -1.229741
  C 5.186635 0.260947 -2.363150
  H 6.262991 0.318844 -2.342071
  H 0.515253 -0.273027 1.195678
  H 0.340861 -0.514634 -0.594424
  H 1.552246 0.876294 0.082868
  H 3.897705 0.820063 1.390628
  H 3.818476 -0.937519 1.338134
  H 1.799827 -0.893858 2.778980
  H 1.823518 0.883828 2.778621
  H 2.570536 -0.706903 -3.048476
  H 2.573877 1.068276 -2.975592
  H 5.043907 0.135980 -0.307886
  H 4.729313 0.308790 -3.343470
 22
 60.357430
  C 0.909824 -0.154908 0.229114
  C 2.395534 0.034485 0.083148
  C 3.217706 -0.017234 1.369672
  C 2.435828 -0.007577 2.689806
  H 3.143429 -0.009081 3.519245
  C 3.055466 0.104348 -1.130279
  C 2.299837 0.162238 -2.438592
  H 1.229675 0.175475 -2.304280
  C 4.485096 0.162848 -1.227453
  C 5.195747 0.257689 -2.357796
  H 6.279175 0.320006 -2.329055
  H 0.501457 -0.308667 1.207391
  H 0.332533 -0.485066 -0.603635
  H 1.580838 0.866251 0.106569
  H 3.906281 0.834948 1.383976
  H 3.823630 -0.925400 1.338260
  H 1.810418 -0.889618 2.791996
  H 1.817359 0.882545 2.781945
  H 2.550405 -0.692047 -3.055740
  H 2.575400 1.054432 -2.986657
  H 5.034337 0.132092 -0.313026
  H 4.744892 0.314600 -3.338328
 22
 62.371078
  C 0.903924 -0.171959 0.230656
  C 2.397968 0.045185 0.089687
  C 3.218642 -0.009691 1.372209
  C 2.441320 -0.005574 2.679733
  H 3.145301 -0.001385 3.506743
  C 3.059230 0.113330 -1.129147
  C 2.300523 0.165235 -2.430243
  H 1.225449 0.183129 -2.289192
  C 4.490077 0.177866 -1.227122
  C 5.200581 0.262206 -2.358373
  H 6.266606 0.298121 -2.331568
  H 0.490358 -0.334060 1.197508
  H 0.322111 -0.461092 -0.618423
  H 1.606108 0.870276 0.132139
  H 3.902619 0.843672 1.388718
  H 3.825955 -0.913717 1.340099
  H 1.820948 -0.895619 2.780044
  H 1.814523 0.882106 2.769991
  H 2.547556 -0.701592 -3.048282
  H 2.579578 1.062107 -2.989526
  H 5.049384 0.145694 -0.298560
  H 4.754140 0.305643 -3.333563
 22
 64.596300
  C 0.919870 -0.199501 0.229259
  C 2.401352 0.053698 0.095580
  C 3.219171 0.002156 1.375229
  C 2.434241 -0.002571 2.683550
  H 3.142148 0.012643 3.522076
  C 3.064582 0.125535 -1.126391
  C 2.297867 0.181843 -2.429180
  H 1.227819 0.208338 -2.284771
  C 4.492919 0.190441 -1.225952
  C 5.203681 0.261100 -2.360583
  H 6.280598 0.259734 -2.336494
  H 0.498155 -0.361669 1.195603
  H 0.335081 -0.462296 -0.639449
  H 1.632146 0.862067 0.148251
  H 3.895146 0.864336 1.392349
  H 3.833716 -0.892252 1.343595
  H 1.819872 -0.909954 2.783009
  H 1.788845 0.885107 2.770603
  H 2.532759 -0.680768 -3.046056
  H 2.578575 1.070856 -2.987100
  H 5.050550 0.146246 -0.305073
  H 4.749976 0.282746 -3.349210
 22
 66.398875
  C 0.912265 -0.227203 0.223947
  C 2.390686 0.061534 0.091625
  C 3.219694 0.008780 1.377682
  C 2.441162 -0.001327 2.688184
  H 3.138018 0.019140 3.509797
  C 3.056244 0.134210 -1.133175
  C 2.298872 0.190757 -2.430539
  H 1.227302 0.225815 -2.289707
  C 4.488878 0.202600 -1.226080
  C 5.206468 0.262418 -2.355538
  H 6.273720 0.232284 -2.325853
  H 0.490026 -0.382675 1.180577
  H 0.329536 -0.459976 -0.638423
  H 1.639835 0.864216 0.151865
  H 3.898995 0.882756 1.394286
  H 3.840259 -0.887446 1.342572
  H 1.847265 -0.892704 2.788658
  H 1.801196 0.864018 2.776680
  H 2.530725 -0.677804 -3.042710
  H 2.589734 1.078274 -2.992648
  H 5.042101 0.153635 -0.302799
  H 4.766203 0.268153 -3.330492
