 23
 0.000000
  C 0.957115 0.130545 0.412293
  C 2.427911 0.125909 0.394873
  C 3.216416 0.602232 1.553847
  C 2.452075 1.101111 2.776914
  C 3.423957 1.547780 3.865484
  C 3.060562 -0.342818 -0.756699
  C 4.444720 -0.408984 -0.921042
  C 5.108965 -0.850466 -2.045240
  H 4.653466 -1.201769 -2.962174
  O 6.407291 -0.873956 -2.127844
  H 0.538402 0.515813 1.332866
  H 0.584432 -0.880393 0.248600
  H 0.578819 0.718078 -0.426365
  H 3.877040 1.407832 1.213408
  H 3.880340 -0.208500 1.875221
  H 1.819453 0.307860 3.178506
  H 1.816810 1.946727 2.508449
  H 4.060482 0.724572 4.182145
  H 2.879059 1.903050 4.736524
  H 4.057982 2.358624 3.513925
  H 2.433942 -0.672255 -1.573597
  H 5.069637 -0.084036 -0.099044
  H 6.876084 -0.565753 -1.326599
 23
 -0.662722
  C 1.019257 0.107592 0.378486
  C 2.486514 0.226242 0.394752
  C 3.225987 0.735148 1.568472
  C 2.420696 1.074591 2.818961
  C 3.344437 1.547125 3.937889
  C 3.158486 -0.194326 -0.749681
  C 4.539184 -0.345807 -0.898392
  C 5.059549 -0.891470 -2.051955
  H 4.406695 -1.153592 -2.877722
  O 6.305224 -1.167283 -2.285624
  H 0.544454 0.486186 1.273690
  H 0.760079 -0.946602 0.254027
  H 0.607884 0.614332 -0.494865
  H 3.775948 1.631692 1.255651
  H 3.997818 0.007532 1.842403
  H 1.873214 0.195525 3.163049
  H 1.700878 1.866268 2.604706
  H 4.063796 0.775282 4.202525
  H 2.768330 1.786642 4.828339
  H 3.890340 2.440257 3.641978
  H 2.547840 -0.482912 -1.595963
  H 5.205322 -0.085830 -0.088760
  H 6.921592 -0.924700 -1.565107
 23
 2.152940
  C 1.086988 0.073568 0.357288
  C 2.527006 0.384543 0.354705
  C 3.226623 0.903900 1.545847
  C 2.430223 1.000210 2.843597
  C 3.308847 1.529182 3.972355
  C 3.212709 0.063681 -0.814235
  C 4.563668 -0.275645 -0.923701
  C 5.001065 -0.948454 -2.041988
  H 4.337313 -1.092111 -2.887693
  O 6.165323 -1.494765 -2.220304
  H 0.559814 0.448187 1.225823
  H 1.013336 -1.018111 0.342628
  H 0.605135 0.420439 -0.554391
  H 3.604158 1.903389 1.292273
  H 4.125095 0.306172 1.730885
  H 2.050289 0.015193 3.121728
  H 1.580419 1.673997 2.721796
  H 4.159313 0.874428 4.145345
  H 2.740298 1.590346 4.897243
  H 3.682033 2.524411 3.741926
  H 2.609911 -0.092038 -1.701886
  H 5.232208 -0.135789 -0.086452
  H 6.801498 -1.351767 -1.490649
 23
 7.315878
  C 1.193084 0.039078 0.311035
  C 2.585401 0.516578 0.336463
  C 3.239462 1.019651 1.557476
  C 2.450693 0.939170 2.861549
  C 3.264105 1.515523 4.015922
  C 3.290908 0.297581 -0.848971
  C 4.590446 -0.208060 -0.948601
  C 4.898731 -0.993053 -2.034238
  H 4.226971 -1.040100 -2.884829
  O 5.941072 -1.756681 -2.175195
  H 0.625588 0.282173 1.202249
  H 1.280857 -1.048539 0.222274
  H 0.667824 0.377399 -0.579997
  H 3.500727 2.070505 1.369401
  H 4.203548 0.520358 1.692174
  H 2.205758 -0.100606 3.083800
  H 1.518592 1.501598 2.779231
  H 4.201945 0.979100 4.139699
  H 2.708081 1.436729 4.946971
  H 3.489177 2.566057 3.847482
  H 2.702074 0.262643 -1.758089
  H 5.257725 -0.165879 -0.100577
  H 6.586234 -1.703971 -1.442920
 23
 12.458297
  C 1.259844 0.062802 0.254518
  C 2.613192 0.638296 0.310306
  C 3.230973 1.136631 1.553091
  C 2.499901 0.854833 2.860078
  C 3.248566 1.475475 4.037826
  C 3.353479 0.443999 -0.866467
  C 4.607771 -0.183053 -0.941290
  C 4.813434 -1.048250 -1.987998
  H 4.143731 -1.041530 -2.837499
  O 5.755337 -1.938874 -2.098537
  H 0.647402 0.270905 1.122397
  H 1.452666 -1.014192 0.190850
  H 0.741177 0.341130 -0.661818
  H 3.339344 2.223610 1.440757
  H 4.261173 0.772456 1.624136
  H 2.422294 -0.220181 3.019407
  H 1.493745 1.268706 2.826337
  H 4.251269 1.065046 4.125952
  H 2.724261 1.274924 4.966932
  H 3.328443 2.552707 3.922743
  H 2.803482 0.517335 -1.796368
  H 5.239287 -0.217085 -0.067358
  H 6.415048 -1.920051 -1.376459
 23
 19.865615
  C 1.391173 -0.063700 0.231796
  C 2.683373 0.666214 0.324808
  C 3.263380 1.152190 1.583558
  C 2.459065 0.923477 2.858511
  C 3.208773 1.471333 4.073551
  C 3.410421 0.603392 -0.885002
  C 4.630769 -0.093504 -0.995490
  C 4.696442 -1.060182 -1.974788
  H 3.998517 -1.051155 -2.805200
  O 5.551865 -2.040097 -2.056474
  H 0.803173 -0.044485 1.139201
  H 1.719302 -1.084725 0.015130
  H 0.799237 0.252684 -0.616651
  H 3.426168 2.234912 1.455305
  H 4.269575 0.744968 1.709042
  H 2.282333 -0.147429 3.001028
  H 1.491559 1.427255 2.790761
  H 4.177797 1.000191 4.178145
  H 2.643708 1.281611 4.986105
  H 3.357116 2.543863 3.988864
  H 2.828558 0.669899 -1.798932
  H 5.366863 -0.040093 -0.206281
  H 6.228647 -2.039426 -1.353733
 23
 28.740397
  C 1.516244 -0.077069 0.170367
  C 2.730398 0.749088 0.299869
  C 3.289142 1.205104 1.579447
  C 2.527564 0.830241 2.846750
  C 3.173400 1.472810 4.069641
  C 3.460675 0.744326 -0.901701
  C 4.636545 -0.033454 -1.030461
  C 4.525343 -1.103450 -1.872449
  H 3.797923 -1.109274 -2.674489
  O 5.305731 -2.154951 -1.902506
  H 0.898771 -0.121287 1.057592
  H 1.955526 -1.059607 -0.060236
  H 0.926359 0.178659 -0.706936
  H 3.360856 2.300835 1.516990
  H 4.329656 0.875098 1.663924
  H 2.535587 -0.252874 2.973046
  H 1.489517 1.162384 2.781326
  H 4.189591 1.111996 4.210193
  H 2.606470 1.234006 4.967227
  H 3.205258 2.557204 3.969912
  H 2.899295 0.912364 -1.815056
  H 5.394089 -0.001241 -0.262364
  H 6.019247 -2.138249 -1.237173
 23
 38.277036
  C 1.637721 -0.121870 0.135698
  C 2.781429 0.772283 0.304568
  C 3.283244 1.288929 1.586598
  C 2.568697 0.813751 2.846871
  C 3.149994 1.496987 4.080872
  C 3.547449 0.822897 -0.892926
  C 4.649194 -0.067952 -1.033781
  C 4.391780 -1.143697 -1.831831
  H 3.672076 -1.092274 -2.635412
  O 5.081367 -2.267177 -1.867527
  H 1.031042 -0.267019 1.017423
  H 2.162411 -1.055654 -0.162359
  H 1.036616 0.091721 -0.748623
  H 3.224280 2.385481 1.519707
  H 4.357133 1.089529 1.666780
  H 2.681992 -0.266659 2.943083
  H 1.503195 1.045019 2.792616
  H 4.224485 1.349441 4.138287
  H 2.703038 1.088805 4.985507
  H 2.953266 2.567698 4.064626
  H 3.036573 1.120195 -1.800873
  H 5.416075 -0.108671 -0.272319
  H 5.815432 -2.296365 -1.227515
 23
 51.640194
  C 1.780844 -0.185096 0.073954
  C 2.783922 0.867524 0.257233
  C 3.295242 1.325325 1.546724
  C 2.574443 0.816351 2.787693
  C 3.188343 1.420919 4.048637
  C 3.539595 0.990038 -0.951018
  C 4.608770 0.041698 -1.042936
  C 4.219976 -1.119300 -1.643966
  H 3.517267 -1.117032 -2.459857
  O 4.898404 -2.263765 -1.613114
  H 1.195220 -0.458588 0.938710
  H 2.497830 -0.990749 -0.244004
  H 1.198315 -0.141337 -0.846867
  H 3.248074 2.420409 1.531402
  H 4.364541 1.098323 1.608147
  H 2.639152 -0.275188 2.843161
  H 1.523894 1.098734 2.743969
  H 4.229547 1.124653 4.161043
  H 2.650448 1.088502 4.926936
  H 3.144026 2.506596 4.019432
  H 2.961426 1.138929 -1.857228
  H 5.407118 0.060563 -0.310574
  H 5.633461 -2.256520 -0.982896
 23
 70.936792
  C 1.925411 -0.220861 0.078407
  C 2.892720 0.794277 0.301799
  C 3.306849 1.364980 1.582423
  C 2.611214 0.814041 2.825658
  C 3.137113 1.500428 4.081692
  C 3.626074 1.016583 -0.927595
  C 4.608156 0.001400 -1.131980
  C 4.058567 -1.145419 -1.650167
  H 3.372215 -1.110474 -2.488143
  O 4.681830 -2.334811 -1.639886
  H 1.385033 -0.612124 0.923941
  H 2.755126 -1.042877 -0.447793
  H 1.372385 -0.246505 -0.851554
  H 3.123844 2.448726 1.526674
  H 4.396150 1.265216 1.673355
  H 2.811517 -0.256656 2.909374
  H 1.532565 0.955021 2.755576
  H 4.195474 1.294044 4.227515
  H 2.607510 1.139034 4.957834
  H 2.999312 2.578989 4.023966
  H 3.040186 1.328837 -1.788773
  H 5.457169 -0.055529 -0.457391
  H 5.460702 -2.356820 -1.067895
 23
 81.827023
  C 1.892557 -0.160426 0.083685
  C 2.802497 0.837833 0.281910
  C 3.293686 1.381501 1.564602
  C 2.614007 0.830943 2.815781
  C 3.197273 1.475481 4.069197
  C 3.573110 1.016696 -0.952634
  C 4.568707 0.014292 -1.114939
  C 4.051839 -1.198466 -1.601181
  H 3.393472 -1.191152 -2.469328
  O 4.743478 -2.358599 -1.578569
  H 1.373510 -0.566738 0.935745
  H 3.007063 -1.157555 -0.641190
  H 1.368666 -0.283341 -0.852265
  H 3.151029 2.467430 1.533893
  H 4.376792 1.230002 1.623322
  H 2.760241 -0.248601 2.871548
  H 1.542618 1.032429 2.778784
  H 4.264257 1.279862 4.147394
  H 2.715635 1.076390 4.958859
  H 3.046296 2.553065 4.060003
  H 3.008166 1.324523 -1.825532
  H 5.433622 0.010613 -0.462780
  H 5.506576 -2.337874 -0.978630
 23
 75.408099
  C 1.804354 -0.104631 0.125022
  C 2.773596 0.826946 0.303824
  C 3.312109 1.369601 1.574634
  C 2.606467 0.885445 2.837065
  C 3.228149 1.513566 4.080645
  C 3.518606 0.933795 -0.925395
  C 4.540619 -0.020264 -1.095492
  C 4.095600 -1.248850 -1.662265
  H 3.482178 -1.210350 -2.556150
  O 4.904299 -2.360533 -1.710321
  H 1.288109 -0.505155 0.984099
  H 3.215226 -1.357652 -0.830694
  H 1.305477 -0.268235 -0.820540
  H 3.220218 2.455393 1.519521
  H 4.374381 1.163904 1.641275
  H 2.694412 -0.204480 2.911334
  H 1.555886 1.144663 2.806195
  H 4.282904 1.255267 4.161969
  H 2.728482 1.157277 4.973676
  H 3.137390 2.591484 4.050879
  H 2.951593 1.231353 -1.812057
  H 5.414901 -0.003119 -0.434330
  H 5.650916 -2.321031 -1.094318
 23
 61.871939
  C 1.695209 -0.039865 0.238991
  C 2.766074 0.763474 0.379175
  C 3.356160 1.303246 1.634733
  C 2.577154 0.967613 2.903802
  C 3.218053 1.631099 4.118954
  C 3.471171 0.781341 -0.889802
  C 4.520182 -0.111909 -1.088819
  C 4.207155 -1.323769 -1.845372
  H 3.639421 -1.169959 -2.768091
  O 5.143186 -2.298620 -2.059333
  H 1.169900 -0.415178 1.099589
  H 3.423325 -1.667377 -1.098403
  H 1.230438 -0.228017 -0.711436
  H 3.394323 2.391476 1.517341
  H 4.391233 0.971471 1.743835
  H 2.565845 -0.111693 3.057859
  H 1.547334 1.313685 2.811885
  H 4.239196 1.283085 4.258752
  H 2.655665 1.394846 5.019630
  H 3.235665 2.713037 4.006526
  H 2.887524 1.079047 -1.755447
  H 5.331506 -0.157081 -0.367598
  H 5.886962 -2.255266 -1.440298
 23
 52.886064
  C 1.492512 0.144458 0.238524
  C 2.652091 0.832969 0.324477
  C 3.298993 1.348840 1.561656
  C 2.592090 0.983838 2.864369
  C 3.374588 1.505103 4.066784
  C 3.372609 0.682473 -0.918791
  C 4.474194 -0.153748 -1.012693
  C 4.357060 -1.373182 -1.804944
  H 3.904252 -1.233341 -2.792323
  O 5.420726 -2.233232 -1.934186
  H 0.919067 -0.114911 1.111083
  H 3.550160 -1.843957 -1.174534
  H 1.062872 -0.125277 -0.710051
  H 3.324461 2.439572 1.465406
  H 4.339033 1.022234 1.612184
  H 2.500479 -0.101109 2.946461
  H 1.589932 1.417461 2.879155
  H 4.362354 1.051538 4.115638
  H 2.851207 1.271537 4.989945
  H 3.494916 2.585195 4.012444
  H 2.783106 0.825174 -1.819276
  H 5.315137 -0.045704 -0.335688
  H 6.051661 -2.167358 -1.201256
 23
 50.007803
  C 1.510077 0.091882 0.322467
  C 2.664874 0.790409 0.380677
  C 3.350262 1.267363 1.617537
  C 2.586398 1.024117 2.915111
  C 3.322522 1.648060 4.096987
  C 3.353079 0.622883 -0.904518
  C 4.459358 -0.207093 -1.010009
  C 4.393232 -1.328078 -1.975907
  H 4.093956 -1.027815 -2.986810
  O 5.414213 -2.230446 -2.074521
  H 0.987831 -0.202708 1.210255
  H 3.485550 -1.820474 -1.519476
  H 1.076964 -0.213573 -0.608704
  H 3.506144 2.345908 1.502901
  H 4.344502 0.822753 1.695261
  H 2.480418 -0.045054 3.091481
  H 1.591663 1.461865 2.845113
  H 4.336547 1.265346 4.169078
  H 2.807667 1.416734 5.031974
  H 3.369298 2.734409 3.997656
  H 2.739231 0.756935 -1.782063
  H 5.156381 -0.289862 -0.183835
  H 6.053331 -2.164989 -1.346268
