 20
 0.000000
  H 1.522448 0.177333 0.491967
  C 2.603023 0.159594 0.443823
  C 3.327312 0.634041 1.623487
  C 2.430808 1.091286 2.768487
  C 3.253584 1.570128 3.960418
  C 3.177127 -0.307387 -0.719420
  C 4.554777 -0.399369 -0.949451
  C 5.082133 -0.877922 -2.133276
  H 4.456056 -1.209104 -2.954165
  O 6.346825 -0.976699 -2.372679
  H 3.994901 1.456010 1.335045
  H 3.997448 -0.157730 1.982050
  H 1.789378 0.267789 3.087002
  H 1.786357 1.904859 2.431242
  H 3.888975 0.773487 4.340626
  H 2.601151 1.892130 4.767524
  H 3.885990 2.410955 3.684886
  H 2.520688 -0.628929 -1.515931
  H 5.264358 -0.093963 -0.193514
  H 6.916133 -0.678720 -1.631425
 20
 2.801185
  H 1.517673 0.038539 0.537639
  C 2.599665 0.050778 0.478390
  C 3.322767 0.584887 1.637824
  C 2.426868 1.121935 2.755375
  C 3.248198 1.601143 3.948424
  C 3.181231 -0.435481 -0.676613
  C 4.558917 -0.458622 -0.929283
  C 5.093217 -0.734189 -2.174083
  H 4.466717 -0.840232 -3.052938
  O 6.355643 -0.774123 -2.435028
  H 4.016580 1.370995 1.316445
  H 3.974761 -0.202904 2.043557
  H 1.731400 0.340440 3.085047
  H 1.830596 1.951968 2.379012
  H 3.832493 0.787713 4.372077
  H 2.594165 1.987601 4.729662
  H 3.928589 2.398984 3.657365
  H 2.532905 -0.830534 -1.446567
  H 5.281586 -0.253988 -0.154993
  H 6.987267 -0.993225 -1.725450
 20
 7.409840
  H 1.528151 0.138346 0.493262
  C 2.609113 0.118513 0.457089
  C 3.318461 0.579674 1.648189
  C 2.419644 1.032055 2.791394
  C 3.228071 1.632732 3.935502
  C 3.196840 -0.350724 -0.697975
  C 4.577867 -0.400309 -0.930135
  C 5.111732 -0.741269 -2.154236
  H 4.475607 -0.838778 -3.030889
  O 6.389438 -0.806278 -2.410189
  H 4.002771 1.395179 1.377525
  H 3.988235 -0.215483 2.002131
  H 1.847022 0.181488 3.166926
  H 1.703271 1.771964 2.430000
  H 3.935066 0.909760 4.336073
  H 2.569474 1.938430 4.744183
  H 3.780198 2.509154 3.605382
  H 2.551486 -0.722104 -1.481868
  H 5.276695 -0.112693 -0.156287
  H 6.934695 -1.349916 -1.809133
 20
 13.552036
  H 1.523002 -0.012484 0.554396
  C 2.602899 0.028289 0.498756
  C 3.306309 0.568264 1.657238
  C 2.409913 1.089227 2.770581
  C 3.220970 1.646015 3.934916
  C 3.195908 -0.418190 -0.660366
  C 4.579267 -0.437210 -0.897744
  C 5.129284 -0.672999 -2.134894
  H 4.514130 -0.706945 -3.031414
  O 6.429372 -0.646452 -2.336550
  H 4.005514 1.354889 1.343116
  H 3.970965 -0.210881 2.059719
  H 1.765195 0.286113 3.134211
  H 1.757613 1.873809 2.380815
  H 3.857667 0.879670 4.370519
  H 2.559333 2.012840 4.715237
  H 3.849074 2.473613 3.613941
  H 2.556715 -0.777544 -1.455061
  H 5.290270 -0.225195 -0.112997
  H 6.930317 -1.446916 -2.103936
 20
 12.657911
  H 1.528119 -0.058021 0.571944
  C 2.607903 0.000132 0.518940
  C 3.300865 0.569357 1.672659
  C 2.394901 1.117043 2.765029
  C 3.193986 1.660602 3.943736
  C 3.216754 -0.446006 -0.639937
  C 4.603291 -0.450240 -0.869054
  C 5.159365 -0.638628 -2.110918
  H 4.553146 -0.710961 -3.011734
  O 6.469443 -0.620472 -2.238936
  H 4.010264 1.343187 1.351759
  H 3.958053 -0.205885 2.096835
  H 1.720833 0.333513 3.117763
  H 1.771987 1.916406 2.357078
  H 3.801098 0.880968 4.397698
  H 2.524890 2.049087 4.707054
  H 3.850364 2.469572 3.631961
  H 2.587288 -0.819615 -1.436685
  H 5.320360 -0.412920 -0.059602
  H 6.902017 -1.431191 -2.562281
 20
 16.855987
  H 1.475613 -0.111530 0.632297
  C 2.554800 -0.081590 0.563039
  C 3.281589 0.521667 1.679859
  C 2.402580 1.173010 2.737578
  C 3.230021 1.743702 3.883470
  C 3.137910 -0.565210 -0.579718
  C 4.527140 -0.562689 -0.825025
  C 5.176632 -0.434201 -2.026290
  H 4.740452 -0.038415 -2.937574
  O 6.480989 -0.628228 -1.978692
  H 4.012778 1.250113 1.310495
  H 3.901535 -0.259824 2.144179
  H 1.695210 0.441835 3.134785
  H 1.818504 1.976921 2.284113
  H 3.799403 0.962036 4.380772
  H 2.583288 2.208543 4.623072
  H 3.924981 2.499332 3.524750
  H 2.503863 -0.998937 -1.341958
  H 5.268907 -0.858791 -0.087163
  H 6.867687 -1.219217 -2.648517
 20
 30.109583
  H 1.421425 -0.180932 0.690603
  C 2.495948 -0.133624 0.573683
  C 3.264527 0.495335 1.651924
  C 2.419088 1.168279 2.724304
  C 3.283469 1.771856 3.825402
  C 3.038320 -0.618154 -0.589474
  C 4.418869 -0.590519 -0.894034
  C 5.201707 -0.271559 -1.961366
  H 5.002885 0.374660 -2.805627
  O 6.459194 -0.686403 -1.756891
  H 3.975089 1.218280 1.235280
  H 3.897858 -0.273523 2.117886
  H 1.732238 0.442595 3.165054
  H 1.814835 1.957751 2.271692
  H 3.875984 1.005828 4.320005
  H 2.661072 2.251021 4.576678
  H 3.959736 2.522382 3.422885
  H 2.387057 -1.097010 -1.311389
  H 5.219878 -1.104706 -0.320609
  H 6.858423 -1.231266 -2.458392
 20
 50.373604
  H 1.385348 -0.168408 0.706818
  C 2.452294 -0.099760 0.546686
  C 3.257603 0.505527 1.610948
  C 2.437602 1.134376 2.732482
  C 3.335536 1.721424 3.816107
  C 2.955768 -0.551745 -0.646330
  C 4.300280 -0.486473 -1.010196
  C 5.208317 -0.179402 -1.945660
  H 5.224263 0.519818 -2.765113
  O 6.389426 -0.768538 -1.563044
  H 3.932637 1.253974 1.180130
  H 3.916690 -0.260451 2.040241
  H 1.782502 0.383298 3.178216
  H 1.804471 1.924894 2.324555
  H 3.959034 0.951306 4.264035
  H 2.736322 2.168925 4.604888
  H 3.982812 2.493784 3.407268
  H 2.289538 -1.055629 -1.337330
  H 5.259530 -1.093416 -0.486057
  H 6.797341 -1.382088 -2.203177
 20
 62.505507
  H 1.381204 -0.235762 0.747767
  C 2.437014 -0.124140 0.549446
  C 3.257820 0.525961 1.586499
  C 2.441680 1.127479 2.728066
  C 3.344656 1.763692 3.779063
  C 2.921747 -0.567471 -0.654831
  C 4.227678 -0.455969 -1.067391
  C 5.176339 -0.163761 -1.921638
  H 5.271055 0.542373 -2.725961
  O 6.354282 -0.817534 -1.454793
  H 3.881517 1.301163 1.127318
  H 3.961233 -0.204817 2.004626
  H 1.835020 0.350573 3.198610
  H 1.761651 1.884812 2.333406
  H 4.015831 1.025498 4.212278
  H 2.750321 2.190813 4.582849
  H 3.943072 2.560564 3.343733
  H 2.256433 -1.115671 -1.313200
  H 5.468652 -1.139506 -0.555728
  H 6.759381 -1.452754 -2.084203
 20
 54.133848
  H 1.374569 -0.261861 0.765672
  C 2.423184 -0.127724 0.549590
  C 3.252079 0.537902 1.577793
  C 2.439609 1.121433 2.730553
  C 3.342179 1.774952 3.771017
  C 2.899532 -0.558301 -0.666182
  C 4.181841 -0.430720 -1.099273
  C 5.164645 -0.144547 -1.892358
  H 5.318682 0.593256 -2.656928
  O 6.343448 -0.879569 -1.419503
  H 3.852109 1.327557 1.111715
  H 3.974555 -0.179076 1.985736
  H 1.855262 0.331388 3.207190
  H 1.738319 1.864964 2.345540
  H 4.033798 1.049893 4.194278
  H 2.749209 2.188568 4.583273
  H 3.918431 2.584635 3.328819
  H 2.231186 -1.111976 -1.316207
  H 5.678345 -1.219027 -0.652171
  H 6.735097 -1.488566 -2.088195
 20
 42.940716
  H 1.354705 -0.265450 0.791600
  C 2.406488 -0.121135 0.563265
  C 3.234500 0.568220 1.568730
  C 2.424632 1.120764 2.739101
  C 3.323176 1.800029 3.764544
  C 2.872412 -0.534162 -0.661132
  C 4.146212 -0.401506 -1.115258
  C 5.195728 -0.128492 -1.807832
  H 5.402400 0.668470 -2.494687
  O 6.391193 -0.943515 -1.480723
  H 3.798467 1.372817 1.097274
  H 3.985052 -0.132387 1.965814
  H 1.879409 0.308586 3.223335
  H 1.690893 1.834923 2.371499
  H 4.043048 1.094105 4.165528
  H 2.734807 2.180632 4.596893
  H 3.866679 2.630780 3.317431
  H 2.192332 -1.076722 -1.311409
  H 5.963763 -1.416266 -0.728515
  H 6.682632 -1.520066 -2.239966
 20
 41.773767
  H 1.316949 -0.171639 0.753125
  C 2.372332 -0.082964 0.547718
  C 3.218482 0.560247 1.579467
  C 2.414069 1.125742 2.746536
  C 3.326101 1.779389 3.784147
  C 2.847532 -0.538385 -0.666222
  C 4.126515 -0.473765 -1.093362
  C 5.150190 -0.202978 -1.828686
  H 5.294640 0.582188 -2.555713
  O 6.407838 -0.892847 -1.550024
  H 3.804749 1.363157 1.124509
  H 3.936824 -0.163023 1.974887
  H 1.843849 0.322840 3.222416
  H 1.701769 1.866665 2.375581
  H 4.028420 1.053049 4.196748
  H 2.739309 2.197709 4.601024
  H 3.899856 2.593155 3.333991
  H 2.158378 -1.058061 -1.321817
  H 6.226675 -1.307842 -0.675552
  H 6.774054 -1.513014 -2.223280
 20
 37.228251
  H 1.336415 -0.318357 0.828051
  C 2.368139 -0.138270 0.571544
  C 3.214671 0.561121 1.566634
  C 2.414663 1.124240 2.739391
  C 3.318058 1.832736 3.742223
  C 2.819988 -0.551633 -0.665634
  C 4.072115 -0.397624 -1.132737
  C 5.215143 -0.126427 -1.653378
  H 5.488321 0.754990 -2.214537
  O 6.389065 -0.992282 -1.514428
  H 3.767520 1.369495 1.076424
  H 3.969471 -0.130792 1.958052
  H 1.882621 0.314129 3.243117
  H 1.668055 1.829109 2.366747
  H 4.050063 1.143018 4.156582
  H 2.732030 2.237766 4.563833
  H 3.848889 2.655092 3.267681
  H 2.124384 -1.058513 -1.322953
  H 6.242966 -1.715859 -0.860237
  H 6.665951 -1.352316 -2.390882
