 20
 0.000000
  C 0.956974 -0.016564 -0.005284
  C 2.453333 -0.000303 0.011395
  C 3.169762 0.811659 0.796071
  C 4.607329 0.828912 0.812434
  C 5.328175 1.645191 1.601325
  C 6.766431 1.660851 1.616105
  C 7.484934 2.471395 2.399441
  C 8.974840 2.502264 2.428924
  H 0.596465 -0.755608 -0.719513
  H 0.559909 0.954943 -0.300956
  H 0.559809 -0.276586 0.975603
  H 2.953724 -0.690028 -0.656527
  H 2.659067 1.498318 1.459999
  H 5.111720 0.140065 0.146443
  H 4.824240 2.334154 2.267426
  H 7.272888 0.972626 0.950709
  H 6.986295 3.162403 3.067527
  H 9.408301 1.784421 1.734912
  H 9.334315 2.270334 3.432647
  H 9.334007 3.497624 2.163008
 20
 4.458212
  C 0.953438 -0.048329 -0.030799
  C 2.425617 -0.005614 0.071689
  C 3.154655 0.794054 0.855073
  C 4.594553 0.832825 0.843333
  C 5.331187 1.634535 1.633588
  C 6.767476 1.671904 1.622478
  C 7.500256 2.466286 2.405623
  C 8.988854 2.516720 2.405935
  H 0.620102 -0.823673 -0.707495
  H 0.767896 0.908412 -0.490901
  H 0.441828 -0.147504 0.917482
  H 2.834746 -0.677414 -0.639572
  H 2.653974 1.458880 1.549929
  H 5.089320 0.165544 0.147852
  H 4.834514 2.300626 2.328882
  H 7.261134 1.004267 0.926296
  H 7.007972 3.134040 3.101965
  H 9.404671 1.819301 1.682070
  H 9.375775 2.269486 3.395392
  H 9.333585 3.522837 2.163618
 20
 10.294087
  C 0.954549 -0.049717 -0.045269
  C 2.415851 0.009539 0.124241
  C 3.148351 0.782304 0.921276
  C 4.583244 0.849186 0.869182
  C 5.322203 1.623464 1.666363
  C 6.764016 1.683376 1.619394
  C 7.504519 2.453651 2.414522
  C 8.991297 2.523754 2.379581
  H 0.639615 -0.940509 -0.601761
  H 0.956709 0.774431 -0.752980
  H 0.347435 0.086134 0.839298
  H 2.764953 -0.644381 -0.634126
  H 2.653447 1.404251 1.658750
  H 5.071303 0.211689 0.133140
  H 4.832584 2.251775 2.403415
  H 7.251023 1.051352 0.879054
  H 7.020391 3.087219 3.152407
  H 9.398302 1.862502 1.614471
  H 9.406748 2.239031 3.348816
  H 9.317804 3.545191 2.172115
 20
 17.698468
  C 0.950382 -0.048731 -0.064234
  C 2.401194 0.027468 0.150927
  C 3.142798 0.769234 0.968059
  C 4.575916 0.853710 0.887092
  C 5.329803 1.617973 1.695130
  C 6.755820 1.692437 1.619409
  C 7.510265 2.448929 2.422942
  C 8.995846 2.531550 2.358886
  H 0.642545 -1.004534 -0.486570
  H 1.107302 0.616519 -0.914198
  H 0.282382 0.266129 0.726838
  H 2.695417 -0.602404 -0.666990
  H 2.655708 1.354773 1.739995
  H 5.052028 0.240266 0.128277
  H 4.853902 2.219279 2.455013
  H 7.227590 1.091695 0.855815
  H 7.038802 3.056447 3.188706
  H 9.390375 1.902227 1.563999
  H 9.433575 2.215550 3.307297
  H 9.310666 3.561162 2.181385
 20
 21.252264
  C 0.937707 -0.053515 -0.073470
  C 2.389976 0.064149 0.136310
  C 3.142519 0.773402 0.977673
  C 4.577499 0.870333 0.884473
  C 5.335712 1.607901 1.712679
  C 6.760896 1.706042 1.614840
  C 7.520152 2.436695 2.438237
  C 9.004000 2.536011 2.358060
  H 0.624738 -1.085486 -0.232117
  H 1.145062 0.369802 -1.066151
  H 0.263178 0.467780 0.590117
  H 2.648606 -0.526543 -0.732945
  H 2.663224 1.331668 1.763230
  H 5.048825 0.293308 0.093349
  H 4.862227 2.172608 2.513226
  H 7.231405 1.138936 0.808473
  H 7.055227 3.007345 3.232406
  H 9.391339 1.954294 1.528827
  H 9.455387 2.177066 3.277159
  H 9.306878 3.570807 2.231225
 20
 29.233901
  C 0.933029 -0.040783 -0.081579
  C 2.390500 0.091314 0.118431
  C 3.146405 0.761502 0.983693
  C 4.583073 0.857579 0.890525
  C 5.340112 1.598922 1.716260
  C 6.770225 1.702066 1.615641
  C 7.529188 2.433430 2.439949
  C 9.001727 2.544483 2.350038
  H 0.626658 -1.085320 -0.113018
  H 1.183235 0.241694 -1.124424
  H 0.245658 0.552830 0.512752
  H 2.585376 -0.436167 -0.816888
  H 2.666962 1.265973 1.815911
  H 5.052976 0.278760 0.107159
  H 4.869091 2.160333 2.509722
  H 7.236920 1.150535 0.808110
  H 7.066367 2.992323 3.242945
  H 9.389576 1.961721 1.519117
  H 9.462862 2.188998 3.275393
  H 9.296574 3.586588 2.217132
 20
 38.259673
  C 0.933167 -0.067607 -0.052149
  C 2.393345 0.115806 0.084947
  C 3.158377 0.754527 0.965108
  C 4.584439 0.895139 0.842086
  C 5.335076 1.649110 1.661800
  C 6.775152 1.702802 1.611153
  C 7.528460 2.421556 2.449324
  C 9.011109 2.525459 2.378030
  H 0.655676 -1.118880 0.027996
  H 1.153122 0.124411 -1.130814
  H 0.251597 0.552254 0.522431
  H 2.506523 -0.279571 -0.929498
  H 2.691470 1.183291 1.834059
  H 5.062651 0.321876 0.039965
  H 4.862033 2.210947 2.443995
  H 7.249155 1.133674 0.825809
  H 7.056669 2.993053 3.238421
  H 9.410569 1.900417 1.586572
  H 9.456822 2.222311 3.322782
  H 9.308785 3.558391 2.193748
 20
 49.922764
  C 0.934821 -0.030108 -0.058456
  C 2.415033 0.065038 0.073888
  C 3.175263 0.709714 0.958297
  C 4.603353 0.865436 0.838688
  C 5.347976 1.609847 1.673244
  C 6.773503 1.697394 1.606381
  C 7.519193 2.409953 2.457649
  C 8.999405 2.547849 2.372302
  H 0.581551 -1.047269 0.116186
  H 1.199284 0.056192 -1.147212
  H 0.305376 0.676172 0.463064
  H 2.434356 -0.265098 -0.969364
  H 2.707403 1.123396 1.831767
  H 5.075150 0.334039 0.034771
  H 4.869971 2.146564 2.473947
  H 7.258415 1.146158 0.796062
  H 7.042480 2.955789 3.268045
  H 9.415836 1.894023 1.602813
  H 9.459365 2.300503 3.332756
  H 9.269220 3.583935 2.134347
 20
 63.075221
  C 0.931656 -0.024896 -0.064230
  C 2.423107 0.048518 0.077326
  C 3.174557 0.720500 0.943477
  C 4.603325 0.864257 0.835699
  C 5.350207 1.578398 1.694322
  C 6.775369 1.703949 1.601459
  C 7.522153 2.399873 2.463030
  C 8.997464 2.555083 2.366522
  H 0.541601 -1.005630 0.198536
  H 1.260834 -0.043377 -1.153127
  H 0.318635 0.749146 0.385111
  H 2.392377 -0.286167 -0.979734
  H 2.698785 1.165605 1.806583
  H 5.075241 0.366358 -0.000134
  H 4.874662 2.081568 2.519383
  H 7.254314 1.187653 0.772868
  H 7.050443 2.913842 3.291304
  H 9.413392 1.907942 1.597529
  H 9.467591 2.316920 3.321469
  H 9.251710 3.589507 2.124093
 20
 75.862108
  C 0.917851 -0.043052 -0.065287
  C 2.425025 0.058314 0.069896
  C 3.174884 0.732611 0.935937
  C 4.601665 0.885908 0.822066
  C 5.350604 1.585514 1.690597
  C 6.774876 1.722105 1.588884
  C 7.524015 2.407714 2.456961
  C 9.002752 2.539519 2.374302
  H 0.538295 -1.012031 0.249193
  H 1.299901 -0.114507 -1.142643
  H 0.300200 0.749096 0.347082
  H 2.351642 -0.255140 -1.001116
  H 2.701234 1.175742 1.801632
  H 5.071540 0.403786 -0.024873
  H 4.877753 2.068226 2.531646
  H 7.249282 1.225932 0.748073
  H 7.051630 2.928301 3.281167
  H 9.417461 1.866436 1.627462
  H 9.457395 2.320604 3.340162
  H 9.276081 3.563158 2.107225
 20
 88.988605
  C 0.912048 -0.033397 -0.085211
  C 2.420465 0.060016 0.082471
  C 3.166373 0.743323 0.942905
  C 4.594325 0.888945 0.827949
  C 5.349141 1.583201 1.696982
  C 6.776778 1.710912 1.596591
  C 7.527968 2.395405 2.461714
  C 9.003742 2.548640 2.358222
  H 0.513853 -0.983259 0.259129
  H 1.368021 -0.151728 -1.148737
  H 0.292419 0.781322 0.282122
  H 2.334065 -0.297024 -0.993037
  H 2.697075 1.186924 1.814941
  H 5.059806 0.407929 -0.017469
  H 4.878876 2.074602 2.531338
  H 7.248739 1.210936 0.757981
  H 7.058103 2.901194 3.302814
  H 9.415935 1.894337 1.591773
  H 9.478907 2.320424 3.312724
  H 9.254393 3.572758 2.106485
 20
 99.494794
  C 0.905763 -0.025715 -0.088311
  C 2.423248 0.055443 0.079607
  C 3.172931 0.736990 0.942022
  C 4.598009 0.871546 0.836096
  C 5.351523 1.570805 1.703634
  C 6.773273 1.714181 1.591376
  C 7.525065 2.408422 2.450691
  C 9.001683 2.548498 2.357518
  H 0.500814 -0.969088 0.259510
  H 1.392635 -0.163069 -1.152208
  H 0.299623 0.798395 0.273798
  H 2.301430 -0.294951 -1.016681
  H 2.701676 1.189605 1.809192
  H 5.067514 0.381799 -0.012695
  H 4.877912 2.068825 2.542335
  H 7.243979 1.215478 0.749311
  H 7.058022 2.922797 3.272545
  H 9.413019 1.878667 1.605440
  H 9.466053 2.331264 3.321686
  H 9.270155 3.580547 2.087555
 20
 108.654210
  C 0.894560 -0.025894 -0.080399
  C 2.424902 0.050889 0.068242
  C 3.172739 0.743490 0.922940
  C 4.602547 0.875883 0.823479
  C 5.352115 1.579942 1.689026
  C 6.780355 1.699586 1.598529
  C 7.527279 2.398800 2.455123
  C 9.006422 2.552526 2.356257
  H 0.495461 -0.968648 0.271668
  H 1.401853 -0.176413 -1.158654
  H 0.297777 0.804109 0.291164
  H 2.268231 -0.302423 -1.045851
  H 2.694043 1.206966 1.782484
  H 5.074637 0.382584 -0.013569
  H 4.873847 2.093949 2.511887
  H 7.256907 1.184564 0.771895
  H 7.052415 2.921509 3.285930
  H 9.423260 1.878240 1.614834
  H 9.470714 2.351998 3.315590
  H 9.265864 3.583353 2.073064
 20
 119.491562
  C 0.892785 -0.014596 -0.074519
  C 2.421232 0.047660 0.072353
  C 3.171673 0.744699 0.919745
  C 4.600148 0.866353 0.827922
  C 5.350038 1.573264 1.692926
  C 6.779398 1.703984 1.594646
  C 7.526040 2.407234 2.447340
  C 9.006473 2.556410 2.352300
  H 0.485054 -0.953703 0.277213
  H 1.423714 -0.197408 -1.186699
  H 0.312511 0.825722 0.298078
  H 2.250301 -0.321089 -1.085893
  H 2.687673 1.225520 1.774860
  H 5.073784 0.366771 -0.006241
  H 4.870766 2.088538 2.518206
  H 7.254249 1.191538 0.769397
  H 7.053004 2.932875 3.269663
  H 9.423803 1.871045 1.621377
  H 9.467980 2.364857 3.317416
  H 9.268229 3.577217 2.060136
