 23
 0.000000
  C 0.975431 0.139136 0.396109
  C 2.447339 0.143892 0.409201
  C 3.221369 0.613500 1.578305
  C 2.442244 1.102988 2.795519
  C 3.399623 1.545362 3.898496
  C 3.088431 -0.317396 -0.738321
  C 4.467715 -0.393657 -0.930503
  C 5.090747 -0.850493 -2.068928
  H 4.578564 -1.206640 -2.954356
  O 6.385284 -0.898779 -2.191789
  H 0.538041 0.508515 1.315060
  H 0.609779 -0.872732 0.212974
  H 0.610032 0.742627 -0.436597
  H 3.884408 1.422143 1.249876
  H 3.883627 -0.198092 1.900978
  H 1.806151 0.305974 3.184109
  H 1.807225 1.948079 2.524466
  H 4.034459 0.721880 4.217689
  H 2.843235 1.893750 4.764977
  H 4.035699 2.359996 3.559661
  H 2.454527 -0.644858 -1.552387
  H 5.124357 -0.071961 -0.131286
  H 6.867367 -0.580971 -1.401358
 23
 18.109995
  C 0.958565 0.135389 0.387879
  C 2.443372 0.135623 0.389149
  C 3.234708 0.606838 1.561891
  C 2.468219 1.099209 2.786988
  C 3.436332 1.539542 3.882217
  C 3.081938 -0.326807 -0.762657
  C 4.528476 -0.414835 -0.981927
  C 5.051216 -0.864479 -2.106669
  H 4.604709 -1.228017 -3.017126
  O 6.301572 -0.816669 -1.986138
  H 0.526770 0.505657 1.309109
  H 0.589140 -0.874618 0.202575
  H 0.589295 0.736254 -0.444803
  H 3.897580 1.412314 1.226136
  H 3.897914 -0.206144 1.878354
  H 1.833507 0.303474 3.181018
  H 1.833355 1.946277 2.521090
  H 4.071618 0.714513 4.196235
  H 2.888250 1.889701 4.753546
  H 4.071359 2.352485 3.537708
  H 2.462767 -0.654868 -1.581436
  H 5.155605 -0.091564 -0.171812
  H 6.666245 -0.484780 -1.153850
 23
 63.496361
  C 0.971983 0.141882 0.406560
  C 2.442156 0.131505 0.378363
  C 3.240765 0.594929 1.530776
  C 2.480820 1.089687 2.762923
  C 3.457823 1.528596 3.853325
  C 3.049478 -0.329673 -0.772104
  C 4.580578 -0.432438 -1.024646
  C 5.037913 -0.875623 -2.138205
  H 4.696403 -1.253899 -3.093033
  O 6.229325 -0.752272 -1.823191
  H 0.564790 0.514460 1.334690
  H 0.593199 -0.867010 0.228498
  H 0.591990 0.746707 -0.419857
  H 3.901977 1.402794 1.189237
  H 3.903101 -0.223900 1.842894
  H 1.846165 0.294836 3.161196
  H 1.845080 1.938734 2.500798
  H 4.093516 0.701962 4.163899
  H 2.915333 1.880041 4.728355
  H 4.092591 2.340914 3.504928
  H 2.432890 -0.654041 -1.584157
  H 5.113901 -0.094874 -0.171543
  H 6.513953 -0.412208 -0.960644
 23
 123.182831
  C 0.924690 0.141874 0.432850
  C 2.404711 0.142555 0.372176
  C 3.221146 0.605991 1.513831
  C 2.485981 1.087808 2.760503
  C 3.476736 1.522258 3.829215
  C 2.995474 -0.309898 -0.777898
  C 4.708396 -0.450041 -1.053874
  C 5.064052 -0.898115 -2.180270
  H 4.785806 -1.262444 -3.142497
  O 6.239806 -0.738197 -1.754553
  H 0.534038 0.507342 1.370775
  H 0.545813 -0.871129 0.258644
  H 0.525328 0.750938 -0.385025
  H 3.870640 1.419181 1.167984
  H 3.889768 -0.211632 1.810323
  H 1.865403 0.292829 3.164223
  H 1.844297 1.931249 2.517557
  H 4.120480 0.697180 4.122246
  H 2.949613 1.865576 4.715318
  H 4.100226 2.338766 3.473866
  H 2.391655 -0.618732 -1.613741
  H 5.125455 -0.113938 -0.131243
  H 6.535771 -0.425940 -0.889885
 23
 153.349611
  C 0.800235 0.155619 0.464530
  C 2.315169 0.129475 0.343071
  C 3.182971 0.593538 1.491665
  C 2.483887 1.081804 2.746017
  C 3.515668 1.509773 3.800160
  C 2.775434 -0.313336 -0.790830
  C 4.918956 -0.452023 -1.068080
  C 5.158219 -0.911103 -2.209909
  H 4.889168 -1.280692 -3.170926
  O 6.418443 -0.708752 -1.709488
  H 0.509014 0.536569 1.438227
  H 0.394764 -0.846145 0.345966
  H 0.374117 0.801119 -0.301690
  H 3.813326 1.416966 1.129916
  H 3.832887 -0.242698 1.783357
  H 1.860779 0.286434 3.170700
  H 1.841552 1.937829 2.515916
  H 4.158102 0.675612 4.075834
  H 3.014844 1.860347 4.701202
  H 4.140441 2.319083 3.426506
  H 2.283450 -0.648990 -1.674354
  H 5.137925 -0.082005 -0.094673
  H 6.790462 -0.425221 -0.851225
 23
 165.764717
  C 0.638109 0.204545 0.570267
  C 2.139516 0.131519 0.364610
  C 3.075710 0.553804 1.488148
  C 2.438477 1.094982 2.772489
  C 3.516019 1.502685 3.768364
  C 2.578209 -0.308531 -0.777921
  C 5.245152 -0.468983 -1.091720
  C 5.359728 -0.927044 -2.265605
  H 5.066610 -1.287514 -3.226696
  O 6.696461 -0.751922 -1.797174
  H 0.395540 0.572175 1.558073
  H 0.202905 -0.780362 0.446414
  H 0.196277 0.856477 -0.171534
  H 3.693763 1.359354 1.090165
  H 3.732436 -0.281327 1.746430
  H 1.815789 0.326456 3.232185
  H 1.815139 1.950505 2.552246
  H 4.141563 0.652983 4.030300
  H 3.063009 1.881868 4.682030
  H 4.147045 2.286828 3.354455
  H 2.124614 -0.650160 -1.677831
  H 5.325746 -0.071807 -0.097174
  H 7.186309 -0.462809 -0.997979
 23
 170.817824
  C 0.494762 0.229988 0.656079
  C 1.989538 0.130934 0.395881
  C 2.974956 0.523105 1.490482
  C 2.403029 1.102072 2.783312
  C 3.531762 1.484378 3.734028
  C 2.408520 -0.314627 -0.754830
  C 5.491810 -0.461619 -1.135737
  C 5.551415 -0.932197 -2.309756
  H 5.236406 -1.299238 -3.272757
  O 6.910124 -0.721914 -1.852786
  H 0.289560 0.595850 1.656093
  H 0.036727 -0.751430 0.541450
  H 0.035404 0.897482 -0.069944
  H 3.594265 1.315056 1.054053
  H 3.633646 -0.315255 1.719347
  H 1.786411 0.346061 3.277230
  H 1.792108 1.975012 2.570928
  H 4.137826 0.616213 3.979191
  H 3.127066 1.887010 4.659796
  H 4.171800 2.243678 3.289523
  H 1.935035 -0.667176 -1.646176
  H 5.546343 -0.033083 -0.137382
  H 7.454688 -0.462876 -1.072065
 23
 168.884076
  C 0.364009 0.263126 0.728674
  C 1.855423 0.157898 0.408232
  C 2.887048 0.554423 1.451689
  C 2.374429 1.095598 2.779158
  C 3.545348 1.448141 3.700077
  C 2.240449 -0.301928 -0.739446
  C 5.830570 -0.425371 -1.156031
  C 5.641402 -0.953644 -2.242785
  H 5.256375 -1.368565 -3.146656
  O 7.156276 -0.684020 -1.915808
  H 0.196592 0.645526 1.723015
  H -0.100013 -0.716523 0.649145
  H -0.120076 0.925274 0.013858
  H 3.519997 1.328313 1.001260
  H 3.510546 -0.318648 1.656825
  H 1.753514 0.349838 3.278957
  H 1.771397 1.997947 2.615138
  H 4.148390 0.565907 3.912931
  H 3.177642 1.841129 4.645271
  H 4.180769 2.205405 3.243671
  H 1.795035 -0.676947 -1.628008
  H 5.618073 -0.067387 -0.178444
  H 7.831020 -0.478474 -1.231025
 23
 160.875626
  C 0.376680 0.255781 0.729214
  C 1.864058 0.147588 0.399218
  C 2.904335 0.554693 1.435980
  C 2.395744 1.088886 2.771845
  C 3.564846 1.445190 3.683632
  C 2.241798 -0.306209 -0.756425
  C 5.736606 -0.364269 -1.122116
  C 5.675679 -0.950582 -2.239791
  H 5.371932 -1.402700 -3.156394
  O 7.076752 -0.554090 -1.904584
  H 0.216699 0.642263 1.726225
  H -0.089321 -0.723635 0.654609
  H -0.111508 0.916157 0.016369
  H 3.533049 1.326897 0.985530
  H 3.526356 -0.320664 1.640129
  H 1.780908 0.338413 3.271019
  H 1.788917 1.982858 2.615987
  H 4.173883 0.569163 3.888783
  H 3.199964 1.831294 4.631714
  H 4.190318 2.207866 3.227827
  H 1.790792 -0.677416 -1.646365
  H 5.549804 0.033293 -0.154971
  H 7.675928 -0.653758 -1.127738
