 17
 0.000000
  C 0.959132 0.052866 0.193422
  C 2.460922 0.057197 0.152830
  C 3.185557 -0.017705 1.467860
  H 2.502165 -0.068126 2.305327
  C 3.111589 0.123404 -1.015052
  H 2.561094 0.177971 -1.943011
  C 4.544695 0.130071 -1.166631
  C 5.156859 0.197474 -2.351754
  O 6.500872 0.206462 -2.545934
  H 0.589303 0.005079 1.213714
  H 0.556011 -0.805982 -0.340462
  H 0.555650 0.956745 -0.261285
  H 3.824559 0.856378 1.600332
  H 3.828941 -0.898069 1.498369
  H 5.153005 0.077489 -0.270465
  H 4.630516 0.252596 -3.292699
  H 6.951549 0.156491 -1.692209
 17
 5.476952
  C 0.959247 0.096419 0.197335
  C 2.439816 0.072679 0.183249
  C 3.173478 -0.015639 1.504141
  H 2.471673 -0.110787 2.330069
  C 3.119270 0.145883 -0.999172
  H 2.554033 0.221514 -1.913386
  C 4.536388 0.120651 -1.159796
  C 5.135600 0.192569 -2.363871
  O 6.476283 0.178889 -2.585152
  H 0.517898 -0.001265 1.176453
  H 0.860803 -0.803189 -0.380118
  H 0.525191 0.935162 -0.317451
  H 3.774898 0.877224 1.672544
  H 3.840819 -0.875967 1.525523
  H 5.145263 0.045443 -0.272209
  H 4.584208 0.271007 -3.291845
  H 6.939245 0.109186 -1.744945
 17
 18.207314
  C 0.961573 0.117132 0.209604
  C 2.418898 0.081411 0.182483
  C 3.166832 -0.014242 1.484506
  H 2.476202 -0.148530 2.313413
  C 3.094996 0.161999 -0.995449
  H 2.524046 0.264090 -1.912021
  C 4.522621 0.111672 -1.159210
  C 5.117153 0.189421 -2.349898
  O 6.457235 0.155433 -2.569137
  H 0.503656 -0.005829 1.180073
  H 1.087008 -0.788790 -0.341888
  H 0.493328 0.915574 -0.359128
  H 3.736810 0.895309 1.663794
  H 3.861975 -0.851169 1.482354
  H 5.134480 0.014778 -0.270859
  H 4.570260 0.290525 -3.272673
  H 6.921008 0.066129 -1.719469
 17
 32.119240
  C 0.936514 0.142404 0.226574
  C 2.404364 0.083685 0.175768
  C 3.154467 -0.027393 1.483390
  H 2.469070 -0.182250 2.305126
  C 3.093445 0.173935 -1.007561
  H 2.530731 0.294528 -1.923274
  C 4.521111 0.108545 -1.166689
  C 5.121753 0.192880 -2.357629
  O 6.463078 0.146083 -2.570996
  H 0.481112 0.046291 1.199984
  H 1.245363 -0.780666 -0.249171
  H 0.446289 0.863660 -0.407204
  H 3.704433 0.883757 1.673736
  H 3.856980 -0.846405 1.471958
  H 5.131922 -0.004303 -0.277370
  H 4.578313 0.309772 -3.286898
  H 6.918506 0.044792 -1.722484
 17
 43.153376
  C 0.931675 0.167040 0.240929
  C 2.399263 0.080738 0.165053
  C 3.141130 -0.047204 1.470907
  H 2.449991 -0.219475 2.292339
  C 3.087801 0.183480 -1.018069
  H 2.525690 0.323921 -1.929356
  C 4.511311 0.108365 -1.174186
  C 5.120806 0.200515 -2.359199
  O 6.468182 0.143221 -2.563317
  H 0.486254 0.142300 1.219081
  H 1.373744 -0.783563 -0.127664
  H 0.416749 0.786079 -0.478632
  H 3.686125 0.879363 1.673293
  H 3.859725 -0.867564 1.450731
  H 5.117429 -0.019937 -0.284206
  H 4.584849 0.332680 -3.292333
  H 6.913487 0.031163 -1.714006
 17
 51.028488
  C 0.923563 0.192697 0.251136
  C 2.396945 0.081224 0.161306
  C 3.131367 -0.065977 1.464789
  H 2.434810 -0.252292 2.284676
  C 3.088993 0.195067 -1.028955
  H 2.522284 0.348255 -1.938773
  C 4.508915 0.109078 -1.183845
  C 5.124994 0.205988 -2.365540
  O 6.476342 0.142549 -2.562249
  H 0.479422 0.243199 1.233813
  H 1.473485 -0.776368 -0.013924
  H 0.390838 0.689347 -0.536981
  H 3.674373 0.856775 1.682550
  H 3.848727 -0.883506 1.433546
  H 5.111292 -0.029278 -0.294385
  H 4.597944 0.349387 -3.296566
  H 6.913598 0.023572 -1.711706
 17
 57.252366
  C 0.918542 0.214523 0.256917
  C 2.392018 0.074775 0.159186
  C 3.128206 -0.076345 1.464303
  H 2.433342 -0.269015 2.279983
  C 3.088352 0.203183 -1.035251
  H 2.519772 0.366796 -1.941315
  C 4.503999 0.107418 -1.188998
  C 5.127157 0.210834 -2.368369
  O 6.480557 0.139813 -2.558774
  H 0.472551 0.300316 1.234829
  H 1.549913 -0.770558 0.050160
  H 0.374379 0.623733 -0.571699
  H 3.667573 0.845267 1.688317
  H 3.847078 -0.892324 1.427068
  H 5.100173 -0.041506 -0.304869
  H 4.609208 0.364193 -3.293717
  H 6.911871 0.011652 -1.705951
 17
 62.386728
  C 0.913568 0.240730 0.260064
  C 2.385437 0.060826 0.161517
  C 3.130424 -0.083770 1.468502
  H 2.439557 -0.277038 2.287273
  C 3.088777 0.204224 -1.040967
  H 2.517542 0.372381 -1.944244
  C 4.501366 0.104742 -1.191641
  C 5.129421 0.212510 -2.369889
  O 6.482587 0.139300 -2.553791
  H 0.459325 0.325597 1.229125
  H 1.602295 -0.770553 0.074954
  H 0.365366 0.594914 -0.590297
  H 3.667630 0.837295 1.688587
  H 3.851282 -0.897445 1.428993
  H 5.098452 -0.051069 -0.303336
  H 4.613965 0.372136 -3.299112
  H 6.909231 0.006791 -1.698460
 17
 66.632085
  C 0.912714 0.263203 0.262109
  C 2.382845 0.048818 0.164357
  C 3.130601 -0.087777 1.469335
  H 2.437961 -0.282773 2.293645
  C 3.088273 0.199481 -1.041467
  H 2.518056 0.365056 -1.935843
  C 4.500107 0.102428 -1.191519
  C 5.131026 0.211273 -2.369410
  O 6.484487 0.139370 -2.548774
  H 0.450311 0.334430 1.227513
  H 1.650478 -0.771537 0.079044
  H 0.365922 0.592154 -0.599071
  H 3.662334 0.830431 1.685041
  H 3.857806 -0.903360 1.428568
  H 5.097656 -0.052908 -0.301994
  H 4.613994 0.371517 -3.306434
  H 6.907995 0.007403 -1.692332
 17
 69.394121
  C 0.914384 0.303230 0.268554
  C 2.374885 0.029341 0.169379
  C 3.135279 -0.093931 1.475015
  H 2.452717 -0.285733 2.299397
  C 3.090364 0.196081 -1.048303
  H 2.512101 0.361300 -1.945458
  C 4.496735 0.103129 -1.192378
  C 5.134272 0.212823 -2.370628
  O 6.488013 0.138226 -2.542785
  H 0.436913 0.334856 1.225374
  H 1.685870 -0.802089 0.073400
  H 0.362406 0.595254 -0.601856
  H 3.666489 0.830074 1.682674
  H 3.860035 -0.903559 1.435327
  H 5.091762 -0.053723 -0.302726
  H 4.624056 0.370235 -3.305192
  H 6.907139 0.004934 -1.683157
 17
 71.065090
  C 0.927692 0.343117 0.271576
  C 2.371093 0.009910 0.170634
  C 3.137380 -0.100267 1.472823
  H 2.456907 -0.289543 2.301726
  C 3.087877 0.186618 -1.048345
  H 2.506819 0.349806 -1.942585
  C 4.489952 0.097353 -1.189593
  C 5.132033 0.209220 -2.366993
  O 6.487261 0.143334 -2.531973
  H 0.436878 0.338008 1.222495
  H 1.727561 -0.834459 0.063151
  H 0.374105 0.608746 -0.605391
  H 3.666853 0.831463 1.672019
  H 3.865710 -0.907998 1.434045
  H 5.084479 -0.057053 -0.298966
  H 4.623317 0.366054 -3.305476
  H 6.902339 0.011984 -1.671939
 17
 71.304500
  C 0.934077 0.374776 0.278360
  C 2.366484 -0.001401 0.175247
  C 3.134312 -0.099565 1.479653
  H 2.455865 -0.303432 2.306415
  C 3.092455 0.194242 -1.049974
  H 2.507392 0.358094 -1.941730
  C 4.489599 0.103650 -1.190405
  C 5.134679 0.210633 -2.370033
  O 6.487877 0.127207 -2.533242
  H 0.430080 0.320681 1.220737
  H 1.782395 -0.880381 0.042023
  H 0.380688 0.623084 -0.603577
  H 3.645757 0.841066 1.681858
  H 3.877074 -0.894260 1.439648
  H 5.084236 -0.062325 -0.301132
  H 4.626662 0.360387 -3.311006
  H 6.901210 -0.006810 -1.672166
 17
 70.848979
  C 0.947485 0.422496 0.288089
  C 2.358390 -0.020953 0.179529
  C 3.133501 -0.108365 1.480982
  H 2.458371 -0.309329 2.311283
  C 3.094550 0.177486 -1.056232
  H 2.508106 0.342326 -1.948518
  C 4.485993 0.081648 -1.193714
  C 5.137227 0.193114 -2.374389
  O 6.492594 0.148567 -2.527030
  H 0.429077 0.331626 1.221968
  H 1.818424 -0.924140 0.031526
  H 0.392540 0.655401 -0.596468
  H 3.641879 0.833473 1.674329
  H 3.877593 -0.901987 1.441649
  H 5.078983 -0.080951 -0.305026
  H 4.632163 0.341315 -3.315559
  H 6.904348 0.028016 -1.662801
 17
 69.803113
  C 0.966290 0.467784 0.295513
  C 2.350044 -0.047254 0.179664
  C 3.134431 -0.118368 1.477759
  H 2.463912 -0.312657 2.313221
  C 3.095024 0.152481 -1.061691
  H 2.508179 0.313882 -1.955221
  C 4.481579 0.069492 -1.193298
  C 5.137494 0.190677 -2.373885
  O 6.492451 0.154792 -2.521111
  H 0.435638 0.338510 1.219545
  H 1.854103 -0.973098 0.022150
  H 0.408401 0.686863 -0.591906
  H 3.639381 0.825998 1.658852
  H 3.879196 -0.909815 1.442613
  H 5.075015 -0.072001 -0.302714
  H 4.636537 0.350467 -3.311185
  H 6.902937 0.025668 -1.656319
