 26
 0.000000
  C 0.921838 0.047642 0.291376
  C 2.409468 0.060260 0.067727
  C 3.226792 -0.011399 1.337788
  H 2.626160 -0.062155 2.237232
  C 3.002683 0.128429 -1.140359
  C 2.357443 0.205722 -2.510153
  C 0.844236 0.217130 -2.712273
  C 0.517226 0.301135 -4.201038
  C 4.461099 0.133250 -1.225723
  C 5.205222 0.195727 -2.333066
  O 6.564977 0.196286 -2.342923
  H 0.681482 -0.012130 1.350609
  H 0.459208 -0.814987 -0.181071
  H 0.459208 0.957942 -0.081028
  H 3.868461 0.867523 1.420422
  H 3.868469 -0.894039 1.321024
  H 2.745442 -0.642404 -3.084930
  H 2.745444 1.113132 -2.985875
  H 0.395699 1.076773 -2.216272
  H 0.395702 -0.692850 -2.316128
  H 0.927398 1.209602 -4.637426
  H -0.560529 0.309502 -4.349293
  H 0.927396 -0.552473 -4.736854
  H 5.004863 0.080592 -0.292478
  H 4.830123 0.252629 -3.341469
  H 6.894050 0.145120 -1.436083
 26
 13.195434
  C 0.778155 0.044146 0.353328
  C 2.426954 0.058263 0.103115
  C 3.238096 -0.012743 1.361589
  H 2.622021 -0.063064 2.253328
  C 3.053205 0.131604 -1.196629
  C 2.391450 0.208174 -2.553610
  C 0.874916 0.217429 -2.717564
  C 0.510233 0.300954 -4.197821
  C 4.503617 0.135628 -1.267861
  C 5.257295 0.197814 -2.370041
  O 6.616646 0.197701 -2.367986
  H 0.561211 -0.015786 1.415389
  H 0.323538 -0.817294 -0.120945
  H 0.323538 0.953471 -0.021024
  H 3.879062 0.866375 1.451442
  H 3.879066 -0.896385 1.351977
  H 2.770489 -0.639961 -3.135330
  H 2.770491 1.116372 -3.036230
  H 0.439771 1.075618 -2.208306
  H 0.439771 -0.692601 -2.308080
  H 0.908923 1.209863 -4.643874
  H -0.570759 0.307858 -4.320149
  H 0.908920 -0.552005 -4.743289
  H 5.038814 0.082635 -0.328689
  H 4.889402 0.254869 -3.381172
  H 6.938769 0.146395 -1.458660
 26
 38.165598
  C 0.606560 0.044009 0.355872
  C 2.495544 0.060603 0.061498
  C 3.227521 -0.012845 1.363301
  H 2.530562 -0.059622 2.191952
  C 3.104171 0.135428 -1.264419
  C 2.434389 0.210633 -2.597253
  C 0.916152 0.215858 -2.689952
  C 0.478849 0.297997 -4.145499
  C 4.551932 0.137381 -1.299017
  C 5.307578 0.198951 -2.390082
  O 6.666145 0.198667 -2.384918
  H 0.526609 -0.016570 1.429543
  H 0.227752 -0.833622 -0.142888
  H 0.227772 0.972181 -0.040991
  H 3.859096 0.864426 1.511996
  H 3.859061 -0.901244 1.412398
  H 2.802616 -0.632880 -3.185293
  H 2.802619 1.114965 -3.086672
  H 0.512835 1.073140 -2.150456
  H 0.512841 -0.696672 -2.250328
  H 0.855010 1.207055 -4.609552
  H -0.606120 0.301996 -4.216391
  H 0.855008 -0.553067 -4.708868
  H 5.067653 0.083989 -0.352984
  H 4.933351 0.255909 -3.399376
  H 6.989135 0.147268 -1.474005
 26
 66.464311
  C 0.390239 0.041077 0.409123
  C 2.571002 0.062827 0.023419
  C 3.275864 -0.010342 1.320978
  H 2.556674 -0.056908 2.138460
  C 3.150613 0.135739 -1.269029
  C 2.474129 0.210941 -2.602420
  C 0.950775 0.214871 -2.672332
  C 0.484261 0.297017 -4.128731
  C 4.595071 0.137584 -1.301618
  C 5.349350 0.199577 -2.400625
  O 6.695649 0.199788 -2.404488
  H 0.375370 -0.019378 1.480942
  H 0.033311 -0.837465 -0.090777
  H 0.033312 0.970259 0.011180
  H 3.897509 0.865934 1.482223
  H 3.897132 -0.899621 1.382458
  H 2.833337 -0.639920 -3.194044
  H 2.833340 1.122980 -3.094642
  H 0.553249 1.071656 -2.128816
  H 0.553256 -0.697605 -2.228600
  H 0.849661 1.208776 -4.601090
  H -0.604736 0.299877 -4.179846
  H 0.849688 -0.555913 -4.700652
  H 5.106892 0.083801 -0.348325
  H 4.966752 0.256169 -3.403937
  H 7.017658 0.149471 -1.512480
 26
 88.777439
  C 0.165030 0.040338 0.422102
  C 2.647982 0.066066 -0.033489
  C 3.286620 -0.009297 1.303495
  H 2.531178 -0.054178 2.089789
  C 3.207809 0.136416 -1.280665
  C 2.518780 0.211897 -2.619183
  C 0.992243 0.212708 -2.633845
  C 0.464447 0.293953 -4.074294
  C 4.662080 0.139218 -1.330180
  C 5.405749 0.201459 -2.434001
  O 6.762123 0.202383 -2.451061
  H 0.217582 -0.019978 1.491765
  H -0.161589 -0.845745 -0.085155
  H -0.161622 0.977812 0.017683
  H 3.902566 0.864830 1.490667
  H 3.902352 -0.899590 1.390998
  H 2.863906 -0.639268 -3.215406
  H 2.863934 1.124750 -3.115911
  H 0.622850 1.068594 -2.066589
  H 0.622876 -0.701502 -2.166461
  H 0.812160 1.206893 -4.562338
  H -0.625875 0.294436 -4.083744
  H 0.812201 -0.558451 -4.661946
  H 5.171759 0.085586 -0.379450
  H 5.008336 0.257944 -3.436038
  H 7.107855 0.150509 -1.531195
 26
 102.833520
  C -0.042344 0.037478 0.470924
  C 2.693661 0.068631 -0.080971
  C 3.247946 -0.008031 1.277987
  H 2.461937 -0.050384 2.028361
  C 3.261613 0.138389 -1.317462
  C 2.563971 0.213304 -2.644894
  C 1.039114 0.211197 -2.606941
  C 0.455174 0.290599 -4.013877
  C 4.727029 0.141227 -1.367855
  C 5.470978 0.203511 -2.471715
  O 6.825089 0.204433 -2.487147
  H 0.111868 -0.022165 1.528046
  H -0.335851 -0.853450 -0.038364
  H -0.335887 0.980024 0.065080
  H 3.861772 0.869753 1.492667
  H 3.861745 -0.904260 1.392559
  H 2.903300 -0.638341 -3.249689
  H 2.903351 1.127607 -3.150058
  H 0.695944 1.059301 -2.020421
  H 0.695897 -0.697512 -2.119539
  H 0.778367 1.202482 -4.513249
  H -0.632815 0.288538 -3.976913
  H 0.778340 -0.559368 -4.612690
  H 5.237347 0.087179 -0.409553
  H 5.078365 0.260020 -3.473462
  H 7.167937 0.152661 -1.569003
 26
 111.676746
  C -0.259896 0.037446 0.470904
  C 2.757260 0.071247 -0.126993
  C 3.229482 -0.006907 1.258089
  H 2.403554 -0.046622 1.961392
  C 3.331179 0.139358 -1.333862
  C 2.608223 0.213698 -2.651231
  C 1.088590 0.207975 -2.549795
  C 0.440501 0.285874 -3.930265
  C 4.805907 0.142986 -1.398072
  C 5.535894 0.205667 -2.509434
  O 6.883899 0.207474 -2.542873
  H -0.043762 -0.021214 1.510447
  H -0.529861 -0.856708 -0.047377
  H -0.529954 0.984199 0.056510
  H 3.833690 0.870531 1.507837
  H 3.833581 -0.906567 1.407488
  H 2.928791 -0.635476 -3.263933
  H 2.928799 1.126426 -3.164520
  H 0.769240 1.054421 -1.944348
  H 0.769227 -0.701236 -2.043399
  H 0.739394 1.201398 -4.445115
  H -0.648795 0.280954 -3.842991
  H 0.739393 -0.565918 -4.544839
  H 5.322885 0.088901 -0.439573
  H 5.131861 0.261625 -3.501727
  H 7.233709 0.156634 -1.641931
 26
 116.735080
  C -0.467305 0.034709 0.519040
  C 2.810194 0.072705 -0.151116
  C 3.215105 -0.006134 1.247068
  H 2.353347 -0.043583 1.910134
  C 3.386160 0.140183 -1.346868
  C 2.647185 0.213987 -2.655544
  C 1.132720 0.206341 -2.520381
  C 0.452870 0.283078 -3.880944
  C 4.852779 0.144650 -1.425714
  C 5.568227 0.207790 -2.546189
  O 6.928119 0.210640 -2.601038
  H -0.181392 -0.022811 1.539314
  H -0.730678 -0.857136 0.002474
  H -0.730900 0.978913 0.106041
  H 3.809454 0.872242 1.525801
  H 3.810119 -0.910792 1.425431
  H 2.956246 -0.634809 -3.272095
  H 2.956211 1.126697 -3.172711
  H 0.824965 1.053662 -1.903998
  H 0.824990 -0.704923 -2.003188
  H 0.737242 1.197559 -4.401923
  H -0.629909 0.276619 -3.766638
  H 0.737245 -0.566951 -4.501414
  H 5.372212 0.091084 -0.476958
  H 5.144989 0.263573 -3.536181
  H 7.290718 0.160442 -1.711930
 26
 119.053981
  C -0.671062 0.033820 0.535800
  C 2.872974 0.073788 -0.171032
  C 3.195712 -0.005615 1.237842
  H 2.292195 -0.039885 1.844906
  C 3.449871 0.140673 -1.357270
  C 2.681542 0.214007 -2.657374
  C 1.173987 0.203617 -2.471929
  C 0.446702 0.279007 -3.808556
  C 4.913886 0.146182 -1.455693
  C 5.613092 0.209965 -2.586424
  O 6.973980 0.214371 -2.662668
  H -0.318705 -0.022591 1.537220
  H -0.928444 -0.862523 0.016618
  H -0.928712 0.982766 0.120643
  H 3.770268 0.867444 1.551238
  H 3.771119 -0.909167 1.451418
  H 2.972481 -0.632250 -3.280219
  H 2.972548 1.124855 -3.181129
  H 0.885595 1.050556 -1.844544
  H 0.885541 -0.708398 -1.943754
  H 0.710746 1.194151 -4.339023
  H -0.630305 0.270474 -3.656369
  H 0.710672 -0.570727 -4.438534
  H 5.442935 0.093055 -0.513411
  H 5.173878 0.265361 -3.567518
  H 7.352103 0.164420 -1.776766
 26
 119.452657
  C -0.867896 0.034229 0.527873
  C 2.949232 0.075581 -0.201818
  C 3.147600 -0.005187 1.231696
  H 2.182300 -0.034361 1.748533
  C 3.523527 0.141771 -1.375928
  C 2.720791 0.213936 -2.655678
  C 1.211145 0.199905 -2.405693
  C 0.426931 0.273167 -3.704822
  C 4.991366 0.148525 -1.496359
  C 5.673658 0.212856 -2.637218
  O 7.026621 0.218304 -2.734043
  H -0.434650 -0.020771 1.505160
  H -1.124207 -0.858343 0.012941
  H -1.124665 0.978901 0.116519
  H 3.691028 0.863759 1.599791
  H 3.692311 -0.911225 1.500407
  H 2.992645 -0.632128 -3.287612
  H 2.992701 1.125624 -3.188510
  H 0.946909 1.045535 -1.766491
  H 0.946864 -0.712102 -1.865624
  H 0.665042 1.188279 -4.245585
  H -0.640846 0.261931 -3.504823
  H 0.664976 -0.575413 -4.345023
  H 5.533128 0.095683 -0.559577
  H 5.218360 0.267833 -3.611638
  H 7.418983 0.168543 -1.851861
 26
 119.468294
  C -1.060372 0.032493 0.563836
  C 3.014799 0.075459 -0.205964
  C 3.100559 -0.005983 1.233901
  H 2.091776 -0.029941 1.667551
  C 3.581394 0.141932 -1.383072
  C 2.750834 0.213361 -2.647072
  C 1.253084 0.196890 -2.357216
  C 0.432309 0.269177 -3.636448
  C 5.041835 0.150322 -1.527982
  C 5.702403 0.215639 -2.682429
  O 7.053074 0.222603 -2.806628
  H -0.563383 -0.020728 1.504330
  H -1.333309 -0.865644 0.054356
  H -1.333565 0.982335 0.159017
  H 3.617752 0.864583 1.648910
  H 3.616988 -0.916448 1.547916
  H 3.008405 -0.636234 -3.288084
  H 3.008292 1.129762 -3.188171
  H 1.002253 1.042334 -1.710966
  H 1.002380 -0.716015 -1.810435
  H 0.653631 1.183526 -4.182667
  H -0.629263 0.256114 -3.406655
  H 0.653741 -0.577735 -4.282258
  H 5.600117 0.097919 -0.600311
  H 5.226791 0.270078 -3.647522
  H 7.463428 0.173212 -1.932812
 26
 119.427080
  C -1.059938 0.032524 0.565913
  C 3.015706 0.075708 -0.209187
  C 3.098494 -0.005787 1.232177
  H 2.091818 -0.029779 1.662551
  C 3.580305 0.141942 -1.382503
  C 2.750686 0.213336 -2.646834
  C 1.252676 0.196872 -2.357195
  C 0.431575 0.269157 -3.637261
  C 5.043742 0.150292 -1.527555
  C 5.703992 0.215578 -2.681838
  O 7.053790 0.222728 -2.806058
  H -0.563300 -0.020772 1.507950
  H -1.332201 -0.864155 0.056564
  H -1.332430 0.980905 0.161037
  H 3.613968 0.864139 1.648391
  H 3.613446 -0.916672 1.547575
  H 3.008764 -0.635600 -3.286754
  H 3.008651 1.128964 -3.187027
  H 1.002871 1.041613 -1.711151
  H 1.002997 -0.715305 -1.810448
  H 0.652848 1.183174 -4.183490
  H -0.630094 0.256121 -3.407839
  H 0.652968 -0.577474 -4.282992
  H 5.602111 0.097985 -0.600647
  H 5.228634 0.270071 -3.647348
  H 7.463876 0.173445 -1.932905
