18

H -2.464343816921844 0.7001326822149356 -0.058330665964505646
C -2.053516 0.585145 -0.027357
C -1.648862 -0.479923 0.644112
C -0.235585 -0.954038 0.808088
C 0.804897 -0.08403 0.113793
C 2.219726 -0.613085 0.340813
C 3.270971 0.223127 -0.396921
H -1.344359 1.219006 -0.53107
H -2.386104 -1.100862 1.139995
H -0.010673 -1.010247 1.878036
H -0.172512 -1.971283 0.414498
H 0.593666 -0.067496 -0.958861
H 0.739703 0.936442 0.495036
H 2.425557 -0.594678 1.414254
H 2.268934 -1.653808 0.021131
H 3.976317 0.675076 0.295791
H 3.834571 -0.385629 -1.100094
H 2.800706 1.025511 -0.959961
