15

C -3.498138 0.984357 -0.134189
C -2.057255 0.586231 -0.027594
C -1.648633 -0.47699 0.643604
C -0.236436 -0.948928 0.80641
C 0.806719 -0.081277 0.111942
H 1.230793154886357 -0.24125228984981884 0.18028634836492707
H -4.099641 0.161697 -0.520702
H -3.618551 1.845998 -0.785371
H -3.893633 1.241567 0.849937
H -1.3499 1.224655 -0.534196
H -2.388411 -1.098077 1.140119
H -0.00824 -1.001787 1.876628
H -0.172058 -1.970236 0.413756
H 0.598437 -0.05963 -0.961207
H 0.744546 0.939964 0.495946
