 19
 0.000000
  C 0.997327 0.127453 0.369157
  C 2.464094 0.141201 0.402426
  C 3.219265 0.613654 1.576516
  C 2.423029 1.095391 2.778098
  H 3.105885 1.410405 3.561999
  C 3.131062 -0.317056 -0.737611
  C 4.525842 -0.389283 -0.918306
  C 5.066422 -0.853015 -2.073206
  H 4.446059 -1.182274 -2.892581
  H 6.132434 -0.908931 -2.212886
  H 0.539408 0.493694 1.279880
  H 0.641301 -0.885387 0.165247
  H 0.641024 0.717085 -0.479086
  H 3.892990 1.415545 1.249077
  H 3.894595 -0.190642 1.894330
  H 1.794677 0.304844 3.183123
  H 1.793562 1.945952 2.524640
  H 2.521713 -0.650878 -1.567867
  H 5.183433 -0.069945 -0.123253
 19
 7.957365
  C 0.880105 0.126661 0.367246
  C 2.506144 0.142205 0.404919
  C 3.250833 0.613285 1.575557
  C 2.448122 1.092803 2.771658
  H 3.125932 1.409525 3.559783
  C 3.162550 -0.314161 -0.730387
  C 4.558239 -0.388576 -0.916531
  C 5.093246 -0.853279 -2.073862
  H 4.469364 -1.181271 -2.890071
  H 6.158294 -0.910937 -2.217904
  H 0.428186 0.492747 1.277601
  H 0.530254 -0.885081 0.165346
  H 0.529997 0.716922 -0.478803
  H 3.924769 1.416656 1.250767
  H 3.926436 -0.190217 1.896308
  H 1.819274 0.301142 3.172325
  H 1.818136 1.941111 2.514299
  H 2.548804 -0.647024 -1.558259
  H 5.219767 -0.070240 -0.123983
 19
 22.994436
  C 0.810781 0.127351 0.369010
  C 2.595452 0.152398 0.430114
  C 3.275295 0.633093 1.624589
  C 2.414313 1.097810 2.784176
  H 3.044224 1.428215 3.606370
  C 3.203520 -0.314326 -0.730919
  C 4.599079 -0.405259 -0.957952
  C 5.091924 -0.876160 -2.130676
  H 4.439548 -1.196125 -2.926911
  H 6.151591 -0.946774 -2.306861
  H 0.396209 0.497415 1.289310
  H 0.524176 -0.896205 0.172628
  H 0.523899 0.729973 -0.481258
  H 3.948755 1.452062 1.324291
  H 3.950567 -0.164586 1.973819
  H 1.777611 0.294385 3.146793
  H 1.776203 1.928152 2.491359
  H 2.561287 -0.639863 -1.540684
  H 5.287363 -0.094839 -0.184919
 19
 39.804797
  C 0.693393 0.122902 0.358026
  C 2.636671 0.155958 0.438778
  C 3.290204 0.633398 1.625242
  C 2.429724 1.096118 2.780030
  H 3.059692 1.426237 3.601568
  C 3.206867 -0.312532 -0.726674
  C 4.614104 -0.405706 -0.959088
  C 5.110941 -0.877608 -2.134107
  H 4.460015 -1.197839 -2.930960
  H 6.171068 -0.947489 -2.308459
  H 0.328490 0.497649 1.290053
  H 0.476234 -0.911721 0.175950
  H 0.475951 0.743418 -0.489605
  H 3.967694 1.448485 1.328472
  H 3.969608 -0.159093 1.974172
  H 1.793586 0.291708 3.141218
  H 1.792147 1.926230 2.485578
  H 2.553281 -0.635068 -1.528963
  H 5.298593 -0.093551 -0.181807
 19
 57.252642
  C 0.583584 0.119266 0.349017
  C 2.685792 0.157069 0.441411
  C 3.323149 0.639064 1.639085
  C 2.440164 1.097396 2.783385
  H 3.055069 1.432323 3.616847
  C 3.244331 -0.314168 -0.730835
  C 4.640311 -0.411181 -0.972608
  C 5.120729 -0.880026 -2.139956
  H 4.462008 -1.197864 -2.930760
  H 6.178779 -0.953271 -2.322766
  H 0.237763 0.497047 1.288497
  H 0.390702 -0.918700 0.171939
  H 0.390465 0.745635 -0.497384
  H 4.004388 1.461374 1.350953
  H 4.006438 -0.152541 1.999116
  H 1.803213 0.289100 3.132945
  H 1.801641 1.922153 2.477940
  H 2.585008 -0.634713 -1.528271
  H 5.329823 -0.101608 -0.201739
 19
 70.626581
  C 0.551034 0.110559 0.335215
  C 2.811479 0.166152 0.447641
  C 3.338404 0.669134 1.695846
  C 2.374201 1.101142 2.796395
  H 2.932747 1.448410 3.660990
  C 3.257414 -0.298909 -0.713356
  C 4.666572 -0.439630 -1.028543
  C 5.084534 -0.910261 -2.203227
  H 4.398015 -1.212293 -2.972788
  H 6.132108 -1.002318 -2.424042
  H 0.305797 0.498046 1.302043
  H 0.476014 -0.947222 0.174011
  H 0.471380 0.762875 -0.512591
  H 3.990391 1.525885 1.452507
  H 3.998831 -0.114659 2.105641
  H 1.749105 0.269101 3.108185
  H 1.740235 1.913937 2.453467
  H 2.567114 -0.603362 -1.491636
  H 5.378707 -0.144736 -0.269953
 19
 78.240528
  C 0.495063 0.100136 0.338350
  C 2.913643 0.193566 0.456511
  C 3.367254 0.699814 1.718557
  C 2.346687 1.094321 2.789781
  H 2.866781 1.446156 3.672399
  C 3.290784 -0.262298 -0.694659
  C 4.700013 -0.463986 -1.051016
  C 5.065721 -0.935704 -2.229638
  H 4.360005 -1.211289 -2.987838
  H 6.102776 -1.054646 -2.475129
  H 0.276662 0.484389 1.313468
  H 0.463111 -0.965940 0.175060
  H 0.441858 0.762993 -0.511452
  H 3.984432 1.582913 1.507210
  H 4.012793 -0.077998 2.149232
  H 1.737945 0.241124 3.073151
  H 1.709954 1.896595 2.430400
  H 2.585471 -0.540230 -1.468144
  H 5.429200 -0.200922 -0.293739
 19
 83.290717
  C 0.400795 0.090842 0.326997
  C 2.977123 0.204948 0.466244
  C 3.394804 0.717381 1.743132
  C 2.342636 1.095006 2.796109
  H 2.841572 1.450827 3.691996
  C 3.321964 -0.251566 -0.687098
  C 4.731259 -0.474772 -1.069230
  C 5.068158 -0.948812 -2.250608
  H 4.345969 -1.214384 -3.001911
  H 6.102811 -1.083756 -2.512079
  H 0.193389 0.475803 1.305740
  H 0.396228 -0.970384 0.166937
  H 0.371522 0.753478 -0.516765
  H 4.001843 1.613358 1.548750
  H 4.036105 -0.057917 2.188856
  H 1.740209 0.231749 3.063621
  H 1.704667 1.891725 2.424844
  H 2.606265 -0.520731 -1.452543
  H 5.469255 -0.223596 -0.323582
 19
 86.799251
  C 0.309572 0.087311 0.326037
  C 3.043848 0.216673 0.485110
  C 3.420669 0.730364 1.761878
  C 2.335813 1.089910 2.787919
  H 2.808035 1.449137 3.694301
  C 3.355693 -0.242308 -0.671723
  C 4.759134 -0.481329 -1.082451
  C 5.065204 -0.959193 -2.269261
  H 4.329498 -1.214928 -3.006215
  H 6.090442 -1.109003 -2.547853
  H 0.114698 0.473624 1.306163
  H 0.330875 -0.978430 0.169197
  H 0.305659 0.755080 -0.519480
  H 4.015159 1.634970 1.584937
  H 4.053779 -0.039407 2.223100
  H 1.740574 0.217370 3.037714
  H 1.698604 1.879185 2.401845
  H 2.627851 -0.505951 -1.427868
  H 5.511875 -0.236597 -0.346705
 19
 89.148103
  C 0.211171 0.081834 0.319804
  C 3.103329 0.226004 0.499109
  C 3.449440 0.743685 1.782729
  C 2.332059 1.086434 2.784497
  H 2.778844 1.450457 3.703628
  C 3.390235 -0.234873 -0.659873
  C 4.784406 -0.487441 -1.093158
  C 5.064768 -0.969808 -2.287901
  H 4.312959 -1.217389 -3.015208
  H 6.086069 -1.133309 -2.582924
  H 0.019684 0.468792 1.299938
  H 0.249005 -0.979595 0.166110
  H 0.223302 0.748112 -0.521362
  H 4.034421 1.659220 1.620653
  H 4.078610 -0.022342 2.259716
  H 1.743236 0.204375 3.017500
  H 1.694051 1.868275 2.383468
  H 2.651640 -0.492551 -1.406810
  H 5.548817 -0.250194 -0.370072
 19
 90.753367
  C 0.112616 0.079564 0.320823
  C 3.162882 0.236570 0.517606
  C 3.475163 0.754974 1.800193
  C 2.325282 1.079078 2.771682
  H 2.741961 1.447266 3.701660
  C 3.423856 -0.226970 -0.644998
  C 4.809788 -0.493892 -1.104638
  C 5.061418 -0.978986 -2.302786
  H 4.295132 -1.217826 -3.016201
  H 6.074339 -1.154945 -2.615096
  H -0.073056 0.467869 1.302300
  H 0.167313 -0.983894 0.169786
  H 0.141613 0.748556 -0.520791
  H 4.047878 1.678179 1.653860
  H 4.097807 -0.004113 2.292201
  H 1.744073 0.187811 2.985955
  H 1.687830 1.851739 2.353567
  H 2.672267 -0.478435 -1.381101
  H 5.588990 -0.263488 -0.394668
 19
 91.751004
  C 0.009087 0.075055 0.316980
  C 3.217402 0.245564 0.531238
  C 3.501273 0.767419 1.819799
  C 2.319106 1.073011 2.762914
  H 2.706630 1.445809 3.704865
  C 3.456586 -0.219586 -0.632519
  C 4.830739 -0.500648 -1.114502
  C 5.056471 -0.989237 -2.319121
  H 4.275367 -1.219208 -3.020580
  H 6.062983 -1.177205 -2.648184
  H -0.175405 0.463322 1.296879
  H 0.074822 -0.984742 0.168374
  H 0.048831 0.742514 -0.521168
  H 4.063699 1.701012 1.688112
  H 4.120177 0.013313 2.327716
  H 1.745539 0.172424 2.959156
  H 1.681632 1.836680 2.328058
  H 2.692750 -0.464056 -1.358470
  H 5.623233 -0.278270 -0.417877
 19
 92.325713
  C -0.097872 0.072783 0.318696
  C 3.268667 0.255761 0.548358
  C 3.522742 0.777907 1.835290
  C 2.310235 1.063820 2.746656
  H 2.666721 1.440197 3.698170
  C 3.486821 -0.211848 -0.618485
  C 4.850718 -0.507815 -1.124522
  C 5.049577 -0.998063 -2.331628
  H 4.254230 -1.218846 -3.020132
  H 6.048105 -1.197533 -2.677322
  H -0.280427 0.462356 1.300338
  H -0.021616 -0.988628 0.171813
  H -0.047864 0.742028 -0.520102
  H 4.072761 1.718267 1.718270
  H 4.135787 0.031396 2.357214
  H 1.745176 0.154301 2.924507
  H 1.673696 1.817921 2.294575
  H 2.710140 -0.448850 -1.333365
  H 5.657115 -0.293731 -0.441639
 19
 92.584406
  C -0.210989 0.068120 0.315365
  C 3.313760 0.264203 0.559968
  C 3.541872 0.789443 1.852518
  C 2.299829 1.055681 2.734099
  H 2.626648 1.435657 3.695743
  C 3.513169 -0.204674 -0.607187
  C 4.863839 -0.515556 -1.133934
  C 5.038100 -1.008269 -2.346238
  H 4.229815 -1.219254 -3.022449
  H 6.028993 -1.219231 -2.707445
  H -0.393338 0.457238 1.294756
  H -0.127818 -0.990033 0.170199
  H -0.154648 0.735684 -0.520611
  H 4.081201 1.739308 1.749389
  H 4.151375 0.048447 2.389396
  H 1.743625 0.137420 2.894453
  H 1.663971 1.800470 2.265776
  H 2.724030 -0.433462 -1.311783
  H 5.683159 -0.310685 -0.463910
