17

C -2.655073 0.176918 -0.361676
C -1.249256 -0.362374 -0.58599
C -0.311735 0.020968 0.555779
C 1.121204 -0.464725 0.329578
C 1.948237 0.544943 -0.48506
H 2.9983619045611722 0.2175123047111937 -0.47988075265333985
H -2.651095 1.264134 -0.357251
H -3.048716 -0.168232 0.591743
H -3.323823 -0.162053 -1.151058
H -1.288623 -1.448954 -0.665062
H -0.860574 0.031326 -1.524838
H -0.319984 1.105005 0.673623
H -0.690173 -0.407814 1.488151
H 1.112275 -1.411774 -0.215109
H 1.630926 -0.63169 1.278766
H 1.879071 1.539866 -0.02719
H 1.61283 0.580559 -1.52477
