 20
 0.000000
  C 1.041773 0.090429 0.306345
  C 2.516946 0.108859 0.371073
  C 3.216533 0.606982 1.569272
  H 2.543583 0.935238 2.350597
  C 3.189802 -0.357216 -0.747394
  C 4.567589 -0.426900 -0.939983
  C 5.198599 -0.870814 -2.096669
  C 4.537077 -1.348635 -3.329738
  H 3.458136 -1.346411 -3.312587
  O 6.509934 -0.895371 -2.177256
  H 0.575432 0.473805 1.208378
  H 0.686974 -0.927097 0.136595
  H 0.697214 0.680816 -0.546744
  H 3.870645 1.437681 1.297220
  H 3.865994 -0.173856 1.969905
  H 2.560570 -0.689484 -1.561022
  H 5.202589 -0.108995 -0.122598
  H 4.895089 -2.358381 -3.538678
  H 4.888404 -0.737787 -4.163313
  H 6.969020 -0.583364 -1.375177
 20
 -0.386214
  C 1.036376 0.171460 0.305418
  C 2.506858 0.065140 0.356788
  C 3.230416 0.544917 1.549115
  H 2.548016 0.810698 2.349984
  C 3.161920 -0.421514 -0.766908
  C 4.544952 -0.435096 -0.943524
  C 5.207802 -0.873425 -2.088359
  C 4.558480 -1.424499 -3.295966
  H 3.507879 -1.639771 -3.155609
  O 6.514024 -0.812554 -2.175141
  H 0.602152 0.428644 1.265633
  H 0.581993 -0.740722 -0.077887
  H 0.783904 0.957356 -0.412269
  H 3.825742 1.424810 1.300483
  H 3.925608 -0.211079 1.912372
  H 2.540410 -0.793728 -1.568075
  H 5.160033 -0.057638 -0.137412
  H 5.085253 -2.326598 -3.603328
  H 4.673067 -0.713112 -4.114844
  H 6.963507 -0.438968 -1.394047
 20
 -0.942455
  C 1.036570 0.166749 0.301003
  C 2.506867 0.076740 0.337110
  C 3.226105 0.575978 1.525864
  H 2.537515 0.917873 2.292889
  C 3.167596 -0.407286 -0.783736
  C 4.553547 -0.441603 -0.938158
  C 5.216742 -0.896779 -2.075919
  C 4.552795 -1.460363 -3.270827
  H 3.604145 -1.929165 -3.039927
  O 6.521980 -0.846661 -2.166067
  H 0.593560 0.227937 1.290366
  H 0.587463 -0.637194 -0.276246
  H 0.796586 1.096248 -0.233155
  H 3.882414 1.402708 1.256600
  H 3.860221 -0.203675 1.947306
  H 2.551884 -0.765809 -1.595820
  H 5.165167 -0.068477 -0.127172
  H 5.219110 -2.175204 -3.747806
  H 4.380005 -0.660796 -3.992232
  H 6.975958 -0.455827 -1.396543
 20
 1.919767
  C 1.033716 0.127735 0.338594
  C 2.496546 0.095007 0.323223
  C 3.224299 0.555716 1.525867
  H 2.539064 0.903733 2.294393
  C 3.149988 -0.365146 -0.812740
  C 4.533991 -0.361101 -0.988263
  C 5.201529 -0.859217 -2.101915
  C 4.559522 -1.519549 -3.259919
  H 3.562630 -1.880617 -3.039258
  O 6.508056 -0.792688 -2.190191
  H 0.582018 0.075708 1.321371
  H 0.550873 -0.477877 -0.416823
  H 0.931847 1.182088 -0.016366
  H 3.924523 1.357047 1.283495
  H 3.807941 -0.264418 1.940665
  H 2.531080 -0.768359 -1.598658
  H 5.146088 0.036589 -0.188387
  H 5.191498 -2.342513 -3.596966
  H 4.500926 -0.811873 -4.090216
  H 6.951433 -0.384422 -1.425974
 20
 15.178177
  C 1.025618 0.069164 0.383377
  C 2.473040 0.126928 0.305399
  C 3.224985 0.554976 1.513499
  H 2.557338 0.948173 2.271454
  C 3.135639 -0.421050 -0.793807
  C 4.519204 -0.364963 -0.980123
  C 5.192452 -0.886716 -2.080694
  C 4.547094 -1.513521 -3.258672
  H 3.584623 -1.952566 -3.024225
  O 6.498320 -0.766544 -2.203488
  H 0.534566 0.249594 1.331266
  H 0.490103 -0.502110 -0.364675
  H 1.204160 1.114592 -0.104778
  H 3.972137 1.311480 1.283159
  H 3.740636 -0.306853 1.932476
  H 2.539274 -0.836378 -1.588122
  H 5.128575 0.036620 -0.180421
  H 5.213302 -2.275580 -3.664773
  H 4.412169 -0.765473 -4.037107
  H 6.935963 -0.333822 -1.448971
 20
 33.261949
  C 1.004187 0.029504 0.420979
  C 2.433368 0.137038 0.304672
  C 3.217919 0.517611 1.522738
  H 2.559201 0.885867 2.304083
  C 3.115804 -0.384418 -0.823860
  C 4.492301 -0.365613 -0.989687
  C 5.166236 -0.854176 -2.101089
  C 4.542256 -1.543433 -3.253556
  H 3.554753 -1.929790 -3.024031
  O 6.487632 -0.768968 -2.198937
  H 0.501741 0.243695 1.347851
  H 0.426945 -0.388911 -0.385601
  H 1.591925 1.096370 -0.053732
  H 3.952284 1.291950 1.314639
  H 3.745120 -0.362545 1.889447
  H 2.507536 -0.783498 -1.626667
  H 5.100681 0.063760 -0.200093
  H 5.193326 -2.359271 -3.568438
  H 4.464131 -0.856112 -4.095233
  H 6.890916 -0.214065 -1.507245
 20
 40.677462
  C 0.993596 -0.047049 0.451804
  C 2.404589 0.205857 0.288176
  C 3.209854 0.562849 1.521292
  H 2.559732 0.909359 2.316526
  C 3.104386 -0.360099 -0.849632
  C 4.473056 -0.357412 -1.001810
  C 5.155090 -0.882845 -2.095508
  C 4.518824 -1.549468 -3.255676
  H 3.570623 -2.006049 -3.002740
  O 6.470263 -0.811396 -2.181967
  H 0.494606 0.189721 1.373351
  H 0.409708 -0.450697 -0.355317
  H 1.924095 1.156196 -0.154606
  H 3.939427 1.339707 1.313743
  H 3.737335 -0.319589 1.878021
  H 2.487588 -0.770182 -1.635755
  H 5.075532 0.075115 -0.216140
  H 5.197654 -2.302468 -3.649676
  H 4.360227 -0.816013 -4.050335
  H 6.895850 -0.353169 -1.432691
 20
 41.166824
  C 0.980062 -0.079896 0.503760
  C 2.369553 0.226276 0.304774
  C 3.180710 0.639714 1.523906
  H 2.518739 0.921565 2.337018
  C 3.080273 -0.397948 -0.828348
  C 4.443232 -0.383115 -0.988053
  C 5.125000 -0.894574 -2.091837
  C 4.489486 -1.487762 -3.291079
  H 3.492909 -1.867000 -3.094748
  O 6.436270 -0.861563 -2.153114
  H 0.494509 0.117387 1.438991
  H 0.389898 -0.490521 -0.292268
  H 2.220991 1.127080 -0.372750
  H 3.831948 1.480528 1.310781
  H 3.788210 -0.192925 1.860808
  H 2.455720 -0.862744 -1.573561
  H 5.046553 0.059469 -0.206484
  H 5.123205 -2.287755 -3.674118
  H 4.430787 -0.731490 -4.072539
  H 6.868420 -0.453209 -1.381453
 20
 43.828371
  C 0.976965 -0.038847 0.513435
  C 2.346548 0.189824 0.354581
  C 3.171230 0.588384 1.557908
  H 2.524939 0.839444 2.392365
  C 3.044603 -0.330382 -0.842429
  C 4.426469 -0.319176 -1.005366
  C 5.102302 -0.857115 -2.086789
  C 4.470190 -1.516680 -3.255617
  H 3.469673 -1.873870 -3.049246
  O 6.419384 -0.816208 -2.159139
  H 0.488579 0.138737 1.452161
  H 0.370187 -0.402344 -0.295921
  H 2.426197 0.981204 -0.533303
  H 3.808772 1.443045 1.355458
  H 3.800220 -0.245892 1.860749
  H 2.421426 -0.801076 -1.587844
  H 5.026027 0.134018 -0.228464
  H 5.097864 -2.345598 -3.577123
  H 4.431709 -0.811467 -4.085564
  H 6.849091 -0.367687 -1.409073
 20
 39.057169
  C 0.991105 -0.056149 0.538389
  C 2.328298 0.160447 0.401281
  C 3.162800 0.582102 1.573181
  H 2.530408 0.821626 2.423527
  C 3.015073 -0.276467 -0.849280
  C 4.422875 -0.289529 -1.005740
  C 5.094569 -0.854788 -2.066950
  C 4.455764 -1.503535 -3.238449
  H 3.460322 -1.871428 -3.022075
  O 6.416084 -0.850127 -2.127321
  H 0.489163 0.124529 1.470676
  H 0.379250 -0.402501 -0.274105
  H 2.580565 0.877073 -0.740063
  H 3.771959 1.452918 1.351997
  H 3.822103 -0.232890 1.860837
  H 2.387666 -0.771199 -1.576942
  H 5.019162 0.154987 -0.221191
  H 5.086384 -2.325330 -3.577059
  H 4.400707 -0.791060 -4.057403
  H 6.849363 -0.381122 -1.395082
 20
 28.844801
  C 1.007975 -0.050610 0.535046
  C 2.333292 0.129001 0.427548
  C 3.192399 0.493673 1.587701
  H 2.583847 0.648983 2.473728
  C 2.985642 -0.164278 -0.898577
  C 4.413539 -0.212666 -1.039355
  C 5.090020 -0.834963 -2.067056
  C 4.456231 -1.553757 -3.197374
  H 3.442434 -1.867223 -2.984130
  O 6.408176 -0.821816 -2.127470
  H 0.500678 0.105351 1.470608
  H 0.395171 -0.352772 -0.296042
  H 2.632889 0.917106 -0.977054
  H 3.757206 1.404987 1.402635
  H 3.899158 -0.308625 1.790339
  H 2.379736 -0.726770 -1.597517
  H 5.004424 0.279657 -0.280205
  H 5.064772 -2.417935 -3.455687
  H 4.449206 -0.904708 -4.073456
  H 6.842519 -0.339761 -1.400526
 20
 21.029295
  C 1.026751 -0.044781 0.550541
  C 2.352020 0.110053 0.438287
  C 3.226774 0.462967 1.585115
  H 2.644960 0.543787 2.498446
  C 2.962220 -0.082006 -0.924113
  C 4.405587 -0.171594 -1.048206
  C 5.084135 -0.836733 -2.049444
  C 4.451909 -1.573376 -3.166876
  H 3.416071 -1.824255 -2.979664
  O 6.400508 -0.848505 -2.090529
  H 0.522147 0.065810 1.494378
  H 0.404419 -0.303183 -0.288736
  H 2.661730 0.942998 -1.235616
  H 3.727145 1.415835 1.420008
  H 3.989638 -0.302024 1.721114
  H 2.388431 -0.753734 -1.556282
  H 4.994954 0.340604 -0.300738
  H 5.022715 -2.477508 -3.369273
  H 4.511903 -0.964308 -4.069850
  H 6.838206 -0.350294 -1.375997
 20
 19.187488
  C 1.024174 0.023222 0.584042
  C 2.357605 0.090980 0.455411
  C 3.251490 0.442863 1.587348
  H 2.687967 0.522475 2.512092
  C 2.939837 -0.146937 -0.906036
  C 4.391748 -0.184875 -1.040756
  C 5.082393 -0.814436 -2.056824
  C 4.465087 -1.548113 -3.184290
  H 3.399725 -1.694981 -3.068338
  O 6.398343 -0.793453 -2.102112
  H 0.534307 0.187558 1.527654
  H 0.380098 -0.220132 -0.243673
  H 2.575506 0.755579 -1.433105
  H 3.741540 1.399265 1.408820
  H 4.023647 -0.315538 1.707754
  H 2.437481 -0.973640 -1.410262
  H 4.970999 0.345055 -0.298066
  H 4.961732 -2.509948 -3.303338
  H 4.653331 -0.996879 -4.106198
  H 6.827218 -0.299382 -1.379585
 20
 18.916659
  C 1.021897 0.100095 0.580325
  C 2.360365 0.074757 0.471406
  C 3.253889 0.427038 1.603336
  H 2.685924 0.548275 2.520728
  C 2.940193 -0.256616 -0.866823
  C 4.391812 -0.217393 -1.021885
  C 5.084343 -0.778680 -2.075318
  C 4.466696 -1.495123 -3.214039
  H 3.388717 -1.553959 -3.148321
  O 6.397604 -0.706970 -2.147984
  H 0.534812 0.371396 1.500378
  H 0.371610 -0.160334 -0.237004
  H 2.488129 0.509229 -1.522204
  H 3.774079 1.363573 1.404330
  H 4.002240 -0.350402 1.749229
  H 2.517080 -1.193760 -1.242114
  H 4.963189 0.308967 -0.271263
  H 4.887743 -2.498047 -3.279827
  H 4.748900 -0.993169 -4.139358
  H 6.825006 -0.230192 -1.413054
 20
 18.467915
  C 1.018933 0.078287 0.592238
  C 2.356938 0.094913 0.465413
  C 3.250034 0.460233 1.595479
  H 2.680670 0.595720 2.510124
  C 2.942956 -0.257398 -0.864529
  C 4.398331 -0.233197 -1.009915
  C 5.085660 -0.783000 -2.072744
  C 4.459480 -1.468276 -3.225509
  H 3.379559 -1.496060 -3.171259
  O 6.399388 -0.728434 -2.141812
  H 0.536224 0.304046 1.526441
  H 0.368389 -0.168651 -0.229491
  H 2.506266 0.463058 -1.578730
  H 3.772350 1.392573 1.382329
  H 3.996244 -0.316497 1.756169
  H 2.526953 -1.214516 -1.202407
  H 4.974989 0.269678 -0.247142
  H 4.850976 -2.482810 -3.296711
  H 4.767355 -0.966769 -4.142587
  H 6.832536 -0.274220 -1.394819
