 26
 0.000000
  C 0.965989 0.141541 0.403937
  C 2.441886 0.138164 0.395112
  C 3.233127 0.605919 1.558762
  C 2.460501 1.095991 2.778537
  H 3.141908 1.409118 3.557633
  C 3.054003 -0.327305 -0.763508
  C 4.431762 -0.411464 -0.973716
  C 5.115636 -0.861508 -2.095979
  C 4.625787 -1.384569 -3.400206
  C 3.137094 -1.502711 -3.695325
  H 2.988735 -1.901446 -4.689626
  O 6.438113 -0.854395 -2.078665
  H 0.537370 0.512682 1.327416
  H 0.592480 -0.869592 0.236896
  H 0.592193 0.755708 -0.416364
  H 3.889639 1.416058 1.222136
  H 3.889870 -0.211698 1.876292
  H 1.826045 0.303901 3.172913
  H 1.825900 1.940636 2.515245
  H 2.393786 -0.643916 -1.551567
  H 5.044520 -0.078368 -0.144398
  H 5.085213 -2.371745 -3.524029
  H 5.085494 -0.756738 -4.171875
  H 2.658730 -0.526720 -3.648007
  H 2.658489 -2.175442 -2.986800
  H 6.812607 -0.519655 -1.242292
 26
 4.762116
  C 0.985902 0.132965 0.381760
  C 2.448703 0.148236 0.419442
  C 3.208036 0.619813 1.593150
  C 2.395978 1.099394 2.787850
  H 3.072410 1.417913 3.580972
  C 3.113433 -0.301328 -0.699757
  C 4.466927 -0.403659 -0.954480
  C 5.121996 -0.868547 -2.113618
  C 4.584158 -1.386019 -3.403470
  C 3.085529 -1.489182 -3.660971
  H 2.941877 -1.891674 -4.664130
  O 6.451206 -0.879164 -2.140753
  H 0.535585 0.499560 1.294305
  H 0.631781 -0.881514 0.189879
  H 0.631348 0.732597 -0.458546
  H 3.869652 1.430576 1.267336
  H 3.869966 -0.190785 1.918609
  H 1.766450 0.307428 3.184098
  H 1.766223 1.945384 2.526524
  H 2.667715 -0.658543 -1.589329
  H 5.149059 -0.085058 -0.160737
  H 5.039300 -2.374981 -3.535928
  H 5.039614 -0.763215 -4.182844
  H 2.601448 -0.517529 -3.626835
  H 2.601056 -2.167649 -2.964703
  H 6.885226 -0.552981 -1.326307
 26
 14.813323
  C 0.999620 0.120196 0.351100
  C 2.469956 0.155730 0.436751
  C 3.196140 0.637453 1.635090
  C 2.353400 1.107727 2.809917
  H 3.007807 1.432410 3.617925
  C 3.183283 -0.284094 -0.658907
  C 4.523678 -0.400146 -0.947967
  C 5.111147 -0.869712 -2.116628
  C 4.538741 -1.384081 -3.397167
  C 3.047197 -1.486033 -3.654974
  H 2.911960 -1.889096 -4.658026
  O 6.427672 -0.898349 -2.185558
  H 0.510967 0.480554 1.248626
  H 0.668151 -0.895921 0.144360
  H 0.666801 0.710125 -0.501109
  H 3.858921 1.451604 1.324847
  H 3.860894 -0.164034 1.973020
  H 1.725406 0.307291 3.193382
  H 1.723811 1.950289 2.534592
  H 2.916928 -0.660643 -1.596073
  H 5.257510 -0.102101 -0.206067
  H 4.986488 -2.371949 -3.533942
  H 4.988454 -0.767094 -4.179478
  H 2.559197 -0.514346 -3.632655
  H 2.557316 -2.171014 -2.966788
  H 6.888207 -0.576604 -1.382149
 26
 27.994294
  C 1.012780 0.106935 0.323053
  C 2.480258 0.157868 0.439207
  C 3.182691 0.646764 1.652823
  C 2.314620 1.110108 2.817583
  H 2.950624 1.439072 3.634054
  C 3.220480 -0.272546 -0.634678
  C 4.553892 -0.397995 -0.949828
  C 5.124619 -0.876918 -2.133089
  C 4.522892 -1.385248 -3.396777
  C 3.007199 -1.469421 -3.619677
  H 2.842819 -1.871033 -4.617652
  O 6.443363 -0.919783 -2.228445
  H 0.503805 0.461862 1.209823
  H 0.694981 -0.918905 0.107982
  H 0.689858 0.696691 -0.541582
  H 3.847617 1.467659 1.351054
  H 3.853364 -0.151328 1.999571
  H 1.687587 0.304277 3.190537
  H 1.681949 1.947072 2.533039
  H 3.107464 -0.661437 -1.598753
  H 5.330913 -0.099176 -0.212608
  H 4.961414 -2.386509 -3.543151
  H 4.967602 -0.769290 -4.196356
  H 2.529315 -0.493556 -3.586090
  H 2.522920 -2.146197 -2.920180
  H 6.917343 -0.607942 -1.444985
 26
 42.576986
  C 1.013934 0.097664 0.300652
  C 2.479466 0.155300 0.433061
  C 3.168286 0.647800 1.654734
  C 2.287571 1.107292 2.810179
  H 2.915581 1.439692 3.634526
  C 3.236918 -0.268771 -0.624743
  C 4.588618 -0.403870 -0.964477
  C 5.146260 -0.882093 -2.145138
  C 4.506630 -1.386586 -3.399533
  C 2.994602 -1.446675 -3.563764
  H 2.787785 -1.845773 -4.556507
  O 6.460907 -0.931038 -2.255344
  H 0.493388 0.450869 1.182964
  H 0.704586 -0.926387 0.082657
  H 0.699110 0.683638 -0.565016
  H 3.833244 1.468538 1.357207
  H 3.839517 -0.146724 2.004780
  H 1.660059 0.298065 3.177252
  H 1.653842 1.942102 2.519048
  H 3.260893 -0.661296 -1.597567
  H 5.376283 -0.119045 -0.263048
  H 4.924777 -2.386569 -3.559203
  H 4.931182 -0.780831 -4.207668
  H 2.532420 -0.461869 -3.511258
  H 2.525431 -2.116785 -2.844778
  H 6.941660 -0.622106 -1.479660
 26
 55.461217
  C 1.001718 0.106968 0.324703
  C 2.464684 0.159452 0.442681
  C 3.161108 0.650120 1.659713
  C 2.288499 1.110785 2.820293
  H 2.919695 1.441361 3.639605
  C 3.209672 -0.268414 -0.625073
  C 4.571185 -0.408856 -0.981224
  C 5.143011 -0.887459 -2.159260
  C 4.518352 -1.393667 -3.416170
  C 3.000072 -1.456232 -3.589134
  H 2.795273 -1.855680 -4.581480
  O 6.455428 -0.932709 -2.256623
  H 0.493410 0.461738 1.211373
  H 0.685985 -0.917844 0.108477
  H 0.679633 0.694342 -0.540159
  H 3.826629 1.469462 1.357215
  H 3.834063 -0.146064 2.004629
  H 1.662239 0.303562 3.189885
  H 1.654889 1.945340 2.533070
  H 3.338471 -0.659738 -1.594342
  H 5.367247 -0.121590 -0.278015
  H 4.941155 -2.397491 -3.571359
  H 4.948954 -0.783845 -4.224514
  H 2.537633 -0.473442 -3.537157
  H 2.529538 -2.123891 -2.871306
  H 6.940801 -0.615884 -1.456773
 26
 66.704787
  C 0.966688 0.130744 0.322870
  C 2.444562 0.160129 0.432148
  C 3.160807 0.631578 1.651682
  C 2.318538 1.094246 2.814968
  H 2.967924 1.408970 3.630610
  C 3.170664 -0.271566 -0.644470
  C 4.543126 -0.399288 -0.996494
  C 5.143287 -0.879858 -2.164017
  C 4.531613 -1.399906 -3.417170
  C 3.019902 -1.470914 -3.575528
  H 2.805796 -1.877501 -4.561372
  O 6.459128 -0.908954 -2.246198
  H 0.465284 0.485121 1.210852
  H 0.638514 -0.880216 0.100973
  H 0.649511 0.721612 -0.531210
  H 3.830407 1.439243 1.354078
  H 3.819042 -0.170076 1.987972
  H 1.686092 0.297296 3.184670
  H 1.698479 1.938326 2.541085
  H 3.392686 -0.657569 -1.600379
  H 5.330383 -0.089330 -0.268065
  H 4.957608 -2.396361 -3.566178
  H 4.951933 -0.797061 -4.227262
  H 2.556689 -0.490859 -3.523266
  H 2.562786 -2.133143 -2.847210
  H 6.919390 -0.586919 -1.459831
 26
 74.397887
  C 0.954901 0.227927 0.302305
  C 2.434683 0.170802 0.407413
  C 3.165065 0.563331 1.661883
  C 2.318419 1.042102 2.836434
  H 2.975175 1.309353 3.668043
  C 3.137341 -0.255772 -0.656082
  C 4.525593 -0.353220 -1.050611
  C 5.156104 -0.846930 -2.188673
  C 4.555582 -1.423728 -3.425909
  C 3.037351 -1.538936 -3.539110
  H 2.801559 -1.986301 -4.508538
  O 6.473847 -0.838106 -2.270364
  H 0.482582 0.577374 1.211816
  H 0.586776 -0.769634 0.061847
  H 0.647249 0.866197 -0.523521
  H 3.867970 1.358243 1.374582
  H 3.787293 -0.275906 1.994409
  H 1.643130 0.261066 3.189055
  H 1.735343 1.924843 2.573098
  H 3.420048 -0.644104 -1.622798
  H 5.275272 0.007452 -0.324691
  H 5.005566 -2.416696 -3.543360
  H 4.946207 -0.839352 -4.265722
  H 2.546494 -0.559682 -3.507717
  H 2.613689 -2.193026 -2.767860
  H 6.933292 -0.475739 -1.480302
 26
 78.213577
  C 0.938453 0.331994 0.304528
  C 2.428774 0.189871 0.390932
  C 3.166830 0.501570 1.676808
  C 2.314341 0.975278 2.840086
  H 2.957761 1.178080 3.680798
  C 3.114979 -0.229841 -0.656199
  C 4.510455 -0.310227 -1.123811
  C 5.170252 -0.813382 -2.216756
  C 4.578619 -1.460485 -3.434038
  C 3.069327 -1.612876 -3.490074
  H 2.807128 -2.097679 -4.420834
  O 6.495690 -0.761165 -2.302280
  H 0.508783 0.676203 1.233785
  H 0.503127 -0.640029 0.047126
  H 0.661099 1.032157 -0.493329
  H 3.901308 1.274208 1.426052
  H 3.732411 -0.381773 1.988575
  H 1.605385 0.220304 3.147692
  H 1.783902 1.885649 2.602336
  H 3.428772 -0.625578 -1.646860
  H 5.205990 0.125924 -0.390454
  H 5.051775 -2.443733 -3.519289
  H 4.932666 -0.896024 -4.302066
  H 2.563408 -0.655264 -3.482834
  H 2.695563 -2.239582 -2.692137
  H 6.937544 -0.361030 -1.531659
 26
 81.228200
  C 0.935194 0.415360 0.286828
  C 2.420364 0.216619 0.382961
  C 3.161517 0.452434 1.696816
  C 2.311358 0.916243 2.875584
  H 2.961397 1.060408 3.738579
  C 3.097893 -0.192153 -0.663326
  C 4.499339 -0.263469 -1.178798
  C 5.179250 -0.789940 -2.249606
  C 4.598631 -1.497046 -3.433120
  C 3.087705 -1.686889 -3.457952
  H 2.818231 -2.218941 -4.374222
  O 6.500594 -0.699810 -2.338104
  H 0.515761 0.741768 1.215944
  H 0.463524 -0.521220 -0.001982
  H 0.701139 1.147026 -0.478428
  H 3.926452 1.207063 1.486489
  H 3.680987 -0.465433 1.974861
  H 1.565835 0.176495 3.148673
  H 1.820465 1.860779 2.670144
  H 3.443050 -0.576779 -1.659521
  H 5.161432 0.235701 -0.452063
  H 5.093774 -2.467938 -3.485038
  H 4.925893 -0.957642 -4.321306
  H 2.555100 -0.732997 -3.479700
  H 2.739527 -2.297746 -2.620189
  H 6.931427 -0.258244 -1.584366
 26
 83.947741
  C 0.939118 0.510063 0.276996
  C 2.411838 0.244930 0.380898
  C 3.147104 0.394276 1.712744
  C 2.308212 0.838553 2.894478
  H 2.953109 0.917840 3.767628
  C 3.080442 -0.151060 -0.673099
  C 4.493850 -0.203077 -1.226701
  C 5.184706 -0.764609 -2.275659
  C 4.611286 -1.537053 -3.419402
  C 3.109151 -1.767043 -3.408712
  H 2.840200 -2.340377 -4.290699
  O 6.499844 -0.635310 -2.381528
  H 0.515238 0.826547 1.233501
  H 0.426828 -0.397672 -0.052974
  H 0.748048 1.284890 -0.467905
  H 3.944612 1.125774 1.546922
  H 3.623665 -0.558001 1.954954
  H 1.529436 0.118085 3.127395
  H 1.859806 1.812340 2.724921
  H 3.461581 -0.518870 -1.676590
  H 5.132218 0.351576 -0.523634
  H 5.132271 -2.496838 -3.438380
  H 4.909330 -1.025259 -4.335452
  H 2.550400 -0.827882 -3.458760
  H 2.793768 -2.348918 -2.538075
  H 6.923534 -0.144332 -1.654597
 26
 86.357604
  C 0.936233 0.594564 0.282006
  C 2.394615 0.273072 0.373728
  C 3.137367 0.338097 1.708957
  C 2.317496 0.758138 2.914388
  H 2.967120 0.775792 3.787015
  C 3.048043 -0.101241 -0.698298
  C 4.475630 -0.139365 -1.270256
  C 5.184992 -0.732845 -2.289541
  C 4.629327 -1.577831 -3.392507
  C 3.127936 -1.841553 -3.365567
  H 2.870386 -2.467922 -4.216137
  O 6.497301 -0.581031 -2.392111
  H 0.528594 0.884039 1.236985
  H 0.393625 -0.271983 -0.080810
  H 0.776267 1.401875 -0.427422
  H 3.960231 1.047836 1.574225
  H 3.581385 -0.643913 1.906114
  H 1.513822 0.054712 3.118505
  H 1.902771 1.755459 2.790155
  H 3.470121 -0.444316 -1.715702
  H 5.084698 0.464911 -0.590282
  H 5.172643 -2.527134 -3.363670
  H 4.915211 -1.105476 -4.336590
  H 2.549652 -0.922547 -3.462018
  H 2.829357 -2.378313 -2.466945
  H 6.906696 -0.048333 -1.687462
 26
 87.869528
  C 0.932372 0.645693 0.291900
  C 2.390751 0.301780 0.361591
  C 3.136741 0.295998 1.697176
  C 2.322140 0.676193 2.921453
  H 2.971837 0.643861 3.794363
  C 3.033220 -0.036825 -0.723854
  C 4.467438 -0.080178 -1.309374
  C 5.188879 -0.713835 -2.302592
  C 4.642592 -1.618529 -3.357813
  C 3.145651 -1.890174 -3.312627
  H 2.889702 -2.564629 -4.124003
  O 6.499027 -0.560719 -2.403876
  H 0.529872 0.901149 1.270081
  H 0.374206 -0.200993 -0.105600
  H 0.778851 1.488582 -0.383670
  H 3.971079 0.997037 1.593303
  H 3.564990 -0.701622 1.850805
  H 1.505180 -0.022897 3.094008
  H 1.923956 1.686197 2.842283
  H 3.481903 -0.353048 -1.766297
  H 5.060228 0.562914 -0.651748
  H 5.191445 -2.558248 -3.278936
  H 4.922778 -1.197114 -4.324907
  H 2.560045 -0.981193 -3.458659
  H 2.853679 -2.375021 -2.382313
  H 6.902547 0.006373 -1.720636
 26
 89.010524
  C 0.937035 0.670591 0.305766
  C 2.391837 0.308397 0.364627
  C 3.134817 0.254206 1.699141
  C 2.319458 0.611082 2.930364
  H 2.962912 0.544589 3.802720
  C 3.035821 0.000396 -0.727998
  C 4.464750 -0.039878 -1.341098
  C 5.193054 -0.697261 -2.314461
  C 4.651314 -1.651993 -3.329577
  C 3.155388 -1.930702 -3.264749
  H 2.898770 -2.642887 -4.041749
  O 6.502710 -0.539332 -2.416294
  H 0.539847 0.896023 1.283500
  H 0.369659 -0.149598 -0.116997
  H 0.795493 1.535180 -0.338957
  H 3.981723 0.946392 1.618590
  H 3.548413 -0.755501 1.824005
  H 1.493174 -0.079229 3.079016
  H 1.936475 1.627311 2.879066
  H 3.501490 -0.279027 -1.806705
  H 5.038091 0.634280 -0.704412
  H 5.208826 -2.587653 -3.211214
  H 4.925323 -1.270423 -4.319375
  H 2.564034 -1.034642 -3.448149
  H 2.872277 -2.371431 -2.312191
  H 6.899731 0.054942 -1.753646
