 16
 0.000000
  H 1.460505 0.115923 0.340983
  C 2.542753 0.115200 0.338877
  C 3.222506 0.597393 1.536394
  H 2.519327 0.906031 2.303906
  C 3.162791 -0.345260 -0.806458
  C 4.556694 -0.414793 -0.981160
  C 5.188508 -0.871377 -2.119709
  C 4.572216 -1.360423 -3.341294
  H 3.488578 -1.356663 -3.334745
  H 6.270890 -0.869150 -2.112824
  H 3.885014 1.431806 1.294947
  H 3.885748 -0.171124 1.940059
  H 2.526386 -0.671682 -1.617686
  H 5.186137 -0.088453 -0.168228
  H 4.940706 -2.367265 -3.549555
  H 4.942371 -0.776757 -4.187055
 16
 0.270992
  H 1.462670 0.316834 0.291134
  C 2.536871 0.207283 0.289624
  C 3.229388 0.503843 1.538174
  H 2.541338 0.777607 2.323558
  C 3.146261 -0.187974 -0.885089
  C 4.538738 -0.272373 -1.047442
  C 5.180553 -0.755135 -2.168390
  C 4.575612 -1.441987 -3.291895
  H 3.505688 -1.561822 -3.218385
  H 6.253904 -0.635267 -2.212995
  H 3.949492 1.311239 1.397752
  H 3.824923 -0.350974 1.864671
  H 2.510807 -0.411619 -1.731006
  H 5.154614 0.096038 -0.236773
  H 5.046576 -2.421572 -3.405880
  H 4.840055 -0.924800 -4.216430
 16
 2.656647
  H 1.470596 0.464195 0.324660
  C 2.530340 0.264713 0.244090
  C 3.267261 0.356426 1.509590
  H 2.596770 0.584948 2.332148
  C 3.108264 -0.007589 -0.972274
  C 4.501371 -0.142018 -1.113650
  C 5.165871 -0.645750 -2.208065
  C 4.604068 -1.566577 -3.180029
  H 3.566267 -1.816507 -2.985890
  H 6.202523 -0.364315 -2.347491
  H 4.026592 1.138525 1.472601
  H 3.771443 -0.583107 1.741574
  H 2.484650 -0.054127 -1.853977
  H 5.084770 0.150753 -0.244078
  H 5.203842 -2.479797 -3.195139
  H 4.726033 -1.160251 -4.188037
 16
 10.478365
  H 1.461569 0.517359 0.355583
  C 2.517684 0.297537 0.216579
  C 3.322592 0.236506 1.452760
  H 2.656201 0.390027 2.307434
  C 3.046326 0.174708 -1.041010
  C 4.428096 -0.007789 -1.204699
  C 5.135522 -0.580787 -2.230734
  C 4.677294 -1.701499 -3.038350
  H 3.679164 -2.030696 -2.767320
  H 6.127765 -0.205233 -2.442552
  H 4.039754 1.049906 1.523754
  H 3.752550 -0.748983 1.622870
  H 2.421396 0.298196 -1.911818
  H 4.952306 0.153052 -0.257203
  H 5.383941 -2.526764 -2.934821
  H 4.715247 -1.435928 -4.099046
 16
 27.089533
  H 1.462798 0.484861 0.546126
  C 2.483692 0.375136 0.211728
  C 3.484203 0.102821 1.279685
  H 2.954073 0.171412 2.246612
  C 2.860464 0.408424 -1.097368
  C 4.214076 0.171461 -1.379718
  C 5.042615 -0.490040 -2.231055
  C 4.722447 -1.737184 -2.929369
  H 3.725238 -2.103452 -2.687340
  H 6.042763 -0.104249 -2.393222
  H 4.195505 0.916714 1.422650
  H 3.848032 -0.920251 1.293406
  H 2.164928 0.661475 -1.884329
  H 4.655748 0.171242 -0.331035
  H 5.457905 -2.487088 -2.634060
  H 4.824427 -1.606345 -4.010036
 16
 40.799140
  H 1.493256 0.649322 0.669425
  C 2.467845 0.420461 0.260166
  C 3.575845 0.120261 1.225101
  H 3.123687 0.227204 2.231428
  C 2.748975 0.372617 -1.068308
  C 4.062461 0.050402 -1.407087
  C 4.990184 -0.515993 -2.205608
  C 4.821122 -1.772800 -2.943075
  H 3.823712 -2.177251 -2.812237
  H 5.946782 -0.034252 -2.323360
  H 4.287481 0.929703 1.342903
  H 3.856709 -0.936964 1.311024
  H 2.027307 0.628031 -1.833350
  H 4.511007 0.014078 -0.234206
  H 5.568536 -2.503573 -2.623445
  H 4.993147 -1.583772 -4.006741
 16
 56.698961
  H 1.490576 0.651785 0.702127
  C 2.441052 0.413100 0.264235
  C 3.642722 0.022031 1.093824
  H 3.339195 0.075972 2.158153
  C 2.653823 0.435992 -1.096021
  C 3.893830 0.105156 -1.553992
  C 4.879670 -0.404365 -2.242600
  C 4.886436 -1.768954 -2.861659
  H 3.940670 -2.280488 -2.710510
  H 5.809347 0.145520 -2.358682
  H 4.397293 0.833490 1.240807
  H 3.869872 -1.062909 1.107407
  H 1.897871 0.765939 -1.792343
  H 4.372465 0.007708 0.047170
  H 5.696778 -2.365468 -2.446241
  H 5.069963 -1.667019 -3.929530
 16
 55.001762
  H 1.509768 0.660404 0.725660
  C 2.450467 0.397816 0.279681
  C 3.656744 0.019056 1.108667
  H 3.377894 0.080065 2.181294
  C 2.607426 0.401840 -1.094357
  C 3.781424 0.061453 -1.671695
  C 4.803664 -0.368825 -2.341084
  C 4.958970 -1.762744 -2.882367
  H 4.080758 -2.367812 -2.675762
  H 5.659142 0.276650 -2.519662
  H 4.372908 0.868965 1.307882
  H 3.838157 -1.080115 1.173878
  H 1.800350 0.724917 -1.737197
  H 4.419828 -0.037019 0.226247
  H 5.839203 -2.237869 -2.452742
  H 5.105845 -1.710263 -3.959646
 16
 53.574300
  H 1.549119 0.699537 0.711500
  C 2.484899 0.401072 0.268576
  C 3.655254 0.002410 1.135863
  H 3.311795 -0.050048 2.198081
  C 2.609371 0.398872 -1.107779
  C 3.730537 0.044034 -1.767612
  C 4.767119 -0.354690 -2.426883
  C 5.002973 -1.762776 -2.906091
  H 4.178905 -2.415143 -2.632284
  H 5.559204 0.342479 -2.686813
  H 4.229355 0.889548 1.549483
  H 3.826503 -1.100744 1.153872
  H 1.767040 0.718973 -1.710192
  H 4.537662 0.044680 0.427760
  H 5.929193 -2.151037 -2.486676
  H 5.104452 -1.762358 -3.989593
 16
 53.158455
  H 1.574111 0.735056 0.709231
  C 2.501293 0.417437 0.266932
  C 3.657993 0.015570 1.152818
  H 3.315684 -0.019871 2.218975
  C 2.611496 0.399638 -1.110261
  C 3.712987 0.029719 -1.793900
  C 4.755448 -0.351506 -2.455077
  C 5.022509 -1.756356 -2.923571
  H 4.215526 -2.426440 -2.640223
  H 5.524712 0.364327 -2.732910
  H 4.231917 0.914332 1.520858
  H 3.734690 -1.100391 1.258076
  H 1.758515 0.713962 -1.700230
  H 4.547024 -0.108409 0.474339
  H 5.960240 -2.118600 -2.504977
  H 5.119236 -1.763660 -4.008870
