13

C 1.006423 -0.072047 0.046427
C 2.502806 -0.082739 0.025529
C 3.219854 -0.595099 -0.980378
C 4.658091 -0.605503 -1.000392
C 5.377911 -1.121121 -2.012308
H 6.44779277337551 -1.1281833308482978 -2.026559823808322
H 0.646196 0.393886 0.962992
H 0.609966 -1.086648 0.00805
H 0.608975 0.495516 -0.795427
H 3.002227 0.352496 0.881309
H 2.709483 -1.028809 -1.831902
H 5.163936 -0.170045 -0.147001
H 4.873479 -1.556396 -2.866088
