 13
 0.000000
  C 1.008040 -0.071518 0.047445
  C 2.504114 -0.084788 0.021915
  C 3.217957 -0.595724 -0.981224
  C 4.660053 -0.608131 -1.005728
  C 5.370390 -1.118163 -2.006461
  H 6.444985 -1.123692 -2.018333
  H 0.648400 0.393731 0.963043
  H 0.610713 -1.084699 0.006276
  H 0.610435 0.493811 -0.794433
  H 3.006688 0.349203 0.875495
  H 2.707543 -1.029014 -1.831727
  H 5.166377 -0.172660 -0.153508
  H 4.871447 -1.553048 -2.858509
 13
 -0.562679
  C 1.007085 -0.069885 0.065030
  C 2.498293 -0.047565 -0.001886
  C 3.213895 -0.610124 -0.974900
  C 4.656413 -0.571506 -1.040015
  C 5.369818 -1.171400 -1.987542
  H 6.444889 -1.124230 -2.010551
  H 0.662442 0.039697 1.090573
  H 0.612530 -0.997478 -0.345003
  H 0.590846 0.754656 -0.516599
  H 3.005608 0.481391 0.794793
  H 2.712436 -1.141943 -1.773929
  H 5.155377 -0.011126 -0.259165
  H 4.898187 -1.734907 -2.776117
 13
 -0.727800
  C 1.018391 -0.088462 0.092102
  C 2.500501 -0.015404 -0.034989
  C 3.201970 -0.561919 -1.025513
  C 4.641566 -0.479222 -1.131129
  C 5.370436 -1.254679 -1.926338
  H 6.442581 -1.176907 -1.975206
  H 0.732686 -0.387047 1.100634
  H 0.598133 -0.794030 -0.620333
  H 0.584865 0.895293 -0.093834
  H 3.012574 0.538536 0.742821
  H 2.695337 -1.124165 -1.799521
  H 5.122756 0.261729 -0.505184
  H 4.914982 -1.998986 -2.558906
 13
 2.400137
  C 1.043131 -0.130467 0.149533
  C 2.526214 -0.097140 -0.022749
  C 3.164557 -0.441367 -1.134488
  C 4.618240 -0.350323 -1.295796
  C 5.364607 -1.306317 -1.827321
  H 6.434096 -1.215628 -1.914763
  H 0.775712 -0.484173 1.143535
  H 0.576043 -0.768582 -0.595024
  H 0.641060 0.878368 0.042132
  H 3.091688 0.262372 0.827488
  H 2.609139 -0.825755 -1.981643
  H 5.075486 0.570201 -0.946892
  H 4.930791 -2.226080 -2.186759
 13
 5.624791
  C 1.086957 -0.143075 0.222679
  C 2.558662 -0.239900 -0.023277
  C 3.105274 -0.437660 -1.214096
  C 4.545846 -0.294259 -1.483937
  C 5.382879 -1.286233 -1.726171
  H 6.427303 -1.118065 -1.926756
  H 0.826914 -0.458881 1.229748
  H 0.523789 -0.729709 -0.498937
  H 0.803878 0.903637 0.110332
  H 3.195506 -0.028366 0.827192
  H 2.476828 -0.646759 -2.072572
  H 4.886314 0.734049 -1.465318
  H 5.052308 -2.312305 -1.735490
 13
 9.409645
  C 1.110650 -0.085766 0.254571
  C 2.559535 -0.358201 0.014906
  C 3.076882 -0.586512 -1.184002
  C 4.481209 -0.330105 -1.528422
  C 5.435183 -1.215033 -1.757269
  H 6.432939 -0.922079 -2.032686
  H 0.816720 -0.234469 1.289835
  H 0.471450 -0.677773 -0.397330
  H 0.984665 0.971686 -0.001895
  H 3.216228 -0.230870 0.865027
  H 2.411989 -0.741252 -2.029381
  H 4.650254 0.734669 -1.617158
  H 5.257437 -2.274151 -1.652619
 13
 17.596368
  C 1.164474 -0.014451 0.263367
  C 2.547403 -0.539987 0.055296
  C 3.032521 -0.792600 -1.158031
  C 4.380066 -0.393133 -1.579469
  C 5.468850 -1.112354 -1.759765
  H 6.386571 -0.677360 -2.111234
  H 0.825935 -0.055978 1.296300
  H 0.438285 -0.477542 -0.393069
  H 1.302105 1.029232 -0.031920
  H 3.250799 -0.300360 0.845521
  H 2.335005 -0.994612 -1.968256
  H 4.343789 0.692567 -1.676735
  H 5.475953 -2.177338 -1.589488
 13
 29.032260
  C 1.223907 0.064391 0.226274
  C 2.538666 -0.632693 0.123916
  C 3.039911 -0.979823 -1.064986
  C 4.310435 -0.446764 -1.549065
  C 5.461338 -1.027690 -1.824735
  H 6.278279 -0.457828 -2.219860
  H 0.854620 0.233174 1.246494
  H 0.469642 -0.380684 -0.383200
  H 1.530765 1.016752 -0.213646
  H 3.263015 -0.390625 0.934560
  H 2.306411 -1.212586 -1.849826
  H 4.087376 0.624370 -1.635417
  H 5.647293 -2.057667 -1.648312
 13
 42.368085
  C 1.315953 0.134600 0.179996
  C 2.539962 -0.726475 0.203617
  C 3.035156 -1.147563 -0.981814
  C 4.230473 -0.511913 -1.515147
  C 5.421370 -0.899469 -1.842062
  H 6.124123 -0.233054 -2.299348
  H 0.933791 0.467592 1.150186
  H 0.524134 -0.226338 -0.473525
  H 1.803290 0.987197 -0.327481
  H 3.249897 -0.504563 0.991561
  H 2.293801 -1.415644 -1.749758
  H 3.861198 0.527146 -1.589692
  H 5.752719 -1.901331 -1.684795
 13
 57.575961
  C 1.429731 0.189245 0.131145
  C 2.528090 -0.785029 0.254884
  C 3.000353 -1.294114 -0.921356
  C 4.128698 -0.573959 -1.481857
  C 5.379367 -0.786873 -1.827282
  H 5.962458 -0.040473 -2.328119
  H 1.077571 0.677536 1.024178
  H 0.623185 -0.083974 -0.546231
  H 2.062829 0.948778 -0.486593
  H 3.246149 -0.596497 1.048637
  H 2.260424 -1.602444 -1.656640
  H 3.644085 0.475905 -1.533837
  H 5.837327 -1.755297 -1.710131
 13
 71.343368
  C 1.505093 0.216588 0.115347
  C 2.542057 -0.820483 0.250647
  C 2.959519 -1.355908 -0.947559
  C 4.069733 -0.616488 -1.466159
  C 5.319627 -0.751806 -1.849898
  H 5.893200 0.076712 -2.246022
  H 1.193336 0.751115 0.990141
  H 0.696689 0.013967 -0.584469
  H 2.208640 0.960602 -0.582703
  H 3.313273 -0.603831 0.967209
  H 2.198887 -1.688345 -1.666347
  H 3.538768 0.487098 -1.466104
  H 5.858059 -1.648781 -1.651234
 13
 87.751501
  C 1.556657 0.181590 0.100406
  C 2.511062 -0.807475 0.284275
  C 2.974949 -1.386070 -0.915734
  C 4.046862 -0.696170 -1.427821
  C 5.291753 -0.707503 -1.821588
  H 5.774636 0.158355 -2.242236
  H 1.263594 0.808250 0.930318
  H 0.778646 0.030948 -0.636822
  H 2.506569 1.007112 -0.796364
  H 3.238716 -0.662827 1.075199
  H 2.215331 -1.672372 -1.640302
  H 3.379466 0.639393 -1.419785
  H 5.896478 -1.597864 -1.734758
 13
 78.541816
  C 1.528969 0.165338 0.182154
  C 2.499020 -0.770885 0.266934
  C 2.992810 -1.362084 -0.964262
  C 4.080727 -0.791399 -1.447031
  C 5.336758 -0.744885 -1.812643
  H 5.784574 0.136202 -2.309949
  H 1.257276 0.754230 1.020740
  H 0.755753 0.084233 -0.555830
  H 2.612853 1.205822 -0.974672
  H 3.197377 -0.716509 1.042011
  H 2.236358 -1.685258 -1.689960
  H 3.292474 0.906285 -1.495684
  H 6.009479 -1.581724 -1.625506
 13
 63.848671
  C 1.445056 0.120260 0.217678
  C 2.485355 -0.694552 0.256833
  C 3.019214 -1.291025 -0.964180
  C 4.165592 -0.893554 -1.464449
  C 5.393583 -0.799504 -1.862934
  H 5.736003 0.018875 -2.474961
  H 1.100637 0.627249 1.104665
  H 0.754797 0.120622 -0.606468
  H 2.743965 1.523521 -1.057868
  H 3.130206 -0.725269 1.128180
  H 2.287204 -1.751424 -1.623359
  H 3.369164 1.272186 -1.491243
  H 6.126297 -1.560475 -1.637944
 13
 53.372125
  C 1.258068 -0.167110 0.398672
  C 2.533153 -0.478032 0.188153
  C 3.022061 -1.041353 -1.060154
  C 4.281969 -1.049974 -1.398796
  C 5.537230 -1.070580 -1.712318
  H 6.009502 -0.253702 -2.239554
  H 0.921731 0.267877 1.328173
  H 0.502082 -0.341766 -0.350780
  H 2.663699 2.005210 -1.511454
  H 3.280608 -0.281258 0.945181
  H 2.276014 -1.413516 -1.754934
  H 3.302230 1.701658 -1.830969
  H 6.168725 -1.910542 -1.477268
