 20
 0.000000
  H 1.419632 0.157342 0.443534
  C 2.494391 0.137871 0.394622
  H 3.071258 0.476716 1.237966
  C 3.065810 -0.324639 -0.757394
  C 4.448135 -0.412365 -0.976585
  C 5.127370 -0.870521 -2.118888
  C 4.607274 -1.386990 -3.406268
  C 3.116545 -1.501746 -3.693536
  C 2.901141 -2.064890 -5.096588
  O 6.434178 -0.866207 -2.108498
  H 2.398920 -0.639958 -1.542427
  H 5.092057 -0.087121 -0.166614
  H 5.066990 -2.374478 -3.540624
  H 5.067781 -0.766886 -4.185993
  H 2.641002 -0.521670 -3.642221
  H 2.640391 -2.174069 -2.978980
  H 3.342428 -1.417699 -5.850502
  H 1.838416 -2.149248 -5.307681
  H 3.341945 -3.054022 -5.193636
  H 6.848457 -0.536960 -1.286073
 20
 -0.368888
  H 1.449221 0.273007 0.498034
  C 2.508261 0.103734 0.399245
  H 3.119004 0.281861 1.269542
  C 3.038955 -0.285182 -0.793618
  C 4.421524 -0.417513 -0.987410
  C 5.118164 -0.837606 -2.133530
  C 4.606342 -1.358740 -3.420615
  C 3.117473 -1.484001 -3.709248
  C 2.908447 -2.092868 -5.093999
  O 6.422259 -0.811572 -2.116785
  H 2.366155 -0.475477 -1.612171
  H 5.050393 -0.136142 -0.151163
  H 5.072410 -2.344999 -3.548227
  H 5.073118 -0.749826 -4.205591
  H 2.642259 -0.502484 -3.694141
  H 2.638689 -2.131194 -2.973745
  H 3.361262 -1.475325 -5.865845
  H 1.846979 -2.176389 -5.311644
  H 3.341913 -3.088237 -5.153711
  H 6.834505 -0.483532 -1.294003
 20
 0.469175
  H 1.492999 0.420563 0.451819
  C 2.490418 0.021135 0.381566
  H 2.993499 -0.200901 1.308296
  C 3.055835 -0.211857 -0.836010
  C 4.429096 -0.445114 -0.995909
  C 5.137940 -0.787700 -2.158183
  C 4.621176 -1.323371 -3.438101
  C 3.127412 -1.453687 -3.699607
  C 2.893048 -2.159566 -5.033019
  O 6.441221 -0.717611 -2.151346
  H 2.423863 -0.152140 -1.707957
  H 5.032952 -0.282104 -0.107678
  H 5.080028 -2.315999 -3.543430
  H 5.085048 -0.737647 -4.240989
  H 2.663782 -0.467846 -3.751995
  H 2.650516 -2.034945 -2.910082
  H 3.360624 -1.616366 -5.850658
  H 1.828607 -2.227941 -5.241128
  H 3.296721 -3.169026 -5.017537
  H 6.849628 -0.388640 -1.326187
 20
 4.841119
  H 1.642470 0.666882 0.486593
  C 2.462157 -0.026115 0.367271
  H 2.739242 -0.598188 1.238994
  C 3.066945 -0.208292 -0.844204
  C 4.430872 -0.478416 -0.993907
  C 5.146189 -0.768106 -2.169776
  C 4.627687 -1.317959 -3.443388
  C 3.128750 -1.441886 -3.685911
  C 2.872304 -2.197377 -4.987400
  O 6.442066 -0.652658 -2.178572
  H 2.461768 -0.046783 -1.732813
  H 5.017298 -0.358624 -0.091643
  H 5.073467 -2.319006 -3.524248
  H 5.093704 -0.753700 -4.259304
  H 2.676782 -0.452142 -3.774274
  H 2.653952 -1.985316 -2.868267
  H 3.348997 -1.699528 -5.828132
  H 1.805907 -2.250530 -5.189360
  H 3.253765 -3.213820 -4.930380
  H 6.843085 -0.323741 -1.355477
 20
 13.468158
  H 1.901679 0.854774 0.565950
  C 2.483992 -0.035221 0.383591
  H 2.502137 -0.769889 1.172232
  C 3.081982 -0.244262 -0.845350
  C 4.434219 -0.473695 -1.007236
  C 5.152075 -0.740628 -2.179666
  C 4.640922 -1.305651 -3.451658
  C 3.142156 -1.450031 -3.684343
  C 2.887209 -2.209152 -4.984108
  O 6.446302 -0.576617 -2.195445
  H 2.446709 -0.130129 -1.718404
  H 5.005582 -0.351384 -0.095863
  H 5.101044 -2.300041 -3.525512
  H 5.092971 -0.738864 -4.272377
  H 2.676790 -0.466957 -3.768211
  H 2.682344 -2.001774 -2.863763
  H 3.350309 -1.703581 -5.828112
  H 1.820147 -2.278749 -5.178574
  H 3.285242 -3.219567 -4.929959
  H 6.839622 -0.235836 -1.368678
 20
 23.518819
  H 2.174130 0.977054 0.672891
  C 2.480491 -0.026073 0.405571
  H 2.209874 -0.819491 1.081975
  C 3.093050 -0.276438 -0.838644
  C 4.431631 -0.457963 -1.004053
  C 5.142423 -0.727818 -2.179258
  C 4.636192 -1.290545 -3.449138
  C 3.141439 -1.468816 -3.682413
  C 2.906881 -2.213940 -4.993702
  O 6.429868 -0.546483 -2.198708
  H 2.431886 -0.254791 -1.703914
  H 5.015718 -0.335046 -0.097865
  H 5.119768 -2.272827 -3.535249
  H 5.073795 -0.707563 -4.266722
  H 2.650262 -0.497781 -3.749087
  H 2.698940 -2.049471 -2.871489
  H 3.351352 -1.680320 -5.830735
  H 1.841889 -2.314254 -5.186158
  H 3.336538 -3.212341 -4.956880
  H 6.821706 -0.202297 -1.376951
 20
 22.788899
  H 2.564958 0.929651 0.915637
  C 2.510163 -0.036281 0.442902
  H 1.892901 -0.777081 0.921403
  C 3.063562 -0.291620 -0.825351
  C 4.413088 -0.416692 -1.017106
  C 5.132219 -0.687266 -2.193395
  C 4.638802 -1.281933 -3.454591
  C 3.148296 -1.463211 -3.706612
  C 2.932309 -2.233228 -5.006173
  O 6.412417 -0.505811 -2.202023
  H 2.350372 -0.334289 -1.645031
  H 4.968037 -0.356379 -0.090449
  H 5.125540 -2.262251 -3.518197
  H 5.080447 -0.710631 -4.278206
  H 2.658354 -0.493815 -3.793634
  H 2.695247 -2.031775 -2.892669
  H 3.388254 -1.714605 -5.845811
  H 1.870198 -2.341363 -5.209268
  H 3.360957 -3.231160 -4.945975
  H 6.800415 -0.128572 -1.388721
 20
 27.845996
  H 2.870024 0.768527 1.030792
  C 2.620972 -0.113545 0.464087
  H 1.987487 -0.842910 0.931155
  C 2.949227 -0.199615 -0.914462
  C 4.298963 -0.386192 -1.092610
  C 5.113778 -0.655602 -2.204526
  C 4.675774 -1.305840 -3.466409
  C 3.181636 -1.439879 -3.733514
  C 2.950611 -2.260913 -5.002972
  O 6.380673 -0.463815 -2.131946
  H 2.208027 -0.067230 -1.684796
  H 4.715603 -0.459219 -0.087579
  H 5.131456 -2.315521 -3.461412
  H 5.157993 -0.784887 -4.300051
  H 2.733026 -0.459330 -3.866383
  H 2.690452 -1.942770 -2.887736
  H 3.446868 -1.799127 -5.852295
  H 1.888605 -2.329913 -5.226384
  H 3.331657 -3.274804 -4.893183
  H 6.692802 -0.020597 -1.322107
 20
 40.875400
  H 3.045188 0.683822 1.050757
  C 2.766141 -0.170205 0.453543
  H 2.195894 -0.953328 0.923922
  C 2.858898 -0.100458 -0.981311
  C 4.197682 -0.344284 -1.162673
  C 5.087533 -0.640133 -2.201249
  C 4.686582 -1.342373 -3.446430
  C 3.196401 -1.429956 -3.754384
  C 2.959852 -2.275359 -5.002196
  O 6.365713 -0.463007 -2.068295
  H 2.082476 0.159586 -1.673136
  H 4.476081 -0.484580 -0.079811
  H 5.106789 -2.353510 -3.389161
  H 5.209487 -0.859686 -4.278078
  H 2.792931 -0.432588 -3.924192
  H 2.665563 -1.882459 -2.915304
  H 3.494566 -1.865943 -5.855845
  H 1.901525 -2.300990 -5.247738
  H 3.292949 -3.299150 -4.849065
  H 6.654540 0.014283 -1.265206
 20
 49.385379
  H 3.198056 0.617307 1.075353
  C 2.938197 -0.215093 0.440455
  H 2.392673 -1.028870 0.900999
  C 2.806874 0.016767 -1.004211
  C 4.090764 -0.281086 -1.239944
  C 5.033798 -0.613025 -2.195759
  C 4.674353 -1.372184 -3.427619
  C 3.193897 -1.435314 -3.784440
  C 2.980951 -2.308206 -5.017263
  O 6.327187 -0.453426 -2.016902
  H 1.986969 0.366915 -1.595002
  H 4.298055 -0.500551 -0.019081
  H 5.069231 -2.388640 -3.315019
  H 5.240655 -0.925676 -4.250171
  H 2.821514 -0.431686 -3.990831
  H 2.623431 -1.851344 -2.953752
  H 3.552554 -1.933059 -5.863168
  H 1.931236 -2.317618 -5.298412
  H 3.288174 -3.333445 -4.825517
  H 6.584077 0.063047 -1.232052
 20
 40.117562
  H 3.226952 0.571780 1.126350
  C 3.020438 -0.248093 0.448858
  H 2.420620 -1.062848 0.835778
  C 2.839876 0.107284 -0.991271
  C 4.056646 -0.235523 -1.339740
  C 5.018363 -0.597620 -2.232751
  C 4.665986 -1.392356 -3.447750
  C 3.192062 -1.439797 -3.828671
  C 2.987507 -2.342519 -5.041956
  O 6.309241 -0.428593 -2.050252
  H 1.999683 0.527225 -1.503783
  H 4.168338 -0.574316 0.182147
  H 5.039549 -2.414087 -3.294500
  H 5.256324 -0.980474 -4.270516
  H 2.840553 -0.436745 -4.068190
  H 2.598936 -1.822875 -2.997031
  H 3.576947 -1.996816 -5.887298
  H 1.942622 -2.344666 -5.340033
  H 3.277520 -3.366497 -4.819084
  H 6.562116 0.117222 -1.279610
 20
 23.581701
  H 3.157648 0.616384 1.197758
  C 3.057453 -0.246046 0.545320
  H 2.345350 -0.991256 0.875835
  C 2.913038 0.134259 -0.907558
  C 4.045071 -0.216426 -1.428468
  C 5.024918 -0.590435 -2.290404
  C 4.674724 -1.410240 -3.491920
  C 3.201404 -1.455370 -3.880101
  C 2.997676 -2.374718 -5.080377
  O 6.312384 -0.404771 -2.110063
  H 2.049113 0.591929 -1.352803
  H 4.085723 -0.653952 0.495826
  H 5.038134 -2.429043 -3.306701
  H 5.275664 -1.024360 -4.319976
  H 2.856264 -0.453425 -4.136218
  H 2.602268 -1.821171 -3.045404
  H 3.599554 -2.049693 -5.925578
  H 1.955755 -2.368734 -5.388690
  H 3.272261 -3.398314 -4.838325
  H 6.562195 0.156803 -1.351297
 20
 12.853051
  H 3.071464 0.610815 1.280167
  C 3.025589 -0.247509 0.616501
  H 2.156854 -0.862192 0.828726
  C 3.033633 0.191346 -0.821217
  C 4.067842 -0.197029 -1.488897
  C 5.042977 -0.587478 -2.343719
  C 4.693935 -1.398295 -3.544990
  C 3.212122 -1.482012 -3.893340
  C 2.993890 -2.423516 -5.073123
  O 6.321689 -0.379614 -2.165723
  H 2.244017 0.828314 -1.195783
  H 3.944331 -0.818389 0.726699
  H 5.091648 -2.406720 -3.374241
  H 5.264286 -0.996206 -4.387382
  H 2.837726 -0.491634 -4.154596
  H 2.643449 -1.844711 -3.036010
  H 3.554918 -2.092464 -5.943815
  H 1.941875 -2.453745 -5.343360
  H 3.307733 -3.435131 -4.827852
  H 6.563496 0.169827 -1.395847
 20
 8.549192
  H 2.822849 0.598571 1.327015
  C 2.926999 -0.249534 0.640582
  H 1.970408 -0.792990 0.618888
  C 3.225457 0.239075 -0.744711
  C 4.156770 -0.171780 -1.505871
  C 5.105016 -0.598947 -2.403308
  C 4.716701 -1.403061 -3.594096
  C 3.218645 -1.514558 -3.865158
  C 2.951885 -2.456756 -5.034830
  O 6.395809 -0.355260 -2.273321
  H 2.561065 1.048018 -1.088750
  H 3.729560 -0.913137 0.978542
  H 5.141738 -2.407779 -3.450380
  H 5.240302 -0.996564 -4.467952
  H 2.810702 -0.528561 -4.102062
  H 2.702545 -1.889262 -2.977808
  H 3.464790 -2.116901 -5.933990
  H 1.886624 -2.499315 -5.251380
  H 3.290162 -3.467139 -4.807811
  H 6.657116 0.168161 -1.488568
 20
 8.155404
  H 2.851023 0.560819 1.336890
  C 2.917560 -0.264766 0.633761
  H 1.941616 -0.744244 0.589112
  C 3.250215 0.250371 -0.729397
  C 4.167215 -0.159506 -1.524666
  C 5.103260 -0.589297 -2.414597
  C 4.718158 -1.403021 -3.592997
  C 3.221749 -1.516840 -3.862294
  C 2.954816 -2.464164 -5.026938
  O 6.379834 -0.329130 -2.293435
  H 2.612840 1.077782 -1.046223
  H 3.666410 -0.976066 0.965474
  H 5.141572 -2.404636 -3.439569
  H 5.242158 -1.008932 -4.469509
  H 2.814043 -0.534111 -4.102689
  H 2.707349 -1.886834 -2.974520
  H 3.461232 -2.125672 -5.927604
  H 1.890140 -2.512597 -5.238576
  H 3.298277 -3.470043 -4.798516
  H 6.635676 0.193169 -1.508676
