 23
 0.000000
  C 0.995798 0.132321 0.380257
  C 2.467955 0.143907 0.411311
  C 3.226677 0.617479 1.589336
  C 2.429386 1.103538 2.796032
  C 3.368032 1.551677 3.912542
  C 3.123842 -0.314818 -0.728178
  C 4.507086 -0.385574 -0.906482
  C 5.098215 -0.848522 -2.060233
  H 4.553187 -1.198799 -2.928436
  O 6.384224 -0.920405 -2.247264
  H 0.541549 0.499673 1.292313
  H 0.637860 -0.881568 0.194135
  H 0.638935 0.735220 -0.456340
  H 3.887987 1.429958 1.266999
  H 3.886796 -0.192682 1.919838
  H 1.791466 0.303700 3.175955
  H 1.792962 1.944688 2.515948
  H 4.002865 0.732048 4.241521
  H 2.796221 1.897087 4.770179
  H 4.004456 2.369791 3.582868
  H 2.500651 -0.644959 -1.548588
  H 5.152599 -0.061031 -0.101158
  H 6.919463 -0.612408 -1.487966
 23
 12.250595
  C 0.885048 0.134125 0.383991
  C 2.505081 0.147713 0.420988
  C 3.247685 0.620515 1.597179
  C 2.440018 1.103901 2.796831
  C 3.367223 1.555330 3.922125
  C 3.146896 -0.311493 -0.719124
  C 4.533546 -0.385963 -0.907365
  C 5.093566 -0.851310 -2.065939
  H 4.534098 -1.197338 -2.921131
  O 6.486119 -0.938867 -2.294462
  H 0.440435 0.502008 1.297004
  H 0.538963 -0.879721 0.198262
  H 0.540400 0.737317 -0.452408
  H 3.910692 1.434223 1.279170
  H 3.909196 -0.187735 1.931784
  H 1.801316 0.301958 3.170219
  H 1.803151 1.942295 2.510522
  H 4.001810 0.738079 4.257160
  H 2.786717 1.898726 4.774514
  H 4.003780 2.375700 3.598628
  H 2.517880 -0.640652 -1.536341
  H 5.191854 -0.064292 -0.110824
  H 7.022780 -0.632436 -1.542287
 23
 37.924431
  C 0.785908 0.127971 0.368882
  C 2.582453 0.151848 0.431229
  C 3.281305 0.631046 1.623111
  C 2.448755 1.107768 2.806575
  C 3.343862 1.567369 3.952109
  C 3.187001 -0.310569 -0.717360
  C 4.562331 -0.391297 -0.921450
  C 5.061764 -0.860841 -2.090348
  H 4.498266 -1.203857 -2.938296
  O 6.529798 -0.966844 -2.363426
  H 0.372529 0.499206 1.290257
  H 0.490788 -0.898082 0.187338
  H 0.492200 0.742866 -0.472834
  H 3.954184 1.445570 1.323565
  H 3.952857 -0.164875 1.971458
  H 1.808565 0.300975 3.167510
  H 1.810143 1.940921 2.508142
  H 3.978370 0.756759 4.303673
  H 2.739847 1.904927 4.790359
  H 3.980059 2.394660 3.645230
  H 2.548102 -0.635789 -1.524809
  H 5.238442 -0.076484 -0.141466
  H 7.040584 -0.657665 -1.602765
 23
 67.063479
  C 0.650974 0.136070 0.381849
  C 2.657159 0.155126 0.448560
  C 3.326467 0.631584 1.633255
  C 2.465358 1.104010 2.794543
  C 3.323414 1.573509 3.966847
  C 3.217172 -0.310897 -0.701789
  C 4.601260 -0.402171 -0.933141
  C 5.059657 -0.872042 -2.109782
  H 4.502029 -1.219142 -2.963972
  O 6.573959 -0.975355 -2.412544
  H 0.284481 0.514717 1.315795
  H 0.403502 -0.895439 0.206914
  H 0.410203 0.758813 -0.460903
  H 4.003476 1.452499 1.338708
  H 3.997046 -0.168316 1.993630
  H 1.819216 0.292483 3.133843
  H 1.825853 1.928191 2.473672
  H 3.954088 0.770567 4.339545
  H 2.691704 1.906753 4.785769
  H 3.961180 2.405472 3.679599
  H 2.561067 -0.630024 -1.495978
  H 5.293517 -0.090836 -0.165876
  H 7.069451 -0.651999 -1.632380
 23
 91.606504
  C 0.424294 0.166352 0.368377
  C 2.788323 0.126743 0.474093
  C 3.405230 0.611658 1.677183
  C 2.496228 1.110696 2.795246
  C 3.295668 1.584543 4.003064
  C 3.300055 -0.363575 -0.666874
  C 4.693147 -0.430837 -0.952948
  C 5.125119 -0.909629 -2.149229
  H 4.557499 -1.298128 -2.971490
  O 6.530660 -0.929678 -2.499929
  H 0.112637 0.569094 1.311796
  H 0.210273 -0.873955 0.208457
  H 0.264937 0.797774 -0.485693
  H 4.106459 1.415542 1.405090
  H 4.045016 -0.189514 2.080108
  H 1.820667 0.312301 3.104843
  H 1.880992 1.934616 2.429940
  H 3.896381 0.778644 4.418592
  H 2.625424 1.935537 4.783129
  H 3.958049 2.405854 3.739695
  H 2.622506 -0.702279 -1.439164
  H 5.402087 -0.080214 -0.216459
  H 7.034175 -0.546148 -1.774282
 23
 97.558002
  C 0.366774 0.202573 0.384874
  C 3.072047 0.101892 0.555248
  C 3.530512 0.597601 1.806192
  C 2.468408 1.108933 2.798296
  C 3.110522 1.619532 4.079378
  C 3.417299 -0.391839 -0.591778
  C 4.792865 -0.426101 -1.055805
  C 5.086988 -0.911724 -2.272131
  H 4.403042 -1.324083 -2.989875
  O 6.356269 -1.003512 -2.761328
  H 0.161720 0.620081 1.347275
  H 0.307537 -0.853609 0.200029
  H 0.403695 0.832077 -0.485239
  H 4.210614 1.444268 1.586449
  H 4.103220 -0.197175 2.312798
  H 1.786455 0.294244 3.032275
  H 1.901506 1.909785 2.327868
  H 3.667219 0.834545 4.580035
  H 2.346445 1.973563 4.764012
  H 3.785875 2.444244 3.880770
  H 2.680361 -0.748707 -1.295856
  H 5.561187 -0.050655 -0.401685
  H 6.984114 -0.627442 -2.119640
 23
 99.107708
  C 0.336285 0.200346 0.372980
  C 3.330871 0.121278 0.633383
  C 3.649148 0.627300 1.918903
  C 2.458994 1.109718 2.803137
  C 2.954137 1.643010 4.133807
  C 3.552459 -0.361457 -0.526105
  C 4.885490 -0.450527 -1.123634
  C 5.043953 -0.934813 -2.356475
  H 4.224423 -1.295477 -2.994199
  O 6.212865 -1.073868 -2.974100
  H 0.126179 0.617479 1.326808
  H 0.352809 -0.847350 0.201081
  H 0.459948 0.843179 -0.467107
  H 4.291051 1.502054 1.776407
  H 4.174690 -0.141175 2.493323
  H 1.786554 0.267332 2.975964
  H 1.916067 1.893924 2.272226
  H 3.487151 0.875194 4.694058
  H 2.108949 1.971172 4.736636
  H 3.619661 2.495697 3.997614
  H 2.756204 -0.699788 -1.174087
  H 5.719686 -0.115019 -0.533689
  H 6.942519 -0.755555 -2.422730
 23
 99.297583
  C 0.300402 0.212003 0.376488
  C 3.552159 0.140426 0.736127
  C 3.759887 0.639185 2.032368
  C 2.472982 1.105388 2.777163
  C 2.821704 1.655147 4.149148
  C 3.683401 -0.333643 -0.446910
  C 4.947398 -0.454562 -1.168128
  C 4.986429 -0.948305 -2.411030
  H 4.101782 -1.271774 -2.948164
  O 6.080300 -1.120814 -3.137259
  H 0.017018 0.610124 1.321376
  H 0.343163 -0.846440 0.220698
  H 0.474015 0.873857 -0.447912
  H 4.395360 1.538450 1.946783
  H 4.243574 -0.123246 2.659909
  H 1.809396 0.251556 2.882063
  H 1.979502 1.872694 2.187022
  H 3.307449 0.902137 4.764012
  H 1.912601 1.968305 4.657362
  H 3.479062 2.517279 4.075226
  H 2.826789 -0.669139 -1.019830
  H 5.848309 -0.134827 -0.652143
  H 6.884443 -0.833645 -2.669894
 23
 99.658471
  C 0.241298 0.240498 0.378363
  C 3.748627 0.173142 0.814470
  C 3.866306 0.665549 2.124706
  C 2.498226 1.094786 2.752336
  C 2.708329 1.645345 4.142961
  C 3.812040 -0.312851 -0.365011
  C 5.009115 -0.466105 -1.186871
  C 4.937428 -0.977085 -2.425591
  H 4.002657 -1.294591 -2.877925
  O 5.955764 -1.147619 -3.252143
  H -0.111588 0.636468 1.304593
  H 0.306433 -0.811072 0.240750
  H 0.455682 0.901337 -0.428131
  H 4.484200 1.574149 2.096368
  H 4.319103 -0.083508 2.783079
  H 1.849806 0.223342 2.797798
  H 2.036148 1.851147 2.122972
  H 3.154943 0.905569 4.796194
  H 1.751493 1.929348 4.565667
  H 3.341031 2.523868 4.129745
  H 2.909229 -0.647953 -0.861922
  H 5.938352 -0.155412 -0.761859
  H 6.799721 -0.854028 -2.865240
 23
 98.932616
  C 0.217626 0.261991 0.396536
  C 3.969901 0.190958 0.921453
  C 3.971628 0.666795 2.232101
  C 2.534868 1.086394 2.688043
  C 2.578345 1.636713 4.108838
  C 3.948296 -0.296872 -0.261462
  C 5.041233 -0.442493 -1.208231
  C 4.844555 -0.970427 -2.424751
  H 3.875119 -1.313292 -2.762268
  O 5.778946 -1.170264 -3.347675
  H -0.201321 0.643360 1.290348
  H 0.305116 -0.805549 0.263216
  H 0.479317 0.936434 -0.399815
  H 4.581012 1.581891 2.277955
  H 4.361392 -0.081069 2.934192
  H 1.892983 0.213059 2.649539
  H 2.148091 1.837506 2.011132
  H 2.950604 0.895105 4.807689
  H 1.573279 1.914625 4.417581
  H 3.205611 2.519918 4.173244
  H 2.995594 -0.648787 -0.647845
  H 6.025616 -0.101203 -0.886401
  H 6.662465 -0.872001 -3.060474
 23
 98.059801
  C 0.080457 0.198259 0.354048
  C 4.078734 0.029318 1.056726
  C 4.026905 0.549461 2.346379
  C 2.595312 1.108937 2.659559
  C 2.574915 1.716816 4.036252
  C 4.036874 -0.374194 -0.151840
  C 5.054958 -0.414946 -1.176750
  C 4.796961 -0.887074 -2.404703
  H 3.815406 -1.251836 -2.693615
  O 5.665978 -1.011023 -3.384163
  H -0.429359 0.579356 1.214277
  H 0.157180 -0.857042 0.213342
  H 0.414129 0.872837 -0.407100
  H 4.703256 1.419603 2.397975
  H 4.317859 -0.180827 3.100876
  H 1.882423 0.286168 2.605185
  H 2.323985 1.857634 1.912869
  H 2.832061 0.979509 4.794970
  H 1.576209 2.087681 4.251059
  H 3.268739 2.550651 4.110335
  H 3.062232 -0.737795 -0.481550
  H 6.025743 -0.068627 -0.905194
  H 6.553207 -0.705303 -3.137351
 23
 98.045049
  C -0.088804 0.205564 0.294315
  C 4.148468 0.027506 1.091802
  C 4.051203 0.532271 2.393145
  C 2.632282 1.126226 2.660730
  C 2.577556 1.730490 4.065010
  C 4.092964 -0.381075 -0.118306
  C 5.075113 -0.410202 -1.178783
  C 4.787765 -0.905721 -2.392359
  H 3.814414 -1.294790 -2.645950
  O 5.622798 -0.988552 -3.415660
  H -0.628167 0.575233 1.113891
  H -0.007863 -0.856041 0.152143
  H 0.274645 0.882348 -0.447229
  H 4.745098 1.377271 2.476703
  H 4.302025 -0.213276 3.151764
  H 1.898792 0.320094 2.569288
  H 2.407591 1.888785 1.910727
  H 2.789173 0.981039 4.825678
  H 1.579284 2.125987 4.251251
  H 3.289251 2.546926 4.174634
  H 3.116669 -0.786858 -0.398746
  H 6.050783 -0.024256 -0.947046
  H 6.509890 -0.640270 -3.201336
 23
 97.995476
  C -0.292584 0.219355 0.246356
  C 4.201857 0.024554 1.115654
  C 4.063812 0.508708 2.420532
  C 2.661331 1.148231 2.665120
  C 2.588687 1.730012 4.073928
  C 4.144686 -0.392316 -0.092256
  C 5.098022 -0.390073 -1.176307
  C 4.804009 -0.919124 -2.375908
  H 3.845517 -1.354090 -2.600454
  O 5.606981 -0.968268 -3.418884
  H -0.865860 0.588325 1.052120
  H -0.209992 -0.836614 0.101295
  H 0.111619 0.895291 -0.469365
  H 4.790221 1.326030 2.533004
  H 4.280053 -0.251779 3.174527
  H 1.901788 0.369004 2.541463
  H 2.479904 1.932161 1.921163
  H 2.756790 0.958786 4.829969
  H 1.597557 2.156130 4.243485
  H 3.325832 2.523665 4.216225
  H 3.179330 -0.862364 -0.333640
  H 6.054717 0.055449 -0.981965
  H 6.480993 -0.571309 -3.237754
 23
 97.547674
  C -0.533021 0.240884 0.243239
  C 4.219823 -0.006407 1.123882
  C 4.061383 0.471432 2.425284
  C 2.676362 1.158683 2.658203
  C 2.604280 1.735410 4.068600
  C 4.179143 -0.415686 -0.085245
  C 5.126113 -0.379363 -1.166303
  C 4.849595 -0.921180 -2.362937
  H 3.896242 -1.392266 -2.586443
  O 5.644228 -0.917605 -3.416170
  H -1.129852 0.614669 1.041624
  H -0.457441 -0.811068 0.093336
  H -0.073705 0.918839 -0.449272
  H 4.810011 1.253330 2.550263
  H 4.253467 -0.297701 3.177558
  H 1.893028 0.411799 2.524299
  H 2.526898 1.947984 1.923350
  H 2.737934 0.964767 4.811940
  H 1.637351 2.185104 4.228042
  H 3.356674 2.497889 4.222965
  H 3.232880 -0.934233 -0.321110
  H 6.065966 0.113210 -0.976917
  H 6.492604 -0.479662 -3.238406
