 20
 0.000000
  C 0.958733 0.142238 0.405928
  C 2.435627 0.138812 0.396949
  C 3.229471 0.606512 1.560312
  H 2.691778 0.951460 2.418681
  C 3.047724 -0.326485 -0.761128
  C 4.427680 -0.410350 -0.970580
  C 5.111749 -0.860636 -2.093538
  C 4.622398 -1.384411 -3.399794
  H 3.576851 -1.468928 -3.610953
  O 6.434575 -0.852273 -2.073085
  H 0.530877 0.513603 1.329858
  H 0.585106 -0.868946 0.237722
  H 0.584800 0.755552 -0.415298
  H 3.886571 1.416144 1.222870
  H 3.886751 -0.211308 1.877002
  H 2.388559 -0.643775 -1.550690
  H 5.047217 -0.079018 -0.145404
  H 5.082172 -2.371786 -3.523346
  H 5.082493 -0.756172 -4.171309
  H 6.800018 -0.516405 -1.234749
 20
 0.000000
  C 0.946281 0.152723 0.432061
  C 2.423206 0.152534 0.431153
  C 3.209654 0.621971 1.598832
  H 2.666523 0.965740 2.454246
  C 3.042641 -0.311420 -0.723557
  C 4.423901 -0.392260 -0.925464
  C 5.178829 -0.882442 -2.147897
  C 4.697773 -1.407284 -3.456804
  H 3.653583 -1.494088 -3.673674
  O 6.356345 -0.885893 -2.156892
  H 0.512569 0.523149 1.353635
  H 0.575795 -0.859277 0.261827
  H 0.575498 0.765217 -0.391203
  H 3.866812 1.433042 1.264977
  H 3.866984 -0.194407 1.919118
  H 2.388497 -0.630153 -1.516706
  H 5.038192 -0.059572 -0.096918
  H 5.160375 -2.393650 -3.577831
  H 5.160702 -0.778037 -4.225798
  H 6.666991 -0.552063 -1.323657
 20
 0.000000
  C 0.929301 0.164993 0.462642
  C 2.406211 0.167636 0.468799
  C 3.186162 0.638582 1.640222
  H 2.638288 0.981309 2.493025
  C 3.032051 -0.295129 -0.682930
  C 4.414415 -0.373320 -0.878226
  C 5.246555 -0.907251 -2.209743
  C 4.772773 -1.433011 -3.520932
  H 3.729801 -1.521815 -3.742795
  O 6.302566 -0.921519 -2.245693
  H 0.490476 0.534587 1.382127
  H 0.561576 -0.847716 0.290647
  H 0.561286 0.776774 -0.362393
  H 3.843354 1.450911 1.309506
  H 3.843518 -0.176533 1.963657
  H 2.382322 -0.615117 -1.479196
  H 5.024096 -0.039454 -0.046755
  H 5.237836 -2.418490 -3.639736
  H 5.238171 -0.802880 -4.287708
  H 6.572872 -0.586253 -1.408901
 20
 0.000000
  C 0.907941 0.179084 0.497761
  C 2.384808 0.184162 0.509990
  C 3.159160 0.656395 1.684606
  H 2.607219 0.998220 2.535146
  C 3.016140 -0.277574 -0.639152
  C 4.399421 -0.353488 -0.828763
  C 5.315066 -0.935060 -2.279066
  C 4.847545 -1.461599 -3.592189
  H 3.805642 -1.552117 -3.818339
  O 6.272812 -0.959049 -2.339243
  H 0.464732 0.547956 1.415431
  H 0.542596 -0.834230 0.324265
  H 0.542314 0.790256 -0.328785
  H 3.816365 1.469805 1.356588
  H 3.816522 -0.157636 2.010748
  H 2.370217 -0.598634 -1.438080
  H 5.005128 -0.018615 0.005205
  H 5.314713 -2.446312 -3.709073
  H 5.315057 -0.830703 -4.357049
  H 6.514088 -0.618928 -1.490359
 20
 0.000000
  C 0.882804 0.194786 0.536894
  C 2.359611 0.201912 0.554235
  C 3.129236 0.675222 1.731520
  H 2.573882 1.016284 2.580142
  C 2.995557 -0.258951 -0.592712
  C 4.379590 -0.332946 -0.777533
  C 5.383791 -0.965359 -2.354594
  C 4.921550 -1.492545 -3.669326
  H 3.880562 -1.584504 -3.899083
  O 6.265003 -0.997982 -2.436286
  H 0.435909 0.563046 1.453022
  H 0.519467 -0.819034 0.362142
  H 0.519193 0.805448 -0.290917
  H 3.786445 1.489543 1.405773
  H 3.786595 -0.137894 2.059942
  H 2.352850 -0.580908 -1.393868
  H 4.981942 0.002769 0.058525
  H 5.390481 -2.476611 -3.784586
  H 5.390834 -0.861004 -4.432566
  H 6.485967 -0.649774 -1.567252
 20
 0.000000
  C 0.854860 0.211706 0.579062
  C 2.331601 0.220540 0.600666
  C 3.097277 0.694744 1.780166
  H 2.539080 1.035166 2.627179
  C 2.971388 -0.239590 -0.544436
  C 4.356034 -0.311985 -0.725260
  C 5.451902 -0.997266 -2.434131
  C 4.994068 -1.524986 -3.750190
  H 3.953854 -1.618144 -3.982953
  O 6.275044 -1.037565 -2.534953
  H 0.404896 0.579452 1.493893
  H 0.493201 -0.802534 0.403269
  H 0.492934 0.821944 -0.249800
  H 3.754480 1.509823 1.456312
  H 3.754624 -0.117611 2.110489
  H 2.331369 -0.562294 -1.347443
  H 4.955581 0.024429 0.112530
  H 5.464463 -2.508511 -3.864090
  H 5.464828 -0.892906 -4.512073
  H 6.481811 -0.678561 -1.639004
 20
 0.000000
  C 0.825011 0.229487 0.623375
  C 2.301686 0.239762 0.648576
  C 3.064024 0.714716 1.829933
  H 2.503435 1.054597 2.675583
  C 2.944708 -0.219749 -0.494963
  C 4.329860 -0.290794 -0.672414
  C 5.518945 -1.029961 -2.515629
  C 5.064832 -1.558127 -3.832797
  H 4.025280 -1.652295 -4.068095
  O 6.298144 -1.077189 -2.633720
  H 0.372462 0.596797 1.537106
  H 0.464771 -0.785106 0.446708
  H 0.464509 0.839369 -0.206369
  H 3.721219 1.530435 1.507676
  H 3.721357 -0.096996 2.161862
  H 2.306962 -0.543080 -1.299524
  H 4.927036 0.046208 0.166832
  H 5.536458 -2.541195 -3.945547
  H 5.536834 -0.925591 -4.593534
  H 6.494293 -0.705416 -1.705940
 20
 0.000000
  C 0.793819 0.247926 0.669327
  C 2.270429 0.259449 0.697645
  C 3.029869 0.735052 1.880607
  H 2.467208 1.074461 2.725069
  C 2.916252 -0.199522 -0.444531
  C 4.301836 -0.269397 -0.619056
  C 5.584930 -1.062914 -2.597772
  C 5.134046 -1.591464 -3.915896
  H 4.095073 -1.686508 -4.153389
  O 6.330370 -1.116537 -2.731798
  H 0.339032 0.614856 1.582098
  H 0.434812 -0.766973 0.491905
  H 0.434555 0.857500 -0.161180
  H 3.687053 1.551324 1.559734
  H 3.687186 -0.076103 2.213927
  H 2.280480 -0.523395 -1.250435
  H 4.896954 0.068112 0.221447
  H 5.606735 -2.574136 -4.027644
  H 5.607122 -0.958533 -4.675636
  H 6.517360 -0.730726 -1.769019
 20
 0.000000
  C 0.761537 0.266948 0.716733
  C 2.238082 0.279589 0.747845
  C 2.994922 0.755772 1.932239
  H 2.430407 1.094758 2.775633
  C 2.886412 -0.178897 -0.393105
  C 4.272376 -0.247722 -0.565008
  C 5.650060 -1.095833 -2.679830
  C 5.202071 -1.624725 -3.998803
  H 4.163622 -1.720551 -4.238263
  O 6.369105 -1.155495 -2.828904
  H 0.304746 0.633537 1.628640
  H 0.403635 -0.748223 0.538637
  H 0.403384 0.876246 -0.114455
  H 3.652094 1.572541 1.612606
  H 3.652221 -0.054884 2.266806
  H 2.252411 -0.503253 -1.200209
  H 4.865647 0.090241 0.276618
  H 5.675711 -2.607041 -4.109654
  H 5.676109 -0.991439 -4.757648
  H 6.546792 -0.754904 -1.829279
 20
 0.000000
  C 0.728220 0.286554 0.765596
  C 2.204698 0.300230 0.799291
  C 2.959132 0.776947 1.985005
  H 2.392906 1.115540 2.827408
  C 2.855345 -0.157806 -0.340521
  C 4.241655 -0.225662 -0.510000
  C 5.714530 -1.128540 -2.761355
  C 5.269219 -1.657744 -4.081109
  H 4.231258 -1.754293 -4.322387
  O 6.412780 -1.194032 -2.924962
  H 0.269578 0.652827 1.676701
  H 0.371340 -0.728867 0.586879
  H 0.371094 0.895599 -0.066220
  H 3.616290 1.594174 1.666517
  H 3.616412 -0.033247 2.320725
  H 2.222984 -0.482609 -1.148731
  H 4.833216 0.112720 0.332661
  H 5.743736 -2.639731 -4.191127
  H 5.744145 -1.024131 -4.839124
  H 6.579834 -0.778281 -1.887540
 20
 0.000000
  C 0.693800 0.306789 0.816025
  C 2.170211 0.321447 0.852173
  C 2.922356 0.798670 2.039138
  H 2.354505 1.136890 2.880598
  C 2.823056 -0.136159 -0.286553
  C 4.209691 -0.203093 -0.453727
  C 5.778436 -1.160883 -2.841975
  C 5.335672 -1.690384 -4.162467
  H 4.298177 -1.787619 -4.405472
  O 6.460490 -1.232132 -3.019927
  H 0.233401 0.672759 1.726365
  H 0.337894 -0.708870 0.636719
  H 0.337652 0.915593 -0.016387
  H 3.579498 1.616334 1.721739
  H 3.579616 -0.011085 2.375953
  H 2.192255 -0.461386 -1.095812
  H 4.799625 0.135685 0.389915
  H 5.811020 -2.672057 -4.271693
  H 5.811440 -1.056458 -4.919693
  H 6.614683 -0.801068 -1.944330
 20
 0.000000
  C 0.658113 0.327729 0.868210
  C 2.134454 0.343344 0.906749
  C 2.884366 0.821058 2.094928
  H 2.314935 1.158912 2.935466
  C 2.789437 -0.113843 -0.230917
  C 4.176385 -0.179878 -0.395845
  C 5.841752 -1.192695 -2.921269
  C 5.401470 -1.722482 -4.242476
  H 4.364433 -1.820384 -4.487162
  O 6.511699 -1.269750 -3.113693
  H 0.196003 0.693404 1.777802
  H 0.303156 -0.688161 0.688333
  H 0.302919 0.936299 0.035221
  H 3.541491 1.639147 1.778590
  H 3.541605 0.011730 2.432811
  H 2.160159 -0.439481 -1.041194
  H 4.764732 0.159285 0.448749
  H 5.877625 -2.703849 -4.350929
  H 5.878056 -1.088251 -4.998931
  H 6.650095 -0.823355 -1.999875
 20
 0.000000
  C 0.620869 0.349495 0.922454
  C 2.097135 0.366065 0.963378
  C 2.844817 0.844268 2.152764
  H 2.273810 1.181756 2.992380
  C 2.754252 -0.090702 -0.173227
  C 4.141506 -0.155841 -0.335914
  C 5.904301 -1.223744 -2.998660
  C 5.466497 -1.753815 -4.320577
  H 4.429920 -1.852383 -4.566939
  O 6.566023 -1.306782 -3.205998
  H 0.157054 0.714873 1.831296
  H 0.266860 -0.666626 0.742007
  H 0.266627 0.957833 0.088889
  H 3.501924 1.662780 1.837485
  H 3.502033 0.035366 2.491712
  H 2.126494 -0.416750 -0.984518
  H 4.728268 0.183705 0.509629
  H 5.943456 -2.734876 -4.428257
  H 5.943899 -1.119279 -5.076261
  H 6.685118 -0.845102 -2.054079
 20
 0.000000
  C 0.581555 0.372293 0.979269
  C 2.057739 0.389843 1.022641
  C 2.803131 0.868546 2.213264
  H 2.230509 1.205657 3.051930
  C 2.717043 -0.066491 -0.112871
  C 4.104608 -0.130709 -0.273257
  C 5.965694 -1.253670 -3.073251
  C 5.530434 -1.784030 -4.395892
  H 4.494333 -1.883282 -4.643975
  O 6.623040 -1.342996 -3.296263
  H 0.115991 0.737366 1.887340
  H 0.228520 -0.644063 0.798240
  H 0.228292 0.980393 0.145116
  H 3.460216 1.687493 1.899071
  H 3.460321 0.060081 2.553304
  H 2.090848 -0.392958 -0.925201
  H 4.689742 0.209229 0.573256
  H 6.008219 -2.764777 -4.502778
  H 6.008672 -1.149180 -5.150784
  H 6.718851 -0.866096 -2.106403
