 23
 0.000000
  C 0.993038 0.155094 0.417934
  C 2.456477 0.128542 0.366715
  H 3.042365 0.463592 1.208323
  C 3.064088 -0.330602 -0.780341
  C 4.443368 -0.408075 -0.971506
  C 5.119645 -0.860952 -2.102183
  C 4.608608 -1.383228 -3.398533
  C 3.119274 -1.507369 -3.695806
  C 2.914148 -2.072818 -5.099292
  O 6.435720 -0.854563 -2.106481
  H 0.596792 0.530864 1.356244
  H 0.598366 -0.848959 0.250051
  H 0.613712 0.772440 -0.398643
  H 2.411272 -0.646940 -1.575847
  H 5.058192 -0.076592 -0.141507
  H 5.069813 -2.369672 -3.526051
  H 5.064984 -0.757158 -4.174317
  H 2.638684 -0.529695 -3.649158
  H 2.643624 -2.182516 -2.983753
  H 3.356508 -1.423511 -5.851081
  H 1.852702 -2.162942 -5.315394
  H 3.361429 -3.059592 -5.192658
  H 6.837227 -0.525003 -1.279790
 23
 2.558537
  C 1.021119 0.153262 0.330902
  C 2.476125 0.055995 0.402412
  H 3.026432 0.432030 1.245720
  C 3.106554 -0.426833 -0.719601
  C 4.469165 -0.433876 -0.913005
  C 5.102453 -0.839272 -2.079380
  C 4.567939 -1.351509 -3.369006
  C 3.077119 -1.505315 -3.653627
  C 2.882453 -2.046902 -5.069763
  O 6.429344 -0.809752 -2.126279
  H 0.559707 0.680695 1.150789
  H 0.570369 -0.830948 0.235472
  H 0.843199 0.639978 -0.639758
  H 2.474518 -0.771180 -1.517892
  H 5.093554 -0.090243 -0.104330
  H 5.054994 -2.324103 -3.522674
  H 5.006638 -0.707150 -4.143066
  H 2.573082 -0.540994 -3.587373
  H 2.623752 -2.210832 -2.957371
  H 3.306029 -1.370732 -5.808516
  H 1.823648 -2.161703 -5.287286
  H 3.356613 -3.018621 -5.184778
  H 6.866043 -0.470053 -1.321281
 23
 7.912311
  C 1.060474 0.144539 0.182911
  C 2.486260 0.023281 0.449558
  H 2.962020 0.452912 1.309934
  C 3.178632 -0.506135 -0.610459
  C 4.529889 -0.460471 -0.838369
  C 5.087479 -0.824177 -2.049910
  C 4.516223 -1.319437 -3.325776
  C 3.027237 -1.505466 -3.608900
  C 2.843327 -2.010138 -5.038316
  O 6.409478 -0.781340 -2.166133
  H 0.516621 0.792990 0.846544
  H 0.578345 -0.837817 0.167487
  H 1.077685 0.471070 -0.862179
  H 2.574937 -0.908024 -1.407744
  H 5.186457 -0.087436 -0.064745
  H 5.020758 -2.277622 -3.508398
  H 4.927084 -0.649382 -4.092346
  H 2.494660 -0.554142 -3.516592
  H 2.591445 -2.249053 -2.935483
  H 3.246354 -1.301299 -5.758583
  H 1.787717 -2.147299 -5.256163
  H 3.343435 -2.964943 -5.182208
  H 6.878502 -0.439359 -1.394111
 23
 15.417135
  C 1.126194 0.110277 -0.040946
  C 2.490559 -0.029176 0.447831
  H 2.875097 0.481647 1.318342
  C 3.258694 -0.622259 -0.512000
  C 4.596369 -0.493447 -0.760222
  C 5.086114 -0.811262 -2.015145
  C 4.474448 -1.292366 -3.279643
  C 2.979870 -1.495515 -3.523171
  C 2.764900 -1.949456 -4.961208
  O 6.400032 -0.736260 -2.184581
  H 0.522748 0.864375 0.450817
  H 0.599274 -0.843771 -0.007463
  H 1.329624 0.304586 -1.110205
  H 2.708980 -1.112686 -1.296327
  H 5.265030 -0.069081 -0.028258
  H 4.990369 -2.236397 -3.504312
  H 4.848573 -0.596414 -4.043196
  H 2.438057 -0.563608 -3.382378
  H 2.575651 -2.267570 -2.874474
  H 3.134978 -1.208055 -5.665211
  H 1.705652 -2.097421 -5.153820
  H 3.276731 -2.888835 -5.153720
  H 6.892206 -0.372328 -1.429634
 23
 23.211940
  C 1.245285 0.175774 -0.229803
  C 2.502112 -0.122885 0.453636
  H 2.861317 0.432133 1.306283
  C 3.271455 -0.839421 -0.418182
  C 4.597218 -0.630000 -0.675983
  C 5.052252 -0.805269 -1.976038
  C 4.435031 -1.256212 -3.253783
  C 2.953661 -1.550781 -3.456599
  C 2.714062 -1.928012 -4.918707
  O 6.340531 -0.564271 -2.193576
  H 0.726536 1.067426 0.116409
  H 0.564853 -0.674530 -0.200498
  H 1.625833 0.254652 -1.270861
  H 2.739129 -1.362304 -1.193421
  H 5.245656 -0.172367 0.046696
  H 5.000425 -2.143447 -3.546649
  H 4.735140 -0.490585 -3.988040
  H 2.350283 -0.668408 -3.236874
  H 2.627941 -2.393032 -2.841007
  H 3.003514 -1.116641 -5.584237
  H 1.659502 -2.140690 -5.084928
  H 3.285275 -2.816927 -5.192960
  H 6.813490 -0.153910 -1.450419
 23
 29.287584
  C 1.431182 0.328970 -0.388861
  C 2.523944 -0.222359 0.433754
  H 2.911586 0.287459 1.304703
  C 3.216655 -1.111808 -0.348560
  C 4.540365 -0.811702 -0.633398
  C 4.968593 -0.745649 -1.955608
  C 4.382703 -1.178815 -3.241336
  C 2.941517 -1.636811 -3.416303
  C 2.689907 -1.961709 -4.897057
  O 6.207656 -0.310705 -2.182187
  H 1.043871 1.285623 -0.039196
  H 0.614948 -0.379160 -0.511554
  H 1.958264 0.411347 -1.362654
  H 2.659512 -1.661417 -1.083943
  H 5.157757 -0.342512 0.119717
  H 5.038981 -1.978013 -3.600161
  H 4.566289 -0.344450 -3.927572
  H 2.242824 -0.849220 -3.123362
  H 2.744652 -2.540179 -2.840533
  H 2.852491 -1.087905 -5.521392
  H 1.666148 -2.292392 -5.041598
  H 3.350283 -2.753246 -5.241738
  H 6.667383 0.047528 -1.405889
 23
 35.770932
  C 1.640749 0.451453 -0.529010
  C 2.553162 -0.251496 0.379735
  H 2.946102 0.209246 1.269318
  C 3.168277 -1.257499 -0.325750
  C 4.503909 -0.964387 -0.589257
  C 4.882565 -0.715435 -1.904409
  C 4.302237 -1.105879 -3.216478
  C 2.928598 -1.754404 -3.392940
  C 2.670623 -1.985781 -4.882390
  O 6.035085 -0.087512 -2.116375
  H 1.347364 1.441286 -0.166001
  H 0.746893 -0.130196 -0.779169
  H 2.282005 0.513359 -1.442141
  H 2.589518 -1.801552 -1.055636
  H 5.104638 -0.530070 0.191675
  H 5.044825 -1.787882 -3.646329
  H 4.357375 -0.211124 -3.843717
  H 2.131724 -1.109079 -3.015773
  H 2.891540 -2.726080 -2.890107
  H 2.680717 -1.047648 -5.429523
  H 1.701596 -2.450540 -5.028451
  H 3.425030 -2.639401 -5.313656
  H 6.523780 0.157907 -1.311671
 23
 44.198433
  C 1.834090 0.512762 -0.640236
  C 2.591719 -0.277216 0.331175
  H 3.013294 0.173914 1.215552
  C 3.118290 -1.368480 -0.310308
  C 4.460895 -1.076680 -0.565752
  C 4.788183 -0.681033 -1.859627
  C 4.223769 -1.036258 -3.191885
  C 2.919290 -1.806642 -3.383240
  C 2.665632 -2.009726 -4.880873
  O 5.880934 0.058656 -2.032184
  H 1.596460 1.510577 -0.284538
  H 0.925915 0.022625 -0.993805
  H 2.575375 0.532813 -1.488721
  H 2.521957 -1.902579 -1.033951
  H 5.065898 -0.682810 0.236715
  H 5.019889 -1.621694 -3.668484
  H 4.184990 -0.103137 -3.772263
  H 2.068591 -1.255875 -2.976831
  H 2.983998 -2.788416 -2.914373
  H 2.579309 -1.058523 -5.392290
  H 1.745561 -2.559113 -5.035513
  H 3.470414 -2.570227 -5.341296
  H 6.374349 0.261104 -1.217807
 23
 53.809393
  C 2.014524 0.539897 -0.763422
  C 2.636041 -0.302133 0.258843
  H 3.082510 0.146648 1.135749
  C 3.067764 -1.484514 -0.297475
  C 4.414741 -1.146932 -0.552337
  C 4.699016 -0.630224 -1.817925
  C 4.155314 -0.962398 -3.168299
  C 2.913300 -1.823055 -3.368971
  C 2.663351 -2.013906 -4.866629
  O 5.760932 0.164543 -1.950809
  H 1.818169 1.550182 -0.426359
  H 1.113844 0.116170 -1.209080
  H 2.843977 0.498197 -1.532398
  H 2.462335 -2.034122 -0.997886
  H 5.028016 -0.796871 0.268059
  H 4.987655 -1.468951 -3.673959
  H 4.041672 -0.015604 -3.712627
  H 2.028642 -1.346808 -2.944554
  H 3.057215 -2.806047 -2.918633
  H 2.501625 -1.059476 -5.358127
  H 1.786236 -2.626462 -5.025998
  H 3.507456 -2.505894 -5.346206
  H 6.255061 0.334492 -1.129217
 23
 64.115522
  C 2.161838 0.557940 -0.839523
  C 2.675531 -0.327383 0.211597
  H 3.124074 0.099852 1.098504
  C 3.024246 -1.564832 -0.293877
  C 4.370879 -1.180147 -0.548904
  C 4.623476 -0.571886 -1.795789
  C 4.107630 -0.902592 -3.163735
  C 2.913830 -1.823698 -3.372691
  C 2.681546 -2.026223 -4.869498
  O 5.677379 0.235941 -1.896944
  H 2.008102 1.578027 -0.511688
  H 1.273161 0.192515 -1.348775
  H 3.055556 0.447992 -1.538913
  H 2.411541 -2.111901 -0.988737
  H 5.000878 -0.882168 0.276204
  H 4.965969 -1.357354 -3.672440
  H 3.947068 0.040474 -3.696170
  H 2.003035 -1.392967 -2.950039
  H 3.106117 -2.797373 -2.920886
  H 2.473674 -1.079312 -5.362929
  H 1.834778 -2.684059 -5.033280
  H 3.548604 -2.474047 -5.342553
  H 6.165637 0.390352 -1.068118
 23
 75.181214
  C 2.276100 0.577346 -0.860465
  C 2.720732 -0.349713 0.199543
  H 3.159660 0.045065 1.101727
  C 2.988539 -1.615768 -0.296093
  C 4.330216 -1.199963 -0.550135
  C 4.555130 -0.512178 -1.792035
  C 4.079364 -0.861259 -3.175095
  C 2.914994 -1.818547 -3.396953
  C 2.721396 -2.048657 -4.895025
  O 5.615622 0.285379 -1.872081
  H 2.168792 1.602439 -0.529887
  H 1.388061 0.263019 -1.404615
  H 3.216715 0.406312 -1.525077
  H 2.362135 -2.135030 -0.998357
  H 4.988554 -0.955684 0.267318
  H 4.962194 -1.291088 -3.668249
  H 3.896337 0.071589 -3.710869
  H 1.986527 -1.406859 -3.000038
  H 3.122586 -2.777864 -2.926749
  H 2.501923 -1.120360 -5.403402
  H 1.892952 -2.732650 -5.068523
  H 3.613778 -2.481361 -5.343685
  H 6.090021 0.441589 -1.035159
 23
 85.457775
  C 2.365368 0.587781 -0.866060
  C 2.792097 -0.370944 0.191997
  H 3.221461 0.000721 1.110293
  C 2.950363 -1.660458 -0.300412
  C 4.280070 -1.207949 -0.546090
  C 4.492105 -0.450330 -1.794135
  C 4.067955 -0.836101 -3.191329
  C 2.923792 -1.807730 -3.428201
  C 2.778630 -2.065589 -4.926987
  O 5.568663 0.319358 -1.856365
  H 2.315462 1.612428 -0.544819
  H 1.465928 0.310084 -1.414831
  H 3.327201 0.366913 -1.515855
  H 2.305112 -2.142531 -1.006856
  H 4.983589 -1.028884 0.253288
  H 4.968825 -1.259952 -3.651980
  H 3.881682 0.091474 -3.745290
  H 1.982684 -1.398320 -3.065625
  H 3.127707 -2.759197 -2.933234
  H 2.564744 -1.145413 -5.460303
  H 1.959932 -2.764372 -5.114120
  H 3.689526 -2.496580 -5.339952
  H 6.024876 0.481928 -1.009295
 23
 82.116520
  C 2.500198 0.624976 -0.879387
  C 2.919879 -0.428395 0.153240
  H 3.245607 -0.110230 1.127168
  C 2.889956 -1.781547 -0.310404
  C 4.177524 -1.172181 -0.551990
  C 4.417547 -0.343048 -1.818027
  C 4.083818 -0.796226 -3.225714
  C 2.944024 -1.777135 -3.457800
  C 2.840968 -2.098680 -4.945811
  O 5.509920 0.376762 -1.824665
  H 2.507011 1.641559 -0.524594
  H 1.579946 0.396837 -1.414322
  H 3.411231 0.415478 -1.550027
  H 2.204623 -2.254326 -0.976246
  H 4.986238 -1.178017 0.159631
  H 5.008201 -1.238985 -3.612087
  H 3.919370 0.101392 -3.828892
  H 2.002492 -1.352897 -3.137344
  H 3.130148 -2.705647 -2.914071
  H 2.643362 -1.201838 -5.526647
  H 2.028347 -2.804893 -5.124764
  H 3.761208 -2.547065 -5.310973
  H 5.910696 0.567160 -0.953379
 23
 84.352522
  C 2.570595 0.599200 -0.882127
  C 2.943419 -0.457002 0.147080
  H 3.187718 -0.151405 1.147674
  C 2.880035 -1.821613 -0.308390
  C 4.160017 -1.192145 -0.523059
  C 4.429425 -0.322160 -1.830960
  C 4.120084 -0.784887 -3.244059
  C 2.968719 -1.751332 -3.486866
  C 2.893385 -2.095321 -4.970855
  O 5.527759 0.394214 -1.815778
  H 2.579759 1.619872 -0.527414
  H 1.675827 0.384347 -1.463797
  H 3.517070 0.386827 -1.587258
  H 2.200698 -2.259175 -1.004529
  H 4.982499 -1.247131 0.168830
  H 5.045241 -1.250863 -3.601084
  H 3.986188 0.106135 -3.859673
  H 2.023667 -1.301647 -3.194967
  H 3.123159 -2.670955 -2.925267
  H 2.727697 -1.207799 -5.570088
  H 2.072383 -2.789616 -5.156479
  H 3.813789 -2.567805 -5.305995
  H 5.907705 0.579844 -0.934268
