 19
 0.000000
  C 0.997327 0.127453 0.369157
  C 2.464094 0.141201 0.402426
  C 3.219265 0.613654 1.576516
  C 2.423029 1.095391 2.778098
  H 3.105885 1.410405 3.561999
  C 3.131062 -0.317056 -0.737611
  C 4.525842 -0.389283 -0.918306
  C 5.066422 -0.853015 -2.073206
  H 4.446059 -1.182274 -2.892581
  H 6.132434 -0.908931 -2.212886
  H 0.539408 0.493694 1.279880
  H 0.641301 -0.885387 0.165247
  H 0.641024 0.717085 -0.479086
  H 3.892990 1.415545 1.249077
  H 3.894595 -0.190642 1.894330
  H 1.794677 0.304844 3.183123
  H 1.793562 1.945952 2.524640
  H 2.521713 -0.650878 -1.567867
  H 5.183433 -0.069945 -0.123253
 19
 8.451459
  C 0.956374 0.136018 0.390486
  C 2.423968 0.142408 0.405318
  C 3.197304 0.610291 1.567969
  C 2.421524 1.095720 2.778968
  H 3.116920 1.407072 3.553727
  C 3.067089 -0.314520 -0.731405
  C 4.618500 -0.398146 -0.940232
  C 5.133591 -0.859381 -2.088980
  H 4.502662 -1.185246 -2.900132
  H 6.196920 -0.920405 -2.241251
  H 0.513303 0.504526 1.306889
  H 0.592131 -0.874870 0.191682
  H 0.591791 0.727742 -0.452723
  H 3.871537 1.408099 1.230509
  H 3.873312 -0.197936 1.875613
  H 1.794393 0.308877 3.192218
  H 1.793222 1.949221 2.534129
  H 2.460266 -0.647267 -1.558983
  H 5.273645 -0.079933 -0.147792
 19
 25.916108
  C 0.922560 0.145483 0.414058
  C 2.384177 0.141841 0.403720
  C 3.176662 0.602331 1.547930
  C 2.427352 1.091925 2.769598
  H 3.135840 1.398985 3.533847
  C 2.996760 -0.314309 -0.731109
  C 4.709002 -0.398165 -0.940083
  C 5.184834 -0.861342 -2.093662
  H 4.543787 -1.182727 -2.893703
  H 6.245032 -0.929739 -2.264304
  H 0.504021 0.517526 1.339513
  H 0.546826 -0.861642 0.225404
  H 0.546371 0.741505 -0.419148
  H 3.852638 1.393732 1.198824
  H 3.854562 -0.209262 1.842496
  H 1.799696 0.310417 3.191121
  H 1.798472 1.947327 2.534602
  H 2.434996 -0.656071 -1.581216
  H 5.320768 -0.070083 -0.123045
 19
 45.531193
  C 0.861686 0.151356 0.428763
  C 2.341487 0.139403 0.397567
  C 3.162474 0.596239 1.532760
  C 2.446126 1.091916 2.769613
  H 3.175921 1.391829 3.516274
  C 2.930793 -0.315688 -0.734707
  C 4.804340 -0.397322 -0.938224
  C 5.240505 -0.860802 -2.092210
  H 4.585547 -1.181113 -2.889050
  H 6.303267 -0.936845 -2.281981
  H 0.458556 0.526503 1.362141
  H 0.476430 -0.855041 0.244708
  H 0.475937 0.750134 -0.400577
  H 3.841586 1.378069 1.164399
  H 3.843520 -0.221893 1.806615
  H 1.821455 0.315080 3.209591
  H 1.820390 1.956834 2.551243
  H 2.423098 -0.667260 -1.609265
  H 5.359118 -0.057707 -0.092727
 19
 64.846258
  C 0.833134 0.165744 0.464717
  C 2.297839 0.145065 0.411454
  C 3.128983 0.595683 1.531236
  C 2.428630 1.093363 2.773263
  H 3.166327 1.390873 3.514073
  C 2.876166 -0.317237 -0.738934
  C 4.906024 -0.411912 -0.974555
  C 5.316195 -0.874297 -2.125602
  H 4.653972 -1.189080 -2.908368
  H 6.371955 -0.956492 -2.330717
  H 0.449233 0.542808 1.403157
  H 0.441052 -0.836290 0.287437
  H 0.440447 0.766094 -0.356582
  H 3.807480 1.372811 1.154185
  H 3.809417 -0.225077 1.795382
  H 1.804962 0.320707 3.216849
  H 1.803915 1.957823 2.560478
  H 2.369877 -0.669950 -1.616632
  H 5.456224 -0.070775 -0.125226
 19
 78.499792
  C 0.797223 0.162722 0.470456
  C 2.314797 0.126360 0.374455
  C 3.153847 0.598651 1.528785
  C 2.419687 1.096662 2.765896
  H 3.143270 1.402607 3.518957
  C 2.801244 -0.321576 -0.733431
  C 4.988261 -0.440851 -0.988143
  C 5.348214 -0.876702 -2.126701
  H 4.677407 -1.157320 -2.930173
  H 6.407660 -0.961731 -2.368573
  H 0.483420 0.552382 1.433338
  H 0.384092 -0.840485 0.326511
  H 0.384509 0.782368 -0.331379
  H 3.821995 1.390032 1.162385
  H 3.828727 -0.219723 1.814351
  H 1.796187 0.316547 3.202102
  H 1.792766 1.958767 2.538877
  H 2.356367 -0.670227 -1.631704
  H 5.451082 -0.101015 -0.096049
 19
 86.770286
  C 0.752304 0.168275 0.485253
  C 2.271463 0.125843 0.375868
  C 3.133948 0.598986 1.527874
  C 2.424299 1.101449 2.772950
  H 3.162161 1.401830 3.511087
  C 2.729506 -0.323567 -0.732276
  C 5.075026 -0.450667 -1.001829
  C 5.414538 -0.882729 -2.147718
  H 4.738448 -1.153286 -2.945950
  H 6.471554 -0.973853 -2.405018
  H 0.458023 0.558918 1.448159
  H 0.337201 -0.825558 0.351263
  H 0.338095 0.787311 -0.304278
  H 3.794337 1.384785 1.152886
  H 3.801931 -0.220355 1.805148
  H 1.805762 0.327243 3.220542
  H 1.802747 1.967094 2.556877
  H 2.303226 -0.675917 -1.644165
  H 5.516334 -0.109800 -0.091893
 19
 90.918368
  C 0.719010 0.178840 0.509554
  C 2.241361 0.134792 0.363513
  C 3.129992 0.596337 1.503109
  C 2.431584 1.089582 2.761560
  H 3.183053 1.386005 3.489592
  C 2.653192 -0.311863 -0.764015
  C 5.164211 -0.435052 -0.985070
  C 5.454691 -0.887637 -2.132947
  H 4.762866 -1.177885 -2.909286
  H 6.498862 -0.999904 -2.430067
  H 0.468142 0.566540 1.488226
  H 0.301033 -0.816431 0.392612
  H 0.286163 0.814080 -0.257215
  H 3.773707 1.392516 1.120769
  H 3.790643 -0.232744 1.767978
  H 1.823784 0.310365 3.215144
  H 1.807817 1.957273 2.560913
  H 2.326876 -0.680806 -1.707529
  H 5.497655 -0.066861 -0.044110
 19
 95.422507
  C 0.677919 0.190170 0.536265
  C 2.201367 0.137557 0.366819
  C 3.108272 0.592523 1.493187
  C 2.430865 1.088017 2.760965
  H 3.194953 1.378897 3.476820
  C 2.588460 -0.309667 -0.765289
  C 5.258604 -0.436771 -0.995810
  C 5.522103 -0.893164 -2.146111
  H 4.817174 -1.186086 -2.911864
  H 6.561013 -1.017615 -2.465550
  H 0.448092 0.578339 1.518538
  H 0.254037 -0.802111 0.428289
  H 0.238050 0.830463 -0.220480
  H 3.746884 1.386862 1.101918
  H 3.763398 -0.242460 1.748654
  H 1.826325 0.311740 3.223524
  H 1.810224 1.960167 2.570829
  H 2.295949 -0.681919 -1.715688
  H 5.554977 -0.062978 -0.046903
 19
 98.837224
  C 0.637409 0.202204 0.563795
  C 2.158289 0.137084 0.370299
  C 3.086069 0.585802 1.481849
  C 2.431157 1.087616 2.759827
  H 3.209849 1.372819 3.463470
  C 2.522651 -0.313039 -0.766851
  C 5.352338 -0.439366 -1.004269
  C 5.590386 -0.896857 -2.157535
  H 4.873524 -1.186194 -2.912761
  H 6.620818 -1.029518 -2.499985
  H 0.428290 0.593657 1.551380
  H 0.204838 -0.788207 0.465583
  H 0.191445 0.848281 -0.185446
  H 3.721813 1.376974 1.078913
  H 3.735304 -0.256644 1.728684
  H 1.828224 0.316160 3.233117
  H 1.815235 1.965430 2.579067
  H 2.264043 -0.688494 -1.724535
  H 5.611186 -0.061515 -0.047583
 19
 101.321986
  C 0.595711 0.215521 0.593399
  C 2.113243 0.134392 0.375102
  C 3.062991 0.577079 1.470205
  C 2.432620 1.087682 2.756461
  H 3.225472 1.366478 3.446310
  C 2.456425 -0.320226 -0.766147
  C 5.445684 -0.442597 -1.011289
  C 5.660901 -0.898695 -2.168069
  H 4.931640 -1.180207 -2.915866
  H 6.683618 -1.036399 -2.533156
  H 0.407967 0.610887 1.583232
  H 0.152712 -0.770881 0.506154
  H 0.145164 0.866264 -0.148523
  H 3.696571 1.362651 1.054264
  H 3.705234 -0.272563 1.709120
  H 1.830518 0.323129 3.241479
  H 1.823243 1.971499 2.583810
  H 2.228736 -0.698052 -1.728956
  H 5.669874 -0.063084 -0.048031
 19
 103.120602
  C 0.554344 0.229606 0.623779
  C 2.066736 0.130905 0.380580
  C 3.038953 0.567723 1.458790
  C 2.433898 1.088656 2.753250
  H 3.241413 1.360923 3.429313
  C 2.390185 -0.329071 -0.764108
  C 5.538822 -0.446050 -1.019470
  C 5.733336 -0.899454 -2.179769
  H 4.992786 -1.171102 -2.920077
  H 6.747525 -1.041279 -2.565833
  H 0.387387 0.629854 1.616139
  H 0.099944 -0.752782 0.547664
  H 0.099727 0.884763 -0.112034
  H 3.671208 1.346770 1.028962
  H 3.674218 -0.289212 1.690215
  H 1.832044 0.331774 3.250695
  H 1.831730 1.978930 2.587918
  H 2.189037 -0.709413 -1.731232
  H 5.732825 -0.066439 -0.050303
 19
 104.387179
  C 0.512629 0.244124 0.655989
  C 2.018725 0.129870 0.386896
  C 3.013412 0.560254 1.447579
  C 2.434911 1.089499 2.750317
  H 3.256595 1.355094 3.411689
  C 2.324283 -0.334573 -0.761263
  C 5.631895 -0.448962 -1.030079
  C 5.809209 -0.900506 -2.192986
  H 5.057822 -1.165750 -2.925797
  H 6.815836 -1.048146 -2.596322
  H 0.365621 0.647766 1.650016
  H 0.048083 -0.734268 0.590014
  H 0.052791 0.902942 -0.073309
  H 3.643848 1.333075 1.004233
  H 3.642901 -0.303130 1.670011
  H 1.834648 0.339521 3.259816
  H 1.839200 1.985510 2.593358
  H 2.143122 -0.716816 -1.730214
  H 5.802075 -0.069833 -0.057334
 19
 105.256668
  C 0.471603 0.258763 0.689057
  C 1.970609 0.130144 0.393364
  C 2.987897 0.554069 1.436533
  C 2.435988 1.090510 2.747849
  H 3.271629 1.349687 3.394471
  C 2.258339 -0.338049 -0.757618
  C 5.724682 -0.451526 -1.041971
  C 5.886074 -0.901712 -2.206896
  H 5.124487 -1.161962 -2.931189
  H 6.885045 -1.055899 -2.625952
  H 0.344562 0.665224 1.684797
  H -0.002358 -0.715794 0.632930
  H 0.005788 0.920970 -0.033422
  H 3.615999 1.321056 0.980032
  H 3.612476 -0.315292 1.649402
  H 1.838145 0.346698 3.269129
  H 1.846071 1.991854 2.599645
  H 2.093613 -0.722519 -1.728542
  H 5.874293 -0.072605 -0.065820
