 14
 0.000000
  C 0.950684 0.132667 0.383119
  C 2.407849 0.123599 0.350115
  H 2.962536 0.466622 1.212249
  C 3.080921 -0.326863 -0.764246
  C 4.473300 -0.367434 -0.864533
  C 5.115059 -0.828888 -1.998404
  H 4.555316 -1.180642 -2.859183
  O 6.391205 -0.897092 -2.170003
  H 0.543421 0.491439 1.321548
  H 0.581876 -0.874850 0.172331
  H 0.560897 0.738869 -0.439245
  H 2.475950 -0.667270 -1.594004
  H 5.064512 -0.024832 -0.025173
  H 6.934318 -0.587451 -1.415182
 14
 1.866467
  C 0.975932 0.125015 0.344067
  C 2.422659 0.166461 0.396836
  H 2.941367 0.515003 1.279538
  C 3.098680 -0.309108 -0.704025
  C 4.479256 -0.349217 -0.843993
  C 5.078182 -0.848907 -1.978897
  H 4.471725 -1.228337 -2.797199
  O 6.357727 -0.926635 -2.201956
  H 0.482374 0.350035 1.284268
  H 0.714935 -0.859372 -0.043204
  H 0.608206 0.810529 -0.428109
  H 2.442075 -0.683378 -1.483181
  H 5.090154 0.026597 -0.035474
  H 6.933222 -0.590776 -1.479321
 14
 5.998329
  C 0.987881 0.116121 0.311667
  C 2.434627 0.206932 0.443416
  H 2.921972 0.551540 1.342254
  C 3.108859 -0.283753 -0.649866
  C 4.492700 -0.331042 -0.831490
  C 5.055341 -0.868113 -1.969243
  H 4.421497 -1.269773 -2.755091
  O 6.323979 -0.956691 -2.230074
  H 0.417406 0.226688 1.226146
  H 0.850622 -0.837912 -0.221709
  H 0.636279 0.864692 -0.407803
  H 2.396364 -0.689483 -1.369624
  H 5.127650 0.068498 -0.051842
  H 6.922431 -0.601184 -1.535853
 14
 12.267179
  C 1.004231 0.104573 0.282497
  C 2.439576 0.238938 0.474844
  H 2.899058 0.595087 1.387456
  C 3.121511 -0.266023 -0.611445
  C 4.499124 -0.318491 -0.820929
  C 5.039132 -0.887079 -1.965634
  H 4.394509 -1.303931 -2.724062
  O 6.287850 -0.982409 -2.249369
  H 0.385678 0.109614 1.171915
  H 0.978252 -0.802389 -0.361559
  H 0.644234 0.910800 -0.378475
  H 2.354940 -0.692092 -1.279375
  H 5.151266 0.096638 -0.065319
  H 6.902430 -0.610303 -1.576013
 14
 19.902593
  C 1.014351 0.091768 0.263139
  C 2.441077 0.270617 0.485356
  H 2.880160 0.661089 1.392701
  C 3.131100 -0.252083 -0.588495
  C 4.505488 -0.312174 -0.815709
  C 5.025123 -0.900316 -1.954829
  H 4.364623 -1.326141 -2.699432
  O 6.275546 -1.006862 -2.256507
  H 0.385097 -0.021034 1.129842
  H 1.084795 -0.748076 -0.486650
  H 0.618562 0.947275 -0.317638
  H 2.316986 -0.691916 -1.212776
  H 5.169723 0.107849 -0.074649
  H 6.897459 -0.630397 -1.601666
 14
 29.738329
  C 1.022378 0.083006 0.245381
  C 2.439562 0.297777 0.488741
  H 2.860676 0.730794 1.388480
  C 3.141041 -0.241203 -0.573545
  C 4.513807 -0.311800 -0.810499
  C 5.017056 -0.906274 -1.950389
  H 4.343822 -1.329383 -2.692873
  O 6.266421 -1.023948 -2.262975
  H 0.388298 -0.110679 1.103744
  H 1.175136 -0.707320 -0.570939
  H 0.596885 0.939595 -0.272828
  H 2.270336 -0.679589 -1.167521
  H 5.190171 0.100212 -0.072746
  H 6.893960 -0.653941 -1.616242
 14
 40.933670
  C 1.028836 0.076937 0.242233
  C 2.435392 0.318234 0.484301
  H 2.845111 0.780587 1.373556
  C 3.144534 -0.233459 -0.564244
  C 4.518409 -0.315789 -0.807377
  C 5.012253 -0.905210 -1.953789
  H 4.348538 -1.310256 -2.679281
  O 6.260943 -1.037528 -2.272522
  H 0.405997 -0.166545 1.096561
  H 1.250132 -0.691280 -0.622695
  H 0.560992 0.934184 -0.257148
  H 2.224345 -0.663866 -1.135608
  H 5.197924 0.078290 -0.073440
  H 6.895605 -0.679672 -1.624151
 14
 51.073041
  C 1.030151 0.072956 0.253152
  C 2.438667 0.346798 0.468692
  H 2.842592 0.868744 1.324667
  C 3.154779 -0.215988 -0.561957
  C 4.524685 -0.323687 -0.799818
  C 5.011911 -0.893797 -1.955071
  H 4.334446 -1.268659 -2.710378
  O 6.262371 -1.041577 -2.270960
  H 0.439279 -0.211909 1.117771
  H 1.294023 -0.689448 -0.673156
  H 0.518136 0.900741 -0.238547
  H 2.180334 -0.670261 -1.129697
  H 5.209444 0.022009 -0.041773
  H 6.898916 -0.714303 -1.606284
 14
 60.611863
  C 1.033556 0.072299 0.262539
  C 2.434629 0.370378 0.453678
  H 2.825166 0.925881 1.296485
  C 3.165873 -0.194173 -0.551830
  C 4.530125 -0.328469 -0.795309
  C 5.006679 -0.877923 -1.962616
  H 4.331154 -1.223291 -2.721698
  O 6.255340 -1.051372 -2.277420
  H 0.469997 -0.229888 1.135461
  H 1.333885 -0.707256 -0.705989
  H 0.485719 0.863526 -0.246909
  H 2.151374 -0.676107 -1.129227
  H 5.229916 -0.020641 -0.012074
  H 6.892960 -0.753835 -1.602676
 14
 68.049997
  C 1.029464 0.079082 0.286586
  C 2.433724 0.398887 0.440053
  H 2.814848 0.987617 1.260100
  C 3.182643 -0.169557 -0.540021
  C 4.541694 -0.330973 -0.789219
  C 5.011105 -0.852984 -1.969718
  H 4.329732 -1.166153 -2.746686
  O 6.258315 -1.058480 -2.278768
  H 0.492547 -0.228511 1.175763
  H 1.350006 -0.751000 -0.742750
  H 0.451970 0.824375 -0.252445
  H 2.125420 -0.706792 -1.151698
  H 5.235032 -0.081281 0.002753
  H 6.897013 -0.800190 -1.587911
 14
 75.347037
  C 1.024154 0.098633 0.307644
  C 2.429298 0.413300 0.428191
  H 2.802985 1.037256 1.233481
  C 3.201894 -0.155351 -0.518453
  C 4.551289 -0.347640 -0.779306
  C 5.007773 -0.840482 -1.971294
  H 4.324788 -1.095685 -2.764111
  O 6.256513 -1.053280 -2.293582
  H 0.499563 -0.189076 1.209908
  H 1.361335 -0.816838 -0.775698
  H 0.436393 0.788021 -0.283469
  H 2.101801 -0.770385 -1.171395
  H 5.255192 -0.146454 0.031319
  H 6.898955 -0.828721 -1.594533
 14
 81.603890
  C 1.019011 0.130018 0.334223
  C 2.424010 0.413202 0.423183
  H 2.792054 1.062480 1.208508
  C 3.225915 -0.143995 -0.488333
  C 4.561967 -0.358727 -0.768607
  C 5.005925 -0.824708 -1.974933
  H 4.318658 -1.034379 -2.778785
  O 6.251737 -1.046867 -2.307455
  H 0.498319 -0.123931 1.247092
  H 1.365034 -0.905249 -0.822138
  H 0.431389 0.765176 -0.315523
  H 2.083683 -0.860288 -1.206670
  H 5.270162 -0.204137 0.046714
  H 6.897349 -0.853200 -1.600717
 14
 86.233347
  C 1.010370 0.162320 0.366971
  C 2.414643 0.426126 0.405074
  H 2.778623 1.106293 1.168083
  C 3.254352 -0.128427 -0.460546
  C 4.575395 -0.372910 -0.758231
  C 5.010199 -0.792111 -1.984984
  H 4.318923 -0.947262 -2.801369
  O 6.248857 -1.048462 -2.318942
  H 0.505616 -0.045165 1.300236
  H 1.364135 -1.021519 -0.875380
  H 0.408253 0.718849 -0.336893
  H 2.067093 -0.964698 -1.260496
  H 5.278972 -0.290449 0.060094
  H 6.894376 -0.906968 -1.600376
 14
 88.535406
  C 1.003998 0.199648 0.391154
  C 2.403475 0.433325 0.377544
  H 2.767939 1.142869 1.121092
  C 3.279527 -0.122998 -0.434833
  C 4.580608 -0.406045 -0.746744
  C 5.008934 -0.778357 -1.991774
  H 4.321079 -0.852399 -2.820006
  O 6.242589 -1.047045 -2.335875
  H 0.519121 0.057317 1.345573
  H 1.355509 -1.164598 -0.929385
  H 0.388298 0.671350 -0.357438
  H 2.048138 -1.094584 -1.321840
  H 5.285736 -0.389431 0.081119
  H 6.890401 -0.953462 -1.611090
