 26
 0.000000
  C 0.965989 0.141541 0.403937
  C 2.441886 0.138164 0.395112
  C 3.233127 0.605919 1.558762
  C 2.460501 1.095991 2.778537
  H 3.141908 1.409118 3.557633
  C 3.054003 -0.327305 -0.763508
  C 4.431762 -0.411464 -0.973716
  C 5.115636 -0.861508 -2.095979
  C 4.625787 -1.384569 -3.400206
  C 3.137094 -1.502711 -3.695325
  H 2.988735 -1.901446 -4.689626
  O 6.438113 -0.854395 -2.078665
  H 0.537370 0.512682 1.327416
  H 0.592480 -0.869592 0.236896
  H 0.592193 0.755708 -0.416364
  H 3.889639 1.416058 1.222136
  H 3.889870 -0.211698 1.876292
  H 1.826045 0.303901 3.172913
  H 1.825900 1.940636 2.515245
  H 2.393786 -0.643916 -1.551567
  H 5.044520 -0.078368 -0.144398
  H 5.085213 -2.371745 -3.524029
  H 5.085494 -0.756738 -4.171875
  H 2.658730 -0.526720 -3.648007
  H 2.658489 -2.175442 -2.986800
  H 6.812607 -0.519655 -1.242292
 26
 7.769096
  C 0.992148 0.130235 0.375051
  C 2.454145 0.152642 0.430727
  C 3.201107 0.627616 1.612752
  C 2.378698 1.104570 2.800459
  H 3.047456 1.425734 3.600033
  C 3.136618 -0.294863 -0.683200
  C 4.468404 -0.406308 -0.960691
  C 5.131492 -0.879648 -2.141197
  C 4.583288 -1.391345 -3.416834
  C 3.080531 -1.485986 -3.653124
  H 2.917117 -1.887724 -4.654582
  O 6.452335 -0.890657 -2.169615
  H 0.525884 0.494104 1.280517
  H 0.645732 -0.886244 0.179300
  H 0.645496 0.728558 -0.469514
  H 3.862925 1.439804 1.290296
  H 3.863222 -0.181763 1.941763
  H 1.748880 0.309689 3.190106
  H 1.748751 1.948118 2.532142
  H 2.717815 -0.659254 -1.590687
  H 5.154991 -0.091592 -0.176525
  H 5.038086 -2.381208 -3.551055
  H 5.038358 -0.768998 -4.198025
  H 2.604700 -0.511020 -3.610780
  H 2.604394 -2.161233 -2.948790
  H 6.888001 -0.561187 -1.347010
 26
 23.344468
  C 1.014695 0.105279 0.322343
  C 2.482639 0.156071 0.438392
  C 3.186877 0.646538 1.652458
  C 2.318559 1.110589 2.814001
  H 2.955241 1.441514 3.632957
  C 3.224063 -0.275955 -0.637656
  C 4.539569 -0.395543 -0.937673
  C 5.131457 -0.881341 -2.141708
  C 4.528321 -1.386326 -3.401832
  C 3.015602 -1.466655 -3.615670
  H 2.842243 -1.867461 -4.615973
  O 6.444833 -0.916712 -2.221055
  H 0.505835 0.460799 1.207654
  H 0.696761 -0.919129 0.109645
  H 0.691925 0.693835 -0.540803
  H 3.850058 1.466793 1.350397
  H 3.855367 -0.150847 2.000722
  H 1.691681 0.304792 3.186770
  H 1.686697 1.947067 2.527118
  H 3.043108 -0.661263 -1.592520
  H 5.303980 -0.104022 -0.217309
  H 4.963830 -2.386539 -3.551550
  H 4.969767 -0.771075 -4.201286
  H 2.542238 -0.488830 -3.576985
  H 2.536058 -2.143475 -2.913247
  H 6.915725 -0.598424 -1.421385
 26
 43.081301
  C 1.017129 0.099298 0.312413
  C 2.484307 0.160780 0.448954
  C 3.171796 0.654953 1.668738
  C 2.291825 1.114085 2.823110
  H 2.916855 1.446581 3.643087
  C 3.245275 -0.264678 -0.611495
  C 4.551094 -0.392421 -0.934932
  C 5.141409 -0.891014 -2.164280
  C 4.514361 -1.394549 -3.420148
  C 2.998068 -1.460260 -3.605565
  H 2.804006 -1.857263 -4.597064
  O 6.447969 -0.930960 -2.247423
  H 0.492650 0.451014 1.189338
  H 0.710969 -0.924995 0.095731
  H 0.703558 0.683415 -0.553762
  H 3.833377 1.477673 1.371717
  H 3.841927 -0.138390 2.021349
  H 1.664703 0.302709 3.191361
  H 1.656169 1.949264 2.530184
  H 3.237019 -0.658864 -1.585066
  H 5.357967 -0.108610 -0.239969
  H 4.936835 -2.396236 -3.576259
  H 4.946082 -0.785415 -4.225714
  H 2.531894 -0.475424 -3.556499
  H 2.522075 -2.132810 -2.891327
  H 6.923972 -0.613886 -1.445942
 26
 62.714584
  C 1.017097 0.088356 0.287323
  C 2.478680 0.150528 0.424773
  C 3.166310 0.651558 1.659367
  C 2.273446 1.116730 2.828121
  H 2.893348 1.448675 3.645089
  C 3.240645 -0.274964 -0.634850
  C 4.549026 -0.408281 -0.973232
  C 5.147700 -0.898146 -2.179760
  C 4.508356 -1.392094 -3.413440
  C 2.996384 -1.432444 -3.538832
  H 2.753069 -1.825658 -4.523616
  O 6.463304 -0.938677 -2.264153
  H 0.488883 0.442049 1.168129
  H 0.709550 -0.949359 0.068571
  H 0.701521 0.679305 -0.589972
  H 3.825796 1.470168 1.364625
  H 3.835410 -0.136574 2.011552
  H 1.644679 0.302014 3.198932
  H 1.634376 1.956373 2.533860
  H 3.386332 -0.665882 -1.600107
  H 5.380907 -0.126226 -0.285000
  H 4.915449 -2.402331 -3.582391
  H 4.925963 -0.785348 -4.234137
  H 2.548941 -0.434539 -3.467913
  H 2.537317 -2.099888 -2.800320
  H 6.931163 -0.626416 -1.476382
 26
 79.064918
  C 0.982173 0.114113 0.335965
  C 2.456771 0.163052 0.451520
  C 3.153176 0.650729 1.666125
  C 2.289036 1.110803 2.823230
  H 2.927114 1.441152 3.645545
  C 3.203404 -0.265640 -0.616435
  C 4.519581 -0.404890 -0.977114
  C 5.154383 -0.901637 -2.195095
  C 4.532267 -1.408445 -3.450106
  C 3.017396 -1.458392 -3.590857
  H 2.782810 -1.856516 -4.580615
  O 6.458640 -0.925980 -2.244921
  H 0.472187 0.469623 1.222553
  H 0.665494 -0.906826 0.121952
  H 0.661437 0.701076 -0.524953
  H 3.813804 1.463751 1.366700
  H 3.818908 -0.140636 2.008888
  H 1.665506 0.308240 3.192167
  H 1.660807 1.943516 2.538696
  H 3.454273 -0.656386 -1.582154
  H 5.351708 -0.118423 -0.285683
  H 4.940013 -2.411949 -3.613025
  H 4.947444 -0.805004 -4.264840
  H 2.569110 -0.473391 -3.524281
  H 2.561486 -2.118003 -2.861031
  H 6.908952 -0.603875 -1.436495
 26
 92.273837
  C 0.971735 0.168075 0.296953
  C 2.454772 0.166049 0.419652
  C 3.157878 0.609053 1.674506
  C 2.278528 1.072063 2.831627
  H 2.913670 1.374117 3.675171
  C 3.187444 -0.254280 -0.631074
  C 4.526142 -0.379831 -1.034550
  C 5.164420 -0.881158 -2.214686
  C 4.531843 -1.421017 -3.443557
  C 3.018441 -1.486047 -3.522693
  H 2.744538 -1.907723 -4.487605
  O 6.477907 -0.885288 -2.279930
  H 0.477676 0.515071 1.185688
  H 0.633900 -0.832401 0.069291
  H 0.662742 0.778992 -0.539752
  H 3.844491 1.420775 1.389001
  H 3.804180 -0.211765 2.021735
  H 1.621607 0.269501 3.180310
  H 1.667672 1.933384 2.546796
  H 3.541072 -0.640545 -1.592713
  H 5.339797 -0.068660 -0.358088
  H 4.954329 -2.419425 -3.587471
  H 4.925460 -0.835292 -4.278493
  H 2.566167 -0.497903 -3.459097
  H 2.598951 -2.131806 -2.753960
  H 6.933370 -0.545863 -1.484706
 26
 96.501876
  C 0.962074 0.206288 0.276599
  C 2.466699 0.175075 0.399804
  C 3.154282 0.590337 1.696137
  C 2.239827 1.030412 2.815225
  H 2.847003 1.304019 3.670752
  C 3.205854 -0.222150 -0.602518
  C 4.571090 -0.361531 -1.085204
  C 5.204326 -0.871262 -2.236357
  C 4.537629 -1.440512 -3.445015
  C 3.011624 -1.494900 -3.437861
  H 2.678774 -1.929942 -4.374085
  O 6.530660 -0.878605 -2.352236
  H 0.487601 0.553538 1.190773
  H 0.597293 -0.796299 0.043089
  H 0.659916 0.860347 -0.547380
  H 3.836888 1.397682 1.441842
  H 3.764658 -0.242816 2.039084
  H 1.573478 0.231992 3.125912
  H 1.649345 1.897128 2.534180
  H 3.636371 -0.624116 -1.614739
  H 5.362755 -0.029462 -0.413150
  H 4.948799 -2.443024 -3.582286
  H 4.892211 -0.866318 -4.304321
  H 2.564914 -0.498966 -3.367699
  H 2.626225 -2.125594 -2.632667
  H 7.019974 -0.526447 -1.592299
 26
 101.026791
  C 0.947540 0.260774 0.304307
  C 2.446863 0.198718 0.424902
  C 3.142017 0.582838 1.738980
  C 2.233091 1.021352 2.865887
  H 2.852709 1.267678 3.734923
  C 3.177265 -0.198490 -0.584163
  C 4.538209 -0.360108 -1.144624
  C 5.207609 -0.874257 -2.276676
  C 4.568932 -1.474988 -3.486349
  C 3.050557 -1.552352 -3.475680
  H 2.718185 -2.002957 -4.401344
  O 6.533329 -0.850117 -2.365855
  H 0.490657 0.601275 1.216303
  H 0.560122 -0.720053 0.065159
  H 0.665747 0.933519 -0.498973
  H 3.843855 1.386001 1.492667
  H 3.734843 -0.283295 2.057586
  H 1.546730 0.225796 3.163285
  H 1.660513 1.912417 2.600123
  H 3.637090 -0.617901 -1.651069
  H 5.298581 0.003401 -0.445388
  H 4.992603 -2.467960 -3.604499
  H 4.911193 -0.904427 -4.345451
  H 2.594062 -0.567038 -3.418796
  H 2.682417 -2.176000 -2.665780
  H 6.996104 -0.470615 -1.604363
 26
 105.736536
  C 0.930177 0.336822 0.330841
  C 2.427763 0.223031 0.435576
  C 3.141441 0.547833 1.753529
  C 2.252285 0.985794 2.896445
  H 2.879665 1.187394 3.764241
  C 3.131062 -0.172136 -0.590150
  C 4.482241 -0.340983 -1.208150
  C 5.210419 -0.859342 -2.299947
  C 4.610873 -1.509288 -3.505063
  C 3.085910 -1.620611 -3.494955
  H 2.760764 -2.106417 -4.413002
  O 6.534015 -0.790499 -2.351981
  H 0.485544 0.674803 1.272476
  H 0.503903 -0.627907 0.069855
  H 0.667934 1.037413 -0.450830
  H 3.867414 1.340925 1.536051
  H 3.702125 -0.341142 2.052443
  H 1.543472 0.208275 3.175546
  H 1.712258 1.899583 2.658363
  H 3.619060 -0.600251 -1.710574
  H 5.196173 0.070942 -0.470109
  H 5.058227 -2.501694 -3.595537
  H 4.943504 -0.951953 -4.380690
  H 2.604791 -0.636721 -3.466577
  H 2.728704 -2.235685 -2.660879
  H 6.962698 -0.378062 -1.586972
 26
 109.361685
  C 0.910300 0.493224 0.349342
  C 2.396197 0.275721 0.439161
  C 3.137533 0.470859 1.768681
  C 2.282925 0.893935 2.951787
  H 2.926698 1.001621 3.822305
  C 3.059640 -0.114885 -0.609354
  C 4.409061 -0.270490 -1.267399
  C 5.200388 -0.818723 -2.326718
  C 4.653501 -1.566712 -3.501039
  C 3.139700 -1.753380 -3.501732
  H 2.850629 -2.306725 -4.390769
  O 6.512163 -0.662358 -2.362576
  H 0.500004 0.805323 1.299421
  H 0.419069 -0.427685 0.044007
  H 0.688448 1.255559 -0.395156
  H 3.903395 1.230727 1.598169
  H 3.640797 -0.466320 2.014980
  H 1.530048 0.146682 3.190527
  H 1.801133 1.852912 2.776839
  H 3.588861 -0.584485 -1.775829
  H 5.074232 0.228359 -0.553980
  H 5.150355 -2.541179 -3.526156
  H 4.971404 -1.042514 -4.406945
  H 2.613561 -0.800720 -3.539324
  H 2.804926 -2.333123 -2.643807
  H 6.903876 -0.186482 -1.610809
 26
 113.438797
  C 0.911583 0.706708 0.364622
  C 2.368087 0.332576 0.431642
  C 3.122409 0.341526 1.768131
  C 2.314897 0.758641 2.988495
  H 2.965045 0.731206 3.861878
  C 2.991068 -0.046711 -0.643946
  C 4.309112 -0.180367 -1.341847
  C 5.175495 -0.750264 -2.360663
  C 4.705226 -1.624013 -3.470441
  C 3.209808 -1.925628 -3.448763
  H 2.963948 -2.570338 -4.291092
  O 6.469246 -0.483081 -2.395366
  H 0.528008 0.989463 1.335301
  H 0.331170 -0.134677 -0.006444
  H 0.769938 1.538938 -0.321848
  H 3.965078 1.027495 1.650031
  H 3.528829 -0.657913 1.938358
  H 1.486524 0.078498 3.173267
  H 1.934883 1.773097 2.891715
  H 3.561860 -0.567568 -1.887428
  H 4.926033 0.394773 -0.663844
  H 5.278225 -2.553613 -3.422677
  H 4.987386 -1.151203 -4.415557
  H 2.610453 -1.021070 -3.561786
  H 2.919550 -2.460302 -2.544304
  H 6.811685 0.083297 -1.674352
 26
 116.373326
  C 0.957544 0.897715 0.384461
  C 2.372938 0.392059 0.434796
  C 3.100519 0.219452 1.773514
  C 2.313823 0.606297 3.010214
  H 2.940893 0.448158 3.884854
  C 2.974472 0.039005 -0.657086
  C 4.237132 -0.110712 -1.422211
  C 5.147501 -0.683706 -2.402702
  C 4.739734 -1.676954 -3.442574
  C 3.274415 -2.092748 -3.367195
  H 3.068419 -2.814703 -4.147218
  O 6.417388 -0.304273 -2.468180
  H 0.586385 1.138744 1.371775
  H 0.308543 0.142196 -0.055078
  H 0.901295 1.787855 -0.235802
  H 4.003740 0.832481 1.723237
  H 3.412580 -0.821302 1.865302
  H 1.424135 -0.006971 3.126778
  H 2.029203 1.655465 2.992436
  H 3.556520 -0.570136 -1.976841
  H 4.824670 0.553243 -0.765510
  H 5.389320 -2.554641 -3.335226
  H 4.968265 -1.259831 -4.424931
  H 2.603547 -1.252590 -3.538676
  H 3.041399 -2.574924 -2.419839
  H 6.714887 0.334128 -1.792818
 26
 117.653025
  C 1.032325 1.052697 0.424470
  C 2.398959 0.421960 0.475650
  C 3.072098 0.107345 1.816772
  C 2.287174 0.494890 3.055563
  H 2.870755 0.233663 3.933653
  C 2.989309 0.076536 -0.624507
  C 4.167802 -0.117904 -1.480779
  C 5.121269 -0.645625 -2.461086
  C 4.782615 -1.710081 -3.447091
  C 3.361357 -2.249484 -3.313376
  H 3.199012 -3.022700 -4.058851
  O 6.348735 -0.150480 -2.572023
  H 0.659433 1.273527 1.417042
  H 0.330972 0.379634 -0.065734
  H 1.067038 1.975287 -0.148425
  H 4.025740 0.637721 1.827061
  H 3.288422 -0.959848 1.854376
  H 1.344522 -0.038280 3.115509
  H 2.098875 1.563812 3.090071
  H 3.539031 -0.646175 -2.036838
  H 4.706314 0.601007 -0.876671
  H 5.508290 -2.519364 -3.322968
  H 4.948481 -1.317099 -4.455479
  H 2.613542 -1.477086 -3.502481
  H 3.193658 -2.706668 -2.339952
  H 6.602614 0.526192 -1.930861
