 18
 0.000000
  C 0.920154 0.066553 0.188189
  C 2.418778 0.073496 0.091735
  C 3.259347 0.002572 1.351431
  C 2.513155 -0.098834 2.675168
  H 3.230667 -0.146925 3.488381
  C 3.026081 0.132673 -1.089400
  C 2.363770 0.195065 -2.425980
  H 1.282337 0.202308 -2.362384
  H 4.108374 0.130906 -1.136673
  H 0.576473 0.012558 1.214921
  H 0.510739 -0.790447 -0.344139
  H 0.508010 0.973156 -0.252006
  H 3.902195 0.889036 1.398154
  H 3.921671 -0.863930 1.268873
  H 1.898813 -0.994826 2.714113
  H 1.878498 0.768784 2.836744
  H 2.675196 -0.660240 -3.030729
  H 2.691075 1.092003 -2.957626
 18
 -0.280806
  C 0.903188 -0.088003 0.184227
  C 2.400757 -0.000756 0.091105
  C 3.246390 -0.118078 1.342437
  C 2.526644 0.027342 2.673398
  H 3.255035 -0.016179 3.482321
  C 3.017431 0.164920 -1.075069
  C 2.377033 0.284026 -2.416428
  H 1.299175 0.326841 -2.352303
  H 4.097596 0.209063 -1.094367
  H 0.569415 -0.250106 1.198442
  H 0.533077 -0.908713 -0.428097
  H 0.446085 0.834087 -0.177618
  H 4.021861 0.650236 1.288878
  H 3.754504 -1.084429 1.326466
  H 1.809147 -0.775962 2.831882
  H 2.009580 0.982507 2.733147
  H 2.653761 -0.567109 -3.037518
  H 2.733057 1.183878 -2.918881
 18
 -0.832410
  C 0.913805 -0.241330 0.159069
  C 2.403522 -0.069846 0.087806
  C 3.230515 -0.230173 1.344347
  C 2.552309 0.181092 2.645944
  H 3.264629 0.104593 3.465496
  C 3.018698 0.208896 -1.050128
  C 2.370958 0.394306 -2.382919
  H 1.294093 0.471763 -2.303796
  H 4.096442 0.291417 -1.063833
  H 0.590328 -0.528915 1.153819
  H 0.588132 -1.012388 -0.537765
  H 0.408017 0.687067 -0.106632
  H 4.117589 0.392461 1.211413
  H 3.560388 -1.269918 1.426068
  H 1.705351 -0.460185 2.884853
  H 2.205856 1.211324 2.587480
  H 2.609964 -0.444974 -3.036868
  H 2.752589 1.297863 -2.857749
 18
 -1.597069
  C 0.937804 -0.403279 0.133914
  C 2.421225 -0.169298 0.090468
  C 3.206496 -0.356546 1.361249
  C 2.581838 0.312941 2.584023
  H 3.244793 0.206700 3.440527
  C 3.042074 0.218191 -1.015508
  C 2.349257 0.496110 -2.316427
  H 1.274666 0.612352 -2.185923
  H 4.119587 0.312812 -1.029964
  H 0.631783 -0.797362 1.096595
  H 0.646081 -1.119552 -0.632937
  H 0.390815 0.521859 -0.045072
  H 4.170412 0.107217 1.179710
  H 3.349742 -1.421308 1.561707
  H 1.625833 -0.131072 2.845799
  H 2.429548 1.372881 2.395654
  H 2.524925 -0.317079 -3.024736
  H 2.750243 1.407266 -2.761669
 18
 0.876028
  C 0.925298 -0.575802 0.114708
  C 2.395804 -0.271599 0.098600
  C 3.169323 -0.463213 1.377611
  C 2.633748 0.459682 2.475700
  H 3.270769 0.400386 3.355663
  C 3.027826 0.233020 -0.957371
  C 2.358307 0.654228 -2.229145
  H 1.301603 0.850760 -2.076787
  H 4.105609 0.173108 -1.021304
  H 0.645384 -1.053019 1.049719
  H 0.677270 -1.247365 -0.705789
  H 0.323530 0.325964 0.000351
  H 4.166820 -0.111097 1.122848
  H 3.154395 -1.496654 1.721402
  H 1.623761 0.184213 2.770359
  H 2.619898 1.488835 2.125119
  H 2.458211 -0.115311 -2.996633
  H 2.831423 1.558821 -2.608677
 18
 11.956667
  C 0.880600 -0.685278 0.075950
  C 2.336498 -0.333811 0.113799
  C 3.125483 -0.531886 1.386875
  C 2.703739 0.530030 2.414222
  H 3.358887 0.483920 3.281421
  C 3.025168 0.182736 -0.907541
  C 2.394575 0.791000 -2.126435
  H 1.388422 1.142300 -1.914510
  H 4.045640 -0.132038 -1.075176
  H 0.587193 -1.168418 1.003962
  H 0.695847 -1.363738 -0.754791
  H 0.242809 0.188845 -0.065897
  H 4.087405 -0.170778 1.025585
  H 3.042776 -1.523007 1.819475
  H 1.681584 0.372175 2.755161
  H 2.767382 1.522717 1.976848
  H 2.341483 0.079213 -2.952583
  H 2.997503 1.635308 -2.457785
 18
 31.250040
  C 0.787497 -0.787505 0.010613
  C 2.233758 -0.430285 0.125203
  C 3.025680 -0.590161 1.401137
  C 2.815759 0.602493 2.353978
  H 3.597806 0.604590 3.108834
  C 3.001604 0.119847 -0.836325
  C 2.476347 0.901890 -2.011390
  H 1.513583 1.352076 -1.783125
  H 3.928067 -0.373649 -1.093769
  H 0.463402 -1.317711 0.901356
  H 0.637619 -1.419271 -0.862543
  H 0.149115 0.091330 -0.108418
  H 3.947502 -0.225960 0.906886
  H 2.900682 -1.524423 1.934999
  H 1.855204 0.540682 2.867812
  H 2.843991 1.540961 1.807396
  H 2.359793 0.279446 -2.902221
  H 3.184091 1.692697 -2.253511
 18
 60.183945
  C 0.711378 -0.907990 -0.062275
  C 2.130305 -0.500929 0.142484
  C 2.904048 -0.585811 1.403820
  C 2.930464 0.663437 2.308097
  H 3.800145 0.631977 2.958401
  C 2.978283 0.074193 -0.763514
  C 2.544806 0.981749 -1.892270
  H 1.634535 1.518039 -1.633024
  H 3.813760 -0.531183 -1.088297
  H 0.339875 -1.431759 0.814835
  H 0.622834 -1.553335 -0.934600
  H 0.070921 -0.038819 -0.232928
  H 3.801103 -0.130142 0.731639
  H 2.771058 -1.478414 2.010118
  H 2.041414 0.696745 2.944538
  H 2.954974 1.579325 1.723090
  H 2.363620 0.425520 -2.815595
  H 3.330889 1.706953 -2.093061
 18
 76.770371
  C 0.695173 -0.955827 -0.064360
  C 2.107763 -0.553661 0.179183
  C 2.825069 -0.580304 1.405139
  C 2.948709 0.672216 2.267096
  H 3.841513 0.632801 2.889946
  C 3.014322 0.051798 -0.733493
  C 2.575105 1.009567 -1.823476
  H 1.691120 1.565229 -1.518810
  H 3.815153 -0.586869 -1.101131
  H 0.284220 -1.448433 0.813826
  H 0.607657 -1.622827 -0.923061
  H 0.092284 -0.071071 -0.275199
  H 3.804108 0.026776 0.470324
  H 2.686309 -1.451754 2.059102
  H 2.083183 0.734196 2.932070
  H 2.980778 1.580086 1.667866
  H 2.346134 0.473102 -2.745252
  H 3.371150 1.719825 -2.041115
 18
 60.286717
  C 0.703489 -1.013482 -0.058143
  C 2.094127 -0.579331 0.239863
  C 2.748340 -0.584954 1.442010
  C 2.954125 0.671255 2.256239
  H 3.834899 0.605477 2.898380
  C 3.052635 0.048442 -0.701743
  C 2.594413 1.039129 -1.752632
  H 1.757441 1.630361 -1.387500
  H 3.794890 -0.645808 -1.123101
  H 0.258638 -1.495071 0.811899
  H 0.647223 -1.697082 -0.910453
  H 0.114786 -0.128575 -0.306445
  H 3.807634 0.160932 0.222380
  H 2.580283 -1.415437 2.144036
  H 2.082440 0.792211 2.900503
  H 3.048798 1.558659 1.632485
  H 2.283727 0.515802 -2.655088
  H 3.402263 1.719323 -2.020502
 18
 33.917969
  C 0.753833 -1.079345 -0.134507
  C 2.106016 -0.605462 0.259965
  C 2.607758 -0.553521 1.506082
  C 3.003041 0.694849 2.244419
  H 3.910331 0.564839 2.838911
  C 3.072906 0.036010 -0.705712
  C 2.577215 1.066234 -1.699685
  H 1.782598 1.668971 -1.265407
  H 3.712677 -0.715986 -1.193281
  H 0.253026 -1.556972 0.704264
  H 0.769447 -1.771095 -0.978824
  H 0.180484 -0.203852 -0.434082
  H 3.834662 0.285821 0.075084
  H 2.325427 -1.315990 2.239311
  H 2.188246 0.921431 2.930249
  H 3.145534 1.546483 1.582628
  H 2.191886 0.575174 -2.590030
  H 3.383577 1.731807 -2.001099
 18
 16.646163
  C 0.816112 -1.104231 -0.190619
  C 2.113617 -0.545752 0.287546
  C 2.515917 -0.509329 1.563014
  C 3.066233 0.673937 2.306531
  H 3.888793 0.406216 2.972063
  C 3.064425 0.101474 -0.685368
  C 2.518784 1.066372 -1.722861
  H 1.759532 1.711646 -1.285264
  H 3.623813 -0.703663 -1.187437
  H 0.282944 -1.594654 0.620273
  H 0.930271 -1.808525 -1.016633
  H 0.218290 -0.267269 -0.548264
  H 3.862396 0.467638 -0.020609
  H 2.128466 -1.232296 2.282938
  H 2.253531 1.057208 2.922609
  H 3.403300 1.470991 1.648844
  H 2.072432 0.521858 -2.551375
  H 3.313938 1.695058 -2.117299
 18
 4.693964
  C 0.877728 -1.132662 -0.226775
  C 2.111789 -0.478621 0.309930
  C 2.387977 -0.405245 1.608331
  C 3.145189 0.663941 2.337470
  H 3.911079 0.245485 2.992005
  C 3.058514 0.137356 -0.687068
  C 2.453323 1.057025 -1.739163
  H 1.712857 1.716382 -1.290308
  H 3.582362 -0.693010 -1.180564
  H 0.303154 -1.593499 0.572787
  H 1.102259 -1.887351 -0.981726
  H 0.265941 -0.364549 -0.696901
  H 3.852174 0.615754 -0.104554
  H 1.882003 -1.056229 2.316608
  H 2.429100 1.193602 2.965768
  H 3.614086 1.385952 1.675825
  H 1.969526 0.481336 -2.524519
  H 3.225822 1.672429 -2.194423
 18
 1.855555
  C 0.907613 -1.263106 -0.224190
  C 2.046712 -0.448433 0.310933
  C 2.278040 -0.309485 1.605943
  C 3.150704 0.697946 2.278066
  H 3.921087 0.212550 2.881631
  C 3.027402 0.111022 -0.705755
  C 2.498009 1.163745 -1.663623
  H 1.895295 1.896344 -1.131346
  H 3.379186 -0.759993 -1.270911
  H 0.339194 -1.718767 0.581907
  H 1.257136 -2.045713 -0.904233
  H 0.242017 -0.606951 -0.788790
  H 3.878820 0.471886 -0.107213
  H 1.712344 -0.891006 2.330381
  H 2.527278 1.279347 2.951304
  H 3.633834 1.382905 1.589093
  H 1.873046 0.704269 -2.425776
  H 3.317165 1.681536 -2.154697
 18
 -3.297004
  C 1.004401 -1.350781 -0.247527
  C 2.090553 -0.464358 0.289006
  C 2.160268 -0.174112 1.581762
  C 3.146181 0.705266 2.281466
  H 3.767637 0.108407 2.952437
  C 3.051139 0.058894 -0.746883
  C 2.449747 1.208326 -1.557609
  H 2.067958 1.979002 -0.890588
  H 3.320562 -0.756160 -1.423678
  H 0.385664 -1.744398 0.555119
  H 1.433196 -2.186907 -0.800865
  H 0.365770 -0.793121 -0.932001
  H 3.964369 0.400094 -0.262125
  H 1.434717 -0.618779 2.252888
  H 2.614090 1.435294 2.891463
  H 3.792372 1.241768 1.595166
  H 1.631316 0.857074 -2.182020
  H 3.204942 1.652590 -2.203289
