 22
 0.000000
  C 0.913744 0.045557 0.328315
  C 2.366213 0.065730 -0.029205
  H 3.021435 0.017070 0.833193
  C 2.975330 0.132956 -1.220558
  C 2.366313 0.210727 -2.598836
  C 0.848496 0.219210 -2.749147
  C 0.463548 0.302389 -4.223245
  C 4.438453 0.132101 -1.205368
  C 5.254372 0.191128 -2.251517
  H 6.323020 0.183714 -2.120107
  H 0.806097 -0.015357 1.407776
  H 0.406341 -0.811923 -0.108167
  H 0.406341 0.946702 -0.008931
  H 2.758060 -0.636845 -3.172236
  H 2.758062 1.117424 -3.073246
  H 0.423479 1.076100 -2.227770
  H 0.423491 -0.690870 -2.327487
  H 0.858680 1.211320 -4.672518
  H -0.618364 0.308730 -4.335610
  H 0.858688 -0.550246 -4.771928
  H 4.878271 0.076341 -0.217162
  H 4.912352 0.248607 -3.270186
 22
 13.705880
  C 0.773085 0.041612 0.398239
  C 2.386328 0.063406 0.011996
  H 3.035233 0.014874 0.872125
  C 3.032193 0.135730 -1.269703
  C 2.403669 0.212751 -2.634700
  C 0.883490 0.219277 -2.750327
  C 0.462045 0.301902 -4.214605
  C 4.488590 0.134484 -1.247589
  C 5.306945 0.193392 -2.291632
  H 6.375170 0.185808 -2.157209
  H 0.673066 -0.019230 1.476437
  H 0.278369 -0.816197 -0.043855
  H 0.278370 0.943712 0.055455
  H 2.785260 -0.634947 -3.215201
  H 2.785260 1.120366 -3.116149
  H 0.471263 1.075143 -2.217479
  H 0.471266 -0.691094 -2.317145
  H 0.844762 1.211341 -4.673612
  H -0.622274 0.306738 -4.300304
  H 0.844763 -0.550132 -4.773006
  H 4.926482 0.078638 -0.257842
  H 4.967018 0.250901 -3.310846
 22
 40.831011
  C 0.588062 0.041518 0.399938
  C 2.464443 0.065288 -0.021415
  H 3.082006 0.015794 0.855649
  C 3.095207 0.137791 -1.306227
  C 2.434077 0.214278 -2.661719
  C 0.899421 0.218022 -2.728085
  C 0.424089 0.299587 -4.173473
  C 4.552532 0.134723 -1.251735
  C 5.391241 0.194101 -2.304089
  H 6.457176 0.186127 -2.162848
  H 0.552121 -0.019275 1.477266
  H 0.151476 -0.826707 -0.050069
  H 0.151481 0.954877 0.050463
  H 2.807342 -0.635155 -3.258317
  H 2.807302 1.125374 -3.158917
  H 0.517154 1.070322 -2.174615
  H 0.517194 -0.691083 -2.274056
  H 0.787496 1.209248 -4.646306
  H -0.662765 0.302168 -4.219304
  H 0.787529 -0.551149 -4.745689
  H 4.981470 0.078441 -0.254306
  H 5.054882 0.251698 -3.324995
 22
 69.973579
  C 0.395873 0.038564 0.451930
  C 2.540553 0.067498 -0.060315
  H 3.125117 0.017743 0.821645
  C 3.145549 0.139344 -1.333614
  C 2.477210 0.214878 -2.672424
  C 0.944166 0.216905 -2.707563
  C 0.433652 0.297940 -4.144399
  C 4.597823 0.136577 -1.284731
  C 5.412375 0.195816 -2.334703
  H 6.479672 0.188647 -2.207597
  H 0.427713 -0.021931 1.523964
  H 0.003176 -0.833794 -0.018340
  H 0.003152 0.958282 0.082786
  H 2.839853 -0.635160 -3.272311
  H 2.839882 1.126988 -3.172873
  H 0.566943 1.069489 -2.147310
  H 0.566916 -0.693326 -2.246747
  H 0.784684 1.207946 -4.626222
  H -0.654195 0.299099 -4.164793
  H 0.784673 -0.552119 -4.725472
  H 5.037229 0.080473 -0.290401
  H 5.059875 0.253020 -3.348354
 22
 93.383527
  C 0.172697 0.037775 0.465728
  C 2.611869 0.070012 -0.104893
  H 3.147851 0.016827 0.837925
  C 3.203635 0.139735 -1.340590
  C 2.532320 0.214988 -2.674436
  C 1.001809 0.214468 -2.664737
  C 0.446328 0.294507 -4.083664
  C 4.653552 0.138850 -1.324976
  C 5.438792 0.199277 -2.396017
  H 6.510420 0.193717 -2.297486
  H 0.258978 -0.023077 1.544142
  H -0.168177 -0.848968 -0.033246
  H -0.168211 0.975017 0.069672
  H 2.877686 -0.632039 -3.282908
  H 2.877731 1.125104 -3.183815
  H 0.638952 1.065460 -2.090633
  H 0.638931 -0.695641 -2.189979
  H 0.779472 1.204378 -4.576507
  H -0.640999 0.293642 -4.067937
  H 0.779440 -0.554191 -4.675691
  H 5.110956 0.083417 -0.342523
  H 5.058914 0.255898 -3.399460
 22
 109.099283
  C -0.053030 0.036576 0.487003
  C 2.672409 0.073074 -0.158975
  H 3.139751 0.019057 0.798742
  C 3.255990 0.140783 -1.359157
  C 2.573823 0.215414 -2.682033
  C 1.044718 0.212293 -2.626356
  C 0.439099 0.291669 -4.033437
  C 4.734614 0.141251 -1.367437
  C 5.502175 0.201872 -2.441979
  H 6.582879 0.197067 -2.356889
  H 0.108157 -0.024098 1.562503
  H -0.347189 -0.849924 -0.016887
  H -0.347219 0.974098 0.086033
  H 2.904820 -0.631250 -3.291330
  H 2.904939 1.125373 -3.192386
  H 0.700798 1.067749 -2.032287
  H 0.700637 -0.704775 -2.132050
  H 0.753552 1.202468 -4.537783
  H -0.648741 0.288829 -3.982596
  H 0.753422 -0.556480 -4.636824
  H 5.201469 0.085811 -0.384778
  H 5.110651 0.257895 -3.435002
 22
 118.688262
  C -0.259546 0.031633 0.574213
  C 2.725230 0.074527 -0.184682
  H 3.133182 0.018198 0.813963
  C 3.308088 0.141101 -1.364646
  C 2.608299 0.216660 -2.703964
  C 1.098530 0.211980 -2.620436
  C 0.465726 0.290445 -4.011304
  C 4.768020 0.142864 -1.395810
  C 5.519305 0.204579 -2.489780
  H 6.590805 0.200923 -2.425229
  H -0.015789 -0.027308 1.618977
  H -0.521291 -0.859247 0.056254
  H -0.521343 0.975144 0.159734
  H 2.932821 -0.635694 -3.318274
  H 2.932870 1.132671 -3.218542
  H 0.775231 1.061071 -2.016754
  H 0.775132 -0.699685 -2.115963
  H 0.768200 1.200403 -4.521055
  H -0.617765 0.286377 -3.938511
  H 0.768133 -0.556449 -4.620139
  H 5.238890 0.088238 -0.427601
  H 5.109871 0.260828 -3.487070
 22
 124.369596
  C -0.462328 0.027736 0.643527
  C 2.774288 0.077054 -0.229166
  H 3.103929 0.019952 0.783117
  C 3.371013 0.142464 -1.388554
  C 2.646487 0.218015 -2.728111
  C 1.120976 0.211077 -2.604139
  C 0.450637 0.288153 -3.971012
  C 4.841214 0.144972 -1.432872
  C 5.586685 0.206860 -2.530307
  H 6.674583 0.203550 -2.472042
  H -0.148297 -0.029260 1.653752
  H -0.698663 -0.875171 0.107421
  H -0.698665 0.985053 0.212443
  H 2.960807 -0.624064 -3.338549
  H 2.960693 1.123072 -3.239763
  H 0.810181 1.061602 -1.988626
  H 0.810347 -0.702767 -2.088466
  H 0.740860 1.208097 -4.492435
  H -0.636238 0.282252 -3.865898
  H 0.740884 -0.567465 -4.592704
  H 5.318508 0.090233 -0.462484
  H 5.184654 0.261661 -3.502409
 22
 127.418079
  C -0.676449 0.023287 0.722157
  C 2.801408 0.079986 -0.281516
  H 3.060348 0.021694 0.751609
  C 3.413940 0.144473 -1.424391
  C 2.689468 0.218672 -2.739726
  C 1.162353 0.210271 -2.589898
  C 0.480235 0.285368 -3.921863
  C 4.892280 0.147671 -1.480962
  C 5.625843 0.209677 -2.580312
  H 6.718149 0.206625 -2.526361
  H -0.298383 -0.033051 1.720344
  H -0.894660 -0.863793 0.192449
  H -0.894686 0.964305 0.295596
  H 2.996695 -0.619172 -3.348058
  H 2.996616 1.119421 -3.249786
  H 0.856566 1.052738 -1.976502
  H 0.856758 -0.695368 -2.075481
  H 0.760906 1.202989 -4.444647
  H -0.598842 0.278280 -3.795915
  H 0.761008 -0.567838 -4.544708
  H 5.373586 0.093222 -0.515711
  H 5.200217 0.266118 -3.581187
 22
 128.784868
  C -0.866764 0.015709 0.856972
  C 2.835940 0.082051 -0.318117
  H 3.039469 0.022731 0.733083
  C 3.458270 0.145940 -1.450389
  C 2.725875 0.219699 -2.757601
  C 1.199392 0.210008 -2.585441
  C 0.477258 0.286368 -3.939188
  C 4.945766 0.149327 -1.510526
  C 5.679572 0.211358 -2.610121
  H 6.753144 0.208347 -2.556423
  H -0.436520 -0.038731 1.821393
  H -1.087907 -0.876938 0.324063
  H -1.087910 0.962615 0.427872
  H 3.035634 -0.630298 -3.372418
  H 3.035657 1.133466 -3.272895
  H 0.901684 1.058320 -1.961207
  H 0.901636 -0.703257 -2.060523
  H 0.748596 1.209191 -4.471875
  H -0.609243 0.278325 -3.796292
  H 0.748634 -0.570777 -4.572344
  H 5.421963 0.095547 -0.557139
  H 5.255841 0.267254 -3.600707
 22
 129.218985
  C -1.052446 0.005164 1.044556
  C 2.844660 0.084258 -0.357190
  H 3.010684 0.025258 0.688799
  C 3.475894 0.148062 -1.488362
  C 2.743463 0.222033 -2.799480
  C 1.237175 0.212202 -2.624911
  C 0.517356 0.287844 -3.965114
  C 4.965308 0.150953 -1.539758
  C 5.701884 0.212878 -2.637169
  H 6.778564 0.209829 -2.581315
  H -0.560351 -0.048363 1.993357
  H -1.291578 -0.887164 0.518828
  H -1.291515 0.950726 0.622617
  H 3.048999 -0.631199 -3.416214
  H 3.049016 1.139120 -3.316342
  H 0.948233 1.051069 -2.004514
  H 0.948081 -0.691315 -2.102578
  H 0.782064 1.192576 -4.488958
  H -0.555781 0.279828 -3.822448
  H 0.781947 -0.552156 -4.587260
  H 5.448606 0.095949 -0.564120
  H 5.286502 0.267751 -3.608672
 22
 129.475363
  C -1.216868 -0.008762 1.290132
  C 2.854956 0.086144 -0.391538
  H 3.000836 0.026596 0.664151
  C 3.492885 0.149500 -1.514617
  C 2.770887 0.224326 -2.840736
  C 1.252862 0.215437 -2.683006
  C 0.545906 0.291995 -4.039724
  C 4.982108 0.151474 -1.549538
  C 5.727303 0.213036 -2.640068
  H 6.815638 0.209401 -2.573458
  H -0.671880 -0.059742 2.193832
  H -1.482673 -0.908270 0.773947
  H -1.482709 0.943233 0.878327
  H 3.078718 -0.625911 -3.453846
  H 3.078824 1.138335 -3.354478
  H 0.954396 1.066720 -2.057452
  H 0.954334 -0.700855 -2.157084
  H 0.819086 1.199818 -4.562040
  H -0.537203 0.284679 -3.910147
  H 0.818949 -0.551088 -4.660591
  H 5.460782 0.095672 -0.559789
  H 5.308667 0.269578 -3.640736
 22
 129.580476
  C -1.375482 -0.023520 1.553772
  C 2.844085 0.088382 -0.431786
  H 2.979539 0.028878 0.623073
  C 3.493670 0.151476 -1.550601
  C 2.790191 0.226745 -2.883824
  C 1.270493 0.219060 -2.747134
  C 0.589375 0.295604 -4.103497
  C 4.980327 0.152400 -1.567665
  C 5.740098 0.213598 -2.650770
  H 6.801635 0.209497 -2.572993
  H -0.764519 -0.072704 2.425301
  H -1.661770 -0.919087 1.054379
  H -1.661639 0.922370 1.158340
  H 3.103059 -0.618230 -3.490596
  H 3.103401 1.135193 -3.392160
  H 0.962020 1.070614 -2.128120
  H 0.961792 -0.697065 -2.227513
  H 0.873059 1.207966 -4.622987
  H -0.495040 0.289131 -3.988368
  H 0.872887 -0.552358 -4.722054
  H 5.441795 0.096846 -0.581703
  H 5.340531 0.269878 -3.643366
