 19
 0.000000
  C -1.098971 -0.147840 0.033086
  C -1.338332 -1.617640 -0.077306
  C -0.729520 -2.409088 1.059452
  C -2.833398 -2.122435 -0.158136
  C -3.868918 -1.080000 0.065705
  O -3.050783 -3.272962 -0.355143
  H -0.013647 0.012115 -0.002419
  H -1.422740 0.265678 0.986316
  H -1.521120 0.412274 -0.796408
  H -0.954552 -1.975573 -1.040567
  H -1.142022 -2.131868 2.028885
  H 0.334996 -2.169314 1.096499
  H -0.863851 -3.477503 0.916932
  H -3.480323 -0.078494 0.175288
  H -4.421199 -1.375135 0.960834
  H -4.564591 -1.134921 -0.774068
  O 2.248089 -0.063444 -0.001230
  H 2.780369 -0.523803 -0.655884
  H 2.840747 0.187047 0.711976
 19
 -0.310305
  C -1.035802 -0.162162 0.027362
  C -1.283357 -1.628579 -0.077401
  C -0.705241 -2.425056 1.071400
  C -2.792018 -2.101390 -0.166861
  C -3.810558 -1.050530 0.066345
  O -3.024796 -3.246320 -0.379745
  H 0.061557 -0.022996 -0.003743
  H -1.341506 0.258533 0.980734
  H -1.437426 0.401263 -0.808359
  H -0.914107 -2.004622 -1.040087
  H -1.123173 -2.124783 2.032319
  H 0.364830 -2.213836 1.116291
  H -0.860712 -3.493333 0.936252
  H -3.405461 -0.056151 0.187451
  H -4.370329 -1.345343 0.956753
  H -4.510500 -1.085384 -0.770155
  O 1.985025 -0.071970 -0.002720
  H 2.522054 -0.521006 -0.661898
  H 2.566965 0.195237 0.714052
 19
 1.325663
  C -0.983925 -0.167418 0.032485
  C -1.241386 -1.622335 -0.077966
  C -0.673245 -2.429157 1.077051
  C -2.760569 -2.078952 -0.171033
  C -3.799168 -1.037178 0.062906
  O -2.998494 -3.225052 -0.390914
  H 0.145371 -0.016730 0.006973
  H -1.279027 0.255990 0.992398
  H -1.367588 0.406998 -0.801653
  H -0.872010 -2.004112 -1.037435
  H -1.094437 -2.127950 2.023998
  H 0.390077 -2.240997 1.127970
  H -0.841379 -3.483214 0.940509
  H -3.402656 -0.039774 0.190562
  H -4.362782 -1.338712 0.946701
  H -4.497044 -1.073563 -0.774268
  O 1.807055 -0.095548 -0.005267
  H 2.327108 -0.548711 -0.674572
  H 2.386541 0.167536 0.719049
 19
 3.570757
  C -0.956009 -0.197359 0.028529
  C -1.210633 -1.642059 -0.078336
  C -0.653788 -2.450104 1.082936
  C -2.727978 -2.064273 -0.171472
  C -3.754854 -1.006502 0.062716
  O -2.988487 -3.209521 -0.394652
  H 0.204158 -0.049579 0.005199
  H -1.242737 0.235780 0.994813
  H -1.322252 0.380485 -0.817042
  H -0.835266 -2.030160 -1.019610
  H -1.091562 -2.138749 2.026361
  H 0.421420 -2.288267 1.144660
  H -0.841829 -3.502960 0.944213
  H -3.334782 -0.012353 0.191576
  H -4.326001 -1.293926 0.944788
  H -4.455508 -1.025792 -0.771750
  O 1.640570 -0.077299 -0.004826
  H 2.169754 -0.532442 -0.689843
  H 2.190898 0.201160 0.721816
 19
 6.617772
  C -0.951371 -0.195511 0.048812
  C -1.208312 -1.649236 -0.092818
  C -0.653428 -2.482659 1.066344
  C -2.719064 -2.047637 -0.193649
  C -3.741629 -1.000228 0.085870
  O -2.992150 -3.185247 -0.462254
  H 0.291105 -0.031883 0.034267
  H -1.212598 0.213400 1.018759
  H -1.295532 0.404749 -0.783945
  H -0.812789 -2.027418 -1.049414
  H -1.098921 -2.184713 2.006944
  H 0.414470 -2.345882 1.138154
  H -0.857574 -3.535739 0.908733
  H -3.317061 -0.022587 0.248644
  H -4.311690 -1.315266 0.961485
  H -4.448219 -0.980039 -0.743878
  O 1.586632 -0.029133 -0.017397
  H 2.086746 -0.502252 -0.704166
  H 2.139086 0.204507 0.743619
 19
 9.122865
  C -0.938642 -0.232879 0.063422
  C -1.208783 -1.668902 -0.082622
  C -0.666249 -2.511031 1.092528
  C -2.724826 -2.040423 -0.190922
  C -3.742334 -0.988871 0.077207
  O -3.017753 -3.176827 -0.466956
  H 0.407298 -0.113861 0.089957
  H -1.174157 0.173237 1.022229
  H -1.242387 0.380003 -0.773403
  H -0.803506 -2.056252 -1.039019
  H -1.116351 -2.203150 2.021442
  H 0.414470 -2.404216 1.175993
  H -0.893815 -3.559570 0.938134
  H -3.309068 -0.013961 0.243376
  H -4.321490 -1.292854 0.942471
  H -4.440393 -0.959572 -0.757042
  O 1.553282 0.052474 -0.056088
  H 2.043169 -0.419586 -0.755650
  H 2.101702 0.298673 0.705853
 19
 10.358287
  C -0.949695 -0.246463 0.057776
  C -1.222674 -1.691317 -0.081437
  C -0.692369 -2.517644 1.093832
  C -2.727324 -2.059322 -0.194172
  C -3.746827 -1.001029 0.086554
  O -3.023006 -3.193665 -0.480659
  H 0.532491 -0.081486 0.069176
  H -1.159812 0.180923 1.034366
  H -1.218539 0.370556 -0.788569
  H -0.812653 -2.082507 -1.017498
  H -1.148048 -2.190697 2.029225
  H 0.387319 -2.424030 1.177604
  H -0.933112 -3.567710 0.948777
  H -3.304696 -0.023854 0.260033
  H -4.328328 -1.309472 0.957402
  H -4.445831 -0.960028 -0.747860
  O 1.581080 0.098386 -0.070179
  H 2.060272 -0.404053 -0.752100
  H 2.113753 0.327820 0.711268
 19
 11.931906
  C -0.971955 -0.276632 0.055205
  C -1.244671 -1.706619 -0.074733
  C -0.721095 -2.528791 1.104137
  C -2.751850 -2.071245 -0.188706
  C -3.762930 -1.011901 0.096899
  O -3.058656 -3.203139 -0.482656
  H 0.678728 -0.044750 0.060543
  H -1.154440 0.156972 1.025246
  H -1.209431 0.347669 -0.803904
  H -0.828918 -2.105546 -1.007292
  H -1.169420 -2.195650 2.026483
  H 0.353876 -2.446177 1.186947
  H -0.971183 -3.571093 0.966287
  H -3.317855 -0.055216 0.269623
  H -4.340396 -1.315263 0.961985
  H -4.459478 -0.960979 -0.732781
  O 1.650045 0.157653 -0.078408
  H 2.125873 -0.362442 -0.752374
  H 2.167483 0.383682 0.715322
 19
 14.246672
  C -1.004333 -0.294601 0.053754
  C -1.281322 -1.732051 -0.073857
  C -0.754673 -2.546584 1.118669
  C -2.788106 -2.094444 -0.191402
  C -3.802838 -1.032570 0.101785
  O -3.098412 -3.224417 -0.493460
  H 0.861561 0.002334 0.063299
  H -1.163885 0.143606 1.026032
  H -1.208569 0.325621 -0.801113
  H -0.859823 -2.134001 -1.003880
  H -1.205097 -2.199204 2.047737
  H 0.325219 -2.466070 1.198308
  H -1.010326 -3.597088 0.990390
  H -3.342184 -0.054458 0.283304
  H -4.386885 -1.342821 0.977036
  H -4.506026 -0.974981 -0.736517
  O 1.773770 0.228975 -0.095532
  H 2.244374 -0.302663 -0.762271
  H 2.295397 0.451521 0.701271
 19
 17.129420
  C -1.066532 -0.320646 0.057209
  C -1.338165 -1.760174 -0.066373
  C -0.811174 -2.565137 1.128895
  C -2.835124 -2.121245 -0.189731
  C -3.857380 -1.057934 0.112727
  O -3.144787 -3.250628 -0.499713
  H 1.106174 0.065114 0.066559
  H -1.202919 0.121941 1.035795
  H -1.238267 0.281347 -0.808729
  H -0.905533 -2.155392 -0.987537
  H -1.267382 -2.210005 2.059139
  H 0.271295 -2.482213 1.210561
  H -1.064981 -3.618109 1.004636
  H -3.398714 -0.094850 0.297072
  H -4.432361 -1.367852 0.983581
  H -4.553794 -0.988970 -0.717087
  O 1.975559 0.325833 -0.117233
  H 2.449635 -0.222245 -0.773864
  H 2.503507 0.549400 0.676151
 19
 19.021734
  C -1.119933 -0.355553 0.064754
  C -1.410889 -1.794648 -0.053875
  C -0.885771 -2.601892 1.146512
  C -2.911654 -2.148394 -0.190740
  C -3.925227 -1.092968 0.127318
  O -3.230444 -3.277629 -0.504047
  H 1.415108 0.149901 0.071813
  H -1.246118 0.104124 1.021982
  H -1.259207 0.247599 -0.816375
  H -0.961714 -2.194978 -0.973036
  H -1.335401 -2.232521 2.062775
  H 0.189468 -2.524747 1.233607
  H -1.149783 -3.650057 1.033438
  H -3.466081 -0.137484 0.320393
  H -4.497279 -1.416106 0.994576
  H -4.629664 -1.017032 -0.697599
  O 2.249285 0.456325 -0.143617
  H 2.723137 -0.097663 -0.785113
  H 2.778066 0.689875 0.638562
 19
 16.792779
  C -1.208294 -0.432373 0.088178
  C -1.520719 -1.871920 -0.016714
  C -1.011802 -2.683648 1.174779
  C -3.025052 -2.204862 -0.165773
  C -4.031074 -1.120986 0.120709
  O -3.352004 -3.328600 -0.475681
  H 1.868911 0.283385 0.082026
  H -1.290977 0.039045 1.050940
  H -1.329740 0.179946 -0.786338
  H -1.091417 -2.272871 -0.944308
  H -1.448456 -2.309980 2.102431
  H 0.070747 -2.624167 1.244620
  H -1.299504 -3.738655 1.057002
  H -3.552748 -0.163581 0.300293
  H -4.613782 -1.415437 0.986900
  H -4.721865 -1.047856 -0.708726
  O 2.674536 0.703753 -0.201178
  H 3.169300 0.141702 -0.836955
  H 3.234679 0.958527 0.567560
 19
 18.458615
  C -1.234775 -0.465364 0.097141
  C -1.562779 -1.910967 -0.009247
  C -1.063889 -2.727887 1.191255
  C -3.070308 -2.222943 -0.147238
  C -4.051843 -1.124961 0.120902
  O -3.419754 -3.339061 -0.467738
  H 2.109067 0.370217 0.046940
  H -1.297841 -0.001237 1.060259
  H -1.359316 0.151088 -0.777583
  H -1.136048 -2.317073 -0.937762
  H -1.518414 -2.354191 2.113390
  H 0.011890 -2.669348 1.278540
  H -1.342524 -3.771140 1.069900
  H -3.557789 -0.166625 0.267836
  H -4.627266 -1.389069 1.007264
  H -4.754113 -1.068665 -0.700734
  O 2.879675 0.799375 -0.218169
  H 3.393912 0.239443 -0.838197
  H 3.422518 1.068517 0.555652
 19
 19.255754
  C -1.290735 -0.491527 0.083735
  C -1.613541 -1.954440 -0.027930
  C -1.136639 -2.740605 1.197832
  C -3.129351 -2.257588 -0.143519
  C -4.107204 -1.156108 0.146931
  O -3.489117 -3.374290 -0.451763
  H 2.422153 0.481661 -0.004388
  H -1.350950 -0.031886 1.055754
  H -1.417729 0.124904 -0.785909
  H -1.178444 -2.365456 -0.950790
  H -1.619066 -2.359043 2.094272
  H -0.059404 -2.665264 1.313501
  H -1.402897 -3.793214 1.089144
  H -3.609793 -0.203899 0.285562
  H -4.665115 -1.417799 1.043441
  H -4.826989 -1.098607 -0.662730
  O 3.208792 0.899635 -0.222012
  H 3.742830 0.374467 -0.853252
  H 3.724419 1.155139 0.570640
