 32
 0.000000
  C 0.968767 0.139351 0.399601
  C 2.446447 0.138115 0.395346
  C 3.234460 0.607562 1.562646
  C 2.459748 1.097943 2.783194
  C 3.411427 1.542753 3.889227
  C 3.060064 -0.326115 -0.760183
  C 4.439130 -0.411993 -0.974599
  C 5.117520 -0.862202 -2.097077
  C 4.624486 -1.385397 -3.401999
  C 3.133757 -1.503599 -3.698069
  C 2.909725 -2.065379 -5.099248
  O 6.442740 -0.856648 -2.083073
  H 0.534549 0.509729 1.321297
  H 0.597045 -0.873003 0.234389
  H 0.596429 0.755461 -0.420228
  H 3.890246 1.419373 1.227748
  H 3.890735 -0.209842 1.882633
  H 1.822010 0.301341 3.171549
  H 1.821578 1.941446 2.512340
  H 4.047570 0.720875 4.211598
  H 2.847570 1.889462 4.752263
  H 4.047118 2.359406 3.552992
  H 2.401323 -0.643773 -1.550558
  H 5.055886 -0.079861 -0.147388
  H 5.080522 -2.374227 -3.527366
  H 5.081103 -0.757501 -4.175802
  H 2.658264 -0.523206 -3.644748
  H 2.657666 -2.175228 -2.982296
  H 3.348295 -1.417939 -5.855470
  H 1.844404 -2.146354 -5.302183
  H 3.347712 -3.056200 -5.198554
  H 6.812423 -0.521100 -1.244862
 32
 9.760806
  C 0.938012 0.168557 0.472103
  C 2.405320 0.167140 0.467548
  C 3.202407 0.629761 1.618001
  C 2.443048 1.123188 2.846083
  C 3.410721 1.563041 3.939947
  C 3.084226 -0.351299 -0.822954
  C 4.448245 -0.433220 -1.027643
  C 5.132788 -0.882818 -2.148691
  C 4.644807 -1.406316 -3.454261
  C 3.155514 -1.526325 -3.754623
  C 2.939738 -2.088614 -5.156928
  O 6.455702 -0.875237 -2.129812
  H 0.507037 0.539176 1.394367
  H 0.566081 -0.843447 0.305305
  H 0.565544 0.783362 -0.348624
  H 3.859072 1.437869 1.275410
  H 3.859498 -0.190371 1.929849
  H 1.806528 0.329525 3.241764
  H 1.806192 1.969703 2.582559
  H 4.046528 0.738100 4.254168
  H 2.859943 1.912498 4.809778
  H 4.046163 2.376217 3.595754
  H 2.423496 -0.666767 -1.607882
  H 5.062402 -0.100217 -0.198343
  H 5.103421 -2.394009 -3.577981
  H 5.103942 -0.778114 -4.226125
  H 2.678530 -0.546620 -3.703373
  H 2.678019 -2.198910 -3.040772
  H 3.381034 -1.440469 -5.910585
  H 1.876083 -2.172029 -5.365774
  H 3.380549 -3.078131 -5.253852
  H 6.825225 -0.539816 -1.291785
 32
 29.371838
  C 0.892061 0.193170 0.533430
  C 2.335384 0.197041 0.542263
  C 3.160948 0.641535 1.647512
  C 2.444189 1.144092 2.897999
  C 3.455175 1.570019 3.957241
  C 3.075147 -0.376478 -0.885148
  C 4.412888 -0.444236 -1.054835
  C 5.125547 -0.890531 -2.168069
  C 4.660996 -1.417083 -3.481366
  C 3.176936 -1.545486 -3.802347
  C 2.990467 -2.109243 -5.208403
  O 6.449532 -0.873339 -2.125629
  H 0.459499 0.563622 1.454979
  H 0.523588 -0.820288 0.359141
  H 0.523211 0.803767 -0.293813
  H 3.820506 1.439683 1.282439
  H 3.820836 -0.186976 1.936326
  H 1.811315 0.358330 3.314196
  H 1.811104 1.999169 2.654634
  H 4.089774 0.736319 4.249272
  H 2.940326 1.926950 4.845423
  H 4.089559 2.374044 3.590917
  H 2.406419 -0.686277 -1.655929
  H 5.012945 -0.106771 -0.214600
  H 5.129314 -2.401232 -3.597879
  H 5.129733 -0.786339 -4.245538
  H 2.693535 -0.568394 -3.759017
  H 2.693196 -2.221818 -3.096062
  H 3.441309 -1.457933 -5.953353
  H 1.931901 -2.200976 -5.437722
  H 3.441033 -3.094951 -5.296956
  H 6.809113 -0.536739 -1.284145
 32
 50.653193
  C 0.803289 0.220586 0.601085
  C 2.252705 0.227167 0.617069
  C 3.124419 0.660970 1.696147
  C 2.449990 1.172960 2.969966
  C 3.499881 1.585570 3.996594
  C 3.044275 -0.402896 -0.951205
  C 4.409517 -0.463197 -1.102553
  C 5.143147 -0.906722 -2.209064
  C 4.694866 -1.435211 -3.526798
  C 3.214026 -1.568492 -3.859260
  C 3.043549 -2.133112 -5.267186
  O 6.466987 -0.882266 -2.149087
  H 0.370522 0.592265 1.525734
  H 0.434009 -0.792829 0.421597
  H 0.433845 0.827757 -0.229835
  H 3.785958 1.449161 1.310127
  H 3.786072 -0.175083 1.962931
  H 1.820858 0.394498 3.404839
  H 1.820926 2.035885 2.745129
  H 4.132632 0.743515 4.268360
  H 3.018369 1.949129 4.901099
  H 4.132681 2.381413 3.609980
  H 2.353770 -0.707425 -1.708933
  H 5.001730 -0.123613 -0.257397
  H 5.169289 -2.417250 -3.638684
  H 5.169404 -0.802791 -4.286260
  H 2.727422 -0.593006 -3.820309
  H 2.727368 -2.246759 -3.157131
  H 3.499837 -1.479815 -6.007352
  H 1.987787 -2.229661 -5.508040
  H 3.499821 -3.116811 -5.350853
  H 6.817472 -0.544588 -1.304761
 32
 70.002476
  C 0.690804 0.235220 0.632596
  C 2.142783 0.250350 0.672909
  C 3.107088 0.655575 1.683993
  C 2.508032 1.183150 2.996325
  C 3.616657 1.571980 3.967322
  C 2.967341 -0.439332 -1.043960
  C 4.322723 -0.470322 -1.122924
  C 5.114552 -0.894159 -2.181152
  C 4.725180 -1.428261 -3.510432
  C 3.253433 -1.575729 -3.874441
  C 3.119606 -2.142223 -5.285206
  O 6.426866 -0.843018 -2.058322
  H 0.253418 0.607078 1.557990
  H 0.324137 -0.777130 0.436249
  H 0.325299 0.831252 -0.209448
  H 3.770500 1.422465 1.258403
  H 3.768917 -0.193800 1.907305
  H 1.883761 0.412476 3.450543
  H 1.885472 2.055024 2.790964
  H 4.243701 0.716071 4.206614
  H 3.190153 1.945204 4.895548
  H 4.245343 2.354535 3.548581
  H 2.224368 -0.725600 -1.756882
  H 4.875400 -0.122853 -0.258491
  H 5.216225 -2.403606 -3.607626
  H 5.214688 -0.790312 -4.255524
  H 2.761602 -0.603265 -3.843189
  H 2.763002 -2.257318 -3.179106
  H 3.588246 -1.484497 -6.013819
  H 2.071548 -2.250370 -5.552537
  H 3.589564 -3.120568 -5.357015
  H 6.734860 -0.499166 -1.201013
 32
 89.069502
  C 0.654136 0.268820 0.712441
  C 2.079595 0.281832 0.751238
  C 3.071430 0.663773 1.706410
  C 2.514756 1.199712 3.037157
  C 3.653011 1.575357 3.978242
  C 2.938811 -0.467957 -1.112546
  C 4.282558 -0.486474 -1.161698
  C 5.118229 -0.904949 -2.209554
  C 4.759950 -1.442019 -3.545797
  C 3.294284 -1.596496 -3.923612
  C 3.173495 -2.163274 -5.335457
  O 6.428570 -0.839225 -2.055294
  H 0.223084 0.643714 1.643799
  H 0.285294 -0.743210 0.518150
  H 0.288217 0.866525 -0.128337
  H 3.730855 1.420683 1.257465
  H 3.727432 -0.195771 1.907024
  H 1.893866 0.437105 3.509364
  H 1.897505 2.079377 2.849450
  H 4.275700 0.711943 4.201267
  H 3.255448 1.953459 4.916947
  H 4.279359 2.350618 3.542779
  H 2.163790 -0.738507 -1.786855
  H 4.814176 -0.133433 -0.282777
  H 5.259477 -2.413849 -3.635943
  H 5.256092 -0.800528 -4.283615
  H 2.797965 -0.625845 -3.895757
  H 2.800994 -2.280101 -3.231784
  H 3.645309 -1.503389 -6.059899
  H 2.128252 -2.275818 -5.611522
  H 3.648062 -3.139472 -5.403385
  H 6.712540 -0.492294 -1.193328
 32
 105.288608
  C 0.605346 0.298508 0.785162
  C 2.037843 0.311313 0.824606
  C 3.048084 0.689629 1.771462
  C 2.511011 1.228509 3.108832
  C 3.662087 1.597892 4.035260
  C 2.950903 -0.494794 -1.178477
  C 4.288931 -0.509545 -1.218722
  C 5.138662 -0.925435 -2.261087
  C 4.788843 -1.466032 -3.605925
  C 3.323505 -1.623616 -3.990476
  C 3.208005 -2.190766 -5.403130
  O 6.460952 -0.853823 -2.093571
  H 0.173764 0.672822 1.714662
  H 0.236017 -0.712408 0.590911
  H 0.239476 0.895624 -0.054904
  H 3.705766 1.442503 1.315401
  H 3.701758 -0.172236 1.964462
  H 1.892016 0.469010 3.587703
  H 1.896270 2.110896 2.927771
  H 4.282810 0.731194 4.250829
  H 3.277610 1.978099 4.978676
  H 4.287096 2.369900 3.592170
  H 2.164936 -0.761487 -1.843266
  H 4.812020 -0.155143 -0.336086
  H 5.290975 -2.437157 -3.693710
  H 5.287128 -0.823180 -4.341627
  H 2.825727 -0.653885 -3.963869
  H 2.829179 -2.307592 -3.300068
  H 3.681301 -1.530104 -6.125959
  H 2.163756 -2.305008 -5.682819
  H 3.684452 -3.166270 -5.469407
  H 6.738608 -0.503679 -1.224375
 32
 119.210241
  C 0.579127 0.329045 0.859783
  C 1.998527 0.340377 0.896621
  C 3.015869 0.708861 1.820004
  C 2.500386 1.251660 3.166715
  C 3.667075 1.613868 4.076465
  C 2.960335 -0.522552 -1.247813
  C 4.299959 -0.533499 -1.278889
  C 5.159853 -0.945716 -2.312687
  C 4.821246 -1.484412 -3.652088
  C 3.358139 -1.642471 -4.036702
  C 3.242606 -2.209658 -5.448596
  O 6.464294 -0.870641 -2.137557
  H 0.147891 0.704375 1.791735
  H 0.209584 -0.682126 0.665912
  H 0.213553 0.926988 0.019847
  H 3.671362 1.457412 1.353731
  H 3.666788 -0.157384 2.002816
  H 1.883285 0.495422 3.653752
  H 1.888199 2.137741 2.993588
  H 4.285512 0.743354 4.283393
  H 3.297967 1.996300 5.025067
  H 4.290422 2.382188 3.624626
  H 2.163128 -0.783886 -1.899556
  H 4.816478 -0.177153 -0.390914
  H 5.324628 -2.454428 -3.737666
  H 5.320377 -0.840822 -4.385743
  H 2.860343 -0.672585 -4.009530
  H 2.864185 -2.326115 -3.345420
  H 3.715787 -1.548997 -6.171433
  H 2.198523 -2.324097 -5.728047
  H 3.719268 -3.184976 -5.514574
  H 6.729949 -0.521924 -1.272882
 32
 129.982358
  C 0.532242 0.361278 0.939117
  C 1.961343 0.369775 0.970251
  C 2.986137 0.739103 1.896252
  C 2.490686 1.287333 3.255090
  C 3.670908 1.643694 4.151062
  C 2.979399 -0.549470 -1.312321
  C 4.311341 -0.559076 -1.340983
  C 5.184017 -0.970202 -2.373834
  C 4.850256 -1.512053 -3.721406
  C 3.386986 -1.673088 -4.112420
  C 3.276440 -2.240611 -5.525586
  O 6.502807 -0.890190 -2.187994
  H 0.091475 0.737088 1.871424
  H 0.165417 -0.649618 0.742520
  H 0.169968 0.957121 0.097164
  H 3.640147 1.482937 1.422301
  H 3.634870 -0.129449 2.070880
  H 1.875567 0.534599 3.749605
  H 1.881224 2.176460 3.089134
  H 4.287097 0.769987 4.350693
  H 3.315553 2.028471 5.104471
  H 4.292766 2.408574 3.691513
  H 2.177370 -0.809393 -1.960900
  H 4.822161 -0.202043 -0.450776
  H 5.355743 -2.481854 -3.805317
  H 5.350959 -0.866963 -4.453602
  H 2.887651 -0.704157 -4.086128
  H 2.891974 -2.357081 -3.422476
  H 3.750879 -1.579118 -6.246935
  H 2.233225 -2.356593 -5.808283
  H 3.754818 -3.215291 -5.590244
  H 6.765524 -0.536917 -1.312295
 32
 135.788810
  C 0.536188 0.402430 1.041251
  C 1.946884 0.400042 1.046264
  C 2.937857 0.771827 1.978446
  C 2.452250 1.321664 3.339951
  C 3.636436 1.676306 4.232222
  C 3.021813 -0.575354 -1.374223
  C 4.360640 -0.591287 -1.419600
  C 5.223110 -1.004584 -2.459600
  C 4.882725 -1.540764 -3.793480
  C 3.418998 -1.699098 -4.176840
  C 3.301929 -2.265946 -5.588884
  O 6.503922 -0.930212 -2.288699
  H 0.089198 0.778211 1.972742
  H 0.174463 -0.605940 0.842223
  H 0.179514 0.994719 0.199077
  H 3.589338 1.510425 1.501249
  H 3.583435 -0.095524 2.147680
  H 1.837418 0.570600 3.837956
  H 1.843721 2.212358 3.177056
  H 4.251778 0.801305 4.429735
  H 3.286127 2.062117 5.187199
  H 4.258089 2.439980 3.770028
  H 2.223639 -0.837427 -2.028658
  H 4.881604 -0.235653 -0.532104
  H 5.385761 -2.510319 -3.879449
  H 5.380503 -0.896719 -4.526845
  H 2.921025 -0.729574 -4.147625
  H 2.925852 -2.381949 -3.484519
  H 3.773942 -1.605148 -6.312355
  H 2.257592 -2.380065 -5.866395
  H 3.778279 -3.241342 -5.655946
  H 6.768014 -0.581073 -1.423058
 32
 138.148135
  C 0.491466 0.439527 1.133092
  C 1.928889 0.430203 1.122194
  C 2.913989 0.817441 2.092807
  C 2.425344 1.367794 3.454091
  C 3.605216 1.723730 4.349928
  C 3.073962 -0.599612 -1.430989
  C 4.402457 -0.621604 -1.492389
  C 5.263940 -1.039364 -2.545816
  C 4.905658 -1.578718 -3.888492
  C 3.437642 -1.736810 -4.270302
  C 3.318106 -2.303613 -5.683432
  O 6.578275 -0.965511 -2.378263
  H 0.034556 0.814503 2.061586
  H 0.131816 -0.572034 0.929569
  H 0.137424 1.030868 0.285170
  H 3.569335 1.557706 1.616310
  H 3.562814 -0.050951 2.264296
  H 1.809217 0.616385 3.950477
  H 1.816134 2.257919 3.289160
  H 4.220603 0.849289 4.549385
  H 3.252071 2.109604 5.303958
  H 4.227523 2.487691 3.889257
  H 2.288116 -0.867531 -2.100441
  H 4.929916 -0.267878 -0.609020
  H 5.407195 -2.549724 -3.977931
  H 5.401391 -0.935230 -4.625023
  H 2.939548 -0.767330 -4.239667
  H 2.944916 -2.419379 -3.577290
  H 3.788821 -1.642886 -6.407794
  H 2.272950 -2.417172 -5.959063
  H 3.793630 -3.279314 -5.751897
  H 6.860821 -0.610919 -1.498716
 32
 138.736912
  C 0.511001 0.495614 1.268084
  C 1.947057 0.464028 1.206539
  C 2.879288 0.869411 2.224147
  C 2.358876 1.413191 3.566336
  C 3.515449 1.777165 4.486125
  C 3.151382 -0.622699 -1.483198
  C 4.482572 -0.661989 -1.590335
  C 5.321378 -1.085726 -2.664248
  C 4.930129 -1.620142 -3.994335
  C 3.458509 -1.774241 -4.360723
  C 3.326757 -2.340673 -5.773088
  O 6.598329 -1.020961 -2.525090
  H 0.063930 0.870520 2.194461
  H 0.149928 -0.516087 1.059703
  H 0.157685 1.084272 0.416006
  H 3.542738 1.608829 1.753759
  H 3.533825 0.004084 2.400346
  H 1.736170 0.658130 4.048958
  H 1.745633 2.298054 3.388052
  H 4.132263 0.906821 4.697902
  H 3.140133 2.160632 5.432140
  H 4.141851 2.544909 4.037669
  H 2.390878 -0.901007 -2.179606
  H 5.036053 -0.313512 -0.719265
  H 5.429049 -2.592816 -4.092451
  H 5.420830 -0.979817 -4.738495
  H 2.961389 -0.803977 -4.325376
  H 2.969233 -2.455644 -3.663447
  H 3.791552 -1.680751 -6.501828
  H 2.278702 -2.451803 -6.039255
  H 3.798585 -3.317736 -5.846051
  H 6.911552 -0.670405 -1.656231
 32
 140.278497
  C 0.497904 0.524805 1.339078
  C 1.925672 0.492425 1.276811
  C 2.850251 0.895656 2.290022
  C 2.327047 1.438878 3.630234
  C 3.482892 1.803901 4.554064
  C 3.190243 -0.649731 -1.549632
  C 4.527775 -0.688470 -1.656051
  C 5.357079 -1.108548 -2.722061
  C 4.953196 -1.637705 -4.038619
  C 3.478449 -1.783432 -4.382473
  C 3.323189 -2.348501 -5.790846
  O 6.650899 -1.045279 -2.588514
  H 0.052510 0.900008 2.265982
  H 0.137479 -0.484100 1.130423
  H 0.145834 1.111617 0.488761
  H 3.513279 1.632573 1.821244
  H 3.503607 0.032709 2.465885
  H 1.702972 0.682976 4.111635
  H 1.713250 2.324018 3.450320
  H 4.099974 0.933402 4.767304
  H 3.105082 2.187447 5.499820
  H 4.110305 2.572192 4.106838
  H 2.426110 -0.928900 -2.248392
  H 5.083631 -0.340739 -0.786655
  H 5.445822 -2.610857 -4.142367
  H 5.436942 -1.000627 -4.787275
  H 2.987387 -0.810869 -4.339612
  H 2.995972 -2.461538 -3.678035
  H 3.780758 -1.691087 -6.526287
  H 2.271262 -2.453778 -6.041278
  H 3.788429 -3.328088 -5.870405
  H 6.967594 -0.700536 -1.734106
 32
 141.371496
  C 0.457530 0.566996 1.442941
  C 1.892138 0.531780 1.374701
  C 2.823913 0.936180 2.391196
  C 2.305974 1.480905 3.734493
  C 3.464455 1.843602 4.653284
  C 3.203765 -0.668318 -1.593296
  C 4.535609 -0.709215 -1.705697
  C 5.370400 -1.131523 -2.779022
  C 4.973718 -1.664565 -4.105773
  C 3.501140 -1.817143 -4.465484
  C 3.362442 -2.383354 -5.877297
  O 6.651820 -1.066545 -2.642448
  H 0.014901 0.943162 2.371653
  H 0.094166 -0.443223 1.234015
  H 0.102965 1.154583 0.591290
  H 3.488632 1.672569 1.919095
  H 3.478446 0.070993 2.564617
  H 1.682640 0.726548 4.217935
  H 1.693400 2.366647 3.556856
  H 4.080400 0.972395 4.864125
  H 3.090815 2.227629 5.599806
  H 4.091292 2.610405 4.203820
  H 2.440664 -0.945501 -2.287151
  H 5.093093 -0.361645 -0.836420
  H 5.471901 -2.637336 -4.206625
  H 5.462381 -1.025161 -4.852025
  H 3.005014 -0.846381 -4.427846
  H 3.014209 -2.498095 -3.766067
  H 3.824461 -1.723754 -6.608098
  H 2.313098 -2.493340 -6.138672
  H 3.832738 -3.361003 -5.952373
  H 6.968391 -0.718123 -1.778563
