 28
 0.000000
  C 0.982926 0.135362 0.387531
  C 2.457370 0.140147 0.399033
  C 3.229826 0.610043 1.568750
  C 2.447399 1.098157 2.784306
  C 3.396545 1.543321 3.892714
  C 3.078595 -0.323929 -0.756467
  C 4.461068 -0.411282 -0.974416
  C 5.113322 -0.861977 -2.097758
  C 4.618396 -1.379318 -3.386876
  C 3.131975 -1.499888 -3.687721
  H 2.991126 -1.900125 -4.685069
  H 6.194331 -0.858361 -2.089009
  H 0.540106 0.503938 1.305380
  H 0.617468 -0.877732 0.213792
  H 0.617126 0.746768 -0.438600
  H 3.888977 1.421306 1.238363
  H 3.889148 -0.204238 1.891235
  H 1.810199 0.300270 3.170103
  H 1.810103 1.941204 2.511149
  H 4.032460 0.722059 4.215751
  H 2.831918 1.889483 4.754903
  H 4.032339 2.359973 3.557992
  H 2.419140 -0.641229 -1.546310
  H 5.092122 -0.083371 -0.157630
  H 5.080403 -2.367353 -3.513611
  H 5.080626 -0.753214 -4.161535
  H 2.649885 -0.525629 -3.645733
  H 2.649638 -2.174696 -2.983917
 28
 0.736428
  C 0.952983 -0.017071 0.452202
  C 2.423900 -0.034805 0.452258
  C 3.214019 0.559450 1.551366
  C 2.457960 1.153144 2.735513
  C 3.435693 1.713119 3.764899
  C 3.045052 -0.637112 -0.638635
  C 4.433462 -0.701863 -0.841501
  C 5.088850 -0.935502 -2.024460
  C 4.625160 -1.257463 -3.380404
  C 3.149100 -1.262688 -3.735311
  H 3.043354 -1.486644 -4.796167
  H 6.171058 -0.909087 -1.973132
  H 0.526516 0.394479 1.357890
  H 0.567872 -1.025049 0.292845
  H 0.594120 0.567852 -0.398171
  H 3.857225 1.342966 1.131548
  H 3.900190 -0.207178 1.928301
  H 1.847005 0.385756 3.215577
  H 1.801855 1.959783 2.402162
  H 4.094259 0.932460 4.143165
  H 2.895223 2.135535 4.611041
  H 4.048767 2.500679 3.332507
  H 2.394709 -1.036878 -1.400618
  H 5.066967 -0.446269 -0.000912
  H 5.054586 -2.242334 -3.618146
  H 5.158935 -0.577010 -4.058337
  H 2.698984 -0.289915 -3.553751
  H 2.605640 -2.029983 -3.188563
 28
 1.684078
  C 0.941052 -0.379938 0.559748
  C 2.413348 -0.385833 0.529906
  C 3.213846 0.406606 1.489296
  C 2.465356 1.180371 2.569152
  C 3.445165 1.926862 3.468937
  C 3.031020 -1.064155 -0.511439
  C 4.424139 -1.136963 -0.713421
  C 5.098785 -1.224582 -1.898852
  C 4.624656 -1.139801 -3.288631
  C 3.177901 -0.779503 -3.578109
  H 3.052230 -0.641979 -4.647946
  H 6.175710 -1.310430 -1.826937
  H 0.534689 0.043624 1.469960
  H 0.551563 -1.386811 0.411398
  H 0.567000 0.207241 -0.281614
  H 3.831617 1.114266 0.926188
  H 3.932373 -0.267974 1.974307
  H 1.878515 0.497435 3.184912
  H 1.786625 1.903280 2.114835
  H 4.130764 1.236881 3.956443
  H 2.909135 2.470047 4.244020
  H 4.029079 2.645989 2.898222
  H 2.386320 -1.567127 -1.216030
  H 5.041563 -1.067928 0.174008
  H 4.849476 -2.114459 -3.749635
  H 5.290829 -0.443111 -3.809757
  H 2.904460 0.147399 -3.082432
  H 2.495201 -1.565226 -3.270847
 28
 6.080864
  C 0.926293 -0.531447 0.535472
  C 2.397798 -0.575008 0.506973
  C 3.216817 0.314196 1.361896
  C 2.488891 1.209050 2.358427
  C 3.484374 2.042186 3.159904
  C 3.012001 -1.389606 -0.425030
  C 4.420279 -1.438278 -0.628211
  C 5.105548 -1.251919 -1.781586
  C 4.606206 -0.908107 -3.128706
  C 3.176589 -0.409414 -3.280496
  H 2.989860 -0.167944 -4.324295
  H 6.184308 -1.326889 -1.733799
  H 0.535276 -0.012923 1.402437
  H 0.511624 -1.537770 0.480638
  H 0.561784 -0.013092 -0.355026
  H 3.829743 0.952706 0.715071
  H 3.942994 -0.305355 1.902170
  H 1.905031 0.601361 3.052876
  H 1.807867 1.883103 1.836837
  H 4.173509 1.404984 3.709594
  H 2.961575 2.668257 3.878620
  H 4.063526 2.692451 2.508219
  H 2.384192 -2.020202 -1.039268
  H 5.016564 -1.551345 0.272487
  H 4.729200 -1.819467 -3.731095
  H 5.297633 -0.180621 -3.564621
  H 3.025317 0.494679 -2.695194
  H 2.449454 -1.154934 -2.983610
 28
 10.867378
  C 0.918313 -0.656273 0.487312
  C 2.387128 -0.708820 0.440992
  C 3.220074 0.246339 1.204271
  C 2.509442 1.249396 2.102221
  C 3.515628 2.150030 2.811686
  C 3.001093 -1.620836 -0.397952
  C 4.425818 -1.650848 -0.615983
  C 5.121932 -1.222486 -1.670470
  C 4.582053 -0.626574 -2.925938
  C 3.160792 -0.088661 -2.875295
  H 2.870718 0.275696 -3.858612
  H 6.198616 -1.314734 -1.653099
  H 0.546096 -0.102715 1.341564
  H 0.494303 -1.659801 0.472400
  H 0.542455 -0.161740 -0.412619
  H 3.844052 0.800972 0.492670
  H 3.943121 -0.324156 1.800098
  H 1.919628 0.725952 2.858146
  H 1.832722 1.871677 1.514325
  H 4.199081 1.566441 3.424202
  H 3.001287 2.853364 3.461614
  H 4.100777 2.722411 2.095674
  H 2.397415 -2.379181 -0.881282
  H 4.992043 -2.022937 0.235462
  H 4.639459 -1.420143 -3.681265
  H 5.264208 0.161580 -3.253992
  H 3.089725 0.741911 -2.177335
  H 2.455944 -0.864344 -2.592984
 28
 9.240226
  C 0.912457 -0.784763 0.472349
  C 2.384025 -0.817813 0.394932
  C 3.222069 0.176311 1.107354
  C 2.514616 1.239173 1.934472
  C 3.524825 2.183268 2.579689
  C 3.018429 -1.768126 -0.370806
  C 4.441058 -1.789037 -0.623041
  C 5.141498 -1.160681 -1.571672
  C 4.576456 -0.434321 -2.743315
  C 3.148307 0.050982 -2.604204
  H 2.812737 0.485714 -3.542958
  H 6.217834 -1.254593 -1.580372
  H 0.552884 -0.229559 1.330858
  H 0.498151 -1.791192 0.481437
  H 0.514967 -0.301141 -0.423353
  H 3.851430 0.666318 0.349806
  H 3.941936 -0.350178 1.743603
  H 1.925837 0.770988 2.726163
  H 1.836957 1.819302 1.305889
  H 4.207110 1.640409 3.229873
  H 3.013329 2.930960 3.180536
  H 4.110743 2.702754 1.825017
  H 2.458516 -2.629887 -0.717240
  H 4.981840 -2.458603 0.042724
  H 4.649187 -1.112132 -3.601739
  H 5.238580 0.405765 -2.972665
  H 3.059336 0.801433 -1.824519
  H 2.483024 -0.782647 -2.369596
 28
 7.331974
  C 0.927525 -0.819488 0.451742
  C 2.397358 -0.878228 0.368736
  C 3.237527 0.160480 1.022702
  C 2.530529 1.227700 1.847088
  C 3.540008 2.212280 2.430677
  C 3.031771 -1.900046 -0.296422
  C 4.424986 -1.897518 -0.620355
  C 5.105445 -1.061083 -1.431831
  C 4.560548 -0.243871 -2.543792
  C 3.080380 0.092155 -2.538697
  H 2.822522 0.586792 -3.472147
  H 6.187247 -1.086810 -1.416675
  H 0.581560 -0.265814 1.317185
  H 0.490654 -1.815857 0.449356
  H 0.542411 -0.312064 -0.436177
  H 3.815187 0.655451 0.229884
  H 3.994858 -0.327849 1.643472
  H 1.985400 0.763340 2.671551
  H 1.816541 1.776611 1.231393
  H 4.258928 1.701945 3.067562
  H 3.032536 2.962371 3.031989
  H 4.084320 2.726480 1.642037
  H 2.487404 -2.812882 -0.507438
  H 4.987383 -2.706535 -0.159446
  H 4.785845 -0.814894 -3.454198
  H 5.158499 0.668439 -2.629956
  H 2.823271 0.757335 -1.720900
  H 2.476372 -0.811114 -2.461822
 28
 8.428291
  C 0.947201 -0.775268 0.370984
  C 2.416032 -0.867755 0.318768
  C 3.241702 0.207868 0.942804
  C 2.529761 1.201969 1.855099
  C 3.521775 2.217628 2.414851
  C 3.065033 -1.954489 -0.221392
  C 4.436366 -1.923931 -0.583867
  C 5.082429 -0.960202 -1.293526
  C 4.549604 -0.166284 -2.423573
  C 3.045991 -0.063822 -2.614920
  H 2.842027 0.441710 -3.555785
  H 6.155702 -0.851190 -1.191615
  H 0.595300 -0.248250 1.251173
  H 0.483551 -1.757634 0.315446
  H 0.597596 -0.215221 -0.499422
  H 3.708230 0.779795 0.130662
  H 4.071558 -0.245477 1.489678
  H 2.068608 0.671440 2.690837
  H 1.750248 1.737063 1.312003
  H 4.306208 1.723396 2.983485
  H 3.015369 2.914714 3.077806
  H 3.985617 2.791171 1.615846
  H 2.537549 -2.894648 -0.320518
  H 5.032092 -2.763168 -0.233446
  H 4.980104 -0.653069 -3.309980
  H 5.002541 0.829770 -2.410872
  H 2.582002 0.510460 -1.820419
  H 2.584754 -1.048266 -2.654846
 28
 11.347095
  C 0.949108 -0.701292 0.283036
  C 2.420588 -0.803740 0.254689
  C 3.223281 0.301973 0.867908
  C 2.526970 1.157847 1.933311
  C 3.497333 2.193264 2.497869
  C 3.082674 -1.929946 -0.172784
  C 4.429833 -1.894879 -0.575830
  C 5.055534 -0.854985 -1.218640
  C 4.543191 -0.094624 -2.375429
  C 3.084565 -0.247144 -2.770847
  H 2.909345 0.285826 -3.701918
  H 6.102417 -0.644546 -1.029874
  H 0.586873 -0.207999 1.179284
  H 0.476450 -1.677328 0.180017
  H 0.616819 -0.093453 -0.562179
  H 3.529554 0.989352 0.068255
  H 4.142017 -0.108112 1.294345
  H 2.183493 0.517593 2.750111
  H 1.667893 1.681833 1.513001
  H 4.362318 1.711866 2.949298
  H 3.008344 2.790440 3.263898
  H 3.845845 2.866849 1.718414
  H 2.571465 -2.880297 -0.152991
  H 5.037892 -2.761987 -0.335408
  H 5.172367 -0.447372 -3.206332
  H 4.807570 0.964108 -2.275784
  H 2.424862 0.169580 -2.019957
  H 2.824662 -1.291668 -2.922679
 28
 18.649200
  C 0.996935 -0.434811 0.113897
  C 2.455657 -0.622587 0.221802
  C 3.259642 0.436507 0.898790
  C 2.568524 1.139612 2.079002
  C 3.540024 2.097824 2.760560
  C 3.071209 -1.826276 -0.113350
  C 4.373118 -1.843665 -0.589722
  C 4.943906 -0.743857 -1.224070
  C 4.437863 -0.115824 -2.451287
  C 3.108751 -0.596856 -3.001583
  H 2.917038 -0.113629 -3.954555
  H 5.940496 -0.407479 -0.954688
  H 0.570683 0.038890 0.994561
  H 0.482556 -1.370761 -0.087213
  H 0.792974 0.243529 -0.718151
  H 3.512140 1.224564 0.180242
  H 4.196357 0.009575 1.253629
  H 2.238447 0.394699 2.804559
  H 1.703170 1.707995 1.739603
  H 4.414216 1.567552 3.135421
  H 3.056808 2.586194 3.604322
  H 3.874684 2.869848 2.070590
  H 2.532397 -2.752323 0.047208
  H 4.978458 -2.736692 -0.474862
  H 5.223393 -0.334306 -3.189683
  H 4.456833 0.976412 -2.367430
  H 2.287436 -0.362366 -2.334445
  H 3.123798 -1.671348 -3.160856
 28
 30.040458
  C 1.152569 -0.172031 -0.064146
  C 2.572658 -0.465073 0.188038
  C 3.372851 0.490267 1.005715
  C 2.604305 1.158637 2.160565
  C 3.558234 2.002908 2.999561
  C 3.100363 -1.756166 -0.067724
  C 4.336507 -1.810111 -0.636355
  C 4.769327 -0.610176 -1.268907
  C 4.255285 -0.146932 -2.557234
  C 3.033106 -0.856285 -3.124884
  H 2.827396 -0.480996 -4.125600
  H 5.693491 -0.132994 -0.963051
  H 0.674322 0.344617 0.765884
  H 0.593414 -1.071248 -0.312313
  H 1.083515 0.512134 -0.912375
  H 3.754991 1.311935 0.387985
  H 4.235295 -0.032394 1.425443
  H 2.156780 0.390567 2.795803
  H 1.814242 1.805192 1.778282
  H 4.355197 1.393067 3.418037
  H 3.022611 2.465519 3.824309
  H 4.006754 2.793326 2.403382
  H 2.519804 -2.631415 0.190061
  H 4.968031 -2.686823 -0.635479
  H 5.100865 -0.323307 -3.243259
  H 4.132424 0.945133 -2.568121
  H 2.149410 -0.696232 -2.517268
  H 3.208291 -1.928407 -3.191747
 28
 35.546344
  C 1.339998 0.016023 -0.237289
  C 2.705783 -0.375450 0.145040
  C 3.488838 0.508663 1.064570
  C 2.656698 1.194520 2.166354
  C 3.578310 1.949711 3.115912
  C 3.116712 -1.758761 -0.018438
  C 4.284233 -1.843499 -0.665832
  C 4.563272 -0.533955 -1.231342
  C 4.060321 -0.141803 -2.551502
  C 2.949000 -0.980716 -3.164586
  H 2.756058 -0.641367 -4.178578
  H 5.419453 0.033160 -0.883006
  H 0.838981 0.581968 0.544161
  H 0.740509 -0.848790 -0.511239
  H 1.378854 0.687347 -1.099154
  H 3.979533 1.322446 0.526450
  H 4.268659 -0.084513 1.546516
  H 2.104405 0.441437 2.730967
  H 1.950041 1.901414 1.734550
  H 4.292876 1.277207 3.585161
  H 2.997011 2.423141 3.903489
  H 4.129726 2.725906 2.590699
  H 2.492193 -2.576437 0.308466
  H 4.932347 -2.696235 -0.777275
  H 4.946366 -0.250642 -3.201628
  H 3.835864 0.928445 -2.586054
  H 2.024122 -0.907619 -2.604952
  H 3.236425 -2.028194 -3.205496
 28
 30.842453
  C 1.527643 0.127067 -0.393086
  C 2.863715 -0.318070 0.078020
  C 3.596825 0.541127 1.082235
  C 2.689669 1.186496 2.150524
  C 3.549243 1.889969 3.190606
  C 3.154606 -1.768111 0.044189
  C 4.264366 -1.861748 -0.679591
  C 4.367227 -0.464476 -1.151858
  C 3.899390 -0.112275 -2.512063
  C 2.896844 -1.042688 -3.172674
  H 2.720614 -0.720659 -4.195652
  H 5.181339 0.147762 -0.786786
  H 1.015884 0.717864 0.361527
  H 0.904566 -0.719798 -0.667485
  H 1.618592 0.783499 -1.258847
  H 4.124070 1.371091 0.609607
  H 4.334085 -0.077531 1.596485
  H 2.094207 0.413983 2.639861
  H 2.020749 1.917210 1.699362
  H 4.223921 1.191659 3.680621
  H 2.915700 2.334949 3.954389
  H 4.140923 2.682184 2.739314
  H 2.497991 -2.537328 0.419933
  H 4.929928 -2.677344 -0.880158
  H 4.818546 -0.150341 -3.120809
  H 3.585998 0.933503 -2.558930
  H 1.942590 -1.046215 -2.656229
  H 3.271331 -2.062355 -3.196554
 28
 25.206029
  C 1.639064 0.246610 -0.423626
  C 3.026512 -0.183634 -0.021588
  C 3.656388 0.599938 1.144095
  C 2.691661 1.189892 2.178545
  C 3.487736 1.792443 3.330442
  C 3.227132 -1.679481 0.058211
  C 4.304090 -1.797636 -0.734421
  C 4.180078 -0.370132 -1.167720
  C 3.832954 -0.158660 -2.622032
  C 2.841672 -1.149788 -3.223554
  H 2.711259 -0.946864 -4.283890
  H 5.035280 0.252860 -0.900456
  H 1.142828 0.831994 0.340645
  H 1.008943 -0.607330 -0.662790
  H 1.703021 0.876592 -1.312800
  H 4.268047 1.423891 0.772947
  H 4.324719 -0.085159 1.672760
  H 2.037260 0.408324 2.569413
  H 2.078519 1.977340 1.742084
  H 4.101691 1.039942 3.819337
  H 2.811311 2.209374 4.072797
  H 4.136358 2.591766 2.980807
  H 2.501460 -2.391171 0.418059
  H 5.016811 -2.563187 -0.960273
  H 4.775401 -0.286677 -3.171275
  H 3.495548 0.867800 -2.779812
  H 1.867112 -1.063846 -2.749836
  H 3.200961 -2.169593 -3.116516
 28
 27.097678
  C 1.663467 0.369733 -0.494404
  C 3.050254 -0.079950 -0.100267
  C 3.660464 0.664958 1.100874
  C 2.692194 1.100139 2.204460
  C 3.471022 1.660082 3.394607
  C 3.216700 -1.598680 0.013626
  C 4.360518 -1.694808 -0.678719
  C 4.177872 -0.285428 -1.192789
  C 3.838226 -0.227701 -2.669860
  C 2.781533 -1.226999 -3.144281
  H 2.681995 -1.165415 -4.224475
  H 5.047124 0.354207 -1.007178
  H 1.253300 1.087853 0.207469
  H 0.964510 -0.459371 -0.565805
  H 1.715363 0.838644 -1.477572
  H 4.195956 1.553459 0.750729
  H 4.399648 0.007969 1.567484
  H 2.093651 0.247429 2.537245
  H 2.013323 1.880162 1.854891
  H 4.149078 0.915957 3.803787
  H 2.786445 1.963983 4.183833
  H 4.055298 2.530555 3.102194
  H 2.426121 -2.288281 0.261302
  H 5.209745 -2.347703 -0.711863
  H 4.761556 -0.459824 -3.211205
  H 3.537887 0.790939 -2.931146
  H 1.807332 -1.035832 -2.710186
  H 3.093237 -2.240470 -2.893202
