13

H 3.587149828120439 -0.5981618271715484 -0.9862301733167462
C 4.656991 -0.60653 -1.002657
C 5.376423 -1.122096 -2.014796
C 6.814811 -1.131582 -2.033419
C 7.534336 -1.64294 -3.03731
C 9.024562 -1.660993 -3.072746
H 5.162404 -0.171783 -0.149182
H 4.872332 -1.55711 -2.868806
H 7.320919 -0.696878 -1.180024
H 7.03796 -2.079871 -3.895062
H 9.456629 -1.207403 -2.182276
H 9.384795 -1.114713 -3.945992
H 9.3848 -2.688551 -3.144315
