 23
 0.000000
  H 1.475937 0.184886 0.510716
  C 2.552721 0.150371 0.424588
  C 3.320610 0.630423 1.619744
  C 2.393240 1.080539 2.740615
  H 2.967507 1.424977 3.598170
  C 3.067684 -0.308177 -0.717343
  C 4.475882 -0.421977 -1.001012
  C 5.097699 -0.865300 -2.105791
  C 4.608632 -1.394698 -3.424985
  C 3.117789 -1.501682 -3.692358
  H 2.972813 -1.903409 -4.693602
  O 6.474109 -0.886413 -2.158576
  H 3.971449 1.461870 1.331702
  H 3.971589 -0.169243 1.986803
  H 1.756689 0.258907 3.061036
  H 1.756604 1.895519 2.403744
  H 2.381130 -0.617369 -1.487156
  H 5.125392 -0.097922 -0.193638
  H 5.064948 -2.383110 -3.541705
  H 5.065302 -0.761415 -4.192558
  H 2.637844 -0.527672 -3.647777
  H 2.637544 -2.174509 -2.987033
  H 6.853670 -0.556034 -1.335178
 23
 0.433402
  H 1.458265 0.062688 0.602408
  C 2.524112 0.118850 0.429632
  C 3.324140 0.665917 1.575966
  C 2.437100 1.065628 2.749260
  H 3.038126 1.451523 3.569990
  C 3.010367 -0.306921 -0.739218
  C 4.418433 -0.362303 -1.038625
  C 5.072904 -0.877890 -2.089713
  C 4.622740 -1.422052 -3.415511
  C 3.136186 -1.466741 -3.726212
  H 2.998253 -1.841620 -4.738645
  O 6.445359 -0.930371 -2.053867
  H 3.894621 1.539262 1.243797
  H 4.047230 -0.084490 1.913043
  H 1.873819 0.207778 3.110802
  H 1.732312 1.837917 2.448054
  H 2.317636 -0.670712 -1.477956
  H 5.050283 0.039698 -0.251464
  H 5.043236 -2.428634 -3.504272
  H 5.128553 -0.812588 -4.171765
  H 2.695274 -0.475020 -3.669435
  H 2.613255 -2.134946 -3.047079
  H 6.744207 -0.658344 -1.180296
 23
 3.242311
  H 1.473886 -0.042145 0.678902
  C 2.524175 0.072430 0.447395
  C 3.342938 0.693490 1.542234
  C 2.489221 1.061602 2.750190
  H 3.105727 1.485566 3.540126
  C 2.973962 -0.338018 -0.741467
  C 4.372653 -0.331664 -1.070527
  C 5.052562 -0.898972 -2.080652
  C 4.645717 -1.438673 -3.419081
  C 3.167095 -1.429303 -3.770119
  H 3.039306 -1.786562 -4.790053
  O 6.419277 -0.995886 -1.934852
  H 3.839715 1.594423 1.168253
  H 4.127101 -0.003766 1.856739
  H 1.984973 0.181289 3.143251
  H 1.734851 1.795347 2.473816
  H 2.276736 -0.764706 -1.442067
  H 4.982407 0.219030 -0.359794
  H 5.037911 -2.457051 -3.504674
  H 5.194959 -0.836282 -4.150768
  H 2.759356 -0.423808 -3.706093
  H 2.605378 -2.086301 -3.111728
  H 6.589703 -0.749835 -1.016441
 23
 7.801965
  H 1.489385 -0.153521 0.756308
  C 2.523148 -0.025281 0.493323
  C 3.350208 0.716072 1.519806
  C 2.517307 1.133860 2.725181
  H 3.144106 1.606197 3.475709
  C 2.951201 -0.483553 -0.685817
  C 4.341619 -0.418732 -1.043057
  C 5.040328 -0.949600 -2.074157
  C 4.665906 -1.392453 -3.447045
  C 3.182544 -1.407868 -3.790764
  H 3.059103 -1.631355 -4.843802
  O 6.401306 -1.040271 -1.882458
  H 3.792552 1.605262 1.065875
  H 4.172822 0.076691 1.865858
  H 2.041993 0.269568 3.172063
  H 1.740284 1.840084 2.431438
  H 2.256360 -0.954241 -1.352926
  H 4.916728 0.242123 -0.402283
  H 5.106960 -2.365499 -3.633931
  H 5.177396 -0.695772 -4.114180
  H 2.735100 -0.438947 -3.592080
  H 2.652894 -2.170232 -3.219433
  H 6.495551 -0.845406 -0.928585
 23
 18.295792
  H 1.525960 -0.299875 0.803014
  C 2.539303 -0.073016 0.508242
  C 3.338786 0.682175 1.525519
  C 2.514629 1.056613 2.752542
  H 3.136694 1.562810 3.489333
  C 2.963270 -0.513358 -0.684500
  C 4.323405 -0.325702 -1.092662
  C 5.042304 -0.887825 -2.097444
  C 4.691463 -1.417920 -3.438711
  C 3.222346 -1.339896 -3.833149
  H 3.100126 -1.710654 -4.846826
  O 6.410705 -0.952130 -1.804645
  H 3.748659 1.594706 1.087847
  H 4.206755 0.093274 1.832037
  H 2.094687 0.168868 3.214363
  H 1.698697 1.723592 2.476361
  H 2.301666 -1.090803 -1.303009
  H 4.798712 0.531843 -0.625738
  H 5.013588 -2.463970 -3.495152
  H 5.322779 -0.888582 -4.156488
  H 2.860390 -0.317562 -3.790299
  H 2.612090 -1.959359 -3.177462
  H 6.332990 -0.661358 -0.861197
 23
 38.875037
  H 1.574974 -0.301148 0.790421
  C 2.606622 -0.091468 0.498485
  C 3.402937 0.721783 1.471118
  C 2.561057 1.150572 2.665415
  H 3.164492 1.704372 3.383322
  C 3.045786 -0.580143 -0.647792
  C 4.363155 -0.429646 -1.053618
  C 5.056949 -0.973699 -2.084594
  C 4.664790 -1.436596 -3.436627
  C 3.180378 -1.334903 -3.771474
  H 3.007589 -1.626886 -4.810420
  O 6.376342 -1.085670 -1.732205
  H 3.780743 1.620784 0.969619
  H 4.269930 0.113905 1.825579
  H 2.146042 0.278590 3.179857
  H 1.743557 1.786902 2.342873
  H 2.365793 -1.155999 -1.291081
  H 4.845982 0.463149 -0.619748
  H 5.005611 -2.463598 -3.561293
  H 5.260851 -0.789247 -4.140519
  H 2.819550 -0.305365 -3.629626
  H 2.608580 -1.986057 -3.147629
  H 6.036211 -0.780947 -0.751306
 23
 55.268336
  H 1.623141 -0.430993 0.854966
  C 2.635328 -0.181519 0.571358
  C 3.375170 0.736940 1.499094
  C 2.506343 1.196604 2.663528
  H 3.071816 1.841247 3.333358
  C 3.139215 -0.699603 -0.552094
  C 4.489783 -0.477049 -1.021608
  C 5.141606 -1.025624 -2.150222
  C 4.673799 -1.422286 -3.508281
  C 3.188716 -1.254707 -3.793458
  H 2.992669 -1.474071 -4.840829
  O 6.394854 -1.157620 -1.868901
  H 3.729744 1.615454 0.948617
  H 4.260999 0.223413 1.889163
  H 2.148965 0.340580 3.232313
  H 1.644257 1.751942 2.299510
  H 2.530734 -1.381373 -1.126211
  H 4.905815 0.485227 -0.719900
  H 4.984659 -2.454769 -3.696438
  H 5.253979 -0.800706 -4.201794
  H 2.867368 -0.236928 -3.586050
  H 2.595549 -1.938138 -3.192909
  H 5.893106 -0.779127 -0.638689
 23
 30.487985
  H 1.669448 -0.413107 0.762992
  C 2.687189 -0.143628 0.535160
  C 3.384343 0.761362 1.515519
  C 2.474996 1.142627 2.680231
  H 3.016597 1.740532 3.413055
  C 3.278047 -0.616559 -0.565503
  C 4.665397 -0.368445 -1.066020
  C 5.282194 -1.052689 -2.239865
  C 4.681744 -1.502876 -3.536859
  C 3.186161 -1.277369 -3.731478
  H 2.912450 -1.506582 -4.761452
  O 6.476148 -1.214422 -2.032482
  H 3.729660 1.654409 0.987770
  H 4.257768 0.226526 1.896795
  H 2.101860 0.248429 3.175832
  H 1.621938 1.722584 2.326500
  H 2.699712 -1.283651 -1.181289
  H 5.035827 0.643161 -0.852122
  H 4.983279 -2.530916 -3.758797
  H 5.212111 -0.874235 -4.269559
  H 2.925059 -0.246083 -3.526172
  H 2.603065 -1.929033 -3.085552
  H 5.657120 -0.731042 -0.523131
 23
 10.444047
  H 1.751008 -0.554525 0.759886
  C 2.768308 -0.257309 0.555898
  C 3.377093 0.721580 1.510447
  C 2.397843 1.182133 2.583171
  H 2.879298 1.877271 3.267928
  C 3.396106 -0.766362 -0.499457
  C 4.777027 -0.451225 -0.985105
  C 5.339843 -1.050501 -2.255527
  C 4.623176 -1.386696 -3.540909
  C 3.119932 -1.176305 -3.657409
  H 2.809646 -1.406879 -4.671694
  O 6.528155 -1.258058 -2.176700
  H 3.734467 1.602427 0.964485
  H 4.259768 0.282717 1.986772
  H 2.034819 0.334154 3.158085
  H 1.543953 1.681449 2.129989
  H 2.865245 -1.490864 -1.089464
  H 5.062647 0.604354 -0.856828
  H 4.853351 -2.438776 -3.746076
  H 5.136295 -0.814279 -4.318534
  H 2.846062 -0.145851 -3.439941
  H 2.570208 -1.836007 -2.993753
  H 5.624700 -0.808442 -0.368506
 23
 1.974724
  H 1.786634 -0.607400 0.772595
  C 2.798103 -0.298826 0.552770
  C 3.402959 0.728852 1.461151
  C 2.436533 1.180042 2.549552
  H 2.916938 1.891406 3.217552
  C 3.403177 -0.813852 -0.506986
  C 4.767302 -0.444352 -0.982603
  C 5.377522 -1.037062 -2.233494
  C 4.641154 -1.390743 -3.509654
  C 3.136247 -1.192745 -3.618118
  H 2.828270 -1.383670 -4.644554
  O 6.586921 -1.215620 -2.184747
  H 3.721142 1.596080 0.873251
  H 4.302098 0.309048 1.923603
  H 2.102523 0.328734 3.138642
  H 1.563408 1.658243 2.110435
  H 2.885510 -1.568587 -1.073808
  H 4.911881 0.644136 -0.991439
  H 4.907178 -2.422250 -3.753598
  H 5.124851 -0.765363 -4.269538
  H 2.854736 -0.174874 -3.359925
  H 2.589408 -1.881273 -2.982330
  H 5.548180 -0.745305 -0.246460
 23
 1.257974
  H 1.726932 -0.472939 0.792728
  C 2.743008 -0.213909 0.532480
  C 3.458701 0.671228 1.507129
  C 2.553762 1.130926 2.643518
  H 3.098303 1.777140 3.328272
  C 3.256349 -0.666334 -0.595688
  C 4.649353 -0.337038 -1.021532
  C 5.359241 -1.003660 -2.181798
  C 4.702356 -1.450363 -3.476159
  C 3.206448 -1.304894 -3.711739
  H 2.991627 -1.557211 -4.749068
  O 6.577767 -1.108570 -2.099698
  H 3.859640 1.544450 0.982797
  H 4.316755 0.130553 1.921191
  H 2.179857 0.276384 3.203369
  H 1.703079 1.685513 2.252698
  H 2.658313 -1.299442 -1.224604
  H 4.712323 0.737303 -1.244902
  H 4.999787 -2.493642 -3.621129
  H 5.232020 -0.882474 -4.248943
  H 2.874460 -0.284950 -3.536461
  H 2.631415 -1.984985 -3.090307
  H 5.338462 -0.505229 -0.158096
 23
 2.449465
  H 1.591609 0.015312 0.567590
  C 2.652532 0.102604 0.376264
  C 3.468775 0.563591 1.547157
  C 2.605297 0.870516 2.764938
  H 3.219587 1.227681 3.588431
  C 3.120642 -0.156239 -0.837818
  C 4.578551 -0.039212 -1.146839
  C 5.327260 -0.797976 -2.224885
  C 4.724519 -1.553281 -3.395025
  C 3.223865 -1.628196 -3.625259
  H 3.041397 -2.156288 -4.559972
  O 6.535413 -0.779501 -2.143463
  H 4.040003 1.455400 1.271920
  H 4.199087 -0.209615 1.811220
  H 2.077398 -0.022176 3.093761
  H 1.870894 1.637602 2.528363
  H 2.436995 -0.468511 -1.603834
  H 4.833109 1.017494 -1.301251
  H 5.130250 -2.566820 -3.318246
  H 5.194267 -1.107496 -4.278422
  H 2.786991 -0.636869 -3.714537
  H 2.727191 -2.179929 -2.831557
  H 5.118253 -0.313071 -0.234627
 23
 -5.834043
  H 2.186208 -1.160853 1.132432
  C 2.990547 -0.598444 0.679484
  C 3.320489 0.714354 1.320635
  C 2.364930 1.062735 2.454816
  H 2.629946 2.020140 2.897371
  C 3.613367 -1.086903 -0.382449
  C 4.751510 -0.374010 -1.059749
  C 5.373973 -1.185748 -2.170951
  C 4.482620 -1.562533 -3.336080
  C 3.318249 -0.619038 -3.625740
  H 2.797456 -0.947476 -4.524242
  O 6.525532 -1.544170 -2.125178
  H 3.295842 1.505156 0.563969
  H 4.345531 0.677808 1.704454
  H 2.403790 0.303572 3.232922
  H 1.343273 1.126728 2.086742
  H 3.329802 -2.049474 -0.782767
  H 4.396764 0.575671 -1.470513
  H 4.099974 -2.566887 -3.118639
  H 5.122546 -1.658399 -4.219030
  H 3.676652 0.394801 -3.797690
  H 2.604011 -0.602894 -2.805094
  H 5.530875 -0.149117 -0.320793
