 22
 0.000000
  C 0.984885 0.158013 0.444531
  C 2.455618 0.136572 0.391181
  C 3.238802 0.601218 1.547486
  H 2.617414 0.932040 2.371333
  C 3.053866 -0.331389 -0.773743
  C 4.435083 -0.418032 -0.990147
  C 5.093606 -0.867355 -2.110790
  C 4.627893 -1.385939 -3.403827
  C 3.146394 -1.512539 -3.719284
  H 3.026791 -1.914141 -4.720826
  H 6.175172 -0.847022 -2.060610
  H 0.606635 0.537364 1.388500
  H 0.588214 -0.845740 0.282814
  H 0.588119 0.770787 -0.366724
  H 3.895025 1.421180 1.249801
  H 3.895259 -0.196602 1.899770
  H 2.390198 -0.647749 -1.561219
  H 5.070431 -0.091944 -0.177890
  H 5.104856 -2.367913 -3.527556
  H 5.104890 -0.761627 -4.171844
  H 2.654704 -0.543151 -3.688362
  H 2.654855 -2.192093 -3.027188
 22
 4.823247
  C 0.983581 0.185906 0.513622
  C 2.456300 0.144171 0.409972
  C 3.274826 0.602831 1.551845
  H 2.654451 0.934812 2.379221
  C 3.003789 -0.332959 -0.778048
  C 4.358758 -0.440948 -1.047255
  C 5.092207 -0.876175 -2.133058
  C 4.673952 -1.402053 -3.444283
  C 3.197235 -1.537202 -3.780148
  H 3.092600 -1.940101 -4.784919
  H 6.170521 -0.827820 -2.013174
  H 0.643524 0.570326 1.470390
  H 0.566112 -0.811811 0.358414
  H 0.566172 0.799015 -0.288657
  H 3.930658 1.424801 1.254913
  H 3.931070 -0.195956 1.905664
  H 2.288671 -0.634395 -1.528863
  H 4.792144 -0.078081 -0.142841
  H 5.168790 -2.378331 -3.562423
  H 5.168463 -0.777824 -4.204349
  H 2.699424 -0.571544 -3.757363
  H 2.700037 -2.219970 -3.096365
 22
 15.253314
  C 0.985427 0.202379 0.553017
  C 2.458538 0.148299 0.419540
  C 3.296260 0.604612 1.558817
  H 2.681282 0.936883 2.389831
  C 2.980605 -0.342026 -0.803637
  C 4.322203 -0.464216 -1.107289
  C 5.096269 -0.882527 -2.151121
  C 4.706396 -1.409826 -3.463884
  C 3.234181 -1.546379 -3.800159
  H 3.125909 -1.949608 -4.803974
  H 6.169569 -0.819507 -1.995467
  H 0.665820 0.588551 1.515846
  H 0.556927 -0.789965 0.404321
  H 0.557721 0.817585 -0.240078
  H 3.947549 1.429038 1.265284
  H 3.948287 -0.194099 1.914882
  H 2.219002 -0.628342 -1.518815
  H 4.579409 -0.082135 -0.153780
  H 5.205869 -2.381871 -3.577566
  H 5.204497 -0.785657 -4.218709
  H 2.736804 -0.579362 -3.772500
  H 2.738566 -2.226612 -3.110922
 22
 29.195956
  C 1.000357 0.206774 0.562568
  C 2.461248 0.146446 0.414380
  C 3.303996 0.594729 1.536791
  H 2.693750 0.928335 2.373152
  C 2.961274 -0.338584 -0.797795
  C 4.312390 -0.474080 -1.134162
  C 5.113452 -0.881435 -2.150761
  C 4.729417 -1.410695 -3.465918
  C 3.247151 -1.542342 -3.787485
  H 3.121797 -1.947699 -4.794393
  H 6.184744 -0.811315 -1.979194
  H 0.693309 0.594203 1.530488
  H 0.566144 -0.783700 0.417952
  H 0.567583 0.825026 -0.225447
  H 3.953908 1.418250 1.241579
  H 3.954487 -0.205318 1.889563
  H 2.174246 -0.612829 -1.484599
  H 4.411380 -0.083458 -0.158900
  H 5.228137 -2.383236 -3.582565
  H 5.225927 -0.788505 -4.224004
  H 2.753665 -0.571422 -3.751681
  H 2.756136 -2.219266 -3.088514
 22
 43.897798
  C 0.995979 0.212844 0.571267
  C 2.460658 0.149131 0.416800
  C 3.314811 0.591573 1.540451
  H 2.709238 0.923529 2.383351
  C 2.955360 -0.330200 -0.793967
  C 4.311705 -0.478293 -1.154811
  C 5.122015 -0.882724 -2.164943
  C 4.740800 -1.412828 -3.469606
  C 3.264534 -1.544417 -3.778707
  H 3.131114 -1.949323 -4.776379
  H 6.189678 -0.809501 -1.994277
  H 0.695265 0.596406 1.540960
  H 0.556615 -0.777857 0.424662
  H 0.559981 0.837761 -0.213197
  H 3.969003 1.419075 1.245739
  H 3.968471 -0.215372 1.888645
  H 2.146797 -0.596553 -1.473317
  H 4.283887 -0.088042 -0.175692
  H 5.238474 -2.382676 -3.585585
  H 5.231648 -0.792466 -4.228576
  H 2.774919 -0.578952 -3.739652
  H 2.781740 -2.213856 -3.077139
 22
 57.167459
  C 0.991999 0.231930 0.562245
  C 2.459623 0.165218 0.415934
  C 3.310294 0.565427 1.565303
  H 2.707266 0.862011 2.411305
  C 2.972524 -0.269019 -0.790262
  C 4.333080 -0.456446 -1.183171
  C 5.133258 -0.848973 -2.175297
  C 4.748574 -1.428071 -3.483451
  C 3.264211 -1.586661 -3.752251
  H 3.115793 -2.005690 -4.744089
  H 6.205157 -0.747822 -2.028249
  H 0.694056 0.580765 1.539590
  H 0.547254 -0.744633 0.384467
  H 0.566563 0.890770 -0.190136
  H 3.967120 1.398417 1.318552
  H 3.946751 -0.262952 1.879314
  H 2.170753 -0.505335 -1.510992
  H 4.217299 -0.075624 -0.187926
  H 5.259560 -2.392426 -3.600034
  H 5.207107 -0.790350 -4.249863
  H 2.759583 -0.623809 -3.712413
  H 2.804897 -2.261677 -3.032094
 22
 62.947851
  C 0.973460 0.260167 0.555580
  C 2.456400 0.183287 0.419549
  C 3.298189 0.519485 1.603003
  H 2.683072 0.776874 2.462483
  C 2.992345 -0.185819 -0.773075
  C 4.357784 -0.426845 -1.232110
  C 5.137701 -0.806886 -2.207382
  C 4.757991 -1.446857 -3.514057
  C 3.271608 -1.643811 -3.725748
  H 3.109170 -2.096991 -4.698571
  H 6.208467 -0.675505 -2.099205
  H 0.677132 0.562542 1.558114
  H 0.514347 -0.704457 0.333935
  H 0.560643 0.976507 -0.154759
  H 3.956777 1.366822 1.406942
  H 3.920129 -0.334902 1.882768
  H 2.229522 -0.368525 -1.541388
  H 4.193658 -0.047515 -0.205045
  H 5.282570 -2.400648 -3.597111
  H 5.169474 -0.804731 -4.295477
  H 2.747858 -0.697078 -3.708323
  H 2.852385 -2.305863 -2.977516
 22
 67.771512
  C 0.975941 0.277251 0.548780
  C 2.454056 0.196212 0.439756
  C 3.282290 0.491249 1.653745
  H 2.657460 0.723052 2.508681
  C 3.004474 -0.136033 -0.756090
  C 4.371898 -0.401961 -1.260082
  C 5.141248 -0.782570 -2.235194
  C 4.757038 -1.456579 -3.526254
  C 3.266191 -1.683738 -3.717058
  H 3.099496 -2.166579 -4.677616
  H 6.214980 -0.634384 -2.150784
  H 0.668055 0.543563 1.546697
  H 0.518948 -0.672384 0.288619
  H 0.582191 1.019190 -0.139686
  H 3.945049 1.345101 1.489634
  H 3.902000 -0.371757 1.917030
  H 2.263593 -0.287316 -1.553942
  H 4.162319 -0.016647 -0.238770
  H 5.300289 -2.404388 -3.580708
  H 5.150601 -0.822406 -4.327920
  H 2.725170 -0.740763 -3.723791
  H 2.864718 -2.333645 -2.943209
 22
 71.535985
  C 0.973757 0.308973 0.540336
  C 2.454234 0.212256 0.451726
  C 3.264602 0.425641 1.682897
  H 2.636777 0.613224 2.534061
  C 3.019987 -0.060219 -0.756254
  C 4.390611 -0.352926 -1.293080
  C 5.149896 -0.736584 -2.271091
  C 4.755163 -1.468635 -3.530796
  C 3.265978 -1.741169 -3.676294
  H 3.089183 -2.266125 -4.604509
  H 6.223260 -0.553918 -2.215445
  H 0.648221 0.522658 1.557656
  H 0.507007 -0.621684 0.214849
  H 0.600538 1.099277 -0.113409
  H 3.931483 1.272945 1.573731
  H 3.870989 -0.449014 1.901589
  H 2.299721 -0.149068 -1.582296
  H 4.140151 0.044637 -0.271452
  H 5.320075 -2.406516 -3.558383
  H 5.109172 -0.858086 -4.368801
  H 2.706240 -0.822461 -3.711705
  H 2.901924 -2.359032 -2.871350
 22
 74.661105
  C 0.977857 0.334064 0.518856
  C 2.455782 0.223553 0.454162
  C 3.247455 0.358840 1.708592
  H 2.594093 0.509618 2.573630
  C 3.038456 0.006244 -0.761036
  C 4.404314 -0.305358 -1.321087
  C 5.154073 -0.693713 -2.304246
  C 4.746194 -1.480610 -3.530522
  C 3.265031 -1.793047 -3.626016
  H 3.076078 -2.362661 -4.532968
  H 6.215772 -0.479389 -2.276949
  H 0.637242 0.495764 1.532953
  H 0.509011 -0.567510 0.135703
  H 0.627935 1.157275 -0.095206
  H 3.932631 1.211086 1.654942
  H 3.849067 -0.539579 1.889860
  H 2.340282 -0.014798 -1.610057
  H 4.120707 0.108417 -0.299171
  H 5.332026 -2.404394 -3.538102
  H 5.060457 -0.897545 -4.397924
  H 2.678515 -0.884081 -3.684401
  H 2.934740 -2.387956 -2.780833
 22
 76.709522
  C 0.976292 0.372689 0.510714
  C 2.450504 0.234710 0.455642
  C 3.233876 0.276677 1.718754
  H 2.588516 0.386233 2.573141
  C 3.044825 0.075710 -0.770874
  C 4.398463 -0.253717 -1.351069
  C 5.146163 -0.646538 -2.333402
  C 4.743950 -1.492312 -3.520669
  C 3.269738 -1.857236 -3.575717
  H 3.083317 -2.469102 -4.452834
  H 6.194615 -0.399073 -2.331513
  H 0.624488 0.481417 1.533866
  H 0.494170 -0.493970 0.067756
  H 0.649962 1.238499 -0.058002
  H 3.934066 1.113751 1.721744
  H 3.818774 -0.643020 1.848959
  H 2.362857 0.128782 -1.626580
  H 4.092463 0.180111 -0.325142
  H 5.361636 -2.399489 -3.503376
  H 5.024219 -0.933138 -4.417125
  H 2.654213 -0.975092 -3.658811
  H 2.975731 -2.422541 -2.703473
 22
 77.582707
  C 0.970330 0.412698 0.514847
  C 2.442404 0.243460 0.455422
  C 3.225764 0.185326 1.717946
  H 2.579485 0.252136 2.581494
  C 3.037994 0.149862 -0.784466
  C 4.376527 -0.204039 -1.398137
  C 5.135874 -0.604902 -2.367677
  C 4.748700 -1.513999 -3.507141
  C 3.283366 -1.918064 -3.526260
  H 3.101824 -2.576038 -4.369441
  H 6.187410 -0.326865 -2.382654
  H 0.617220 0.463570 1.538680
  H 0.468689 -0.414281 0.013209
  H 0.664434 1.321047 0.001153
  H 3.943368 1.006650 1.776479
  H 3.790665 -0.745826 1.787754
  H 2.360302 0.258512 -1.637061
  H 4.063100 0.268677 -0.351661
  H 5.389965 -2.399964 -3.454791
  H 5.004608 -0.989209 -4.432375
  H 2.642737 -1.050227 -3.643251
  H 3.012374 -2.446919 -2.621268
 22
 76.024367
  C 0.969398 0.464389 0.529693
  C 2.433412 0.256972 0.450946
  C 3.223228 0.067412 1.697337
  H 2.581245 0.071402 2.573072
  C 3.022894 0.248882 -0.804192
  C 4.315790 -0.142693 -1.457689
  C 5.106915 -0.556275 -2.392360
  C 4.758459 -1.541688 -3.478743
  C 3.307341 -1.996520 -3.471021
  H 3.146687 -2.710863 -4.272487
  H 6.147333 -0.238749 -2.417378
  H 0.619470 0.437852 1.554655
  H 0.442738 -0.301348 -0.040681
  H 0.688996 1.425017 0.095647
  H 3.961016 0.858852 1.824780
  H 3.765193 -0.878168 1.677241
  H 2.348674 0.425734 -1.646107
  H 4.024177 0.398688 -0.392534
  H 5.427576 -2.398437 -3.374749
  H 4.997042 -1.062350 -4.431585
  H 2.637425 -1.158445 -3.635802
  H 3.054848 -2.478275 -2.530856
 22
 72.960379
  C 0.967167 0.508433 0.568937
  C 2.421015 0.269827 0.450291
  C 3.229508 -0.049429 1.654319
  H 2.604014 -0.114383 2.540592
  C 2.994593 0.353028 -0.823334
  C 4.237674 -0.090579 -1.515824
  C 5.073161 -0.522706 -2.399530
  C 4.775955 -1.578934 -3.436023
  C 3.335725 -2.069369 -3.429645
  H 3.205933 -2.835067 -4.193521
  H 6.110208 -0.182297 -2.411396
  H 0.629048 0.401409 1.592017
  H 0.412914 -0.187507 -0.059096
  H 0.706438 1.512074 0.222238
  H 3.988719 0.710363 1.841226
  H 3.752051 -1.000813 1.533002
  H 2.316907 0.576192 -1.653112
  H 3.979009 0.544709 -0.427628
  H 5.461676 -2.407491 -3.266603
  H 5.025857 -1.149743 -4.406618
  H 2.651926 -1.259783 -3.650626
  H 3.076317 -2.501462 -2.464739
