14

H 1.384016608341725 0.13786838210510244 0.3939318553221603
C 2.454013 0.139037 0.396453
C 3.235639 0.609617 1.567787
H 2.6880135934950524 0.9521638611489242 2.420821619501056
C 3.075154 -0.323445 -0.755457
C 4.453051 -0.41132 -0.97438
C 5.123091 -0.863652 -2.101643
H 4.763021925593346 -1.2388653807290455 -3.0367714299912056
O 6.448357 -0.861732 -2.096972
H 3.89169 1.422523 1.23602
H 3.891933 -0.206742 1.890421
H 2.419676 -0.641874 -1.548482
H 5.074642 -0.080448 -0.15012
H 6.824653 -0.526795 -1.261478
