 14
 0.000000
  H 1.425056 0.137817 0.391468
  C 2.506098 0.136188 0.388738
  C 3.194045 0.616198 1.584308
  H 2.499842 0.927124 2.357247
  C 3.124647 -0.324213 -0.756989
  C 4.510376 -0.394494 -0.930879
  C 5.137374 -0.853966 -2.076457
  H 4.626810 -1.210420 -2.964008
  O 6.422038 -0.907213 -2.210943
  H 3.852509 1.452570 1.337769
  H 3.851575 -0.158924 1.985217
  H 2.492880 -0.650857 -1.571411
  H 5.144000 -0.067888 -0.115623
  H 6.939703 -0.595585 -1.438306
 14
 8.755307
  H 1.476544 0.078537 0.245764
  C 2.551162 0.117253 0.341292
  C 3.100281 0.620894 1.596521
  H 2.324365 0.900888 2.296496
  C 3.313880 -0.317481 -0.741969
  C 4.690317 -0.327786 -0.768372
  C 5.042824 -0.810246 -1.968420
  H 4.349310 -1.122897 -2.746694
  O 6.286933 -0.983728 -2.399098
  H 3.748514 1.478074 1.416260
  H 3.749815 -0.122566 2.057907
  H 2.755718 -0.660980 -1.597008
  H 5.344502 -0.013750 0.013217
  H 6.980265 -0.725625 -1.755389
 14
 36.042289
  H 1.522429 0.037190 0.148877
  C 2.589456 0.098402 0.297357
  C 3.065358 0.615734 1.581234
  H 2.252096 0.880925 2.247220
  C 3.424273 -0.321301 -0.750312
  C 4.793885 -0.288696 -0.665362
  C 4.954307 -0.771526 -1.874662
  H 4.234502 -1.071705 -2.628870
  O 6.184109 -1.007220 -2.462169
  H 3.707698 1.484474 1.430144
  H 3.713191 -0.111996 2.072086
  H 2.859458 -0.660987 -1.598872
  H 5.457321 0.018639 0.108272
  H 6.938503 -0.786973 -1.903391
 14
 73.966857
  H 1.546893 0.021695 0.108909
  C 2.610773 0.089146 0.273450
  C 3.057307 0.607551 1.561950
  H 2.228835 0.866463 2.213731
  C 3.473430 -0.329605 -0.771870
  C 4.851013 -0.261876 -0.600928
  C 4.858114 -0.745842 -1.810293
  H 4.215397 -1.062827 -2.606717
  O 6.134671 -1.017770 -2.486822
  H 3.695603 1.479418 1.425349
  H 3.701851 -0.112233 2.064768
  H 2.866026 -0.654353 -1.581621
  H 5.528840 0.044041 0.165973
  H 6.910438 -0.806725 -1.948672
 14
 109.947977
  H 1.545501 0.024045 0.095710
  C 2.613397 0.086731 0.262766
  C 3.056850 0.603751 1.549004
  H 2.230557 0.864439 2.190863
  C 3.476618 -0.338231 -0.786351
  C 4.876926 -0.251854 -0.552961
  C 4.769683 -0.732732 -1.755199
  H 4.227659 -1.072952 -2.610751
  O 6.155469 -1.020063 -2.514832
  H 3.705829 1.481697 1.415456
  H 3.701357 -0.124260 2.062554
  H 2.821764 -0.653074 -1.574829
  H 5.555559 0.051828 0.207320
  H 6.930135 -0.801860 -1.980146
 14
 134.901136
  H 1.537657 -0.041824 0.124127
  C 2.607052 0.052145 0.263948
  C 3.066197 0.575099 1.554357
  H 2.234429 0.797324 2.212761
  C 3.433989 -0.311157 -0.795833
  C 4.889841 -0.113722 -0.573868
  C 4.679822 -0.618993 -1.735979
  H 4.246480 -1.002777 -2.633310
  O 6.234929 -1.156496 -2.517571
  H 3.657561 1.483748 1.429661
  H 3.742437 -0.129881 2.038254
  H 2.759208 -0.623727 -1.586647
  H 5.568777 0.202202 0.182476
  H 7.000936 -0.994930 -1.956725
 14
 139.049513
  H 1.501445 -0.056624 0.209900
  C 2.577112 0.017003 0.291489
  C 3.100476 0.540550 1.564728
  H 2.293484 0.751259 2.257932
  C 3.322024 -0.305653 -0.806117
  C 4.846153 0.030869 -0.671650
  C 4.541704 -0.579697 -1.743519
  H 4.310518 -0.869636 -2.744355
  O 6.413683 -1.298773 -2.446064
  H 3.669686 1.462075 1.432868
  H 3.792805 -0.179317 2.005106
  H 2.631350 -0.642329 -1.587275
  H 5.530704 0.409784 0.050181
  H 7.121040 -1.168444 -1.809242
 14
 145.607052
  H 1.474769 -0.076160 0.239336
  C 2.552662 0.013629 0.301145
  C 3.096489 0.534299 1.569568
  H 2.302846 0.723522 2.284776
  C 3.285425 -0.294864 -0.818497
  C 4.831584 0.094457 -0.694671
  C 4.480027 -0.547800 -1.725283
  H 4.237102 -0.845226 -2.720973
  O 6.567178 -1.382036 -2.459670
  H 3.643887 1.467256 1.425466
  H 3.810192 -0.174117 1.992851
  H 2.587472 -0.620989 -1.602054
  H 5.509251 0.487621 0.026421
  H 7.274840 -1.259935 -1.820268
 14
 145.539507
  H 1.431507 -0.090716 0.311254
  C 2.500318 0.020808 0.320675
  C 3.098174 0.533409 1.575930
  H 2.339759 0.676825 2.337841
  C 3.161945 -0.268121 -0.827172
  C 4.765092 0.170802 -0.727875
  C 4.393739 -0.503422 -1.718317
  H 4.189791 -0.813886 -2.720139
  O 6.870472 -1.513148 -2.488386
  H 3.610790 1.488158 1.419130
  H 3.850907 -0.165553 1.953553
  H 2.443940 -0.572576 -1.600509
  H 5.390778 0.588784 0.024455
  H 7.592677 -1.418372 -1.863887
 14
 145.497013
  H 1.388075 -0.107311 0.368753
  C 2.460439 0.021860 0.345380
  C 3.085610 0.525545 1.579938
  H 2.351662 0.640499 2.369688
  C 3.086017 -0.250329 -0.826001
  C 4.722761 0.247468 -0.761647
  C 4.317123 -0.475494 -1.701212
  H 4.134881 -0.788414 -2.699255
  O 7.095651 -1.621765 -2.502132
  H 3.569893 1.488659 1.419757
  H 3.863462 -0.161144 1.918938
  H 2.357780 -0.541509 -1.589945
  H 5.338151 0.705375 -0.027077
  H 7.830321 -1.529021 -1.887816
 14
 124.562684
  H 1.485595 -0.207621 0.367111
  C 2.560961 -0.031555 0.340438
  C 3.215493 0.390443 1.587244
  H 2.551767 0.249181 2.458296
  C 3.158372 -0.137972 -0.885208
  C 4.576568 0.461898 -0.954684
  C 4.599508 -0.474633 -1.807524
  H 4.705240 -1.074239 -2.669677
  O 6.379523 -1.541177 -2.155134
  H 3.468523 1.480557 1.550934
  H 4.142169 -0.118878 1.736396
  H 2.544404 -0.404775 -1.741322
  H 5.046583 1.113788 -0.246418
  H 7.167120 -1.550597 -1.573083
