 20
 0.000000
  C 0.975790 0.137332 0.393142
  C 2.453972 0.138831 0.396445
  C 3.235887 0.609601 1.567949
  C 2.454651 1.098519 2.785050
  H 3.117958 1.411577 3.564099
  C 3.074760 -0.323868 -0.755623
  C 4.452396 -0.411652 -0.974602
  C 5.123831 -0.863395 -2.100714
  H 4.763810 -1.238544 -3.035887
  O 6.448567 -0.861790 -2.097024
  H 0.536390 0.506813 1.312870
  H 0.606624 -0.875729 0.225913
  H 0.606339 0.752985 -0.428456
  H 3.892013 1.422462 1.236076
  H 3.892206 -0.206765 1.890660
  H 1.816409 0.300727 3.170305
  H 1.816264 1.941012 2.511316
  H 2.419633 -0.642347 -1.548686
  H 5.073532 -0.080521 -0.149771
  H 6.820588 -0.526463 -1.260938
 20
 0.000000
  C 1.005397 0.132407 0.380876
  C 2.483507 0.138188 0.394832
  C 3.255593 0.611207 1.571937
  C 2.464192 1.097846 2.783373
  H 3.120959 1.412815 3.567180
  C 3.128996 -0.333723 -0.780181
  C 4.439780 -0.426427 -1.011438
  C 5.078195 -0.860512 -2.093533
  H 4.737891 -1.238208 -3.035046
  O 6.341574 -0.838500 -2.038980
  H 0.558312 0.500603 1.297411
  H 0.640382 -0.881717 0.211000
  H 0.640095 0.746997 -0.443369
  H 3.911737 1.425969 1.244794
  H 3.911931 -0.203258 1.899377
  H 1.825504 0.298204 3.164025
  H 1.825356 1.938489 2.505038
  H 2.480526 -0.654091 -1.577942
  H 5.070951 -0.097933 -0.193195
  H 6.660743 -0.479570 -1.144039
 20
 0.000000
  C 1.034863 0.127847 0.369518
  C 2.512795 0.138258 0.394996
  C 3.274196 0.613678 1.578080
  C 2.471854 1.097818 2.783306
  H 3.121501 1.414833 3.572206
  C 3.185686 -0.343640 -0.804893
  C 4.431746 -0.440969 -1.047688
  C 5.037294 -0.858575 -2.088705
  H 4.715216 -1.238485 -3.035725
  O 6.238252 -0.818863 -1.990036
  H 0.579494 0.494628 1.282537
  H 0.674361 -0.887413 0.196812
  H 0.674073 0.741301 -0.457556
  H 3.930315 1.430496 1.256054
  H 3.930511 -0.198732 1.910635
  H 1.832726 0.296174 3.158976
  H 1.832577 1.936460 2.499990
  H 2.544461 -0.666028 -1.607681
  H 5.073892 -0.115432 -0.236833
  H 6.497604 -0.435718 -1.034721
 20
 0.000000
  C 1.063866 0.123806 0.359452
  C 2.541489 0.139221 0.397382
  C 3.291281 0.617197 1.586835
  C 2.477178 1.098599 2.785252
  H 3.119078 1.417799 3.579595
  C 3.244971 -0.353607 -0.829733
  C 4.428799 -0.455222 -1.083213
  C 5.001695 -0.857782 -2.086722
  H 4.695804 -1.239547 -3.038353
  O 6.139495 -0.803230 -1.951071
  H 0.599581 0.489029 1.268598
  H 0.708272 -0.892666 0.183726
  H 0.707983 0.736048 -0.470641
  H 3.947321 1.436237 1.270338
  H 3.947518 -0.192991 1.924918
  H 1.837624 0.294789 3.155534
  H 1.837474 1.935076 2.496550
  H 2.611627 -0.678154 -1.637892
  H 5.082926 -0.133003 -0.280649
  H 6.331381 -0.395596 -0.934697
 20
 0.000000
  C 1.091850 0.120545 0.351327
  C 2.569001 0.141368 0.402716
  C 3.306173 0.622063 1.598944
  C 2.479428 1.100460 2.789890
  H 3.112894 1.421993 3.590044
  C 3.307103 -0.363696 -0.854876
  C 4.431668 -0.469241 -1.118151
  C 4.972338 -0.858571 -2.088675
  H 4.679967 -1.241807 -3.043959
  O 6.046589 -0.792180 -1.923522
  H 0.617968 0.484049 1.256201
  H 0.741594 -0.897219 0.172383
  H 0.741304 0.731496 -0.481983
  H 3.962067 1.443505 1.288425
  H 3.962265 -0.185724 1.943003
  H 1.839473 0.294308 3.154342
  H 1.839322 1.934596 2.495360
  H 2.682339 -0.690546 -1.668766
  H 5.098859 -0.150750 -0.324903
  H 6.162808 -0.359946 -0.845817
 20
 0.000000
  C 1.117750 0.118484 0.346187
  C 2.594236 0.145113 0.412030
  C 3.317770 0.628678 1.615409
  C 2.477534 1.103796 2.798200
  H 3.101870 1.427799 3.604511
  C 3.372051 -0.374022 -0.880611
  C 4.441237 -0.483064 -1.152599
  C 4.950808 -0.861650 -2.096332
  H 4.668486 -1.245936 -3.054214
  O 5.962067 -0.786636 -1.909690
  H 0.633608 0.480103 1.246375
  H 0.773266 -0.900646 0.163841
  H 0.772976 0.728069 -0.490525
  H 3.973439 1.452699 1.311310
  H 3.973636 -0.176531 1.965887
  H 1.837216 0.295126 3.156385
  H 1.837066 1.935414 2.497406
  H 2.756572 -0.703312 -1.700571
  H 5.122459 -0.168711 -0.369687
  H 5.994802 -0.329928 -0.770968
 20
 0.000000
  C 1.140525 0.118239 0.345571
  C 2.616098 0.151201 0.427179
  C 3.324659 0.637836 1.638209
  C 2.469806 1.109315 2.811951
  H 3.084100 1.435974 3.624879
  C 3.441546 -0.385142 -0.908322
  C 4.458859 -0.497178 -1.187766
  C 4.938849 -0.868290 -2.112855
  H 4.662334 -1.253169 -3.072193
  O 5.887589 -0.787923 -1.912872
  H 0.645249 0.477756 1.240531
  H 0.802382 -0.902355 0.159575
  H 0.802094 0.726361 -0.494789
  H 3.979997 1.464670 1.341113
  H 3.980193 -0.164561 1.995688
  H 1.829173 0.297896 3.163293
  H 1.829024 1.938186 2.504316
  H 2.836277 -0.717051 -1.734802
  H 5.155153 -0.187429 -0.416356
  H 5.828002 -0.306337 -0.712130
 20
 0.000000
  C 1.158362 0.120575 0.351378
  C 2.632735 0.160347 0.449945
  C 3.325072 0.650215 1.669032
  C 2.454611 1.117708 2.832859
  H 3.058004 1.447177 3.652789
  C 3.515945 -0.397417 -0.938907
  C 4.485326 -0.511734 -1.224027
  C 4.938454 -0.879802 -2.141513
  H 4.662553 -1.264751 -3.101000
  O 5.826995 -0.797471 -1.936635
  H 0.651174 0.477775 1.240577
  H 0.827097 -0.901565 0.161530
  H 0.826811 0.727151 -0.492833
  H 3.979959 1.480075 1.379471
  H 3.980152 -0.149157 2.034043
  H 1.813734 0.303329 3.176832
  H 1.813586 1.943620 2.517858
  H 2.921756 -0.732097 -1.772284
  H 5.197344 -0.206974 -0.465076
  H 5.667867 -0.290648 -0.672981
 20
 0.000000
  C 1.169599 0.126204 0.365386
  C 2.642454 0.173176 0.481883
  C 3.317507 0.666382 1.709292
  C 2.430675 1.129580 2.862431
  H 3.022432 1.461967 3.689635
  C 3.595747 -0.411224 -0.973304
  C 4.520862 -0.526897 -1.261795
  C 4.950725 -0.897408 -2.185346
  H 4.669577 -1.281840 -3.143521
  O 5.783398 -0.816326 -1.983580
  H 0.649889 0.480893 1.248341
  H 0.845665 -0.897537 0.171549
  H 0.845383 0.731180 -0.482814
  H 3.971807 1.499441 1.427697
  H 3.971997 -0.129791 2.082268
  H 1.789646 0.312069 3.198604
  H 1.789502 1.952361 2.539632
  H 3.013383 -0.748779 -1.813840
  H 5.248810 -0.227394 -0.515971
  H 5.519928 -0.283790 -0.655836
 20
 0.000000
  C 1.172324 0.135695 0.389011
  C 2.643332 0.190141 0.524121
  C 3.300298 0.686725 1.759955
  C 2.396615 1.145375 2.901775
  H 2.976170 1.480735 3.736386
  C 3.680883 -0.426826 -1.012165
  C 4.565363 -0.542669 -1.301067
  C 4.976615 -0.922055 -2.246722
  H 4.684230 -1.305335 -3.201995
  O 5.760718 -0.844965 -2.054901
  H 0.639697 0.487711 1.265314
  H 0.856069 -0.889670 0.191123
  H 0.855792 0.739047 -0.463239
  H 3.953869 1.523106 1.486631
  H 3.954054 -0.106127 2.141200
  H 1.755545 0.324609 3.229839
  H 1.755405 1.964901 2.570870
  H 3.110915 -0.767307 -1.859988
  H 5.308616 -0.248419 -0.568359
  H 5.392677 -0.285927 -0.661104
 20
 0.000000
  C 1.165535 0.149397 0.423120
  C 2.634373 0.211464 0.577216
  C 3.272740 0.711404 1.821416
  C 2.352019 1.165322 2.951456
  H 2.919000 1.503652 3.793472
  C 3.771498 -0.444259 -1.055582
  C 4.617928 -0.559022 -1.341780
  C 5.014878 -0.953981 -2.326229
  H 4.705598 -1.335430 -3.276909
  O 5.759266 -0.882973 -2.149561
  H 0.619816 0.498615 1.292460
  H 0.857182 -0.877587 0.221196
  H 0.856912 0.751129 -0.433166
  H 3.925441 1.551172 1.556530
  H 3.925619 -0.078062 2.211098
  H 1.711030 0.341230 3.271238
  H 1.710896 1.981524 2.612271
  H 3.214300 -0.787663 -1.910684
  H 5.375476 -0.269868 -0.621794
  H 5.290011 -0.296046 -0.686259
 20
 0.000000
  C 1.156737 0.157448 0.443164
  C 2.624477 0.223032 0.606021
  C 3.254209 0.724489 1.854005
  C 2.325677 1.176192 2.978528
  H 2.886812 1.515872 3.823910
  C 3.807209 -0.449469 -1.068554
  C 4.639886 -0.563156 -1.352064
  C 5.033681 -0.966115 -2.356445
  H 4.717279 -1.346758 -3.305105
  O 5.765633 -0.897689 -2.186210
  H 0.605006 0.505351 1.309230
  H 0.852055 -0.870271 0.239410
  H 0.851789 0.758446 -0.414952
  H 3.906467 1.565820 1.593014
  H 3.906641 -0.063414 2.247581
  H 1.684767 0.350565 3.294486
  H 1.684636 1.990859 2.635519
  H 3.255947 -0.794200 -1.926963
  H 5.401825 -0.275605 -0.636080
  H 5.257561 -0.299161 -0.694001
 20
 0.000000
  C 1.120224 0.193592 0.533147
  C 2.582814 0.273577 0.731886
  C 3.176838 0.781042 1.994851
  C 2.216659 1.223455 3.096243
  H 2.753557 1.568528 3.955068
  C 4.000855 -0.488024 -1.164558
  C 4.760736 -0.596255 -1.434444
  C 5.130834 -1.048136 -2.560717
  H 4.766502 -1.422800 -3.494431
  O 5.811074 -0.995619 -2.430123
  H 0.544062 0.535947 1.385399
  H 0.830740 -0.837045 0.322116
  H 0.830489 0.791672 -0.332246
  H 3.826987 1.628775 1.749811
  H 3.827146 -0.000459 2.404376
  H 1.576352 0.391530 3.396509
  H 1.576236 2.031825 2.737545
  H 3.474195 -0.838051 -2.036163
  H 5.548024 -0.318340 -0.742502
  H 5.124736 -0.340998 -0.798143
