17

C 1.007569 -0.072615 0.046013
C 2.503923 -0.081235 0.026576
C 3.219585 -0.594101 -0.980208
C 4.657571 -0.605134 -1.001007
C 5.377539 -1.120592 -2.012896
C 6.816206 -1.130603 -2.031599
C 7.53406 -1.64254 -3.036579
H 8.603624717950531 -1.6566694521818288 -3.063628449096887
H 0.645631 0.39385 0.961661
H 0.612372 -1.088373 0.009747
H 0.610749 0.49234 -0.797418
H 3.002852 0.353918 0.88255
H 2.708209 -1.027276 -1.831323
H 5.162377 -0.170504 -0.147079
H 4.873231 -1.555308 -2.866998
H 7.323238 -0.696401 -1.178498
H 7.035098 -2.078561 -3.89323
