 17
 0.000000
  C 1.008542 -0.072266 0.046682
  C 2.504924 -0.081371 0.026027
  C 3.220361 -0.593691 -0.979705
  C 4.657110 -0.605646 -1.002117
  C 5.377694 -1.121039 -2.013908
  C 6.815214 -1.131821 -2.033891
  C 7.530192 -1.641673 -3.034808
  H 8.603097 -1.654339 -3.058815
  H 0.646182 0.393864 0.961323
  H 0.613393 -1.087527 0.009419
  H 0.611696 0.490841 -0.797181
  H 3.004465 0.353092 0.881137
  H 2.709413 -1.026531 -1.830392
  H 5.161997 -0.171372 -0.148684
  H 4.873564 -1.555392 -2.867501
  H 7.321593 -0.697767 -1.180876
  H 7.034398 -2.077165 -3.890627
 17
 3.580132
  C 1.011919 -0.036870 0.054027
  C 2.482107 -0.072316 0.023200
  C 3.202488 -0.582236 -0.982870
  C 4.638654 -0.610905 -1.005700
  C 5.363756 -1.120673 -2.014750
  C 6.800548 -1.142824 -2.034205
  C 7.520555 -1.647648 -3.033915
  H 8.596433 -1.652317 -3.023458
  H 0.613707 0.385795 0.969261
  H 0.839469 -1.091573 0.000519
  H 0.573400 0.472121 -0.801118
  H 3.003105 0.353673 0.872203
  H 2.695292 -1.008651 -1.840621
  H 5.144218 -0.187072 -0.146460
  H 4.861013 -1.544192 -2.874920
  H 7.298330 -0.717356 -1.171620
  H 7.049183 -2.076662 -3.903204
 17
 11.468623
  C 0.995552 -0.019239 0.057607
  C 2.473827 -0.052074 0.019097
  C 3.189656 -0.558355 -0.990248
  C 4.632436 -0.611046 -1.006234
  C 5.356146 -1.113984 -2.018048
  C 6.788873 -1.157874 -2.028749
  C 7.509654 -1.655696 -3.030519
  H 8.597595 -1.674356 -3.006783
  H 0.576821 0.370856 0.968112
  H 1.045677 -1.086575 0.024837
  H 0.521453 0.410093 -0.823552
  H 3.012985 0.370689 0.859729
  H 2.681880 -0.969300 -1.854408
  H 5.140269 -0.209748 -0.137987
  H 4.854472 -1.513205 -2.885974
  H 7.285433 -0.754698 -1.155183
  H 7.045125 -2.059928 -3.904690
 17
 21.443501
  C 0.980511 -0.007155 0.057614
  C 2.468091 -0.049710 0.010174
  C 3.184882 -0.548033 -1.003745
  C 4.624095 -0.617045 -1.007262
  C 5.354072 -1.108434 -2.023602
  C 6.783187 -1.169152 -2.018807
  C 7.511647 -1.655748 -3.024954
  H 8.581860 -1.686843 -2.989313
  H 0.553598 0.405451 0.961739
  H 1.206119 -1.060349 0.085847
  H 0.486638 0.325563 -0.840963
  H 3.013685 0.369373 0.848620
  H 2.677668 -0.940770 -1.880556
  H 5.129938 -0.238163 -0.122907
  H 4.856227 -1.484005 -2.907294
  H 7.273405 -0.790606 -1.132456
  H 7.048062 -2.040754 -3.924010
 17
 31.249751
  C 0.968170 0.009781 0.064940
  C 2.460124 -0.057769 0.001260
  C 3.178622 -0.548397 -1.020678
  C 4.610806 -0.628930 -1.014664
  C 5.346774 -1.108463 -2.032470
  C 6.783862 -1.178991 -2.015677
  C 7.519089 -1.652914 -3.020360
  H 8.594214 -1.691860 -2.974920
  H 0.549721 0.444123 0.954996
  H 1.325983 -1.022207 0.147895
  H 0.448412 0.263971 -0.844742
  H 3.011015 0.354926 0.841896
  H 2.672639 -0.923809 -1.903640
  H 5.111838 -0.268803 -0.122232
  H 4.853160 -1.465662 -2.926548
  H 7.269340 -0.817985 -1.118150
  H 7.064072 -2.018296 -3.925357
 17
 39.621159
  C 0.967032 0.024944 0.071236
  C 2.452156 -0.069513 -0.013185
  C 3.177950 -0.553288 -1.041248
  C 4.601410 -0.640780 -1.022734
  C 5.349651 -1.110908 -2.042423
  C 6.772313 -1.184531 -2.010197
  C 7.520613 -1.648251 -3.013757
  H 8.602327 -1.690721 -2.954250
  H 0.567568 0.485171 0.955529
  H 1.421542 -0.982062 0.202556
  H 0.422369 0.209938 -0.836625
  H 2.995280 0.333210 0.832088
  H 2.677127 -0.913134 -1.928784
  H 5.094332 -0.294623 -0.122292
  H 4.867013 -1.453452 -2.943957
  H 7.246366 -0.836848 -1.103372
  H 7.076537 -2.000568 -3.928463
 17
 45.181995
  C 0.957959 0.039889 0.074239
  C 2.447347 -0.077882 -0.014910
  C 3.174228 -0.552510 -1.052171
  C 4.596949 -0.649029 -1.028780
  C 5.346969 -1.108714 -2.048501
  C 6.781879 -1.193208 -2.008839
  C 7.534092 -1.647064 -3.011562
  H 8.608931 -1.695035 -2.945159
  H 0.563201 0.532820 0.943479
  H 1.494896 -0.948882 0.260987
  H 0.394434 0.144497 -0.836217
  H 2.987632 0.311013 0.833604
  H 2.667828 -0.897490 -1.951415
  H 5.093013 -0.315884 -0.113999
  H 4.866117 -1.435599 -2.956108
  H 7.252184 -0.861451 -1.097262
  H 7.096483 -1.982870 -3.931112
 17
 49.571854
  C 0.958527 0.050457 0.068656
  C 2.441505 -0.087513 -0.011702
  C 3.172793 -0.552790 -1.056815
  C 4.595111 -0.653796 -1.030534
  C 5.352737 -1.107241 -2.053294
  C 6.777984 -1.198924 -2.003952
  C 7.536712 -1.645693 -3.007059
  H 8.617529 -1.694629 -2.933473
  H 0.560459 0.564793 0.917174
  H 1.554290 -0.921774 0.300402
  H 0.392642 0.087812 -0.838587
  H 2.990450 0.302474 0.860219
  H 2.671416 -0.880609 -1.948884
  H 5.081248 -0.338081 -0.124980
  H 4.874156 -1.424867 -2.970872
  H 7.245272 -0.875795 -1.081760
  H 7.099016 -1.972927 -3.946621
 17
 53.038797
  C 0.967237 0.063448 0.065341
  C 2.444284 -0.096501 -0.003148
  C 3.178611 -0.555674 -1.058065
  C 4.589094 -0.662322 -1.027262
  C 5.348416 -1.108256 -2.053015
  C 6.777426 -1.199337 -2.003015
  C 7.539755 -1.639791 -3.007639
  H 8.610081 -1.696449 -2.929830
  H 0.564294 0.589221 0.897123
  H 1.605979 -0.900013 0.330821
  H 0.395469 0.046638 -0.850281
  H 2.991527 0.286411 0.863523
  H 2.667644 -0.877803 -1.968939
  H 5.084754 -0.347572 -0.099375
  H 4.873780 -1.414684 -2.968102
  H 7.238795 -0.888481 -1.085388
  H 7.109314 -1.959106 -3.939938
 17
 55.763296
  C 0.954726 0.078807 0.059463
  C 2.442122 -0.105818 0.007010
  C 3.178404 -0.555258 -1.055838
  C 4.596711 -0.667705 -1.027667
  C 5.355017 -1.105814 -2.054982
  C 6.790629 -1.193876 -2.006871
  C 7.550293 -1.631990 -3.009103
  H 8.635017 -1.711194 -2.921897
  H 0.534581 0.617596 0.895393
  H 1.636830 -0.892292 0.352510
  H 0.393343 0.018004 -0.841865
  H 2.984122 0.268632 0.863933
  H 2.670482 -0.863751 -1.955345
  H 5.089083 -0.363156 -0.111125
  H 4.876512 -1.407261 -2.976320
  H 7.255831 -0.892465 -1.079030
  H 7.112236 -1.964367 -3.949887
 17
 58.397284
  C 0.963227 0.096515 0.054286
  C 2.446814 -0.112781 0.018451
  C 3.186683 -0.559776 -1.052152
  C 4.596805 -0.673752 -1.022745
  C 5.357140 -1.113274 -2.051337
  C 6.786616 -1.211497 -1.998038
  C 7.549876 -1.640653 -3.004409
  H 8.622816 -1.687467 -2.928314
  H 0.538734 0.630600 0.875856
  H 1.678280 -0.885265 0.373634
  H 0.397008 -0.006786 -0.856401
  H 2.989930 0.268200 0.866525
  H 2.671707 -0.866501 -1.960706
  H 5.091147 -0.373698 -0.101710
  H 4.878201 -1.410726 -2.975841
  H 7.252650 -0.903898 -1.069769
  H 7.119616 -1.939933 -3.949511
 17
 60.644662
  C 0.966851 0.109669 0.042924
  C 2.444972 -0.123718 0.027818
  C 3.188165 -0.560342 -1.051393
  C 4.595948 -0.674021 -1.022118
  C 5.357084 -1.106152 -2.053578
  C 6.793964 -1.196649 -2.003656
  C 7.556881 -1.629356 -3.007567
  H 8.638420 -1.708019 -2.918778
  H 0.525519 0.635977 0.872804
  H 1.708880 -0.890871 0.379050
  H 0.409608 -0.020601 -0.855088
  H 2.990405 0.261582 0.880485
  H 2.672310 -0.861160 -1.959889
  H 5.094682 -0.375495 -0.093237
  H 4.880443 -1.399649 -2.972865
  H 7.255540 -0.904040 -1.078603
  H 7.122906 -1.956366 -3.946967
 17
 62.551679
  C 0.975129 0.123277 0.038025
  C 2.449841 -0.133027 0.043229
  C 3.197692 -0.557878 -1.046498
  C 4.602228 -0.664755 -1.020482
  C 5.366769 -1.095486 -2.055287
  C 6.792318 -1.191990 -2.000664
  C 7.556202 -1.629829 -3.003923
  H 8.630442 -1.718728 -2.910466
  H 0.526823 0.625496 0.861706
  H 1.747175 -0.905740 0.391106
  H 0.411516 -0.033953 -0.867085
  H 2.994452 0.258409 0.892163
  H 2.677702 -0.857797 -1.957340
  H 5.093660 -0.378213 -0.103075
  H 4.887265 -1.391204 -2.983128
  H 7.257061 -0.903781 -1.061552
  H 7.118738 -1.971483 -3.945686
 17
 63.896217
  C 0.972803 0.153689 0.015527
  C 2.451450 -0.144043 0.051420
  C 3.203738 -0.575723 -1.041186
  C 4.605886 -0.690380 -1.013527
  C 5.369094 -1.123529 -2.048767
  C 6.795015 -1.216736 -1.996831
  C 7.561261 -1.638539 -3.007880
  H 8.629767 -1.684598 -2.932399
  H 0.506144 0.649849 0.846081
  H 1.770424 -0.921349 0.404595
  H 0.417613 -0.032173 -0.872103
  H 2.998930 0.266038 0.898610
  H 2.690479 -0.869242 -1.934062
  H 5.106674 -0.394832 -0.086953
  H 4.888736 -1.415612 -2.975296
  H 7.260941 -0.913976 -1.066734
  H 7.136921 -1.930935 -3.943656
